data_functionalizedCrystal
_audit_creation_method	'MofGen! by Chris Wilmer'
_symmetry_space_group_name_H-M	'P1'
_symmetry_Int_Tables_number	1
_symmetry_cell_setting	triclinic
loop_
_symmetry_equiv_pos_as_xyz
  x,y,z
_cell_length_a	19.288866
_cell_length_b	19.288859
_cell_length_c	18.366186
_cell_angle_alpha	89.994011
_cell_angle_beta	90.007516
_cell_angle_gamma	96.864815
loop_
_atom_site_label
_atom_site_type_symbol
_atom_site_fract_x
_atom_site_fract_y
_atom_site_fract_z
O1	O	-0.921350	0.086652	-0.060523
O2	O	-0.719090	0.098340	-0.060530
O3	O	-0.826067	-0.008634	-0.060522
O4	O	-0.814373	0.193627	-0.060531
O5	O	-0.826048	-0.008640	0.060577
O6	O	-0.719071	0.098335	0.060569
O7	O	-0.921332	0.086647	0.060576
Zn8	Zn	-0.820199	0.092490	0.079800
Zn9	Zn	-0.820223	0.092497	-0.079754
O10	O	-0.814355	0.193622	0.060568
C11	C	-0.693204	0.097961	0.000019
C12	C	-0.616101	0.096832	0.000016
C13	C	-0.060545	0.088701	-0.065987
C14	C	-0.132993	0.089758	-0.065990
C15	C	-0.169211	0.090287	0.000021
C16	C	-0.132979	0.089740	0.066040
C17	C	-0.060534	0.088677	0.066041
C18	C	-0.278530	0.132652	0.050593
C19	C	-0.350973	0.133720	0.050589
C20	C	-0.392657	0.093565	0.000022
C21	C	-0.361887	0.052350	-0.050555
C22	C	-0.289442	0.051287	-0.050554
C23	C	-0.247766	0.091440	0.000028
C24	C	-0.507437	0.095252	-0.065996
C25	C	-0.579887	0.096304	-0.065996
C26	C	-0.579871	0.096294	0.066036
C27	C	-0.507423	0.095235	0.066034
C28	C	-0.471211	0.094717	0.000016
C29	C	-0.825682	-0.034514	0.000027
C30	C	-0.824555	-0.111617	0.000026
C31	C	-0.879698	-0.675658	0.000009
C32	C	-0.880763	-0.603211	0.000015
C33	C	-0.817994	-0.558505	0.000013
C34	C	-0.754155	-0.586250	0.000022
C35	C	-0.753091	-0.658695	0.000023
C36	C	-0.771187	-0.437229	-0.042414
C37	C	-0.772254	-0.364786	-0.042419
C38	C	-0.821272	-0.335059	0.000013
C39	C	-0.869235	-0.377786	0.042442
C40	C	-0.868172	-0.450232	0.042443
C41	C	-0.819140	-0.479949	0.000012
C42	C	-0.886262	-0.228767	0.000016
C43	C	-0.887325	-0.156319	0.000027
C44	C	-0.760714	-0.139359	0.000027
C45	C	-0.759653	-0.211806	0.000023
C46	C	-0.822429	-0.256506	0.000014
C47	C	0.052782	0.087027	0.000026
C48	C	-0.024321	0.088159	0.000023
C49	C	-0.814740	0.219501	0.000017
C50	C	-0.815867	0.296604	0.000014
N51	N	-0.820188	0.092485	0.188691
N52	N	-0.820240	0.092497	-0.188645
C53	C	-0.867573	0.045140	0.226795
C54	C	-0.867577	0.045137	0.303023
C55	C	-0.820203	0.092491	0.341144
C56	C	-0.772809	0.139839	0.303031
C57	C	-0.772802	0.139837	0.226804
C58	C	-0.810904	0.155779	0.461901
C59	C	-0.810916	0.155782	0.538126
C60	C	-0.820223	0.092499	0.576251
C61	C	-0.829532	0.029210	0.538142
C62	C	-0.829524	0.029207	0.461916
C63	C	-0.820206	0.092499	0.423799
C64	C	-0.867615	0.045147	0.697010
C65	C	-0.867615	0.045143	0.773239
C66	C	-0.772850	0.139852	0.773246
C67	C	-0.772848	0.139850	0.697018
C68	C	-0.820234	0.092498	0.658905
H69	H	-0.477929	0.094796	0.119787
F70	F	-0.721212	-0.319320	-0.087581
F71	F	-0.685151	-0.688216	0.000028
H72	H	-0.376018	0.167296	0.091756
H73	H	-0.907224	-0.485017	0.076991
F74	F	-0.801013	0.223140	0.578678
H75	H	-0.244597	0.165347	0.091779
H76	H	-0.734236	0.178395	0.334073
H77	H	-0.837110	-0.022321	0.569182
F78	F	-0.801048	0.223139	0.421333
H79	H	-0.734214	0.178391	0.195779
H80	H	-0.731262	-0.461425	-0.076963
H81	H	-0.707675	-0.234389	0.000022
H82	H	-0.703048	-0.549845	0.000022
F83	F	-0.918002	-0.005258	0.186234
H84	H	-0.031040	0.088238	0.119796
H85	H	-0.609360	0.096722	0.119783
H86	H	-0.609380	0.096740	-0.119751
H87	H	-0.906165	0.006581	0.334053
F88	F	-0.406244	0.009613	-0.104379
H89	H	-0.930815	-0.712049	0.000005
H90	H	-0.906198	0.006588	0.665977
F91	F	-0.918046	-0.005254	0.813794
H92	H	-0.162473	0.090170	0.119787
H93	H	-0.031065	0.088276	-0.119744
F94	F	-0.722427	0.190245	0.813813
H95	H	-0.909146	-0.353584	0.077001
H96	H	-0.937378	-0.265164	0.000009
H97	H	-0.932744	-0.580623	0.000011
H98	H	-0.939305	-0.133738	0.000027
F99	F	-0.722417	0.190244	0.656462
H100	H	-0.837102	-0.022326	0.430891
H101	H	-0.709606	-0.102959	0.000031
H102	H	-0.264392	0.017727	-0.091733
F103	F	-0.171553	0.090335	-0.136249
H104	H	-0.477951	0.094828	-0.119752
