data_functionalizedCrystal
_audit_creation_method	'MofGen! by Chris Wilmer'
_symmetry_space_group_name_H-M	'P1'
_symmetry_Int_Tables_number	1
_symmetry_cell_setting	triclinic
loop_
_symmetry_equiv_pos_as_xyz
  x,y,z
_cell_length_a	29.839131
_cell_length_b	29.839135
_cell_length_c	29.839125
_cell_angle_alpha	89.984249
_cell_angle_beta	90.013540
_cell_angle_gamma	89.956471
loop_
_atom_site_label
_atom_site_type_symbol
_atom_site_fract_x
_atom_site_fract_y
_atom_site_fract_z
Zn1	Zn	-0.178894	-0.686719	0.254063
Zn2	Zn	0.071106	-0.436719	0.504063
Zn3	Zn	0.321106	-0.186719	0.754063
Zn4	Zn	0.571106	0.063281	1.004063
Zn5	Zn	-0.254006	-0.686651	0.178939
Zn6	Zn	-0.004006	-0.436651	0.428939
Zn7	Zn	0.245994	-0.186651	0.678939
Zn8	Zn	0.495994	0.063349	0.928939
Zn9	Zn	-0.178894	-0.611602	0.178941
Zn10	Zn	0.071106	-0.361602	0.428941
Zn11	Zn	0.321106	-0.111602	0.678941
Zn12	Zn	0.571106	0.138398	0.928941
Zn13	Zn	-0.254001	-0.611549	0.254035
Zn14	Zn	-0.004001	-0.361549	0.504035
Zn15	Zn	0.245999	-0.111549	0.754035
Zn16	Zn	0.495999	0.138451	1.004035
O17	O	-0.216449	-0.649130	0.216495
O18	O	0.033551	-0.399130	0.466495
O19	O	0.283551	-0.149130	0.716495
O20	O	0.533551	0.100870	0.966495
O21	O	-0.188861	-0.749577	0.244109
O22	O	0.061139	-0.499577	0.494109
O23	O	0.311139	-0.249577	0.744109
O24	O	0.561139	0.000423	0.994109
O25	O	-0.244045	-0.676689	0.116072
O26	O	0.005955	-0.426689	0.366072
O27	O	0.255955	-0.176689	0.616072
O28	O	0.505955	0.073311	0.866072
O29	O	-0.116027	-0.621617	0.188919
O30	O	0.133973	-0.371617	0.438919
O31	O	0.383973	-0.121617	0.688919
O32	O	0.633973	0.128383	0.938919
O33	O	-0.244045	-0.749527	0.188915
O34	O	0.005955	-0.499527	0.438915
O35	O	0.255955	-0.249527	0.688915
O36	O	0.505955	0.000473	0.938915
O37	O	-0.116027	-0.676805	0.244111
O38	O	0.133973	-0.426805	0.494111
O39	O	0.383973	-0.176805	0.744111
O40	O	0.633973	0.073195	0.994111
O41	O	-0.188860	-0.621550	0.116074
O42	O	0.061140	-0.371550	0.366074
O43	O	0.311140	-0.121550	0.616074
O44	O	0.561140	0.128450	0.866074
O45	O	-0.188854	-0.548727	0.188892
O46	O	0.061146	-0.298727	0.438892
O47	O	0.311146	-0.048727	0.688892
O48	O	0.561146	0.201273	0.938892
O49	O	-0.244035	-0.621527	0.316906
O50	O	0.005965	-0.371527	0.566906
O51	O	0.255965	-0.121527	0.816906
O52	O	0.505965	0.128473	1.066906
O53	O	-0.244035	-0.548689	0.244063
O54	O	0.005965	-0.298689	0.494063
O55	O	0.255965	-0.048689	0.744063
O56	O	0.505965	0.201311	0.994063
O57	O	-0.188855	-0.676754	0.316927
O58	O	0.061145	-0.426754	0.566927
O59	O	0.311145	-0.176754	0.816927
O60	O	0.561145	0.073246	1.066927
O61	O	-0.316873	-0.676638	0.188888
O62	O	-0.066873	-0.426638	0.438888
O63	O	0.183127	-0.176638	0.688888
O64	O	0.433127	0.073362	0.938888
O65	O	-0.316868	-0.621461	0.244061
O66	O	-0.066868	-0.371461	0.494061
O67	O	0.183132	-0.121461	0.744061
O68	O	0.433132	0.128539	0.994061
C69	C	-0.216444	-0.532407	0.216475
C70	C	0.033556	-0.282407	0.466475
C71	C	0.283556	-0.032407	0.716475
C72	C	0.533556	0.217593	0.966475
C73	C	-0.216453	-0.482473	0.216477
C74	C	0.033547	-0.232473	0.466477
C75	C	0.283547	0.017527	0.716477
C76	C	0.533547	0.267527	0.966477
C77	C	-0.187752	-0.172853	0.245274
C78	C	0.062248	0.077147	0.495274
C79	C	0.312248	0.327147	0.745274
C80	C	0.562248	0.577147	0.995274
C81	C	-0.187753	0.014820	0.245286
C82	C	0.062247	0.264820	0.495286
C83	C	0.312247	0.514820	0.745286
C84	C	0.562247	0.764820	0.995286
O85	O	-0.163343	0.039066	0.269750
O86	O	0.086657	0.289066	0.519750
O87	O	0.336657	0.539066	0.769750
O88	O	0.586657	0.789066	1.019750
N89	N	-0.216441	0.038312	0.216508
N90	N	0.033559	0.288312	0.466508
N91	N	0.283559	0.538312	0.716508
N92	N	0.533559	0.788312	0.966508
C93	C	-0.245129	0.014883	0.187723
C94	C	0.004871	0.264883	0.437723
C95	C	0.254871	0.514883	0.687723
C96	C	0.504871	0.764883	0.937723
O97	O	-0.269526	0.039170	0.163242
O98	O	-0.019526	0.289170	0.413242
O99	O	0.230474	0.539170	0.663242
O100	O	0.480474	0.789170	0.913242
C101	C	-0.245125	-0.172789	0.187709
C102	C	0.004875	0.077211	0.437709
C103	C	0.254875	0.327211	0.687709
C104	C	0.504875	0.577211	0.937709
C105	C	-0.216439	-0.196279	0.216492
C106	C	0.033561	0.053721	0.466492
C107	C	0.283561	0.303721	0.716492
C108	C	0.533561	0.553721	0.966492
C109	C	-0.159067	-0.196342	0.274055
C110	C	0.090933	0.053658	0.524055
C111	C	0.340933	0.303658	0.774055
C112	C	0.590933	0.553658	1.024055
C113	C	-0.159069	-0.243257	0.274053
C114	C	0.090931	0.006743	0.524053
C115	C	0.340931	0.256743	0.774053
C116	C	0.590931	0.506743	1.024053
C117	C	-0.187756	-0.266684	0.245271
C118	C	0.062244	-0.016684	0.495271
C119	C	0.312244	0.233316	0.745271
C120	C	0.562244	0.483316	0.995271
C121	C	-0.216440	-0.243194	0.216491
C122	C	0.033560	0.006806	0.466491
C123	C	0.283560	0.256806	0.716491
C124	C	0.533560	0.506806	0.966491
C125	C	-0.273811	-0.196218	0.158922
C126	C	-0.023811	0.053782	0.408922
C127	C	0.226189	0.303782	0.658922
C128	C	0.476189	0.553782	0.908922
C129	C	-0.273806	-0.243139	0.158920
C130	C	-0.023806	0.006861	0.408920
C131	C	0.226194	0.256861	0.658920
C132	C	0.476194	0.506861	0.908920
C133	C	-0.245120	-0.266628	0.187703
C134	C	0.004880	-0.016628	0.437703
C135	C	0.254880	0.233372	0.687703
C136	C	0.504880	0.483372	0.937703
C137	C	-0.245129	-0.313536	0.187707
C138	C	0.004871	-0.063536	0.437707
C139	C	0.254871	0.186464	0.687707
C140	C	0.504871	0.436464	0.937707
N141	N	-0.216441	-0.337028	0.216485
N142	N	0.033559	-0.087028	0.466485
N143	N	0.283559	0.162972	0.716485
N144	N	0.533559	0.412972	0.966485
C145	C	-0.187754	-0.313601	0.245267
C146	C	0.062246	-0.063601	0.495267
C147	C	0.312246	0.186399	0.745267
C148	C	0.562246	0.436399	0.995267
C149	C	-0.245129	0.113413	0.187733
C150	C	0.004871	0.363413	0.437733
C151	C	0.254871	0.613413	0.687733
C152	C	0.504871	0.863413	0.937733
C153	C	-0.245131	0.160331	0.187737
C154	C	0.004869	0.410331	0.437737
C155	C	0.254869	0.660331	0.687737
C156	C	0.504869	0.910331	0.937737
C157	C	-0.187754	0.160266	0.245300
C158	C	0.062246	0.410266	0.495300
C159	C	0.312246	0.660266	0.745300
C160	C	0.562246	0.910266	0.995300
C161	C	-0.187755	0.113347	0.245298
C162	C	0.062245	0.363347	0.495298
C163	C	0.312245	0.613347	0.745298
C164	C	0.562245	0.863347	0.995298
C165	C	-0.216441	0.089922	0.216511
C166	C	0.033559	0.339922	0.466511
C167	C	0.283559	0.589922	0.716511
C168	C	0.533559	0.839922	0.966511
C169	C	-0.187760	-0.412127	0.245262
C170	C	0.062240	-0.162127	0.495262
C171	C	0.312240	0.087873	0.745262
C172	C	0.562240	0.337873	0.995262
C173	C	-0.187766	-0.459047	0.245259
C174	C	0.062234	-0.209047	0.495259
C175	C	0.312234	0.040953	0.745259
C176	C	0.562234	0.290953	0.995259
C177	C	-0.245141	-0.458977	0.187695
C178	C	0.004859	-0.208977	0.437695
C179	C	0.254859	0.041023	0.687695
C180	C	0.504859	0.291023	0.937695
C181	C	-0.245137	-0.412062	0.187699
C182	C	0.004863	-0.162062	0.437699
C183	C	0.254863	0.087938	0.687699
C184	C	0.504863	0.337938	0.937699
C185	C	-0.216443	-0.388638	0.216484
C186	C	0.033557	-0.138638	0.466484
C187	C	0.283557	0.111362	0.716484
C188	C	0.533557	0.361362	0.966484
O189	O	-0.269522	-0.337810	0.163252
O190	O	-0.019522	-0.087810	0.413252
O191	O	0.230478	0.162190	0.663252
O192	O	0.480478	0.412190	0.913252
O193	O	-0.163353	-0.337897	0.269737
O194	O	0.086647	-0.087897	0.519737
O195	O	0.336647	0.162103	0.769737
O196	O	0.586647	0.412103	1.019737
C197	C	-0.187750	-0.125937	0.245276
C198	C	0.062250	0.124063	0.495276
C199	C	0.312250	0.374063	0.745276
C200	C	0.562250	0.624063	0.995276
C201	C	-0.216435	-0.102448	0.216495
C202	C	0.033565	0.147552	0.466495
C203	C	0.283565	0.397552	0.716495
C204	C	0.533565	0.647552	0.966495
C205	C	-0.245121	-0.125874	0.187713
C206	C	0.004879	0.124126	0.437713
C207	C	0.254879	0.374126	0.687713
C208	C	0.504879	0.624126	0.937713
C209	C	-0.216436	-0.055530	0.216499
C210	C	0.033564	0.194470	0.466499
C211	C	0.283564	0.444470	0.716499
C212	C	0.533564	0.694470	0.966499
C213	C	-0.187750	-0.032104	0.245281
C214	C	0.062250	0.217896	0.495281
C215	C	0.312250	0.467896	0.745281
C216	C	0.562250	0.717896	0.995281
C217	C	-0.159062	-0.055596	0.274059
C218	C	0.090938	0.194404	0.524059
C219	C	0.340938	0.444404	0.774059
C220	C	0.590938	0.694404	1.024059
C221	C	-0.159063	-0.102511	0.274058
C222	C	0.090937	0.147489	0.524058
C223	C	0.340937	0.397489	0.774058
C224	C	0.590937	0.647489	1.024058
C225	C	-0.273810	-0.102382	0.158935
C226	C	-0.023810	0.147618	0.408935
C227	C	0.226190	0.397618	0.658935
C228	C	0.476190	0.647618	0.908935
C229	C	-0.273806	-0.055467	0.158939
C230	C	-0.023806	0.194533	0.408939
C231	C	0.226194	0.444533	0.658939
C232	C	0.476194	0.694533	0.908939
C233	C	-0.245119	-0.032041	0.187721
C234	C	0.004881	0.217959	0.437721
C235	C	0.254881	0.467959	0.687721
C236	C	0.504881	0.717959	0.937721
C237	C	-0.333171	-0.649048	0.216481
C238	C	-0.083171	-0.399048	0.466481
C239	C	0.166829	-0.149048	0.716481
C240	C	0.416829	0.100952	0.966481
C241	C	-0.383106	-0.649054	0.216490
C242	C	-0.133106	-0.399054	0.466490
C243	C	0.116894	-0.149054	0.716490
C244	C	0.366894	0.100946	0.966490
C245	C	-0.739706	-0.620418	0.245221
C246	C	-0.489706	-0.370418	0.495221
C247	C	-0.239706	-0.120418	0.745221
C248	C	0.010294	0.129582	0.995221
C249	C	-0.552033	-0.620358	0.245207
C250	C	-0.302033	-0.370358	0.495207
C251	C	-0.052033	-0.120358	0.745207
C252	C	0.197967	0.129642	0.995207
O253	O	-0.527780	-0.595913	0.269627
O254	O	-0.277780	-0.345913	0.519627
O255	O	-0.027780	-0.095913	0.769627
O256	O	0.222220	0.154087	1.019627
N257	N	-0.528551	-0.649102	0.216503
N258	N	-0.278551	-0.399102	0.466503
N259	N	-0.028551	-0.149102	0.716503
N260	N	0.221449	0.100898	0.966503
C261	C	-0.551990	-0.677864	0.187803
C262	C	-0.301990	-0.427864	0.437803
C263	C	-0.051990	-0.177864	0.687803
C264	C	0.198010	0.072136	0.937803
O265	O	-0.527710	-0.702314	0.163392
O266	O	-0.277710	-0.452314	0.413392
O267	O	-0.027710	-0.202314	0.663392
O268	O	0.222290	0.047686	0.913392
C269	C	-0.739662	-0.677926	0.187820
C270	C	-0.489662	-0.427926	0.437820
C271	C	-0.239662	-0.177926	0.687820
C272	C	0.010338	0.072074	0.937820
C273	C	-0.763142	-0.649177	0.216522
C274	C	-0.513142	-0.399177	0.466522
C275	C	-0.263142	-0.149177	0.716522
C276	C	-0.013142	0.100823	0.966522
C277	C	-0.763186	-0.591672	0.273922
C278	C	-0.513186	-0.341672	0.523922
C279	C	-0.263186	-0.091672	0.773922
C280	C	-0.013186	0.158328	1.023922
C281	C	-0.810102	-0.591685	0.273923
C282	C	-0.560102	-0.341685	0.523923
C283	C	-0.310102	-0.091685	0.773923
C284	C	-0.060102	0.158315	1.023923
C285	C	-0.833537	-0.620445	0.245224
C286	C	-0.583537	-0.370445	0.495224
C287	C	-0.333537	-0.120445	0.745224
C288	C	-0.083537	0.129555	0.995224
C289	C	-0.810057	-0.649190	0.216524
C290	C	-0.560057	-0.399190	0.466524
C291	C	-0.310057	-0.149190	0.716524
C292	C	-0.060057	0.100810	0.966524
C293	C	-0.763100	-0.706690	0.159122
C294	C	-0.513100	-0.456690	0.409122
C295	C	-0.263100	-0.206690	0.659122
C296	C	-0.013100	0.043310	0.909122
C297	C	-0.810021	-0.706703	0.159130
C298	C	-0.560021	-0.456703	0.409130
C299	C	-0.310021	-0.206703	0.659130
C300	C	-0.060021	0.043297	0.909130
C301	C	-0.833501	-0.677955	0.187832
C302	C	-0.583501	-0.427955	0.437832
C303	C	-0.333501	-0.177955	0.687832
C304	C	-0.083501	0.072045	0.937832
C305	C	-0.880408	-0.677963	0.187826
C306	C	-0.630408	-0.427963	0.437826
C307	C	-0.380408	-0.177963	0.687826
C308	C	-0.130408	0.072037	0.937826
N309	N	-0.903891	-0.649220	0.216530
N310	N	-0.653891	-0.399220	0.466530
N311	N	-0.403891	-0.149220	0.716530
N312	N	-0.153891	0.100780	0.966530
C313	C	-0.880455	-0.620460	0.245229
C314	C	-0.630455	-0.370460	0.495229
C315	C	-0.380455	-0.120460	0.745229
C316	C	-0.130455	0.129540	0.995229
C317	C	-0.453459	-0.677829	0.187796
C318	C	-0.203459	-0.427829	0.437796
C319	C	0.046541	-0.177829	0.687796
C320	C	0.296541	0.072171	0.937796
C321	C	-0.406541	-0.677814	0.187791
C322	C	-0.156541	-0.427814	0.437791
C323	C	0.093459	-0.177814	0.687791
C324	C	0.343459	0.072186	0.937791
C325	C	-0.406588	-0.620308	0.245196
C326	C	-0.156588	-0.370308	0.495196
C327	C	0.093412	-0.120308	0.745196
C328	C	0.343412	0.129692	0.995196
C329	C	-0.453507	-0.620322	0.245198
C330	C	-0.203507	-0.370322	0.495198
C331	C	0.046493	-0.120322	0.745198
C332	C	0.296493	0.129678	0.995198
C333	C	-0.476941	-0.649086	0.216500
C334	C	-0.226941	-0.399086	0.466500
C335	C	0.023059	-0.149086	0.716500
C336	C	0.273059	0.100914	0.966500
C337	C	-0.978981	-0.620490	0.245230
C338	C	-0.728981	-0.370490	0.495230
C339	C	-0.478981	-0.120490	0.745230
C340	C	-0.228981	0.129510	0.995230
C341	C	-1.025900	-0.620505	0.245228
C342	C	-0.775900	-0.370505	0.495228
C343	C	-0.525900	-0.120505	0.745228
C344	C	-0.275900	0.129495	0.995228
C345	C	-1.025850	-0.678012	0.187824
C346	C	-0.775850	-0.428012	0.437824
C347	C	-0.525850	-0.178012	0.687824
C348	C	-0.275850	0.071988	0.937824
C349	C	-0.978934	-0.677996	0.187825
C350	C	-0.728934	-0.427996	0.437825
C351	C	-0.478934	-0.177996	0.687825
C352	C	-0.228934	0.072004	0.937825
C353	C	-0.955501	-0.649234	0.216531
C354	C	-0.705501	-0.399234	0.466531
C355	C	-0.455501	-0.149234	0.716531
C356	C	-0.205501	0.100766	0.966531
O357	O	-0.904690	-0.702399	0.163423
O358	O	-0.654690	-0.452399	0.413423
O359	O	-0.404690	-0.202399	0.663423
O360	O	-0.154690	0.047601	0.913423
O361	O	-0.904743	-0.596021	0.269644
O362	O	-0.654743	-0.346021	0.519644
O363	O	-0.404743	-0.096021	0.769644
O364	O	-0.154743	0.153979	1.019644
C365	C	-0.692791	-0.620404	0.245220
C366	C	-0.442791	-0.370404	0.495220
C367	C	-0.192791	-0.120404	0.745220
C368	C	0.057209	0.129596	0.995220
C369	C	-0.669311	-0.649150	0.216519
C370	C	-0.419311	-0.399150	0.466519
C371	C	-0.169311	-0.149150	0.716519
C372	C	0.080689	0.100850	0.966519
C373	C	-0.692746	-0.677909	0.187820
C374	C	-0.442746	-0.427909	0.437820
C375	C	-0.192746	-0.177909	0.687820
C376	C	0.057254	0.072091	0.937820
C377	C	-0.622393	-0.649134	0.216515
C378	C	-0.372393	-0.399134	0.466515
C379	C	-0.122393	-0.149134	0.716515
C380	C	0.127607	0.100866	0.966515
C381	C	-0.598958	-0.620375	0.245214
C382	C	-0.348958	-0.370375	0.495214
C383	C	-0.098958	-0.120375	0.745214
C384	C	0.151042	0.129625	0.995214
C385	C	-0.622440	-0.591632	0.273918
C386	C	-0.372440	-0.341632	0.523918
C387	C	-0.122440	-0.091632	0.773918
C388	C	0.127560	0.158368	1.023918
C389	C	-0.669355	-0.591645	0.273919
C390	C	-0.419355	-0.341645	0.523919
C391	C	-0.169355	-0.091645	0.773919
C392	C	0.080645	0.158355	1.023919
C393	C	-0.669264	-0.706653	0.159116
C394	C	-0.419264	-0.456653	0.409116
C395	C	-0.169264	-0.206653	0.659116
C396	C	0.080736	0.043347	0.909116
C397	C	-0.622349	-0.706637	0.159117
C398	C	-0.372349	-0.456637	0.409117
C399	C	-0.122349	-0.206637	0.659117
C400	C	0.127651	0.043363	0.909117
C401	C	-0.598913	-0.677878	0.187816
C402	C	-0.348913	-0.427878	0.437816
C403	C	-0.098913	-0.177878	0.687816
C404	C	0.151087	0.072122	0.937816
C405	C	-0.099270	-0.649224	0.216518
C406	C	0.150730	-0.399224	0.466518
C407	C	0.400730	-0.149224	0.716518
C408	C	0.650730	0.100776	0.966518
C409	C	-0.049336	-0.649264	0.216528
C410	C	0.200664	-0.399264	0.466528
C411	C	0.450664	-0.149264	0.716528
C412	C	0.700664	0.100736	0.966528
C413	C	-0.216445	-0.649142	0.333673
C414	C	0.033555	-0.399142	0.583673
C415	C	0.283555	-0.149142	0.833673
C416	C	0.533555	0.100858	1.083673
C417	C	-0.216443	-0.649147	0.383608
C418	C	0.033557	-0.399147	0.633608
C419	C	0.283557	-0.149147	0.883608
C420	C	0.533557	0.100853	1.133608
C421	C	-0.216451	0.233692	0.216514
C422	C	0.033549	0.483692	0.466514
C423	C	0.283549	0.733692	0.716514
C424	C	0.533549	0.983692	0.966514
C425	C	-0.216444	0.183757	0.216519
C426	C	0.033556	0.433757	0.466519
C427	C	0.283556	0.683757	0.716519
C428	C	0.533556	0.933757	0.966519
C429	C	-0.216420	-0.649144	0.099772
C430	C	0.033580	-0.399144	0.349772
C431	C	0.283580	-0.149144	0.599772
C432	C	0.533580	0.100856	0.849772
C433	C	-0.216296	-0.649226	0.049838
C434	C	0.033704	-0.399226	0.299838
C435	C	0.283704	-0.149226	0.549838
C436	C	0.533704	0.100774	0.799838
C437	C	-0.187635	-0.677934	0.693265
C438	C	0.062365	-0.427934	0.943265
C439	C	0.312365	-0.177934	1.193265
C440	C	0.562365	0.072066	1.443265
C441	C	-0.187597	-0.677956	0.880938
C442	C	0.062403	-0.427956	1.130938
C443	C	0.312403	-0.177956	1.380938
C444	C	0.562403	0.072044	1.630938
O445	O	-0.163147	-0.702399	0.905214
O446	O	0.086853	-0.452399	1.155214
O447	O	0.336853	-0.202399	1.405214
O448	O	0.586853	0.047601	1.655214
N449	N	-0.216323	-0.649207	0.904393
N450	N	0.033677	-0.399207	1.154393
N451	N	0.283677	-0.149207	1.404393
N452	N	0.533677	0.100793	1.654393
C453	C	-0.245058	-0.620448	0.880927
C454	C	0.004942	-0.370448	1.130927
C455	C	0.254942	-0.120448	1.380927
C456	C	0.504942	0.129552	1.630927
O457	O	-0.269486	-0.595991	0.905183
O458	O	-0.019486	-0.345991	1.155183
O459	O	0.230514	-0.095991	1.405183
O460	O	0.480514	0.154009	1.655183
C461	C	-0.245093	-0.620423	0.693254
C462	C	0.004907	-0.370423	0.943254
C463	C	0.254907	-0.120423	1.193254
C464	C	0.504907	0.129577	1.443254
C465	C	-0.216369	-0.649178	0.669802
C466	C	0.033631	-0.399178	0.919802
C467	C	0.283631	-0.149178	1.169802
C468	C	0.533631	0.100822	1.419802
C469	C	-0.158913	-0.706686	0.669812
C470	C	0.091087	-0.456686	0.919812
C471	C	0.341087	-0.206686	1.169812
C472	C	0.591087	0.043314	1.419812
C473	C	-0.158925	-0.706682	0.622897
C474	C	0.091075	-0.456682	0.872897
C475	C	0.341075	-0.206682	1.122897
C476	C	0.591075	0.043318	1.372897
C477	C	-0.187659	-0.677926	0.599434
C478	C	0.062341	-0.427926	0.849434
C479	C	0.312341	-0.177926	1.099434
C480	C	0.562341	0.072074	1.349434
C481	C	-0.216381	-0.649174	0.622886
C482	C	0.033619	-0.399174	0.872886
C483	C	0.283619	-0.149174	1.122886
C484	C	0.533619	0.100826	1.372886
C485	C	-0.273826	-0.591662	0.669789
C486	C	-0.023826	-0.341662	0.919789
C487	C	0.226174	-0.091662	1.169789
C488	C	0.476174	0.158338	1.419789
C489	C	-0.273832	-0.591658	0.622868
C490	C	-0.023832	-0.341658	0.872868
C491	C	0.226168	-0.091658	1.122868
C492	C	0.476168	0.158342	1.372868
C493	C	-0.245107	-0.620412	0.599415
C494	C	0.004893	-0.370412	0.849415
C495	C	0.254893	-0.120412	1.099415
C496	C	0.504893	0.129588	1.349415
C497	C	-0.245126	-0.620414	0.552508
C498	C	0.004874	-0.370414	0.802508
C499	C	0.254874	-0.120414	1.052508
C500	C	0.504874	0.129586	1.302508
N501	N	-0.216401	-0.649163	0.529053
N502	N	0.033599	-0.399163	0.779053
N503	N	0.283599	-0.149163	1.029053
N504	N	0.533599	0.100837	1.279053
C505	C	-0.187667	-0.677919	0.552516
C506	C	0.062333	-0.427919	0.802516
C507	C	0.312333	-0.177919	1.052516
C508	C	0.562333	0.072081	1.302516
C509	C	-0.245038	-0.620463	0.979457
C510	C	0.004962	-0.370463	1.229457
C511	C	0.254962	-0.120463	1.479457
C512	C	0.504962	0.129537	1.729457
C513	C	-0.245029	-0.620469	1.026375
C514	C	0.004971	-0.370469	1.276375
C515	C	0.254971	-0.120469	1.526375
C516	C	0.504971	0.129531	1.776375
C517	C	-0.187568	-0.677978	1.026383
C518	C	0.062432	-0.427978	1.276383
C519	C	0.312432	-0.177978	1.526383
C520	C	0.562432	0.072022	1.776383
C521	C	-0.187579	-0.677973	0.979464
C522	C	0.062421	-0.427973	1.229464
C523	C	0.312421	-0.177973	1.479464
C524	C	0.562421	0.072027	1.729464
C525	C	-0.216312	-0.649213	0.956002
C526	C	0.033688	-0.399213	1.206002
C527	C	0.283688	-0.149213	1.456002
C528	C	0.533688	0.100787	1.706002
C529	C	-0.187694	-0.677909	0.453990
C530	C	0.062306	-0.427909	0.703990
C531	C	0.312306	-0.177909	0.953990
C532	C	0.562306	0.072091	1.203990
C533	C	-0.187709	-0.677903	0.407070
C534	C	0.062291	-0.427903	0.657070
C535	C	0.312291	-0.177903	0.907070
C536	C	0.562291	0.072097	1.157070
C537	C	-0.245169	-0.620393	0.407066
C538	C	0.004831	-0.370393	0.657066
C539	C	0.254831	-0.120393	0.907066
C540	C	0.504831	0.129607	1.157066
C541	C	-0.245155	-0.620400	0.453982
C542	C	0.004845	-0.370400	0.703982
C543	C	0.254845	-0.120400	0.953982
C544	C	0.504845	0.129600	1.203982
C545	C	-0.216414	-0.649159	0.477443
C546	C	0.033586	-0.399159	0.727443
C547	C	0.283586	-0.149159	0.977443
C548	C	0.533586	0.100841	1.227443
O549	O	-0.269561	-0.595981	0.528203
O550	O	-0.019561	-0.345981	0.778203
O551	O	0.230439	-0.095981	1.028203
O552	O	0.480439	0.154019	1.278203
O553	O	-0.163235	-0.702365	0.528252
O554	O	0.086765	-0.452365	0.778252
O555	O	0.336765	-0.202365	1.028252
O556	O	0.586765	0.047635	1.278252
C557	C	-0.187624	-0.677938	0.740180
C558	C	0.062376	-0.427938	0.990180
C559	C	0.312376	-0.177938	1.240180
C560	C	0.562376	0.072062	1.490180
C561	C	-0.216346	-0.649186	0.763633
C562	C	0.033654	-0.399186	1.013633
C563	C	0.283654	-0.149186	1.263633
C564	C	0.533654	0.100814	1.513633
C565	C	-0.245080	-0.620430	0.740170
C566	C	0.004920	-0.370430	0.990170
C567	C	0.254920	-0.120430	1.240170
C568	C	0.504920	0.129570	1.490170
C569	C	-0.216338	-0.649193	0.810551
C570	C	0.033662	-0.399193	1.060551
C571	C	0.283662	-0.149193	1.310551
C572	C	0.533662	0.100807	1.560551
C573	C	-0.187604	-0.677949	0.834014
C574	C	0.062396	-0.427949	1.084014
C575	C	0.312396	-0.177949	1.334014
C576	C	0.562396	0.072051	1.584014
C577	C	-0.158878	-0.706699	0.810559
C578	C	0.091122	-0.456699	1.060559
C579	C	0.341122	-0.206699	1.310559
C580	C	0.591122	0.043301	1.560559
C581	C	-0.158890	-0.706694	0.763643
C582	C	0.091110	-0.456694	1.013643
C583	C	0.341110	-0.206694	1.263643
C584	C	0.591110	0.043306	1.513643
C585	C	-0.273805	-0.591681	0.763625
C586	C	-0.023805	-0.341681	1.013625
C587	C	0.226195	-0.091681	1.263625
C588	C	0.476195	0.158319	1.513625
C589	C	-0.273792	-0.591687	0.810540
C590	C	-0.023792	-0.341687	1.060540
C591	C	0.226208	-0.091687	1.310540
C592	C	0.476208	0.158313	1.560540
C593	C	-0.245058	-0.620444	0.834003
C594	C	0.004942	-0.370444	1.084003
C595	C	0.254942	-0.120444	1.334003
C596	C	0.504942	0.129556	1.584003
H597	H	-0.297170	-0.177101	0.135483
H598	H	-0.047170	0.072899	0.385483
H599	H	0.202830	0.322899	0.635483
H600	H	0.452830	0.572899	0.885483
H601	H	-0.472621	-0.596915	0.268573
H602	H	-0.222621	-0.346915	0.518573
H603	H	0.027379	-0.096915	0.768573
H604	H	0.277379	0.153085	1.018573
H605	H	-0.135500	-0.730109	0.744552
H606	H	0.114500	-0.480109	0.994552
H607	H	0.364500	-0.230109	1.244552
H608	H	0.614500	0.019891	1.494552
F609	F	-0.157223	0.185205	0.275931
F610	F	0.092777	0.435205	0.525931
F611	F	0.342777	0.685205	0.775931
F612	F	0.592777	0.935205	1.025931
F613	F	-0.156987	-0.708583	1.051362
F614	F	0.093013	-0.458583	1.301362
F615	F	0.343013	-0.208583	1.551362
F616	F	0.593013	0.041417	1.801362
H617	H	-0.268495	0.179452	0.164303
H618	H	-0.018495	0.429452	0.414303
H619	H	0.231505	0.679452	0.664303
H620	H	0.481505	0.929452	0.914303
H621	H	-0.135484	-0.730114	0.829670
H622	H	0.114516	-0.480114	1.079670
H623	H	0.364516	-0.230114	1.329670
H624	H	0.614516	0.019886	1.579670
F625	F	-0.835085	-0.561092	0.304478
F626	F	-0.585085	-0.311092	0.554478
F627	F	-0.335085	-0.061092	0.804478
F628	F	-0.085085	0.188908	1.054478
H629	H	-0.297166	-0.262209	0.135477
H630	H	-0.047166	-0.012209	0.385477
H631	H	0.202834	0.237791	0.635477
H632	H	0.452834	0.487791	0.885477
F633	F	-0.597365	-0.737236	0.128564
F634	F	-0.347365	-0.487236	0.378564
F635	F	-0.097365	-0.237236	0.628564
F636	F	0.152635	0.012764	0.878564
F637	F	-0.275670	-0.483917	0.157065
F638	F	-0.025670	-0.233917	0.407065
F639	F	0.224330	0.016083	0.657065
F640	F	0.474330	0.266083	0.907065
F641	F	-0.275659	0.088488	0.157089
F642	F	-0.025659	0.338488	0.407089
F643	F	0.224341	0.588488	0.657089
F644	F	0.474341	0.838488	0.907089
H645	H	-0.472535	-0.701253	0.164424
H646	H	-0.222535	-0.451253	0.414424
H647	H	0.027465	-0.201253	0.664424
H648	H	0.277465	0.048747	0.914424
H649	H	-0.268564	-0.596982	0.387954
H650	H	-0.018564	-0.346982	0.637954
H651	H	0.231436	-0.096982	0.887954
H652	H	0.481436	0.153018	1.137954
F653	F	-0.953944	-0.708585	0.157268
F654	F	-0.703944	-0.458585	0.407268
F655	F	-0.453944	-0.208585	0.657268
F656	F	-0.203944	0.041415	0.907268
H657	H	-0.135703	-0.121632	0.297496
H658	H	0.114297	0.128368	0.547496
H659	H	0.364297	0.378368	0.797496
H660	H	0.614297	0.628368	1.047496
H661	H	-0.297187	-0.568273	0.829631
H662	H	-0.047187	-0.318273	1.079631
H663	H	0.202813	-0.068273	1.329631
H664	H	0.452813	0.181727	1.579631
F665	F	-0.304389	-0.561072	0.738660
F666	F	-0.054389	-0.311072	0.988660
F667	F	0.195611	-0.061072	1.238660
F668	F	0.445611	0.188928	1.488660
H669	H	-0.297170	-0.121451	0.135496
H670	H	-0.047170	0.128549	0.385496
H671	H	0.202830	0.378549	0.635496
H672	H	0.452830	0.628549	0.885496
H673	H	-0.829099	-0.730128	0.135761
H674	H	-0.579099	-0.480128	0.385761
H675	H	-0.329099	-0.230128	0.635761
H676	H	-0.079099	0.019872	0.885761
F677	F	-0.128533	-0.030656	0.304693
F678	F	0.121467	0.219344	0.554693
F679	F	0.371467	0.469344	0.804693
F680	F	0.621467	0.719344	1.054693
H681	H	-0.164405	-0.478170	0.268700
H682	H	0.085595	-0.228170	0.518700
H683	H	0.335595	0.021830	0.768700
H684	H	0.585595	0.271830	1.018700
H685	H	-0.743989	-0.730100	0.135750
H686	H	-0.493989	-0.480100	0.385750
H687	H	-0.243989	-0.230100	0.635750
H688	H	0.006011	0.019900	0.885750
F689	F	-0.275680	-0.387062	0.157076
F690	F	-0.025680	-0.137062	0.407076
F691	F	0.224320	0.112938	0.657076
F692	F	0.474320	0.362938	0.907076
H693	H	-0.297225	-0.568232	0.603767
H694	H	-0.047225	-0.318232	0.853767
H695	H	0.202775	-0.068232	1.103767
H696	H	0.452775	0.181768	1.353767
F697	F	-0.304341	-0.030473	0.128302
F698	F	-0.054341	0.219527	0.378302
F699	F	0.195659	0.469527	0.628302
F700	F	0.445659	0.719527	0.878302
F701	F	-0.275729	-0.589799	0.478943
F702	F	-0.025729	-0.339799	0.728943
F703	F	0.224271	-0.089799	0.978943
F704	F	0.474271	0.160201	1.228943
H705	H	-0.164394	-0.393061	0.268700
H706	H	0.085606	-0.143061	0.518700
H707	H	0.335606	0.106939	0.768700
H708	H	0.585606	0.356939	1.018700
H709	H	-0.387427	-0.701218	0.164414
H710	H	-0.137427	-0.451218	0.414414
H711	H	0.112573	-0.201218	0.664414
H712	H	0.362573	0.048782	0.914414
H713	H	-1.044939	-0.701425	0.164457
H714	H	-0.794939	-0.451425	0.414457
H715	H	-0.544939	-0.201425	0.664457
H716	H	-0.294939	0.048575	0.914457
F717	F	-0.157137	-0.708510	0.382113
F718	F	0.092863	-0.458510	0.632113
F719	F	0.342863	-0.208510	0.882113
F720	F	0.592863	0.041490	1.132113
H721	H	-0.135709	-0.262378	0.297491
H722	H	0.114291	-0.012378	0.547491
H723	H	0.364291	0.237622	0.797491
H724	H	0.614291	0.487622	1.047491
F725	F	-0.694339	-0.561048	0.304470
F726	F	-0.444339	-0.311048	0.554470
F727	F	-0.194339	-0.061048	0.804470
F728	F	0.055661	0.188952	1.054470
F729	F	-0.128532	-0.171417	0.304691
F730	F	0.121468	0.078583	0.554691
F731	F	0.371468	0.328583	0.804691
F732	F	0.621468	0.578583	1.054691
F733	F	-1.050887	-0.589906	0.275778
F734	F	-0.800887	-0.339906	0.525778
F735	F	-0.550887	-0.089906	0.775778
F736	F	-0.300887	0.160094	1.025778
H737	H	-0.164395	0.094225	0.268734
H738	H	0.085605	0.344225	0.518734
H739	H	0.335605	0.594225	0.768734
H740	H	0.585605	0.844225	1.018734
F741	F	-0.954048	-0.589878	0.275782
F742	F	-0.704048	-0.339878	0.525782
F743	F	-0.454048	-0.089878	0.775782
F744	F	-0.204048	0.160122	1.025782
F745	F	-0.738251	-0.561061	0.304471
F746	F	-0.488251	-0.311061	0.554471
F747	F	-0.238251	-0.061061	0.804471
F748	F	0.011749	0.188939	1.054471
F749	F	-0.597490	-0.561023	0.304460
F750	F	-0.347490	-0.311023	0.554460
F751	F	-0.097490	-0.061023	0.804460
F752	F	0.152510	0.188977	1.054460
H753	H	-0.387499	-0.596891	0.268563
H754	H	-0.137499	-0.346891	0.518563
H755	H	0.112501	-0.096891	0.768563
H756	H	0.362501	0.153109	1.018563
H757	H	-0.688340	-0.730073	0.135746
H758	H	-0.438340	-0.480073	0.385746
H759	H	-0.188340	-0.230073	0.635746
H760	H	0.061660	0.019927	0.885746
H761	H	-0.164289	-0.701326	0.473086
H762	H	0.085711	-0.451326	0.723086
H763	H	0.335711	-0.201326	0.973086
H764	H	0.585711	0.048674	1.223086
H765	H	-0.135534	-0.730096	0.603806
H766	H	0.114466	-0.480096	0.853806
H767	H	0.364466	-0.230096	1.103806
H768	H	0.614466	0.019904	1.353806
F769	F	-0.128332	-0.737299	0.694776
F770	F	0.121668	-0.487299	0.944776
F771	F	0.371668	-0.237299	1.194776
F772	F	0.621668	0.012701	1.444776
H773	H	-0.164188	-0.701387	0.960373
H774	H	0.085812	-0.451387	1.210373
H775	H	0.335812	-0.201387	1.460373
H776	H	0.585812	0.048613	1.710373
H777	H	-0.268424	-0.597059	1.045466
H778	H	-0.018424	-0.347059	1.295466
H779	H	0.231576	-0.097059	1.545466
H780	H	0.481576	0.152941	1.795466
F781	F	-0.275622	-0.589850	0.954493
F782	F	-0.025622	-0.339850	1.204493
F783	F	0.224378	-0.089850	1.454493
F784	F	0.474378	0.160150	1.704493
H785	H	-0.297216	-0.568247	0.688876
H786	H	-0.047216	-0.318247	0.938876
H787	H	0.202784	-0.068247	1.188876
H788	H	0.452784	0.181753	1.438876
