data_functionalizedCrystal
_audit_creation_method	'MofGen! by Chris Wilmer'
_symmetry_space_group_name_H-M	'P1'
_symmetry_Int_Tables_number	1
_symmetry_cell_setting	triclinic
loop_
_symmetry_equiv_pos_as_xyz
  x,y,z
_cell_length_a	21.295411
_cell_length_b	21.295418
_cell_length_c	16.959454
_cell_angle_alpha	90.035890
_cell_angle_beta	89.986811
_cell_angle_gamma	89.956262
loop_
_atom_site_label
_atom_site_type_symbol
_atom_site_fract_x
_atom_site_fract_y
_atom_site_fract_z
Zn1	Zn	-0.356271	0.962401	-0.314438
Zn2	Zn	-0.251012	0.962323	-0.446599
Zn3	Zn	-0.250980	0.857125	-0.314475
Zn4	Zn	-0.356208	0.857113	-0.446615
O5	O	-0.303618	0.909741	-0.380532
O6	O	-0.342347	1.050480	-0.331947
O7	O	-0.162918	0.948340	-0.429082
O8	O	-0.264961	0.871127	-0.203859
O9	O	-0.265014	1.050423	-0.429046
O10	O	-0.342317	0.948474	-0.203832
O11	O	-0.162895	0.871051	-0.332011
O12	O	-0.264900	0.769034	-0.332026
O13	O	-0.444306	0.871108	-0.429072
O14	O	-0.342210	0.769025	-0.429108
O15	O	-0.444352	0.948463	-0.331963
O16	O	-0.264953	0.948329	-0.557212
O17	O	-0.342240	0.871032	-0.557224
C18	C	-0.303545	0.746189	-0.380573
C19	C	-0.303529	0.676221	-0.380610
C20	C	-0.343724	0.643366	-0.431228
C21	C	-0.343753	0.577624	-0.431208
C22	C	-0.303574	0.544738	-0.380579
C23	C	-0.263376	0.577601	-0.329952
C24	C	-0.263354	0.643342	-0.329967
N25	N	-0.248516	0.441461	-0.374393
N26	N	-0.248539	0.379010	-0.374383
C27	C	-0.303641	0.346664	-0.380529
N28	N	-0.358720	0.379128	-0.386701
N29	N	-0.358696	0.441585	-0.386715
C30	C	-0.303595	0.473453	-0.380557
C31	C	-0.343871	0.242524	-0.431128
C32	C	-0.343900	0.176780	-0.431103
C33	C	-0.263518	0.176758	-0.329851
C34	C	-0.263494	0.242501	-0.329872
C35	C	-0.303670	0.275379	-0.380515
C36	C	-0.467808	0.909793	-0.380515
C37	C	-0.537776	0.909815	-0.380508
C38	C	-0.570668	0.950092	-0.329941
C39	C	-0.636410	0.950091	-0.329906
C40	C	-0.669259	0.909820	-0.380453
C41	C	-0.636359	0.869535	-0.431024
C42	C	-0.570618	0.869533	-0.431052
N43	N	-0.772481	0.904973	-0.449602
N44	N	-0.834932	0.904979	-0.449574
C45	C	-0.867334	0.909824	-0.380373
N46	N	-0.834924	0.914675	-0.311201
N47	N	-0.772467	0.914672	-0.311230
C48	C	-0.740544	0.909818	-0.380429
C49	C	-0.971511	0.950102	-0.329765
C50	C	-1.037254	0.950097	-0.329729
C51	C	-1.037202	0.869544	-0.430854
C52	C	-0.971460	0.869546	-0.430883
C53	C	-0.938618	0.909828	-0.380339
C54	C	-0.140066	0.909725	-0.380491
C55	C	-0.070098	0.909824	-0.380276
C56	C	-0.303607	0.909688	-0.585898
C57	C	-0.303623	0.909723	-0.673755
C58	C	-0.303691	1.073931	-0.380491
C59	C	-0.303722	1.143899	-0.380473
C60	C	-0.343857	0.869550	-1.045266
C61	C	-0.263443	0.950106	-1.045194
C62	C	-0.263437	0.950084	-0.962648
C63	C	-0.303641	0.909794	-0.921407
C64	C	-0.343851	0.869526	-0.962713
C65	C	-0.223223	0.990347	-0.921337
C66	C	-0.223215	0.990326	-0.838786
C67	C	-0.263423	0.950039	-0.797544
C68	C	-0.303635	0.909769	-0.838854
C69	C	-0.343839	0.869479	-0.797613
C70	C	-0.384055	0.829213	-0.838922
C71	C	-0.384059	0.829238	-0.921470
C72	C	-0.263419	0.950013	-0.714995
C73	C	-0.343833	0.869455	-0.715060
C74	C	-0.303642	0.909811	-0.174363
C75	C	-0.303653	0.909840	-0.086507
H76	H	-0.376587	0.269295	-0.472361
H77	H	-0.230673	0.982795	-0.681366
H78	H	-0.663109	0.836744	-0.472178
Cl79	Cl	-0.394234	0.684696	-0.494890
H80	H	-0.376636	0.150031	-0.472321
H81	H	-0.230622	0.670092	-0.288746
Cl82	Cl	-0.529384	1.000729	-0.266395
H83	H	-0.190470	1.023114	-0.805158
Cl84	Cl	-0.172688	1.040998	-0.973185
Cl85	Cl	-0.529266	0.818895	-0.494628
Cl86	Cl	-0.394288	0.536312	-0.494848
Cl87	Cl	-0.394382	0.818804	-0.663221
H88	H	-1.064034	0.982894	-0.288546
Cl89	Cl	-0.930221	1.000738	-0.266221
H90	H	-0.230664	0.550821	-0.288728
H91	H	-0.230807	0.149984	-0.288624
H92	H	-0.230760	0.269251	-0.288657
Cl93	Cl	-1.078491	0.818911	-0.494393
H94	H	-0.944679	0.836752	-0.472065
H95	H	-0.416787	0.796405	-0.805334
H96	H	-0.416800	0.796455	-0.955111
H97	H	-0.663196	0.982888	-0.288724
H98	H	-0.230706	0.982905	-1.078777
Cl99	Cl	-0.394414	0.818935	-1.097194
