data_functionalizedCrystal
_audit_creation_method	'MofGen! by Chris Wilmer'
_symmetry_space_group_name_H-M	'P1'
_symmetry_Int_Tables_number	1
_symmetry_cell_setting	triclinic
loop_
_symmetry_equiv_pos_as_xyz
  x,y,z
_cell_length_a	16.974800
_cell_length_b	10.654559
_cell_length_c	16.053789
_cell_angle_alpha	92.864088
_cell_angle_beta	89.238068
_cell_angle_gamma	83.938095
loop_
_atom_site_label
_atom_site_type_symbol
_atom_site_fract_x
_atom_site_fract_y
_atom_site_fract_z
O1	O	1.049962	0.159863	-0.001544
O2	O	0.820538	0.181323	0.013965
O3	O	0.940521	-0.012253	0.005852
O4	O	0.929979	0.353438	0.006569
O5	O	0.934529	-0.021665	-0.132602
O6	O	0.814545	0.171911	-0.124489
O7	O	1.043970	0.150451	-0.139998
Zn8	Zn	0.928306	0.159687	-0.154226
Zn9	Zn	0.936201	0.172087	0.028193
O10	O	0.923987	0.344027	-0.131885
C11	C	0.788165	0.175979	-0.053276
C12	C	0.700631	0.174063	-0.047359
C13	C	0.656245	0.168029	-0.120052
C14	C	0.574000	0.166208	-0.114495
C15	C	0.536140	0.170430	-0.036243
C16	C	0.580531	0.176461	0.036456
C17	C	0.662777	0.178272	0.030897
C18	C	0.290514	0.165554	-0.011526
C19	C	0.208263	0.163745	-0.005973
C20	C	0.201737	0.153490	-0.156925
C21	C	0.283983	0.155310	-0.162476
C22	C	0.328368	0.161334	-0.089778
N23	N	0.452071	0.168573	-0.030561
N24	N	0.412436	0.163182	-0.095461
C25	C	0.936749	-0.063741	-0.063322
C26	C	0.934429	-0.203136	-0.063161
C27	C	0.861604	-0.253198	-0.058235
C28	C	0.859428	-0.384176	-0.058089
C29	C	1.002910	-0.415020	-0.067794
C30	C	1.005084	-0.284044	-0.067946
C31	C	0.768169	-0.547947	-0.100562
C32	C	0.695340	-0.598012	-0.095621
C33	C	0.634808	-0.538585	-0.042870
C34	C	0.647102	-0.429093	0.004960
C35	C	0.719932	-0.379035	0.000026
C36	C	0.780461	-0.438461	-0.052744
C37	C	1.096339	-0.120269	-0.025465
C38	C	1.169170	-0.070209	-0.030394
C39	C	1.229709	-0.129634	-0.083140
C40	C	1.217424	-0.239131	-0.130958
C41	C	1.144593	-0.289192	-0.126030
C42	C	1.084053	-0.229757	-0.073285
C43	C	1.076343	0.155795	-0.072755
C44	C	1.163877	0.157712	-0.078667
C45	C	0.927758	0.395515	-0.062710
C46	C	0.930079	0.534910	-0.062865
N47	N	0.922924	0.151223	-0.278723
C48	C	0.969272	0.224167	-0.325546
C49	C	0.965518	0.218238	-0.412699
C50	C	0.915410	0.139371	-0.453028
C51	C	0.869060	0.066419	-0.406199
C52	C	0.872819	0.072342	-0.319048
C53	C	0.898999	0.113512	-0.713330
C54	C	0.895242	0.107597	-0.800488
C55	C	0.991701	0.259414	-0.806982
C56	C	0.995452	0.265336	-0.719828
C57	C	0.949105	0.192379	-0.673007
N58	N	0.911569	0.133312	-0.542113
N59	N	0.952951	0.198432	-0.583925
N60	N	0.941590	0.180541	0.152690
H61	H	0.549700	0.179890	0.100170
C62	C	1.016491	0.298488	-0.464204
H63	H	1.007082	0.283660	-0.521884
H64	H	1.002919	0.385458	-0.448960
H65	H	1.070925	0.275836	-0.453551
H66	H	1.134593	-0.378353	-0.164969
C67	C	0.152909	0.146910	-0.236886
H68	H	0.098503	0.146443	-0.222371
H69	H	0.159446	0.218338	-0.268405
H70	H	0.170646	0.071881	-0.269208
C71	C	1.050570	0.352090	-0.675472
H72	H	1.077641	0.394679	-0.715841
H73	H	1.020043	0.412368	-0.639316
H74	H	1.088042	0.302737	-0.643904
H75	H	0.687064	0.164601	-0.183773
C76	C	1.042685	0.339647	-0.858486
H77	H	1.033277	0.324820	-0.916167
H78	H	1.029126	0.426622	-0.843245
H79	H	1.097116	0.316977	-0.847831
C80	C	0.339328	0.172210	0.068437
H81	H	0.393734	0.172677	0.053925
H82	H	0.321571	0.247249	0.100731
H83	H	0.332806	0.100796	0.099984
H84	H	0.854434	0.043375	-0.833320
C85	C	0.711600	0.184918	0.110860
H86	H	0.677273	0.187186	0.158261
H87	H	0.749434	0.112617	0.111450
H88	H	0.738203	0.259071	0.112208
C89	C	0.848012	0.033275	-0.661837
H90	H	0.817625	-0.014529	-0.698340
H91	H	0.881464	-0.022391	-0.629998
H92	H	0.813473	0.087254	-0.625412
C93	C	0.783887	-0.164204	-0.052982
H94	H	0.740203	-0.212784	-0.050035
H95	H	0.783840	-0.109181	-0.004558
H96	H	0.779664	-0.115760	-0.101128
H97	H	1.010071	0.288396	-0.292717
C98	C	0.166616	0.168419	0.080107
H99	H	0.204829	0.172266	0.122609
H100	H	0.129062	0.241160	0.085780
H101	H	0.140272	0.094707	0.085041
C102	C	0.813941	-0.020330	-0.450559
H103	H	0.818333	-0.013401	-0.509169
H104	H	0.828734	-0.105364	-0.437237
H105	H	0.760742	0.004279	-0.432643
H106	H	0.597811	-0.380722	0.047921
C107	C	0.821833	-0.007890	-0.267543
H108	H	0.791446	-0.055700	-0.304041
H109	H	0.855289	-0.063550	-0.235704
H110	H	0.787295	0.046088	-0.231117
H111	H	0.537866	0.161274	-0.173690
C112	C	0.325627	0.150659	-0.248551
H113	H	0.380966	0.152614	-0.241450
H114	H	0.316422	0.075033	-0.279034
H115	H	0.305193	0.221488	-0.278269
C116	C	0.733457	-0.258602	0.052626
H117	H	0.686974	-0.230373	0.084751
H118	H	0.776553	-0.276603	0.088821
H119	H	0.745174	-0.194514	0.016749
C120	C	1.080624	-0.504020	-0.073046
H121	H	1.068901	-0.589195	-0.072241
H122	H	1.108369	-0.492183	-0.123345
H123	H	1.112544	-0.485600	-0.026774
C124	C	1.284013	-0.304503	-0.188982
H125	H	1.329145	-0.259001	-0.185075
H126	H	1.297673	-0.388456	-0.172800
H127	H	1.266308	-0.306360	-0.244875
H128	H	1.179169	0.018953	0.008545
H129	H	0.575509	-0.579357	-0.038847
C130	C	0.681816	-0.718449	-0.148225
H131	H	0.629776	-0.739762	-0.137718
H132	H	0.687971	-0.703907	-0.205732
H133	H	0.719351	-0.785994	-0.133658
H134	H	0.817451	-0.596335	-0.143528
C135	C	1.309823	-0.074567	-0.088560
H136	H	1.308473	-0.000843	-0.052528
H137	H	1.350889	-0.135483	-0.072216
H138	H	1.319520	-0.053380	-0.144286
C139	C	1.029742	-0.054899	0.032554
H140	H	0.984604	-0.100386	0.028633
H141	H	1.047442	-0.053039	0.088444
H142	H	1.016085	0.029059	0.016367
