data_functionalizedCrystal
_audit_creation_method	'MofGen! by Chris Wilmer'
_symmetry_space_group_name_H-M	'P1'
_symmetry_Int_Tables_number	1
_symmetry_cell_setting	triclinic
loop_
_symmetry_equiv_pos_as_xyz
  x,y,z
_cell_length_a	6.817900
_cell_length_b	16.305681
_cell_length_c	16.305550
_cell_angle_alpha	95.371254
_cell_angle_beta	103.455250
_cell_angle_gamma	103.457389
loop_
_atom_site_label
_atom_site_type_symbol
_atom_site_fract_x
_atom_site_fract_y
_atom_site_fract_z
V1	V	-4.026191	-0.117429	-0.263322
O2	O	-4.013843	0.004910	-0.258012
O3	O	-3.977589	-0.232137	-0.261807
O4	O	-3.977598	-0.115944	-0.378035
O5	O	-4.013834	-0.112087	-0.140979
V6	V	-4.509870	-0.102758	-0.248654
O7	O	-4.287107	-0.149611	-0.295497
O8	O	-4.699152	-0.070575	-0.216479
O9	O	-4.335266	0.011951	-0.250169
O10	O	-4.639615	-0.225097	-0.253964
O11	O	-4.639624	-0.108100	-0.370997
O12	O	-4.335257	-0.104243	-0.133941
C13	C	-3.822547	-0.260091	-0.257726
C14	C	-3.864094	-0.353868	-0.257252
C15	C	-3.940236	-0.525570	-0.256406
C16	C	-3.736017	-0.556086	-0.251127
C17	C	-3.779332	-0.653679	-0.250964
C18	C	-4.015199	-0.694622	-0.255573
C19	C	-4.151340	-0.674609	-0.339102
C20	C	-4.106672	-0.577011	-0.339618
C21	C	-4.026207	-0.551426	-0.178454
C22	C	-4.064811	-0.648742	-0.176814
C23	C	-4.057579	-0.790163	-0.255105
C24	C	-3.897866	-0.430030	-0.256880
C25	C	-3.822557	-0.111874	-0.405986
C26	C	-3.864109	-0.111419	-0.499767
C27	C	-4.015197	-0.109656	-0.840508
C28	C	-3.779151	-0.104421	-0.799567
C29	C	-3.735957	-0.105244	-0.702074
C30	C	-3.940239	-0.110530	-0.671462
C31	C	-4.107233	-0.193843	-0.722295
C32	C	-4.149097	-0.193372	-0.819843
C33	C	-4.069988	-0.032242	-0.794473
C34	C	-4.022059	-0.031583	-0.696629
C35	C	-3.897889	-0.111027	-0.575926
C36	C	-4.057556	-0.109164	-0.936046
C37	C	-4.153650	0.039900	-0.254247
C38	C	-4.091341	0.133676	-0.254727
C39	C	-4.153640	-0.108316	-0.105985
C40	C	-4.091326	-0.108767	-0.012203
H41	H	-3.673706	-0.666410	-0.190933
H42	H	-3.734035	-0.160039	-0.831216
H43	H	-4.322930	-0.200679	-0.847853
H44	H	-3.609488	-0.045341	-0.666902
O45	O	-3.584318	-0.514587	-0.179732
C46	C	-3.660615	-0.457355	-0.133443
H47	H	-3.795534	-0.440407	-0.178244
H48	H	-3.717927	-0.488536	-0.080604
C49	C	-3.318572	-0.396429	-0.038713
C50	C	-3.484272	-0.375607	-0.093740
H51	H	-3.209795	-0.346005	-0.014219
H52	H	-3.267169	-0.434989	-0.069897
H53	H	-3.366360	-0.422415	0.005312
H54	H	-3.436489	-0.349632	-0.137769
H55	H	-3.535662	-0.337041	-0.062562
O56	O	-4.275271	-0.036031	-0.826594
C57	C	-4.369077	-0.108288	-0.890328
H58	H	-4.243824	-0.128022	-0.917159
H59	H	-4.451238	-0.163076	-0.861561
C60	C	-4.683591	-0.062316	-0.929611
C61	C	-4.529756	-0.086549	-0.962570
H62	H	-4.782712	-0.048909	-0.974172
H63	H	-4.620397	-0.013637	-0.886670
H64	H	-4.752035	-0.107977	-0.905639
H65	H	-4.461297	-0.040885	-0.986532
H66	H	-4.592943	-0.135221	-1.005517
O67	O	-3.657038	-0.172461	-0.682860
C68	C	-3.802630	-0.249130	-0.727021
H69	H	-3.965988	-0.238693	-0.743956
H70	H	-3.760464	-0.269721	-0.788007
C71	C	-3.597321	-0.331983	-0.649200
C72	C	-3.797963	-0.319165	-0.669994
H73	H	-3.594437	-0.375185	-0.614025
H74	H	-3.499227	-0.280330	-0.619450
H75	H	-3.562205	-0.349137	-0.700027
H76	H	-3.833065	-0.302001	-0.619168
H77	H	-3.896063	-0.370817	-0.699734
O78	O	-3.652840	-0.032607	-0.814252
C79	C	-3.776038	0.014023	-0.861738
H80	H	-3.934238	-0.030682	-0.897850
H81	H	-3.799983	0.066366	-0.816612
C82	C	-3.470258	0.109544	-0.881431
C83	C	-3.664556	0.054636	-0.925790
H84	H	-3.401489	0.134600	-0.920939
H85	H	-3.387255	0.078131	-0.849436
H86	H	-3.490240	0.153157	-0.843828
H87	H	-3.644571	0.011019	-0.963384
H88	H	-3.747554	0.086043	-0.957793
H89	H	-4.112925	-0.251976	-0.850370
O90	O	-3.657200	-0.535357	-0.318008
C91	C	-3.785754	-0.493342	-0.369533
H92	H	-3.949161	-0.511276	-0.359232
H93	H	-3.716909	-0.421341	-0.351523
C94	C	-3.597742	-0.498456	-0.476711
C95	C	-3.798447	-0.520489	-0.464065
H96	H	-3.605566	-0.515198	-0.535023
H97	H	-3.511127	-0.526760	-0.441997
H98	H	-3.540393	-0.438456	-0.461697
H99	H	-3.855781	-0.580489	-0.479069
H100	H	-3.885072	-0.492196	-0.498784
H101	H	-4.259459	-0.557744	-0.346915
H102	H	-4.260386	-0.200725	-0.703399
H103	H	-3.734102	-0.684236	-0.307122
O104	O	-4.040427	-0.559131	-0.410021
C105	C	-4.178530	-0.520467	-0.461126
H106	H	-4.337315	-0.538487	-0.446550
H107	H	-4.112888	-0.448144	-0.446766
C108	C	-4.008541	-0.529452	-0.573941
C109	C	-4.203569	-0.551591	-0.556044
H110	H	-4.023981	-0.548647	-0.632491
H111	H	-3.915492	-0.555498	-0.539510
H112	H	-3.953860	-0.469183	-0.561968
H113	H	-4.258234	-0.611859	-0.568006
H114	H	-4.296627	-0.525556	-0.590479
H115	H	-4.324961	-0.702057	-0.345517
O116	O	-4.111322	-0.712944	-0.408856
C117	C	-3.898014	-0.682201	-0.405510
H118	H	-3.832162	-0.617019	-0.363456
H119	H	-3.808843	-0.728660	-0.377684
C120	C	-3.955299	-0.753967	-0.547902
C121	C	-3.874423	-0.673906	-0.496256
H122	H	-3.940742	-0.748854	-0.603878
H123	H	-4.099007	-0.774682	-0.550155
H124	H	-3.880980	-0.792675	-0.524704
H125	H	-3.948758	-0.635203	-0.519449
H126	H	-3.730725	-0.653185	-0.494009
H127	H	-3.912582	-0.515435	-0.115666
H128	H	-3.963914	-0.660527	-0.115061
H129	H	-4.177665	-0.532034	-0.181547
H130	H	-3.978616	0.030884	-0.807685
O131	O	-4.266069	-0.681502	-0.175030
C132	C	-4.300212	-0.769238	-0.169487
H133	H	-4.180662	-0.795207	-0.194858
H134	H	-4.283094	-0.778591	-0.100000
C135	C	-4.668959	-0.785464	-0.191863
C136	C	-4.522137	-0.817361	-0.223031
H137	H	-4.805855	-0.815149	-0.224888
H138	H	-4.645957	-0.726354	-0.195595
H139	H	-4.654668	-0.793260	-0.133958
H140	H	-4.536412	-0.809554	-0.280931
H141	H	-4.545147	-0.876471	-0.219310
H142	H	-4.169347	-0.030546	-0.675279
O143	O	-4.041440	-0.263873	-0.702483
C144	C	-4.193178	-0.338143	-0.748697
H145	H	-4.351834	-0.323610	-0.767793
H146	H	-4.148152	-0.360205	-0.808505
C147	C	-4.010570	-0.426954	-0.669139
C148	C	-4.205438	-0.409106	-0.692586
H149	H	-4.018128	-0.470729	-0.634529
H150	H	-3.908336	-0.376917	-0.638005
H151	H	-3.973070	-0.445334	-0.718984
H152	H	-4.242923	-0.390716	-0.642741
H153	H	-4.307679	-0.459142	-0.723710
O154	O	-3.877506	0.041856	-0.655346
C155	C	-3.703063	0.021988	-0.603959
H156	H	-3.752124	-0.045368	-0.588656
H157	H	-3.576632	0.025814	-0.639606
C158	C	-3.556765	0.168834	-0.539142
C159	C	-3.617028	0.086108	-0.520340
H160	H	-3.503687	0.208388	-0.487563
H161	H	-3.674286	0.182221	-0.573764
H162	H	-3.451415	0.172010	-0.568849
H163	H	-3.722394	0.082931	-0.490642
H164	H	-3.499522	0.072723	-0.485710
