data_functionalizedCrystal
_audit_creation_method	'MofGen! by Chris Wilmer'
_symmetry_space_group_name_H-M	'P1'
_symmetry_Int_Tables_number	1
_symmetry_cell_setting	triclinic
loop_
_symmetry_equiv_pos_as_xyz
  x,y,z
_cell_length_a	16.109295
_cell_length_b	12.996460
_cell_length_c	16.109301
_cell_angle_alpha	90.007568
_cell_angle_beta	96.539666
_cell_angle_gamma	89.997345
loop_
_atom_site_label
_atom_site_type_symbol
_atom_site_fract_x
_atom_site_fract_y
_atom_site_fract_z
O1	O	-1.103136	0.085500	0.106846
O2	O	-0.861073	0.085518	0.120151
O3	O	-0.988754	0.085498	-0.007533
O4	O	-0.975455	0.085520	0.234530
O5	O	-0.988741	-0.085636	-0.007540
O6	O	-0.861060	-0.085616	0.120144
O7	O	-1.103123	-0.085634	0.106839
Cu8	Cu	-0.982090	-0.101251	0.113491
Cu9	Cu	-0.982106	0.101135	0.113499
O10	O	-0.975442	-0.085614	0.234523
C11	C	-0.830092	-0.000047	0.119609
C12	C	-0.737796	-0.000040	0.117996
C13	C	-0.515523	-0.000045	0.190008
C14	C	-0.428803	-0.000051	0.188486
C15	C	-0.448677	-0.000061	0.036996
C16	C	-0.535396	-0.000062	0.038520
C17	C	-0.568816	-0.000048	0.115028
C18	C	-0.395377	-0.000054	0.111982
C19	C	-0.301351	-0.000061	0.110331
C20	C	-0.662849	-0.000044	0.116679
N21	N	-0.982085	-0.243598	0.113484
C22	C	-0.982105	-0.663412	0.113500
C23	C	-0.982097	-0.546607	0.113499
C24	C	-0.982095	-0.453509	0.113493
C25	C	-0.982087	-0.336696	0.113490
C26	C	-0.134104	-0.000066	0.107386
C27	C	-0.226397	-0.000062	0.109014
C28	C	-0.988209	-0.000069	-0.038511
C29	C	-0.986594	-0.000071	-0.130806
N30	N	-0.982117	0.243482	0.113499
C31	C	-1.058602	-0.000060	-0.353080
C32	C	-1.057078	-0.000051	-0.439800
C33	C	-0.905588	-0.000044	-0.419923
C34	C	-0.907113	-0.000045	-0.333204
C35	C	-0.983622	-0.000058	-0.299785
C36	C	-0.980573	-0.000049	-0.473225
C37	C	-0.978920	-0.000039	-0.567251
C38	C	-0.985276	-0.000066	-0.205754
C39	C	-0.975987	-0.000044	0.265501
C40	C	-0.977602	-0.000036	0.357796
H41	H	-0.542731	-0.000042	0.252306
O42	O	-1.129968	0.000081	-0.491485
C43	C	-1.176416	0.088721	-0.476340
H44	H	-1.155986	0.118267	-0.410547
H45	H	-1.245758	0.068781	-0.482465
H46	H	-1.165065	0.150788	-0.523761
O47	O	-0.376950	0.000096	0.261267
C48	C	-0.326210	0.088740	0.264932
H49	H	-0.321844	0.118280	0.198942
H50	H	-0.261024	0.068809	0.295921
H51	H	-0.354731	0.150809	0.302897
H52	H	-1.120900	-0.000068	-0.325874
H53	H	-0.843297	-0.000035	-0.447144
O54	O	-0.834219	0.000092	-0.281513
C55	C	-0.787781	0.088739	-0.296632
H56	H	-0.808210	0.118286	-0.362420
H57	H	-0.718436	0.068810	-0.290506
H58	H	-0.799146	0.150803	-0.249199
O59	O	-0.416072	-0.000019	-0.037247
C60	C	-0.328103	-0.000041	-0.022516
H61	H	-0.307721	0.032362	0.042374
H62	H	-0.301495	0.049643	-0.071464
H63	H	-0.303961	-0.082141	-0.026545
H64	H	-0.578790	-0.000068	-0.022542
