data_functionalizedCrystal
_audit_creation_method	'MofGen! by Chris Wilmer'
_symmetry_space_group_name_H-M	'P1'
_symmetry_Int_Tables_number	1
_symmetry_cell_setting	triclinic
loop_
_symmetry_equiv_pos_as_xyz
  x,y,z
_cell_length_a	19.805407
_cell_length_b	18.050589
_cell_length_c	19.805399
_cell_angle_alpha	89.977706
_cell_angle_beta	89.982197
_cell_angle_gamma	90.025537
loop_
_atom_site_label
_atom_site_type_symbol
_atom_site_fract_x
_atom_site_fract_y
_atom_site_fract_z
Zn1	Zn	1.034727	-0.295730	-0.382713
Zn2	Zn	1.534727	0.204270	0.117287
Zn3	Zn	1.034638	-0.419922	-0.269535
Zn4	Zn	1.534638	0.080078	0.230465
Zn5	Zn	0.921542	-0.295745	-0.269541
Zn6	Zn	1.421542	0.204255	0.230459
Zn7	Zn	0.921502	-0.419877	-0.382685
Zn8	Zn	1.421502	0.080123	0.117315
O9	O	0.978102	-0.357818	-0.326118
O10	O	1.478102	0.142182	0.173882
O11	O	1.129432	-0.312217	-0.367708
O12	O	1.629432	0.187783	0.132292
O13	O	1.019616	-0.403475	-0.174819
O14	O	1.519616	0.096525	0.325181
O15	O	0.936610	-0.191818	-0.284567
O16	O	1.436610	0.308182	0.215433
O17	O	1.129367	-0.403460	-0.284557
O18	O	1.629367	0.096540	0.215443
O19	O	1.019767	-0.191807	-0.367714
O20	O	1.519767	0.308193	0.132286
O21	O	0.936524	-0.312242	-0.174823
O22	O	1.436524	0.187758	0.325177
O23	O	0.826820	-0.312198	-0.284540
O24	O	1.326820	0.187802	0.215460
O25	O	0.936542	-0.403383	-0.477405
O26	O	1.436542	0.096617	0.022595
O27	O	0.826790	-0.403397	-0.367667
O28	O	1.326790	0.096603	0.132333
O29	O	1.019728	-0.312173	-0.477425
O30	O	1.519728	0.187827	0.022575
O31	O	1.019577	-0.523841	-0.284530
O32	O	1.519577	-0.023841	0.215470
O33	O	0.936456	-0.523807	-0.367661
O34	O	1.436456	-0.023807	0.132339
C35	C	0.802246	-0.357795	-0.326102
C36	C	1.302246	0.142205	0.173898
C37	C	0.727014	-0.357803	-0.326111
C38	C	1.227014	0.142197	0.173889
C39	C	0.691705	-0.310377	-0.369473
C40	C	1.191705	0.189623	0.130527
C41	C	0.621016	-0.310380	-0.369476
C42	C	1.121016	0.189620	0.130524
C43	C	0.585639	-0.357815	-0.326119
C44	C	1.085639	0.142185	0.173881
C45	C	0.620953	-0.405244	-0.282751
C46	C	1.120953	0.094756	0.217249
C47	C	0.691640	-0.405235	-0.282746
C48	C	1.191640	0.094765	0.217254
C49	C	0.335880	-0.405277	-0.282772
C50	C	0.835880	0.094723	0.217228
C51	C	0.265188	-0.405283	-0.282783
C52	C	0.765188	0.094717	0.217217
C53	C	0.265256	-0.310422	-0.369502
C54	C	0.765256	0.189578	0.130498
C55	C	0.335943	-0.310414	-0.369497
C56	C	0.835943	0.189586	0.130503
C57	C	0.371251	-0.357839	-0.326127
C58	C	0.871251	0.142161	0.173873
C59	C	0.447900	-0.357833	-0.326124
C60	C	0.947900	0.142167	0.173876
C61	C	0.508992	-0.357825	-0.326125
C62	C	1.008992	0.142175	0.173875
C63	C	0.978021	-0.550770	-0.326107
C64	C	1.478021	-0.050770	0.173893
C65	C	0.978048	-0.633316	-0.326125
C66	C	1.478048	-0.133316	0.173875
C67	C	0.932891	-0.832776	-0.371316
C68	C	1.432891	-0.332776	0.128684
C69	C	0.916392	-0.882214	-0.309553
C70	C	1.416392	-0.382214	0.190447
C71	C	0.978114	-0.784447	-0.326134
C72	C	1.478114	-0.284447	0.173866
C73	C	0.994646	-0.882090	-0.387903
C74	C	1.494646	-0.382090	0.112097
C75	C	0.978177	-0.930432	-0.326148
C76	C	1.478177	-0.430432	0.173852
C77	C	0.961583	-0.832797	-0.264338
C78	C	1.461583	-0.332797	0.235662
C79	C	1.039865	-0.832670	-0.342730
C80	C	1.539865	-0.332670	0.157270
C81	C	1.023390	-0.882085	-0.280925
C82	C	1.523390	-0.382085	0.219075
C83	C	0.978076	-0.700348	-0.326126
C84	C	1.478076	-0.200348	0.173874
C85	C	0.978215	-1.014528	-0.326148
C86	C	1.478215	-0.514528	0.173852
C87	C	1.154645	-0.357842	-0.326135
C88	C	1.654645	0.142158	0.173865
C89	C	1.229877	-0.357852	-0.326142
C90	C	1.729877	0.142148	0.173858
C91	C	0.978140	-0.357772	-0.502661
C92	C	1.478140	0.142228	-0.002661
C93	C	0.978156	-0.357752	-0.577893
C94	C	1.478156	0.142248	-0.077893
C95	C	0.978203	-0.164113	-0.326144
C96	C	1.478203	0.335887	0.173856
C97	C	0.978246	-0.081567	-0.326155
C98	C	1.478246	0.418433	0.173845
C99	C	1.021472	-0.310256	-0.613249
C100	C	1.521472	0.189744	-0.113249
C101	C	1.021479	-0.310235	-0.683937
C102	C	1.521479	0.189765	-0.183937
C103	C	0.978173	-0.357713	-0.719269
C104	C	1.478173	0.142287	-0.219269
C105	C	0.934852	-0.405210	-0.683908
C106	C	1.434852	0.094790	-0.183908
C107	C	0.934843	-0.405228	-0.613221
C108	C	1.434843	0.094772	-0.113221
C109	C	0.934891	-0.405141	-0.968981
C110	C	1.434891	0.094859	-0.468981
C111	C	0.934905	-0.405122	-1.039674
C112	C	1.434905	0.094878	-0.539674
C113	C	1.021527	-0.310148	-1.039698
C114	C	1.521527	0.189852	-0.539698
C115	C	1.021518	-0.310165	-0.969011
C116	C	1.521518	0.189835	-0.469011
C117	C	0.978195	-0.357660	-0.933656
C118	C	1.478195	0.142340	-0.433656
C119	C	0.978187	-0.357682	-0.857008
C120	C	1.478187	0.142318	-0.357008
C121	C	0.978184	-0.357695	-0.795916
C122	C	1.478184	0.142305	-0.295916
C123	C	0.978103	-0.357811	-0.150262
C124	C	1.478103	0.142189	0.349738
C125	C	0.978218	-0.357622	-0.075031
C126	C	1.478218	0.142378	0.424969
H127	H	0.592143	-0.443862	-0.247446
H128	H	1.092143	0.056138	0.252554
H129	H	1.056801	-0.271473	-1.068492
H130	H	1.556801	0.228527	-0.568492
H131	H	0.899637	-0.443786	-1.068438
H132	H	1.399637	0.056214	-0.568438
H133	H	0.899624	-0.443825	-0.940204
H134	H	1.399624	0.056175	-0.440204
H135	H	0.899589	-0.443865	-0.712680
H136	H	1.399589	0.056135	-0.212680
H137	H	1.056784	-0.271506	-0.940247
H138	H	1.556784	0.228494	-0.440247
H139	H	1.008603	-0.903743	-0.440136
H140	H	1.508603	-0.403743	0.059864
N141	N	0.374095	-0.259250	-0.416262
N142	N	0.874095	0.240750	0.083738
H143	H	0.403424	-0.224793	-0.388806
H144	H	0.903424	0.275207	0.111194
H145	H	0.403386	-0.289525	-0.447571
H146	H	0.903386	0.210475	0.052429
N147	N	0.888116	-0.456453	-0.575090
N148	N	1.388116	0.043547	-0.075090
H149	H	0.898599	-0.509515	-0.587384
H150	H	1.398599	-0.009515	-0.087384
H151	H	0.894697	-0.449197	-0.524961
H152	H	1.394697	0.050803	-0.024961
N153	N	1.068207	-0.259015	-0.722069
N154	N	1.568207	0.240985	-0.222069
H155	H	1.061642	-0.266204	-0.772211
H156	H	1.561642	0.233796	-0.272211
H157	H	1.057704	-0.205976	-0.709719
H158	H	1.557704	0.294024	-0.209719
N159	N	0.729860	-0.259219	-0.416242
N160	N	1.229860	0.240781	0.083758
H161	H	0.696762	-0.229175	-0.443712
H162	H	1.196762	0.270825	0.056288
H163	H	0.759189	-0.224808	-0.388743
H164	H	1.259189	0.275192	0.111257
H165	H	1.061661	-0.903600	-0.242678
H166	H	1.561661	-0.403600	0.257322
H167	H	1.092045	-0.810893	-0.356785
H168	H	1.592045	-0.310893	0.143215
N169	N	0.582931	-0.259213	-0.416232
N170	N	1.082931	0.240787	0.083768
H171	H	0.616069	-0.229162	-0.443697
H172	H	1.116069	0.270838	0.056303
H173	H	0.553597	-0.289479	-0.447513
H174	H	1.053597	0.210521	0.052487
H175	H	0.894591	-0.811124	-0.409470
H176	H	1.394591	-0.311124	0.090530
N177	N	0.227174	-0.259266	-0.416280
N178	N	0.727174	0.240734	0.083720
H179	H	0.177025	-0.266464	-0.409705
H180	H	0.677025	0.233536	0.090295
H181	H	0.239544	-0.206210	-0.405829
H182	H	0.739544	0.293790	0.094171
N183	N	0.227024	-0.456441	-0.236014
N184	N	0.727024	0.043559	0.263986
H185	H	0.239312	-0.509519	-0.246435
H186	H	0.739312	-0.009519	0.253565
H187	H	0.239320	-0.444766	-0.187689
H188	H	0.739320	0.055234	0.312311
N189	N	0.373957	-0.456424	-0.235995
N190	N	0.873957	0.043576	0.264005
H191	H	0.340818	-0.486475	-0.208533
H192	H	0.840818	0.013525	0.291467
H193	H	0.403289	-0.490830	-0.263486
H194	H	0.903289	0.009170	0.236514
N195	N	0.943018	-0.804244	-0.195129
N196	N	1.443018	-0.304244	0.304871
H197	H	0.943089	-0.748292	-0.195555
H198	H	1.443089	-0.248292	0.304445
H199	H	0.896560	-0.822758	-0.182536
H200	H	1.396560	-0.322758	0.317464
N201	N	0.847262	-0.911051	-0.290954
N202	N	1.347262	-0.411051	0.209046
H203	H	0.834449	-0.892348	-0.244636
H204	H	1.334449	-0.392348	0.255364
H205	H	0.813151	-0.893116	-0.325143
H206	H	1.313151	-0.393116	0.174857
N207	N	0.729728	-0.456384	-0.235973
N208	N	1.229728	0.043616	0.264027
H209	H	0.696592	-0.486436	-0.208507
H210	H	1.196592	0.013564	0.291493
H211	H	0.759059	-0.490789	-0.263466
H212	H	1.259059	0.009211	0.236534
H213	H	1.056740	-0.271596	-0.584487
H214	H	1.556740	0.228404	-0.084487
