data_functionalizedCrystal
_audit_creation_method	'MofGen! by Chris Wilmer'
_symmetry_space_group_name_H-M	'P1'
_symmetry_Int_Tables_number	1
_symmetry_cell_setting	triclinic
loop_
_symmetry_equiv_pos_as_xyz
  x,y,z
_cell_length_a	19.288864
_cell_length_b	19.188924
_cell_length_c	17.766277
_cell_angle_alpha	89.991559
_cell_angle_beta	89.976791
_cell_angle_gamma	83.139105
loop_
_atom_site_label
_atom_site_type_symbol
_atom_site_fract_x
_atom_site_fract_y
_atom_site_fract_z
O1	O	0.921357	0.087100	-0.062839
O2	O	0.719097	0.098849	-0.062788
O3	O	0.826067	-0.008682	-0.062806
O4	O	0.814388	0.194631	-0.062821
O5	O	0.826048	-0.008688	0.062382
O6	O	0.719079	0.098844	0.062401
O7	O	0.921339	0.087094	0.062350
Cu8	Cu	0.820207	0.092968	0.073806
Cu9	Cu	0.820229	0.092975	-0.074244
O10	O	0.814369	0.194625	0.062368
C11	C	0.693212	0.098468	-0.000187
C12	C	0.616108	0.097333	-0.000167
C13	C	0.825680	-0.034696	-0.000211
C14	C	0.824547	-0.112201	-0.000209
C15	C	0.571415	0.160428	-0.000184
C16	C	0.498968	0.159362	-0.000192
C17	C	0.471217	0.095197	-0.000199
C18	C	0.515920	0.032095	-0.000178
C19	C	0.588365	0.033163	-0.000162
C20	C	0.362959	0.044759	-0.044080
C21	C	0.290514	0.043694	-0.044100
C22	C	0.247771	0.091901	-0.000244
C23	C	0.277480	0.141185	0.043622
C24	C	0.349925	0.142253	0.043638
C25	C	0.392663	0.094032	-0.000216
C26	C	0.124522	0.153843	-0.000268
C27	C	0.052074	0.152775	-0.000272
C28	C	0.069028	0.025506	-0.000266
C29	C	0.141474	0.026576	-0.000255
C30	C	0.169217	0.090747	-0.000260
C31	C	0.824029	-0.148596	-0.068449
C32	C	0.822954	-0.221419	-0.068454
C33	C	0.822412	-0.257845	-0.000216
C34	C	0.822927	-0.221440	0.068034
C35	C	0.823994	-0.148618	0.068037
N36	N	0.860256	-0.377513	0.050563
N37	N	0.859243	-0.446691	0.050555
C38	C	0.819195	-0.477254	-0.000222
N39	N	0.780206	-0.436026	-0.051003
N40	N	0.781222	-0.366842	-0.050997
C41	C	0.821255	-0.336808	-0.000212
C42	C	0.817511	-0.592612	-0.068473
C43	C	0.816432	-0.665436	-0.068476
C44	C	0.816412	-0.665456	0.068014
C45	C	0.817484	-0.592633	0.068015
C46	C	0.818036	-0.556216	-0.000231
C47	C	0.947225	0.087475	-0.000253
C48	C	1.024328	0.088610	-0.000278
C49	C	0.814756	0.220639	-0.000229
C50	C	0.815889	0.298144	-0.000236
N51	N	0.820196	0.092963	0.177936
N52	N	0.820245	0.092974	-0.178374
C53	C	0.867578	0.045372	0.217315
C54	C	0.867582	0.045369	0.296117
C55	C	0.820211	0.092969	0.335537
C56	C	0.772821	0.140564	0.296148
C57	C	0.772814	0.140561	0.217348
C58	C	0.810915	0.156586	0.460371
C59	C	0.810928	0.156590	0.539170
C60	C	0.820230	0.092977	0.578583
C61	C	0.829534	0.029359	0.539187
C62	C	0.829527	0.029356	0.460387
C63	C	0.820213	0.092977	0.420982
C64	C	0.867618	0.045378	0.703408
C65	C	0.867617	0.045374	0.782211
C66	C	0.772860	0.140576	0.782241
C67	C	0.772857	0.140574	0.703439
C68	C	0.820240	0.092976	0.664027
H69	H	0.593998	0.212681	-0.000189
C70	C	0.800682	0.226569	0.417025
N71	N	0.792975	0.279279	0.384378
C72	C	0.919694	-0.006994	0.173967
N73	N	0.958946	-0.046439	0.141315
C74	C	0.002910	0.222187	-0.000279
N75	N	-0.034120	0.274470	-0.000282
H76	H	0.906166	0.006612	0.328185
H77	H	0.906198	0.006616	0.814274
C78	C	0.720710	0.192922	0.339512
N79	N	0.681456	0.232356	0.372173
C80	C	0.824630	-0.108541	-0.143522
N81	N	0.825081	-0.078370	-0.200067
H82	H	0.822484	-0.251102	0.123594
H83	H	0.837101	-0.022444	0.428314
H84	H	0.734287	0.179330	0.814336
H85	H	0.837108	-0.022441	0.571275
C86	C	0.824569	-0.108581	0.143110
N87	N	0.825004	-0.078426	0.199656
H88	H	0.493321	-0.020148	-0.000194
C89	C	0.038506	-0.045076	-0.000272
N90	N	0.015514	-0.098240	-0.000276
C91	C	0.637530	-0.036249	-0.000149
N92	N	0.674562	-0.088532	-0.000142
C93	C	0.409970	-0.008273	-0.092331
N94	N	0.445377	-0.048215	-0.128675
H95	H	0.177865	-0.024802	-0.000245
C96	C	0.257843	-0.010523	-0.092349
N97	N	0.233236	-0.051364	-0.128688
C98	C	0.720783	0.192979	0.660121
N99	N	0.681574	0.232469	0.627494
C100	C	0.382603	0.196458	0.091898
N101	N	0.407216	0.237283	0.128252
C102	C	0.155041	0.224432	-0.000264
N103	N	0.178026	0.277600	-0.000260
C104	C	0.800686	0.226571	0.582498
N105	N	0.792967	0.279282	0.615131
C106	C	0.815816	-0.705520	0.143078
N107	N	0.815366	-0.735700	0.199618
H108	H	0.822528	-0.251058	-0.124026
H109	H	0.816006	-0.695067	-0.124047
H110	H	0.817957	-0.562959	-0.124043
C111	C	0.720718	0.192948	0.174030
N112	N	0.681491	0.232419	0.141402
H113	H	0.817912	-0.563000	0.123584
H114	H	0.462572	0.210742	-0.000203
H115	H	0.242679	0.180439	0.079335
C116	C	0.919733	-0.006986	0.660052
N117	N	0.958985	-0.046429	0.627399
