data_functionalizedCrystal
_audit_creation_method	'MofGen! by Chris Wilmer'
_symmetry_space_group_name_H-M	'P1'
_symmetry_Int_Tables_number	1
_symmetry_cell_setting	triclinic
loop_
_symmetry_equiv_pos_as_xyz
  x,y,z
_cell_length_a	16.625548
_cell_length_b	19.121063
_cell_length_c	19.121226
_cell_angle_alpha	90.121486
_cell_angle_beta	87.565351
_cell_angle_gamma	92.470058
loop_
_atom_site_label
_atom_site_type_symbol
_atom_site_fract_x
_atom_site_fract_y
_atom_site_fract_z
Zn1	Zn	1.199700	-0.262290	0.408296
Zn2	Zn	1.199133	-0.384504	0.296052
Zn3	Zn	1.070390	-0.267284	0.291072
Zn4	Zn	1.058836	-0.379497	0.413249
O5	O	1.132015	-0.323394	0.352167
O6	O	1.312456	-0.278507	0.393417
O7	O	1.186653	-0.373140	0.197285
O8	O	1.092616	-0.168513	0.302465
O9	O	1.312040	-0.368297	0.310952
O10	O	1.187619	-0.164844	0.388589
O11	O	1.092066	-0.287019	0.193626
O12	O	0.956026	-0.282164	0.307268
O13	O	1.072924	-0.359763	0.510698
O14	O	0.947537	-0.364606	0.397031
O15	O	1.176416	-0.273652	0.507059
O16	O	1.175450	-0.481948	0.315755
O17	O	1.072374	-0.478269	0.401860
C18	C	0.922525	-0.323384	0.352147
C19	C	0.832903	-0.323397	0.352156
C20	C	1.122618	-0.505547	0.359901
C21	C	1.118671	-0.583471	0.363233
C22	C	0.504726	-0.323400	0.352186
C23	C	0.596035	-0.323397	0.352175
C24	C	0.668812	-0.323399	0.352170
C25	C	0.760127	-0.323395	0.352161
C26	C	1.170521	-0.621971	0.320005
C27	C	1.166813	-0.695189	0.323143
C28	C	1.111251	-0.729907	0.369505
C29	C	1.059399	-0.691402	0.412737
C30	C	1.063111	-0.618185	0.409603
C31	C	1.097359	-0.950880	0.381214
C32	C	1.093649	-1.024103	0.384344
C33	C	1.201064	-1.027885	0.294750
C34	C	1.204768	-0.954667	0.291617
C35	C	1.152919	-0.916168	0.334851
C36	C	1.107458	-0.804748	0.372712
C37	C	1.156717	-0.841328	0.331648
C38	C	1.342322	-0.323403	0.352188
C39	C	1.431943	-0.323407	0.352196
C40	C	1.123444	-0.315592	0.535028
C41	C	1.119792	-0.312267	0.612952
C42	C	1.141469	-0.140529	0.344419
C43	C	1.145498	-0.062603	0.341117
C44	C	1.096669	-0.291221	1.053582
C45	C	1.100105	-0.294342	0.980363
C46	C	1.151064	-0.340745	0.945658
C47	C	1.198598	-0.384024	0.984176
C48	C	1.195166	-0.380899	1.057392
C49	C	1.163894	-0.352421	0.724686
C50	C	1.167320	-0.355545	0.651464
C51	C	1.068828	-0.265861	0.647657
C52	C	1.065397	-0.262743	0.720875
C53	C	1.112933	-0.306020	0.759386
C54	C	1.154575	-0.343938	0.870818
C55	C	1.109426	-0.302823	0.834225
C56	C	1.140545	-0.331179	1.170018
C57	C	1.144197	-0.334498	1.092094
H58	H	1.215762	-0.593709	0.282249
H59	H	1.055139	-0.919541	0.416416
H60	H	1.014162	-0.719674	0.450490
O61	O	1.033707	-1.061547	0.434346
H62	H	1.039828	-1.118928	0.429250
H63	H	1.196065	-0.381721	0.842553
H64	H	1.233869	-0.416139	1.088748
O65	O	1.222294	-0.405590	0.614030
H66	H	1.204970	-0.460015	0.630417
O67	O	1.007179	-0.576663	0.456226
H68	H	1.043252	-0.541746	0.490500
O69	O	1.222731	-0.736717	0.276515
H70	H	1.261982	-0.700275	0.243743
H71	H	1.243278	-1.059239	0.259552
H72	H	1.055170	-0.253436	1.081833
H73	H	1.250012	-0.926401	0.253865
H74	H	1.201959	-0.813059	0.293902
H75	H	1.062217	-0.833023	0.410459
H76	H	1.061401	-0.259102	0.949010
H77	H	1.202599	-0.387662	0.756033
O78	O	1.010441	-0.212688	0.758308
H79	H	0.977975	-0.183113	0.719226
O80	O	1.253563	-0.434076	0.946749
H81	H	1.247959	-0.428985	0.889367
O82	O	1.017568	-0.219177	0.606122
H83	H	1.028520	-0.229138	0.549379
O84	O	1.054477	-0.252766	0.871657
H85	H	1.010267	-0.282714	0.906343
