data_functionalizedCrystal
_audit_creation_method	'MofGen! by Chris Wilmer'
_symmetry_space_group_name_H-M	'P1'
_symmetry_Int_Tables_number	1
_symmetry_cell_setting	triclinic
loop_
_symmetry_equiv_pos_as_xyz
  x,y,z
_cell_length_a	29.839134
_cell_length_b	29.839134
_cell_length_c	14.908308
_cell_angle_alpha	86.731408
_cell_angle_beta	93.267297
_cell_angle_gamma	90.011325
loop_
_atom_site_label
_atom_site_type_symbol
_atom_site_fract_x
_atom_site_fract_y
_atom_site_fract_z
Zn1	Zn	0.193570	0.672236	0.510315
Zn2	Zn	0.264369	0.676556	0.359459
Zn3	Zn	0.189247	0.601445	0.359450
Zn4	Zn	0.268665	0.597132	0.510240
O5	O	0.228963	0.636842	0.434866
O6	O	0.202973	0.735676	0.490339
O7	O	0.250796	0.670206	0.233218
O8	O	0.126954	0.610833	0.379490
O9	O	0.254989	0.738849	0.379506
O10	O	0.130131	0.662843	0.490330
O11	O	0.195604	0.615022	0.233211
O12	O	0.199770	0.538007	0.379417
O13	O	0.262311	0.603481	0.636490
O14	O	0.258119	0.534838	0.490202
O15	O	0.207140	0.658661	0.636545
O16	O	0.327805	0.666023	0.379433
O17	O	0.330962	0.607670	0.490211
C18	C	0.228942	0.520122	0.434801
C19	C	0.228944	0.470187	0.434795
C20	C	0.111786	0.636837	0.434917
C21	C	0.061852	0.636835	0.434939
C22	C	-0.293096	0.606483	0.492564
C23	C	-0.105422	0.606466	0.492589
O24	O	-0.079763	0.580615	0.541616
N25	N	-0.083594	0.636846	0.434917
C26	C	-0.108687	0.667229	0.377229
O27	O	-0.085814	0.693065	0.328169
C28	C	-0.296360	0.667244	0.377200
C29	C	-0.318186	0.636866	0.434883
C30	C	-0.314922	0.576107	0.550241
C31	C	-0.361838	0.576114	0.550238
C32	C	-0.386927	0.606496	0.492557
C33	C	-0.365101	0.636872	0.434880
C34	C	-0.321452	0.697625	0.319509
C35	C	-0.368373	0.697625	0.319506
C36	C	-0.390199	0.667247	0.377189
C37	C	-0.437106	0.667260	0.377196
N38	N	-0.458935	0.636881	0.434868
C39	C	-0.433845	0.606499	0.492549
C40	C	-0.010156	0.667220	0.377250
C41	C	0.036762	0.667217	0.377258
C42	C	0.040024	0.606454	0.492617
C43	C	-0.006895	0.606459	0.492613
C44	C	-0.031984	0.636841	0.434923
C45	C	-0.532371	0.606514	0.492538
C46	C	-0.579291	0.606524	0.492532
C47	C	-0.582548	0.667286	0.377171
C48	C	-0.535633	0.667278	0.377179
C49	C	-0.510545	0.636888	0.434866
O50	O	-0.462794	0.693094	0.328187
O51	O	-0.456726	0.580660	0.541588
C52	C	-0.246180	0.606477	0.492567
C53	C	-0.224354	0.636853	0.434890
C54	C	-0.249444	0.667235	0.377209
C55	C	-0.177436	0.636850	0.434898
C56	C	-0.152347	0.606468	0.492579
C57	C	-0.174175	0.576089	0.550252
C58	C	-0.221091	0.576095	0.550248
C59	C	-0.227616	0.697614	0.319537
C60	C	-0.180700	0.697606	0.319545
C61	C	-0.155610	0.667224	0.377226
C62	C	0.259385	0.158903	0.492481
C63	C	0.259399	-0.028771	0.492521
O64	O	0.285259	-0.054429	0.541530
N65	N	0.228981	-0.050602	0.434934
C66	C	0.198556	-0.025511	0.377337
O67	O	0.172681	-0.048386	0.328363
C68	C	0.198540	0.162162	0.377302
C69	C	0.228963	0.183991	0.434886
C70	C	0.289805	0.180732	0.550062
C71	C	0.289803	0.227648	0.550048
C72	C	0.259381	0.252735	0.492453
C73	C	0.228961	0.230906	0.434872
C74	C	0.168113	0.187252	0.319710
C75	C	0.168111	0.234173	0.319708
C76	C	0.198534	0.256001	0.377292
C77	C	0.198536	0.302909	0.377264
N78	N	0.228954	0.324740	0.434851
C79	C	0.259377	0.299653	0.492445
C80	C	0.198567	-0.124042	0.377358
C81	C	0.198571	-0.170960	0.377365
C82	C	0.259414	-0.174217	0.492551
C83	C	0.259411	-0.127298	0.492539
C84	C	0.228985	-0.102212	0.434945
C85	C	0.259370	0.398180	0.492411
C86	C	0.259367	0.445100	0.492389
C87	C	0.198522	0.448352	0.377207
C88	C	0.198527	0.401436	0.377225
C89	C	0.228953	0.376351	0.434834
O90	O	0.172687	0.328596	0.328288
O91	O	0.285241	0.322536	0.541426
C92	C	0.259387	0.111987	0.492495
C93	C	0.228967	0.090159	0.434915
C94	C	0.198545	0.115246	0.377320
C95	C	0.228972	0.043241	0.434922
C96	C	0.259394	0.018154	0.492517
C97	C	0.289812	0.039984	0.550104
C98	C	0.289810	0.086900	0.550090
C99	C	0.168127	0.093415	0.319733
C100	C	0.168132	0.046499	0.319751
C101	C	0.198554	0.021412	0.377345
C102	C	0.345684	0.636859	0.434835
C103	C	0.395619	0.636906	0.434852
C104	C	0.235687	0.630108	0.670165
C105	C	0.238553	0.627238	0.770436
C106	C	0.228984	0.754019	0.434932
C107	C	0.228993	0.803952	0.434960
C108	C	0.222232	0.643576	0.200482
C109	C	0.219240	0.646533	0.100212
C110	C	0.186476	0.679302	0.958914
C111	C	0.189167	0.676607	1.053127
C112	C	0.246623	0.619151	1.053077
C113	C	0.243932	0.621846	0.958864
C114	C	0.213858	0.651923	0.911786
C115	C	0.211170	0.654620	0.817571
C116	C	0.268623	0.597162	0.817522
C117	C	0.271314	0.594467	0.911736
H118	H	-0.597060	0.581787	0.539508
Cl119	Cl	0.148676	0.717117	0.899727
H120	H	0.290920	0.574869	0.779141
H121	H	-0.162933	0.722348	0.272575
H122	H	0.173802	-0.188729	0.330465
Cl123	Cl	0.309118	0.556658	0.970928
H124	H	0.166869	0.698901	1.091496
Cl125	Cl	0.284423	0.581340	1.112276
H126	H	-0.248040	0.722355	0.272565
Cl127	Cl	-0.041690	0.705422	0.304726
Cl128	Cl	0.173365	0.692432	0.758388
H129	H	-0.511950	0.581770	0.539516
H130	H	0.284145	0.377761	0.539324
H131	H	-0.294499	0.551365	0.597213
Cl132	Cl	-0.389269	0.537920	0.622753
H133	H	0.314579	0.160311	0.596967
Cl134	Cl	0.160312	-0.092512	0.304947
H135	H	0.143358	0.028731	0.272850
H136	H	-0.153739	0.551352	0.597221
Cl137	Cl	0.297616	0.472539	0.564785
Cl138	Cl	0.129861	0.159821	0.247320
Cl139	Cl	-0.034328	0.568267	0.565128
H140	H	0.284184	-0.109528	0.539430
H141	H	0.314576	0.245416	0.596941
H142	H	0.284185	-0.194651	0.539447
H143	H	0.173755	0.383663	0.330333
Cl144	Cl	0.071574	0.568258	0.565128
H145	H	0.054529	0.691959	0.330297
H146	H	-0.303690	0.722361	0.272537
H147	H	-0.388799	0.722365	0.272525
H148	H	-0.517861	0.692019	0.330221
H149	H	-0.238858	0.551358	0.597219
Cl150	Cl	0.129857	0.265707	0.247301
Cl151	Cl	-0.614098	0.705479	0.304663
H152	H	0.314583	0.104669	0.596982
Cl153	Cl	0.160279	0.479899	0.304807
H154	H	0.314584	0.019550	0.596997
Cl155	Cl	0.129877	0.124946	0.247322
