data_functionalizedCrystal
_audit_creation_method	'MofGen! by Chris Wilmer'
_symmetry_space_group_name_H-M	'P1'
_symmetry_Int_Tables_number	1
_symmetry_cell_setting	triclinic
loop_
_symmetry_equiv_pos_as_xyz
  x,y,z
_cell_length_a	12.645331
_cell_length_b	12.645330
_cell_length_c	17.077396
_cell_angle_alpha	90.024069
_cell_angle_beta	90.015122
_cell_angle_gamma	90.018103
loop_
_atom_site_label
_atom_site_type_symbol
_atom_site_fract_x
_atom_site_fract_y
_atom_site_fract_z
Zn1	Zn	1.620701	-0.422028	0.443775
Zn2	Zn	2.120701	0.077972	0.943775
Zn3	Zn	1.620592	-0.599313	0.312519
Zn4	Zn	2.120592	-0.099313	0.812519
Zn5	Zn	1.443425	-0.422066	0.312533
Zn6	Zn	1.943425	0.077934	0.812533
Zn7	Zn	1.443397	-0.599251	0.443753
Zn8	Zn	1.943397	-0.099251	0.943753
O9	O	1.532029	-0.510664	0.378145
O10	O	2.032029	-0.010664	0.878145
O11	O	1.769034	-0.445555	0.426367
O12	O	2.269034	0.054445	0.926367
O13	O	1.597056	-0.575843	0.202674
O14	O	2.097056	-0.075843	0.702674
O15	O	1.466998	-0.273713	0.329958
O16	O	1.966998	0.226287	0.829958
O17	O	1.768953	-0.575806	0.329934
O18	O	2.268953	-0.075806	0.829934
O19	O	1.597242	-0.273686	0.426381
O20	O	2.097242	0.226314	0.926381
O21	O	1.466892	-0.445620	0.202684
O22	O	1.966892	0.054380	0.702684
O23	O	1.295074	-0.445559	0.329936
O24	O	1.795074	0.054441	0.829936
O25	O	1.466951	-0.575700	0.553603
O26	O	1.966951	-0.075700	1.053603
O27	O	1.295054	-0.575737	0.426343
O28	O	1.795054	-0.075737	0.926343
O29	O	1.597216	-0.445495	0.553619
O30	O	2.097216	0.054505	1.053619
O31	O	1.597029	-0.747652	0.329912
O32	O	2.097029	-0.247652	0.829912
O33	O	1.466845	-0.747606	0.426329
O34	O	1.966845	-0.247606	0.926329
C35	C	1.256599	-0.510646	0.378139
C36	C	1.756599	-0.010646	0.878139
C37	C	1.138769	-0.510664	0.378155
C38	C	1.638769	-0.010664	0.878155
C39	C	1.093910	-0.592698	0.438716
C40	C	1.593910	-0.092698	0.938716
C41	C	0.971350	-0.593035	0.438536
C42	C	1.471350	-0.093035	0.938536
C43	C	0.970821	-0.540501	0.295328
C44	C	1.470821	-0.040501	0.795328
C45	C	1.093419	-0.541080	0.295679
C46	C	1.593419	-0.041080	0.795679
C47	C	1.093621	-0.398619	0.399697
C48	C	1.593621	0.101381	0.899697
C49	C	0.971016	-0.399238	0.401521
C50	C	1.471016	0.100762	0.901521
C51	C	1.531951	-0.786094	0.378134
C52	C	2.031951	-0.286094	0.878134
C53	C	1.532015	-0.903924	0.378156
C54	C	2.032015	-0.403924	0.878156
C55	C	1.450454	-1.071503	0.438998
C56	C	1.950454	-0.571503	0.938998
C57	C	1.450037	-0.948944	0.438803
C58	C	1.950037	-0.448944	0.938803
C59	C	1.501775	-0.948517	0.295430
C60	C	2.001775	-0.448517	0.795430
C61	C	1.501278	-1.071115	0.295800
C62	C	2.001278	-0.571115	0.795800
C63	C	1.644315	-1.071013	0.399367
C64	C	2.144315	-0.571013	0.899367
C65	C	1.643627	-0.948406	0.401176
C66	C	2.143627	-0.448406	0.901176
C67	C	1.808534	-0.510684	0.378152
C68	C	2.308534	-0.010684	0.878152
C69	C	1.926364	-0.510692	0.378154
C70	C	2.426364	-0.010692	0.878154
C71	C	1.532093	-0.510586	0.582889
C72	C	2.032093	-0.010586	1.082889
C73	C	1.532120	-0.510553	0.670139
C74	C	2.032120	-0.010553	1.170139
C75	C	1.532135	-0.234159	0.378173
C76	C	2.032135	0.265841	0.878173
C77	C	1.532181	-0.116329	0.378185
C78	C	2.032181	0.383671	0.878185
C79	C	1.532026	-0.510666	0.174197
C80	C	2.032026	-0.010666	0.674197
C81	C	1.532204	-0.510400	0.086948
C82	C	2.032204	-0.010400	0.586948
C83	C	1.599951	-0.442750	0.711139
C84	C	2.099951	0.057250	1.211139
C85	C	1.599964	-0.442714	0.793120
C86	C	2.099964	0.057286	1.293120
C87	C	1.532150	-0.510489	0.834099
C88	C	2.032150	-0.010489	1.334099
C89	C	1.464312	-0.578295	0.793093
C90	C	1.964312	-0.078295	1.293093
C91	C	1.464294	-0.578324	0.711114
C92	C	1.964294	-0.078324	1.211114
C93	C	1.464354	-0.578231	0.963963
C94	C	1.964354	-0.078231	1.463963
C95	C	1.464373	-0.578204	1.045948
C96	C	1.964373	-0.078204	1.545948
C97	C	1.600024	-0.442621	1.045969
C98	C	2.100024	0.057379	1.545969
C99	C	1.600007	-0.442651	0.963990
C100	C	2.100007	0.057349	1.463990
C101	C	1.532169	-0.510459	0.922990
C102	C	2.032169	-0.010459	1.422990
H103	H	0.940394	-0.334893	0.360662
H104	H	1.440394	0.165107	0.860662
H105	H	1.123424	-0.574317	0.500311
H106	H	1.623424	-0.074317	1.000311
Br107	Br	1.145213	-0.730296	0.415192
Br108	Br	1.645213	-0.230296	0.915192
Br109	Br	1.312765	-1.123034	0.415930
Br110	Br	1.812765	-0.623034	0.915930
Br111	Br	1.692094	-0.350600	1.101610
Br112	Br	2.192094	0.149400	1.601610
H113	H	1.469200	-1.100916	0.500540
H114	H	1.969200	-0.600916	1.000540
H115	H	1.655232	-0.387469	0.930627
H116	H	2.155232	0.112531	1.430627
Br117	Br	1.372228	-0.670340	0.655470
Br118	Br	1.872228	-0.170340	1.155470
H119	H	1.121985	-0.622969	0.277471
H120	H	1.621985	-0.122969	0.777471
Br121	Br	0.922409	-0.731439	0.414741
Br122	Br	1.422409	-0.231439	0.914741
Br123	Br	1.142884	-0.445788	0.217870
Br124	Br	1.642884	0.054212	0.717870
H125	H	1.409150	-0.633389	1.079311
H126	H	1.909150	-0.133389	1.579311
H127	H	1.558221	-1.100771	0.248944
H128	H	2.058221	-0.600771	0.748944
H129	H	1.409097	-0.633431	0.930583
H130	H	1.909097	-0.133431	1.430583
H131	H	1.655176	-0.387563	0.677780
H132	H	2.155176	0.112437	1.177780
Br133	Br	0.922259	-0.443973	0.218051
Br134	Br	1.422259	0.056027	0.718051
Br135	Br	1.372271	-0.670269	0.848707
Br136	Br	1.872271	-0.170269	1.348707
H137	H	1.122632	-0.337504	0.355592
H138	H	1.622632	0.162496	0.855592
Br139	Br	0.919600	-0.675499	0.264456
Br140	Br	1.419600	-0.175499	0.764456
Br141	Br	1.145207	-0.353220	0.498666
Br142	Br	1.645207	0.146780	0.998666
H143	H	0.941293	-0.574440	0.499940
H144	H	1.441293	-0.074440	0.999940
Br145	Br	0.922598	-0.361752	0.503119
Br146	Br	1.422598	0.138248	1.003119
Br147	Br	1.364656	-1.118943	0.265890
Br148	Br	1.864656	-0.618943	0.765890
H149	H	1.468956	-0.918791	0.500143
H150	H	1.968956	-0.418791	1.000143
Br151	Br	1.597841	-0.899923	0.217842
Br152	Br	2.097841	-0.399923	0.717842
Br153	Br	1.311477	-0.900208	0.415421
Br154	Br	1.811477	-0.400208	0.915421
H155	H	1.420659	-0.917906	0.277162
H156	H	1.920659	-0.417906	0.777162
H157	H	1.655201	-0.387504	0.826498
H158	H	2.155201	0.112496	1.326498
Br159	Br	1.690295	-1.122422	0.498200
Br160	Br	2.190295	-0.622422	0.998200
H161	H	1.707723	-0.917755	0.360108
H162	H	2.207723	-0.417755	0.860108
Br163	Br	1.681641	-0.899827	0.502650
Br164	Br	2.181641	-0.399827	1.002650
H165	H	1.705203	-1.100000	0.355074
H166	H	2.205203	-0.600000	0.855074
