data_functionalizedCrystal
_audit_creation_method	'MofGen! by Chris Wilmer'
_symmetry_space_group_name_H-M	'P1'
_symmetry_Int_Tables_number	1
_symmetry_cell_setting	triclinic
loop_
_symmetry_equiv_pos_as_xyz
  x,y,z
_cell_length_a	18.050590
_cell_length_b	16.625546
_cell_length_c	16.625539
_cell_angle_alpha	89.969603
_cell_angle_beta	90.004910
_cell_angle_gamma	89.988365
loop_
_atom_site_label
_atom_site_type_symbol
_atom_site_fract_x
_atom_site_fract_y
_atom_site_fract_z
Zn1	Zn	1.135364	0.321233	0.455561
Zn2	Zn	1.135275	0.456077	0.320723
Zn3	Zn	1.011171	0.321236	0.320778
Zn4	Zn	1.011143	0.456002	0.455550
O5	O	1.073238	0.388637	0.388153
O6	O	1.239276	0.339151	0.437656
O7	O	1.118786	0.438222	0.207898
O8	O	1.027694	0.208403	0.338685
O9	O	1.239211	0.438219	0.338591
O10	O	1.118938	0.208401	0.437709
O11	O	1.027607	0.339155	0.207938
O12	O	0.907242	0.339083	0.338674
O13	O	1.027647	0.438093	0.568384
O14	O	0.907222	0.438095	0.437690
O15	O	1.118912	0.339079	0.568392
O16	O	1.118760	0.568899	0.338580
O17	O	1.027561	0.568844	0.437637
C18	C	1.073168	0.598128	0.388119
C19	C	1.073206	0.687749	0.388132
C20	C	0.880286	0.388582	0.388188
C21	C	0.797740	0.388578	0.388222
C22	C	1.073286	0.388577	0.598462
C23	C	1.073307	0.388551	0.688083
C24	C	0.598300	0.442575	0.441939
C25	C	0.548902	0.369053	0.461782
C26	C	0.646610	0.388623	0.388182
C27	C	0.548926	0.462186	0.368338
C28	C	0.500625	0.388673	0.388146
C29	C	0.598299	0.315062	0.408064
C30	C	0.598327	0.408245	0.314586
C31	C	0.548952	0.334673	0.334401
C32	C	0.730708	0.388595	0.388205
C33	C	0.416528	0.388692	0.388122
C34	C	1.266944	0.388693	0.388118
C35	C	1.349489	0.388717	0.388104
C36	C	1.073329	0.178328	0.388204
C37	C	1.073368	0.088707	0.388226
C38	C	1.073335	1.015925	0.388216
C39	C	1.073297	0.924616	0.388194
C40	C	1.073270	0.851840	0.388173
C41	C	1.073233	0.760525	0.388153
C42	C	1.073233	0.388639	0.178662
C43	C	1.073356	0.388437	0.089041
C44	C	1.073341	0.388461	1.016259
C45	C	1.073330	0.388489	0.924950
C46	C	1.073324	0.388507	0.852174
C47	C	1.073312	0.388533	0.760859
H48	H	0.619970	0.488120	0.487450
H49	H	0.527192	0.352473	0.524005
Br50	Br	0.634289	0.211375	0.436130
Br51	Br	0.634512	0.435899	0.210887
H52	H	0.527420	0.289016	0.288926
Br53	Br	0.512775	0.565840	0.340388
