data_functionalizedCrystal
_audit_creation_method	'MofGen! by Chris Wilmer'
_symmetry_space_group_name_H-M	'P1'
_symmetry_Int_Tables_number	1
_symmetry_cell_setting	triclinic
loop_
_symmetry_equiv_pos_as_xyz
  x,y,z
_cell_length_a	14.044220
_cell_length_b	19.288865
_cell_length_c	17.766277
_cell_angle_alpha	90.011603
_cell_angle_beta	89.995720
_cell_angle_gamma	91.837437
loop_
_atom_site_label
_atom_site_type_symbol
_atom_site_fract_x
_atom_site_fract_y
_atom_site_fract_z
O1	O	1.256998	-0.167413	-0.062531
O2	O	1.756998	0.332587	0.437469
O3	O	0.981055	-0.161372	-0.062549
O4	O	1.481055	0.338628	0.437451
O5	O	1.127000	-0.063774	-0.062525
O6	O	1.627000	0.436226	0.437475
O7	O	1.111053	-0.265010	-0.062556
O8	O	1.611053	0.234990	0.437444
O9	O	1.126975	-0.063767	0.062664
O10	O	1.626975	0.436233	0.562664
O11	O	0.981029	-0.161365	0.062639
O12	O	1.481029	0.338635	0.562639
O13	O	1.256973	-0.167406	0.062658
O14	O	1.756973	0.332594	0.562658
Cu15	Cu	1.118999	-0.164385	0.074079
Cu16	Cu	1.618999	0.335615	0.574079
Cu17	Cu	1.119029	-0.164393	-0.073971
Cu18	Cu	1.619029	0.335607	0.426029
O19	O	1.111028	-0.265003	0.062633
O20	O	1.611028	0.234997	0.562633
C21	C	0.945739	-0.158724	0.000043
C22	C	1.445739	0.341276	0.500043
C23	C	0.840547	-0.150836	0.000036
C24	C	1.340547	0.349164	0.500036
N25	N	1.118984	-0.164379	0.178209
N26	N	1.618984	0.335621	0.678209
C27	C	1.126474	-0.037862	0.000072
C28	C	1.626474	0.462138	0.500072
C29	C	1.124934	0.039341	0.000078
C30	C	1.624934	0.539341	0.500078
C31	C	0.647947	-0.136416	0.000053
C32	C	1.147947	0.363584	0.500053
C33	C	0.590075	-0.192359	0.000048
C34	C	1.090075	0.307641	0.500048
C35	C	0.482906	-0.184335	0.000058
C36	C	0.982906	0.315665	0.500058
C37	C	0.755126	-0.144438	0.000044
C38	C	1.255126	0.355562	0.500044
C39	C	1.292289	-0.170054	0.000064
C40	C	1.792289	0.329946	0.500064
C41	C	1.397481	-0.177942	0.000065
C42	C	1.897481	0.322058	0.500065
C43	C	1.111554	-0.290916	0.000035
C44	C	1.611554	0.209084	0.500035
C45	C	1.113094	-0.368119	0.000023
C46	C	1.613094	0.131881	0.500023
C47	C	1.210568	0.078535	0.000088
C48	C	1.710568	0.578535	0.500088
C49	C	1.209121	0.151075	0.000076
C50	C	1.709121	0.651075	0.500076
C51	C	1.122035	0.184418	0.000069
C52	C	1.622035	0.684418	0.500069
C53	C	1.036390	0.145215	0.000056
C54	C	1.536390	0.645215	0.500056
C55	C	1.037839	0.072676	0.000060
C56	C	1.537839	0.572676	0.500060
C57	C	1.053566	0.297107	0.043916
C58	C	1.553566	0.797107	0.543916
C59	C	1.052120	0.369644	0.043916
C60	C	1.552120	0.869644	0.543916
C61	C	1.117560	0.408151	0.000052
C62	C	1.617560	0.908151	0.500052
C63	C	1.184463	0.374113	-0.043802
C64	C	1.684463	0.874113	0.456198
C65	C	1.185912	0.301574	-0.043797
C66	C	1.685912	0.801574	0.456203
C67	C	1.120453	0.263074	0.000064
C68	C	1.620453	0.763074	0.500064
C69	C	1.201631	0.526002	0.000048
C70	C	1.701631	1.026002	0.500048
C71	C	1.200181	0.598543	0.000031
C72	C	1.700181	1.098543	0.500031
C73	C	1.027447	0.592681	0.000019
C74	C	1.527447	1.092681	0.500019
C75	C	1.028900	0.520142	0.000028
C76	C	1.528900	1.020142	0.500028
C77	C	1.115995	0.486806	0.000046
C78	C	1.615995	0.986806	0.500046
N79	N	1.119051	-0.164394	-0.178101
N80	N	1.619051	0.335606	0.321899
C81	C	1.183630	-0.121187	0.217607
C82	C	1.683630	0.378813	0.717607
C83	C	1.183635	-0.121184	0.296409
C84	C	1.683635	0.378816	0.796409
C85	C	1.119004	-0.164386	0.335810
C86	C	1.619004	0.335614	0.835810
C87	C	1.054347	-0.207580	0.296403
C88	C	1.554347	0.292420	0.796403
C89	C	1.054337	-0.207577	0.217602
C90	C	1.554337	0.292423	0.717602
C91	C	1.106318	-0.226858	0.460638
C92	C	1.606318	0.273142	0.960638
C93	C	1.106335	-0.226863	0.539437
C94	C	1.606335	0.273137	1.039437
C95	C	1.119030	-0.164396	0.578856
C96	C	1.619030	0.335604	1.078856
C97	C	1.131728	-0.101922	0.539467
C98	C	1.631728	0.398078	1.039467
C99	C	1.131718	-0.101919	0.460667
C100	C	1.631718	0.398081	0.960667
C101	C	1.119008	-0.164394	0.421256
C102	C	1.619008	0.335606	0.921256
C103	C	1.183684	-0.121197	0.703700
C104	C	1.683684	0.378803	1.203700
C105	C	1.183683	-0.121193	0.782503
C106	C	1.683683	0.378807	1.282503
C107	C	1.054400	-0.207595	0.782495
C108	C	1.554400	0.292405	1.282495
C109	C	1.054396	-0.207593	0.703694
C110	C	1.554396	0.292407	1.203694
C111	C	1.119044	-0.164395	0.664301
C112	C	1.619044	0.335605	1.164301
H113	H	0.621016	-0.246280	0.000036
H114	H	1.121016	0.253720	0.500036
H115	H	1.001722	-0.242754	0.328487
H116	H	1.501722	0.257246	0.828487
H117	H	1.236267	-0.086011	0.185536
H118	H	1.736267	0.413989	0.685536
O119	O	0.606975	-0.064993	0.000064
O120	O	1.106975	0.435007	0.500064
H121	H	0.528008	-0.069821	0.000063
H122	H	1.028008	0.430179	0.500063
H123	H	0.959167	0.488229	0.000024
H124	H	1.459167	0.988229	0.500024
O125	O	1.145207	-0.034562	0.418113
O126	O	1.645207	0.465438	0.918113
H127	H	1.209636	-0.036923	0.382134
H128	H	1.709636	0.463077	0.882134
H129	H	0.997640	0.397352	0.079620
H130	H	1.497640	0.897352	0.579620
O131	O	0.982984	0.255575	0.091232
O132	O	1.482984	0.755575	0.591232
H133	H	0.936233	0.291429	0.121735
H134	H	1.436233	0.791429	0.621735
O135	O	1.304501	0.042579	0.000086
O136	O	1.804501	0.542579	0.500086
H137	H	1.363805	0.082025	0.000080
H138	H	1.863805	0.582025	0.500080
O139	O	1.301485	0.193363	0.000096
O140	O	1.801485	0.693363	0.500096
H141	H	1.362290	0.157996	0.000115
H142	H	1.862290	0.657996	0.500115
H143	H	1.001760	-0.242767	0.671614
H144	H	1.501760	0.257233	1.171614
O145	O	1.258050	0.264857	-0.091105
O146	O	1.758050	0.764857	0.408895
H147	H	1.303309	0.303814	-0.121615
H148	H	1.803309	0.803814	0.378385
O149	O	1.255048	0.415632	-0.091123
O150	O	1.755048	0.915632	0.408877
H151	H	1.242795	0.471791	-0.083769
H152	H	1.742795	0.971791	0.416231
H153	H	0.965484	0.172367	0.000049
H154	H	1.465484	0.672367	0.500049
H155	H	1.272549	0.498859	0.000059
H156	H	1.772549	0.998859	0.500059
O157	O	1.292547	0.640823	0.000047
O158	O	1.792547	1.140823	0.500047
H159	H	1.353348	0.605453	0.000070
H160	H	1.853348	1.105453	0.500070
O161	O	1.253372	-0.074576	0.661209
O162	O	1.753372	0.425424	1.161209
H163	H	1.242504	-0.081829	0.599794
H164	H	1.742504	0.418171	1.099794
O165	O	0.933514	0.628632	0.000015
O166	O	1.433514	1.128632	0.500015
H167	H	0.946891	0.685658	0.000019
H168	H	1.446891	1.185658	0.500019
H169	H	0.968103	0.040764	0.000053
H170	H	1.468103	0.540764	0.500053
O171	O	1.253371	-0.074605	0.338918
O172	O	1.753371	0.425395	0.838918
H173	H	1.298327	-0.044572	0.298286
H174	H	1.798327	0.455428	0.798286
O175	O	1.145414	-0.034538	0.581970
O176	O	1.645414	0.465462	1.081970
H177	H	1.143274	-0.045031	0.643382
H178	H	1.643274	0.454969	1.143382
H179	H	1.096001	-0.277733	0.571501
H180	H	1.596001	0.222267	1.071501
O181	O	1.253421	-0.074614	0.825003
O182	O	1.753421	0.425386	1.325003
H183	H	1.298379	-0.044585	0.784369
H184	H	1.798379	0.455415	1.284369
H185	H	1.001772	-0.242768	0.814575
H186	H	1.501772	0.257232	1.314575
H187	H	1.095964	-0.277729	0.428549
H188	H	1.595964	0.222271	0.928549
O189	O	0.984617	-0.254169	0.175101
O190	O	1.484617	0.245831	0.675101
H191	H	0.939677	-0.284214	0.215734
H192	H	1.439677	0.215786	0.715734
