data_functionalizedCrystal
_audit_creation_method	'MofGen! by Chris Wilmer'
_symmetry_space_group_name_H-M	'P1'
_symmetry_Int_Tables_number	1
_symmetry_cell_setting	triclinic
loop_
_symmetry_equiv_pos_as_xyz
  x,y,z
_cell_length_a	14.044191
_cell_length_b	14.044190
_cell_length_c	12.503552
_cell_angle_alpha	93.836179
_cell_angle_beta	86.157523
_cell_angle_gamma	93.191777
loop_
_atom_site_label
_atom_site_type_symbol
_atom_site_fract_x
_atom_site_fract_y
_atom_site_fract_z
O1	O	1.282222	0.225150	-0.089291
O2	O	1.005550	0.216836	-0.089303
O3	O	1.139728	0.082658	-0.089276
O4	O	1.148043	0.359328	-0.089318
O5	O	1.129625	0.092758	0.089364
O6	O	0.995447	0.226936	0.089337
O7	O	1.272119	0.235249	0.089350
Cu8	Cu	1.132860	0.232015	0.105655
Cu9	Cu	1.144808	0.220071	-0.105608
O10	O	1.137940	0.369428	0.089323
C11	C	0.964876	0.218249	0.000016
C12	C	0.858733	0.207402	0.000012
C13	C	0.613276	0.264503	0.000014
C14	C	0.664399	0.187587	0.000023
C15	C	0.772536	0.198615	0.000017
C16	C	0.505129	0.253476	0.000020
C17	C	1.131040	0.052086	0.000047
C18	C	1.120192	-0.054057	0.000056
C19	C	1.177295	-0.299516	0.000017
C20	C	1.100378	-0.248393	0.000021
C21	C	1.111405	-0.140254	0.000040
C22	C	1.166269	-0.407664	-0.000003
C23	C	1.312792	0.233836	0.000029
C24	C	1.418936	0.244683	0.000026
C25	C	1.146629	0.400000	-0.000003
C26	C	1.157477	0.506142	-0.000019
N27	N	1.124464	0.240416	0.254246
N28	N	1.153212	0.211663	-0.254199
C29	C	1.165558	0.199302	0.526687
C30	C	1.112120	0.252774	0.473352
C31	C	1.118990	0.245896	0.351430
C32	C	1.158689	0.206179	0.648621
H33	H	1.026246	-0.285838	0.000011
H34	H	0.626957	0.113450	-0.000041
C35	C	1.043351	0.321605	0.535360
C36	C	1.036267	0.328257	0.659046
C37	C	0.967505	0.397088	0.721060
C38	C	0.905827	0.459268	0.659388
C39	C	0.912908	0.452618	0.535696
C40	C	0.981671	0.383786	0.473682
H41	H	1.081927	0.282227	0.704705
H42	H	0.962263	0.402011	0.812625
H43	H	0.854925	0.510221	0.705295
H44	H	0.867249	0.498648	0.490037
H45	H	0.986913	0.378864	0.382117
H46	H	1.216464	0.148362	0.480787
C47	C	1.277437	-0.248935	0.000043
C48	C	1.302726	-0.176216	0.092829
C49	C	1.402866	-0.125620	0.092861
C50	C	1.477717	-0.147743	0.000108
C51	C	1.452431	-0.220466	-0.092684
C52	C	1.352291	-0.271062	-0.092717
H53	H	1.247314	-0.159835	0.161496
H54	H	1.421584	-0.071785	0.161552
H55	H	1.551847	-0.110289	0.000132
H56	H	1.507842	-0.236847	-0.161352
H57	H	1.333573	-0.324897	-0.161408
H58	H	0.650720	0.338629	-0.000001
