data_functionalizedCrystal
_audit_creation_method	'MofGen! by Chris Wilmer'
_symmetry_space_group_name_H-M	'P1'
_symmetry_Int_Tables_number	1
_symmetry_cell_setting	triclinic
loop_
_symmetry_equiv_pos_as_xyz
  x,y,z
_cell_length_a	6.817900
_cell_length_b	10.773890
_cell_length_c	14.858340
_cell_angle_alpha	96.152117
_cell_angle_beta	104.519754
_cell_angle_gamma	96.645716
loop_
_atom_site_label
_atom_site_type_symbol
_atom_site_fract_x
_atom_site_fract_y
_atom_site_fract_z
V1	V	-4.003605	-0.173386	-0.288438
V2	V	-3.503605	0.326614	0.211562
O3	O	-4.027072	0.007513	-0.284507
O4	O	-3.527072	0.507513	0.215493
O5	O	-3.921125	-0.343008	-0.284966
O6	O	-3.421125	0.156992	0.215034
O7	O	-3.960687	-0.171078	-0.414920
O8	O	-3.460687	0.328922	0.085080
O9	O	-3.987236	-0.165607	-0.153653
O10	O	-3.487236	0.334393	0.346347
V11	V	-4.490938	-0.151706	-0.272499
V12	V	-3.990938	0.348294	0.227501
O13	O	-4.256504	-0.220943	-0.323403
O14	O	-3.756504	0.279057	0.176597
O15	O	-4.688236	-0.104149	-0.237535
O16	O	-4.188236	0.395851	0.262465
O17	O	-4.350211	0.017916	-0.275971
O18	O	-3.850211	0.517916	0.224029
O19	O	-4.584868	-0.332605	-0.276431
O20	O	-4.084868	0.167395	0.223569
O21	O	-4.624704	-0.159485	-0.407285
O22	O	-4.124704	0.340515	0.092715
O23	O	-4.310649	-0.154014	-0.146017
O24	O	-3.810649	0.345986	0.353983
C25	C	-3.757658	-0.384347	-0.280029
C26	C	-3.257658	0.115653	0.219971
C27	C	-3.771544	-0.523017	-0.278034
C28	C	-3.271544	-0.023017	0.221966
C29	C	-3.949769	-0.590889	-0.281501
C30	C	-3.449769	-0.090889	0.218499
C31	C	-3.964126	-0.734213	-0.279439
C32	C	-3.464126	-0.234213	0.220561
C33	C	-3.808122	-0.165032	-0.445797
C34	C	-3.308122	0.334968	0.054203
C35	C	-3.854090	-0.164267	-0.549187
C36	C	-3.354090	0.335733	-0.049187
C37	C	-3.891420	-0.163645	-0.633151
C38	C	-3.391420	0.336355	-0.133151
C39	C	-3.938267	-0.162859	-0.738487
C40	C	-3.438267	0.337141	-0.238487
C41	C	-3.975621	-0.162232	-0.822444
C42	C	-3.475621	0.337768	-0.322444
C43	C	-4.022473	-0.161449	-0.927787
C44	C	-3.522473	0.338551	-0.427787
C45	C	-4.177019	0.059248	-0.280906
C46	C	-3.677019	0.559248	0.219094
C47	C	-4.142371	0.197918	-0.282907
C48	C	-3.642371	0.697918	0.217093
C49	C	-4.126555	-0.160064	-0.115135
C50	C	-3.626555	0.339936	0.384865
C51	C	-4.059827	-0.160822	-0.011745
C52	C	-3.559827	0.339178	0.488255
H53	H	-3.629590	-0.571016	-0.273543
H54	H	-3.129590	-0.071016	0.226457
H55	H	-4.091728	-0.542892	-0.286003
H56	H	-3.591728	-0.042892	0.213997
H57	H	-4.284344	-0.754092	-0.287407
H58	H	-3.784344	-0.254092	0.212593
F59	F	-3.778560	-0.796939	-0.273569
F60	F	-3.278560	-0.296939	0.226431
