data_functionalizedCrystal
_audit_creation_method	'MofGen! by Chris Wilmer'
_symmetry_space_group_name_H-M	'P1'
_symmetry_Int_Tables_number	1
_symmetry_cell_setting	triclinic
loop_
_symmetry_equiv_pos_as_xyz
  x,y,z
_cell_length_a	16.959453
_cell_length_b	16.959455
_cell_length_c	16.959447
_cell_angle_alpha	90.019044
_cell_angle_beta	89.968904
_cell_angle_gamma	89.976997
loop_
_atom_site_label
_atom_site_type_symbol
_atom_site_fract_x
_atom_site_fract_y
_atom_site_fract_z
Zn1	Zn	-0.314704	-1.208358	-0.447004
Zn2	Zn	0.185296	-0.708358	0.052996
Zn3	Zn	-0.446897	-1.208269	-0.314824
Zn4	Zn	0.053103	-0.708269	0.185176
Zn5	Zn	-0.314732	-1.076186	-0.314831
Zn6	Zn	0.185268	-0.576186	0.185169
Zn7	Zn	-0.446841	-1.076140	-0.446951
Zn8	Zn	0.053159	-0.576140	0.053049
O9	O	-0.380793	-1.142238	-0.380902
O10	O	0.119207	-0.642238	0.119098
O11	O	-0.332252	-1.318957	-0.429489
O12	O	0.167748	-0.818957	0.070511
O13	O	-0.429400	-1.190731	-0.204214
O14	O	0.070600	-0.690731	0.295786
O15	O	-0.204117	-1.093775	-0.332389
O16	O	0.295883	-0.593775	0.167611
O17	O	-0.429373	-1.318892	-0.332377
O18	O	0.070627	-0.818892	0.167623
O19	O	-0.204097	-1.190881	-0.429496
O20	O	0.295903	-0.690881	0.070504
O21	O	-0.332299	-1.093690	-0.204219
O22	O	0.167701	-0.593690	0.295781
O23	O	-0.332244	-0.965569	-0.332338
O24	O	0.167756	-0.465569	0.167662
O25	O	-0.429277	-1.093697	-0.557569
O26	O	0.070723	-0.593697	-0.057569
O27	O	-0.429304	-0.965535	-0.429406
O28	O	0.070696	-0.465535	0.070594
O29	O	-0.332197	-1.190836	-0.557608
O30	O	0.167803	-0.690836	-0.057608
O31	O	-0.557500	-1.190686	-0.332326
O32	O	-0.057500	-0.690686	0.167674
O33	O	-0.557459	-1.093611	-0.429399
O34	O	-0.057459	-0.593611	0.070601
C35	C	-0.380772	-0.936872	-0.380867
C36	C	0.119228	-0.436872	0.119133
C37	C	-0.380782	-0.849015	-0.380871
C38	C	0.119218	-0.349015	0.119129
C39	C	-0.330174	-0.807736	-0.330411
C40	C	0.169826	-0.307736	0.169589
C41	C	-0.431393	-0.807742	-0.431339
C42	C	0.068607	-0.307742	0.068661
C43	C	-0.431401	-0.725196	-0.431348
C44	C	0.068599	-0.225196	0.068652
C45	C	-0.380794	-0.683916	-0.380888
C46	C	0.119206	-0.183916	0.119112
C47	C	-0.330179	-0.725182	-0.330420
C48	C	0.169821	-0.225182	0.169580
C49	C	-0.482010	-0.683923	-0.481820
C50	C	0.017990	-0.183923	0.018180
C51	C	-0.482019	-0.601372	-0.481831
C52	C	0.017981	-0.101372	0.018169
C53	C	-0.431416	-0.560091	-0.431367
C54	C	0.068584	-0.060091	0.068633
C55	C	-0.380799	-0.601362	-0.380896
C56	C	0.119201	-0.101362	0.119104
C57	C	-0.330192	-0.560083	-0.330436
C58	C	0.169808	-0.060083	0.169564
C59	C	-0.279579	-0.601352	-0.279961
C60	C	0.220421	-0.101352	0.220039
C61	C	-0.279575	-0.683901	-0.279955
C62	C	0.220425	-0.183901	0.220045
C63	C	-0.431419	-0.477543	-0.431373
C64	C	0.068581	0.022457	0.068627
C65	C	-0.330197	-0.477529	-0.330445
C66	C	0.169803	0.022471	0.169555
C67	C	-0.586160	-1.142155	-0.380873
C68	C	-0.086160	-0.642155	0.119127
C69	C	-0.674016	-1.142192	-0.380887
C70	C	-0.174016	-0.642192	0.119113
C71	C	-0.715298	-1.091624	-0.431393
C72	C	-0.215298	-0.591624	0.068607
C73	C	-0.715288	-1.192798	-0.330399
C74	C	-0.215288	-0.692798	0.169601
C75	C	-0.797834	-1.192838	-0.330413
C76	C	-0.297834	-0.692838	0.169587
C77	C	-0.839116	-1.142270	-0.380919
C78	C	-0.339116	-0.642270	0.119081
C79	C	-0.797851	-1.091664	-0.431411
C80	C	-0.297851	-0.591664	0.068589
C81	C	-0.839105	-1.243449	-0.279928
C82	C	-0.339105	-0.743449	0.220072
C83	C	-0.921656	-1.243491	-0.279941
C84	C	-0.421656	-0.743491	0.220059
C85	C	-0.962939	-1.192919	-0.330444
C86	C	-0.462939	-0.692919	0.169556
C87	C	-0.921669	-1.142310	-0.380937
C88	C	-0.421669	-0.642310	0.119063
C89	C	-0.962951	-1.091742	-0.431443
C90	C	-0.462951	-0.591742	0.068557
C91	C	-0.921683	-1.041129	-0.481933
C92	C	-0.421683	-0.541129	0.018067
C93	C	-0.839134	-1.041092	-0.481914
C94	C	-0.339134	-0.541092	0.018086
C95	C	-1.045487	-1.192955	-0.330463
C96	C	-0.545487	-0.692955	0.169537
C97	C	-1.045504	-1.091782	-0.431460
C98	C	-0.545504	-0.591782	0.068540
C99	C	-0.174625	-1.142343	-0.380949
C100	C	0.325375	-0.642343	0.119051
C101	C	-0.086768	-1.142388	-0.380969
C102	C	0.413232	-0.642388	0.119031
C103	C	-0.380728	-1.142271	-0.587071
C104	C	0.119272	-0.642271	-0.087071
C105	C	-0.380700	-1.142285	-0.674927
C106	C	0.119300	-0.642285	-0.174927
C107	C	-0.380812	-0.348406	-0.380928
C108	C	0.119188	0.151594	0.119072
C109	C	-0.380812	-0.436263	-0.380913
C110	C	0.119188	0.063737	0.119087
C111	C	-0.431162	-1.091803	-1.046386
C112	C	0.068838	-0.591803	-0.546386
C113	C	-0.330072	-1.192956	-1.046421
C114	C	0.169928	-0.692956	-0.546421
C115	C	-0.330088	-1.192935	-0.963875
C116	C	0.169912	-0.692935	-0.463875
C117	C	-0.380643	-1.142348	-0.922580
C118	C	0.119357	-0.642348	-0.422580
C119	C	-0.431182	-1.091782	-0.963832
C120	C	0.068818	-0.591782	-0.463832
C121	C	-0.279557	-1.243505	-0.922617
C122	C	0.220443	-0.743505	-0.422617
C123	C	-0.279572	-1.243487	-0.840066
C124	C	0.220428	-0.743487	-0.340066
C125	C	-0.330124	-1.192896	-0.798770
C126	C	0.169876	-0.692896	-0.298770
C127	C	-0.380663	-1.142327	-0.840027
C128	C	0.119337	-0.642327	-0.340027
C129	C	-0.431218	-1.091740	-0.798732
C130	C	0.068782	-0.591740	-0.298732
C131	C	-0.481755	-1.041167	-0.839987
C132	C	0.018245	-0.541167	-0.339987
C133	C	-0.481733	-1.041191	-0.922536
C134	C	0.018267	-0.541191	-0.422536
C135	C	-0.330145	-1.192872	-0.716222
C136	C	0.169855	-0.692872	-0.216222
C137	C	-0.431238	-1.091719	-0.716179
C138	C	0.068762	-0.591719	-0.216179
C139	C	-0.380801	-1.142251	-0.175536
C140	C	0.119199	-0.642251	0.324464
C141	C	-0.380607	-1.142390	-0.087680
C142	C	0.119393	-0.642390	0.412320
H143	H	-0.238371	-0.567732	-0.238880
H144	H	0.261629	-0.067732	0.261120
H145	H	-0.955305	-0.999960	-0.523058
H146	H	-0.455305	-0.499960	-0.023058
Br147	Br	-0.261473	-1.261614	-1.102463
Br148	Br	0.238527	-0.761614	-0.602463
Br149	Br	-0.261492	-0.863740	-0.261908
Br150	Br	0.238508	-0.363740	0.238092
H151	H	-0.805529	-0.999885	-0.523021
H152	H	-0.305529	-0.499885	-0.023021
H153	H	-0.681674	-1.233973	-0.289282
H154	H	-0.181674	-0.733973	0.210718
H155	H	-0.522920	-0.999983	-0.806355
H156	H	-0.022920	-0.499983	-0.306355
Br157	Br	-0.210959	-1.312163	-0.978662
Br158	Br	0.289041	-0.812163	-0.478662
H159	H	-0.805491	-1.284623	-0.238811
H160	H	-0.305491	-0.784623	0.261189
Br161	Br	-1.101523	-1.023144	-0.500002
Br162	Br	-0.601523	-0.523144	-0.000002
H163	H	-0.472592	-0.841357	-0.472425
H164	H	0.027408	-0.341357	0.027575
Br165	Br	-0.210889	-0.739914	-0.211463
Br166	Br	0.289111	-0.239914	0.288537
Br167	Br	-0.261574	-1.261508	-0.660236
Br168	Br	0.238426	-0.761508	-0.160236
H169	H	-0.681695	-1.050413	-0.472499
H170	H	-0.181695	-0.550413	0.027501
Br171	Br	-0.210988	-1.312118	-0.784084
Br172	Br	0.289012	-0.812118	-0.284084
Br173	Br	-0.550315	-0.972566	-0.978529
Br174	Br	-0.050315	-0.472566	-0.478529
H175	H	-0.955249	-1.284703	-0.238828
H176	H	-0.455249	-0.784703	0.261172
H177	H	-1.079084	-1.234169	-0.289360
H178	H	-0.579084	-0.734169	0.210640
H179	H	-0.288987	-0.443925	-0.289352
H180	H	0.211013	0.056075	0.210648
Br181	Br	-0.550701	-0.739948	-0.550283
Br182	Br	-0.050701	-0.239948	-0.050283
Br183	Br	-0.499739	-1.023167	-1.102370
Br184	Br	0.000261	-0.523167	-0.602370
H185	H	-0.523233	-0.567778	-0.522930
H186	H	-0.023233	-0.067778	-0.022930
H187	H	-0.472400	-1.050518	-0.682563
H188	H	0.027600	-0.550518	-0.182563
H189	H	-0.472622	-0.443945	-0.472474
H190	H	0.027378	0.056055	0.027526
