data_functionalizedCrystal
_audit_creation_method	'MofGen! by Chris Wilmer'
_symmetry_space_group_name_H-M	'P1'
_symmetry_Int_Tables_number	1
_symmetry_cell_setting	triclinic
loop_
_symmetry_equiv_pos_as_xyz
  x,y,z
_cell_length_a	17.639181
_cell_length_b	17.637651
_cell_length_c	19.076919
_cell_angle_alpha	80.566536
_cell_angle_beta	103.910879
_cell_angle_gamma	92.197637
loop_
_atom_site_label
_atom_site_type_symbol
_atom_site_fract_x
_atom_site_fract_y
_atom_site_fract_z
Zn1	Zn	1.094399	-0.540527	-0.103163
Zn2	Zn	1.075764	-0.662824	0.033207
Zn3	Zn	0.972130	-0.511766	-0.012717
Zn4	Zn	0.941254	-0.642180	-0.112429
O5	O	1.020887	-0.589324	-0.048776
O6	O	1.199390	-0.577426	-0.061976
O7	O	1.067139	-0.639389	0.125916
O8	O	1.009071	-0.409821	-0.040056
O9	O	1.185698	-0.667277	0.038214
O10	O	1.098901	-0.430952	-0.106506
O11	O	0.991000	-0.528407	0.092176
O12	O	0.860572	-0.508390	-0.049041
O13	O	0.956446	-0.632093	-0.210001
O14	O	0.837887	-0.604204	-0.122299
O15	O	1.068961	-0.557409	-0.203193
O16	O	1.037200	-0.765846	0.029229
O17	O	0.938376	-0.750679	-0.077769
C18	C	0.821366	-0.550937	-0.091660
C19	C	0.736005	-0.534533	-0.110020
C20	C	0.419742	-0.714109	0.090719
C21	C	0.339535	-0.698685	0.073460
C22	C	0.353753	-0.605284	-0.030980
C23	C	0.433964	-0.620697	-0.013727
C24	C	0.466952	-0.675111	0.047123
C25	C	0.481174	-0.581699	-0.057323
C26	C	0.561377	-0.597115	-0.040073
C27	C	0.594370	-0.651527	0.020773
C28	C	0.547155	-0.690526	0.064373
C29	C	0.448183	-0.527290	-0.118175
C30	C	0.495393	-0.488292	-0.161771
C31	C	0.575599	-0.503703	-0.144519
C32	C	0.608592	-0.558116	-0.083673
C33	C	0.622814	-0.464704	-0.188119
C34	C	0.703017	-0.480119	-0.170869
C35	C	0.688796	-0.573531	-0.066423
C36	C	0.982435	-0.785689	-0.020304
C37	C	0.966055	-0.869709	-0.008132
C38	C	1.145817	-1.200723	-0.141360
C39	C	1.130401	-1.279667	-0.129915
C40	C	1.036930	-1.257781	-0.060620
C41	C	1.052341	-1.178833	-0.072055
C42	C	1.106785	-1.150311	-0.112426
C43	C	1.013309	-1.128421	-0.043122
C44	C	1.028716	-1.049480	-0.054560
C45	C	1.083155	-1.020951	-0.094931
C46	C	1.122192	-1.071370	-0.123865
C47	C	0.958862	-1.156945	-0.002755
C48	C	0.919830	-1.106533	0.026178
C49	C	0.935241	-1.027591	0.014745
C50	C	0.989680	-0.999062	-0.025627
C51	C	0.896204	-0.977173	0.043678
C52	C	0.911611	-0.898232	0.032240
C53	C	1.005087	-0.920121	-0.037065
C54	C	1.221187	-0.627862	-0.005724
C55	C	1.306543	-0.644285	0.012621
C56	C	1.011338	-0.595656	-0.232931
C57	C	1.007269	-0.598354	-0.311407
C58	C	1.059509	-0.392197	-0.077370
C59	C	1.075967	-0.308194	-0.089555
C60	C	1.063935	-0.560740	-0.344732
C61	C	1.060103	-0.563270	-0.418471
C62	C	0.999608	-0.603420	-0.458883
C63	C	0.942936	-0.641036	-0.425553
C64	C	0.946766	-0.638500	-0.351817
C65	C	0.981870	-0.615169	-0.679792
C66	C	0.978046	-0.617703	-0.753533
C67	C	1.095213	-0.539936	-0.746446
C68	C	1.099040	-0.537408	-0.672708
C69	C	1.042366	-0.575020	-0.639386
N70	N	0.995691	-0.606010	-0.534255
N71	N	1.046281	-0.572426	-0.564016
C72	C	1.030453	-0.582971	0.134665
C73	C	1.034712	-0.580089	0.213142
H74	H	0.659679	-0.664071	0.034821
H75	H	0.446604	-0.758413	0.140273
O76	O	0.293792	-0.736616	0.115908
C77	C	0.340106	-0.787962	0.173300
H78	H	0.403461	-0.767906	0.183507
H79	H	0.318244	-0.789570	0.225109
H80	H	0.336064	-0.847931	0.157693
O81	O	0.943876	-1.233630	0.008224
C82	C	0.915424	-1.258507	-0.059862
H83	H	0.935293	-1.216912	-0.104318
H84	H	0.939087	-1.318390	-0.057346
H85	H	0.848886	-1.260337	-0.072976
H86	H	0.935731	-0.645808	-0.652667
O87	O	0.843376	-1.004804	0.082983
C88	C	0.867640	-0.986372	0.154175
H89	H	0.908431	-0.934668	0.153660
H90	H	0.814406	-0.971974	0.173584
H91	H	0.899702	-1.037569	0.192847
H92	H	1.113199	-0.528048	-0.311833
O93	O	0.321598	-0.552518	-0.090123
C94	C	0.264432	-0.588276	-0.139396
H95	H	0.242505	-0.642345	-0.108697
H96	H	0.213563	-0.546994	-0.165494
H97	H	0.291000	-0.604402	-0.183840
O98	O	0.748977	-0.442212	-0.213106
C99	C	0.806999	-0.400852	-0.170099
H100	H	0.816578	-0.427887	-0.110119
H101	H	0.863885	-0.402602	-0.188204
H102	H	0.787452	-0.338624	-0.177198
O103	O	0.370283	-0.512244	-0.135054
C104	C	0.351292	-0.455846	-0.198100
H105	H	0.397437	-0.455639	-0.230950
H106	H	0.291780	-0.469304	-0.233080
H107	H	0.349302	-0.396991	-0.181253
O108	O	0.984107	-1.285411	-0.021309
C109	C	1.008379	-1.266974	0.049880
H110	H	1.049168	-1.215269	0.049357
H111	H	0.955149	-1.252574	0.069295
H112	H	1.040446	-1.318169	0.088553
O113	O	0.463357	-0.435528	-0.220960
C114	C	0.476087	-0.458335	-0.284672
H115	H	0.486139	-0.523077	-0.274649
H116	H	0.422804	-0.442945	-0.331841
H117	H	0.529610	-0.427426	-0.299045
H118	H	1.106248	-0.532643	-0.445600
H119	H	0.595942	-0.420406	-0.237667
H120	H	1.162178	-1.320710	-0.153492
H121	H	1.166531	-1.048147	-0.156733
O122	O	1.198700	-1.173132	-0.180623
C123	C	1.229867	-1.234556	-0.203693
H124	H	1.187305	-1.284886	-0.204715
H125	H	1.239575	-1.215200	-0.260888
H126	H	1.287924	-1.253250	-0.164134
O127	O	1.150175	-0.503410	-0.778939
C128	C	1.133838	-0.514271	-0.852681
H129	H	1.069202	-0.527969	-0.871896
H130	H	1.148681	-0.459624	-0.887797
H131	H	1.170419	-0.563998	-0.857981
H132	H	0.574016	-0.734830	0.113927
O133	O	1.058070	-0.892389	-0.076166
C134	C	1.118691	-0.854855	-0.031963
H135	H	1.121721	-0.877669	0.028120
H136	H	1.176627	-0.866152	-0.044982
H137	H	1.106748	-0.790393	-0.043284
O138	O	0.866889	-1.134324	0.065301
C139	C	0.806241	-1.171821	0.021090
H140	H	0.828196	-1.190650	-0.024921
H141	H	0.786633	-1.224387	0.055697
H142	H	0.754855	-1.130750	-0.003254
H143	H	1.095699	-0.956672	-0.104243
H144	H	0.879826	-0.857185	0.055800
O145	O	1.157837	-0.498340	-0.633569
C146	C	1.207043	-0.465698	-0.678791
H147	H	1.173373	-0.458835	-0.738491
H148	H	1.228008	-0.406997	-0.664362
H149	H	1.259535	-0.504867	-0.670086
H150	H	0.928781	-0.650400	-0.786435
O151	O	0.884240	-0.680030	-0.464905
C152	C	0.893000	-0.674188	-0.537137
H153	H	0.956590	-0.661187	-0.538065
H154	H	0.875242	-0.730759	-0.558068
H155	H	0.854250	-0.625896	-0.573689
H156	H	0.900616	-0.669121	-0.324688
H157	H	0.715657	-0.617835	-0.016870
