data_functionalizedCrystal
_audit_creation_method	'MofGen! by Chris Wilmer'
_symmetry_space_group_name_H-M	'P1'
_symmetry_Int_Tables_number	1
_symmetry_cell_setting	triclinic
loop_
_symmetry_equiv_pos_as_xyz
  x,y,z
_cell_length_a	10.723024
_cell_length_b	10.654550
_cell_length_c	9.198806
_cell_angle_alpha	89.997986
_cell_angle_beta	89.996352
_cell_angle_gamma	84.476386
loop_
_atom_site_label
_atom_site_type_symbol
_atom_site_fract_x
_atom_site_fract_y
_atom_site_fract_z
O1	O	1.657214	0.176147	-0.120879
O2	O	1.294064	0.193008	-0.120884
O3	O	1.483989	0.001837	-0.120876
O4	O	1.467289	0.367318	-0.120887
O5	O	1.483973	0.001836	0.120909
O6	O	1.294049	0.193007	0.120901
O7	O	1.657199	0.176146	0.120906
Cu8	Cu	1.475622	0.184577	0.142981
Cu9	Cu	1.475640	0.184577	-0.142958
O10	O	1.467274	0.367317	0.120898
C11	C	1.247557	0.191780	0.000008
C12	C	1.109002	0.188109	0.000007
C13	C	1.034035	0.295078	0.000002
C14	C	0.890831	0.291287	0.000001
C15	C	1.482755	-0.044961	0.000015
C16	C	1.479086	-0.184404	0.000010
C17	C	1.590911	-0.263907	0.000016
C18	C	1.587456	-0.394927	0.000005
C19	C	1.360343	-0.366929	-0.000010
C20	C	1.363799	-0.235912	-0.000011
C21	C	1.706198	-0.212399	0.000036
C22	C	1.818032	-0.291903	0.000043
C23	C	1.814578	-0.422923	0.000033
C24	C	1.699289	-0.474440	0.000016
C25	C	1.703706	0.177373	0.000011
C26	C	1.842261	0.181045	0.000003
C27	C	1.468508	0.414115	0.000004
C28	C	1.472176	0.553558	-0.000000
N29	N	1.475619	0.184575	0.344095
N30	N	1.475654	0.184569	-0.344072
C31	C	1.555363	0.103954	0.416295
C32	C	1.555382	0.103950	0.583707
H33	H	1.709024	-0.105717	0.000049
O34	O	1.394152	0.267042	0.582102
C35	C	1.320003	0.341976	0.681769
H36	H	1.371118	0.343806	0.790296
H37	H	1.302132	0.442090	0.637681
H38	H	1.226802	0.300627	0.697922
H39	H	1.272742	-0.171178	-0.000013
O40	O	1.929909	-0.241658	0.000118
C41	C	1.908984	-0.108969	0.000090
H42	H	1.811862	-0.079047	0.045863
H43	H	1.982814	-0.068121	0.070292
H44	H	1.915356	-0.072444	-0.115904
H45	H	0.826412	0.382860	-0.000009
H46	H	1.623659	0.034931	0.645796
O47	O	1.923290	-0.500024	-0.000161
C48	C	1.993216	-0.476537	-0.125393
H49	H	1.963437	-0.377428	-0.167139
H50	H	2.097213	-0.484857	-0.097219
H51	H	1.975544	-0.548331	-0.213084
O52	O	1.084139	0.407580	-0.000058
C53	C	1.215967	0.386320	-0.000013
H54	H	1.245562	0.288548	-0.045789
H55	H	1.256686	0.460560	-0.070204
H56	H	1.252253	0.392663	0.115987
O57	O	0.919222	0.071870	-0.000188
C58	C	0.995337	0.067108	-0.125430
H59	H	1.002660	0.166873	-0.167182
H60	H	1.092805	0.021284	-0.097267
H61	H	0.952099	0.009318	-0.213113
O62	O	1.394130	0.266746	0.418358
C63	C	1.316418	0.198936	0.506391
H64	H	1.365034	0.100985	0.529032
H65	H	1.297368	0.251123	0.613489
H66	H	1.224015	0.189869	0.447840
H67	H	1.696486	-0.581126	-0.000008
O68	O	1.636651	0.021605	0.342001
C69	C	1.568884	-0.056234	0.253958
H70	H	1.471733	-0.006878	0.231357
H71	H	1.620660	-0.075596	0.146840
H72	H	1.559462	-0.149170	0.312479
H73	H	1.067166	0.093722	-0.000028
O74	O	1.248253	-0.416762	-0.000082
C75	C	1.150292	-0.318494	-0.000050
H76	H	1.186045	-0.229202	-0.045826
H77	H	1.069880	-0.346560	-0.070248
H78	H	1.115735	-0.300258	0.115945
