data_functionalizedCrystal
_audit_creation_method	'MofGen! by Chris Wilmer'
_symmetry_space_group_name_H-M	'P1'
_symmetry_Int_Tables_number	1
_symmetry_cell_setting	triclinic
loop_
_symmetry_equiv_pos_as_xyz
  x,y,z
_cell_length_a	8.497365
_cell_length_b	19.805407
_cell_length_c	19.805405
_cell_angle_alpha	89.974343
_cell_angle_beta	90.057082
_cell_angle_gamma	89.960035
loop_
_atom_site_label
_atom_site_type_symbol
_atom_site_fract_x
_atom_site_fract_y
_atom_site_fract_z
Zn1	Zn	-0.892208	1.034841	0.269307
Zn2	Zn	-0.628384	1.034725	0.382550
Zn3	Zn	-0.628400	0.921625	0.269379
Zn4	Zn	-0.892082	0.921619	0.382458
O5	O	-0.760268	0.978202	0.325923
O6	O	-0.857257	1.129542	0.284337
O7	O	-0.407623	1.019675	0.367606
O8	O	-0.663455	0.936694	0.174653
O9	O	-0.663426	1.129457	0.367537
O10	O	-0.857273	1.019874	0.174600
O11	O	-0.407635	0.936581	0.284460
O12	O	-0.663332	0.826907	0.284371
O13	O	-1.112861	0.936685	0.367379
O14	O	-0.857058	0.826903	0.367449
O15	O	-1.112954	1.019868	0.284248
O16	O	-0.663304	1.019670	0.477254
O17	O	-0.857042	0.936572	0.477187
C18	C	-0.760192	0.978126	0.501779
C19	C	-0.760212	0.978156	0.577011
C20	C	-0.760184	0.802346	0.325908
C21	C	-0.760186	0.727114	0.325918
C22	C	-0.861084	0.265339	0.369264
C23	C	-0.861050	0.336028	0.369263
C24	C	-0.760330	0.371353	0.325940
C25	C	-0.659625	0.335986	0.282620
C26	C	-0.659652	0.265299	0.282625
C27	C	-0.659514	0.621059	0.282599
C28	C	-0.659499	0.691751	0.282596
C29	C	-0.860913	0.691788	0.369237
C30	C	-0.860939	0.621101	0.369242
C31	C	-0.760229	0.585740	0.325925
C32	C	-0.760265	0.509092	0.325928
C33	C	-0.760302	0.448000	0.325933
C34	C	-0.350388	0.978154	0.325997
C35	C	-0.171745	0.978250	0.325858
C36	C	-0.760354	1.154745	0.325939
C37	C	-0.760390	1.229977	0.325946
C38	C	-0.760380	0.978297	0.149381
C39	C	-0.760427	0.978338	0.074149
C40	C	-0.659439	1.021467	0.612368
C41	C	-0.659473	1.021496	0.683057
C42	C	-0.760275	0.978209	0.718387
C43	C	-0.861060	0.934896	0.683025
C44	C	-0.861032	0.934871	0.612338
C45	C	-0.861177	0.934996	0.968098
C46	C	-0.861194	0.935023	1.038790
C47	C	-0.659618	1.021620	1.038817
C48	C	-0.659590	1.021595	0.968130
C49	C	-0.760380	0.978285	0.932774
C50	C	-0.760343	0.978255	0.856126
C51	C	-0.760305	0.978235	0.795034
H52	H	-0.943111	0.236582	0.404539
H53	H	-0.577610	0.364753	0.247349
Cl54	Cl	-0.987569	0.576696	0.423705
Cl55	Cl	-0.987640	0.380480	0.423723
Cl56	Cl	-0.987511	0.736246	0.423698
H57	H	-0.577477	0.720511	0.247314
H58	H	-0.577504	0.592277	0.247330
Cl59	Cl	-0.533052	0.220843	0.228169
H60	H	-0.577347	1.056713	0.583607
H61	H	-0.943141	0.899654	0.711796
Cl62	Cl	-0.987929	0.880602	1.083205
H63	H	-0.943240	0.899730	0.939317
Cl64	Cl	-0.987729	0.880423	0.567889
H65	H	-0.577412	1.056763	0.711841
Cl66	Cl	-0.532864	1.076015	0.923719
Cl67	Cl	-0.532917	1.076072	1.083269
