data_functionalizedCrystal
_audit_creation_method	'MofGen! by Chris Wilmer'
_symmetry_space_group_name_H-M	'P1'
_symmetry_Int_Tables_number	1
_symmetry_cell_setting	triclinic
loop_
_symmetry_equiv_pos_as_xyz
  x,y,z
_cell_length_a	16.992694
_cell_length_b	11.792241
_cell_length_c	16.053802
_cell_angle_alpha	92.583059
_cell_angle_beta	87.249047
_cell_angle_gamma	87.430819
loop_
_atom_site_label
_atom_site_type_symbol
_atom_site_fract_x
_atom_site_fract_y
_atom_site_fract_z
O1	O	1.044699	0.236280	-0.069325
O2	O	0.816403	0.233637	-0.069350
O3	O	0.936091	0.070242	-0.069331
O4	O	0.925011	0.399675	-0.069344
O5	O	0.929503	0.079196	0.069527
O6	O	0.809815	0.242591	0.069508
O7	O	1.038111	0.245234	0.069533
Zn8	Zn	0.922917	0.245334	0.091567
Zn9	Zn	0.931597	0.233537	-0.091384
O10	O	0.918423	0.408630	0.069514
C11	C	0.783882	0.234716	0.000076
C12	C	0.696796	0.224578	0.000067
C13	C	0.646971	0.322395	0.000064
C14	C	0.565143	0.312864	0.000076
C15	C	0.533142	0.205513	0.000085
C16	C	0.582973	0.107688	0.000091
C17	C	0.664799	0.117221	0.000085
C18	C	0.289375	0.166002	0.000109
C19	C	0.207543	0.156476	0.000112
C20	C	0.189719	0.361652	0.000099
C21	C	0.271548	0.371176	0.000088
C22	C	0.321371	0.273351	0.000098
N23	N	0.449501	0.195767	0.000094
N24	N	0.405010	0.283098	0.000095
C25	C	0.932101	0.032371	0.000098
C26	C	0.930018	-0.093813	0.000097
C27	C	0.926188	-0.324840	0.000082
C28	C	0.928316	-0.196280	0.000090
C29	C	1.070632	0.244155	0.000105
C30	C	1.157719	0.254293	0.000109
C31	C	0.922413	0.446500	0.000084
C32	C	0.924497	0.572684	0.000079
N33	N	0.916999	0.253386	0.216427
N34	N	0.937521	0.225477	-0.216243
C35	C	0.967945	0.183889	0.260129
C36	C	0.963812	0.189532	0.347535
C37	C	0.908737	0.264679	0.391237
C38	C	0.857785	0.334179	0.347529
C39	C	0.861915	0.328529	0.260125
C40	C	0.890699	0.289327	0.652644
C41	C	0.886575	0.294974	0.740055
C42	C	0.992602	0.150325	0.740054
C43	C	0.996729	0.144687	0.652648
C44	C	0.945775	0.214182	0.608948
N45	N	0.904513	0.270452	0.480580
N46	N	0.949996	0.208403	0.519606
H47	H	0.524579	0.392517	0.000072
N48	N	1.024202	0.107109	0.215506
N49	N	1.075369	0.144383	0.166722
H50	H	1.115100	0.090142	0.135219
H51	H	0.329932	0.086345	0.000118
N52	N	0.830297	0.371722	0.784690
N53	N	0.758253	0.362876	0.774943
H54	H	0.718507	0.417073	0.806468
N55	N	0.174843	0.046820	0.000115
N56	N	0.133943	0.014838	-0.058416
H57	H	0.110848	-0.062602	-0.058417
H58	H	1.005296	0.132942	0.383116
H59	H	0.149145	0.441295	0.000092
N60	N	0.809866	0.399521	0.215494
N61	N	0.760694	0.466612	0.254522
H62	H	0.723929	0.516750	0.223003
H63	H	1.041576	0.083496	0.617067
N64	N	0.550274	-0.001960	0.000109
N65	N	0.477215	-0.010460	0.000113
H66	H	0.454121	-0.087901	0.000124
N67	N	0.715684	0.017292	0.000097
N68	N	0.687104	-0.078551	0.000109
H69	H	0.723041	-0.149130	0.000123
N70	N	1.044630	0.079333	0.784707
N71	N	1.017138	0.009731	0.833491
H72	H	1.053882	-0.040414	0.865028
N73	N	0.838644	0.360316	0.608026
N74	N	0.789474	0.427404	0.647059
H75	H	0.752706	0.477543	0.615545
N76	N	0.801515	0.410920	0.392170
N77	N	0.750374	0.373585	0.440953
H78	H	0.710631	0.427785	0.472480
N79	N	0.679643	0.432061	0.000047
N80	N	0.635144	0.519389	0.000046
H81	H	0.658215	0.596845	0.000036
H82	H	0.297597	0.458591	0.000071
