data_functionalizedCrystal
_audit_creation_method	'MofGen! by Chris Wilmer'
_symmetry_space_group_name_H-M	'P1'
_symmetry_Int_Tables_number	1
_symmetry_cell_setting	triclinic
loop_
_symmetry_equiv_pos_as_xyz
  x,y,z
_cell_length_a	17.699083
_cell_length_b	17.699097
_cell_length_c	16.776229
_cell_angle_alpha	89.989262
_cell_angle_beta	89.992455
_cell_angle_gamma	83.285722
loop_
_atom_site_label
_atom_site_type_symbol
_atom_site_fract_x
_atom_site_fract_y
_atom_site_fract_z
O1	O	0.095761	1.004072	-0.066356
O2	O	0.108203	0.783695	-0.066343
O3	O	-0.008207	0.900110	-0.066343
O4	O	0.212171	0.887657	-0.066356
O5	O	-0.008214	0.900094	0.066234
O6	O	0.108196	0.783680	0.066233
O7	O	0.095754	1.004057	0.066221
Zn8	Zn	0.101974	0.893866	0.087276
Zn9	Zn	0.101983	0.893886	-0.087399
O10	O	0.212164	0.887642	0.066220
C11	C	0.107752	0.755491	-0.000053
C12	C	0.106409	0.671473	-0.000048
C13	C	0.098184	0.155763	-0.072347
C14	C	0.099440	0.234707	-0.072343
C15	C	0.100065	0.274165	-0.000073
C16	C	0.099427	0.234675	0.072199
C17	C	0.098165	0.155733	0.072194
C18	C	0.104514	0.553039	0.072219
C19	C	0.105778	0.631987	0.072219
C20	C	0.105789	0.632013	-0.072318
C21	C	0.104527	0.553071	-0.072323
C22	C	0.103885	0.513589	-0.000052
C23	C	0.102521	0.427989	-0.000057
C24	C	0.101434	0.359763	-0.000067
C25	C	-0.036408	0.899656	-0.000055
C26	C	-0.120426	0.898317	-0.000054
C27	C	-0.169044	0.966650	-0.000057
C28	C	-0.247987	0.965388	-0.000064
C29	C	-0.278311	0.895792	-0.000062
C30	C	-0.229687	0.827454	-0.000062
C31	C	-0.150745	0.828717	-0.000061
C32	C	-0.548050	0.822359	-0.000068
C33	C	-0.626998	0.821101	-0.000067
C34	C	-0.645292	0.959030	-0.000071
C35	C	-0.566350	0.960293	-0.000070
C36	C	-0.517733	0.891955	-0.000074
C37	C	-0.432134	0.893325	-0.000068
C38	C	-0.363909	0.894422	-0.000063
C39	C	0.240364	0.888096	-0.000070
C40	C	0.324382	0.889435	-0.000076
C41	C	0.096205	1.032261	-0.000071
C42	C	0.097547	1.116279	-0.000081
N43	N	0.101967	0.893857	0.206488
N44	N	0.101984	0.893900	-0.206610
C45	C	0.050441	0.945422	0.248205
C46	C	0.050441	0.945426	0.331657
C47	C	0.101970	0.893869	0.373390
C48	C	0.153497	0.842299	0.331667
C49	C	0.153494	0.842292	0.248217
C50	C	0.153512	0.842327	0.668215
C51	C	0.153513	0.842339	0.751671
C52	C	0.050459	0.945460	0.751655
C53	C	0.050456	0.945453	0.668204
C54	C	0.101980	0.893881	0.626488
C55	C	0.101979	0.893876	0.536000
C56	C	0.101975	0.893877	0.463877
H57	H	0.106287	0.664111	0.131074
C58	C	0.106486	0.675447	-0.151816
H59	H	0.107319	0.728114	-0.141467
H60	H	0.150401	0.656664	-0.181512
H61	H	0.062158	0.668366	-0.181508
C62	C	-0.301467	1.040552	-0.000075
H63	H	-0.352825	1.029835	-0.000089
H64	H	-0.292300	1.069095	0.046154
H65	H	-0.292275	1.069095	-0.046316
H66	H	0.195466	0.800336	0.634256
H67	H	0.008499	0.987438	0.634227
H68	H	-0.541665	1.016965	-0.000067
C69	C	-0.135690	1.043205	-0.000056
H70	H	-0.081712	1.034173	-0.000047
H71	H	-0.152381	1.071342	-0.046289
H72	H	-0.152394	1.071326	0.046181
C73	C	-0.006225	1.002182	0.797544
H74	H	0.001148	0.994799	0.853222
H75	H	0.001933	1.052675	0.783852
H76	H	-0.056732	0.994052	0.783876
H77	H	-0.684886	1.014674	-0.000072
C78	C	-0.660353	0.744542	-0.000076
H79	H	-0.620093	0.704023	-0.000087
H80	H	-0.690774	0.741171	0.046155
H81	H	-0.690763	0.741198	-0.046315
C82	C	0.210179	0.785589	0.377572
H83	H	0.202808	0.792983	0.433247
H84	H	0.202022	0.735093	0.363915
H85	H	0.260684	0.793718	0.363881
H86	H	-0.111161	0.773073	-0.000059
C87	C	0.097469	0.112300	0.151686
H88	H	0.098030	0.147103	0.194729
H89	H	0.052858	0.087356	0.154692
H90	H	0.141101	0.075652	0.154685
C91	C	0.097502	0.112366	-0.151846
H92	H	0.098056	0.147192	-0.194884
H93	H	0.141130	0.075720	-0.154853
H94	H	0.052887	0.087424	-0.154854
C95	C	0.100144	0.278136	-0.151836
H96	H	0.099601	0.243329	-0.194878
H97	H	0.056517	0.314784	-0.154842
H98	H	0.144761	0.303079	-0.154837
H99	H	-0.508475	0.766714	-0.000071
C100	C	0.210192	0.785622	0.797580
H101	H	0.202819	0.793021	0.853255
H102	H	0.202030	0.735127	0.783926
H103	H	0.260700	0.793744	0.783892
C104	C	-0.263042	0.750900	-0.000058
H105	H	-0.317020	0.759933	-0.000050
H106	H	-0.246341	0.722773	-0.046288
H107	H	-0.246349	0.722768	0.046183
H108	H	0.195450	0.800303	0.214251
C109	C	0.103840	0.509668	-0.151818
H110	H	0.103004	0.456998	-0.141470
H111	H	0.059930	0.528464	-0.181511
H112	H	0.148173	0.516758	-0.181513
C113	C	0.103818	0.509617	0.151714
H114	H	0.104381	0.544424	0.194754
H115	H	0.059208	0.484673	0.154725
H116	H	0.147451	0.472970	0.154713
H117	H	0.008484	0.987408	0.214231
C118	C	-0.006230	1.002153	0.377543
H119	H	-0.036911	1.032865	0.340736
H120	H	-0.037708	0.974999	0.410113
H121	H	0.020972	1.033607	0.410079
H122	H	0.099931	0.266809	0.131043
