data_functionalizedCrystal
_audit_creation_method	'MofGen! by Chris Wilmer'
_symmetry_space_group_name_H-M	'P1'
_symmetry_Int_Tables_number	1
_symmetry_cell_setting	triclinic
loop_
_symmetry_equiv_pos_as_xyz
  x,y,z
_cell_length_a	29.839134
_cell_length_b	16.994747
_cell_length_c	29.839125
_cell_angle_alpha	89.991363
_cell_angle_beta	90.021980
_cell_angle_gamma	90.005924
loop_
_atom_site_label
_atom_site_type_symbol
_atom_site_fract_x
_atom_site_fract_y
_atom_site_fract_z
Zn1	Zn	0.686814	-0.314247	0.254207
Zn2	Zn	0.686786	-0.446127	0.179112
Zn3	Zn	0.611697	-0.314229	0.179077
Zn4	Zn	0.611685	-0.446101	0.254200
O5	O	0.649246	-0.380176	0.216649
O6	O	0.749678	-0.331759	0.244263
O7	O	0.676819	-0.428635	0.116240
O8	O	0.621679	-0.203850	0.189031
O9	O	0.749657	-0.428651	0.189091
O10	O	0.676867	-0.203863	0.244230
O11	O	0.621651	-0.331730	0.116214
O12	O	0.548828	-0.331704	0.189025
O13	O	0.621657	-0.428606	0.317068
O14	O	0.548819	-0.428589	0.244217
O15	O	0.676855	-0.331734	0.317074
O16	O	0.676807	-0.556505	0.189084
O17	O	0.621630	-0.556486	0.244251
C18	C	0.532523	-0.380143	0.216617
C19	C	0.482589	-0.380147	0.216613
C20	C	0.649220	-0.585116	0.216669
C21	C	0.649223	-0.674438	0.216668
Zn22	Zn	0.611710	-0.945316	0.179064
Zn23	Zn	0.686834	-0.945312	0.254188
Zn24	Zn	0.611700	-0.813493	0.254193
Zn25	Zn	0.686795	-0.813382	0.179097
O26	O	0.649260	-0.879376	0.216635
O27	O	0.621696	-1.055697	0.189014
O28	O	0.676880	-0.927870	0.317055
O29	O	0.548834	-0.831028	0.244215
O30	O	0.676890	-1.055693	0.244206
O31	O	0.548842	-0.927877	0.189019
O32	O	0.621679	-0.831024	0.317059
O33	O	0.621641	-0.703097	0.244247
O34	O	0.676822	-0.830839	0.116226
O35	O	0.676812	-0.703016	0.189075
O36	O	0.621658	-0.927770	0.116202
O37	O	0.749696	-0.927763	0.244238
O38	O	0.749667	-0.830835	0.189070
C39	C	0.172950	-0.430699	0.245353
C40	C	-0.014723	-0.430721	0.245373
O41	O	-0.038984	-0.473665	0.269789
N42	N	-0.038196	-0.380205	0.216683
C43	C	-0.014749	-0.329676	0.187988
O44	O	-0.039020	-0.286704	0.163589
C45	C	0.172924	-0.329650	0.187971
C46	C	0.196395	-0.380176	0.216659
C47	C	0.196421	-0.481219	0.274039
C48	C	0.243337	-0.481216	0.274032
C49	C	0.266781	-0.430693	0.245339
C50	C	0.243310	-0.380172	0.216652
C51	C	0.196371	-0.279118	0.159279
C52	C	0.243292	-0.279115	0.159278
C53	C	0.266762	-0.329640	0.187966
C54	C	0.313670	-0.329646	0.187952
N55	N	0.337143	-0.380162	0.216642
C56	C	0.313699	-0.430686	0.245335
C57	C	-0.113279	-0.329694	0.187999
C58	C	-0.160197	-0.329701	0.188002
C59	C	-0.160168	-0.430746	0.245388
C60	C	-0.113250	-0.430742	0.245381
C61	C	-0.089806	-0.380210	0.216688
C62	C	0.412225	-0.430676	0.245318
C63	C	0.459144	-0.430671	0.245307
C64	C	0.459111	-0.329624	0.187924
C65	C	0.412196	-0.329632	0.187933
C66	C	0.388754	-0.380160	0.216633
O67	O	0.337960	-0.286719	0.163552
O68	O	0.337979	-0.473639	0.269737
C69	C	0.126035	-0.430702	0.245360
C70	C	0.102564	-0.380182	0.216673
C71	C	0.126008	-0.329658	0.187980
C72	C	0.055646	-0.380189	0.216677
C73	C	0.032201	-0.430712	0.245371
C74	C	0.055675	-0.481228	0.274060
C75	C	0.102590	-0.481225	0.274053
C76	C	0.102535	-0.279142	0.159290
C77	C	0.055619	-0.279150	0.159299
C78	C	0.032175	-0.329673	0.187992
C79	C	0.766424	-0.380210	0.216682
C80	C	0.816358	-0.380225	0.216696
C81	C	0.649258	-0.380169	0.333827
C82	C	0.649263	-0.380166	0.383762
C83	C	0.649274	-0.174436	0.216626
C84	C	0.649288	-0.085114	0.216617
C85	C	0.649259	-0.380126	0.099927
C86	C	0.649341	-0.379907	0.049992
C87	C	0.678035	-0.329592	0.693411
C88	C	0.678057	-0.329525	0.881084
O89	O	0.702486	-0.286600	0.905354
N90	N	0.649323	-0.379955	0.904547
C91	C	0.620579	-0.430401	0.881089
O92	O	0.596136	-0.473287	0.905352
C93	C	0.620554	-0.430464	0.693417
C94	C	0.649294	-0.380037	0.669956
C95	C	0.706771	-0.279168	0.669951
C96	C	0.706767	-0.279189	0.623035
C97	C	0.678026	-0.329633	0.599580
C98	C	0.649290	-0.380057	0.623041
C99	C	0.591809	-0.480906	0.669959
C100	C	0.591804	-0.480916	0.623038
C101	C	0.620544	-0.430488	0.599578
C102	C	0.620545	-0.430521	0.552670
N103	N	0.649279	-0.380092	0.529207
C104	C	0.678020	-0.329648	0.552662
C105	C	0.620594	-0.430366	0.979620
C106	C	0.620601	-0.430351	1.026537
C107	C	0.678078	-0.329474	1.026530
C108	C	0.678074	-0.329493	0.979611
C109	C	0.649328	-0.379936	0.956157
C110	C	0.678009	-0.329695	0.454136
C111	C	0.678004	-0.329722	0.407217
C112	C	0.620525	-0.430596	0.407229
C113	C	0.620531	-0.430572	0.454144
C114	C	0.649275	-0.380115	0.477597
O115	O	0.596125	-0.473418	0.528372
O116	O	0.702452	-0.286755	0.528391
C117	C	0.678039	-0.329572	0.740327
C118	C	0.649302	-0.379996	0.763787
C119	C	0.620561	-0.430440	0.740332
C120	C	0.649309	-0.379981	0.810705
C121	C	0.678049	-0.329537	0.834160
C122	C	0.706784	-0.279107	0.810697
C123	C	0.706779	-0.279128	0.763782
C124	C	0.591827	-0.480870	0.763795
C125	C	0.591834	-0.480846	0.810711
C126	C	0.620575	-0.430402	0.834166
C127	C	0.765982	-0.879289	0.216658
C128	C	0.815917	-0.879274	0.216681
C129	C	0.649237	-0.879293	0.099457
C130	C	0.649227	-0.879257	0.049523
C131	C	0.532081	-0.879465	0.216614
C132	C	0.482147	-0.879504	0.216605
C133	C	0.649251	-0.879503	0.333358
C134	C	0.649135	-0.879690	0.383292
C135	C	0.839369	-0.929780	0.245392
C136	C	0.886287	-0.929782	0.245413
C137	C	0.909753	-0.879274	0.216726
C138	C	0.886298	-0.828766	0.188012
C139	C	0.839380	-0.828769	0.187989
C140	C	0.620497	-0.929708	0.026058
C141	C	0.620479	-0.929675	-0.020861
C142	C	0.649193	-0.879194	-0.044314
C143	C	0.677923	-0.828738	-0.020846
C144	C	0.677939	-0.828768	0.026072
C145	C	0.458691	-0.829091	0.245338
C146	C	0.411772	-0.829111	0.245330
C147	C	0.388311	-0.879549	0.216589
C148	C	0.411770	-0.929964	0.187852
C149	C	0.458688	-0.929939	0.187859
C150	C	0.620547	-0.828988	0.406724
C151	C	0.620430	-0.829163	0.453643
C152	C	0.648904	-0.880035	0.477128
C153	C	0.677494	-0.930741	0.453693
C154	C	0.677608	-0.930570	0.406775
H155	H	0.478252	-0.471817	0.268669
H156	H	0.597126	-0.471669	0.388123
C157	C	0.560146	-0.441338	0.926851
C158	C	0.588997	-0.485821	0.953841
H159	H	0.540639	-0.475577	0.910940
H160	H	0.577256	-0.411317	0.906162
H161	H	0.542972	-0.406961	0.945148
H162	H	0.606173	-0.520194	0.935544
H163	H	0.571885	-0.515856	0.974533
C164	C	0.060315	-0.179259	0.102580
C165	C	0.029823	-0.223605	0.127762
H166	H	0.044390	-0.144963	0.083116
H167	H	0.078601	-0.213580	0.085365
H168	H	0.078629	-0.149149	0.122182
H169	H	0.011511	-0.253720	0.108160
H170	H	0.011530	-0.189280	0.144978
H171	H	0.648807	-0.880165	0.515331
H172	H	0.350107	-0.879558	0.216587
C173	C	0.585573	-0.586946	0.863487
C174	C	0.560243	-0.536289	0.836493
H175	H	0.566068	-0.621174	0.879399
H176	H	0.602682	-0.556905	0.884174
H177	H	0.605141	-0.617125	0.845191
H178	H	0.540677	-0.506106	0.854788
H179	H	0.543126	-0.566334	0.815803
H180	H	0.947957	-0.879279	0.216750
C181	C	0.614244	-1.035754	-0.073635
C182	C	0.588901	-0.985145	-0.046652
H183	H	0.594749	-1.069995	-0.089559
H184	H	0.633829	-1.065914	-0.055335
H185	H	0.631336	-1.005673	-0.094317
H186	H	0.571812	-1.015226	-0.025968
H187	H	0.569308	-0.954983	-0.064954
H188	H	0.730182	-0.238064	0.744684
C189	C	-0.117945	-0.530616	0.302105
C190	C	-0.087453	-0.486272	0.276921
H191	H	-0.102019	-0.564894	0.321579
H192	H	-0.136250	-0.560737	0.282507
H193	H	-0.136238	-0.496286	0.319313
H194	H	-0.069161	-0.520602	0.259710
H195	H	-0.069139	-0.456148	0.296521
H196	H	0.649176	-0.879179	-0.082517
H197	H	0.701301	-0.787639	-0.039948
H198	H	0.905378	-0.970911	0.268798
H199	H	0.700675	-0.972161	0.472822
C200	C	0.534985	-0.580596	0.665234
C201	C	0.560213	-0.536331	0.695739
H202	H	0.515475	-0.614810	0.681150
H203	H	0.554552	-0.610783	0.646950
H204	H	0.517812	-0.546213	0.646920
H205	H	0.577388	-0.570714	0.714050
H206	H	0.540643	-0.506142	0.714031
C207	C	0.560083	-0.940743	0.078812
C208	C	0.588931	-0.985197	0.051832
H209	H	0.540595	-0.975002	0.094723
H210	H	0.542892	-0.906379	0.060511
H211	H	0.577200	-0.910711	0.099505
H212	H	0.571814	-1.015225	0.031137
H213	H	0.606123	-1.019575	0.070134
H214	H	-0.179303	-0.288567	0.164637
C215	C	0.296121	-0.492325	0.334455
C216	C	0.269132	-0.536745	0.305574
H217	H	0.312045	-0.526608	0.353928
H218	H	0.277825	-0.458007	0.351661
H219	H	0.316803	-0.462246	0.317362
H220	H	0.248448	-0.566820	0.322667
H221	H	0.287429	-0.571078	0.288367
H222	H	0.393085	-0.288492	0.164571
C223	C	0.734008	-1.030975	0.411548
C224	C	0.709041	-0.986297	0.381021
H225	H	0.753416	-1.065376	0.395649
H226	H	0.714271	-1.060980	0.429755
H227	H	0.751277	-0.996867	0.429936
H228	H	0.691770	-1.020405	0.362635
H229	H	0.728781	-0.956290	0.362806
H230	H	0.392660	-0.971027	0.164452
H231	H	0.477788	-0.788016	0.268743
C232	C	0.416979	-0.530556	0.302039
C233	C	0.386462	-0.486218	0.276865
H234	H	0.401073	-0.564850	0.321512
H235	H	0.435287	-0.496230	0.319245
H236	H	0.435268	-0.560669	0.282432
H237	H	0.368175	-0.456101	0.296472
H238	H	0.368145	-0.520549	0.259658
H239	H	0.701336	-0.787687	0.045173
C240	C	0.767445	-0.974653	0.270850
C241	C	0.813581	-0.985306	0.276927
H242	H	0.751528	-1.008934	0.290320
H243	H	0.759760	-0.986130	0.240658
H244	H	0.759759	-0.921670	0.277459
H245	H	0.821268	-1.038288	0.270315
H246	H	0.821269	-0.973835	0.307126
H247	H	0.905411	-0.787644	0.164656
C248	C	0.844115	-0.728906	0.131263
C249	C	0.813605	-0.773238	0.156432
H250	H	0.828203	-0.694619	0.111783
H251	H	0.862411	-0.763236	0.114066
H252	H	0.862416	-0.698787	0.150873
H253	H	0.795306	-0.803362	0.136823
H254	H	0.795301	-0.738903	0.173631
C255	C	0.397347	-0.790770	0.321411
C256	C	0.385992	-0.773701	0.276924
H257	H	0.381429	-0.756565	0.340916
H258	H	0.428644	-0.783540	0.325523
H259	H	0.389660	-0.843779	0.327967
H260	H	0.393681	-0.720692	0.270367
H261	H	0.354688	-0.780924	0.272810
C262	C	0.201175	-0.581102	0.330754
C263	C	0.170656	-0.536766	0.305580
H264	H	0.185270	-0.615403	0.350223
H265	H	0.219479	-0.546775	0.347963
H266	H	0.219467	-0.611206	0.311146
H267	H	0.152366	-0.506657	0.325188
H268	H	0.152344	-0.571097	0.288370
H269	H	0.701414	-0.288605	0.473226
H270	H	-0.179265	-0.471884	0.268751
H271	H	-0.094196	-0.288545	0.164631
C272	C	0.453962	-1.029642	0.131055
C273	C	0.484468	-0.985367	0.156278
H274	H	0.469876	-1.063866	0.111560
H275	H	0.435658	-0.995271	0.113872
H276	H	0.435668	-1.059826	0.150631
H277	H	0.502760	-0.955179	0.136702
H278	H	0.502779	-1.019742	0.173462
H279	H	0.597149	-0.787868	0.472717
C280	C	0.201075	-0.179224	0.102569
C281	C	0.170580	-0.223571	0.127747
H282	H	0.185152	-0.144926	0.083104
H283	H	0.219362	-0.213544	0.085355
H284	H	0.219387	-0.149117	0.122174
H285	H	0.152269	-0.253683	0.108141
H286	H	0.152285	-0.189247	0.144962
C287	C	0.296023	-0.267982	0.098848
C288	C	0.269063	-0.223572	0.127736
H289	H	0.311935	-0.233692	0.079378
H290	H	0.277709	-0.302296	0.081641
H291	H	0.316716	-0.298066	0.115937
H292	H	0.248368	-0.193492	0.110647
H293	H	0.287378	-0.189244	0.144945
H294	H	0.597361	-0.787558	0.387609
H295	H	0.121696	-0.522368	0.297415
C296	C	0.511854	-0.318503	0.127503
C297	C	0.484891	-0.274091	0.156387
H298	H	0.527772	-0.284215	0.108038
H299	H	0.493542	-0.352810	0.110290
H300	H	0.532541	-0.348594	0.144595
H301	H	0.464202	-0.244004	0.139295
H302	H	0.503205	-0.239769	0.173601
C303	C	-0.016238	-0.526085	0.299547
C304	C	0.029898	-0.536762	0.305603
H305	H	-0.032152	-0.560362	0.319022
H306	H	-0.023939	-0.537554	0.269357
H307	H	-0.023914	-0.473100	0.306161
H308	H	0.037574	-0.589746	0.298985
H309	H	0.037602	-0.525298	0.335799
H310	H	0.701409	-0.288657	0.388117
C311	C	0.763575	-0.179469	0.627755
C312	C	0.738353	-0.223747	0.597251
H313	H	0.783073	-0.145235	0.611838
H314	H	0.780756	-0.213836	0.646063
H315	H	0.744000	-0.149295	0.646045
H316	H	0.757928	-0.253925	0.578963
H317	H	0.721171	-0.189375	0.578936
C318	C	0.585540	-0.587036	0.570295
C319	C	0.560210	-0.536367	0.597254
H320	H	0.566036	-0.621265	0.554375
H321	H	0.605105	-0.617204	0.588612
H322	H	0.602653	-0.556997	0.549611
H323	H	0.543100	-0.566406	0.617941
H324	H	0.540637	-0.506196	0.578936
H325	H	0.597203	-0.471423	1.045635
C326	C	0.713045	-0.173030	0.722684
C327	C	0.738367	-0.223710	0.695725
H328	H	0.732555	-0.138789	0.738591
H329	H	0.695941	-0.203054	0.743377
H330	H	0.693472	-0.142866	0.704366
H331	H	0.757938	-0.253878	0.714043
H332	H	0.755478	-0.193683	0.675030
H333	H	0.730187	-0.238036	0.829802
H334	H	0.121619	-0.237999	0.135924
H335	H	0.701480	-0.288401	1.045634
C336	C	0.734887	-0.229780	0.984327
C337	C	0.709661	-0.274055	0.953825
H338	H	0.754385	-0.195550	0.968408
H339	H	0.752067	-0.264149	1.002634
H340	H	0.715314	-0.199603	1.002618
H341	H	0.729233	-0.304237	0.935536
H342	H	0.692479	-0.239681	0.935510
H343	H	0.597134	-0.471641	0.473247
H344	H	0.568423	-0.521949	0.744703
