data_functionalizedCrystal
_audit_creation_method	'MofGen! by Chris Wilmer'
_symmetry_space_group_name_H-M	'P1'
_symmetry_Int_Tables_number	1
_symmetry_cell_setting	triclinic
loop_
_symmetry_equiv_pos_as_xyz
  x,y,z
_cell_length_a	8.559649
_cell_length_b	8.597340
_cell_length_c	7.088929
_cell_angle_alpha	103.954719
_cell_angle_beta	84.655815
_cell_angle_gamma	77.625043
loop_
_atom_site_label
_atom_site_type_symbol
_atom_site_fract_x
_atom_site_fract_y
_atom_site_fract_z
O1	O	0.219480	2.074465	0.182749
O2	O	0.719480	2.574465	0.682749
O3	O	0.245569	1.606585	0.105672
O4	O	0.745569	2.106585	0.605672
O5	O	-0.000135	1.881746	0.151003
O6	O	0.499865	2.381746	0.651003
O7	O	0.465184	1.799304	0.137418
O8	O	0.965184	2.299304	0.637418
O9	O	-0.033046	1.918527	0.475038
O10	O	0.466954	2.418527	0.975038
O11	O	0.212659	1.643366	0.429707
O12	O	0.712659	2.143366	0.929707
O13	O	0.186570	2.111247	0.506784
O14	O	0.686570	2.611247	1.006784
Cu15	Cu	0.196609	1.880665	0.497833
Cu16	Cu	0.696609	2.380665	0.997833
Cu17	Cu	0.235529	1.837167	0.114624
Cu18	Cu	0.735529	2.337167	0.614624
O19	O	0.432274	1.836086	0.461453
O20	O	0.932274	2.336086	0.961453
C21	C	0.228145	1.565631	0.257914
C22	C	0.728145	2.065631	0.757914
C23	C	0.225241	1.388806	0.228784
C24	C	0.725241	1.888806	0.728784
C25	C	-0.076129	1.906384	0.314046
C26	C	0.423871	2.406384	0.814046
C27	C	-0.253534	1.924980	0.317099
C28	C	0.246466	2.424980	0.817099
C29	C	0.508268	1.811447	0.298406
C30	C	1.008268	2.311447	0.798406
C31	C	0.685674	1.792850	0.295340
C32	C	1.185674	2.292850	0.795340
C33	C	0.203994	2.152200	0.354539
C34	C	0.703994	2.652200	0.854539
C35	C	0.206900	2.329024	0.383656
C36	C	0.706900	2.829024	0.883656
N37	N	0.169234	1.911271	0.767363
N38	N	0.669234	2.411271	1.267363
N39	N	0.262892	1.806574	-0.154904
N40	N	0.762892	2.306574	0.345096
H41	H	0.238722	1.304701	0.073888
H42	H	0.738722	1.804701	0.573888
O43	O	-0.203504	1.624148	0.267540
O44	O	0.296496	2.124148	0.767540
H45	H	-0.076877	1.635519	0.269388
H46	H	0.423123	2.135519	0.769388
O47	O	-0.364363	2.093691	0.344905
O48	O	0.135637	2.593691	0.844905
H49	H	-0.490990	2.082322	0.343034
H50	H	0.009010	2.582322	0.843034
H51	H	0.359948	1.698069	0.745574
H52	H	0.859948	2.198069	1.245574
H53	H	0.072183	2.019794	0.866897
H54	H	0.572183	2.519794	1.366897
H55	H	0.193407	1.413123	0.538542
H56	H	0.693407	1.913123	1.038542
