data_functionalizedCrystal
_audit_creation_method	'MofGen! by Chris Wilmer'
_symmetry_space_group_name_H-M	'P1'
_symmetry_Int_Tables_number	1
_symmetry_cell_setting	triclinic
loop_
_symmetry_equiv_pos_as_xyz
  x,y,z
_cell_length_a	12.837943
_cell_length_b	12.837942
_cell_length_c	11.295483
_cell_angle_alpha	94.531847
_cell_angle_beta	94.544699
_cell_angle_gamma	85.171060
loop_
_atom_site_label
_atom_site_type_symbol
_atom_site_fract_x
_atom_site_fract_y
_atom_site_fract_z
O1	O	1.395962	-0.278480	-0.099003
O2	O	1.092828	-0.265037	-0.099011
O3	O	1.237674	-0.120192	-0.099000
O4	O	1.251116	-0.423326	-0.099014
O5	O	1.250410	-0.107503	0.099052
O6	O	1.105564	-0.252348	0.099041
O7	O	1.408698	-0.265791	0.099048
Cu8	Cu	1.258294	-0.257911	0.117128
Cu9	Cu	1.243232	-0.272918	-0.117091
O10	O	1.263852	-0.410637	0.099038
C11	C	1.060127	-0.254152	0.000014
C12	C	0.943712	-0.240607	0.000012
N13	N	1.232639	-0.283465	-0.281828
C14	C	1.239500	-0.074778	0.000025
C15	C	1.225956	0.041637	0.000023
C16	C	0.718838	-0.403436	0.000021
C17	C	0.609456	-0.390715	0.000020
C18	C	0.615563	-0.202444	0.000016
C19	C	0.724945	-0.215165	0.000017
C20	C	0.776579	-0.315665	0.000018
C21	C	0.885963	-0.328385	0.000011
C22	C	0.892068	-0.140115	0.000016
C23	C	0.782686	-0.127394	0.000015
C24	C	1.441399	-0.276677	0.000021
C25	C	1.557814	-0.290222	0.000015
C26	C	1.262025	-0.456051	0.000010
C27	C	1.275570	-0.572466	0.000004
C28	C	1.388784	0.266510	0.000002
C29	C	1.376062	0.375892	-0.000000
C30	C	1.187792	0.369785	0.000008
C31	C	1.200513	0.260403	0.000010
C32	C	1.301013	0.208769	0.000009
C33	C	1.313734	0.099385	0.000020
C34	C	1.125463	0.093280	0.000019
C35	C	1.112742	0.202662	0.000017
C36	C	1.345208	-0.171437	-0.531109
C37	C	1.337195	-0.179400	-0.655773
C38	C	1.208605	-0.307358	-0.655823
C39	C	1.216619	-0.299395	-0.531159
C40	C	1.284921	-0.231431	-0.468806
C41	C	1.292928	-0.223464	-0.344139
C42	C	1.164345	-0.351427	-0.344191
C43	C	1.156332	-0.359389	-0.468856
N44	N	1.268894	-0.247357	0.281865
H45	H	0.928001	-0.410217	0.000014
H46	H	1.053994	0.046257	0.000034
C47	C	1.012066	-0.051725	-0.101803
C48	C	0.955539	-0.043627	0.000011
H49	H	1.051253	0.007838	-0.101804
H50	H	0.964822	-0.055102	-0.170851
H51	H	1.058473	-0.113398	-0.101788
H52	H	0.909127	0.018042	-0.000008
H53	H	1.002788	-0.040239	0.069077
H54	H	0.760879	-0.485267	0.000020
H55	H	1.400815	-0.116091	-0.480341
C56	C	1.477526	0.508976	0.101800
C57	C	1.472540	0.439365	-0.000006
H58	H	1.537087	0.548165	0.101788
H59	H	1.483026	0.470605	0.170853
H60	H	1.415849	0.555378	0.101790
H61	H	1.534214	0.392957	0.000009
H62	H	1.467049	0.477739	-0.069077
H63	H	0.573510	-0.120615	0.000114
H64	H	1.348540	-0.168121	-0.293373
C65	C	1.162218	-0.484821	-0.694285
C66	C	1.133542	-0.382064	-0.724382
H67	H	1.115880	-0.530941	-0.736620
H68	H	1.158344	-0.488663	-0.611135
H69	H	1.231875	-0.504554	-0.714708
H70	H	1.063887	-0.362328	-0.703951
H71	H	1.137405	-0.378218	-0.807550
H72	H	0.562447	-0.462188	0.000025
C73	C	1.465096	-0.052113	-0.643197
C74	C	1.403458	-0.113447	-0.724258
H75	H	1.506001	-0.011392	-0.685479
H76	H	1.510092	-0.096400	-0.594590
H77	H	1.420992	-0.006940	-0.594560
H78	H	1.447563	-0.158626	-0.772889
H79	H	1.358457	-0.069156	-0.772886
C80	C	0.617720	-0.024296	0.000006
C81	C	0.725923	-0.016929	0.000007
H82	H	0.582681	0.043902	-0.000009
H83	H	0.602989	-0.056449	0.069071
H84	H	0.594108	-0.065324	-0.069060
H85	H	0.749537	0.024093	0.069078
H86	H	0.740662	0.015239	-0.069065
H87	H	1.100724	-0.414727	-0.519637
C88	C	0.991538	-0.392096	-0.305843
C89	C	1.098070	-0.417379	-0.275706
H90	H	0.950624	-0.432805	-0.263557
H91	H	0.977003	-0.406569	-0.389003
H92	H	0.974736	-0.319767	-0.285388
H93	H	1.114875	-0.489706	-0.296170
H94	H	1.112611	-0.402913	-0.192528
C95	C	1.471559	0.064379	-0.101813
C96	C	1.424198	0.042622	0.000008
H97	H	1.539753	0.029330	-0.101825
H98	H	1.476544	0.137778	-0.101806
H99	H	1.430505	0.040765	-0.170864
H100	H	1.465247	0.066242	0.069059
H101	H	1.419218	-0.030793	0.000012
H102	H	1.470615	0.224469	0.000013
H103	H	1.105969	0.411844	-0.000004
C104	C	1.009644	0.367628	0.000025
C105	C	1.002278	0.259425	0.000026
H106	H	0.941446	0.402667	0.000041
H107	H	1.041780	0.382373	-0.069043
H108	H	1.050689	0.391227	0.069088
H109	H	0.961239	0.235825	-0.069042
H110	H	0.970126	0.244673	0.069100
