data_functionalizedCrystal
_audit_creation_method	'MofGen! by Chris Wilmer'
_symmetry_space_group_name_H-M	'P1'
_symmetry_Int_Tables_number	1
_symmetry_cell_setting	triclinic
loop_
_symmetry_equiv_pos_as_xyz
  x,y,z
_cell_length_a	18.101398
_cell_length_b	16.625546
_cell_length_c	16.625539
_cell_angle_alpha	90.028532
_cell_angle_beta	89.977600
_cell_angle_gamma	89.982266
loop_
_atom_site_label
_atom_site_type_symbol
_atom_site_fract_x
_atom_site_fract_y
_atom_site_fract_z
Zn1	Zn	1.132151	0.321117	-0.456013
Zn2	Zn	1.132070	0.455956	-0.321175
Zn3	Zn	1.008314	0.321129	-0.321180
Zn4	Zn	1.008280	0.455900	-0.455952
O5	O	1.070204	0.388525	-0.388580
O6	O	1.235773	0.339021	-0.438149
O7	O	1.115634	0.438099	-0.208343
O8	O	1.024790	0.208295	-0.339094
O9	O	1.235714	0.438087	-0.339084
O10	O	1.115773	0.208286	-0.438154
O11	O	1.024711	0.339043	-0.208347
O12	O	0.904677	0.338989	-0.339035
O13	O	1.024731	0.437992	-0.568793
O14	O	0.904651	0.438004	-0.438051
O15	O	1.115739	0.338968	-0.568837
O16	O	1.115600	0.568781	-0.339026
O17	O	1.024652	0.568740	-0.438046
C18	C	1.070134	0.598016	-0.388546
C19	C	1.070172	0.687637	-0.388559
C20	C	0.877793	0.388493	-0.388538
C21	C	0.795479	0.388498	-0.388539
C22	C	1.070240	0.388472	-0.598889
C23	C	1.070256	0.388450	-0.688510
C24	C	0.496388	0.388548	-0.388607
C25	C	0.527705	0.325939	-0.326612
C26	C	0.613323	0.326107	-0.326348
C27	C	0.644771	0.388523	-0.388573
C28	C	0.613665	0.473459	-0.365354
C29	C	0.528020	0.473111	-0.364923
C30	C	0.527997	0.366960	-0.473966
C31	C	0.613648	0.365068	-0.473500
C32	C	0.728630	0.388514	-0.388556
C33	C	0.412529	0.388563	-0.388622
C34	C	1.263366	0.388559	-0.388623
C35	C	1.345680	0.388573	-0.388641
C36	C	1.070294	0.178217	-0.388632
C37	C	1.070333	0.088595	-0.388654
C38	C	1.070301	1.015813	-0.388643
C39	C	1.070262	0.924505	-0.388622
C40	C	1.070236	0.851728	-0.388600
C41	C	1.070198	0.760414	-0.388580
C42	C	1.070268	0.388432	-0.761293
C43	C	1.070285	0.388402	-0.852601
C44	C	1.070302	0.388373	-0.925378
C45	C	1.070321	0.388344	-1.016692
C46	C	1.070210	0.388520	-0.179089
C47	C	1.070338	0.388316	-0.089469
H48	H	0.507125	0.262763	-0.341007
N49	N	0.502578	0.424158	-0.531914
N50	N	0.464984	0.401317	-0.590688
H51	H	0.447027	0.441717	-0.631606
N52	N	0.639005	0.344007	-0.247006
N53	N	0.678572	0.294526	-0.210308
H54	H	0.696710	0.307169	-0.154270
N55	N	0.640538	0.496820	-0.287917
N56	N	0.682589	0.451061	-0.249696
H57	H	0.701568	0.467555	-0.195003
H58	H	0.506159	0.340050	-0.263730
H59	H	0.508013	0.491420	-0.302521
N60	N	0.639700	0.247087	-0.344582
N61	N	0.594856	0.191426	-0.357592
H62	H	0.613481	0.135612	-0.370459
H63	H	0.506416	0.306102	-0.495077
N64	N	0.640498	0.418121	-0.534542
N65	N	0.677414	0.390878	-0.591979
H66	H	0.696377	0.428363	-0.635081
N67	N	0.502037	0.533618	-0.419093
N68	N	0.547159	0.575971	-0.457093
H69	H	0.528812	0.618708	-0.495346
N70	N	0.639219	0.533542	-0.420231
N71	N	0.680742	0.514387	-0.477200
H72	H	0.698791	0.556819	-0.515959
N73	N	0.639156	0.286655	-0.495455
N74	N	0.680107	0.248144	-0.448773
H75	H	0.698127	0.192764	-0.464276
