data_functionalizedCrystal
_audit_creation_method	'MofGen! by Chris Wilmer'
_symmetry_space_group_name_H-M	'P1'
_symmetry_Int_Tables_number	1
_symmetry_cell_setting	triclinic
loop_
_symmetry_equiv_pos_as_xyz
  x,y,z
_cell_length_a	12.594517
_cell_length_b	12.594516
_cell_length_c	12.594509
_cell_angle_alpha	89.973801
_cell_angle_beta	90.022214
_cell_angle_gamma	89.984515
loop_
_atom_site_label
_atom_site_type_symbol
_atom_site_fract_x
_atom_site_fract_y
_atom_site_fract_z
Zn1	Zn	1.627267	0.423726	0.601900
Zn2	Zn	1.627158	0.601736	0.423928
Zn3	Zn	1.449271	0.423771	0.423926
Zn4	Zn	1.449253	0.601661	0.601855
O5	O	1.538237	0.512724	0.512902
O6	O	1.776198	0.447352	0.578311
O7	O	1.603523	0.578179	0.274982
O8	O	1.472936	0.274819	0.447553
O9	O	1.776118	0.578136	0.447556
O10	O	1.603709	0.274786	0.578310
O11	O	1.472830	0.447428	0.274981
O12	O	1.300323	0.447355	0.447509
O13	O	1.472905	0.578008	0.750807
O14	O	1.300310	0.578051	0.578233
O15	O	1.603691	0.447280	0.750840
O16	O	1.603505	0.750672	0.447512
O17	O	1.472799	0.750617	0.578235
C18	C	1.538167	0.789265	0.512892
C19	C	1.538235	0.907570	0.512923
C20	C	1.261696	0.512700	0.512867
C21	C	1.143391	0.512716	0.512877
C22	C	1.538308	0.512630	0.790524
C23	C	1.538339	0.512591	0.908829
C24	C	1.003350	0.441553	0.441939
C25	C	1.074209	0.415620	0.539064
C26	C	1.074104	0.538602	0.415762
C27	C	1.003464	0.486775	0.610131
C28	C	1.003352	0.609802	0.486764
C29	C	1.074179	0.583905	0.583956
C30	C	1.815858	0.512748	0.512939
C31	C	1.934163	0.512758	0.512954
C32	C	1.538336	0.235103	0.512936
C33	C	1.538378	0.116797	0.512951
C34	C	1.467137	0.976832	0.583973
C35	C	1.441204	1.047697	0.486850
C36	C	1.564265	1.047504	0.610063
C37	C	1.512250	0.976877	0.415748
C38	C	1.635357	0.976678	0.539027
C39	C	1.609460	1.047511	0.441837
C40	C	1.538227	0.512740	0.236361
C41	C	1.538403	0.512479	0.118057
C42	C	1.467227	0.583653	0.978064
C43	C	1.564347	0.609660	1.048857
C44	C	1.441294	0.486519	1.048835
C45	C	1.635510	0.538649	0.978064
C46	C	1.512391	0.415463	0.978036
C47	C	1.609579	0.441433	1.048797
H48	H	0.972254	0.381309	0.381990
Br49	Br	1.772113	0.924646	0.575866
H50	H	1.359136	1.078915	0.464793
H51	H	1.359198	0.464514	1.079923
Br52	Br	1.709967	0.341189	1.100242
H53	H	1.490382	0.333394	0.946904
Br54	Br	1.126071	0.278804	0.575955
Br55	Br	1.600862	1.099221	0.746964
H56	H	0.972563	0.464802	0.692317
H57	H	1.407136	0.643842	0.947008
Br58	Br	1.709781	1.098911	0.341603
H59	H	1.105137	0.560477	0.333600
H60	H	1.717631	0.560747	0.947107
Br61	Br	1.125686	0.684245	0.684106
Br62	Br	0.951432	0.746579	0.449838
H63	H	1.586329	0.691752	1.079965
Br64	Br	1.475498	0.925391	0.278803
Br65	Br	1.366753	0.925102	0.683976
