data_functionalizedCrystal
_audit_creation_method	'MofGen! by Chris Wilmer'
_symmetry_space_group_name_H-M	'P1'
_symmetry_Int_Tables_number	1
_symmetry_cell_setting	triclinic
loop_
_symmetry_equiv_pos_as_xyz
  x,y,z
_cell_length_a	23.532407
_cell_length_b	16.992695
_cell_length_c	16.053802
_cell_angle_alpha	87.258926
_cell_angle_beta	87.425821
_cell_angle_gamma	93.241516
loop_
_atom_site_label
_atom_site_type_symbol
_atom_site_fract_x
_atom_site_fract_y
_atom_site_fract_z
O1	O	0.762238	-0.091822	-0.069609
O2	O	1.095572	0.241511	0.263725
O3	O	1.428905	0.574844	0.597058
O4	O	0.597057	-0.105591	-0.069572
O5	O	0.930390	0.227742	0.263762
O6	O	1.263724	0.561075	0.597095
O7	O	0.678985	0.015430	-0.069583
O8	O	1.012319	0.348764	0.263750
O9	O	1.345652	0.682097	0.597083
O10	O	0.680310	-0.212844	-0.069597
O11	O	1.013643	0.120489	0.263736
O12	O	1.346977	0.453823	0.597070
O13	O	0.674474	0.008796	0.069276
O14	O	1.007808	0.342130	0.402610
O15	O	1.341141	0.675463	0.735943
O16	O	0.592546	-0.112225	0.069288
O17	O	0.925880	0.221108	0.402621
O18	O	1.259213	0.554441	0.735955
O19	O	0.757728	-0.098456	0.069251
O20	O	1.091061	0.234877	0.402584
O21	O	1.424394	0.568210	0.735918
Zn22	Zn	0.674421	-0.106394	0.091316
Zn23	Zn	1.007754	0.226939	0.424650
Zn24	Zn	1.341087	0.560273	0.757983
Zn25	Zn	0.680364	-0.097653	-0.091637
Zn26	Zn	1.013697	0.235680	0.241696
Zn27	Zn	1.347031	0.569013	0.575030
O28	O	0.675799	-0.219478	0.069263
O29	O	1.009133	0.113855	0.402596
O30	O	1.342466	0.447189	0.735929
C31	C	0.573568	-0.108558	-0.000137
C32	C	0.906901	0.224775	0.333196
C33	C	1.240235	0.558109	0.666530
C34	C	0.510298	-0.107504	-0.000123
C35	C	0.843632	0.225829	0.333211
C36	C	1.176965	0.559162	0.666544
C37	C	0.675026	0.041313	-0.000153
C38	C	1.008360	0.374646	0.333180
C39	C	1.341693	0.707979	0.666513
C40	C	0.669943	0.128317	-0.000152
C41	C	1.003276	0.461651	0.333181
C42	C	1.336610	0.794984	0.666514
C43	C	0.781217	-0.095490	-0.000185
C44	C	1.114550	0.237844	0.333148
C45	C	1.447883	0.571177	0.666481
C46	C	0.844487	-0.096543	-0.000205
C47	C	1.177820	0.236791	0.333128
C48	C	1.511153	0.570124	0.666461
C49	C	1.114422	-0.172509	-0.000160
C50	C	1.447755	0.160824	0.333173
C51	C	1.781089	0.494157	0.666507
C52	C	1.054973	-0.171530	-0.000166
C53	C	1.388307	0.161803	0.333168
C54	C	1.721640	0.495137	0.666501
O55	O	1.021219	-0.231793	-0.000143
O56	O	1.354552	0.101540	0.333190
O57	O	1.687885	0.434874	0.666524
N58	N	1.028777	-0.099583	-0.000171
N59	N	1.362111	0.233751	0.333163
N60	N	1.695444	0.567084	0.666496
C61	C	1.062033	-0.028611	-0.000161
C62	C	1.395366	0.304723	0.333172
C63	C	1.728699	0.638056	0.666506
O64	O	1.034292	0.032676	-0.000165
O65	O	1.367625	0.366009	0.333168
O66	O	1.700959	0.699343	0.666502
C67	C	1.121480	-0.029591	-0.000149
C68	C	1.454813	0.303742	0.333184
C69	C	1.788147	0.637075	0.666517
C70	C	1.147673	-0.101543	-0.000153
C71	C	1.481007	0.231791	0.333181
C72	C	1.814340	0.565124	0.666514
C73	C	1.140616	-0.244455	-0.000162
C74	C	1.473949	0.088878	0.333171
C75	C	1.807282	0.422212	0.666504
C76	C	1.200060	-0.245434	-0.000158
C77	C	1.533394	0.087899	0.333175
C78	C	1.866727	0.421233	0.666509
C79	C	1.233311	-0.174467	-0.000151
C80	C	1.566645	0.158866	0.333182
C81	C	1.899978	0.492199	0.666516
C82	C	1.207118	-0.102522	-0.000148
C83	C	1.540451	0.230812	0.333185
C84	C	1.873784	0.564145	0.666518
C85	C	1.154734	0.041380	-0.000134
C86	C	1.488067	0.374713	0.333200
C87	C	1.821401	0.708046	0.666533
C88	C	1.214185	0.040393	-0.000121
C89	C	1.547518	0.373726	0.333212
C90	C	1.880852	0.707060	0.666545
C91	C	1.240378	-0.031559	-0.000125
C92	C	1.573712	0.301775	0.333209
C93	C	1.907045	0.635108	0.666542
C94	C	1.299813	-0.032534	-0.000137
C95	C	1.633147	0.300799	0.333196
C96	C	1.966480	0.634133	0.666530
N97	N	1.326010	-0.104481	-0.000132
N98	N	1.659343	0.228852	0.333201
N99	N	1.992676	0.562185	0.666535
C100	C	1.292759	-0.175448	-0.000139
C101	C	1.626092	0.157885	0.333194
C102	C	1.959425	0.491219	0.666527
C103	C	0.937189	-0.026557	-0.000185
C104	C	1.270522	0.306776	0.333149
C105	C	1.603856	0.640110	0.666482
C106	C	0.877743	-0.025575	-0.000203
C107	C	1.211076	0.307758	0.333131
C108	C	1.544410	0.641091	0.666464
C109	C	0.870688	-0.168495	-0.000206
C110	C	1.204021	0.164838	0.333128
C111	C	1.537355	0.498172	0.666461
C112	C	0.930135	-0.169476	-0.000194
C113	C	1.263469	0.163858	0.333140
C114	C	1.596802	0.497191	0.666473
C115	C	0.963385	-0.098504	-0.000180
C116	C	1.296719	0.234829	0.333154
C117	C	1.630052	0.568162	0.666487
C118	C	1.417597	-0.177499	-0.000131
C119	C	1.750930	0.155835	0.333203
C120	C	2.084264	0.489168	0.666536
C121	C	1.477047	-0.178471	-0.000130
C122	C	1.810380	0.154862	0.333204
C123	C	2.143714	0.488196	0.666537
C124	C	1.484097	-0.035552	-0.000122
C125	C	1.817430	0.297781	0.333211
C126	C	2.150764	0.631115	0.666544
C127	C	1.424652	-0.034579	-0.000128
C128	C	1.757985	0.298754	0.333206
C129	C	2.091319	0.632088	0.666539
C130	C	1.391403	-0.105559	-0.000129
C131	C	1.724736	0.227775	0.333204
C132	C	2.058070	0.561108	0.666538
O133	O	1.333604	0.027697	-0.000157
O134	O	1.666938	0.361030	0.333177
O135	O	2.000271	0.694364	0.666510
O136	O	1.320507	-0.236725	-0.000124
O137	O	1.653840	0.096608	0.333209
O138	O	1.987173	0.429942	0.666542
C139	C	0.679758	-0.245360	-0.000169
C140	C	1.013092	0.087973	0.333164
C141	C	1.346425	0.421307	0.666497
C142	C	0.684842	-0.332364	-0.000176
C143	C	1.018175	0.000969	0.333158
C144	C	1.351509	0.334302	0.666491
N145	N	0.670369	-0.112359	0.216177
N146	N	1.003702	0.220974	0.549511
N147	N	1.337035	0.554308	0.882844
C148	C	0.718990	0.178940	-0.000162
C149	C	1.052323	0.512273	0.333171
C150	C	1.385656	0.845607	0.666504
C151	C	0.714210	0.260690	-0.000169
C152	C	1.047544	0.594023	0.333164
C153	C	1.380877	0.927357	0.666497
C154	C	0.660383	0.291815	-0.000160
C155	C	0.993717	0.625148	0.333173
C156	C	1.327050	0.958481	0.666507
C157	C	0.611333	0.241185	-0.000153
C158	C	0.944666	0.574519	0.333181
C159	C	1.278000	0.907852	0.666514
C160	C	0.616113	0.159438	-0.000152
C161	C	0.949447	0.492771	0.333182
C162	C	1.282780	0.826104	0.666515
C163	C	0.640572	0.535259	-0.000167
C164	C	0.973905	0.868592	0.333166
C165	C	1.307238	1.201925	0.666499
C166	C	0.635795	0.617013	-0.000166
C167	C	0.969129	0.950346	0.333168
C168	C	1.302462	1.283679	0.666501
C169	C	0.738673	0.636512	-0.000184
C170	C	1.072006	0.969845	0.333149
C171	C	1.405339	1.303178	0.666483
C172	C	0.743448	0.554761	-0.000178
C173	C	1.076781	0.888094	0.333155
C174	C	1.410115	1.221428	0.666489
C175	C	0.694398	0.504139	-0.000175
C176	C	1.027731	0.837472	0.333159
C177	C	1.361065	1.170806	0.666492
N178	N	0.655497	0.375376	-0.000164
N179	N	0.988830	0.708709	0.333169
N180	N	1.322163	1.042042	0.666502
N181	N	0.699285	0.420580	-0.000176
N182	N	1.032619	0.753913	0.333157
N183	N	1.365952	1.087247	0.666490
N184	N	0.684420	-0.091682	-0.216498
N185	N	1.017753	0.241651	0.116835
N186	N	1.351087	0.574984	0.450169
C187	C	0.705244	-0.060882	0.259866
C188	C	1.038577	0.272451	0.593200
C189	C	1.371910	0.605785	0.926533
C190	C	0.702415	-0.065062	0.347273
C191	C	1.035748	0.268271	0.680607
C192	C	1.369082	0.601605	1.013940
C193	C	0.664714	-0.120723	0.390990
C194	C	0.998047	0.212611	0.724323
C195	C	1.331380	0.545944	1.057657
C196	C	0.629835	-0.172202	0.347295
C197	C	0.963168	0.161131	0.680628
C198	C	1.296502	0.494465	1.013962
C199	C	0.632661	-0.168018	0.259889
C200	C	0.965995	0.165316	0.593223
C201	C	1.299328	0.498649	0.926556
C202	C	0.652367	-0.138977	0.652401
C203	C	0.985701	0.194356	0.985735
C204	C	1.319034	0.527689	1.319068
C205	C	0.649545	-0.143159	0.739813
C206	C	0.982878	0.190174	1.073146
C207	C	1.316212	0.523507	1.406480
C208	C	0.722125	-0.036018	0.739786
C209	C	1.055458	0.297316	1.073119
C210	C	1.388791	0.630649	1.406452
C211	C	0.724950	-0.031842	0.652378
C212	C	1.058283	0.301492	0.985712
C213	C	1.391617	0.634825	1.319045
C214	C	0.690069	-0.083318	0.608691
C215	C	1.023402	0.250015	0.942024
C216	C	1.356736	0.583349	1.275358
N217	N	0.661823	-0.124998	0.480334
N218	N	0.995156	0.208335	0.813668
N219	N	1.328489	0.541668	1.147001
N220	N	0.692958	-0.079038	0.519348
N221	N	1.026291	0.254295	0.852682
N222	N	1.359624	0.587628	1.186015
H223	H	1.498370	-0.237065	-0.000133
H224	H	1.831704	0.096268	0.333200
H225	H	2.165037	0.429602	0.666533
H226	H	0.964258	0.031240	-0.000181
H227	H	1.297592	0.364574	0.333153
H228	H	1.630925	0.697907	0.666486
H229	H	0.843604	-0.226280	-0.000207
H230	H	1.176937	0.107053	0.333126
H231	H	1.510270	0.440386	0.666459
H232	H	0.600631	0.494051	-0.000164
H233	H	0.933965	0.827385	0.333169
H234	H	1.267298	1.160718	0.666502
C235	C	0.802662	0.520530	-0.000187
C236	C	1.135995	0.853864	0.333146
C237	C	1.469328	1.187197	0.666480
N238	N	0.847262	0.494748	-0.000191
N239	N	1.180595	0.828081	0.333143
N240	N	1.513929	1.161415	0.666476
C241	C	0.766421	0.029394	0.604297
C242	C	1.099755	0.362727	0.937630
C243	C	1.433088	0.696060	1.270963
N244	N	0.797658	0.075517	0.568081
N245	N	1.130992	0.408850	0.901415
N246	N	1.464325	0.742183	1.234748
H247	H	0.735947	-0.015560	0.224278
H248	H	1.069280	0.317773	0.557611
H249	H	1.402613	0.651106	0.890945
H250	H	0.762821	0.153605	-0.000165
H251	H	1.096154	0.486938	0.333169
H252	H	1.429488	0.820272	0.666502
C253	C	0.576579	0.651247	-0.000162
C254	C	0.909913	0.984581	0.333172
C255	C	1.243246	1.317914	0.666505
N256	N	0.531980	0.677034	-0.000159
N257	N	0.865313	1.010367	0.333174
N258	N	1.198647	1.343700	0.666508
H259	H	0.856422	0.033015	-0.000213
H260	H	1.189756	0.366349	0.333121
H261	H	1.523089	0.699682	0.666454
C262	C	0.588357	-0.233422	0.395386
C263	C	0.921691	0.099911	0.728720
C264	C	1.255024	0.433244	1.062053
N265	N	0.557115	-0.279535	0.431608
N266	N	0.890449	0.053799	0.764941
N267	N	1.223782	0.387132	1.098275
C268	C	1.250757	0.118470	-0.000109
C269	C	1.584090	0.451803	0.333224
C270	C	1.917424	0.785136	0.666557
N271	N	1.278302	0.177277	-0.000104
N272	N	1.611635	0.510610	0.333229
N273	N	1.944968	0.843944	0.666563
C274	C	1.228864	-0.324588	-0.000144
C275	C	1.562197	0.008745	0.333189
C276	C	1.895531	0.342079	0.666522
N277	N	1.250555	-0.384211	-0.000127
N278	N	1.583888	-0.050878	0.333206
N279	N	1.917222	0.282456	0.666539
H280	H	1.133418	0.099970	-0.000130
H281	H	1.466751	0.433303	0.333203
H282	H	1.800085	0.766637	0.666537
H283	H	0.567506	0.266534	-0.000150
H284	H	0.900840	0.599867	0.333183
H285	H	1.234173	0.933201	0.666516
C286	C	0.614075	-0.195705	0.604357
C287	C	0.947409	0.137629	0.937690
C288	C	1.280742	0.470962	1.271023
N289	N	0.585260	-0.238470	0.568166
N290	N	0.918593	0.094863	0.901500
N291	N	1.251927	0.428196	1.234833
H292	H	1.113548	-0.302248	-0.000165
H293	H	1.446882	0.031085	0.333168
H294	H	1.780215	0.364418	0.666501
H295	H	0.576174	0.118220	-0.000144
H296	H	0.909507	0.451554	0.333190
H297	H	1.242841	0.784887	0.666523
C298	C	1.395839	0.044571	-0.000134
C299	C	1.729172	0.377905	0.333199
C300	C	2.062506	0.711238	0.666532
N301	N	1.374141	0.104189	-0.000133
N302	N	1.707474	0.437522	0.333201
N303	N	2.040808	0.770855	0.666534
H304	H	0.604262	-0.209935	0.224319
H305	H	0.937595	0.123399	0.557652
H306	H	1.270928	0.456732	0.890985
H307	H	1.390532	-0.235297	-0.000129
H308	H	1.723865	0.098036	0.333204
H309	H	2.057199	0.431369	0.666537
H310	H	1.511181	0.022227	-0.000120
H311	H	1.844514	0.355561	0.333214
H312	H	2.177847	0.688894	0.666547
C313	C	0.760486	0.020608	0.787849
C314	C	1.093820	0.353942	1.121182
C315	C	1.427153	0.687275	1.454515
N316	N	0.789379	0.063265	0.824050
N317	N	1.122713	0.396598	1.157384
N318	N	1.456046	0.729931	1.490717
H319	H	0.618843	-0.188488	0.775403
H320	H	0.952176	0.144845	1.108737
H321	H	1.285509	0.478178	1.442070
H322	H	0.778606	0.677736	-0.000188
H323	H	1.111940	1.011070	0.333145
H324	H	1.445273	1.344403	0.666479
C325	C	0.958942	-0.248627	-0.000189
C326	C	1.292275	0.084706	0.333145
C327	C	1.625608	0.418039	0.666478
N328	N	0.980635	-0.308248	-0.000181
N329	N	1.313969	0.025085	0.333152
N330	N	1.647302	0.358419	0.666486
H331	H	0.754149	0.301904	-0.000176
H332	H	1.087483	0.635238	0.333158
H333	H	1.420816	0.968571	0.666491
C334	C	0.740766	-0.008414	0.395327
C335	C	1.074099	0.324919	0.728661
C336	C	1.407433	0.658252	1.061994
N337	N	0.769648	0.034263	0.431521
N338	N	1.102982	0.367596	0.764854
N339	N	1.436315	0.700929	1.098188
