data_functionalizedCrystal
_audit_creation_method	'MofGen! by Chris Wilmer'
_symmetry_space_group_name_H-M	'P1'
_symmetry_Int_Tables_number	1
_symmetry_cell_setting	triclinic
loop_
_symmetry_equiv_pos_as_xyz
  x,y,z
_cell_length_a	12.837943
_cell_length_b	12.837942
_cell_length_c	11.295483
_cell_angle_alpha	85.469583
_cell_angle_beta	85.461227
_cell_angle_gamma	85.171060
loop_
_atom_site_label
_atom_site_type_symbol
_atom_site_fract_x
_atom_site_fract_y
_atom_site_fract_z
O1	O	1.408689	-0.265788	-0.099003
O2	O	1.105556	-0.252345	-0.099010
O3	O	1.250401	-0.107500	-0.098999
O4	O	1.263845	-0.410633	-0.099013
O5	O	1.237676	-0.120201	0.099051
O6	O	1.092832	-0.265045	0.099040
O7	O	1.395965	-0.278489	0.099047
Cu8	Cu	1.243237	-0.272927	0.117127
Cu9	Cu	1.258285	-0.257907	-0.117090
O10	O	1.251121	-0.423333	0.099037
C11	C	1.060125	-0.254153	0.000014
C12	C	0.943710	-0.240609	0.000012
C13	C	0.718835	-0.403439	0.000021
C14	C	0.609453	-0.390717	0.000020
C15	C	0.615561	-0.202446	0.000016
C16	C	0.724943	-0.215167	0.000017
C17	C	0.776576	-0.315667	0.000018
C18	C	0.885961	-0.328387	0.000011
C19	C	0.892066	-0.140117	0.000016
C20	C	0.782684	-0.127396	0.000015
C21	C	1.239497	-0.074781	0.000025
C22	C	1.225953	0.041634	0.000023
C23	C	1.441396	-0.276680	0.000021
C24	C	1.557812	-0.290224	0.000015
C25	C	1.262024	-0.456052	0.000010
C26	C	1.275569	-0.572467	0.000004
N27	N	1.232661	-0.283491	0.281863
C28	C	1.388784	0.266509	0.000002
C29	C	1.376062	0.375892	-0.000000
C30	C	1.187791	0.369784	0.000008
C31	C	1.200512	0.260402	0.000010
C32	C	1.301011	0.208768	0.000009
C33	C	1.313731	0.099383	0.000020
C34	C	1.125461	0.093278	0.000019
C35	C	1.112740	0.202660	0.000017
N36	N	1.268868	-0.247335	-0.281825
C37	C	1.344996	-0.171231	0.531161
C38	C	1.337012	-0.179223	0.655824
C39	C	1.208702	-0.307459	0.655854
C40	C	1.216687	-0.299467	0.531191
C41	C	1.284837	-0.231353	0.468849
C42	C	1.292826	-0.223367	0.344183
C43	C	1.164512	-0.351597	0.344216
C44	C	1.156528	-0.359589	0.468879
H45	H	0.740628	-0.045572	0.000028
H46	H	1.105969	0.411844	-0.000004
H47	H	1.400494	-0.115777	0.480401
H48	H	1.348320	-0.167908	0.293425
H49	H	0.928000	-0.410219	0.000014
H50	H	0.562444	-0.462191	0.000025
C51	C	0.632571	-0.017622	0.000015
C52	C	0.558793	-0.091983	0.000018
H53	H	0.597522	0.050572	0.000022
H54	H	0.679538	-0.022071	-0.069047
H55	H	0.670676	-0.030929	0.069082
H56	H	0.520693	-0.078681	-0.069054
H57	H	0.511808	-0.087531	0.069087
C58	C	1.573605	0.283529	-0.000008
C59	C	1.499248	0.209747	-0.000003
H60	H	1.641802	0.248485	-0.000020
H61	H	1.560296	0.321634	0.069054
H62	H	1.569154	0.330496	-0.069075
H63	H	1.503694	0.162784	0.069070
H64	H	1.512562	0.171624	-0.069071
H65	H	1.030916	0.244716	0.000013
H66	H	1.385998	-0.130265	0.706555
C67	C	1.062452	-0.076013	0.000009
C68	C	0.955538	-0.043629	0.000011
H69	H	1.101634	-0.016446	0.000008
H70	H	1.083549	-0.112346	-0.069049
H71	H	1.074680	-0.121198	0.069080
H72	H	0.943309	0.001550	-0.069065
H73	H	0.934434	-0.007279	0.069076
H74	H	1.395563	0.057344	0.000023
H75	H	1.153209	-0.362909	0.706630
H76	H	1.101038	-0.415044	0.519653
C77	C	1.036883	-0.479164	0.356774
C78	C	1.098380	-0.417691	0.275722
H79	H	0.996066	-0.519973	0.314485
H80	H	0.991806	-0.434966	0.405399
H81	H	1.081075	-0.524258	0.405393
H82	H	1.054187	-0.372592	0.227108
H83	H	1.143461	-0.461894	0.227076
C84	C	0.753851	-0.561298	-0.101796
C85	C	0.775598	-0.513903	0.000015
H86	H	0.788889	-0.629498	-0.101794
H87	H	0.777472	-0.520277	-0.170845
H88	H	0.680441	-0.566279	-0.101785
H89	H	0.849008	-0.508916	-0.000000
H90	H	0.751983	-0.554935	0.069081
C91	C	1.464439	0.495925	0.101799
C92	C	1.472541	0.439366	-0.000006
H93	H	1.524002	0.535116	0.101787
H94	H	1.461063	0.448702	0.170852
H95	H	1.402764	0.542329	0.101789
H96	H	1.534213	0.392956	0.000009
H97	H	1.475929	0.486594	-0.069077
C98	C	0.938079	0.098231	0.000039
C99	C	1.028971	0.029807	0.000033
H100	H	0.878513	0.059044	0.000059
H101	H	0.941463	0.145438	-0.069027
H102	H	0.932611	0.136604	0.069102
H103	H	1.034443	-0.008561	-0.069036
H104	H	1.025587	-0.017419	0.069105
