data_functionalizedCrystal
_audit_creation_method	'MofGen! by Chris Wilmer'
_symmetry_space_group_name_H-M	'P1'
_symmetry_Int_Tables_number	1
_symmetry_cell_setting	triclinic
loop_
_symmetry_equiv_pos_as_xyz
  x,y,z
_cell_length_a	19.188930
_cell_length_b	17.699083
_cell_length_c	16.776229
_cell_angle_alpha	89.999727
_cell_angle_beta	90.008536
_cell_angle_gamma	83.213899
loop_
_atom_site_label
_atom_site_type_symbol
_atom_site_fract_x
_atom_site_fract_y
_atom_site_fract_z
O1	O	0.088291	1.003961	0.066185
O2	O	0.588291	1.503961	0.566185
O3	O	0.099778	0.783568	0.066213
O4	O	0.599778	1.283568	0.566213
O5	O	-0.007614	0.900124	0.066183
O6	O	0.492386	1.400124	0.566183
O7	O	0.195683	0.887404	0.066215
O8	O	0.695683	1.387404	0.566215
O9	O	-0.007614	0.900111	-0.066394
O10	O	0.492386	1.400111	0.433606
O11	O	0.099778	0.783554	-0.066364
O12	O	0.599778	1.283554	0.433636
O13	O	0.088291	1.003948	-0.066391
O14	O	0.588291	1.503948	0.433609
Zn15	Zn	0.094035	0.893749	-0.087427
Zn16	Zn	0.594035	1.393749	0.412573
Zn17	Zn	0.094035	0.893766	0.087249
Zn18	Zn	0.594035	1.393766	0.587249
O19	O	0.195683	0.887391	-0.066361
O20	O	0.695683	1.387391	0.433639
C21	C	0.099367	0.755365	-0.000072
C22	C	0.599367	1.255365	0.499928
C23	C	0.098132	0.671348	-0.000062
C24	C	0.598132	1.171348	0.499938
C25	C	0.161169	0.622644	-0.000053
C26	C	0.661169	1.122644	0.499947
C27	C	0.160004	0.543702	-0.000063
C28	C	0.660004	1.043702	0.499937
C29	C	0.095802	0.513466	-0.000078
C30	C	0.595802	1.013466	0.499922
C31	C	0.032761	0.562176	-0.000090
C32	C	0.532761	1.062176	0.499910
C33	C	0.033926	0.641117	-0.000085
C34	C	0.533926	1.141117	0.499915
C35	C	0.028060	0.243819	-0.000111
C36	C	0.528060	0.743819	0.499889
C37	C	0.026900	0.164873	-0.000113
C38	C	0.526900	0.664873	0.499887
C39	C	0.154139	0.146405	-0.000088
C40	C	0.654139	0.646405	0.499912
C41	C	0.155304	0.225345	-0.000084
C42	C	0.655304	0.725345	0.499916
C43	C	0.092263	0.274049	-0.000100
C44	C	0.592263	0.774049	0.499900
C45	C	0.093526	0.359646	-0.000090
C46	C	0.593526	0.859646	0.499910
C47	C	0.094538	0.427870	-0.000082
C48	C	0.594538	0.927870	0.499918
C49	C	-0.033625	0.899706	-0.000108
C50	C	0.466375	1.399706	0.499892
C51	C	-0.111131	0.898469	-0.000114
C52	C	0.388869	1.398469	0.499886
C53	C	-0.155978	0.966861	-0.000127
C54	C	0.344022	1.466861	0.499873
C55	C	-0.228804	0.965699	-0.000114
C56	C	0.271196	1.465699	0.499886
C57	C	-0.256778	0.896142	-0.000105
C58	C	0.243222	1.396142	0.499895
C59	C	-0.211921	0.827741	-0.000088
C60	C	0.288079	1.327741	0.499912
C61	C	-0.139097	0.828905	-0.000093
C62	C	0.360903	1.328905	0.499907
N63	N	-0.364843	0.842969	-0.045216
N64	N	0.135157	1.342969	0.454784
N65	N	-0.434023	0.841869	-0.045213
N66	N	0.065977	1.341869	0.454787
C67	C	-0.476191	0.892632	-0.000088
C68	C	0.023809	1.392632	0.499912
N69	N	-0.446567	0.944549	0.045024
N70	N	0.053433	1.444549	0.545024
N71	N	-0.377381	0.945652	0.045018
N72	N	0.122619	1.445652	0.545018
C73	C	-0.335742	0.894873	-0.000099
C74	C	0.164258	1.394873	0.499901
C75	C	-0.600004	0.959769	-0.000085
C76	C	-0.100004	1.459769	0.499915
C77	C	-0.672830	0.958604	-0.000067
C78	C	-0.172830	1.458604	0.499933
C79	C	-0.655946	0.820644	-0.000049
C80	C	-0.155946	1.320644	0.499951
C81	C	-0.583121	0.821811	-0.000059
C82	C	-0.083121	1.321811	0.499941
C83	C	-0.555155	0.891375	-0.000081
C84	C	-0.055155	1.391375	0.499919
C85	C	0.221695	0.887810	-0.000069
C86	C	0.721695	1.387810	0.499931
C87	C	0.299201	0.889046	-0.000057
C88	C	0.799201	1.389046	0.499943
C89	C	0.088703	1.032151	-0.000104
C90	C	0.588703	1.532151	0.499896
C91	C	0.089938	1.116167	-0.000109
C92	C	0.589938	1.616167	0.499891
N93	N	0.094034	0.893743	-0.206638
N94	N	0.594034	1.393743	0.293362
C95	C	0.136329	0.939502	-0.248350
C96	C	0.636329	1.439502	0.251650
C97	C	0.136326	0.939511	-0.331803
C98	C	0.636326	1.439511	0.168197
C99	C	0.094032	0.893755	-0.373541
C100	C	0.594032	1.393755	0.126459
C101	C	0.051732	0.847994	-0.331823
C102	C	0.551732	1.347994	0.168177
C103	C	0.051731	0.847990	-0.248372
C104	C	0.551731	1.347990	0.251628
C105	C	0.051733	0.848009	-0.668370
C106	C	0.551733	1.348009	-0.168370
C107	C	0.051738	0.848015	-0.751826
C108	C	0.551738	1.348015	-0.251826
C109	C	0.136328	0.939530	-0.751800
C110	C	0.636328	1.439530	-0.251800
C111	C	0.136327	0.939526	-0.668350
C112	C	0.636327	1.439526	-0.168350
C113	C	0.094025	0.893768	-0.626639
C114	C	0.594025	1.393768	-0.126639
C115	C	0.094027	0.893760	-0.536150
C116	C	0.594027	1.393760	-0.036150
C117	C	0.094033	0.893758	-0.464028
C118	C	0.594033	1.393758	0.035972
N119	N	0.094030	0.893779	0.206460
N120	N	0.594030	1.393779	0.706460
H121	H	-0.133213	1.023506	-0.000142
H122	H	0.366787	1.523506	0.499858
H123	H	-0.025384	0.140258	-0.000126
H124	H	0.474616	0.640258	0.499874
N125	N	-0.534747	0.748043	-0.000064
N126	N	-0.034747	1.248043	0.499936
H127	H	-0.484369	0.759334	-0.000070
H128	H	0.015631	1.259334	0.499930
H129	H	-0.543780	0.717721	0.049087
H130	H	-0.043780	1.217721	0.549087
N131	N	0.006109	0.798673	-0.796847
N132	N	0.506109	1.298673	-0.296847
H133	H	0.036546	0.761524	-0.831466
H134	H	0.536546	1.261524	-0.331466
H135	H	-0.020685	0.769738	-0.757710
H136	H	0.479315	1.269738	-0.257710
H137	H	0.017291	0.810728	-0.214411
H138	H	0.517291	1.310728	0.285589
H139	H	0.017287	0.810751	-0.634419
H140	H	0.517287	1.310751	-0.134419
H141	H	-0.017406	0.680771	-0.000093
H142	H	0.482594	1.180771	0.499907
H143	H	0.170774	0.976757	-0.214373
H144	H	0.670774	1.476757	0.285627
H145	H	-0.102582	0.773210	-0.000083
H146	H	0.397418	1.273210	0.499917
N147	N	-0.277192	1.039463	-0.000131
N148	N	0.222808	1.539463	0.499869
H149	H	-0.268206	1.069836	0.049006
H150	H	0.231794	1.569836	0.549006
H151	H	-0.268196	1.069752	-0.049319
H152	H	0.231804	1.569752	0.450681
N153	N	0.230416	0.655253	-0.000027
N154	N	0.730416	1.155253	0.499973
H155	H	0.270172	0.612418	-0.000023
H156	H	0.770172	1.112418	0.499977
H157	H	0.233674	0.687608	-0.049171
H158	H	0.733674	1.187608	0.450829
H159	H	-0.234702	0.771107	-0.000079
H160	H	0.265298	1.271107	0.499921
H161	H	-0.678722	0.764009	-0.000038
H162	H	-0.178722	1.264009	0.499962
N163	N	-0.569833	1.034794	-0.000105
N164	N	-0.069833	1.534794	0.499895
H165	H	-0.609297	1.077945	-0.000104
H166	H	-0.109297	1.577945	0.499896
H167	H	-0.539974	1.038286	0.049038
H168	H	-0.039974	1.538286	0.549038
N169	N	0.006117	0.798644	-0.376844
N170	N	0.506117	1.298644	0.123156
H171	H	0.019953	0.743532	-0.362319
H172	H	0.519953	1.243532	0.137681
H173	H	-0.044686	0.813807	-0.362316
H174	H	0.455314	1.313807	0.137684
N175	N	-0.721205	1.032373	-0.000077
N176	N	-0.221205	1.532373	0.499923
H177	H	-0.692435	1.076615	-0.000094
H178	H	-0.192435	1.576615	0.499906
H179	H	-0.751797	1.034883	-0.049222
H180	H	-0.251797	1.534883	0.450778
N181	N	0.181910	0.988902	-0.376793
N182	N	0.681910	1.488902	0.123207
H183	H	0.208695	1.017896	-0.337690
H184	H	0.708695	1.517896	0.162310
H185	H	0.216088	0.955824	-0.411436
H186	H	0.716088	1.455824	0.088564
N187	N	-0.036483	0.529559	-0.000105
N188	N	0.463517	1.029559	0.499895
H189	H	-0.064096	0.547333	0.049036
H190	H	0.435904	1.047333	0.549036
H191	H	-0.064039	0.547342	-0.049289
H192	H	0.435961	1.047342	0.450711
N193	N	0.228015	0.491206	-0.000067
N194	N	0.728015	0.991206	0.499933
H195	H	0.230397	0.458027	0.049069
H196	H	0.730397	0.958027	0.549069
H197	H	0.230340	0.458105	-0.049256
H198	H	0.730340	0.958105	0.450744
N199	N	0.181940	0.988878	-0.623329
N200	N	0.681940	1.488878	-0.123329
H201	H	0.232760	0.973783	-0.637841
H202	H	0.732760	1.473783	-0.137841
H203	H	0.168041	1.043972	-0.637870
H204	H	0.668041	1.543972	-0.137870
N205	N	0.224550	0.257958	-0.000057
N206	N	0.724550	0.757958	0.499943
H207	H	0.264308	0.215124	-0.000052
H208	H	0.764308	0.715124	0.499948
H209	H	0.227807	0.290313	-0.049201
H210	H	0.727807	0.790313	0.450799
N211	N	0.222137	0.093875	-0.000073
N212	N	0.722137	0.593875	0.499927
H213	H	0.211660	0.039278	-0.000081
H214	H	0.711660	0.539278	0.499919
H215	H	0.250125	0.103645	-0.049212
H216	H	0.750125	0.603645	0.450788
H217	H	-0.023272	0.283465	-0.000125
H218	H	0.476728	0.783465	0.499875
N219	N	0.181954	0.988887	-0.796788
N220	N	0.681954	1.488887	-0.296788
H221	H	0.175537	0.981951	-0.855988
H222	H	0.675537	1.481951	-0.355988
H223	H	0.168099	1.043975	-0.782198
H224	H	0.668099	1.543975	-0.282198
