data_functionalizedCrystal
_audit_creation_method	'MofGen! by Chris Wilmer'
_symmetry_space_group_name_H-M	'P1'
_symmetry_Int_Tables_number	1
_symmetry_cell_setting	triclinic
loop_
_symmetry_equiv_pos_as_xyz
  x,y,z
_cell_length_a	14.044220
_cell_length_b	19.288865
_cell_length_c	18.366186
_cell_angle_alpha	90.011479
_cell_angle_beta	90.003974
_cell_angle_gamma	88.162563
loop_
_atom_site_label
_atom_site_type_symbol
_atom_site_fract_x
_atom_site_fract_y
_atom_site_fract_z
O1	O	-1.256998	-0.167413	-0.060488
O2	O	-0.981055	-0.161372	-0.060506
O3	O	-1.127000	-0.063774	-0.060482
O4	O	-1.111053	-0.265010	-0.060512
O5	O	-1.126975	-0.063768	0.060617
O6	O	-0.981030	-0.161365	0.060593
O7	O	-1.256973	-0.167406	0.060611
Zn8	Zn	-1.118998	-0.164384	0.079829
Zn9	Zn	-1.119030	-0.164393	-0.079724
O10	O	-1.111028	-0.265004	0.060587
C11	C	-1.126474	-0.037862	0.000069
C12	C	-1.124934	0.039341	0.000076
C13	C	-0.945739	-0.158724	0.000041
C14	C	-0.840547	-0.150836	0.000035
C15	C	-1.292289	-0.170054	0.000062
C16	C	-1.397481	-0.177942	0.000063
C17	C	-0.647947	-0.136416	0.000052
C18	C	-0.590075	-0.192359	0.000047
C19	C	-0.482906	-0.184335	0.000056
C20	C	-0.755126	-0.144438	0.000043
C21	C	-1.111554	-0.290916	0.000034
C22	C	-1.113094	-0.368119	0.000023
N23	N	-1.118982	-0.164378	0.188720
C24	C	-1.210568	0.078535	0.000085
C25	C	-1.209121	0.151075	0.000073
C26	C	-1.122035	0.184418	0.000067
C27	C	-1.036390	0.145215	0.000054
C28	C	-1.037839	0.072676	0.000058
C29	C	-1.053566	0.297107	0.042481
C30	C	-1.052121	0.369644	0.042481
C31	C	-1.117560	0.408151	0.000051
C32	C	-1.184462	0.374113	-0.042371
C33	C	-1.185912	0.301574	-0.042367
C34	C	-1.120453	0.263074	0.000062
C35	C	-1.201631	0.526002	0.000046
C36	C	-1.200181	0.598543	0.000030
C37	C	-1.027447	0.592681	0.000018
C38	C	-1.028900	0.520142	0.000027
C39	C	-1.115995	0.486806	0.000044
N40	N	-1.119053	-0.164395	-0.188616
C41	C	-1.183628	-0.121187	0.226831
C42	C	-1.183634	-0.121184	0.303059
C43	C	-1.119003	-0.164385	0.341173
C44	C	-1.054346	-0.207580	0.303053
C45	C	-1.054335	-0.207576	0.226827
C46	C	-1.106318	-0.226858	0.461924
C47	C	-1.106335	-0.226863	0.538148
C48	C	-1.119030	-0.164396	0.576281
C49	C	-1.131729	-0.101922	0.538178
C50	C	-1.131718	-0.101919	0.461952
C51	C	-1.119007	-0.164394	0.423828
C52	C	-1.183686	-0.121198	0.697046
C53	C	-1.183685	-0.121194	0.773276
C54	C	-1.054402	-0.207596	0.773268
C55	C	-1.054398	-0.207593	0.697040
C56	C	-1.119045	-0.164395	0.658934
H57	H	-0.621016	-0.246280	0.000035
H58	H	-0.617008	-0.082499	0.000064
Br59	Br	-0.966625	-0.266206	0.354776
H60	H	-1.001761	-0.242767	0.666008
H61	H	-1.269917	0.630454	0.000033
H62	H	-1.281487	0.051398	0.000097
Br63	Br	-1.089182	-0.311651	0.410181
Br64	Br	-1.325346	0.204279	0.000082
Br65	Br	-1.273282	0.426363	-0.099959
H66	H	-0.997641	0.397352	0.077019
Br67	Br	-1.319828	0.480757	0.000077
H68	H	-1.240384	0.273863	-0.076909
H69	H	-0.956540	0.619828	0.000009
H70	H	-0.959167	0.488229	0.000023
H71	H	-1.000275	0.265760	0.077037
Br72	Br	-0.918200	0.190464	0.000036
Br73	Br	-0.921612	0.019480	0.000044
Br74	Br	-0.966594	-0.266197	0.175100
H75	H	-1.236278	-0.086011	0.334095
H76	H	-1.236265	-0.086011	0.195807
H77	H	-1.142055	-0.051051	0.430932
Br78	Br	-1.148971	-0.017140	0.589919
H79	H	-1.236323	-0.086021	0.666019
H80	H	-1.236325	-0.086018	0.804306
Br81	Br	-0.966678	-0.266219	0.824988
Br82	Br	-1.089113	-0.311648	0.589851
