data_functionalizedCrystal
_audit_creation_method	'MofGen! by Chris Wilmer'
_symmetry_space_group_name_H-M	'P1'
_symmetry_Int_Tables_number	1
_symmetry_cell_setting	triclinic
loop_
_symmetry_equiv_pos_as_xyz
  x,y,z
_cell_length_a	18.760487
_cell_length_b	23.196402
_cell_length_c	23.196401
_cell_angle_alpha	59.999265
_cell_angle_beta	90.040886
_cell_angle_gamma	60.020943
loop_
_atom_site_label
_atom_site_type_symbol
_atom_site_fract_x
_atom_site_fract_y
_atom_site_fract_z
Zr1	Zr	0.686687	0.631010	-0.075292
O2	O	0.572854	0.751291	-0.167402
O3	O	0.721580	0.510740	-0.047058
O4	O	0.721557	0.631026	-0.167333
O5	O	0.572899	0.630989	0.047752
O6	O	0.838860	0.631026	-0.167275
O7	O	0.572877	0.631005	-0.047127
O8	O	0.838902	0.415856	0.047875
O9	O	0.572857	0.846159	-0.167398
O10	O	0.824007	0.560205	-0.034969
O11	O	0.736482	0.560192	0.035794
O12	O	0.736454	0.701814	-0.105814
O13	O	0.648928	0.701802	-0.035050
Zr14	Zr	0.873806	0.630984	0.076122
Zr15	Zr	0.873772	0.631010	-0.075198
Zr16	Zr	0.686722	0.630984	0.076029
Zr17	Zr	0.686692	0.782312	-0.075285
Zr18	Zr	0.873801	0.479681	0.076116
O19	O	0.838913	0.751254	0.047889
O20	O	0.838864	0.751291	-0.167270
O21	O	0.572903	0.751254	0.047757
O22	O	0.987640	0.510703	0.168233
O23	O	0.987591	0.510740	-0.046926
O24	O	0.721630	0.510703	0.168100
O25	O	0.987595	0.631005	-0.046921
O26	O	0.838937	0.630968	0.168164
O27	O	0.721634	0.630968	0.168105
O28	O	0.987616	0.630988	0.047958
O29	O	0.721564	0.846158	-0.167324
O30	O	0.838929	0.415835	0.168155
O31	O	0.987637	0.415835	0.168229
O32	O	0.987609	0.415856	0.047949
O33	O	0.572884	0.846138	-0.047118
O34	O	0.721592	0.846138	-0.047044
O35	O	0.824040	0.560180	0.106645
O36	O	0.911565	0.560192	0.035881
O37	O	0.824012	0.701801	-0.034963
O38	O	0.736486	0.701789	0.035800
C39	C	0.780240	0.441741	0.000407
C40	C	0.780238	0.377509	0.000404
C41	C	0.825920	0.347345	-0.036536
C42	C	0.825928	0.286984	-0.036530
C43	C	0.780238	0.256801	0.000406
C44	C	0.734554	0.286969	0.037355
C45	C	0.734555	0.347323	0.037354
C46	C	0.703695	0.194772	-0.004907
C47	C	0.703692	0.134423	-0.004911
C48	C	0.780239	0.070646	0.000413
C49	C	0.856788	0.067233	0.005728
C50	C	0.856788	0.127587	0.005727
C51	C	0.780233	0.191356	0.000412
C52	C	0.825934	-0.024969	-0.036522
C53	C	0.825945	-0.085335	-0.036512
C54	C	0.734563	-0.085343	0.037369
C55	C	0.734560	-0.024984	0.037363
C56	C	0.780244	0.005202	0.000413
C57	C	0.546232	0.630997	0.000299
C58	C	0.466810	0.630997	0.000259
C59	C	0.085291	0.704918	-0.036442
C60	C	0.176703	0.557076	0.037521
C61	C	0.251325	0.557075	0.037460
C62	C	0.242933	0.630996	0.000447
C63	C	0.159919	0.704919	-0.036505
C64	C	0.334344	0.483153	0.074406
C65	C	0.408972	0.483149	0.074346
C66	C	0.400581	0.557071	0.037337
C67	C	0.317561	0.630997	0.000384
C68	C	0.309169	0.704919	-0.036630
C69	C	0.226149	0.778846	-0.073579
C70	C	0.151528	0.778842	-0.073515
C71	C	0.475202	0.557075	0.037273
C72	C	0.383796	0.704920	-0.036693
C73	C	1.014261	0.630997	0.000532
C74	C	1.093683	0.630997	0.000571
C75	C	0.780203	0.631029	-0.188864
C76	C	0.780189	0.631040	-0.253103
C77	C	0.780253	0.820253	0.000424
C78	C	0.780255	0.884485	0.000426
C79	C	0.844814	0.631042	-0.283234
C80	C	0.844833	0.631025	-0.343581
C81	C	0.780214	0.631024	-0.373803
C82	C	0.715583	0.631018	-0.343662
C83	C	0.715571	0.631026	-0.283312
C84	C	0.701351	0.678519	-0.493222
C85	C	0.701363	0.678516	-0.553572
C86	C	0.780253	0.630995	-0.559939
C87	C	0.859135	0.583488	-0.505952
C88	C	0.859122	0.583496	-0.445603
C89	C	0.780221	0.631015	-0.439241
C90	C	0.844904	0.630978	-0.655504
C91	C	0.844924	0.630956	-0.715849
C92	C	0.715667	0.630957	-0.715933
C93	C	0.715654	0.630970	-0.655585
C94	C	0.780272	0.630984	-0.625376
C95	C	0.780290	0.630964	0.189695
C96	C	0.780305	0.630953	0.253934
C97	C	1.014255	0.441740	0.000524
C98	C	1.093675	0.377508	0.000560
C99	C	0.780284	0.441708	0.189686
C100	C	0.780296	0.377465	0.253923
C101	C	1.014298	0.441708	0.189803
C102	C	1.093733	0.377465	0.254079
C103	C	0.546196	0.820286	-0.188972
C104	C	0.466761	0.884529	-0.253249
C105	C	0.546239	0.820253	0.000307
C106	C	0.466819	0.884485	0.000270
C107	C	0.780210	0.820286	-0.188856
C108	C	0.780197	0.884529	-0.253093
C109	C	1.085267	0.347351	-0.036412
C110	C	1.159883	0.287006	-0.036391
C111	C	1.242907	0.256817	0.000606
C112	C	1.251313	0.286980	0.037579
C113	C	1.176698	0.347328	0.037554
C114	C	0.826006	0.347290	0.321079
C115	C	0.826015	0.286935	0.381442
C116	C	0.780318	0.256753	0.374648
C117	C	0.734602	0.286935	0.307485
C118	C	0.734589	0.347292	0.247123
C119	C	1.176732	0.347302	0.247326
C120	C	1.251376	0.286947	0.307715
C121	C	1.243020	0.256752	0.374856
C122	C	1.160013	0.286921	0.381608
C123	C	1.085370	0.347279	0.321220
C124	C	0.383762	0.914699	-0.246496
C125	C	0.309117	0.975073	-0.306884
C126	C	0.317473	1.005271	-0.374025
C127	C	0.400481	0.975098	-0.380777
C128	C	0.475124	0.914730	-0.320389
C129	C	0.475227	0.914649	0.037236
C130	C	0.400610	0.975010	0.037199
C131	C	0.317587	1.005202	0.000200
C132	C	0.309180	0.975036	-0.036771
C133	C	0.383796	0.914680	-0.036737
C134	C	0.825904	0.914691	-0.246276
C135	C	0.825909	0.975046	-0.306627
C136	C	0.780202	1.005242	-0.373795
C137	C	0.734495	0.975073	-0.380611
C138	C	0.734495	0.914715	-0.320260
H139	H	0.863129	0.262419	-0.066612
H140	H	0.863128	0.999604	-0.301064
H141	H	0.697396	0.262351	0.301963
O142	O	0.374715	0.882145	-0.076605
H143	H	0.406506	0.893735	-0.117449
H144	H	0.662944	0.631025	-0.258779
O145	O	1.150800	0.254482	-0.076271
H146	H	1.216627	0.207455	-0.070052
O147	O	0.780338	0.191649	0.439755
H148	H	0.808928	0.136656	0.439728
O149	O	0.995853	0.379789	0.328514
H150	H	0.988270	0.407268	0.357830
O151	O	0.995728	0.379910	-0.076329
H152	H	0.945245	0.426940	-0.070139
O153	O	0.564769	0.882103	0.077133
H154	H	0.558066	0.913237	0.102818
H155	H	0.697358	-0.000422	0.067441
H156	H	0.863149	-0.109899	-0.066590
H157	H	1.318958	0.262390	0.302205
O158	O	0.564652	0.882179	-0.327662
H159	H	0.572230	0.854688	-0.356967
O160	O	0.685305	0.379758	0.174717
H161	H	0.634751	0.446337	0.145372
O162	O	0.219597	1.007600	-0.299588
H163	H	0.169090	1.054660	-0.352856
H164	H	0.256687	1.054426	-0.423191
O165	O	0.409489	1.007666	-0.453195
H166	H	0.343637	1.054703	-0.494045
O167	O	1.151004	0.254340	0.454025
H168	H	1.216857	0.207294	0.494876
O169	O	0.185757	0.477349	0.077435
H170	H	0.154037	0.473801	0.118319
O171	O	0.875340	0.254375	0.453878
H172	H	0.907128	0.285493	0.448455
H173	H	1.183552	0.371878	0.192662
O174	O	0.237121	1.070291	0.000185
H175	H	0.197697	1.125308	-0.054864
O176	O	0.374739	0.882139	-0.174083
H177	H	0.304479	0.913277	-0.179544
O178	O	0.621124	0.263585	-0.010680
H179	H	0.632503	0.262767	0.036766
O180	O	0.685222	1.007645	-0.453067
H181	H	0.711639	0.956989	-0.459202
O182	O	0.409686	1.007531	0.077086
H183	H	0.479954	0.976380	0.102830
O184	O	0.219632	1.007603	-0.076677
H185	H	0.169167	1.054633	-0.070479
O186	O	1.323531	0.191643	0.439988
H187	H	1.382646	0.175739	0.424005
H188	H	0.863123	0.890116	-0.191590
H189	H	0.697354	0.262389	0.067430
O190	O	0.780192	1.070353	-0.438887
H191	H	0.819647	1.086257	-0.422855
O192	O	0.685183	0.882193	-0.327616
H193	H	0.653395	0.913342	-0.384462
O194	O	0.343394	0.403428	0.114318
H195	H	0.311680	0.399877	0.155205
H196	H	0.863120	0.371918	-0.066620
O197	O	1.340865	0.254411	0.077480
H198	H	1.334187	0.285520	0.103185
O199	O	0.374736	0.784655	-0.076670
H200	H	0.440572	0.772240	-0.070526
H201	H	0.697361	-0.109918	0.067443
H202	H	1.183556	0.371874	0.067666
O203	O	0.621129	0.138113	-0.010653
H204	H	0.599492	0.135853	0.034510
O205	O	1.323385	0.191725	0.000634
H206	H	1.323332	0.136732	0.023761
O207	O	0.939345	0.123907	0.011467
H208	H	0.992578	0.069420	0.015174
O209	O	0.875297	0.379837	0.328416
H210	H	0.848885	0.407339	0.357703
O211	O	0.939361	-0.001552	0.011477
H212	H	0.926508	-0.042955	0.010596
H213	H	0.863135	-0.000394	-0.066606
H214	H	0.219326	0.839033	-0.103719
H215	H	0.476563	0.422953	0.104432
H216	H	0.697353	0.371883	0.067435
H217	H	0.083929	0.839029	-0.103597
O218	O	0.564741	0.477353	0.077115
H219	H	0.572431	0.441896	0.133946
O220	O	-0.004243	0.784653	-0.076302
H221	H	-0.054727	0.772239	-0.070047
H222	H	0.897432	0.631051	-0.258639
H223	H	0.897461	0.631026	-0.368118
O224	O	0.944192	0.532251	-0.387368
H225	H	0.999055	0.499198	-0.401925
O226	O	0.944232	0.532222	-0.512802
H227	H	0.930992	0.540186	-0.563830
H228	H	0.897523	0.630985	-0.630905
H229	H	0.897554	0.630952	-0.740380
O230	O	0.645965	0.630958	-0.748520
H231	H	0.656826	0.630957	-0.795550
H232	H	0.663027	0.630974	-0.631053
O233	O	0.616291	0.729764	-0.611805
H234	H	0.561431	0.762801	-0.597236
H235	H	0.637104	0.717208	-0.488042
H236	H	0.662970	0.631015	-0.368270
