data_functionalizedCrystal
_audit_creation_method	'MofGen! by Chris Wilmer'
_symmetry_space_group_name_H-M	'P1'
_symmetry_Int_Tables_number	1
_symmetry_cell_setting	triclinic
loop_
_symmetry_equiv_pos_as_xyz
  x,y,z
_cell_length_a	27.440280
_cell_length_b	27.440280
_cell_length_c	20.875641
_cell_angle_alpha	62.433941
_cell_angle_beta	90.005468
_cell_angle_gamma	60.007024
loop_
_atom_site_label
_atom_site_type_symbol
_atom_site_fract_x
_atom_site_fract_y
_atom_site_fract_z
Zr1	Zr	0.471840	0.528830	-0.081182
O2	O	0.396789	0.624995	-0.180001
O3	O	0.494837	0.428851	-0.050881
O4	O	0.498448	0.523319	-0.179974
O5	O	0.390342	0.536205	0.050914
O6	O	0.578650	0.523310	-0.179961
O7	O	0.393178	0.530527	-0.050908
O8	O	0.572192	0.354325	0.050963
O9	O	0.396801	0.705190	-0.180010
O10	O	0.564512	0.471380	-0.037957
O11	O	0.502541	0.475624	0.038022
O12	O	0.506792	0.586847	-0.113969
O13	O	0.444822	0.591091	-0.037990
Zr14	Zr	0.595231	0.537871	0.081233
Zr15	Zr	0.599754	0.528816	-0.081161
Zr16	Zr	0.467317	0.537885	0.081212
Zr17	Zr	0.471860	0.656732	-0.081196
Zr18	Zr	0.595212	0.409969	0.081247
O19	O	0.572234	0.637850	0.050931
O20	O	0.578665	0.624975	-0.179972
O21	O	0.390357	0.637870	0.050902
O22	O	0.670282	0.441706	0.180052
O23	O	0.676714	0.428831	-0.050852
O24	O	0.488406	0.441726	0.180023
O25	O	0.676729	0.530497	-0.050863
O26	O	0.568623	0.543383	0.180024
O27	O	0.488421	0.543391	0.180012
O28	O	0.673893	0.536174	0.050959
O29	O	0.498475	0.705179	-0.179994
O30	O	0.568596	0.361522	0.180045
O31	O	0.670271	0.361511	0.180061
O32	O	0.673866	0.354314	0.050979
O33	O	0.393205	0.712388	-0.050928
O34	O	0.494880	0.712377	-0.050912
O35	O	0.560279	0.479854	0.114020
O36	O	0.622250	0.475611	0.038041
O37	O	0.564530	0.591078	-0.037971
O38	O	0.502559	0.595321	0.038008
C39	C	0.533512	0.373365	0.000043
C40	C	0.533504	0.319067	0.000049
C41	C	0.373535	0.533368	-0.000000
C42	C	0.319233	0.533374	-0.000009
C43	C	0.576157	0.043306	0.056135
C44	C	0.576151	0.094328	0.056138
O45	O	0.612402	0.085806	0.103840
N46	N	0.533530	0.160895	0.000034
C47	C	0.490915	0.176441	-0.056081
O48	O	0.454661	0.237747	-0.103802
C49	C	0.490923	0.125419	-0.056086
C50	C	0.533544	0.058852	0.000026
C51	C	0.618774	-0.023259	0.112242
C52	C	0.618779	-0.074277	0.112240
C53	C	0.576166	-0.058731	0.056130
C54	C	0.533548	0.007833	0.000024
C55	C	0.448311	0.140965	-0.112204
C56	C	0.448324	0.089936	-0.112204
C57	C	0.490944	0.023368	-0.056092
C58	C	0.490940	-0.027639	-0.056088
N59	N	0.533562	-0.094207	0.000016
C60	C	0.576175	-0.109753	0.056125
C61	C	0.490900	0.283587	-0.056066
C62	C	0.490889	0.334609	-0.056058
C63	C	0.576126	0.252492	0.056160
C64	C	0.576135	0.201470	0.056155
C65	C	0.533522	0.217019	0.000038
C66	C	0.576181	-0.216892	0.056116
C67	C	0.576180	-0.267911	0.056111
C68	C	0.490945	-0.185790	-0.056109
C69	C	0.490944	-0.134775	-0.056102
C70	C	0.533567	-0.150331	0.000014
O71	O	0.454709	-0.019168	-0.103767
O72	O	0.612426	-0.171060	0.103832
C73	C	0.012662	0.473068	0.039723
C74	C	-0.038356	0.473064	0.039730
O75	O	-0.039121	0.421806	0.073497
N76	N	-0.094002	0.533336	0.000052
C77	C	-0.098629	0.593616	-0.039629
O78	O	-0.150644	0.644881	-0.073377
C79	C	-0.047611	0.593619	-0.039630
C80	C	0.008035	0.533343	0.000044
C81	C	0.068305	0.412797	0.079395
C82	C	0.119320	0.412800	0.079387
C83	C	0.114692	0.473075	0.039707
C84	C	0.059050	0.533346	0.000036
C85	C	-0.052238	0.653898	-0.079306
C86	C	-0.001214	0.653896	-0.079304
C87	C	0.054431	0.593620	-0.039630
C88	C	0.105437	0.593625	-0.039652
N89	N	0.161083	0.533353	0.000026
C90	C	0.165710	0.473078	0.039706
C91	C	-0.205767	0.593605	-0.039621
C92	C	-0.256785	0.593603	-0.039624
C93	C	-0.196509	0.473051	0.039736
C94	C	-0.145491	0.473054	0.039735
C95	C	-0.150122	0.533333	0.000057
C96	C	0.272843	0.473090	0.039685
C97	C	0.323860	0.473099	0.039671
C98	C	0.263580	0.593650	-0.039686
C99	C	0.212567	0.593642	-0.039675
C100	C	0.217203	0.533356	0.000016
O101	O	0.106247	0.644857	-0.073399
O102	O	0.217728	0.421821	0.073456
C103	C	0.693536	0.533333	0.000051
C104	C	0.747839	0.533327	0.000060
C105	C	0.539194	0.522024	-0.203105
C106	C	0.541114	0.518180	-0.272045
C107	C	0.533560	0.693337	0.000008
C108	C	0.533568	0.747635	0.000002
C109	C	0.511888	0.576645	-0.344111
C110	C	0.513700	0.573029	-0.408885
C111	C	0.544735	0.510948	-0.401592
C112	C	0.573964	0.452478	-0.329519
C113	C	0.572155	0.456095	-0.264747
C114	C	0.553378	0.493668	-0.591058
C115	C	0.555183	0.490056	-0.655838
C116	C	0.494920	0.610608	-0.735200
C117	C	0.493111	0.614219	-0.670422
C118	C	0.522343	0.555749	-0.598355
N119	N	0.546586	0.507250	-0.467801
N120	N	0.520495	0.559448	-0.532148
C121	C	0.527878	0.544677	0.203156
C122	C	0.525957	0.548521	0.272096
C123	C	0.693512	0.373347	0.000069
C124	C	0.747807	0.319043	0.000083
C125	C	0.527854	0.384691	0.203174
C126	C	0.525926	0.334237	0.272120
C127	C	0.687854	0.384674	0.203199
C128	C	0.740229	0.334214	0.272154
C129	C	0.379217	0.682028	-0.203148
C130	C	0.326843	0.732487	-0.272103
C131	C	0.373559	0.693354	-0.000018
C132	C	0.319264	0.747658	-0.000033
C133	C	0.539217	0.682010	-0.203123
C134	C	0.541146	0.732464	-0.272069
C135	C	0.743166	0.291333	-0.039587
C136	C	0.794177	0.240315	-0.039588
C137	C	0.849828	0.217005	0.000086
C138	C	0.854468	0.244721	0.039757
C139	C	0.803458	0.295741	0.039753
C140	C	0.555158	0.312752	0.344175
C141	C	0.553344	0.265353	0.408964
C142	C	0.522300	0.239436	0.401696
C143	C	0.493064	0.260926	0.329634
C144	C	0.494875	0.308328	0.264846
C145	C	0.797178	0.308303	0.264876
C146	C	0.846394	0.260897	0.329661
C147	C	0.838660	0.239401	0.401723
C148	C	0.781705	0.265317	0.408999
C149	C	0.732490	0.312725	0.344215
C150	C	0.269894	0.758405	-0.264825
C151	C	0.220677	0.805826	-0.329610
C152	C	0.228411	0.827325	-0.401672
C153	C	0.285366	0.801406	-0.408948
C154	C	0.334581	0.753989	-0.344165
C155	C	0.323906	0.775373	0.039631
C156	C	0.272895	0.826404	0.039614
C157	C	0.217244	0.849716	-0.000062
C158	C	0.212604	0.821998	-0.039730
C159	C	0.263614	0.770971	-0.039717
C160	C	0.572195	0.758366	-0.264777
C161	C	0.574018	0.805766	-0.329554
C162	C	0.544789	0.827267	-0.401621
C163	C	0.513738	0.801360	-0.408912
C164	C	0.511919	0.753957	-0.344136
H165	H	0.610888	-0.322115	0.101807
H166	H	0.467788	0.239817	0.323727
C167	C	0.520313	0.187293	0.472964
H168	H	0.497635	0.174935	0.458321
H169	H	0.559299	0.149122	0.502278
H170	H	0.502768	0.205662	0.502257
C171	C	0.293869	0.825050	-0.488217
H172	H	0.334834	0.802828	-0.483281
H173	H	0.276004	0.815190	-0.515128
H174	H	0.276021	0.871721	-0.515142
C175	C	0.773202	0.241668	0.488268
H176	H	0.732237	0.263891	0.483332
H177	H	0.791058	0.195000	0.515191
H178	H	0.791061	0.251536	0.515181
H179	H	0.577181	0.446058	-0.532386
H180	H	0.471072	0.325814	0.206178
H181	H	0.072084	0.363711	0.111711
C182	C	0.623019	0.128250	0.117874
H183	H	0.648396	0.126306	0.151286
H184	H	0.604103	0.108043	0.145579
H185	H	0.645494	0.105233	0.094830
C186	C	0.261375	0.734772	-0.185566
H187	H	0.220406	0.757011	-0.190520
H188	H	0.279217	0.688105	-0.158632
H189	H	0.279235	0.744637	-0.158652
C190	C	0.892800	0.187247	0.472978
H191	H	0.927823	0.174892	0.458316
H192	H	0.891998	0.205596	0.502287
H193	H	0.891986	0.149069	0.502284
C194	C	-0.006312	0.720205	-0.122955
H195	H	-0.046760	0.756098	-0.146585
H196	H	0.011342	0.724715	-0.088723
H197	H	0.013331	0.720712	-0.160500
C198	C	-0.113439	0.720202	-0.122939
H199	H	-0.143167	0.711578	-0.117263
H200	H	-0.118446	0.746959	-0.103347
H201	H	-0.116464	0.742971	-0.175133
C202	C	0.158035	0.834323	-0.321592
H203	H	0.160482	0.814716	-0.269395
H204	H	0.137493	0.881174	-0.345208
H205	H	0.137487	0.824646	-0.345217
H206	H	0.167286	0.840986	-0.072033
C207	C	0.608101	0.384190	-0.321496
H208	H	0.604987	0.390408	-0.370393
H209	H	0.648451	0.360012	-0.294571
H210	H	0.591912	0.360023	-0.294582
C211	C	0.805697	0.331942	0.185616
H212	H	0.846665	0.309721	0.190571
H213	H	0.787844	0.322080	0.158693
H214	H	0.787846	0.378613	0.158692
H215	H	0.175713	0.891265	-0.000066
C216	C	0.258505	0.740480	-0.083339
H217	H	0.296851	0.706753	-0.077657
H218	H	0.236751	0.721680	-0.063746
H219	H	0.238763	0.774202	-0.135535
H220	H	0.595998	0.740868	-0.206102
C221	C	0.608167	0.834263	-0.321520
H222	H	0.625303	0.814676	-0.269321
H223	H	0.638397	0.824580	-0.345123
H224	H	0.581860	0.881119	-0.345151
H225	H	0.188332	0.865935	-0.454417
C226	C	0.397222	0.725476	-0.352180
H227	H	0.394774	0.745069	-0.404377
H228	H	0.417781	0.735143	-0.328560
H229	H	0.417754	0.678623	-0.328560
C230	C	0.909037	0.232391	0.321643
H231	H	0.906589	0.251977	0.269446
H232	H	0.929589	0.242070	0.345253
H233	H	0.929574	0.185536	0.345273
H234	H	-0.100185	0.423972	0.072048
C235	C	0.669849	0.341215	0.352231
H236	H	0.672297	0.321614	0.404428
H237	H	0.649300	0.388067	0.328605
H238	H	0.649308	0.331525	0.328617
C239	C	0.477753	0.725479	-0.352163
H240	H	0.480852	0.694166	-0.303268
H241	H	0.437407	0.760620	-0.379094
H242	H	0.493928	0.704071	-0.379074
H243	H	0.369215	0.756397	0.071945
H244	H	-0.192748	0.423972	0.072043
C245	C	0.278009	0.856878	0.083259
H246	H	0.318459	0.835675	0.106900
H247	H	0.260374	0.903137	0.049022
H248	H	0.258357	0.850609	0.120796
C249	C	0.462770	0.674920	-0.814469
H250	H	0.444025	0.712410	-0.809535
H251	H	0.490488	0.676014	-0.841383
H252	H	0.433952	0.676018	-0.841391
H253	H	0.489941	0.818873	-0.467598
H254	H	0.456176	0.388808	-0.101742
C255	C	0.546791	0.879411	-0.472870
H256	H	0.524940	0.888506	-0.516839
H257	H	0.530074	0.919214	-0.472874
H258	H	0.586601	0.862672	-0.472856
C259	C	0.623061	-0.234009	0.117848
H260	H	0.648436	-0.280962	0.151263
H261	H	0.645531	-0.217227	0.094820
H262	H	0.604132	-0.214406	0.145558
H263	H	0.653487	-0.128476	0.157930
C264	C	0.401433	0.214179	-0.173934
H265	H	0.376065	0.216118	-0.207353
H266	H	0.378956	0.237210	-0.150909
H267	H	0.420360	0.234374	-0.201640
C268	C	0.905934	0.160879	0.000091
H269	H	0.895194	0.147712	-0.029212
H270	H	0.929616	0.176405	-0.021143
H271	H	0.927600	0.123882	0.050638
H272	H	-0.302090	0.642685	-0.071940
H273	H	0.580438	0.333849	0.350107
H274	H	0.610824	0.239841	0.101848
C275	C	0.665649	-0.040371	0.173972
H276	H	0.691025	-0.087324	0.207384
H277	H	0.688119	-0.023587	0.150947
H278	H	0.646720	-0.020770	0.201684
H279	H	0.456195	0.296258	-0.101763
H280	H	0.899786	0.225734	0.072057
C281	C	0.401445	0.107045	-0.173931
H282	H	0.376061	0.153998	-0.207340
H283	H	0.420367	0.087440	-0.201639
H284	H	0.378977	0.090261	-0.150889
H285	H	0.595954	0.408486	-0.206068
H286	H	0.456223	-0.080570	-0.101774
H287	H	0.369169	0.424013	0.071981
C288	C	0.444078	-0.168700	-0.117828
H289	H	0.450193	-0.208623	-0.109794
H290	H	0.405868	-0.142059	-0.115520
H291	H	0.447270	-0.144883	-0.166254
C292	C	0.681955	0.316969	-0.083232
H293	H	0.652234	0.351321	-0.077554
H294	H	0.678937	0.333965	-0.135420
H295	H	0.676929	0.281433	-0.063640
C296	C	0.180524	0.346496	0.123038
H297	H	0.175964	0.310604	0.146674
H298	H	0.202682	0.341982	0.088807
H299	H	0.200679	0.345993	0.160579
C300	C	0.277949	0.406778	0.083339
H301	H	0.318398	0.370887	0.106956
H302	H	0.258307	0.406263	0.120882
H303	H	0.260298	0.402269	0.049099
H304	H	0.167258	0.642723	-0.071991
C305	C	0.481549	0.637341	-0.488155
H306	H	0.462800	0.674832	-0.483221
H307	H	0.509266	0.638438	-0.515069
H308	H	0.452733	0.638436	-0.515076
C309	C	0.458972	0.682508	-0.678449
H310	H	0.441828	0.716811	-0.730647
H311	H	0.428748	0.686425	-0.654836
H312	H	0.485283	0.686423	-0.654825
C313	C	-0.210868	0.659916	-0.083281
H314	H	-0.251316	0.695806	-0.106914
H315	H	-0.193218	0.664432	-0.049053
H316	H	-0.191223	0.660421	-0.120824
H317	H	0.807244	0.318297	0.072062
C318	C	0.585511	0.241717	0.488223
H319	H	0.604267	0.263935	0.483266
H320	H	0.557801	0.251587	0.515142
H321	H	0.614323	0.195046	0.515152
H322	H	0.259822	0.642724	-0.071994
H323	H	0.486612	0.627199	-0.350058
C324	C	0.589324	0.421765	-0.647817
H325	H	0.586207	0.427988	-0.696717
H326	H	0.629675	0.397589	-0.620896
H327	H	0.573139	0.397593	-0.620902
H328	H	0.790388	0.217755	-0.071893
