data_functionalizedCrystal
_audit_creation_method	'MofGen! by Chris Wilmer'
_symmetry_space_group_name_H-M	'P1'
_symmetry_Int_Tables_number	1
_symmetry_cell_setting	triclinic
loop_
_symmetry_equiv_pos_as_xyz
  x,y,z
_cell_length_a	18.215407
_cell_length_b	19.121449
_cell_length_c	18.215399
_cell_angle_alpha	92.467880
_cell_angle_beta	90.017368
_cell_angle_gamma	87.582680
loop_
_atom_site_label
_atom_site_type_symbol
_atom_site_fract_x
_atom_site_fract_y
_atom_site_fract_z
Zn1	Zn	1.137565	-0.279665	0.403573
Zn2	Zn	1.142720	-0.397118	0.275259
Zn3	Zn	1.014498	-0.279682	0.280525
Zn4	Zn	1.019708	-0.397073	0.398292
O5	O	1.078623	-0.338384	0.339412
O6	O	1.241233	-0.295257	0.386559
O7	O	1.125688	-0.381566	0.172972
O8	O	1.026485	-0.181396	0.301261
O9	O	1.245021	-0.381550	0.292287
O10	O	1.116902	-0.181384	0.391664
O11	O	1.031484	-0.295286	0.176841
O12	O	0.912204	-0.295242	0.296140
O13	O	1.035365	-0.381472	0.501978
O14	O	0.916032	-0.381489	0.382663
O15	O	1.121954	-0.295213	0.505858
O16	O	1.130740	-0.495395	0.287166
O17	O	1.040363	-0.495362	0.377557
C18	C	0.887415	-0.338363	0.339400
C19	C	0.805617	-0.338370	0.339412
C20	C	1.086696	-0.520862	0.331233
C21	C	1.090217	-0.598927	0.327759
C22	C	0.615454	-0.293531	0.388569
C23	C	0.538595	-0.293537	0.388571
C24	C	0.542544	-0.383258	0.290267
C25	C	0.619401	-0.383248	0.290262
C26	C	0.655854	-0.338385	0.339417
C27	C	0.502139	-0.338401	0.339425
C28	C	0.418805	-0.338408	0.339427
C29	C	0.739193	-0.338377	0.339414
C30	C	1.044785	-0.635610	0.373149
C31	C	1.048097	-0.708961	0.369882
C32	C	1.096845	-0.745626	0.321226
C33	C	1.142279	-0.708938	0.275831
C34	C	1.138963	-0.635589	0.279095
C35	C	1.109210	-0.967092	0.309014
C36	C	1.112524	-1.040446	0.305755
C37	C	1.018341	-1.040464	0.399805
C38	C	1.015032	-0.967113	0.403068
C39	C	1.060463	-0.930431	0.357670
C40	C	1.100233	-0.820602	0.317887
C41	C	1.057071	-0.855457	0.361006
C42	C	1.270576	-0.338407	0.339425
C43	C	1.352376	-0.338416	0.339430
C44	C	1.078665	-0.338336	0.531367
C45	C	1.078683	-0.338315	0.613167
C46	C	1.070537	-0.155194	0.347639
C47	C	1.067092	-0.077129	0.351145
C48	C	1.078620	-0.338382	0.148206
C49	C	1.078736	-0.338205	0.066416
C50	C	1.123785	-0.293358	0.803385
C51	C	1.123793	-0.293338	0.880244
C52	C	1.033629	-0.383164	0.876192
C53	C	1.033617	-0.383180	0.799334
C54	C	1.078700	-0.338278	0.762932
C55	C	1.078719	-0.338242	0.916650
C56	C	1.078727	-0.338220	0.999985
C57	C	1.078691	-0.338299	0.679593
H58	H	0.505705	-0.257010	0.428595
H59	H	0.512855	-0.419784	0.250247
H60	H	0.645131	-0.256998	0.428592
H61	H	1.160492	-0.256794	0.773749
H62	H	0.652296	-0.419775	0.250232
O63	O	0.997370	-0.600105	0.420435
C64	C	0.957995	-0.648215	0.459811
H65	H	0.957826	-0.700521	0.427334
H66	H	0.985266	-0.655962	0.515380
C67	C	0.878581	-0.555407	0.511514
C68	C	0.878368	-0.619648	0.471623
H69	H	0.829464	-0.537785	0.518804
H70	H	0.905109	-0.522994	0.484989
H71	H	0.901310	-0.561871	0.557818
H72	H	0.855647	-0.613182	0.425317
H73	H	0.851833	-0.652060	0.498141
H74	H	1.011095	-0.738825	0.406837
H75	H	0.975338	-0.937262	0.442687
H76	H	1.139925	-0.850463	0.278272
H77	H	0.981353	-1.070338	0.436765
O78	O	1.167481	-0.249626	0.919574
C79	C	1.123584	-0.204258	0.966073
H80	H	1.065427	-0.199924	0.943097
H81	H	1.122017	-0.225955	1.023348
C82	C	1.227740	-0.136571	0.998752
C83	C	1.156312	-0.131243	0.970529
H84	H	1.247930	-0.091532	1.001504
H85	H	1.257315	-0.167137	0.967427
H86	H	1.226425	-0.154654	1.046479
H87	H	1.157630	-0.113168	0.922800
H88	H	1.126738	-0.100672	1.001846
H89	H	1.146203	-0.937231	0.272050
H90	H	1.152225	-1.070297	0.266134
O91	O	1.189703	-0.744589	0.228665
C92	C	1.239117	-0.786969	0.268710
H93	H	1.242644	-0.764824	0.327660
H94	H	1.218866	-0.842573	0.268757
C95	C	1.311352	-0.815264	0.160356
C96	C	1.315689	-0.788061	0.232758
H97	H	1.358585	-0.815941	0.138178
H98	H	1.278060	-0.786714	0.133375
H99	H	1.294474	-0.861599	0.160405
H100	H	1.332558	-0.741725	0.232707
H101	H	1.348986	-0.816604	0.259737
O102	O	0.989884	-0.426881	0.911470
C103	C	1.009070	-0.496886	0.889558
H104	H	1.037414	-0.498355	0.833691
H105	H	1.047959	-0.520535	0.931755
C106	C	0.904391	-0.537622	0.952702
C107	C	0.939199	-0.539426	0.884083
H108	H	0.861293	-0.563864	0.949328
H109	H	0.891467	-0.490458	0.967468
H110	H	0.936807	-0.557328	0.987859
H111	H	0.906787	-0.519712	0.848929
H112	H	0.952117	-0.586588	0.869311
O113	O	1.183170	-0.600061	0.234974
C114	C	1.226894	-0.648149	0.191316
H115	H	1.231792	-0.700413	0.219137
H116	H	1.200327	-0.656011	0.135052
C117	C	1.297909	-0.555268	0.147876
C118	C	1.303931	-0.619457	0.182050
H119	H	1.345429	-0.537569	0.142157
H120	H	1.268450	-0.522869	0.177287
H121	H	1.275768	-0.561828	0.100993
H122	H	1.326063	-0.612895	0.228935
H123	H	1.333396	-0.651855	0.152647
O124	O	0.989924	-0.426854	0.759951
C125	C	1.033823	-0.472239	0.713472
H126	H	1.088499	-0.447475	0.703083
H127	H	1.044210	-0.524283	0.740751
C128	C	0.926730	-0.515378	0.652645
C129	C	0.993883	-0.484960	0.639880
H130	H	0.902093	-0.523229	0.607251
H131	H	0.897154	-0.484804	0.683960
H132	H	0.935396	-0.558745	0.675379
H133	H	0.985215	-0.441590	0.617155
H134	H	1.023457	-0.515528	0.608559
H135	H	1.017378	-0.825602	0.400618
