data_functionalizedCrystal
_audit_creation_method	'MofGen! by Chris Wilmer'
_symmetry_space_group_name_H-M	'P1'
_symmetry_Int_Tables_number	1
_symmetry_cell_setting	triclinic
loop_
_symmetry_equiv_pos_as_xyz
  x,y,z
_cell_length_a	12.477989
_cell_length_b	21.606444
_cell_length_c	21.606444
_cell_angle_alpha	60.001331
_cell_angle_beta	90.001935
_cell_angle_gamma	64.368266
loop_
_atom_site_label
_atom_site_type_symbol
_atom_site_fract_x
_atom_site_fract_y
_atom_site_fract_z
Zr1	Zr	0.973019	0.750832	-0.117888
O2	O	0.811730	0.867791	-0.210630
O3	O	1.022465	0.625441	-0.089461
O4	O	1.022452	0.754564	-0.218579
O5	O	0.811751	0.738664	0.020342
O6	O	1.188671	0.767100	-0.224846
O7	O	0.811743	0.738668	-0.081512
O8	O	1.188694	0.536123	0.006122
O9	O	0.811728	0.969642	-0.210626
O10	O	1.167599	0.689494	-0.082011
O11	O	1.043557	0.680137	-0.001321
O12	O	1.043542	0.832162	-0.153341
O13	O	0.919500	0.822804	-0.072651
Zr14	Zr	1.238134	0.770819	0.034561
Zr15	Zr	1.238120	0.770825	-0.127884
Zr16	Zr	0.973033	0.750826	0.044557
Zr17	Zr	0.973016	0.913272	-0.117883
Zr18	Zr	1.238137	0.608379	0.034556
O19	O	1.188688	0.896210	0.006134
O20	O	1.188669	0.896218	-0.224842
O21	O	0.811749	0.867782	0.020346
O22	O	1.399423	0.653860	0.127302
O23	O	1.399404	0.653869	-0.103674
O24	O	1.022484	0.625433	0.141515
O25	O	1.399402	0.782987	-0.103669
O26	O	1.188701	0.767087	0.135252
O27	O	1.022482	0.754551	0.141519
O28	O	1.399410	0.782983	-0.001815
O29	O	1.022448	0.985533	-0.218571
O30	O	1.188705	0.536118	0.135244
O31	O	1.399425	0.552009	0.127299
O32	O	1.399414	0.552014	-0.001823
O33	O	0.811739	0.969637	-0.081504
O34	O	1.022459	0.985528	-0.089449
O35	O	1.167611	0.689489	0.070014
O36	O	1.291653	0.698847	-0.010676
O37	O	1.167596	0.841514	-0.082006
O38	O	1.043554	0.832157	-0.001316
C39	C	1.105580	0.557638	-0.041670
C40	C	1.105581	0.488678	-0.041673
C41	C	0.773976	0.735818	-0.029161
C42	C	0.661433	0.727330	-0.024917
C43	C	1.170327	0.461165	-0.083793
C44	C	1.170331	0.396365	-0.083788
C45	C	1.105582	0.359083	-0.041666
C46	C	1.040834	0.386599	0.000459
C47	C	1.040838	0.451394	0.000457
C48	C	1.040820	0.125289	0.000466
C49	C	1.040818	0.060491	0.000462
C50	C	1.170313	0.070260	-0.083780
C51	C	1.170317	0.135055	-0.083781
C52	C	1.105575	0.162562	-0.041653
C53	C	1.105573	0.232824	-0.041658
C54	C	1.105576	0.288826	-0.041665
C55	C	1.437177	0.785833	-0.054167
C56	C	1.549720	0.794321	-0.058410
C57	C	1.105560	0.760833	-0.244858
C58	C	1.105554	0.760836	-0.313820
C59	C	1.105573	0.964013	-0.041657
C60	C	1.105572	1.032973	-0.041655
C61	C	1.040797	0.835306	-0.383452
C62	C	1.040808	0.835304	-0.448247
C63	C	1.105569	0.760831	-0.443408
C64	C	1.170334	0.686355	-0.373769
C65	C	1.170330	0.686358	-0.308975
C66	C	1.170353	0.686341	-0.635073
C67	C	1.170350	0.686344	-0.699873
C68	C	1.040831	0.835288	-0.774344
C69	C	1.040827	0.835291	-0.709551
C70	C	1.105597	0.760816	-0.639918
C71	C	1.105587	0.760818	-0.569660
C72	C	1.105573	0.760827	-0.513664
C73	C	1.105593	0.760818	0.161530
C74	C	1.105599	0.760816	0.230493
C75	C	1.437181	0.582646	-0.054173
C76	C	1.549724	0.522173	-0.058419
C77	C	1.105597	0.557630	0.161524
C78	C	1.105604	0.488668	0.230484
C79	C	1.437198	0.582638	0.149021
C80	C	1.549747	0.522163	0.213737
C81	C	0.773955	0.939013	-0.232348
C82	C	0.661406	0.999488	-0.297064
C83	C	0.773972	0.939005	-0.029154
C84	C	0.661429	0.999478	-0.024908
C85	C	1.105556	0.964021	-0.244851
C86	C	1.105549	1.032983	-0.313811
C87	C	1.537821	0.488893	-0.097656
C88	C	1.643558	0.432080	-0.101660
C89	C	1.761196	0.408545	-0.066422
C90	C	1.773097	0.441832	-0.027184
C91	C	1.667362	0.498648	-0.023185
C92	C	1.170362	0.461164	0.300111
C93	C	1.170364	0.396375	0.364912
C94	C	1.105614	0.359087	0.360085
C95	C	1.040848	0.386597	0.290450
C96	C	1.040839	0.451388	0.225650
C97	C	1.667361	0.498649	0.202009
C98	C	1.773123	0.441836	0.262811
C99	C	1.761268	0.408534	0.335339
C100	C	1.643642	0.432053	0.347066
C101	C	1.537883	0.488870	0.286266
C102	C	0.543792	1.023010	-0.285336
C103	C	0.438030	1.079843	-0.346138
C104	C	0.449884	1.113149	-0.418667
C105	C	0.567511	1.089625	-0.430394
C106	C	0.673270	1.032797	-0.369593
C107	C	0.673332	1.032765	0.014322
C108	C	0.567595	1.089595	0.018308
C109	C	0.449957	1.113133	-0.016932
C110	C	0.438056	1.079843	-0.056167
C111	C	0.543791	1.023018	-0.060157
C112	C	1.170312	1.070252	-0.308959
C113	C	1.170329	1.135043	-0.373749
C114	C	1.105577	1.162568	-0.443389
C115	C	1.040812	1.125293	-0.448239
C116	C	1.040802	1.060499	-0.383451
H117	H	1.223047	0.491519	-0.118096
H118	H	1.223108	0.373985	0.421605
Br119	Br	1.105637	0.271155	0.448036
Br120	Br	0.677350	0.620904	0.028287
H121	H	0.988087	0.895934	-0.713498
H122	H	1.633843	0.404985	-0.133611
Br123	Br	1.378268	0.520771	0.302196
H124	H	1.223053	0.373964	-0.118084
Br125	Br	1.683539	0.543803	0.030074
Br126	Br	0.832971	1.000838	0.062152
H127	H	1.223093	0.625699	-0.578383
H128	H	1.223070	0.625718	-0.369834
H129	H	1.847283	0.362281	-0.069684
Br130	Br	0.533803	0.900742	-0.111626
H131	H	1.223090	0.625695	-0.695925
H132	H	0.988108	0.147674	0.034772
Br133	Br	1.258184	0.185653	-0.140953
H134	H	0.342264	1.098986	-0.336575
Br135	Br	1.258225	1.185620	-0.367149
H136	H	0.363758	1.159421	-0.468168
Br137	Br	1.932742	0.409927	0.246878
Br138	Br	0.952897	0.936382	-0.390028
Br139	Br	0.952890	1.009934	-0.390048
H140	H	1.223061	0.625716	-0.252278
Br141	Br	1.258201	1.032912	-0.214456
Br142	Br	0.583776	1.134760	0.071560
Br143	Br	0.527614	0.977845	-0.113399
Br144	Br	1.378182	0.520822	-0.145488
H145	H	1.868893	0.422661	0.001504
H146	H	1.223034	0.047855	-0.118080
H147	H	0.988089	0.030137	0.034765
H148	H	0.363870	1.159404	-0.013677
Br149	Br	1.904813	0.331426	0.417848
Br150	Br	0.952920	0.936376	-0.542748
H151	H	0.988110	0.473773	0.168959
Br152	Br	0.952927	1.162665	-0.542757
Br153	Br	1.627575	0.386850	0.445504
Br154	Br	0.278393	1.111793	-0.103987
Br155	Br	0.952928	0.936363	-0.868851
Br156	Br	1.683483	0.543838	0.103584
H157	H	1.223089	0.491517	0.304056
Br158	Br	0.527670	0.977819	-0.186911
Br159	Br	0.952979	0.335982	0.283911
H160	H	0.988121	0.356235	0.034759
Br161	Br	0.583578	1.134832	-0.528831
H162	H	0.769034	1.013646	-0.379151
H163	H	0.988112	0.473795	0.034754
H164	H	1.105594	1.215328	-0.496139
