data_functionalizedCrystal
_audit_creation_method	'MofGen! by Chris Wilmer'
_symmetry_space_group_name_H-M	'P1'
_symmetry_Int_Tables_number	1
_symmetry_cell_setting	triclinic
loop_
_symmetry_equiv_pos_as_xyz
  x,y,z
_cell_length_a	16.625548
_cell_length_b	21.295417
_cell_length_c	16.625539
_cell_angle_alpha	90.033373
_cell_angle_beta	90.020568
_cell_angle_gamma	90.031575
loop_
_atom_site_label
_atom_site_type_symbol
_atom_site_fract_x
_atom_site_fract_y
_atom_site_fract_z
Zn1	Zn	1.232635	-0.250590	0.455881
Zn2	Zn	1.732635	0.249410	0.955881
Zn3	Zn	1.232520	-0.355864	0.321036
Zn4	Zn	1.732520	0.144136	0.821036
Zn5	Zn	1.097797	-0.250614	0.321061
Zn6	Zn	1.597797	0.249386	0.821061
Zn7	Zn	1.097749	-0.355827	0.455826
Zn8	Zn	1.597749	0.144173	0.955826
O9	O	1.165175	-0.303224	0.388451
O10	O	1.665175	0.196776	0.888451
O11	O	1.345452	-0.264560	0.438006
O12	O	1.845452	0.235440	0.938006
O13	O	1.214620	-0.341927	0.208207
O14	O	1.714620	0.158073	0.708207
O15	O	1.115753	-0.162522	0.338979
O16	O	1.615753	0.337478	0.838979
O17	O	1.345367	-0.341904	0.338936
O18	O	1.845367	0.158096	0.838936
O19	O	1.214818	-0.162504	0.438030
O20	O	1.714818	0.337496	0.938030
O21	O	1.115640	-0.264601	0.208226
O22	O	1.615640	0.235399	0.708226
O23	O	0.984958	-0.264566	0.338926
O24	O	1.484958	0.235434	0.838926
O25	O	1.115670	-0.341842	0.568666
O26	O	1.615670	0.158158	1.068666
O27	O	0.984923	-0.341866	0.437937
O28	O	1.484923	0.158134	0.937937
O29	O	1.214771	-0.264525	0.568706
O30	O	1.714771	0.235475	1.068706
O31	O	1.214573	-0.443948	0.338883
O32	O	1.714573	0.056052	0.838883
O33	O	1.115558	-0.443922	0.437912
O34	O	1.615558	0.056078	0.937912
C35	C	0.955684	-0.303215	0.388429
C36	C	1.455684	0.196785	0.888429
C37	C	0.866063	-0.303226	0.388438
C38	C	1.366063	0.196774	0.888438
C39	C	0.537888	-0.303230	0.388473
C40	C	1.037888	0.196770	0.888473
C41	C	0.629196	-0.303227	0.388460
C42	C	1.129196	0.196773	0.888460
C43	C	0.701973	-0.303229	0.388455
C44	C	1.201973	0.196771	0.888455
C45	C	0.793287	-0.303225	0.388444
C46	C	1.293287	0.196775	0.888444
C47	C	1.165070	-0.466775	0.388407
C48	C	1.665070	0.033225	0.888407
C49	C	1.165098	-0.536744	0.388414
C50	C	1.665098	-0.036744	0.888414
C51	C	1.216701	-0.569603	0.336903
C52	C	1.716701	-0.069603	0.836903
C53	C	1.216739	-0.635346	0.336921
C54	C	1.716739	-0.135346	0.836921
C55	C	1.165159	-0.668226	0.388442
C56	C	1.665159	-0.168226	0.888442
C57	C	1.113552	-0.635359	0.439964
C58	C	1.613552	-0.135359	0.939964
C59	C	1.113522	-0.569617	0.439950
C60	C	1.613522	-0.069617	0.939950
N61	N	1.094624	-0.771493	0.394581
N62	N	1.594624	-0.271493	0.894581
N63	N	1.094656	-0.833944	0.394590
N64	N	1.594656	-0.333944	0.894590
C65	C	1.165250	-0.866301	0.388488
C66	C	1.665250	-0.366301	0.888488
N67	N	1.235813	-0.833847	0.382362
N68	N	1.735813	-0.333847	0.882362
N69	N	1.235780	-0.771389	0.382350
N70	N	1.735780	-0.271389	0.882350
C71	C	1.165187	-0.739511	0.388463
C72	C	1.665187	-0.239511	0.888463
C73	C	1.216898	-0.970446	0.336994
C74	C	1.716898	-0.470446	0.836994
C75	C	1.216937	-1.036189	0.337017
C76	C	1.716937	-0.536189	0.837017
C77	C	1.113743	-1.036201	0.440056
C78	C	1.613743	-0.536201	0.940056
C79	C	1.113711	-0.970459	0.440037
C80	C	1.613711	-0.470459	0.940037
C81	C	1.165288	-0.937585	0.388501
C82	C	1.665288	-0.437585	0.888501
C83	C	1.375484	-0.303233	0.388474
C84	C	1.875484	0.196767	0.888474
C85	C	1.465105	-0.303237	0.388484
C86	C	1.965105	0.196763	0.888484
C87	C	1.165228	-0.303177	0.598760
C88	C	1.665228	0.196823	1.098760
C89	C	1.165250	-0.303157	0.688381
C90	C	1.665250	0.196843	1.188381
C91	C	1.165303	-0.139033	0.388514
C92	C	1.665303	0.360967	0.888514
C93	C	1.165358	-0.069065	0.388540
C94	C	1.665358	0.430935	0.888540
C95	C	1.165169	-0.303225	0.178960
C96	C	1.665169	0.196775	0.678960
C97	C	1.165303	-0.303068	0.089340
C98	C	1.665303	0.196932	0.589340
C99	C	1.165287	-0.303086	1.016557
C100	C	1.665287	0.196914	1.516557
C101	C	1.165275	-0.303108	0.925249
C102	C	1.665275	0.196892	1.425249
C103	C	1.165269	-0.303122	0.852472
C104	C	1.665269	0.196878	1.352472
C105	C	1.165256	-0.303143	0.761158
C106	C	1.665256	0.196857	1.261158
H107	H	1.258700	-0.542839	0.294941
H108	H	1.758700	-0.042839	0.794941
C109	C	1.273693	-1.072338	0.280343
C110	C	1.773693	-0.572338	0.780343
H111	H	1.266329	-1.116200	0.287735
H112	H	1.766329	-0.616200	0.787735
H113	H	1.261904	-1.061602	0.226159
H114	H	1.761904	-0.561602	0.726159
H115	H	1.327863	-1.061521	0.292181
H116	H	1.827863	-0.561521	0.792181
C117	C	1.056937	-0.934311	0.496690
C118	C	1.556937	-0.434311	0.996690
H119	H	1.026217	-0.963308	0.527373
H120	H	1.526217	-0.463308	1.027373
H121	H	1.087745	-0.908621	0.531846
H122	H	1.587745	-0.408621	1.031846
H123	H	1.021809	-0.908712	0.465800
H124	H	1.521809	-0.408712	0.965800
H125	H	1.071557	-0.662134	0.481915
H126	H	1.571557	-0.162134	0.981915
C127	C	1.057010	-1.072362	0.496733
C128	C	1.557010	-0.572362	0.996733
H129	H	1.064416	-1.116222	0.489363
H130	H	1.564416	-0.616222	0.989363
H131	H	1.068776	-1.061545	0.550915
H132	H	1.568776	-0.561545	1.050915
H133	H	1.002832	-1.061635	0.484877
H134	H	1.502832	-0.561635	0.984877
H135	H	1.258764	-0.662105	0.294974
H136	H	1.758764	-0.162105	0.794974
C137	C	1.273637	-0.934282	0.280317
C138	C	1.773637	-0.434282	0.780317
H139	H	1.304386	-0.963270	0.249648
H140	H	1.804386	-0.463270	0.749648
H141	H	1.242803	-0.908680	0.245149
H142	H	1.742803	-0.408680	0.745149
H143	H	1.308740	-0.908593	0.311194
H144	H	1.808740	-0.408593	0.811194
C145	C	1.056751	-0.533470	0.496611
C146	C	1.556751	-0.033470	0.996611
H147	H	1.026034	-0.562466	0.527297
H148	H	1.526034	-0.062466	1.027297
H149	H	1.087562	-0.507779	0.531763
H150	H	1.587562	-0.007779	1.031763
H151	H	1.021621	-0.507871	0.465722
H152	H	1.521621	-0.007871	0.965722
