data_functionalizedCrystal
_audit_creation_method	'MofGen! by Chris Wilmer'
_symmetry_space_group_name_H-M	'P1'
_symmetry_Int_Tables_number	1
_symmetry_cell_setting	triclinic
loop_
_symmetry_equiv_pos_as_xyz
  x,y,z
_cell_length_a	17.019372
_cell_length_b	17.038272
_cell_length_c	16.776229
_cell_angle_alpha	89.993292
_cell_angle_beta	93.869277
_cell_angle_gamma	87.242864
loop_
_atom_site_label
_atom_site_type_symbol
_atom_site_fract_x
_atom_site_fract_y
_atom_site_fract_z
O1	O	1.053348	0.099573	0.005954
O2	O	0.824539	0.112280	-0.009740
O3	O	0.937584	-0.007887	-0.001980
O4	O	0.940304	0.219741	-0.001806
O5	O	0.937567	-0.007895	0.130596
O6	O	0.824523	0.112273	0.122835
O7	O	1.053332	0.099566	0.138530
Zn8	Zn	0.938925	0.105918	0.151732
Zn9	Zn	0.938946	0.105928	-0.022942
O10	O	0.940287	0.219733	0.130770
C11	C	0.795110	0.111796	0.054530
C12	C	0.707445	0.110354	0.048517
C13	C	0.211627	0.102173	0.010830
C14	C	0.293999	0.103528	0.016490
C15	C	0.335167	0.104207	0.091588
C16	C	0.293960	0.103524	0.161030
C17	C	0.211591	0.102163	0.155368
C18	C	0.583868	0.108310	0.112297
C19	C	0.666243	0.109673	0.117953
C20	C	0.666276	0.109676	-0.026587
C21	C	0.583905	0.108320	-0.032242
C22	C	0.542706	0.107632	0.037200
C23	C	0.419363	0.105595	0.097376
C24	C	0.458511	0.106239	0.031411
C25	C	0.935102	-0.037017	0.064138
C26	C	0.927722	-0.123804	0.063632
C27	C	0.995481	-0.173978	0.068280
C28	C	0.988541	-0.255522	0.067797
C29	C	0.913843	-0.286891	0.062670
C30	C	0.846079	-0.236710	0.058019
C31	C	0.853019	-0.155167	0.058497
C32	C	0.889325	-0.532627	0.060978
C33	C	0.882390	-0.614176	0.060503
C34	C	1.024854	-0.632983	0.070279
C35	C	1.031787	-0.551437	0.070761
C36	C	0.964023	-0.501264	0.066106
C37	C	0.906748	-0.370242	0.062178
C38	C	0.971119	-0.417914	0.066592
C39	C	1.082761	0.100050	0.074258
C40	C	1.170426	0.101492	0.080266
C41	C	0.942769	0.248863	0.064650
C42	C	0.950149	0.335650	0.065151
N43	N	0.938915	0.105911	0.270942
N44	N	0.938961	0.105929	-0.142152
C45	C	0.988989	0.052723	0.316097
C46	C	0.988994	0.052722	0.399549
C47	C	0.938927	0.105914	0.437846
C48	C	0.888848	0.159105	0.392685
C49	C	0.888840	0.159101	0.309234
C50	C	0.888878	0.159120	0.729235
C51	C	0.888891	0.159122	0.812692
C52	C	0.989031	0.052741	0.819550
C53	C	0.989023	0.052737	0.736099
C54	C	0.938941	0.105925	0.690945
C55	C	0.938936	0.105924	0.600456
C56	C	0.938936	0.105919	0.528334
H57	H	0.452892	0.106149	0.158521
H58	H	1.056308	-0.148444	0.072460
F59	F	0.835580	0.215728	0.681185
H60	H	1.043718	-0.296371	0.071584
H61	H	0.699760	0.110231	0.179110
F62	F	1.042331	-0.003870	0.867612
H63	H	1.029762	0.009411	0.284922
H64	H	0.848064	0.202412	0.272470
F65	F	0.540097	0.107598	-0.112171
H66	H	0.821559	-0.639713	0.056341
F67	F	0.167820	0.101456	-0.069101
F68	F	0.337845	0.104250	-0.057414
F69	F	1.111292	-0.518059	0.076197
F70	F	0.817204	-0.479239	0.056021
F71	F	0.540031	0.107594	0.186204
H72	H	1.031938	-0.392371	0.070748
H73	H	1.029767	0.009411	0.436314
F74	F	0.337777	0.104244	0.240955
H75	H	0.848079	0.202413	0.423871
H76	H	1.080023	-0.673842	0.074068
F77	F	0.780900	-0.101768	0.053547
F78	F	0.710130	0.110403	-0.100486
H79	H	1.029794	0.009426	0.704921
F80	F	0.835600	0.215738	0.853448
H81	H	0.178045	0.101617	0.211911
H82	H	0.785257	-0.262257	0.053840
H83	H	0.845928	-0.395791	0.058006
F84	F	0.414696	0.105506	-0.048511
