data_functionalizedCrystal
_audit_creation_method	'MofGen! by Chris Wilmer'
_symmetry_space_group_name_H-M	'P1'
_symmetry_Int_Tables_number	1
_symmetry_cell_setting	triclinic
loop_
_symmetry_equiv_pos_as_xyz
  x,y,z
_cell_length_a	16.109301
_cell_length_b	17.699083
_cell_length_c	15.186229
_cell_angle_alpha	89.995368
_cell_angle_beta	89.999362
_cell_angle_gamma	83.372248
loop_
_atom_site_label
_atom_site_type_symbol
_atom_site_fract_x
_atom_site_fract_y
_atom_site_fract_z
O1	O	1.102963	0.097285	-0.073175
O2	O	0.860880	0.109391	-0.073189
O3	O	0.988761	-0.006841	-0.073174
O4	O	0.975082	0.213517	-0.073190
O5	O	0.988753	-0.006843	0.073284
O6	O	0.860872	0.109390	0.073268
O7	O	1.102955	0.097283	0.073283
Zn8	Zn	0.981912	0.103336	0.096529
Zn9	Zn	0.981923	0.103338	-0.096435
O10	O	0.975074	0.213516	0.073267
C11	C	0.829902	0.108900	0.000038
C12	C	0.737609	0.107430	0.000033
C13	C	0.515224	0.172981	0.000038
C14	C	0.428506	0.171594	0.000044
C15	C	0.448618	0.033688	0.000050
C16	C	0.535334	0.035076	0.000051
C17	C	0.568635	0.104725	0.000040
C18	C	0.395200	0.101949	0.000046
C19	C	0.301177	0.100445	0.000052
C20	C	0.662664	0.106230	0.000036
C21	C	0.988267	-0.035040	0.000055
C22	C	0.986796	-0.119060	0.000055
C23	C	1.061860	-0.167574	0.000061
C24	C	1.060473	-0.246519	0.000053
C25	C	0.984022	-0.276949	0.000046
C26	C	0.908953	-0.228429	0.000038
C27	C	0.910341	-0.149485	0.000039
C28	C	0.903356	-0.546800	0.000030
C29	C	0.901974	-0.625750	0.000031
C30	C	1.053488	-0.643834	0.000044
C31	C	1.054876	-0.564890	0.000046
C32	C	0.979807	-0.516377	0.000033
C33	C	0.981312	-0.430776	0.000040
C34	C	0.982517	-0.362549	0.000045
C35	C	1.133933	0.097774	0.000054
C36	C	1.226226	0.099244	0.000053
C37	C	0.975568	0.241714	0.000037
C38	C	0.977039	0.325734	0.000031
N39	N	0.981910	0.103334	0.228221
N40	N	0.981931	0.103334	-0.228128
C41	C	1.038555	0.051884	0.453951
C42	C	1.038558	0.051882	0.546141
C43	C	0.925280	0.154787	0.546136
C44	C	0.925274	0.154785	0.453948
C45	C	0.981916	0.103334	0.407858
C46	C	0.981925	0.103334	0.592236
C47	C	0.981927	0.103333	0.692192
C48	C	0.981913	0.103334	0.307896
H49	H	0.578824	-0.020510	0.000055
O50	O	1.093504	0.001944	0.409042
C51	C	1.143587	-0.043773	0.267025
C52	C	1.081349	0.012859	0.317771
H53	H	1.133769	-0.034979	0.193224
H54	H	1.210196	-0.033941	0.285050
H55	H	1.132834	-0.104370	0.285243
H56	H	1.092025	0.073478	0.299581
H57	H	1.014762	0.002961	0.299742
O58	O	0.870287	0.204697	0.409031
C59	C	0.820119	0.250329	0.267005
C60	C	0.882420	0.193756	0.317763
H61	H	0.829918	0.241514	0.193205
H62	H	0.753532	0.240454	0.285068
H63	H	0.830823	0.310946	0.285173
H64	H	0.871792	0.133118	0.299622
H65	H	0.948985	0.203698	0.299695
O66	O	0.827757	-0.655400	-0.000101
C67	C	0.738255	-0.733998	-0.076020
C68	C	0.822337	-0.700484	-0.075970
H69	H	0.733838	-0.770443	-0.137363
H70	H	0.733797	-0.770558	-0.014770
H71	H	0.684854	-0.685752	-0.075989
H72	H	0.875787	-0.748681	-0.076031
H73	H	0.826722	-0.663904	-0.137215
H74	H	0.879165	0.196679	0.583672
O75	O	1.129213	-0.535457	0.000013
C76	C	1.279354	-0.561729	0.000071
C77	C	1.195225	-0.595161	0.000092
H78	H	1.332747	-0.609982	0.000153
H79	H	1.283849	-0.525245	-0.061235
H80	H	1.283742	-0.525199	0.061349
H81	H	1.190780	-0.631724	-0.061145
H82	H	1.190766	-0.631601	0.061439
H83	H	0.542334	0.229694	0.000036
H84	H	1.124115	-0.142805	0.000072
O85	O	0.416309	-0.033986	0.000206
C86	C	0.407006	-0.152305	0.076049
C87	C	0.443632	-0.075683	0.075998
H88	H	0.429096	-0.186046	0.137311
H89	H	0.335849	-0.141621	0.076101
H90	H	0.429005	-0.185997	0.014730
H91	H	0.421697	-0.041952	0.137307
H92	H	0.514785	-0.086421	0.075900
O93	O	1.133446	-0.293566	-0.000054
C94	C	1.262516	-0.333195	-0.075938
C95	C	1.179909	-0.279862	-0.075914
H96	H	1.300096	-0.322145	-0.137273
H97	H	1.300196	-0.322128	-0.014681
H98	H	1.248380	-0.394840	-0.075902
H99	H	1.193969	-0.218197	-0.075982
H100	H	1.142253	-0.290994	-0.137166
O101	O	0.376540	0.237849	-0.000081
C102	C	0.267001	0.316341	-0.075991
C103	C	0.325790	0.241267	-0.075949
H104	H	0.225968	0.319136	-0.137332
H105	H	0.225843	0.319152	-0.014740
H106	H	0.305720	0.366342	-0.075955
H107	H	0.287138	0.191224	-0.076015
H108	H	0.366952	0.238523	-0.137194
O109	O	0.830361	-0.499790	0.000068
C110	C	0.679928	-0.490190	0.000019
C111	C	0.762537	-0.543521	-0.000008
H112	H	0.625071	-0.525526	-0.000062
H113	H	0.676729	-0.452798	0.061326
H114	H	0.676831	-0.452758	-0.061258
H115	H	0.765689	-0.581001	0.061227
H116	H	0.765701	-0.580861	-0.061356
O117	O	0.834761	-0.258112	0.000069
C118	C	0.765470	-0.371711	0.000015
C119	C	0.849552	-0.338200	-0.000005
H120	H	0.777400	-0.436466	-0.000064
H121	H	0.728368	-0.351787	0.061318
H122	H	0.728389	-0.351681	-0.061266
H123	H	0.886702	-0.358215	0.061235
H124	H	0.886592	-0.358120	-0.061349
H125	H	1.114613	-0.683343	0.000050
O126	O	0.837370	-0.102433	-0.000082
C127	C	0.708323	-0.062780	-0.076001
C128	C	0.790924	-0.116121	-0.075956
H129	H	0.670756	-0.073817	-0.137347
H130	H	0.670626	-0.073850	-0.014754
H131	H	0.722467	-0.001136	-0.075959
H132	H	0.776855	-0.177783	-0.076029
H133	H	0.828597	-0.104985	-0.137197
O134	O	1.093658	0.001876	0.590779
C135	C	1.205982	-0.100221	0.581048
C136	C	1.143637	-0.043615	0.530387
H137	H	1.246394	-0.137025	0.532244
H138	H	1.247506	-0.067572	0.624179
H139	H	1.170153	-0.138008	0.624237
H140	H	1.179398	-0.005813	0.487150
H141	H	1.102114	-0.076311	0.487312
