data_functionalizedCrystal
_audit_creation_method	'MofGen! by Chris Wilmer'
_symmetry_space_group_name_H-M	'P1'
_symmetry_Int_Tables_number	1
_symmetry_cell_setting	triclinic
loop_
_symmetry_equiv_pos_as_xyz
  x,y,z
_cell_length_a	10.723023
_cell_length_b	10.723024
_cell_length_c	9.198806
_cell_angle_alpha	90.002012
_cell_angle_beta	90.003487
_cell_angle_gamma	84.467709
loop_
_atom_site_label
_atom_site_type_symbol
_atom_site_fract_x
_atom_site_fract_y
_atom_site_fract_z
O1	O	1.657188	0.175020	0.120874
O2	O	1.294036	0.191774	0.120879
O3	O	1.483989	0.001821	0.120871
O4	O	1.467235	0.364973	0.120882
O5	O	1.483974	0.001820	-0.120914
O6	O	1.294021	0.191774	-0.120906
O7	O	1.657173	0.175019	-0.120911
Cu8	Cu	1.475596	0.183396	-0.142985
Cu9	Cu	1.475613	0.183397	0.142953
O10	O	1.467220	0.364973	-0.120903
C11	C	1.247529	0.190555	-0.000012
C12	C	1.108974	0.186908	-0.000010
C13	C	1.047194	0.185281	-0.125261
C14	C	0.903991	0.181511	-0.125262
C15	C	1.482762	-0.044679	-0.000020
C16	C	1.479114	-0.183233	-0.000015
C17	C	1.585402	-0.258216	-0.000014
C18	C	1.581634	-0.401420	-0.000009
C19	C	1.703680	0.176239	-0.000016
C20	C	1.842235	0.179886	-0.000009
C21	C	1.468447	0.411473	-0.000009
C22	C	1.472095	0.550027	-0.000005
N23	N	1.475592	0.183395	-0.344099
C24	C	1.555348	0.103288	-0.416300
C25	C	1.555367	0.103283	-0.583712
N26	N	1.475627	0.183388	0.344067
H27	H	0.850861	0.180120	-0.232493
H28	H	1.407320	0.251971	-0.406225
H29	H	1.055849	0.185506	0.107221
C30	C	1.646236	0.011665	-0.333516
C31	C	1.624653	-0.111107	-0.370371
C32	C	1.708347	-0.195533	-0.294112
H33	H	1.729772	0.025562	-0.358293
H34	H	1.634096	0.023767	-0.231998
H35	H	1.636803	-0.123205	-0.471866
H36	H	1.541134	-0.125044	-0.345589
H37	H	1.696207	-0.183431	-0.192593
H38	H	1.791877	-0.181625	-0.318895
H39	H	1.693706	-0.278843	-0.319097
C40	C	1.710338	-0.202225	-0.000093
C41	C	1.689236	-0.071320	-0.000132
C42	C	1.804301	-0.019703	-0.000225
H43	H	1.756569	-0.229074	0.084198
H44	H	1.756470	-0.229148	-0.084444
H45	H	1.643124	-0.044408	0.084210
H46	H	1.643025	-0.044437	-0.084417
H47	H	1.850433	-0.046626	-0.084576
H48	H	1.850523	-0.046560	0.084068
H49	H	1.789999	0.069121	-0.000265
C50	C	1.702929	-0.487384	0.000294
C51	C	1.707522	-0.562903	0.124708
C52	C	1.819251	-0.642098	0.125047
H53	H	1.706365	-0.538866	-0.083922
H54	H	1.772177	-0.438388	0.000370
H55	H	1.638294	-0.611894	0.124617
H56	H	1.704107	-0.511454	0.208943
H57	H	1.888498	-0.593103	0.125123
H58	H	1.822676	-0.693572	0.040826
H59	H	1.822387	-0.693339	0.209466
H60	H	1.623654	0.034704	-0.645802
H61	H	1.407346	0.251980	-0.593853
C62	C	1.350795	-0.364016	0.000297
C63	C	1.346218	-0.288484	0.124705
C64	C	1.234490	-0.209288	0.125043
H65	H	1.347349	-0.312543	-0.083922
H66	H	1.281548	-0.413012	0.000380
H67	H	1.415447	-0.239493	0.124608
H68	H	1.349643	-0.339924	0.208944
H69	H	1.165242	-0.258283	0.125126
H70	H	1.231054	-0.157823	0.040818
H71	H	1.231365	-0.158038	0.209458
C72	C	1.118203	0.186954	-0.268143
C73	C	1.206090	0.081764	-0.275717
C74	C	1.271535	0.083271	-0.407313
H75	H	1.061026	0.185385	-0.346848
H76	H	1.160179	0.260900	-0.273553
H77	H	1.164117	0.007837	-0.270322
H78	H	1.263293	0.083310	-0.197042
H79	H	1.313510	0.157217	-0.412723
H80	H	1.214348	0.081706	-0.486008
H81	H	1.331181	0.011908	-0.412464
H82	H	0.895355	0.181292	0.107228
H83	H	1.385328	-0.225055	-0.000004
