data_functionalizedCrystal
_audit_creation_method	'MofGen! by Chris Wilmer'
_symmetry_space_group_name_H-M	'P1'
_symmetry_Int_Tables_number	1
_symmetry_cell_setting	triclinic
loop_
_symmetry_equiv_pos_as_xyz
  x,y,z
_cell_length_a	18.101398
_cell_length_b	25.639239
_cell_length_c	18.101390
_cell_angle_alpha	89.965056
_cell_angle_beta	89.975319
_cell_angle_gamma	90.033952
loop_
_atom_site_label
_atom_site_type_symbol
_atom_site_fract_x
_atom_site_fract_y
_atom_site_fract_z
Zn1	Zn	1.132085	-0.208197	-0.418828
Zn2	Zn	1.632085	0.291803	0.081172
Zn3	Zn	1.131963	-0.295640	-0.294982
Zn4	Zn	1.631963	0.204360	0.205018
Zn5	Zn	1.008243	-0.208214	-0.294989
Zn6	Zn	1.508243	0.291786	0.205011
Zn7	Zn	1.008178	-0.295596	-0.418771
Zn8	Zn	1.508178	0.204404	0.081229
O9	O	1.070117	-0.251912	-0.356893
O10	O	1.570117	0.248088	0.143107
O11	O	1.235701	-0.219808	-0.402421
O12	O	1.735701	0.280192	0.097579
O13	O	1.115528	-0.284069	-0.191350
O14	O	1.615528	0.215931	0.308650
O15	O	1.024749	-0.135046	-0.311444
O16	O	1.524749	0.364954	0.188556
O17	O	1.235612	-0.284052	-0.311432
O18	O	1.735612	0.215948	0.188568
O19	O	1.115735	-0.135034	-0.402428
O20	O	1.615735	0.364966	0.097572
O21	O	1.024631	-0.219836	-0.191356
O22	O	1.524631	0.280164	0.308644
O23	O	0.904601	-0.219793	-0.311388
O24	O	1.404601	0.280207	0.188612
O25	O	1.024638	-0.283977	-0.522411
O26	O	1.524638	0.216023	-0.022411
O27	O	0.904554	-0.283993	-0.402330
O28	O	1.404554	0.216007	0.097670
O29	O	1.115672	-0.219765	-0.522454
O30	O	1.615672	0.280235	-0.022454
O31	O	1.115465	-0.368800	-0.311376
O32	O	1.615465	0.131200	0.188624
O33	O	1.024520	-0.368767	-0.402323
O34	O	1.524520	0.131233	0.097677
C35	C	0.877707	-0.251890	-0.356854
C36	C	1.377707	0.248110	0.143146
C37	C	0.795393	-0.251894	-0.356855
C38	C	1.295393	0.248106	0.143145
C39	C	0.496302	-0.251927	-0.356917
C40	C	0.996302	0.248073	0.143083
C41	C	0.527632	-0.211332	-0.299978
C42	C	1.027632	0.288668	0.200022
C43	C	0.613250	-0.211441	-0.299735
C44	C	1.113250	0.288559	0.200265
C45	C	0.644684	-0.251910	-0.356886
C46	C	1.144684	0.248090	0.143114
C47	C	0.613555	-0.306988	-0.335559
C48	C	1.113555	0.193012	0.164441
C49	C	0.527910	-0.306762	-0.335163
C50	C	1.027910	0.193238	0.164837
C51	C	0.527919	-0.237922	-0.435317
C52	C	1.027919	0.262078	0.064683
C53	C	0.613570	-0.236696	-0.434890
C54	C	1.113570	0.263304	0.065110
C55	C	0.728544	-0.251904	-0.356870
C56	C	1.228544	0.248096	0.143130
C57	C	0.412442	-0.251936	-0.356932
C58	C	0.912442	0.248064	0.143068
C59	C	1.069993	-0.387754	-0.356859
C60	C	1.569993	0.112246	0.143141
C61	C	1.070007	-0.445868	-0.356869
C62	C	1.570007	0.054132	0.143131
C63	C	1.117596	-0.806236	-0.309617
C64	C	1.617596	-0.306236	0.190383
C65	C	1.117624	-0.860840	-0.309627
C66	C	1.617624	-0.360840	0.190373
O67	O	1.157957	-0.889081	-0.269415
O68	O	1.657957	-0.389081	0.230585
N69	N	1.070247	-0.888151	-0.356942
N70	N	1.570247	-0.388151	0.143058
C71	C	1.022844	-0.860854	-0.404255
C72	C	1.522844	-0.360854	0.095745
O73	O	0.982549	-0.889098	-0.444501
O74	O	1.482549	-0.389098	0.055499
C75	C	1.022819	-0.806251	-0.404248
C76	C	1.522819	-0.306251	0.095752
C77	C	1.070194	-0.778943	-0.356925
C78	C	1.570194	-0.278943	0.143075
C79	C	1.164967	-0.778928	-0.262299
C80	C	1.664967	-0.278928	0.237701
C81	C	1.164937	-0.724327	-0.262288
C82	C	1.664937	-0.224327	0.237712
C83	C	1.117536	-0.697035	-0.309596
C84	C	1.617536	-0.197035	0.190404
C85	C	1.070164	-0.724343	-0.356914
C86	C	1.570164	-0.224343	0.143086
C87	C	0.975420	-0.778955	-0.451564
C88	C	1.475420	-0.278955	0.048436
C89	C	0.975400	-0.724348	-0.451554
C90	C	1.475400	-0.224348	0.048446
C91	C	1.022775	-0.697041	-0.404231
C92	C	1.522775	-0.197041	0.095769
C93	C	1.022733	-0.642449	-0.404212
C94	C	1.522733	-0.142449	0.095788
N95	N	1.070110	-0.615139	-0.356897
N96	N	1.570110	-0.115139	0.143103
C97	C	1.117511	-0.642431	-0.309589
C98	C	1.617511	-0.142431	0.190411
C99	C	1.022900	-0.975525	-0.404266
C100	C	1.522900	-0.475525	0.095734
C101	C	1.022920	-1.030127	-0.404270
C102	C	1.522920	-0.530127	0.095730
C103	C	1.117701	-1.030109	-0.309643
C104	C	1.617701	-0.530109	0.190357
C105	C	1.117677	-0.975506	-0.309636
C106	C	1.617677	-0.475506	0.190364
C107	C	1.070277	-0.948214	-0.356952
C108	C	1.570277	-0.448214	0.143048
C109	C	1.117445	-0.527766	-0.309570
C110	C	1.617445	-0.027766	0.190430
C111	C	1.117408	-0.473161	-0.309561
C112	C	1.617408	0.026839	0.190439
C113	C	1.022630	-0.473184	-0.404190
C114	C	1.522630	0.026816	0.095810
C115	C	1.022663	-0.527784	-0.404197
C116	C	1.522663	-0.027784	0.095803
C117	C	1.070076	-0.555074	-0.356884
C118	C	1.570076	-0.055074	0.143116
O119	O	0.982424	-0.614174	-0.444406
O120	O	1.482424	-0.114174	0.055594
O121	O	1.157806	-0.614181	-0.269357
O122	O	1.657806	-0.114181	0.230643
C123	C	1.263279	-0.251933	-0.356932
C124	C	1.763279	0.248067	0.143068
C125	C	1.345593	-0.251943	-0.356949
C126	C	1.845593	0.248057	0.143051
C127	C	1.070161	-0.251864	-0.550055
C128	C	1.570161	0.248136	-0.050055
C129	C	1.070180	-0.251844	-0.632369
C130	C	1.570180	0.248156	-0.132369
C131	C	1.070262	-0.115539	-0.356943
C132	C	1.570262	0.384461	0.143057
C133	C	1.070324	-0.057425	-0.356964
C134	C	1.570324	0.442575	0.143036
C135	C	1.070220	-0.251811	-0.931460
C136	C	1.570220	0.248189	-0.431460
C137	C	1.127684	-0.211553	-0.900161
C138	C	1.627684	0.288447	-0.400161
C139	C	1.127505	-0.211403	-0.814543
C140	C	1.627505	0.288597	-0.314543
C141	C	1.070201	-0.251827	-0.783077
C142	C	1.570201	0.248173	-0.283077
C143	C	0.992187	-0.236853	-0.814145
C144	C	1.492187	0.263147	-0.314145
C145	C	0.992531	-0.236551	-0.899790
C146	C	1.492531	0.263449	-0.399790
C147	C	1.090082	-0.307147	-0.899871
C148	C	1.590082	0.192853	-0.399871
C149	C	1.091794	-0.306865	-0.814221
C150	C	1.591794	0.193135	-0.314221
C151	C	1.070185	-0.251837	-0.699218
C152	C	1.570185	0.248163	-0.199218
C153	C	1.070230	-0.251800	-1.015320
C154	C	1.570230	0.248200	-0.515320
C155	C	1.070116	-0.251921	-0.164482
C156	C	1.570116	0.248079	0.335518
C157	C	1.070241	-0.251794	-0.082169
C158	C	1.570241	0.248206	0.417831
H159	H	0.507069	-0.170365	-0.313200
H160	H	1.007069	0.329635	0.186800
O161	O	0.640520	-0.348131	-0.388766
O162	O	1.140520	0.151869	0.111234
H163	H	0.676483	-0.329716	-0.431074
H164	H	1.176483	0.170284	0.068926
H165	H	0.975691	-0.196101	-0.919782
H166	H	1.475691	0.303899	-0.419782
H167	H	1.185355	-0.220781	-0.793540
H168	H	1.685355	0.279219	-0.293540
O169	O	1.168831	-1.059555	-0.258621
O170	O	1.668831	-0.559555	0.241379
H171	H	1.201770	-1.031396	-0.225709
H172	H	1.701770	-0.531396	0.274291
H173	H	0.948260	-0.264597	-0.920492
H174	H	1.448260	0.235403	-0.420492
O175	O	1.034641	-0.346878	-0.926681
O176	O	1.534641	0.153122	-0.426681
H177	H	1.006520	-0.364911	-0.878513
H178	H	1.506520	0.135089	-0.378513
O179	O	1.168518	-0.443708	-0.258528
O180	O	1.668518	0.056292	0.241472
H181	H	1.135390	-0.418874	-0.220803
H182	H	1.635390	0.081126	0.279197
O183	O	0.641141	-0.157339	-0.317419
O184	O	1.141141	0.342661	0.182581
H185	H	0.593456	-0.130861	-0.326220
H186	H	1.093456	0.369139	0.173780
O187	O	0.499110	-0.223461	-0.223467
O188	O	0.999110	0.276539	0.276533
H189	H	0.462715	-0.258276	-0.225816
H190	H	0.962715	0.241724	0.274184
H191	H	0.975041	-0.196852	-0.792707
H192	H	1.475041	0.303148	-0.292707
O193	O	1.110090	-0.157105	-0.787415
O194	O	1.610090	0.342895	-0.287415
H195	H	1.156721	-0.142510	-0.753400
H196	H	1.656721	0.357490	-0.253400
H197	H	0.633922	-0.196165	-0.450971
H198	H	1.133922	0.303835	0.049029
O199	O	0.924266	-0.694918	-0.502587
O200	O	1.424266	-0.194918	-0.002587
H201	H	0.957373	-0.670001	-0.540301
H202	H	1.457373	-0.170001	-0.040301
H203	H	0.633702	-0.220699	-0.241642
H204	H	1.133702	0.279301	0.258358
O205	O	0.641917	-0.322990	-0.260459
O206	O	1.141917	0.177010	0.239541
H207	H	0.673859	-0.359752	-0.265584
H208	H	1.173859	0.140248	0.234416
H209	H	1.156055	-0.549979	-0.271045
H210	H	1.656055	-0.049979	0.228955
H211	H	1.149206	-0.318156	-0.793916
H212	H	1.649206	0.181844	-0.293916
O213	O	0.501389	-0.322485	-0.259244
O214	O	1.001389	0.177515	0.240756
H215	H	0.549735	-0.330175	-0.223157
H216	H	1.049735	0.169825	0.276843
H217	H	0.948210	-0.265272	-0.793760
H218	H	1.448210	0.234728	-0.293760
H219	H	0.507183	-0.338032	-0.374826
H220	H	1.007183	0.161968	0.125174
O221	O	0.499365	-0.185646	-0.461007
O222	O	0.999365	0.314354	0.038993
H223	H	0.462315	-0.169062	-0.418176
H224	H	0.962315	0.330938	0.081824
O225	O	1.216045	-0.694876	-0.211258
O226	O	1.716045	-0.194876	0.288742
H227	H	1.249014	-0.723035	-0.178375
H228	H	1.749014	-0.223035	0.321625
O229	O	0.971809	-1.059575	-0.455301
O230	O	1.471809	-0.559575	0.044699
H231	H	0.979781	-1.102130	-0.447361
H232	H	1.479781	-0.602130	0.052639
O233	O	1.164146	-0.325190	-0.928486
O234	O	1.664146	0.174810	-0.428486
H235	H	1.187628	-0.294914	-0.965546
H236	H	1.687628	0.205086	-0.465546
H237	H	0.507657	-0.267490	-0.477742
H238	H	1.007657	0.232510	0.022258
O239	O	1.204561	-0.223812	-0.927475
O240	O	1.704561	0.276188	-0.427475
H241	H	1.220464	-0.263551	-0.909070
H242	H	1.720464	0.236449	-0.409070
O243	O	1.040383	-0.348737	-0.785858
O244	O	1.540383	0.151263	-0.285858
H245	H	0.998446	-0.330893	-0.748961
H246	H	1.498446	0.169107	-0.248961
O247	O	1.110476	-0.157553	-0.928673
O248	O	1.610476	0.342447	-0.428673
H249	H	1.113326	-0.157494	-0.989927
H250	H	1.613326	0.342506	-0.489927
O251	O	0.641898	-0.273019	-0.494090
O252	O	1.141898	0.226981	0.005910
H253	H	0.703120	-0.270979	-0.496042
H254	H	1.203120	0.229021	0.003958
O255	O	1.216095	-0.808364	-0.211272
O256	O	1.716095	-0.308364	0.288728
H257	H	1.203414	-0.797920	-0.153137
H258	H	1.703414	-0.297920	0.346863
H259	H	0.984294	-0.953306	-0.442794
H260	H	1.484294	-0.453306	0.057206
O261	O	1.168784	-0.946051	-0.258609
O262	O	1.668784	-0.446051	0.241391
H263	H	1.156130	-0.956568	-0.200473
H264	H	1.656130	-0.456568	0.299527
O265	O	0.924328	-0.808401	-0.502611
O266	O	1.424328	-0.308401	-0.002611
H267	H	0.891375	-0.780241	-0.535508
H268	H	1.391375	-0.280241	-0.035508
H269	H	0.984089	-0.550019	-0.442733
H270	H	1.484089	-0.050019	0.057267
O271	O	0.971508	-0.443742	-0.455218
O272	O	1.471508	0.056258	0.044782
H273	H	0.979459	-0.401186	-0.447263
H274	H	1.479459	0.098814	0.052737
