data_functionalizedCrystal
_audit_creation_method	'MofGen! by Chris Wilmer'
_symmetry_space_group_name_H-M	'P1'
_symmetry_Int_Tables_number	1
_symmetry_cell_setting	triclinic
loop_
_symmetry_equiv_pos_as_xyz
  x,y,z
_cell_length_a	16.109301
_cell_length_b	16.053802
_cell_length_c	16.109301
_cell_angle_alpha	87.436620
_cell_angle_beta	83.461481
_cell_angle_gamma	92.577771
loop_
_atom_site_label
_atom_site_type_symbol
_atom_site_fract_x
_atom_site_fract_y
_atom_site_fract_z
O1	O	1.106638	0.069379	0.103368
O2	O	1.606638	0.569379	0.603368
O3	O	0.864576	0.069392	0.116667
O4	O	1.364576	0.569392	0.616667
O5	O	0.992256	0.069377	-0.011013
O6	O	1.492256	0.569377	0.488987
O7	O	0.978958	0.069395	0.231048
O8	O	1.478958	0.569395	0.731048
O9	O	0.985228	-0.069481	-0.004014
O10	O	1.485228	0.430519	0.495986
O11	O	0.857549	-0.069466	0.123666
O12	O	1.357549	0.430534	0.623666
O13	O	1.099610	-0.069479	0.110367
O14	O	1.599610	0.430521	0.610367
Zn15	Zn	0.977463	-0.091519	0.118128
Zn16	Zn	1.477463	0.408481	0.618128
Zn17	Zn	0.986723	0.091432	0.108906
Zn18	Zn	1.486723	0.591432	0.608906
O19	O	0.971930	-0.069464	0.238047
O20	O	1.471930	0.430536	0.738047
C21	C	0.830088	-0.000035	0.119628
C22	C	1.330088	0.499965	0.619628
C23	C	0.737793	-0.000030	0.118012
C24	C	1.237793	0.499970	0.618012
N25	N	0.971150	-0.216379	0.124420
N26	N	1.471150	0.283621	0.624420
C27	C	0.515520	-0.000034	0.190020
C28	C	1.015520	0.499966	0.690020
C29	C	0.428799	-0.000040	0.188496
C30	C	0.928799	0.499960	0.688496
C31	C	0.448673	-0.000048	0.037008
C32	C	0.948673	0.499952	0.537008
C33	C	0.535392	-0.000048	0.038533
C34	C	1.035392	0.499952	0.538533
C35	C	0.568813	-0.000037	0.115041
C36	C	1.068813	0.499963	0.615041
C37	C	0.395374	-0.000042	0.111992
C38	C	0.895374	0.499958	0.611992
C39	C	0.301347	-0.000048	0.110340
C40	C	0.801347	0.499952	0.610340
C41	C	0.662845	-0.000033	0.116694
C42	C	1.162845	0.499967	0.616694
C43	C	1.025498	-0.260079	0.070112
C44	C	1.525498	0.239921	0.570112
C45	C	1.021089	-0.347485	0.074522
C46	C	1.521089	0.152515	0.574522
C47	C	0.962337	-0.391189	0.133245
C48	C	1.462337	0.108811	0.633245
C49	C	0.907983	-0.347483	0.187556
C50	C	1.407983	0.152517	0.687556
C51	C	0.912388	-0.260078	0.183141
C52	C	1.412388	0.239922	0.683141
C53	C	0.943094	-0.652597	0.152504
C54	C	1.443094	-0.152597	0.652504
C55	C	0.938695	-0.740008	0.156916
C56	C	1.438695	-0.240008	0.656916
C57	C	1.051801	-0.740004	0.043880
C58	C	1.551801	-0.240004	0.543880
C59	C	1.056204	-0.652598	0.039474
C60	C	1.556204	-0.152598	0.539474
C61	C	1.001848	-0.608899	0.093782
C62	C	1.501848	-0.108899	0.593782
N63	N	0.957831	-0.480533	0.137755
N64	N	1.457831	0.019467	0.637755
N65	N	1.006350	-0.519557	0.089267
N66	N	1.506350	-0.019557	0.589267
C67	C	1.134099	-0.000050	0.107406
C68	C	1.634099	0.499950	0.607406
C69	C	1.226394	-0.000049	0.109021
C70	C	1.726394	0.499951	0.609021
C71	C	0.988204	-0.000053	-0.038488
C72	C	1.488204	0.499947	0.461512
C73	C	0.986588	-0.000054	-0.130784
C74	C	1.486588	0.499946	0.369216
N75	N	0.993043	0.216292	0.102607
N76	N	1.493043	0.716292	0.602607
C77	C	1.058597	-0.000045	-0.353057
C78	C	1.558597	0.499955	0.146943
C79	C	1.057073	-0.000038	-0.439777
C80	C	1.557073	0.499962	0.060223
C81	C	0.905584	-0.000032	-0.419903
C82	C	1.405584	0.499968	0.080097
C83	C	0.907109	-0.000033	-0.333184
C84	C	1.407109	0.499967	0.166816
C85	C	0.983618	-0.000044	-0.299763
C86	C	1.483618	0.499956	0.200237
C87	C	0.980569	-0.000036	-0.473203
C88	C	1.480569	0.499964	0.026797
C89	C	0.978916	-0.000028	-0.567229
C90	C	1.478916	0.499972	-0.067229
C91	C	0.985271	-0.000050	-0.205731
C92	C	1.485271	0.499950	0.294269
C93	C	0.975983	-0.000032	0.265522
C94	C	1.475983	0.499968	0.765522
C95	C	0.977598	-0.000026	0.357817
C96	C	1.477598	0.499974	0.857817
H97	H	0.542728	-0.000032	0.252318
H98	H	1.042728	0.499968	0.752318
Br99	Br	0.403311	-0.000059	-0.066820
Br100	Br	0.903311	0.499941	0.433180
H101	H	0.846049	-0.000030	-0.289791
H102	H	1.346049	0.499970	0.210209
Br103	Br	1.105244	-0.200776	-0.009582
Br104	Br	1.605244	0.299224	0.490418
Br105	Br	0.356475	-0.000040	0.290258
Br106	Br	0.856475	0.499960	0.790258
Br107	Br	1.125565	-0.799313	-0.029822
Br108	Br	1.625565	-0.299313	0.470178
Br109	Br	0.858955	-0.799315	0.236622
Br110	Br	1.358955	-0.299315	0.736622
Br111	Br	0.607724	-0.000062	-0.063231
Br112	Br	1.107724	0.499938	0.436769
H113	H	1.065343	-0.383066	0.030299
H114	H	1.565343	0.116934	0.530299
Br115	Br	0.869329	-0.593296	0.226207
Br116	Br	1.369329	-0.093296	0.726207
Br117	Br	1.135944	-0.593284	-0.040218
Br118	Br	1.635944	-0.093284	0.459782
H119	H	0.860141	-0.383072	0.235367
H120	H	1.360141	0.116928	0.735367
H121	H	1.120895	-0.000051	-0.325848
H122	H	1.620895	0.499949	0.174152
Br123	Br	0.838622	-0.200770	0.256844
Br124	Br	1.338622	0.299230	0.756844
Br125	Br	1.158835	-0.000034	-0.512102
Br126	Br	1.658835	0.499966	-0.012102
Br127	Br	0.801757	-0.000016	-0.465266
Br128	Br	1.301757	0.499984	0.034734
