data_functionalizedCrystal
_audit_creation_method	'MofGen! by Chris Wilmer'
_symmetry_space_group_name_H-M	'P1'
_symmetry_Int_Tables_number	1
_symmetry_cell_setting	triclinic
loop_
_symmetry_equiv_pos_as_xyz
  x,y,z
_cell_length_a	15.297327
_cell_length_b	12.759401
_cell_length_c	12.759393
_cell_angle_alpha	90.020588
_cell_angle_beta	99.641734
_cell_angle_gamma	80.295139
loop_
_atom_site_label
_atom_site_type_symbol
_atom_site_fract_x
_atom_site_fract_y
_atom_site_fract_z
Zn1	Zn	-0.359150	-1.533789	-0.666362
Zn2	Zn	-0.510036	-1.503239	-0.521066
Zn3	Zn	-0.359192	-1.358083	-0.490704
Zn4	Zn	-0.509962	-1.327651	-0.696686
O5	O	-0.434585	-1.430691	-0.593705
O6	O	-0.379179	-1.676755	-0.647104
O7	O	-0.490075	-1.483935	-0.370027
O8	O	-0.232942	-1.406912	-0.488607
O9	O	-0.490035	-1.654310	-0.540356
O10	O	-0.232911	-1.536003	-0.617663
O11	O	-0.379251	-1.377289	-0.347720
O12	O	-0.379178	-1.207028	-0.518011
O13	O	-0.489907	-1.355045	-0.839675
O14	O	-0.489948	-1.184669	-0.669346
O15	O	-0.379107	-1.506494	-0.817396
O16	O	-0.636271	-1.454426	-0.569760
O17	O	-0.636216	-1.325421	-0.698788
C18	C	-0.434560	-1.157728	-0.593675
C19	C	-0.434571	-1.040949	-0.593692
C20	C	-0.492346	-0.864728	-0.672421
C21	C	-0.492338	-0.974454	-0.672404
C22	C	-0.376815	-0.997713	-0.514985
C23	C	-0.376829	-0.887988	-0.514998
C24	C	-0.550110	-0.798239	-0.751144
C25	C	-0.607868	-0.841468	-0.829851
C26	C	-0.607859	-0.951194	-0.829834
C27	C	-0.550094	-1.017691	-0.751111
C28	C	-0.668977	-1.383335	-0.640882
C29	C	-0.769251	-1.363172	-0.661100
C30	C	-1.051895	-1.575231	-0.449562
C31	C	-0.957683	-1.594175	-0.430561
C32	C	-0.910570	-1.536426	-0.488194
C33	C	-0.957679	-1.459730	-0.564832
C34	C	-1.051900	-1.440778	-0.583829
C35	C	-0.910576	-1.401973	-0.622461
C36	C	-0.957684	-1.325277	-0.699098
C37	C	-1.051897	-1.306330	-0.718092
C38	C	-1.099009	-1.364078	-0.660459
C39	C	-0.816354	-1.420924	-0.603464
C40	C	-0.816359	-1.286472	-0.737730
C41	C	-0.910572	-1.267528	-0.756732
C42	C	-0.199278	-1.478260	-0.546366
C43	C	-0.099004	-1.498531	-0.526193
C44	C	-0.434494	-1.430782	-0.867720
C45	C	-0.434455	-1.430822	-0.984489
C46	C	-0.434604	-0.704720	-0.593728
C47	C	-0.434593	-0.821499	-0.593722
C48	C	-0.376756	-1.509692	-1.027751
C49	C	-0.376723	-1.509723	-1.137468
C50	C	-0.492097	-1.352010	-1.160654
C51	C	-0.492124	-1.351975	-1.050937
C52	C	-0.319086	-1.588538	-0.961302
C53	C	-0.261383	-1.667415	-1.004563
C54	C	-0.261351	-1.667447	-1.114281
C55	C	-0.319021	-1.588601	-1.180737
C56	C	-0.434611	-1.430673	-0.320742
C57	C	-0.434395	-1.430888	-0.203923
H58	H	-0.654894	-0.986386	-0.893914
O59	O	-0.205232	-1.743913	-0.940035
C60	C	-0.115310	-1.739155	-0.948781
H61	H	-0.110738	-1.656154	-0.978011
H62	H	-0.070760	-1.757198	-0.867666
H63	H	-0.091717	-1.800266	-1.007735
H64	H	-0.319109	-1.588523	-0.871964
O65	O	-0.550180	-1.124260	-0.751268
C66	C	-0.613566	-1.148156	-0.837588
H67	H	-0.626261	-1.082398	-0.901518
H68	H	-0.586384	-1.227077	-0.872017
H69	H	-0.679306	-1.154316	-0.809030
H70	H	-0.318980	-1.588623	-1.270074
H71	H	-0.214359	-1.731666	-1.149499
H72	H	-0.539049	-1.287818	-1.214771
O73	O	-0.663896	-0.776733	-0.906264
C74	C	-0.651537	-0.670614	-0.889391
H75	H	-0.581882	-0.669674	-0.841097
H76	H	-0.657738	-0.627701	-0.969330
H77	H	-0.704995	-0.628655	-0.844106
O78	O	-0.320827	-1.062397	-0.438498
C79	C	-0.372115	-1.115463	-0.380846
H80	H	-0.440519	-1.118104	-0.431536
H81	H	-0.335347	-1.200038	-0.359433
H82	H	-0.381953	-1.071160	-0.304950
H83	H	-0.833858	-1.551853	-0.472718
H84	H	-0.329796	-0.852791	-0.450919
O85	O	-0.548313	-1.275468	-1.008970
C86	C	-0.638219	-1.280260	-1.053879
H87	H	-0.642760	-1.363275	-1.084984
H88	H	-0.682803	-1.262208	-0.990678
H89	H	-0.661794	-1.219172	-1.122286
O90	O	-0.770698	-1.495353	-0.528902
C91	C	-0.793790	-1.467782	-0.428825
H92	H	-0.862224	-1.413629	-0.440413
H93	H	-0.796997	-1.542985	-0.382428
H94	H	-0.740822	-1.424441	-0.382711
H95	H	-1.175725	-1.348661	-0.675928
O96	O	-0.912026	-1.668606	-0.356001
C97	C	-0.935118	-1.641040	-0.255924
H98	H	-1.003552	-1.586887	-0.267509
H99	H	-0.938326	-1.716246	-0.209530
H100	H	-0.882151	-1.597701	-0.209806
O101	O	-0.550125	-0.691652	-0.750970
C102	C	-0.573225	-0.650276	-0.654899
H103	H	-0.557751	-0.716600	-0.591285
H104	H	-0.532522	-0.585080	-0.628117
H105	H	-0.648079	-0.615692	-0.667607
H106	H	-1.090263	-1.622235	-0.402639
O107	O	-1.097617	-1.231943	-0.792674
C108	C	-1.074493	-1.259484	-0.892742
H109	H	-1.048535	-1.348635	-0.892886
H110	H	-1.136424	-1.237949	-0.957127
H111	H	-1.019822	-1.214139	-0.909132
O112	O	-0.956298	-1.193144	-0.831313
C113	C	-0.933177	-1.220683	-0.931383
H114	H	-0.907212	-1.309832	-0.931526
H115	H	-0.995112	-1.199156	-0.995764
H116	H	-0.878514	-1.175330	-0.947779
O117	O	-0.770645	-1.230213	-0.793620
C118	C	-0.793766	-1.120862	-0.775247
H119	H	-0.819724	-1.110378	-0.696544
H120	H	-0.731832	-1.081412	-0.771765
H121	H	-0.848434	-1.082373	-0.842573
