data_functionalizedCrystal
_audit_creation_method	'MofGen! by Chris Wilmer'
_symmetry_space_group_name_H-M	'P1'
_symmetry_Int_Tables_number	1
_symmetry_cell_setting	triclinic
loop_
_symmetry_equiv_pos_as_xyz
  x,y,z
_cell_length_a	15.625020
_cell_length_b	15.712078
_cell_length_c	9.130307
_cell_angle_alpha	89.997928
_cell_angle_beta	71.915019
_cell_angle_gamma	101.025381
loop_
_atom_site_label
_atom_site_type_symbol
_atom_site_fract_x
_atom_site_fract_y
_atom_site_fract_z
O1	O	1.233472	0.112869	-0.777020
O2	O	0.975423	0.126323	-0.639946
O3	O	1.070118	-0.006272	-0.690240
O4	O	1.138777	0.245465	-0.726726
O5	O	1.070113	-0.006273	-0.446639
O6	O	0.975418	0.126322	-0.396345
O7	O	1.233468	0.112868	-0.533419
Cu8	Cu	1.104442	0.119595	-0.442639
Cu9	Cu	1.104448	0.119596	-0.730726
O10	O	1.138772	0.245463	-0.483125
C11	C	0.941631	0.125714	-0.500197
C12	C	0.840944	0.123890	-0.446713
C13	C	0.699027	0.121317	-0.238552
C14	C	0.793637	0.123032	-0.288824
C15	C	0.793651	0.123029	-0.554393
C16	C	0.699039	0.121311	-0.504143
C17	C	0.651734	0.120456	-0.346221
C18	C	0.651746	0.120449	-0.611812
C19	C	0.557142	0.118736	-0.561566
C20	C	0.509831	0.117883	-0.403651
C21	C	0.557131	0.118742	-0.295975
C22	C	0.699053	0.121311	-0.769734
C23	C	0.651760	0.120449	-0.877403
C24	C	0.557153	0.118729	-0.827157
C25	C	0.509843	0.117877	-0.669242
C26	C	0.509854	0.117870	-0.934833
C27	C	0.415250	0.116156	-0.884587
C28	C	0.415239	0.116163	-0.618996
C29	C	1.058899	-0.038489	-0.562483
C30	C	1.025467	-0.134484	-0.544727
C31	C	1.309317	-0.501245	-0.695520
C32	C	1.277881	-0.591444	-0.678821
C33	C	1.120365	-0.571014	-0.595151
C34	C	1.151787	-0.480811	-0.611836
C35	C	1.246264	-0.445934	-0.662023
C36	C	1.088735	-0.425501	-0.578338
C37	C	1.120155	-0.335306	-0.595029
C38	C	1.214628	-0.300422	-0.645218
C39	C	1.277684	-0.355740	-0.678714
C40	C	0.994258	-0.460379	-0.528162
C41	C	0.931206	-0.405069	-0.494664
C42	C	0.962626	-0.314873	-0.511344
C43	C	1.057099	-0.279989	-0.561534
C44	C	0.899570	-0.259555	-0.477849
C45	C	0.930990	-0.169360	-0.494540
C46	C	1.088519	-0.189794	-0.578225
C47	C	1.267260	0.113477	-0.673171
C48	C	1.367946	0.115301	-0.726665
C49	C	1.149991	0.277680	-0.610885
C50	C	1.183424	0.373675	-0.628651
N51	N	1.104445	0.119593	-0.240017
N52	N	1.104451	0.119591	-0.933350
C53	C	1.188358	0.002214	-0.284595
C54	C	1.230322	-0.056473	-0.230221
C55	C	1.230331	-0.056474	-0.076892
C56	C	1.188369	0.002217	0.022070
C57	C	1.146405	0.060905	-0.032305
C58	C	1.146404	0.060901	-0.185640
C59	C	1.062487	0.178278	0.012276
C60	C	1.062483	0.178284	-0.141056
C61	C	1.020525	0.236969	0.111237
C62	C	0.978566	0.295662	0.056860
C63	C	0.978560	0.295661	-0.096479
C64	C	1.020519	0.236972	-0.195430
H65	H	0.518615	0.118057	-0.167380
O66	O	0.869658	-0.115712	-0.462150
C67	C	0.814080	-0.131516	-0.558806
H68	H	0.813656	-0.199910	-0.600638
H69	H	0.842689	-0.082171	-0.662350
C70	C	0.715819	-0.039047	-0.416631
C71	C	0.715292	-0.123052	-0.467999
H72	H	0.654882	-0.033822	-0.360621
H73	H	0.753264	-0.028396	-0.351515
H74	H	0.739664	0.002064	-0.502929
H75	H	0.691458	-0.164160	-0.381702
H76	H	0.677840	-0.133709	-0.533099
H77	H	1.264485	-0.104261	-0.310807
H78	H	0.432800	0.116492	-0.362744
O79	O	0.839658	0.123751	-0.184361
C80	C	0.879896	0.049902	-0.197759
H81	H	0.889248	0.025207	-0.318015
H82	H	0.833307	-0.003155	-0.107471
C83	C	0.962666	0.104595	-0.024210
C84	C	0.974160	0.074268	-0.171915
H85	H	1.020810	0.119623	-0.008262
H86	H	0.935554	0.154348	-0.015178
H87	H	0.923838	0.060376	0.051013
H88	H	1.012977	0.118491	-0.247135
H89	H	1.001281	0.024524	-0.180959
H90	H	1.020522	0.236968	-0.320284
O91	O	1.245195	-0.212813	-0.661709
C92	C	1.298920	-0.188277	-0.816388
H93	H	1.279428	-0.240068	-0.894220
H94	H	1.374768	-0.181390	-0.828153
C95	C	1.305417	-0.037206	-0.768724
C96	C	1.281471	-0.100814	-0.864321
H97	H	1.294658	0.016747	-0.798291
H98	H	1.269225	-0.053736	-0.664512
H99	H	1.368623	-0.031478	-0.778538
H100	H	1.218264	-0.106549	-0.854491
H101	H	1.317653	-0.084283	-0.968532
O102	O	1.020413	0.237060	0.260244
C103	C	0.974401	0.301459	0.335913
H104	H	0.925631	0.316439	0.273461
H105	H	1.026850	0.362971	0.335243
C106	C	0.979067	0.250077	0.580540
C107	C	0.919162	0.268471	0.503843
H108	H	0.944996	0.229732	0.684129
H109	H	1.010070	0.206693	0.529561
H110	H	1.022771	0.301342	0.579966
H111	H	0.875467	0.217204	0.504401
H112	H	0.888151	0.311846	0.554826
H113	H	0.822646	-0.287966	-0.437001
H114	H	0.376744	0.115457	-0.972262
O115	O	0.937654	0.352579	0.153006
C116	C	0.843730	0.338374	0.165410
H117	H	0.820471	0.269143	0.135603
H118	H	0.833030	0.386262	0.082099
C119	C	0.815569	0.436716	0.368372
C120	C	0.787001	0.351683	0.331775
H121	H	0.780575	0.444930	0.470991
H122	H	0.878848	0.446289	0.360013
H123	H	0.806652	0.476613	0.298934
H124	H	0.795929	0.311789	0.401200
H125	H	0.723721	0.342103	0.340150
O126	O	1.369469	-0.321891	-0.727729
C127	C	1.409718	-0.350158	-0.875251
H128	H	1.354998	-0.368983	-0.934361
H129	H	1.440601	-0.408876	-0.863127
C130	C	1.553093	-0.253168	-0.900324
C131	C	1.485885	-0.276281	-0.972929
H132	H	1.600079	-0.207599	-0.960576
H133	H	1.525978	-0.234126	-0.800933
H134	H	1.578818	-0.302106	-0.890225
H135	H	1.460153	-0.227347	-0.983009
H136	H	1.512998	-0.295314	-1.072325
H137	H	0.944384	0.343448	-0.140738
O138	O	0.839426	-0.438912	-0.446169
C139	C	0.799183	-0.410634	-0.550929
H140	H	0.853905	-0.391812	-0.668181
H141	H	0.768308	-0.351912	-0.505997
C142	C	0.655799	-0.507613	-0.423661
C143	C	0.723008	-0.484502	-0.567675
H144	H	0.608807	-0.553175	-0.433987
H145	H	0.682910	-0.526662	-0.353077
H146	H	0.630080	-0.458671	-0.386233
H147	H	0.748733	-0.533440	-0.605091
H148	H	0.695899	-0.465463	-0.638266
O149	O	1.339098	-0.645211	-0.711595
C150	C	1.325622	-0.698008	-0.830578
H151	H	1.290397	-0.665028	-0.900048
H152	H	1.280645	-0.763620	-0.778160
C153	C	1.462502	-0.752110	-0.852190
C154	C	1.419245	-0.711599	-0.937522
H155	H	1.520252	-0.760498	-0.918155
H156	H	1.471580	-0.716543	-0.772025
H157	H	1.425012	-0.806782	-0.808513
H158	H	1.456729	-0.656924	-0.981181
H159	H	1.410176	-0.747158	-1.017697
H160	H	0.690288	0.121149	-1.005984
H161	H	0.548385	0.118575	-1.063414
H162	H	0.376723	0.115477	-0.490401
H163	H	1.165452	-0.161396	-0.619077
H164	H	1.386249	-0.472847	-0.736372
H165	H	0.660512	0.120632	-0.109957
H166	H	0.832180	0.123729	-0.682974
H167	H	0.776086	0.122712	-0.810640
H168	H	1.043441	-0.599423	-0.554294
H169	H	0.968679	-0.533822	-0.514582
H170	H	1.188365	0.002216	-0.409451
H171	H	1.264497	-0.104265	-0.032620
H172	H	1.188369	0.002206	0.146922
