data_functionalizedCrystal
_audit_creation_method	'MofGen! by Chris Wilmer'
_symmetry_space_group_name_H-M	'P1'
_symmetry_Int_Tables_number	1
_symmetry_cell_setting	triclinic
loop_
_symmetry_equiv_pos_as_xyz
  x,y,z
_cell_length_a	17.640112
_cell_length_b	16.994747
_cell_length_c	17.640968
_cell_angle_alpha	101.211591
_cell_angle_beta	87.860920
_cell_angle_gamma	101.231708
loop_
_atom_site_label
_atom_site_type_symbol
_atom_site_fract_x
_atom_site_fract_y
_atom_site_fract_z
Zn1	Zn	1.247784	-0.022661	0.195088
Zn2	Zn	1.222059	-0.185380	0.068161
Zn3	Zn	1.095130	-0.073965	0.093751
Zn4	Zn	1.120797	-0.174998	0.220739
O5	O	1.171443	-0.114251	0.144435
O6	O	1.350637	-0.027120	0.156806
O7	O	1.183714	-0.196416	-0.034709
O8	O	1.115405	0.043222	0.107168
O9	O	1.331736	-0.146669	0.063553
O10	O	1.227559	0.080914	0.181620
O11	O	1.090460	-0.114560	-0.015908
O12	O	0.992271	-0.104493	0.132041
O13	O	1.159150	-0.128975	0.323601
O14	O	1.011128	-0.178722	0.225339
O15	O	1.252447	-0.017053	0.304755
O16	O	1.208602	-0.294384	0.088426
O17	O	1.134205	-0.286756	0.200525
C18	C	0.974146	-0.146049	0.184251
C19	C	0.889745	-0.159666	0.201303
C20	C	1.171406	-0.319190	0.144478
C21	C	1.171411	-0.408511	0.144474
Zn22	Zn	1.095148	-0.705053	0.093725
Zn23	Zn	1.247811	-0.653729	0.195047
Zn24	Zn	1.120820	-0.542389	0.220721
Zn25	Zn	1.222068	-0.552639	0.068133
O26	O	1.171462	-0.613452	0.144407
O27	O	1.115429	-0.808627	0.107132
O28	O	1.252484	-0.613190	0.304715
O29	O	1.011152	-0.581157	0.225330
O30	O	1.227590	-0.770919	0.181573
O31	O	0.992291	-0.700665	0.132027
O32	O	1.159184	-0.531390	0.323578
O33	O	1.134221	-0.433367	0.200514
O34	O	1.183714	-0.598626	-0.034734
O35	O	1.208607	-0.440897	0.088408
O36	O	1.090466	-0.710604	-0.015932
O37	O	1.350659	-0.623129	0.156757
O38	O	1.331745	-0.548858	0.063513
C39	C	0.563042	-0.010783	0.014902
C40	C	0.483737	-0.023592	0.030935
C41	C	0.503393	-0.101066	0.127918
C42	C	0.582702	-0.088260	0.111896
C43	C	0.612520	-0.043118	0.055386
C44	C	0.632180	-0.120595	0.152380
C45	C	0.711482	-0.107793	0.136356
C46	C	0.741305	-0.062656	0.079848
C47	C	0.691821	-0.030316	0.039362
C48	C	0.602360	-0.165741	0.208886
C49	C	0.651838	-0.198077	0.249370
C50	C	0.731142	-0.185270	0.233350
C51	C	0.760966	-0.140133	0.176842
C52	C	0.780626	-0.217610	0.273836
C53	C	0.859927	-0.204808	0.257812
C54	C	0.840267	-0.127331	0.160818
C55	C	1.369510	-0.082330	0.104463
C56	C	1.453914	-0.068727	0.087430
C57	C	1.211531	-0.066133	0.342501
C58	C	1.228614	-0.045628	0.426905
C59	C	1.171483	0.091488	0.144386
C60	C	1.171503	0.180809	0.144365
C61	C	1.131554	-0.162118	-0.052870
C62	C	1.114618	-0.182377	-0.137304
C63	C	1.041954	-0.269549	0.753555
C64	C	1.058023	-0.250269	0.832862
C65	C	1.155164	-0.133735	0.813229
C66	C	1.139102	-0.153003	0.733919
C67	C	1.082496	-0.220912	0.704088
C68	C	1.179644	-0.104366	0.684452
C69	C	1.163585	-0.123635	0.605149
C70	C	1.106984	-0.191542	0.575311
C71	C	1.066437	-0.240181	0.624784
C72	C	1.236253	-0.036461	0.714284
C73	C	1.276795	0.012176	0.664817
C74	C	1.260732	-0.007089	0.585513
C75	C	1.204131	-0.074996	0.555676
C76	C	1.301279	0.041550	0.536040
C77	C	1.285220	0.022280	0.456736
C78	C	1.188072	-0.094265	0.476372
C79	C	1.368755	-0.581538	0.104574
C80	C	1.453163	-0.567903	0.087556
C81	C	1.131355	-0.661483	-0.053656
C82	C	1.114263	-0.681951	-0.138059
C83	C	0.973398	-0.645493	0.184397
C84	C	0.888996	-0.659147	0.201438
C85	C	1.211359	-0.565662	0.341710
C86	C	1.228238	-0.545379	0.426155
C87	C	1.502619	-0.600228	0.128076
C88	C	1.581929	-0.587432	0.112085
C89	C	1.611782	-0.542305	0.055578
C90	C	1.562319	-0.509979	0.015054
C91	C	1.483010	-0.522781	0.031041
C92	C	1.057681	-0.749866	-0.167908
C93	C	1.041607	-0.769101	-0.247210
C94	C	1.082120	-0.720422	-0.296662
C95	C	1.138705	-0.652499	-0.266807
C96	C	1.154774	-0.633263	-0.187506
C97	C	0.859175	-0.603332	0.258020
C98	C	0.779870	-0.616145	0.274033
C99	C	0.730387	-0.684777	0.233466
C100	C	0.760212	-0.740595	0.176878
C101	C	0.839515	-0.727778	0.160862
C102	C	1.187930	-0.492851	0.475529
C103	C	1.203775	-0.473795	0.554877
C104	C	1.259933	-0.507263	0.584848
C105	C	1.300242	-0.559798	0.535468
C106	C	1.284392	-0.578858	0.456123
H107	H	0.864548	-0.090558	0.114814
C108	C	1.216095	-0.559439	-0.155041
C109	C	1.182319	-0.504772	-0.100829
C110	C	1.238782	-0.436747	-0.070921
H111	H	1.255489	-0.576645	-0.130742
H112	H	1.237908	-0.533161	-0.195830
H113	H	1.160518	-0.531045	-0.060047
H114	H	1.142931	-0.487543	-0.125110
H115	H	1.260594	-0.410469	-0.111710
H116	H	1.278172	-0.453961	-0.046625
H117	H	1.215871	-0.399644	-0.034141
C118	C	1.635637	-0.622644	0.155961
C119	C	1.672448	-0.676279	0.103748
C120	C	1.721919	-0.708738	0.144140
H121	H	1.673337	-0.579550	0.182843
H122	H	1.606517	-0.651390	0.191890
H123	H	1.701567	-0.647534	0.067832
H124	H	1.634767	-0.719386	0.076864
H125	H	1.692799	-0.737483	0.180069
H126	H	1.759615	-0.665638	0.171020
H127	H	1.746897	-0.745138	0.108720
H128	H	1.586638	-0.473236	-0.030955
C129	C	1.697863	-0.528519	0.038087
C130	C	1.709494	-0.561893	-0.039516
C131	C	1.788782	-0.549220	-0.055649
H132	H	1.718559	-0.471558	0.047591
H133	H	1.723061	-0.554262	0.070275
H134	H	1.684306	-0.536148	-0.071695
H135	H	1.688816	-0.618855	-0.049038
H136	H	1.813981	-0.574963	-0.023461
H137	H	1.809471	-0.492258	-0.046141
H138	H	1.796685	-0.571868	-0.108302
H139	H	0.587323	0.025990	-0.031103
H140	H	1.069028	-0.736096	-0.361233
C141	C	1.329290	0.075211	0.403155
C142	C	1.382283	0.138819	0.446256
C143	C	1.422890	0.187600	0.396924
H144	H	1.356171	0.042950	0.365530
H145	H	1.294002	0.097427	0.378088
H146	H	1.417566	0.116604	0.471310
H147	H	1.355422	0.171100	0.483879
H148	H	1.387602	0.209816	0.371857
H149	H	1.449766	0.155332	0.359301
H150	H	1.458845	0.230768	0.426161
C151	C	1.004994	-0.313983	0.592528
C152	C	0.972940	-0.352474	0.652818
C153	C	0.916356	-0.420473	0.623129
H154	H	0.965577	-0.296777	0.568264
H155	H	1.027778	-0.351216	0.555762
H156	H	0.950155	-0.315248	0.689570
H157	H	1.012338	-0.369699	0.677087
H158	H	0.939140	-0.457706	0.586363
H159	H	0.876944	-0.403259	0.598865
H160	H	0.894606	-0.446602	0.664029
H161	H	0.755599	-0.570688	0.320113
H162	H	0.899455	-0.547442	0.291059
C163	C	0.872030	-0.788275	0.099437
C164	C	0.952069	-0.762365	0.094074
C165	C	0.982042	-0.818073	0.037489
H166	H	0.861368	-0.840705	0.113103
H167	H	0.848738	-0.791199	0.051019
H168	H	0.975354	-0.759450	0.142482
H169	H	0.962754	-0.709943	0.080398
H170	H	0.958749	-0.820997	-0.010929
H171	H	0.971374	-0.870500	0.051160
H172	H	1.036350	-0.800497	0.033837
C173	C	0.706362	-0.815084	0.132953
C174	C	0.630536	-0.814364	0.159114
C175	C	0.580910	-0.882978	0.118680
H176	H	0.708916	-0.813895	0.079296
H177	H	0.721574	-0.863309	0.141448
H178	H	0.615328	-0.766151	0.150612
H179	H	0.627958	-0.815564	0.212765
H180	H	0.596122	-0.931203	0.127175
H181	H	0.583470	-0.881783	0.065026
H182	H	0.529458	-0.882503	0.136430
C183	C	1.429452	-0.487569	-0.013006
C184	C	1.472583	-0.445291	-0.065894
C185	C	1.423277	-0.412832	-0.106480
H186	H	1.391795	-0.530659	-0.039960
H187	H	1.404413	-0.451124	0.022297
H188	H	1.497609	-0.481734	-0.101193
H189	H	1.510237	-0.402190	-0.038961
H190	H	1.398238	-0.376386	-0.071177
H191	H	1.385623	-0.455927	-0.133429
H192	H	1.452535	-0.384136	-0.142364
H193	H	1.170949	-0.431015	0.595071
H194	H	0.756335	-0.254370	0.319840
C195	C	0.913533	-0.239941	0.301879
C196	C	0.870451	-0.282192	0.354814
C197	C	0.919807	-0.314560	0.395428
H198	H	0.938595	-0.276386	0.266622
H199	H	0.951171	-0.196784	0.328794
H200	H	0.832826	-0.325344	0.327900
H201	H	0.845390	-0.245764	0.390087
H202	H	0.957445	-0.271403	0.422343
H203	H	0.944867	-0.351002	0.360164
H204	H	0.890584	-0.343225	0.431353
C205	C	1.126832	-0.456623	0.443065
C206	C	1.055400	-0.480852	0.477322
C207	C	0.999091	-0.447505	0.447435
H208	H	1.140807	-0.398695	0.453872
H209	H	1.123105	-0.475510	0.388741
H210	H	1.059128	-0.461961	0.531634
H211	H	1.041401	-0.538775	0.466518
H212	H	0.995364	-0.466392	0.393111
H213	H	1.013073	-0.389578	0.458244
H214	H	0.950617	-0.463946	0.470669
C215	C	1.013576	-0.802800	-0.114347
C216	C	0.960570	-0.866375	-0.157473
C217	C	0.919912	-0.915149	-0.108162
H218	H	1.048808	-0.825057	-0.089267
H219	H	0.986705	-0.770500	-0.076729
H220	H	0.987439	-0.898670	-0.195077
H221	H	0.925321	-0.844142	-0.182552
H222	H	0.893041	-0.882849	-0.070544
H223	H	0.955150	-0.937400	-0.083084
H224	H	0.883938	-0.958286	-0.137415
C225	C	1.013889	-0.303156	0.886450
C226	C	0.960869	-0.366738	0.843350
C227	C	0.920197	-0.415467	0.892690
H228	H	1.049111	-0.325407	0.911550
H229	H	0.987028	-0.270827	0.924052
H230	H	0.987729	-0.399062	0.805763
H231	H	0.925631	-0.344510	0.818252
H232	H	0.893336	-0.383138	0.930291
H233	H	0.955425	-0.437712	0.917787
H234	H	0.884214	-0.458608	0.863455
H235	H	1.272832	-0.491736	0.649458
C236	C	0.980282	-0.842901	-0.279737
C237	C	1.014065	-0.897533	-0.333980
C238	C	0.957597	-0.965521	-0.363965
H239	H	0.958429	-0.869238	-0.239010
H240	H	0.940915	-0.825621	-0.304024
H241	H	1.053418	-0.914812	-0.309693
H242	H	1.035913	-0.871221	-0.374721
H243	H	0.918230	-0.948242	-0.388252
H244	H	0.935748	-0.991851	-0.323233
H245	H	0.980509	-1.002594	-0.400777
H246	H	1.345965	-0.587045	0.559884
H247	H	1.317223	-0.621627	0.415927
H248	H	0.805878	-0.052236	0.066801
H249	H	1.171686	-0.612870	-0.307083
C250	C	1.470362	-0.649280	0.189432
C251	C	1.530657	-0.674861	0.221472
C252	C	1.500977	-0.720060	0.277989
H253	H	1.446135	-0.616173	0.228860
H254	H	1.433561	-0.695707	0.166601
H255	H	1.567445	-0.628441	0.244304
H256	H	1.554890	-0.707979	0.182065
H257	H	1.464176	-0.766488	0.255159
H258	H	1.476750	-0.686948	0.317412
H259	H	1.541881	-0.737430	0.299731
H260	H	0.479104	-0.137823	0.173926
H261	H	0.716103	0.006457	-0.006642
H262	H	0.443454	0.002749	-0.002032
H263	H	0.537787	-0.176163	0.221930
H264	H	0.627549	-0.234834	0.295378
H265	H	1.141960	-0.149547	0.452086
H266	H	1.093913	-0.207232	0.510736
H267	H	0.995842	-0.324831	0.729269
C268	C	1.216564	-0.060018	0.845774
C269	C	1.221940	-0.053540	0.925815
C270	C	1.278485	0.014366	0.955822
H271	H	1.265000	-0.066417	0.822563
H272	H	1.202828	-0.011943	0.835055
H273	H	1.235681	-0.101604	0.936528
H274	H	1.173518	-0.047129	0.949047
H275	H	1.264748	0.062441	0.945103
H276	H	1.326917	0.007961	0.932605
H277	H	1.282135	0.018774	1.010133
H278	H	0.665814	-0.695202	0.246511
C279	C	1.338194	0.085893	0.697363
C280	C	1.343570	0.092371	0.777404
C281	C	1.400115	0.160277	0.807410
H282	H	1.386631	0.079495	0.674151
H283	H	1.324458	0.133968	0.686644
H284	H	1.357311	0.044308	0.788116
H285	H	1.295149	0.098782	0.800636
H286	H	1.386379	0.208352	0.796691
H287	H	1.448547	0.153872	0.784193
H288	H	1.403765	0.164686	0.861721
H289	H	1.249328	-0.020776	0.778858
H290	H	1.347372	0.096836	0.560339
