data_functionalizedCrystal
_audit_creation_method	'MofGen! by Chris Wilmer'
_symmetry_space_group_name_H-M	'P1'
_symmetry_Int_Tables_number	1
_symmetry_cell_setting	triclinic
loop_
_symmetry_equiv_pos_as_xyz
  x,y,z
_cell_length_a	21.295418
_cell_length_b	21.295417
_cell_length_c	12.645323
_cell_angle_alpha	89.967055
_cell_angle_beta	89.958322
_cell_angle_gamma	90.045515
loop_
_atom_site_label
_atom_site_type_symbol
_atom_site_fract_x
_atom_site_fract_y
_atom_site_fract_z
Zn1	Zn	0.962347	-0.250338	-0.599925
Zn2	Zn	0.962254	-0.355613	-0.422640
Zn3	Zn	0.857074	-0.250391	-0.422610
Zn4	Zn	0.857041	-0.355603	-0.599796
O5	O	0.909679	-0.302986	-0.511243
O6	O	1.050424	-0.264286	-0.576473
O7	O	0.948277	-0.341681	-0.274288
O8	O	0.871091	-0.162294	-0.446173
O9	O	1.050356	-0.341631	-0.446223
O10	O	0.948434	-0.162256	-0.576445
O11	O	0.871001	-0.264375	-0.274267
O12	O	0.768980	-0.264365	-0.446048
O13	O	0.871035	-0.341613	-0.748161
O14	O	0.768956	-0.341664	-0.576226
O15	O	0.948402	-0.264276	-0.748255
O16	O	0.948245	-0.443701	-0.446098
O17	O	0.870945	-0.443694	-0.576255
C18	C	0.746127	-0.303019	-0.511121
C19	C	0.676159	-0.303049	-0.511093
C20	C	0.643296	-0.343352	-0.578776
C21	C	0.577554	-0.343336	-0.578823
C22	C	0.544676	-0.303024	-0.511170
C23	C	0.577547	-0.262714	-0.443483
C24	C	0.643288	-0.262726	-0.443445
N25	N	0.441402	-0.298109	-0.418450
N26	N	0.378951	-0.298101	-0.418489
C27	C	0.346602	-0.302984	-0.511282
N28	N	0.379063	-0.307888	-0.604037
N29	N	0.441521	-0.307899	-0.603996
C30	C	0.473391	-0.303006	-0.511204
C31	C	0.242454	-0.343272	-0.579022
C32	C	0.176710	-0.343252	-0.579071
C33	C	0.176705	-0.262633	-0.443721
C34	C	0.242447	-0.262650	-0.443681
C35	C	0.275318	-0.302973	-0.511330
C36	C	0.909598	-0.466538	-0.511189
C37	C	0.909622	-0.536506	-0.511201
C38	C	0.949872	-0.569295	-0.579083
C39	C	0.949894	-0.635038	-0.579109
C40	C	0.909673	-0.667988	-0.511235
C41	C	0.869415	-0.635191	-0.443349
C42	C	0.869390	-0.569450	-0.443332
N43	N	0.904915	-0.771254	-0.418456
N44	N	0.904943	-0.833705	-0.418475
C45	C	0.909746	-0.866063	-0.511283
N46	N	0.914533	-0.833610	-0.604073
N47	N	0.914508	-0.771153	-0.604053
C48	C	0.909696	-0.739274	-0.511246
C49	C	0.950022	-0.970138	-0.579198
C50	C	0.950040	-1.035882	-0.579226
C51	C	0.869565	-1.036034	-0.443457
C52	C	0.869544	-0.970291	-0.443438
C53	C	0.909776	-0.937347	-0.511307
C54	C	1.073869	-0.302953	-0.511366
C55	C	1.143837	-0.302939	-0.511418
C56	C	0.909725	-0.302938	-0.787748
C57	C	0.909745	-0.302917	-0.905578
C58	C	0.909776	-0.138796	-0.511320
C59	C	0.909818	-0.068828	-0.511353
C60	C	0.860923	-0.351341	-1.073083
C61	C	0.861050	-0.351580	-0.950523
C62	C	0.976069	-0.320902	-0.950131
C63	C	0.975801	-0.321205	-1.072729
C64	C	0.892870	-0.236237	-1.072782
C65	C	0.891390	-0.236637	-0.950175
C66	C	0.909669	-0.302989	-0.235813
C67	C	0.909771	-0.302833	-0.117983
H68	H	0.550774	-0.229890	-0.388401
H69	H	0.670045	-0.229904	-0.388329
O70	O	0.930811	-0.191322	-0.913629
C71	C	0.976044	-0.218679	-0.846568
H72	H	0.980970	-0.270680	-0.866228
H73	H	1.023161	-0.194226	-0.858521
H74	H	0.960581	-0.213253	-0.760729
O75	O	0.830204	-0.537664	-0.377437
C76	C	0.767462	-0.553777	-0.400495
H77	H	0.766160	-0.601493	-0.441258
H78	H	0.739260	-0.556091	-0.323929
H79	H	0.746231	-0.516776	-0.454943
O80	O	0.989113	-0.938229	-0.645237
C81	C	1.024649	-0.981271	-0.705152
H82	H	0.998882	-1.028163	-0.708773
H83	H	1.031323	-0.962233	-0.788687
H84	H	1.072476	-0.988223	-0.666446
H85	H	1.013430	-0.287407	-1.102436
H86	H	0.269218	-0.376102	-0.634111
O87	O	0.830434	-1.067936	-0.377489
C88	C	0.794916	-1.024894	-0.317545
H89	H	0.792706	-0.978014	-0.360948
H90	H	0.745329	-1.043951	-0.306137
H91	H	0.817991	-1.017911	-0.237079
O92	O	0.935349	-0.193194	-1.107563
C93	C	0.980159	-0.223076	-1.172387
H94	H	0.959309	-0.268199	-1.205848
H95	H	0.993789	-0.190445	-1.240132
H96	H	1.023613	-0.234749	-1.123602
H97	H	0.871970	-0.400403	-1.103896
H98	H	0.149954	-0.376071	-0.634193
H99	H	0.982816	-1.062578	-0.634508
O100	O	0.144678	-0.223548	-0.378010
C101	C	0.079606	-0.232174	-0.392563
H102	H	0.070605	-0.280770	-0.427173
H103	H	0.054582	-0.227866	-0.313174
H104	H	0.061010	-0.194861	-0.449107
H105	H	0.550792	-0.376155	-0.633942
H106	H	0.670055	-0.376185	-0.633862
H107	H	0.269204	-0.229834	-0.388562
H108	H	0.982629	-0.542475	-0.634348
O109	O	0.830383	-0.938409	-0.377639
C110	C	0.789701	-0.900391	-0.437895
H111	H	0.785793	-0.920170	-0.521385
H112	H	0.741269	-0.899719	-0.399449
H113	H	0.809144	-0.850542	-0.441574
H114	H	0.811868	-0.340328	-0.920396
H115	H	0.990642	-0.369073	-0.919439
O116	O	0.802101	-0.338085	-1.108382
C117	C	0.801135	-0.340813	-1.219770
H118	H	0.841336	-0.371680	-1.248706
H119	H	0.754525	-0.361504	-1.247195
H120	H	0.806763	-0.291464	-1.253480
O121	O	0.874321	-0.410514	-0.915673
C122	C	0.828359	-0.452649	-0.953184
H123	H	0.805197	-0.432244	-1.026814
H124	H	0.851402	-0.499385	-0.973711
H125	H	0.791311	-0.460391	-0.889360
H126	H	0.982665	-0.661740	-0.634398
O127	O	0.830314	-0.667265	-0.377562
C128	C	0.789644	-0.705304	-0.437842
H129	H	0.811825	-0.715093	-0.518228
H130	H	0.781239	-0.751562	-0.394655
H131	H	0.742980	-0.680019	-0.449388
O132	O	0.992979	-0.379283	-1.106733
C133	C	1.053680	-0.393331	-1.069126
H134	H	1.063973	-0.363824	-0.995963
H135	H	1.056428	-0.445278	-1.047812
H136	H	1.089722	-0.382251	-1.133192
H137	H	1.013440	-0.286688	-0.921025
H138	H	0.845350	-0.219840	-1.103664
H139	H	0.842582	-0.223074	-0.921052
