data_functionalizedCrystal
_audit_creation_method	'MofGen! by Chris Wilmer'
_symmetry_space_group_name_H-M	'P1'
_symmetry_Int_Tables_number	1
_symmetry_cell_setting	triclinic
loop_
_symmetry_equiv_pos_as_xyz
  x,y,z
_cell_length_a	12.837939
_cell_length_b	13.596369
_cell_length_c	12.811487
_cell_angle_alpha	95.426486
_cell_angle_beta	90.587114
_cell_angle_gamma	89.999979
loop_
_atom_site_label
_atom_site_type_symbol
_atom_site_fract_x
_atom_site_fract_y
_atom_site_fract_z
O1	O	-1.376631	-0.057431	0.272970
O2	O	-0.876631	0.442569	0.772970
O3	O	-1.074767	-0.058638	0.259487
O4	O	-0.574767	0.441362	0.759487
O5	O	-1.233291	-0.071590	0.114199
O6	O	-0.733291	0.428410	0.614199
O7	O	-1.218107	-0.044479	0.418259
O8	O	-0.718107	0.455521	0.918259
O9	O	-1.233288	0.091992	0.114188
O10	O	-0.733288	0.591992	0.614188
O11	O	-1.074764	0.104944	0.259477
O12	O	-0.574764	0.604944	0.759477
O13	O	-1.376628	0.106151	0.272960
O14	O	-0.876628	0.606151	0.772960
Zn15	Zn	-1.225696	0.131520	0.266217
Zn16	Zn	-0.725696	0.631520	0.766217
Zn17	Zn	-1.225699	-0.084007	0.266230
Zn18	Zn	-0.725699	0.415993	0.766230
O19	O	-1.218105	0.119103	0.418248
O20	O	-0.718105	0.619103	0.918248
C21	C	-1.036125	0.022746	0.254927
C22	C	-0.536125	0.522746	0.754927
C23	C	-0.920989	0.021533	0.241341
C24	C	-0.420989	0.521533	0.741341
C25	C	-0.680738	0.036111	0.404669
C26	C	-0.180738	0.536111	0.904669
C27	C	-0.572557	0.034972	0.391909
C28	C	-0.072557	0.534972	0.891909
C29	C	-0.596444	0.018124	0.203062
C30	C	-0.096444	0.518124	0.703062
C31	C	-0.704625	0.019262	0.215822
C32	C	-0.204625	0.519262	0.715822
C33	C	-0.746768	0.028255	0.316629
C34	C	-0.246768	0.528255	0.816629
C35	C	-0.854951	0.029387	0.329388
C36	C	-0.354951	0.529387	0.829388
C37	C	-0.878836	0.012545	0.140542
C38	C	-0.378836	0.512545	0.640542
C39	C	-0.770655	0.011406	0.127782
C40	C	-0.270655	0.511406	0.627782
N41	N	-1.225702	-0.231098	0.266232
N42	N	-0.725702	0.268902	0.766232
C43	C	-1.225697	-0.632390	0.266220
C44	C	-0.725697	-0.132390	0.766220
C45	C	-1.225695	-0.520739	0.266226
C46	C	-0.725695	-0.020739	0.766226
C47	C	-1.225699	-0.431748	0.266226
C48	C	-0.725699	0.068252	0.766226
C49	C	-1.225698	-0.320089	0.266233
C50	C	-0.725698	0.179911	0.766233
C51	C	-0.415270	0.024766	0.277521
C52	C	0.084730	0.524766	0.777521
C53	C	-0.530406	0.025977	0.291109
C54	C	-0.030406	0.525977	0.791109
C55	C	-1.232437	0.006704	0.075005
C56	C	-0.732437	0.506704	0.575005
C57	C	-1.229887	-0.003714	-0.041766
C58	C	-0.729887	0.496286	0.458234
N59	N	-1.225701	0.278611	0.266207
N60	N	-0.725701	0.778611	0.766207
C61	C	-1.225109	0.155064	-0.261216
C62	C	-0.725109	0.655064	0.238784
C63	C	-1.222713	0.145280	-0.370932
C64	C	-0.722713	0.645280	0.129068
C65	C	-1.222704	-0.033066	-0.370918
C66	C	-0.722704	0.466934	0.129082
C67	C	-1.225101	-0.023282	-0.261201
C68	C	-0.725101	0.476718	0.238799
C69	C	-1.226302	0.070787	-0.206354
C70	C	-0.726302	0.570787	0.293646
C71	C	-1.228691	0.080570	-0.096635
C72	C	-0.728691	0.580570	0.403365
C73	C	-1.228690	-0.097775	-0.096623
C74	C	-0.728690	0.402225	0.403377
C75	C	-1.226293	-0.107559	-0.206340
C76	C	-0.726293	0.392441	0.293660
C77	C	-1.218958	0.040806	0.457442
C78	C	-0.718958	0.540806	0.957442
C79	C	-1.221509	0.051218	0.574213
C80	C	-0.721509	0.551218	1.074213
H81	H	-0.889262	0.036711	0.411469
H82	H	-0.389262	0.536711	0.911469
H83	H	-1.229654	0.157165	-0.051980
H84	H	-0.729654	0.657165	0.448020
H85	H	-1.226060	0.231658	-0.216557
H86	H	-0.726060	0.731658	0.283443
O87	O	-1.221419	0.236177	-0.430110
O88	O	-0.721419	0.736177	0.069890
H89	H	-1.222649	0.303228	-0.373534
H90	H	-0.722649	0.803228	0.126466
H91	H	-1.221738	-0.109652	-0.415594
H92	H	-0.721738	0.390348	0.084406
H93	H	-1.225319	-0.184147	-0.251011
H94	H	-0.725319	0.315853	0.248989
H95	H	-1.229649	-0.166400	-0.051943
H96	H	-0.729649	0.333600	0.448057
O97	O	-0.726196	0.045804	0.513391
O98	O	-0.226196	0.545804	1.013391
H99	H	-0.812514	0.045269	0.507473
H100	H	-0.312514	0.545269	1.007473
O101	O	-0.725192	0.001706	0.019061
O102	O	-0.225192	0.501706	0.519061
H103	H	-0.751678	0.064561	-0.023772
H104	H	-0.251678	0.564561	0.476228
H105	H	-0.518799	0.041373	0.463601
H106	H	-0.018799	0.541373	0.963601
O107	O	-0.550982	0.008440	0.094341
O108	O	-0.050982	0.508440	0.594341
H109	H	-0.464664	0.008970	0.100265
H110	H	0.035336	0.508970	0.600265
O111	O	-0.950052	0.004076	0.045573
O112	O	-0.450052	0.504076	0.545573
H113	H	-1.032358	0.006384	0.071377
H114	H	-0.532358	0.506384	0.571377
