data_functionalizedCrystal
_audit_creation_method	'MofGen! by Chris Wilmer'
_symmetry_space_group_name_H-M	'P1'
_symmetry_Int_Tables_number	1
_symmetry_cell_setting	triclinic
loop_
_symmetry_equiv_pos_as_xyz
  x,y,z
_cell_length_a	14.044191
_cell_length_b	14.044220
_cell_length_c	9.130313
_cell_angle_alpha	89.994483
_cell_angle_beta	89.998938
_cell_angle_gamma	93.190327
loop_
_atom_site_label
_atom_site_type_symbol
_atom_site_fract_x
_atom_site_fract_y
_atom_site_fract_z
O1	O	1.277171	0.230200	-0.121735
O2	O	1.527171	0.480200	0.128265
O3	O	1.777171	0.730200	0.378265
O4	O	2.027171	0.980200	0.628265
O5	O	1.000499	0.221887	-0.121753
O6	O	1.250499	0.471887	0.128247
O7	O	1.500499	0.721887	0.378247
O8	O	1.750499	0.971887	0.628247
O9	O	1.134682	0.087707	-0.121730
O10	O	1.384682	0.337707	0.128270
O11	O	1.634682	0.587707	0.378270
O12	O	1.884682	0.837707	0.628270
O13	O	1.142988	0.364379	-0.121758
O14	O	1.392988	0.614379	0.128242
O15	O	1.642988	0.864379	0.378242
O16	O	1.892988	1.114379	0.628242
O17	O	1.134672	0.087702	0.121869
O18	O	1.384672	0.337702	0.371869
O19	O	1.634672	0.587702	0.621869
O20	O	1.884672	0.837702	0.871869
O21	O	1.000488	0.221882	0.121845
O22	O	1.250488	0.471882	0.371845
O23	O	1.500488	0.721882	0.621845
O24	O	1.750488	0.971882	0.871845
O25	O	1.277161	0.230195	0.121864
O26	O	1.527161	0.480195	0.371864
O27	O	1.777161	0.730195	0.621864
O28	O	2.027161	0.980195	0.871864
Cu29	Cu	1.138824	0.226038	0.144097
Cu30	Cu	1.388824	0.476038	0.394097
Cu31	Cu	1.638824	0.726038	0.644097
Cu32	Cu	1.888824	0.976038	0.894097
Cu33	Cu	1.138836	0.226044	-0.143987
Cu34	Cu	1.388836	0.476044	0.106013
Cu35	Cu	1.638836	0.726044	0.356013
Cu36	Cu	1.888836	0.976044	0.606013
O37	O	1.142977	0.364374	0.121840
O38	O	1.392977	0.614374	0.371840
O39	O	1.642977	0.864374	0.621840
O40	O	1.892977	1.114374	0.871840
C41	C	0.964872	0.218248	0.000044
C42	C	1.214872	0.468248	0.250044
C43	C	1.464872	0.718248	0.500044
C44	C	1.714872	0.968248	0.750044
C45	C	0.858728	0.207401	0.000037
C46	C	1.108728	0.457401	0.250037
C47	C	1.358728	0.707401	0.500037
C48	C	1.608728	0.957401	0.750037
C49	C	0.613270	0.264501	0.000046
C50	C	0.863270	0.514501	0.250046
C51	C	1.113270	0.764501	0.500046
C52	C	1.363270	1.014501	0.750046
C53	C	0.664395	0.187585	0.000051
C54	C	0.914395	0.437585	0.250051
C55	C	1.164395	0.687585	0.500051
C56	C	1.414395	0.937585	0.750051
C57	C	0.772532	0.198613	0.000044
C58	C	1.022532	0.448613	0.250044
C59	C	1.272532	0.698613	0.500044
C60	C	1.522532	0.948613	0.750044
C61	C	0.505123	0.253474	0.000054
C62	C	0.755123	0.503474	0.250054
C63	C	1.005123	0.753474	0.500054
C64	C	1.255123	1.003474	0.750054
C65	C	1.131041	0.052083	0.000070
C66	C	1.381041	0.302083	0.250070
C67	C	1.631041	0.552083	0.500070
C68	C	1.881041	0.802083	0.750070
C69	C	1.120197	-0.054060	0.000071
C70	C	1.370197	0.195940	0.250071
C71	C	1.620197	0.445940	0.500071
C72	C	1.870197	0.695940	0.750071
C73	C	1.100370	-0.248398	0.000048
C74	C	1.350370	0.001602	0.250048
C75	C	1.600370	0.251602	0.500048
C76	C	1.850370	0.501602	0.750048
C77	C	1.177285	-0.299526	0.000049
C78	C	1.427285	-0.049526	0.250049
C79	C	1.677285	0.200474	0.500049
C80	C	1.927285	0.450474	0.750049
C81	C	1.166253	-0.407663	0.000037
C82	C	1.416253	-0.157663	0.250037
C83	C	1.666253	0.092337	0.500037
C84	C	1.916253	0.342337	0.750037
C85	C	1.111400	-0.140252	0.000061
C86	C	1.361400	0.109748	0.250061
C87	C	1.611400	0.359748	0.500061
C88	C	1.861400	0.609748	0.750061
C89	C	1.312788	0.233834	0.000063
C90	C	1.562788	0.483834	0.250063
C91	C	1.812788	0.733834	0.500063
C92	C	2.062788	0.983834	0.750063
C93	C	1.418931	0.244681	0.000060
C94	C	1.668931	0.494681	0.250060
C95	C	1.918931	0.744681	0.500060
C96	C	2.168931	0.994681	0.750060
C97	C	1.146618	0.399998	0.000037
C98	C	1.396618	0.649998	0.250037
C99	C	1.646618	0.899998	0.500037
C100	C	1.896618	1.149998	0.750037
C101	C	1.157463	0.506142	0.000027
C102	C	1.407463	0.756142	0.250027
C103	C	1.657463	1.006142	0.500027
C104	C	1.907463	1.256142	0.750027
N105	N	1.138822	0.226034	0.346720
N106	N	1.388822	0.476034	0.596720
N107	N	1.638822	0.726034	0.846720
N108	N	1.888822	0.976034	1.096720
N109	N	1.138844	0.226041	-0.346609
N110	N	1.388844	0.476041	-0.096609
N111	N	1.638844	0.726041	0.153391
N112	N	1.888844	0.976041	0.403391
C113	C	1.198262	0.166648	0.423382
C114	C	1.448262	0.416648	0.673382
C115	C	1.698262	0.666648	0.923382
C116	C	1.948262	0.916648	1.173382
C117	C	1.198271	0.166649	0.576719
C118	C	1.448271	0.416649	0.826719
C119	C	1.698271	0.666649	1.076719
C120	C	1.948271	0.916649	1.326719
C121	C	1.079397	0.285429	0.576718
C122	C	1.329397	0.535429	0.826718
C123	C	1.579397	0.785429	1.076718
C124	C	1.829397	1.035429	1.326718
C125	C	1.079384	0.285423	0.423384
C126	C	1.329384	0.535423	0.673384
C127	C	1.579384	0.785423	0.923384
C128	C	1.829384	1.035423	1.173384
H129	H	0.626952	0.113452	-0.000044
H130	H	0.876952	0.363452	0.249956
H131	H	1.126952	0.613452	0.499956
H132	H	1.376952	0.863452	0.749956
H133	H	0.650711	0.338628	0.000034
H134	H	0.900711	0.588628	0.250034
H135	H	1.150711	0.838628	0.500034
H136	H	1.400711	1.088628	0.750034
H137	H	1.031006	0.333784	0.639153
H138	H	1.281006	0.583784	0.889153
H139	H	1.531006	0.833784	1.139153
H140	H	1.781006	1.083784	1.389153
H141	H	1.251419	-0.262085	-0.000044
H142	H	1.501419	-0.012085	0.249956
H143	H	1.751419	0.237915	0.499956
H144	H	2.001419	0.487915	0.749956
H145	H	1.246672	0.118290	0.639133
H146	H	1.496672	0.368290	0.889133
H147	H	1.746672	0.618290	1.139133
H148	H	1.996672	0.868290	1.389133
H149	H	1.026242	-0.285837	0.000040
H150	H	1.276242	-0.035837	0.250040
H151	H	1.526242	0.214163	0.500040
H152	H	1.776242	0.464163	0.750040
H153	H	1.246659	0.118288	0.360966
H154	H	1.496659	0.368288	0.610966
H155	H	1.746659	0.618288	0.860966
H156	H	1.996659	0.868288	1.110966
H157	H	1.030976	0.333782	0.360961
H158	H	1.280976	0.583782	0.610961
H159	H	1.530976	0.833782	0.860961
H160	H	1.780976	1.083782	1.110961
