data_functionalizedCrystal
_audit_creation_method	'MofGen! by Chris Wilmer'
_symmetry_space_group_name_H-M	'P1'
_symmetry_Int_Tables_number	1
_symmetry_cell_setting	triclinic
loop_
_symmetry_equiv_pos_as_xyz
  x,y,z
_cell_length_a	13.635800
_cell_length_b	10.943632
_cell_length_c	11.168136
_cell_angle_alpha	88.106154
_cell_angle_beta	108.508683
_cell_angle_gamma	71.161120
loop_
_atom_site_label
_atom_site_type_symbol
_atom_site_fract_x
_atom_site_fract_y
_atom_site_fract_z
V1	V	2.055801	-0.178649	0.393669
O2	O	2.034692	0.008565	0.386206
O3	O	2.044789	-0.354212	0.390947
O4	O	2.043933	-0.175910	0.565375
O5	O	2.035554	-0.170972	0.210570
V6	V	2.294308	-0.156255	0.371772
O7	O	2.193569	-0.227772	0.441701
O8	O	2.381638	-0.107132	0.323741
O9	O	2.193716	0.019308	0.374495
O10	O	2.374115	-0.343469	0.379235
O11	O	2.373252	-0.163933	0.554871
O12	O	2.194572	-0.158994	0.200066
V13	V	2.555801	-0.178649	0.393669
O14	O	2.534692	0.008565	0.386206
O15	O	2.544789	-0.354212	0.390947
O16	O	2.543933	-0.175910	0.565375
O17	O	2.535554	-0.170972	0.210570
V18	V	2.794308	-0.156255	0.371772
O19	O	2.693569	-0.227772	0.441701
O20	O	2.881638	-0.107132	0.323741
O21	O	2.693716	0.019308	0.374495
O22	O	2.874115	-0.343469	0.379235
O23	O	2.873252	-0.163933	0.554871
O24	O	2.694572	-0.158994	0.200066
C25	C	1.970099	-0.397010	0.384728
C26	C	2.001821	-0.540536	0.383647
C27	C	1.924280	-0.617688	0.376456
C28	C	1.964202	-0.690329	0.274522
C29	C	2.018437	-0.723632	0.483667
C30	C	2.041303	-0.611273	0.281641
C31	C	2.095547	-0.644582	0.490879
C32	C	2.135524	-0.717186	0.388925
C33	C	1.969006	-0.169567	0.607228
C34	C	2.000031	-0.168489	0.747599
C35	C	2.100077	0.062099	0.380709
C36	C	2.057975	0.205623	0.381799
C37	C	2.101170	-0.165342	0.158207
C38	C	2.059763	-0.166414	0.017835
C39	C	2.470099	-0.397010	0.384728
C40	C	2.501821	-0.540536	0.383647
C41	C	2.469006	-0.169567	0.607228
C42	C	2.500031	-0.168489	0.747599
C43	C	2.101313	-0.174132	0.816290
C44	C	2.133381	-0.173018	0.961370
C45	C	2.600077	0.062099	0.380709
C46	C	2.557975	0.205623	0.381799
C47	C	2.601170	-0.165342	0.158207
C48	C	2.559763	-0.166414	0.017835
C49	C	2.603414	-0.610772	0.389153
C50	C	2.636203	-0.759113	0.388035
C51	C	2.601313	-0.174132	0.816290
C52	C	2.633381	-0.173018	0.961370
H53	H	1.909001	-0.711083	0.183036
H54	H	2.475860	-0.756475	0.376848
H55	H	2.472999	-0.161591	0.958795
O56	O	1.817293	-0.565821	0.369802
C57	C	1.748027	-0.588442	0.255563
H58	H	1.791793	-0.604475	0.182687
H59	H	1.668153	-0.500307	0.216006
H60	H	1.728122	-0.678832	0.275619
O61	O	2.052336	-0.552884	0.179712
C62	C	2.022022	-0.417231	0.181925
H63	H	1.964896	-0.386899	0.239699
H64	H	1.977372	-0.362863	0.080102
H65	H	2.099284	-0.392239	0.227760
O66	O	2.426869	-0.599628	0.376862
C67	C	2.335120	-0.545267	0.263393
H68	H	2.330039	-0.443331	0.229288
H69	H	2.256347	-0.538717	0.282369
H70	H	2.344782	-0.609792	0.186771
H71	H	2.225126	-0.760411	0.394161
O72	O	2.736903	-0.178950	1.031969
C73	C	2.788144	-0.291100	1.125740
H74	H	2.722214	-0.322805	1.145491
H75	H	2.840999	-0.267846	1.217415
H76	H	2.842655	-0.373334	1.090143
O77	O	2.236903	-0.178950	1.031969
C78	C	2.288144	-0.291100	1.125740
H79	H	2.222214	-0.322805	1.145491
H80	H	2.340999	-0.267846	1.217415
H81	H	2.342655	-0.373334	1.090143
O82	O	2.676462	-0.181108	0.758300
C83	C	2.693942	-0.294391	0.699465
H84	H	2.670797	-0.368949	0.747613
H85	H	2.784683	-0.337810	0.709265
H86	H	2.640485	-0.268019	0.593944
H87	H	2.150708	-0.623796	0.582365
O88	O	2.007075	-0.781813	0.585462
C89	C	1.895981	-0.730830	0.578426
H90	H	1.854020	-0.630228	0.517441
H91	H	1.892697	-0.722134	0.678633
H92	H	1.851395	-0.798900	0.533519
O93	O	2.424952	-0.161569	0.805680
C94	C	2.407427	-0.048248	0.864455
H95	H	2.482033	-0.016241	0.883959
H96	H	2.395600	-0.070078	0.958399
H97	H	2.330477	0.033206	0.798535
H98	H	2.164279	-0.179779	0.767690
O99	O	1.956332	-0.160858	0.947318
C100	C	1.962999	-0.273433	0.887806
H101	H	2.048221	-0.316608	0.879446
H102	H	1.897115	-0.246190	0.788444
H103	H	1.949053	-0.348529	0.947402
H104	H	2.666118	-0.561084	0.394700
O105	O	1.924952	-0.161569	0.805680
C106	C	1.907427	-0.048248	0.864455
H107	H	1.982033	-0.016241	0.883959
H108	H	1.895600	-0.070078	0.958399
H109	H	1.830477	0.033206	0.798535
O110	O	2.739955	-0.831238	0.393475
C111	C	2.734141	-0.892085	0.283376
H112	H	2.649165	-0.900610	0.241129
H113	H	2.800375	-0.993693	0.310024
H114	H	2.748182	-0.831157	0.209950
