data_functionalizedCrystal
_audit_creation_method	'MofGen! by Chris Wilmer'
_symmetry_space_group_name_H-M	'P1'
_symmetry_Int_Tables_number	1
_symmetry_cell_setting	triclinic
loop_
_symmetry_equiv_pos_as_xyz
  x,y,z
_cell_length_a	15.625020
_cell_length_b	15.625204
_cell_length_c	14.185569
_cell_angle_alpha	85.693838
_cell_angle_beta	85.694396
_cell_angle_gamma	90.223048
loop_
_atom_site_label
_atom_site_type_symbol
_atom_site_fract_x
_atom_site_fract_y
_atom_site_fract_z
O1	O	1.097507	-0.216537	-0.403920
O2	O	0.855942	-0.209667	-0.318537
O3	O	0.973290	-0.092319	-0.403917
O4	O	0.980159	-0.333884	-0.318540
O5	O	1.007956	-0.057658	-0.262304
O6	O	0.890608	-0.175005	-0.176924
O7	O	1.132173	-0.181876	-0.262306
Cu8	Cu	1.014556	-0.175276	-0.206684
Cu9	Cu	0.973559	-0.216267	-0.374159
O10	O	1.014825	-0.299223	-0.176926
C11	C	0.842177	-0.189211	-0.237554
C12	C	0.749513	-0.179888	-0.207234
C13	C	0.637801	-0.147855	-0.087312
C14	C	0.724870	-0.156617	-0.115811
C15	C	0.687088	-0.194401	-0.270197
C16	C	0.600013	-0.185638	-0.241712
C17	C	0.575377	-0.162365	-0.150268
C18	C	0.537590	-0.200148	-0.304669
C19	C	0.450523	-0.191390	-0.276185
C20	C	0.425879	-0.168121	-0.184744
C21	C	0.488310	-0.153607	-0.121784
C22	C	0.562227	-0.223426	-0.396110
C23	C	0.499804	-0.237937	-0.459067
C24	C	0.412735	-0.229173	-0.430585
C25	C	0.388091	-0.205904	-0.339144
C26	C	0.350304	-0.243686	-0.493545
C27	C	0.263237	-0.234928	-0.465061
C28	C	0.301024	-0.197145	-0.310660
C29	C	0.987497	-0.043891	-0.343288
C30	C	0.978174	0.048771	-0.373612
C31	C	1.145938	-0.202332	-0.343291
C32	C	1.238601	-0.211656	-0.373617
N33	N	1.043397	-0.146445	-0.088894
C34	C	0.946137	0.160479	-0.493537
C35	C	0.954901	0.073411	-0.465035
C36	C	0.992688	0.111198	-0.310652
C37	C	0.983924	0.198271	-0.339140
C38	C	0.960649	0.222904	-0.430584
C39	C	0.998436	0.260695	-0.276186
C40	C	0.989677	0.347761	-0.304674
C41	C	0.966405	0.372402	-0.396115
C42	C	0.951890	0.309969	-0.459071
C43	C	1.021717	0.236060	-0.184745
C44	C	1.036229	0.298485	-0.121791
C45	C	1.027464	0.385552	-0.150276
C46	C	1.004192	0.410193	-0.241717
C47	C	1.041979	0.447984	-0.087320
C48	C	1.033220	0.535050	-0.115807
C49	C	0.995433	0.497258	-0.270205
C50	C	1.000619	0.652348	-0.237560
C51	C	1.009945	0.559683	-0.207251
N52	N	0.944725	-0.245091	-0.491954
C53	C	0.859988	-0.329760	0.412167
C54	C	0.881840	-0.307927	0.501297
C55	C	0.985778	-0.204060	0.425660
C56	C	0.963931	-0.225882	0.336522
C57	C	0.901036	-0.288733	0.329785
C58	C	1.004980	-0.184854	0.254140
C59	C	0.983138	-0.206677	0.165010
C60	C	0.920247	-0.269528	0.158263
C61	C	0.879194	-0.310556	0.240655
C62	C	1.067879	-0.122008	0.260879
C63	C	1.108928	-0.080980	0.178497
C64	C	1.087081	-0.102799	0.089365
C65	C	1.024190	-0.165649	0.082618
C66	C	1.128134	-0.061771	0.006973
C67	C	1.106292	-0.083594	-0.082156
C68	C	1.002348	-0.187472	-0.006511
H69	H	0.354982	-0.160995	-0.161552
N70	N	1.176766	-0.013197	0.185768
H71	H	1.184377	-0.005598	0.254731
H72	H	1.158413	0.042922	0.153675
H73	H	1.085664	-0.104245	0.333457
H74	H	0.519875	-0.256888	-0.533519
H75	H	0.280965	-0.178205	-0.236194
H76	H	1.179350	-0.010603	0.012472
H77	H	0.633124	-0.230563	-0.419297
H78	H	0.370376	-0.262643	-0.567995
H79	H	0.951126	-0.238645	-0.011994
N80	N	0.195898	-0.250565	-0.532958
H81	H	0.156459	-0.298849	-0.505104
H82	H	0.224777	-0.266595	-0.595193
N83	N	1.067079	0.421407	0.011305
H84	H	1.074943	0.474165	0.046865
H85	H	1.122616	0.388582	0.007005
N86	N	0.837552	-0.352184	0.590149
H87	H	0.807069	-0.308196	0.628816
H88	H	0.881569	-0.382703	0.628743
H89	H	0.976465	0.517315	-0.344662
N90	N	0.461734	-0.128493	-0.023159
H91	H	0.514518	-0.120049	0.012179
H92	H	0.424445	-0.175378	0.011729
N93	N	1.031141	0.142153	-0.154009
H94	H	1.048087	0.136020	-0.086528
H95	H	1.076886	0.116273	-0.196991
H96	H	0.959276	0.443297	-0.419309
H97	H	0.932922	0.330026	-0.533528
N98	N	1.150566	-0.039350	-0.171018
H99	H	1.193722	0.003779	-0.153226
H100	H	1.106538	-0.008891	-0.209648
N101	N	0.611224	-0.122741	0.011313
H102	H	0.664008	-0.114297	0.046652
H103	H	0.573935	-0.169625	0.046201
H104	H	0.827972	-0.361729	0.235172
N105	N	0.920999	0.187057	-0.592154
H106	H	0.913122	0.134300	-0.627712
H107	H	0.967606	0.224834	-0.626832
H108	H	1.011642	0.091129	-0.236199
H109	H	0.943081	0.022585	-0.516307
H110	H	0.775695	-0.144805	-0.064535
N111	N	0.896685	-0.293055	0.062128
H112	H	0.833792	-0.281449	0.055514
H113	H	0.908296	-0.355951	0.055560
H114	H	1.036991	-0.152888	0.431157
N115	N	1.061340	0.271914	-0.023169
H116	H	1.064690	0.207286	-0.014674
H117	H	1.016981	0.292909	0.025042
N118	N	1.048877	0.602387	-0.047915
H119	H	1.007587	0.593034	0.010272
H120	H	1.039815	0.661247	-0.079923
N121	N	0.713662	-0.219502	-0.368821
H122	H	0.778291	-0.222850	-0.377314
H123	H	0.692666	-0.175140	-0.417027
N124	N	0.792141	-0.397541	0.404889
H125	H	0.769445	-0.420220	0.470603
H126	H	0.818042	-0.446112	0.369557
