data_functionalizedCrystal
_audit_creation_method	'MofGen! by Chris Wilmer'
_symmetry_space_group_name_H-M	'P1'
_symmetry_Int_Tables_number	1
_symmetry_cell_setting	triclinic
loop_
_symmetry_equiv_pos_as_xyz
  x,y,z
_cell_length_a	10.908878
_cell_length_b	11.026607
_cell_length_c	14.048226
_cell_angle_alpha	89.996210
_cell_angle_beta	89.993336
_cell_angle_gamma	84.335404
loop_
_atom_site_label
_atom_site_type_symbol
_atom_site_fract_x
_atom_site_fract_y
_atom_site_fract_z
O1	O	1.662463	-0.179074	-0.079145
O2	O	2.162463	0.320926	0.420855
O3	O	1.309528	-0.088533	-0.079149
O4	O	1.809528	0.411467	0.420851
O5	O	1.456744	-0.304554	-0.079144
O6	O	1.956744	0.195446	0.420856
O7	O	1.515246	0.036946	-0.079150
O8	O	2.015246	0.536946	0.420850
O9	O	1.456719	-0.304560	0.079177
O10	O	1.956719	0.195440	0.579177
O11	O	1.309503	-0.088539	0.079172
O12	O	1.809503	0.411461	0.579172
O13	O	1.662438	-0.179080	0.079176
O14	O	2.162438	0.320920	0.579176
Zn15	Zn	1.485966	-0.133810	0.104311
Zn16	Zn	1.985966	0.366190	0.604311
Zn17	Zn	1.485999	-0.133803	-0.104284
Zn18	Zn	1.985999	0.366197	0.395716
O19	O	1.515221	0.036941	0.079171
O20	O	2.015221	0.536941	0.579171
C21	C	1.263630	-0.080075	0.000011
C22	C	1.763630	0.419925	0.500011
C23	C	1.126902	-0.054876	0.000009
C24	C	1.626902	0.445124	0.500009
C25	C	1.056640	-0.146821	0.000010
C26	C	1.556640	0.353179	0.500010
C27	C	0.915324	-0.120779	0.000009
C28	C	1.415324	0.379221	0.500009
C29	C	1.445939	-0.347589	0.000015
C30	C	1.945939	0.152411	0.500015
C31	C	1.413766	-0.475811	0.000012
C32	C	1.913766	0.024189	0.500012
C33	C	1.502601	-0.567544	0.000011
C34	C	2.002601	-0.067544	0.500011
C35	C	1.469351	-0.700068	0.000007
C36	C	1.969351	-0.200068	0.500007
C37	C	1.708336	-0.187538	0.000014
C38	C	2.208336	0.312462	0.500014
C39	C	1.845063	-0.212737	0.000010
C40	C	2.345063	0.287263	0.500010
C41	C	1.526026	0.079976	0.000010
C42	C	2.026026	0.579976	0.500010
C43	C	1.558199	0.208198	0.000007
C44	C	2.058199	0.708198	0.500007
N45	N	1.485953	-0.133818	0.246672
N46	N	1.985953	0.366182	0.746672
N47	N	1.486021	-0.133806	-0.246645
N48	N	1.986021	0.366194	0.253355
C49	C	1.551174	-0.229445	0.296492
C50	C	2.051174	0.270555	0.796492
C51	C	1.551182	-0.229447	0.396150
C52	C	2.051182	0.270553	0.896150
C53	C	1.485975	-0.133817	0.445985
C54	C	1.985975	0.366183	0.945985
C55	C	1.420746	-0.038185	0.396158
C56	C	1.920746	0.461815	0.896158
C57	C	1.420732	-0.038189	0.296502
C58	C	1.920732	0.461811	0.796502
C59	C	1.420783	-0.038184	0.603872
C60	C	1.920783	0.461816	1.103872
C61	C	1.420800	-0.038179	0.703535
C62	C	1.920800	0.461821	1.203535
C63	C	1.551234	-0.229443	0.703520
C64	C	2.051234	0.270557	1.203520
C65	C	1.551219	-0.229446	0.603864
C66	C	2.051219	0.270554	1.103864
C67	C	1.485992	-0.133812	0.554044
C68	C	1.985992	0.366188	1.054044
H69	H	0.889522	-0.310740	0.000005
H70	H	1.389522	0.189260	0.500005
O71	O	1.350468	0.064954	0.757296
O72	O	1.850468	0.564954	1.257296
H73	H	1.279583	0.028124	0.802723
H74	H	1.779583	0.528124	1.302723
O75	O	1.068022	0.074938	0.000015
O76	O	1.568022	0.574938	0.500015
H77	H	0.966267	0.075021	0.000023
H78	H	1.466267	0.575021	0.500023
H79	H	1.603272	-0.547968	0.000018
H80	H	2.103272	-0.047968	0.500018
O81	O	1.115520	-0.276636	0.000022
O82	O	1.615520	0.223364	0.500022
H83	H	1.217275	-0.276718	0.000033
H84	H	1.717275	0.223282	0.500033
O85	O	1.335988	-0.725970	0.000012
O86	O	1.835988	-0.225970	0.500012
H87	H	1.330799	-0.825994	0.000018
H88	H	1.830799	-0.325994	0.500018
O89	O	1.691563	-0.765903	0.000014
O90	O	2.191563	-0.265903	0.500014
H91	H	1.696755	-0.665880	0.000024
H92	H	2.196755	-0.165880	0.500024
O93	O	1.280410	-0.501720	0.000016
O94	O	1.780410	-0.001720	0.500016
H95	H	1.275221	-0.601744	0.000023
H96	H	1.775221	-0.101744	0.500023
H97	H	1.604279	-0.307314	0.255923
H98	H	2.104279	0.192686	0.755923
H99	H	1.604289	-0.307314	0.436713
H100	H	2.104289	0.192686	0.936713
H101	H	1.604322	-0.307310	0.563288
H102	H	2.104322	0.192690	1.063288
O103	O	1.621579	-0.332602	0.757246
O104	O	2.121579	0.167398	1.257246
H105	H	1.610623	-0.316547	0.834915
H106	H	2.110623	0.183453	1.334915
O107	O	0.856449	0.009042	0.000014
O108	O	1.356449	0.509042	0.500014
H109	H	0.754694	0.009125	0.000022
H110	H	1.254694	0.509125	0.500022
O111	O	1.350440	0.064965	0.550131
O112	O	1.850440	0.564965	1.050131
H113	H	1.305113	0.131472	0.601525
H114	H	1.805113	0.631472	1.101525
H115	H	1.367647	0.039675	0.436740
H116	H	1.867647	0.539675	0.936740
H117	H	1.367620	0.039679	0.255939
H118	H	1.867620	0.539679	0.755939
