data_functionalizedCrystal
_audit_creation_method	'MofGen! by Chris Wilmer'
_symmetry_space_group_name_H-M	'P1'
_symmetry_Int_Tables_number	1
_symmetry_cell_setting	triclinic
loop_
_symmetry_equiv_pos_as_xyz
  x,y,z
_cell_length_a	15.995343
_cell_length_b	15.995350
_cell_length_c	14.048226
_cell_angle_alpha	89.995798
_cell_angle_beta	89.997860
_cell_angle_gamma	83.490779
loop_
_atom_site_label
_atom_site_type_symbol
_atom_site_fract_x
_atom_site_fract_y
_atom_site_fract_z
O1	O	1.110992	0.107897	-0.079060
O2	O	0.867216	0.121232	-0.079083
O3	O	0.995767	-0.007323	-0.079070
O4	O	0.982440	0.236452	-0.079073
O5	O	0.995752	-0.007331	0.079251
O6	O	0.867200	0.121224	0.079239
O7	O	1.110976	0.107890	0.079261
Zn8	Zn	0.989086	0.114556	0.104387
Zn9	Zn	0.989106	0.114566	-0.104208
O10	O	0.982424	0.236445	0.079248
C11	C	0.836013	0.120678	0.000075
C12	C	0.743062	0.119028	0.000067
C13	C	0.995209	-0.038522	0.000089
C14	C	0.993557	-0.131472	0.000083
C15	C	0.987625	-0.469220	0.000086
C16	C	0.896072	-0.421783	-0.000277
C17	C	0.897725	-0.325093	0.000080
C18	C	0.990567	-0.301659	0.000084
C19	C	1.035715	-0.342742	0.090496
C20	C	1.033415	-0.439378	0.090571
C21	C	1.035324	-0.439727	-0.089470
C22	C	1.035303	-0.342782	-0.090664
C23	C	0.992235	-0.206962	0.000086
C24	C	0.985960	-0.563917	0.000090
C25	C	0.572876	0.116035	0.000079
C26	C	0.549530	0.023238	0.000080
C27	C	0.452852	0.021492	0.000445
C28	C	0.405316	0.113086	0.000091
C29	C	0.434399	0.159742	0.090320
C30	C	0.531191	0.160842	0.090390
C31	C	0.531119	0.162210	-0.089657
C32	C	0.434624	0.158784	-0.090838
C33	C	0.310618	0.111425	0.000100
C34	C	0.667574	0.117699	0.000076
C35	C	1.142179	0.108444	0.000101
C36	C	1.235130	0.110093	0.000104
C37	C	0.982983	0.267643	0.000087
C38	C	0.984635	0.360594	0.000087
N39	N	0.989078	0.114548	0.246747
N40	N	0.989121	0.114566	-0.246569
C41	C	1.046019	0.057648	0.296571
C42	C	1.046024	0.057647	0.396229
C43	C	0.989093	0.114552	0.446061
C44	C	0.932146	0.171455	0.396230
C45	C	0.932137	0.171451	0.296575
C46	C	0.932170	0.171461	0.603945
C47	C	0.932180	0.171467	0.703607
C48	C	1.046057	0.057657	0.703599
C49	C	1.046048	0.057653	0.603943
C50	C	0.989103	0.114558	0.554119
H51	H	0.862235	-0.296667	-0.064731
H52	H	0.433839	-0.015030	-0.064221
H53	H	1.092389	0.011314	0.436795
Cl54	Cl	1.117625	-0.013879	0.541295
Cl55	Cl	1.117598	-0.013891	0.233935
H56	H	1.100631	-0.471628	0.094677
Cl57	Cl	1.117646	-0.013877	0.766238
H58	H	0.885796	0.217797	0.563381
Cl59	Cl	0.860603	0.243006	0.766246
H60	H	0.885787	0.217786	0.436809
H61	H	0.416073	0.124808	-0.157590
H62	H	0.885769	0.217784	0.256009
Cl63	Cl	0.383752	0.261975	-0.099679
Cl64	Cl	0.553696	0.265904	0.096336
H65	H	0.414300	0.127724	0.157724
Cl66	Cl	0.839581	-0.450386	-0.100381
Cl67	Cl	0.842540	-0.282068	0.100302
Cl68	Cl	0.574773	0.117011	-0.195281
H69	H	0.545133	0.230514	-0.090528
Cl70	Cl	1.141025	-0.320939	0.095698
H71	H	0.859636	-0.441379	0.064191
H72	H	1.000480	-0.457682	0.158152
H73	H	1.004345	-0.314363	0.157774
Cl74	Cl	0.989112	-0.471419	-0.195270
H75	H	1.103008	-0.327422	-0.096120
Cl76	Cl	0.984758	-0.300216	-0.193946
Cl77	Cl	1.139539	-0.488768	-0.090406
Cl78	Cl	0.572540	0.111530	0.194920
H79	H	0.402552	0.227152	0.093421
H80	H	0.577544	-0.012728	-0.064614
H81	H	0.578508	-0.012148	0.064689
H82	H	0.434409	-0.014865	0.065504
