data_functionalizedCrystal
_audit_creation_method	'MofGen! by Chris Wilmer'
_symmetry_space_group_name_H-M	'P1'
_symmetry_Int_Tables_number	1
_symmetry_cell_setting	triclinic
loop_
_symmetry_equiv_pos_as_xyz
  x,y,z
_cell_length_a	10.654541
_cell_length_b	11.026607
_cell_length_c	9.482900
_cell_angle_alpha	101.400185
_cell_angle_beta	80.620776
_cell_angle_gamma	96.534973
loop_
_atom_site_label
_atom_site_type_symbol
_atom_site_fract_x
_atom_site_fract_y
_atom_site_fract_z
O1	O	1.720210	0.151889	-0.120845
O2	O	1.358265	0.168160	-0.120857
O3	O	1.509239	-0.016880	-0.120847
O4	O	1.569236	0.336929	-0.120856
O5	O	1.478607	0.020858	0.120943
O6	O	1.327633	0.205898	0.120933
O7	O	1.689578	0.189627	0.120945
Cu8	Cu	1.505809	0.201208	0.143016
Cu9	Cu	1.542034	0.156579	-0.142929
O10	O	1.538604	0.374667	0.120935
C11	C	1.482855	-0.043315	0.000046
C12	C	1.449861	-0.178308	0.000040
C13	C	1.295892	0.185834	0.000036
C14	C	1.155673	0.182261	0.000031
C15	C	1.540965	-0.251347	0.000041
C16	C	1.506866	-0.390869	0.000034
C17	C	1.175736	0.403525	0.000008
C18	C	1.119894	0.512472	-0.000010
C19	C	0.988145	0.509107	-0.000011
C20	C	0.912235	0.396784	0.000010
C21	C	0.968077	0.287836	0.000027
C22	C	1.099830	0.291212	0.000024
C23	C	0.948013	0.066577	0.000061
C24	C	1.079763	0.069937	0.000052
C25	C	0.872103	-0.045747	0.000082
C26	C	0.927946	-0.154698	0.000089
C27	C	1.059703	-0.151329	0.000089
C28	C	1.135605	-0.039010	0.000070
C29	C	1.751951	0.171952	0.000048
C30	C	1.892171	0.175524	0.000044
C31	C	1.564988	0.401102	0.000039
C32	C	1.597983	0.536093	0.000035
N33	N	1.480338	0.232598	0.344135
N34	N	1.567512	0.125180	-0.344047
C35	C	1.534511	0.165831	0.416338
C36	C	1.513331	0.191957	0.583754
H37	H	1.644204	-0.210586	0.000053
H38	H	1.181714	0.603924	-0.000023
H39	H	1.403620	-0.431625	0.000021
H40	H	1.346622	-0.219069	0.000027
C41	C	1.651366	0.021825	0.572038
N42	N	1.714528	-0.056018	0.508831
C43	C	1.737468	-0.408857	0.000042
N44	N	1.842526	-0.367391	0.000049
H45	H	1.283017	0.406270	-0.000023
H46	H	0.942678	0.597823	-0.000015
C47	C	1.396490	0.335948	0.428059
N48	N	1.333334	0.413794	0.491269
C49	C	0.727176	-0.049444	0.000082
N50	N	0.618016	-0.052233	0.000076
C51	C	0.767307	0.393091	0.000024
N52	N	0.658145	0.390309	0.000034
C53	C	1.618328	0.062455	0.332414
N54	N	1.681453	-0.015416	0.269204
H55	H	0.866130	-0.246144	0.000105
C56	C	1.280533	-0.035293	0.000074
N57	N	1.389694	-0.032487	0.000084
C58	C	1.429479	0.295312	0.667672
N59	N	1.366323	0.373158	0.730882
H60	H	1.105160	-0.240047	0.000108
