data_functionalizedCrystal
_audit_creation_method	'MofGen! by Chris Wilmer'
_symmetry_space_group_name_H-M	'P1'
_symmetry_Int_Tables_number	1
_symmetry_cell_setting	triclinic
loop_
_symmetry_equiv_pos_as_xyz
  x,y,z
_cell_length_a	6.817900
_cell_length_b	11.102244
_cell_length_c	17.982738
_cell_angle_alpha	94.235391
_cell_angle_beta	102.447731
_cell_angle_gamma	108.604870
loop_
_atom_site_label
_atom_site_type_symbol
_atom_site_fract_x
_atom_site_fract_y
_atom_site_fract_z
V1	V	-4.041327	-0.177042	-0.237547
O2	O	-4.001702	0.007269	-0.233027
O3	O	-4.018578	-0.349854	-0.235920
O4	O	-3.987493	-0.174862	-0.341150
O5	O	-4.033003	-0.168934	-0.127069
V6	V	-4.522335	-0.154932	-0.224333
O7	O	-4.308102	-0.225542	-0.266533
O8	O	-4.705758	-0.106432	-0.195347
O9	O	-4.321877	0.017879	-0.225960
O10	O	-4.679357	-0.339243	-0.228853
O11	O	-4.648056	-0.163041	-0.334811
O12	O	-4.352963	-0.157112	-0.120730
C13	C	-3.869995	-0.391964	-0.232172
C14	C	-3.932646	-0.533243	-0.231533
C15	C	-3.922525	-0.581123	-0.161465
C16	C	-3.981405	-0.713872	-0.160873
C17	C	-4.060517	-0.750852	-0.300423
C18	C	-4.001652	-0.618105	-0.301014
C19	C	-3.876843	-0.559774	-0.080897
C20	C	-3.935722	-0.692523	-0.080305
C21	C	-3.830341	-0.168744	-0.366403
C22	C	-3.867779	-0.168105	-0.451099
C23	C	-4.280529	-0.170527	-0.974864
C24	C	-4.245344	-0.171136	-0.895283
C25	C	-4.044883	-0.165076	-0.851616
C26	C	-3.879603	-0.158419	-0.887534
C27	C	-3.914793	-0.157819	-0.967114
C28	C	-3.737682	-0.160840	-0.566597
C29	C	-3.702502	-0.161436	-0.487012
C30	C	-4.068234	-0.174156	-0.494767
C31	C	-4.103424	-0.173556	-0.574347
C32	C	-3.938145	-0.166907	-0.610258
C33	C	-3.976299	-0.166249	-0.696549
C34	C	-4.006723	-0.165724	-0.765326
C35	C	-4.133803	0.059983	-0.229705
C36	C	-4.050391	0.201261	-0.230350
C37	C	-4.173458	-0.163234	-0.095473
C38	C	-4.115258	-0.163867	-0.010776
H39	H	-3.793751	-0.715370	-0.046298
H40	H	-3.699547	-0.506831	-0.053071
H41	H	-3.603096	-0.155425	-0.595827
N42	N	-4.018460	-0.507792	-0.044019
H43	H	-4.124123	-0.580344	-0.027137
H44	H	-4.098390	-0.467191	-0.082535
N45	N	-4.496750	-0.177064	-1.021952
H46	H	-4.558236	-0.256285	-1.062543
H47	H	-4.480617	-0.097856	-1.047691
N48	N	-4.423598	-0.178315	-0.856548
H49	H	-4.555923	-0.182053	-0.896285
H50	H	-4.378218	-0.099652	-0.816298
N51	N	-4.132896	-0.745005	-0.050845
H52	H	-4.097066	-0.785405	-0.003577
H53	H	-4.248822	-0.811978	-0.092171
N54	N	-4.134921	-0.842370	-0.375364
H55	H	-4.266339	-0.831757	-0.408552
H56	H	-4.170565	-0.933692	-0.364301
N57	N	-4.319624	-0.180074	-0.621443
H58	H	-4.418987	-0.184384	-0.586617
H59	H	-4.380929	-0.259288	-0.662032
N60	N	-3.663389	-0.151885	-0.840440
H61	H	-3.666167	-0.153269	-0.784576
H62	H	-3.550960	-0.069812	-0.845262
H63	H	-4.202813	-0.179580	-0.465519
H64	H	-3.539250	-0.156488	-0.451458
N65	N	-3.736552	-0.150663	-1.005855
H66	H	-3.604222	-0.146920	-0.966118
H67	H	-3.704435	-0.070956	-1.031312
H68	H	-4.009914	-0.579129	-0.358071
