data_functionalizedCrystal
_audit_creation_method	'MofGen! by Chris Wilmer'
_symmetry_space_group_name_H-M	'P1'
_symmetry_Int_Tables_number	1
_symmetry_cell_setting	triclinic
loop_
_symmetry_equiv_pos_as_xyz
  x,y,z
_cell_length_a	11.792241
_cell_length_b	22.610064
_cell_length_c	11.792254
_cell_angle_alpha	90.004546
_cell_angle_beta	84.196007
_cell_angle_gamma	90.011085
loop_
_atom_site_label
_atom_site_type_symbol
_atom_site_fract_x
_atom_site_fract_y
_atom_site_fract_z
O1	O	1.506934	0.049127	0.155564
O2	O	1.176593	0.049141	0.171597
O3	O	1.349773	0.049130	-0.001589
O4	O	1.333755	0.049139	0.328750
O5	O	1.349721	-0.049239	-0.001589
O6	O	1.176542	-0.049228	0.171597
O7	O	1.506883	-0.049242	0.155564
Zn8	Zn	1.341704	-0.064853	0.163580
Zn9	Zn	1.341772	0.064753	0.163581
O10	O	1.333704	-0.049230	0.328750
C11	C	1.134277	-0.000042	0.170590
C12	C	1.008263	-0.000036	0.167576
C13	C	0.777551	-0.000054	0.162033
C14	C	0.905936	-0.000044	0.165112
N15	N	1.341667	-0.153306	0.163579
C16	C	1.411035	-0.561948	0.232872
C17	C	1.411049	-0.623868	0.232869
O18	O	1.469983	-0.655888	0.291776
N19	N	1.341793	-0.654843	0.163568
C20	C	1.272528	-0.623894	0.094257
O21	O	1.213622	-0.655926	0.035310
C22	C	1.272520	-0.561976	0.094254
C23	C	1.341772	-0.531004	0.163568
C24	C	1.480282	-0.530977	0.302179
C25	C	1.480266	-0.469061	0.302183
C26	C	1.411003	-0.438117	0.232880
C27	C	1.341756	-0.469088	0.163572
C28	C	1.203261	-0.531028	0.024938
C29	C	1.203261	-0.469105	0.024941
C30	C	1.272512	-0.438134	0.094255
C31	C	1.272477	-0.376229	0.094273
N32	N	1.341732	-0.345254	0.163574
C33	C	1.410995	-0.376198	0.232877
C34	C	1.272550	-0.753928	0.094266
C35	C	1.272550	-0.815846	0.094274
C36	C	1.411074	-0.815815	0.232885
C37	C	1.411066	-0.753896	0.232882
C38	C	1.341806	-0.722953	0.163567
C39	C	1.410956	-0.246171	0.232881
C40	C	1.410930	-0.184250	0.232882
C41	C	1.272411	-0.184286	0.094268
C42	C	1.272432	-0.246201	0.094270
C43	C	1.341713	-0.277142	0.163580
O44	O	1.213576	-0.344170	0.035392
O45	O	1.469902	-0.344158	0.291803
C46	C	1.549199	-0.000058	0.156571
C47	C	1.675213	-0.000059	0.159586
C48	C	1.348738	-0.000055	-0.043880
C49	C	1.345718	-0.000054	-0.169893
N50	N	1.341818	0.153205	0.163573
C51	C	1.343264	-0.000052	-0.272229
C52	C	1.340196	-0.000046	-0.400616
C53	C	1.334738	-0.000045	0.371041
C54	C	1.337758	-0.000041	0.497054
H55	H	1.467322	-0.159035	0.289331
C56	C	1.127077	-0.565083	-0.051314
N57	N	1.069692	-0.590732	-0.108753
H58	H	1.216138	-0.728738	0.037825
C59	C	1.556463	-0.435000	0.378420
N60	N	1.613865	-0.409350	0.435840
C61	C	1.487256	-0.719833	0.309123
N62	N	1.544649	-0.694180	0.366548
C63	C	1.487274	-0.849865	0.309112
N64	N	1.544665	-0.875514	0.366521
H65	H	1.467371	-0.271356	0.289319
H66	H	1.146859	-0.443915	-0.031506
C67	C	1.196408	-0.150235	0.017856
N68	N	1.139234	-0.124587	-0.039770
H69	H	1.216145	-0.841057	0.037845
H70	H	1.216028	-0.271420	0.037844
H71	H	1.536690	-0.556165	0.358614
