data_functionalizedCrystal
_audit_creation_method	'MofGen! by Chris Wilmer'
_symmetry_space_group_name_H-M	'P1'
_symmetry_Int_Tables_number	1
_symmetry_cell_setting	triclinic
loop_
_symmetry_equiv_pos_as_xyz
  x,y,z
_cell_length_a	16.109301
_cell_length_b	10.540510
_cell_length_c	15.186229
_cell_angle_alpha	89.998730
_cell_angle_beta	89.999006
_cell_angle_gamma	83.987447
loop_
_atom_site_label
_atom_site_type_symbol
_atom_site_fract_x
_atom_site_fract_y
_atom_site_fract_z
O1	O	1.104117	0.163163	-0.073175
O2	O	1.604117	0.663163	0.426825
O3	O	0.862178	0.183467	-0.073187
O4	O	1.362178	0.683467	0.426813
O5	O	0.988680	-0.011473	-0.073181
O6	O	1.488680	0.488527	0.426819
O7	O	0.977615	0.358103	-0.073182
O8	O	1.477615	0.858103	0.426818
O9	O	0.988671	-0.011476	0.073277
O10	O	1.488671	0.488524	0.573277
O11	O	0.862169	0.183465	0.073270
O12	O	1.362169	0.683465	0.573270
O13	O	1.104108	0.163160	0.073282
O14	O	1.604108	0.663160	0.573282
Zn15	Zn	0.983137	0.173312	0.096529
Zn16	Zn	1.483137	0.673312	0.596529
Zn17	Zn	0.983149	0.173315	-0.096434
Zn18	Zn	1.483149	0.673315	0.403566
O19	O	0.977606	0.358100	0.073275
O20	O	1.477606	0.858100	0.573275
C21	C	0.831194	0.182643	0.000040
C22	C	1.331194	0.682643	0.500040
C23	C	0.738883	0.180177	0.000035
C24	C	1.238883	0.680177	0.500035
C25	C	0.430536	0.287790	0.000050
C26	C	0.930536	0.787790	0.500050
C27	C	0.517270	0.290119	0.000045
C28	C	1.017270	0.790119	0.500045
C29	C	0.535745	0.058828	0.000034
C30	C	1.035745	0.558828	0.500034
C31	C	0.449012	0.056501	0.000033
C32	C	0.949012	0.556501	0.500033
C33	C	0.396409	0.170985	0.000046
C34	C	0.896409	0.670985	0.500046
C35	C	0.569877	0.175642	0.000042
C36	C	1.069877	0.675642	0.500042
C37	C	0.663918	0.178166	0.000036
C38	C	1.163918	0.678166	0.500036
C39	C	0.302362	0.168461	0.000049
C40	C	0.802362	0.668461	0.500049
C41	C	0.987851	-0.058766	0.000046
C42	C	1.487851	0.441234	0.500046
C43	C	0.985384	-0.199681	0.000041
C44	C	1.485384	0.300319	0.500041
C45	C	1.073265	-0.418389	0.000380
C46	C	1.573265	0.081611	0.500380
C47	C	1.075896	-0.271831	0.000046
C48	C	1.575896	0.228169	0.500046
C49	C	0.939055	-0.243777	-0.083594
C50	C	1.439055	0.256223	0.416406
C51	C	0.937065	-0.390510	-0.083660
C52	C	1.437065	0.109490	0.416340
C53	C	0.935170	-0.390295	0.082890
C54	C	1.435170	0.109705	0.582890
C55	C	0.939463	-0.244015	0.083991
C56	C	1.439463	0.255985	0.583991
C57	C	1.135092	0.163984	0.000053
C58	C	1.635092	0.663984	0.500053
C59	C	1.227403	0.166450	0.000052
C60	C	1.727403	0.666450	0.500052
C61	C	0.978435	0.405393	0.000047
C62	C	1.478435	0.905393	0.500047
C63	C	0.980902	0.546308	0.000046
C64	C	1.480902	1.046308	0.500046
N65	N	0.983136	0.173309	0.228222
N66	N	1.483136	0.673309	0.728222
N67	N	0.983157	0.173309	-0.228127
N68	N	1.483157	0.673309	0.271873
C69	C	1.039170	0.087018	0.453948
C70	C	1.539170	0.587018	0.953948
C71	C	1.039173	0.087015	0.546137
C72	C	1.539173	0.587015	1.046137
C73	C	0.927116	0.259603	0.546141
C74	C	1.427116	0.759603	1.046141
C75	C	0.927110	0.259599	0.453953
C76	C	1.427110	0.759599	0.953953
C77	C	0.983142	0.173308	0.407859
C78	C	1.483142	0.673308	0.907859
C79	C	0.983151	0.173309	0.592236
C80	C	1.483151	0.673309	1.092236
C81	C	0.983153	0.173307	0.692192
C82	C	1.483153	0.673307	1.192192
C83	C	0.983139	0.173309	0.307896
C84	C	1.483139	0.673309	0.807896
H85	H	0.545051	0.385232	0.000048
H86	H	1.045051	0.885232	0.500048
C87	C	0.593606	-0.067097	0.000022
C88	C	1.093606	0.432903	0.500022
H89	H	0.560857	-0.136995	0.000009
H90	H	1.060857	0.363005	0.500009
H91	H	0.627826	-0.071010	0.051094
H92	H	1.127826	0.428990	0.551094
H93	H	0.627822	-0.070984	-0.051058
H94	H	1.127822	0.429016	0.448942
H95	H	0.867213	-0.411476	0.083450
H96	H	1.367213	0.088524	0.583450
C97	C	1.100807	-0.007899	0.596832
C98	C	1.600807	0.492101	1.096832
H99	H	1.134178	-0.059281	0.556174
H100	H	1.634178	0.440719	1.056174
H101	H	1.070597	-0.060756	0.632799
H102	H	1.570597	0.439244	1.132799
H103	H	1.135686	0.037791	0.632789
H104	H	1.635686	0.537791	1.132789
H105	H	1.108524	-0.460848	0.060359
H106	H	1.608524	0.039152	0.560359
C107	C	1.125150	-0.234146	-0.081084
C108	C	1.625150	0.265854	0.418916
H109	H	1.143619	-0.308451	-0.113971
H110	H	1.643619	0.191549	0.386029
H111	H	1.172047	-0.193494	-0.062438
H112	H	1.672047	0.306506	0.437562
H113	H	1.090157	-0.177258	-0.116910
H114	H	1.590157	0.322742	0.383090
H115	H	1.108327	-0.462393	-0.059256
H116	H	1.608327	0.037607	0.440744
H117	H	0.881497	0.329861	0.583680
H118	H	1.381497	0.829861	1.083680
H119	H	0.421227	-0.038621	0.000026
H120	H	0.921227	0.461379	0.500026
C121	C	0.979804	-0.445445	-0.168132
C122	C	1.479804	0.054555	0.331868
H123	H	0.998226	-0.378054	-0.202080
H124	H	1.498226	0.121946	0.297920
H125	H	0.941217	-0.487896	-0.201544
H126	H	1.441217	0.012104	0.298456
H127	H	1.026340	-0.504258	-0.152889
H128	H	1.526340	-0.004258	0.347111
C129	C	1.100795	-0.007909	0.403247
C130	C	1.600795	0.492091	0.903247
H131	H	1.134157	-0.059308	0.443903
H132	H	1.634157	0.440692	0.943903
H133	H	1.135669	0.037761	0.367278
H134	H	1.635669	0.537761	0.867278
H135	H	1.070569	-0.060767	0.367292
H136	H	1.570569	0.439233	0.867292
C137	C	0.372676	0.413716	0.000049
C138	C	0.872676	0.913716	0.500049
H139	H	0.405425	0.483613	0.000042
H140	H	0.905425	0.983613	0.500042
H141	H	0.338453	0.417620	0.051120
H142	H	0.838453	0.917620	0.551120
H143	H	0.338462	0.417614	-0.051033
H144	H	0.838462	0.917614	0.448967
C145	C	0.865478	0.354526	0.403251
C146	C	1.365478	0.854526	0.903251
H147	H	0.832117	0.405931	0.443905
H148	H	1.332117	0.905931	0.943905
H149	H	0.830602	0.308846	0.367293
H150	H	1.330602	0.808846	0.867293
H151	H	0.895699	0.407380	0.367285
H152	H	1.395699	0.907380	0.867285
C153	C	1.124875	-0.232884	0.081026
C154	C	1.624875	0.267116	0.581026
H155	H	1.143343	-0.306697	0.114423
H156	H	1.643343	0.193303	0.614423
H157	H	1.089742	-0.175574	0.116411
H158	H	1.589742	0.324426	0.616411
H159	H	1.171777	-0.192375	0.062197
H160	H	1.671777	0.307625	0.562197
H161	H	0.869367	-0.412540	-0.087452
H162	H	1.369367	0.087460	0.412548
H163	H	0.872422	-0.195439	-0.086707
H164	H	1.372422	0.304561	0.413293
H165	H	0.971236	-0.213378	-0.145832
H166	H	1.471236	0.286622	0.354168
H167	H	0.963930	-0.432888	0.146285
H168	H	1.463930	0.067112	0.646285
H169	H	0.973174	-0.215885	0.145863
H170	H	1.473174	0.284115	0.645863
H171	H	0.873382	-0.194006	0.089038
H172	H	1.373382	0.305994	0.589038
