data_functionalizedCrystal
_audit_creation_method	'MofGen! by Chris Wilmer'
_symmetry_space_group_name_H-M	'P1'
_symmetry_Int_Tables_number	1
_symmetry_cell_setting	triclinic
loop_
_symmetry_equiv_pos_as_xyz
  x,y,z
_cell_length_a	18.101398
_cell_length_b	16.625546
_cell_length_c	16.625539
_cell_angle_alpha	89.969603
_cell_angle_beta	89.988670
_cell_angle_gamma	90.018025
loop_
_atom_site_label
_atom_site_type_symbol
_atom_site_fract_x
_atom_site_fract_y
_atom_site_fract_z
Zn1	Zn	1.132177	-0.321096	-0.455699
Zn2	Zn	1.132088	-0.455939	-0.320861
Zn3	Zn	1.008332	-0.321114	-0.320901
Zn4	Zn	1.008305	-0.455880	-0.455673
O5	O	1.070226	-0.388507	-0.388283
O6	O	1.235798	-0.339000	-0.437807
O7	O	1.115646	-0.438086	-0.208034
O8	O	1.024809	-0.208279	-0.338810
O9	O	1.235733	-0.438069	-0.338742
O10	O	1.115797	-0.208266	-0.437845
O11	O	1.024723	-0.339031	-0.208063
O12	O	0.904696	-0.338973	-0.338785
O13	O	1.024763	-0.437968	-0.568509
O14	O	0.904676	-0.437985	-0.437801
O15	O	1.115771	-0.338943	-0.568528
O16	O	1.115619	-0.568764	-0.338717
O17	O	1.024677	-0.568720	-0.437762
C18	C	0.877815	-0.388475	-0.388295
C19	C	0.795501	-0.388481	-0.388319
C20	C	1.070156	-0.597998	-0.388250
C21	C	1.070193	-0.687619	-0.388262
C22	C	1.070323	-1.015795	-0.388346
C23	C	1.070284	-0.924486	-0.388325
C24	C	1.070257	-0.851710	-0.388304
C25	C	1.070220	-0.760395	-0.388283
C26	C	0.496410	-0.388529	-0.388285
C27	C	0.527747	-0.451126	-0.450276
C28	C	0.613366	-0.450930	-0.450530
C29	C	0.644793	-0.388506	-0.388302
C30	C	0.613727	-0.303579	-0.411524
C31	C	0.528082	-0.303955	-0.411965
C32	C	0.527958	-0.410110	-0.302922
C33	C	0.613609	-0.411973	-0.303378
C34	C	0.728652	-0.388488	-0.388310
C35	C	0.412551	-0.388541	-0.388279
C36	C	1.263388	-0.388539	-0.388273
C37	C	1.345702	-0.388553	-0.388268
C38	C	1.070274	-0.388447	-0.598592
C39	C	1.070294	-0.388421	-0.688214
C40	C	1.070316	-0.178198	-0.388335
C41	C	1.070355	-0.088577	-0.388357
C42	C	1.070329	-0.388331	-1.016389
C43	C	1.070317	-0.388359	-0.925081
C44	C	1.070312	-0.388377	-0.852304
C45	C	1.070300	-0.388403	-0.760990
C46	C	1.070220	-0.388509	-0.178793
C47	C	1.070343	-0.388307	-0.089172
H48	H	0.507141	-0.514309	-0.435883
N49	N	0.639097	-0.490372	-0.281419
N50	N	0.706815	-0.503836	-0.275525
H51	H	0.724824	-0.559205	-0.260021
N52	N	0.500762	-0.433433	-0.529159
N53	N	0.458551	-0.374923	-0.539921
H54	H	0.439491	-0.362425	-0.595632
H55	H	0.506353	-0.470979	-0.281818
N56	N	0.640453	-0.358930	-0.242328
N57	N	0.683191	-0.302713	-0.260496
H58	H	0.702152	-0.265246	-0.217381
N59	N	0.639080	-0.433017	-0.529878
N60	N	0.593773	-0.420615	-0.585238
H61	H	0.611933	-0.407963	-0.641281
N62	N	0.502541	-0.352900	-0.244987
N63	N	0.461372	-0.296457	-0.266363
H64	H	0.443422	-0.256047	-0.225454
N65	N	0.640644	-0.280181	-0.488956
N66	N	0.678273	-0.217558	-0.496347
H67	H	0.697283	-0.201035	-0.551034
N68	N	0.639718	-0.529932	-0.432264
N69	N	0.623151	-0.562322	-0.366833
H70	H	0.641758	-0.618122	-0.353935
N71	N	0.503046	-0.280989	-0.490252
N72	N	0.548825	-0.264797	-0.544183
H73	H	0.531148	-0.248578	-0.599476
H74	H	0.507352	-0.255644	-0.368885
N75	N	0.639255	-0.243552	-0.356572
N76	N	0.624160	-0.249147	-0.283413
H77	H	0.642191	-0.206781	-0.244571
