data_functionalizedCrystal
_audit_creation_method	'MofGen! by Chris Wilmer'
_symmetry_space_group_name_H-M	'P1'
_symmetry_Int_Tables_number	1
_symmetry_cell_setting	triclinic
loop_
_symmetry_equiv_pos_as_xyz
  x,y,z
_cell_length_a	12.837943
_cell_length_b	23.532416
_cell_length_c	11.892095
_cell_angle_alpha	86.136170
_cell_angle_beta	85.683682
_cell_angle_gamma	91.159406
loop_
_atom_site_label
_atom_site_type_symbol
_atom_site_fract_x
_atom_site_fract_y
_atom_site_fract_z
O1	O	1.367261	-0.151239	0.093971
O2	O	1.065530	-0.143930	0.093979
O3	O	1.225489	-0.065175	0.093974
O4	O	1.207301	-0.229994	0.093976
O5	O	1.238836	-0.058626	-0.094033
O6	O	1.078876	-0.137381	-0.094029
O7	O	1.380607	-0.144690	-0.094036
Zn8	Zn	1.231861	-0.139996	-0.123883
Zn9	Zn	1.214276	-0.148625	0.123825
O10	O	1.220648	-0.223445	-0.094032
C11	C	1.033607	-0.138186	-0.000024
C12	C	0.918606	-0.130822	-0.000021
C13	C	0.676742	-0.219355	-0.000037
C14	C	0.568687	-0.212438	-0.000035
C15	C	0.594439	-0.110072	-0.000024
C16	C	0.702494	-0.116989	-0.000025
C17	C	0.743641	-0.171632	-0.000030
C18	C	0.851698	-0.178549	-0.000024
C19	C	0.877448	-0.076183	-0.000021
C20	C	0.769393	-0.069266	-0.000019
C21	C	1.231698	-0.040658	-0.000027
C22	C	1.230300	0.022639	-0.000020
C23	C	1.217085	0.292654	0.102462
C24	C	1.218382	0.233179	0.102464
O25	O	1.212902	0.199378	0.189619
N26	N	1.226299	0.207010	-0.000020
C27	C	1.232931	0.240320	-0.102513
O28	O	1.239785	0.212600	-0.189683
C29	C	1.231641	0.299793	-0.102513
C30	C	1.223713	0.325958	-0.000022
C31	C	1.209158	0.318819	0.204945
C32	C	1.207859	0.378290	0.204943
C33	C	1.214487	0.411594	0.102458
C34	C	1.222414	0.385429	-0.000024
C35	C	1.238280	0.333101	-0.205004
C36	C	1.236990	0.392579	-0.204996
C37	C	1.229062	0.418744	-0.102505
C38	C	1.227742	0.478204	-0.102510
N39	N	1.219825	0.504373	-0.000026
C40	C	1.213197	0.471068	0.102458
C41	C	1.235640	0.115421	-0.102504
C42	C	1.236922	0.055948	-0.102505
C43	C	1.222376	0.048812	0.102472
C44	C	1.221086	0.108286	0.102471
C45	C	1.227723	0.141590	-0.000020
C46	C	1.210469	0.595960	0.102446
C47	C	1.209167	0.655436	0.102435
C48	C	1.223719	0.662567	-0.102541
C49	C	1.225016	0.603096	-0.102531
C50	C	1.218394	0.569794	-0.000028
O51	O	1.233223	0.512041	-0.189621
O52	O	1.206358	0.498796	0.189614
C53	C	1.412529	-0.150434	-0.000031
C54	C	1.527531	-0.157799	-0.000027
C55	C	1.214429	0.752038	-0.000034
C56	C	1.215794	0.688741	-0.000049
N57	N	1.202276	-0.154510	0.292880
N58	N	1.243869	-0.134107	-0.292937
C59	C	1.327431	-0.093158	0.529524
C60	C	1.319036	-0.097267	0.647866
C61	C	1.177095	-0.166840	0.647908
C62	C	1.185491	-0.162731	0.529566
C63	C	1.260660	-0.125888	0.470378
C64	C	1.269050	-0.121776	0.352034
C65	C	1.127115	-0.191352	0.352078
C66	C	1.118719	-0.195461	0.470420
H67	H	1.205078	0.568852	0.185914
O68	O	0.503556	-0.258734	-0.000084
C69	C	0.399357	-0.240915	-0.000050
H70	H	0.398189	-0.194743	-0.035641
H71	H	0.353941	-0.269072	-0.054633
H72	H	0.361681	-0.244522	0.090149
H73	H	1.388630	-0.063155	0.481333
O74	O	1.215737	0.016492	0.202078
C75	C	1.121262	0.027312	0.264410
H76	H	1.062458	0.044644	0.204419
H77	H	1.088672	-0.013936	0.310926
H78	H	1.136262	0.059976	0.328288
O79	O	1.342013	-0.085912	0.294658
C80	C	1.323894	-0.029630	0.323533
H81	H	1.277876	-0.030463	0.409461
H82	H	1.401851	-0.006072	0.327562
H83	H	1.277305	-0.006845	0.256926
O84	O	0.942586	-0.029880	-0.000061
C85	C	1.046781	-0.047701	-0.000027
H86	H	1.053005	-0.091390	-0.035632
H87	H	1.099950	-0.015737	-0.054598
H88	H	1.071642	-0.050386	0.090173
H89	H	1.072742	-0.218001	0.303908
H90	H	0.885197	-0.223042	-0.000030
H91	H	0.560924	-0.065581	-0.000113
H92	H	1.373409	-0.070616	0.696020
H93	H	1.115901	-0.196841	0.696114
O94	O	1.213530	0.133764	0.201962
C95	C	1.302098	0.169508	0.208128
H96	H	1.338144	0.182052	0.119151
H97	H	1.277926	0.209460	0.251523
H98	H	1.361840	0.145919	0.258695
H99	H	1.057520	-0.225459	0.518624
H100	H	1.243359	0.034650	-0.185964
O101	O	1.242035	0.147685	-0.202173
C102	C	1.249324	0.111829	-0.292617
H103	H	1.215310	0.067815	-0.262555
H104	H	1.203729	0.130623	-0.364296
H105	H	1.334823	0.108055	-0.324136
O106	O	0.716549	-0.272470	-0.000084
C107	C	0.634327	-0.313112	-0.000051
H108	H	0.563602	-0.291938	-0.035646
H109	H	0.660419	-0.349006	-0.054631
H110	H	0.612473	-0.331254	0.090148
H111	H	1.229111	0.689695	-0.185981
O112	O	1.246054	0.307787	-0.304667
C113	C	1.251615	0.349946	-0.395107
H114	H	1.281340	0.391867	-0.365033
H115	H	1.307408	0.336153	-0.466776
H116	H	1.170598	0.355911	-0.426644
O117	O	0.729352	-0.016208	0.000189
C118	C	0.660683	-0.012547	0.097546
H119	H	0.681107	-0.046050	0.165596
H120	H	0.668521	0.031659	0.130240
H121	H	0.576895	-0.020288	0.075528
H122	H	1.202706	0.676736	0.185899
H123	H	1.231431	0.581791	-0.185987
O124	O	1.200234	0.403612	0.304604
C125	C	1.194654	0.361453	0.395047
H126	H	1.230486	0.320679	0.364973
H127	H	1.239532	0.377010	0.466708
H128	H	1.109434	0.352581	0.426595
O129	O	1.202522	0.286424	0.304453
C130	C	1.113046	0.250276	0.310568
H131	H	1.089702	0.243919	0.221572
H132	H	1.130978	0.207303	0.354024
H133	H	1.046107	0.270375	0.361053
H134	H	1.242395	0.419692	-0.288459
