data_functionalizedCrystal
_audit_creation_method	'MofGen! by Chris Wilmer'
_symmetry_space_group_name_H-M	'P1'
_symmetry_Int_Tables_number	1
_symmetry_cell_setting	triclinic
loop_
_symmetry_equiv_pos_as_xyz
  x,y,z
_cell_length_a	15.625164
_cell_length_b	14.185569
_cell_length_c	16.992695
_cell_angle_alpha	104.070102
_cell_angle_beta	92.703104
_cell_angle_gamma	120.555639
loop_
_atom_site_label
_atom_site_type_symbol
_atom_site_fract_x
_atom_site_fract_y
_atom_site_fract_z
O1	O	-1.292477	-0.386818	0.020103
O2	O	-0.792477	0.113182	0.520103
O3	O	-1.007013	-0.282956	0.054393
O4	O	-0.507013	0.217044	0.554393
O5	O	-1.148603	-0.334480	-0.076809
O6	O	-0.648603	0.165520	0.423191
O7	O	-1.150887	-0.335295	0.151305
O8	O	-0.650887	0.164705	0.651305
O9	O	-1.190430	-0.516535	-0.115564
O10	O	-0.690430	-0.016535	0.384436
O11	O	-1.048840	-0.465011	0.015639
O12	O	-0.548840	0.034989	0.515639
O13	O	-1.334304	-0.568873	-0.018652
O14	O	-0.834304	-0.068873	0.481348
Cu15	Cu	-1.195391	-0.533565	-0.005045
Cu16	Cu	-0.695391	-0.033565	0.494955
Cu17	Cu	-1.145926	-0.318264	0.040787
Cu18	Cu	-0.645926	0.181736	0.540787
O19	O	-1.192714	-0.517350	0.112551
O20	O	-0.692714	-0.017350	0.612551
C21	C	-0.991231	-0.360633	0.037303
C22	C	-0.491231	0.139367	0.537303
C23	C	-0.881888	-0.320851	0.044110
C24	C	-0.381888	0.179149	0.544110
C25	C	-0.704976	-0.165548	0.074829
C26	C	-0.204976	0.334452	0.574829
C27	C	-0.807722	-0.202941	0.068430
C28	C	-0.307722	0.297059	0.568430
C29	C	-0.853330	-0.401414	0.026184
C30	C	-0.353330	0.098586	0.526184
C31	C	-0.750585	-0.364037	0.032583
C32	C	-0.250585	0.135963	0.532583
C33	C	-0.676415	-0.246103	0.056905
C34	C	-0.176415	0.253897	0.556905
C35	C	-0.722024	-0.444592	0.014660
C36	C	-0.222024	0.055408	0.514660
C37	C	-0.619289	-0.407218	0.021054
C38	C	-0.119289	0.092782	0.521054
C39	C	-0.545114	-0.289289	0.045373
C40	C	-0.045114	0.210711	0.545373
C41	C	-0.573680	-0.208729	0.063300
C42	C	-0.073680	0.291271	0.563300
C43	C	-0.796196	-0.562526	-0.009668
C44	C	-0.296196	-0.062526	0.490332
C45	C	-0.767636	-0.643081	-0.027591
C46	C	-0.267636	-0.143081	0.472409
C47	C	-0.664898	-0.605707	-0.021191
C48	C	-0.164898	-0.105707	0.478809
C49	C	-0.590723	-0.487778	0.003127
C50	C	-0.090723	0.012222	0.503127
C51	C	-0.636332	-0.686267	-0.039118
C52	C	-0.136332	-0.186267	0.460882
C53	C	-0.533597	-0.648893	-0.032724
C54	C	-0.033597	-0.148893	0.467276
C55	C	-0.487988	-0.450404	0.009522
C56	C	0.012012	0.049596	0.509522
N57	N	-1.230190	-0.684999	-0.037282
N58	N	-0.730190	-0.184999	0.462718
C59	C	-1.008894	-0.972122	0.167693
C60	C	-0.508894	-0.472122	0.667693
C61	C	-1.035260	-1.086738	0.143279
C62	C	-0.535260	-0.586738	0.643279
C63	C	-1.160668	-1.132334	0.027137
C64	C	-0.660668	-0.632334	0.527137
C65	C	-1.134309	-1.017718	0.051539
C66	C	-0.634309	-0.517718	0.551539
C67	C	-1.058422	-0.937620	0.121818
C68	C	-0.558422	-0.437620	0.621818
C69	C	-1.183837	-0.983217	0.005664
C70	C	-0.683837	-0.483217	0.505664
C71	C	-1.157483	-0.868612	0.030067
C72	C	-0.657483	-0.368612	0.530067
C73	C	-1.081601	-0.788509	0.100345
C74	C	-0.581601	-0.288509	0.600345
C75	C	-1.032068	-0.823016	0.146221
C76	C	-0.532068	-0.323016	0.646221
C77	C	-1.259729	-1.063318	-0.064611
C78	C	-0.759729	-0.563318	0.435389
C79	C	-1.309257	-1.028817	-0.110486
C80	C	-0.809257	-0.528817	0.389514
C81	C	-1.282898	-0.914208	-0.086087
C82	C	-0.782898	-0.414208	0.413913
C83	C	-1.207016	-0.834105	-0.015809
C84	C	-0.707016	-0.334105	0.484191
C85	C	-1.332431	-0.879701	-0.131964
C86	C	-0.832431	-0.379701	0.368036
C87	C	-1.306077	-0.765097	-0.107561
C88	C	-0.806077	-0.265097	0.392439
C89	C	-1.180662	-0.719501	0.008593
C90	C	-0.680662	-0.219501	0.508593
C91	C	-0.350086	-0.491192	-0.001570
C92	C	0.149914	0.008808	0.498430
C93	C	-0.459427	-0.530959	-0.008402
C94	C	0.040573	-0.030959	0.491598
C95	C	-1.166572	-0.424436	-0.125174
C96	C	-0.666572	0.075564	0.374826
C97	C	-1.157787	-0.421239	-0.211547
C98	C	-0.657787	0.078761	0.288453
N99	N	-1.111135	-0.166833	0.073016
N100	N	-0.611135	0.333167	0.573016
C101	C	-1.242549	-0.452080	-0.268263
C102	C	-0.742549	0.047920	0.231737
C103	C	-1.234287	-0.449064	-0.349417
C104	C	-0.734287	0.050936	0.150583
C105	C	-1.141263	-0.415215	-0.373853
C106	C	-0.641263	0.084785	0.126147
C107	C	-1.056493	-0.384369	-0.317129
C108	C	-0.556493	0.115631	0.182871
C109	C	-1.064755	-0.387378	-0.235976
C110	C	-0.564755	0.112622	0.264024
C111	C	-1.107020	-0.402743	-0.614832
C112	C	-0.607020	0.097257	-0.114832
C113	C	-1.098766	-0.399740	-0.695993
C114	C	-0.598766	0.100260	-0.195993
C115	C	-1.276559	-0.464433	-0.728275
C116	C	-0.776559	0.035567	-0.228275
C117	C	-1.284814	-0.467445	-0.647120
C118	C	-0.784814	0.032555	-0.147120
C119	C	-1.200044	-0.436593	-0.590401
C120	C	-0.700044	0.063407	-0.090401
N121	N	-1.132816	-0.412135	-0.456806
N122	N	-0.632816	0.087865	0.043194
N123	N	-1.208490	-0.439666	-0.507449
N124	N	-0.708490	0.060334	-0.007449
C125	C	-1.174745	-0.427391	0.160916
C126	C	-0.674745	0.072609	0.660916
C127	C	-1.183528	-0.430581	0.247290
C128	C	-0.683528	0.069419	0.747290
H129	H	-0.879849	-0.592952	-0.014872
H130	H	-0.379849	-0.092952	0.485128
H131	H	-0.994923	-1.114819	0.180643
H132	H	-0.494923	-0.614819	0.680643
Br133	Br	-0.949714	-0.345512	-0.159000
Br134	Br	-0.449714	0.154488	0.341000
H135	H	-0.830968	-0.137334	0.083032
H136	H	-0.330968	0.362666	0.583032
H137	H	-0.828038	-0.739103	-0.047397
H138	H	-0.328038	-0.239103	0.452603
Br139	Br	-0.737001	-0.846315	-0.072137
Br140	Br	-0.237001	-0.346315	0.427863
Br141	Br	-0.991972	-0.360865	-0.537866
Br142	Br	-0.491972	0.139135	-0.037866
H143	H	-0.427592	-0.354371	0.029337
H144	H	0.072408	0.145629	0.529337
Br145	Br	-1.368806	-0.498035	-0.235112
Br146	Br	-0.868806	0.001965	0.264888
H147	H	-1.394226	-0.944933	-0.189181
H148	H	-0.894226	-0.444933	0.310819
Br149	Br	-0.930241	-0.338413	-0.350288
Br150	Br	-0.430241	0.161587	0.149712
Br151	Br	-1.295500	-1.218856	-0.097722
Br152	Br	-0.795500	-0.718856	0.402278
Br153	Br	-0.405686	-0.238563	0.054035
Br154	Br	0.094314	0.261437	0.554035
H155	H	-0.510342	-0.714489	-0.047304
H156	H	-0.010342	-0.214489	0.452696
H157	H	-1.360564	-0.495008	-0.627230
H158	H	-0.860564	0.004992	-0.127230
Br159	Br	-1.077655	-0.610785	0.103965
Br160	Br	-0.577655	-0.110785	0.603965
H161	H	-1.371048	-1.094045	-0.167707
H162	H	-0.871048	-0.594045	0.332293
H163	H	-0.513285	-0.112695	0.083115
H164	H	-0.013285	0.387305	0.583115
Br165	Br	-0.604306	-0.005492	0.107854
Br166	Br	-0.104306	0.494508	0.607854
H167	H	-1.060147	-0.695193	0.120215
H168	H	-0.560147	-0.195193	0.620215
Br169	Br	-0.953995	-0.561462	-0.006824
Br170	Br	-0.453995	-0.061462	0.493176
Br171	Br	-1.373301	-0.718274	-0.169818
Br172	Br	-0.873301	-0.218274	0.330182
H173	H	-0.970265	-0.757793	0.203445
H174	H	-0.470265	-0.257793	0.703445
Br175	Br	-1.349327	-0.490921	-0.426387
Br176	Br	-0.849327	0.009079	0.073613
H177	H	-0.947091	-0.906899	0.224917
H178	H	-0.447091	-0.406899	0.724917
Br179	Br	-1.391599	-0.506301	-0.805252
Br180	Br	-0.891599	-0.006301	-0.305252
H181	H	-1.222459	-1.197563	-0.030083
H182	H	-0.722459	-0.697563	0.469917
H183	H	-1.023015	-0.372193	-0.715888
H184	H	-0.523015	0.127807	-0.215888
