data_functionalizedCrystal
_audit_creation_method	'MofGen! by Chris Wilmer'
_symmetry_space_group_name_H-M	'P1'
_symmetry_Int_Tables_number	1
_symmetry_cell_setting	triclinic
loop_
_symmetry_equiv_pos_as_xyz
  x,y,z
_cell_length_a	14.971486
_cell_length_b	9.482900
_cell_length_c	14.971486
_cell_angle_alpha	80.654500
_cell_angle_beta	83.614129
_cell_angle_gamma	99.295927
loop_
_atom_site_label
_atom_site_type_symbol
_atom_site_fract_x
_atom_site_fract_y
_atom_site_fract_z
O1	O	1.200851	0.120726	0.102592
O2	O	1.700851	0.620726	0.602592
O3	O	0.940456	0.120766	0.116546
O4	O	1.440456	0.620766	0.616546
O5	O	1.077632	0.120735	-0.020630
O6	O	1.577632	0.620735	0.479370
O7	O	1.063675	0.120758	0.239768
O8	O	1.563675	0.620758	0.739768
O9	O	1.049768	-0.121051	0.007346
O10	O	1.549768	0.378949	0.507346
O11	O	0.912592	-0.121020	0.144522
O12	O	1.412592	0.378980	0.644522
O13	O	1.172988	-0.121060	0.130568
O14	O	1.672988	0.378940	0.630568
Cu15	Cu	1.040246	-0.143117	0.140099
Cu16	Cu	1.540246	0.356883	0.640099
Cu17	Cu	1.073198	0.142823	0.107015
Cu18	Cu	1.573198	0.642823	0.607015
O19	O	1.035812	-0.121028	0.267743
O20	O	1.535812	0.378972	0.767743
C21	C	0.893200	-0.000122	0.129909
C22	C	1.393200	0.499878	0.629909
C23	C	0.793904	-0.000107	0.128037
C24	C	1.293904	0.499893	0.628037
N25	N	1.017076	-0.344232	0.163368
N26	N	1.517076	0.155768	0.663368
C27	C	0.736680	-0.000102	0.208625
C28	C	1.236680	0.499898	0.708625
C29	C	0.643378	-0.000124	0.206865
C30	C	1.143378	0.499876	0.706865
C31	C	0.607304	-0.000140	0.124513
C32	C	1.107304	0.499860	0.624513
C33	C	0.664535	-0.000150	0.043919
C34	C	1.164535	0.499850	0.543919
C35	C	0.757834	-0.000138	0.045682
C36	C	1.257834	0.499862	0.545682
C37	C	0.470070	-0.000170	0.040250
C38	C	0.970070	0.499830	0.540250
C39	C	0.376765	-0.000179	0.038487
C40	C	0.876765	0.499821	0.538487
C41	C	0.355614	-0.000156	0.201433
C42	C	0.855614	0.499844	0.701433
C43	C	0.448913	-0.000144	0.203196
C44	C	0.948913	0.499856	0.703196
C45	C	0.506138	-0.000151	0.122601
C46	C	1.006138	0.499849	0.622601
C47	C	1.066357	-0.416442	0.113873
C48	C	1.566357	0.083558	0.613873
C49	C	1.047086	-0.583855	0.133241
C50	C	1.547086	-0.083855	0.633241
C51	C	1.220244	-0.000168	0.117204
C52	C	1.720244	0.499832	0.617204
C53	C	1.319541	-0.000174	0.119076
C54	C	1.819541	0.499826	0.619076
C55	C	1.063076	-0.000158	-0.039967
C56	C	1.563076	0.499842	0.460033
C57	C	1.061205	-0.000156	-0.139264
C58	C	1.561205	0.499844	0.360736
N59	N	1.096375	0.343938	0.083739
N60	N	1.596375	0.843938	0.583739
C61	C	1.141793	-0.000169	-0.196488
C62	C	1.641793	0.499831	0.303512
C63	C	1.140031	-0.000154	-0.289789
C64	C	1.640031	0.499846	0.210211
C65	C	1.057680	-0.000137	-0.325863
C66	C	1.557680	0.499863	0.174137
C67	C	0.977087	-0.000119	-0.268633
C68	C	1.477087	0.499881	0.231367
C69	C	0.978850	-0.000123	-0.175334
C70	C	1.478850	0.499877	0.324666
C71	C	0.973417	-0.000113	-0.463096
C72	C	1.473417	0.499887	0.036904
C73	C	0.971652	-0.000111	-0.556400
C74	C	1.471652	0.499889	-0.056400
C75	C	1.134598	-0.000144	-0.577550
C76	C	1.634598	0.499856	-0.077550
C77	C	1.136361	-0.000149	-0.484252
C78	C	1.636361	0.499851	0.015748
C79	C	1.055767	-0.000134	-0.427027
C80	C	1.555767	0.499866	0.072973
C81	C	1.050368	-0.000133	0.287080
C82	C	1.550368	0.499867	0.787080
C83	C	1.052240	-0.000125	0.386376
C84	C	1.552240	0.499875	0.886376
H85	H	0.766044	-0.000088	0.275685
H86	H	1.266044	0.499912	0.775685
H87	H	0.596789	-0.000118	0.272488
H88	H	1.096789	0.499882	0.772488
H89	H	1.203417	-0.000174	-0.454882
H90	H	1.703417	0.499826	0.045118
H91	H	0.635154	-0.000184	-0.023130
H92	H	1.135154	0.499816	0.476870
H93	H	0.913227	-0.000112	-0.128743
H94	H	1.413227	0.499888	0.371257
Br95	Br	0.497873	-0.000100	0.314957
Br96	Br	0.997873	0.499900	0.814957
H97	H	0.309015	-0.000157	0.267058
H98	H	0.809015	0.499843	0.767058
H99	H	0.516661	-0.000178	-0.025379
H100	H	1.016661	0.499822	0.474621
H101	H	1.205654	-0.000168	-0.336377
H102	H	1.705654	0.499832	0.163623
H103	H	0.347397	-0.000194	-0.028570
H104	H	0.847397	0.499806	0.471430
H105	H	1.200221	-0.000152	-0.624148
H106	H	1.700221	0.499848	-0.124148
H107	H	0.960614	-0.406349	0.220077
H108	H	1.460614	0.093651	0.720077
Br109	Br	0.864038	-0.000088	-0.385435
Br110	Br	1.364038	0.499912	0.114565
H111	H	0.804426	-0.000141	-0.019942
H112	H	1.304426	0.499859	0.480058
H113	H	1.152834	-0.593950	0.027019
H114	H	1.652834	-0.093950	0.527019
Br115	Br	1.160235	-0.312923	0.019121
Br116	Br	1.660235	0.187077	0.519121
Br117	Br	0.952970	-0.687369	0.227765
Br118	Br	1.452970	-0.187369	0.727765
Br119	Br	1.253559	-0.000215	-0.147537
Br120	Br	1.753559	0.499785	0.352463
H121	H	0.904592	-0.000120	-0.585766
H122	H	1.404592	0.499880	-0.085766
Br123	Br	0.865326	-0.000070	-0.317592
Br124	Br	1.365326	0.499930	0.182408
