data_functionalizedCrystal
_audit_creation_method	'MofGen! by Chris Wilmer'
_symmetry_space_group_name_H-M	'P1'
_symmetry_Int_Tables_number	1
_symmetry_cell_setting	triclinic
loop_
_symmetry_equiv_pos_as_xyz
  x,y,z
_cell_length_a	29.839131
_cell_length_b	16.959455
_cell_length_c	16.959447
_cell_angle_alpha	89.976354
_cell_angle_beta	90.033915
_cell_angle_gamma	89.963588
loop_
_atom_site_label
_atom_site_type_symbol
_atom_site_fract_x
_atom_site_fract_y
_atom_site_fract_z
Zn1	Zn	-0.178904	-1.208267	0.447086
Zn2	Zn	0.321096	-0.708267	0.947086
Zn3	Zn	-0.254038	-1.208140	0.314899
Zn4	Zn	0.245962	-0.708140	0.814899
Zn5	Zn	-0.178916	-1.076095	0.314901
Zn6	Zn	0.321084	-0.576095	0.814901
Zn7	Zn	-0.254002	-1.076010	0.447016
Zn8	Zn	0.245998	-0.576010	0.947016
O9	O	-0.216465	-1.142128	0.380975
O10	O	0.283535	-0.642128	0.880975
O11	O	-0.188881	-1.318861	0.429579
O12	O	0.311119	-0.818861	0.929579
O13	O	-0.244093	-1.190606	0.204288
O14	O	0.255907	-0.690606	0.704288
O15	O	-0.116047	-1.093716	0.332466
O16	O	0.383953	-0.593716	0.832466
O17	O	-0.244081	-1.318767	0.332461
O18	O	0.255919	-0.818767	0.832461
O19	O	-0.116039	-1.190822	0.429581
O20	O	0.383961	-0.690822	0.929581
O21	O	-0.188901	-1.093593	0.204290
O22	O	0.311099	-0.593593	0.704290
O23	O	-0.188866	-0.965473	0.332399
O24	O	0.311134	-0.465473	0.832399
O25	O	-0.244020	-1.093572	0.557636
O26	O	0.255980	-0.593572	1.057636
O27	O	-0.244031	-0.965411	0.429462
O28	O	0.255969	-0.465411	0.929462
O29	O	-0.188846	-1.190740	0.557687
O30	O	0.311154	-0.690740	1.057687
O31	O	-0.316900	-1.190524	0.332394
O32	O	0.183100	-0.690524	0.832394
O33	O	-0.316874	-1.093449	0.429460
O34	O	0.183126	-0.593449	0.929460
C35	C	-0.216446	-0.936762	0.380924
C36	C	0.283554	-0.436762	0.880924
C37	C	-0.216449	-0.848905	0.380920
C38	C	0.283551	-0.348905	0.880920
C39	C	-0.245166	-0.477370	0.330343
C40	C	0.254834	0.022630	0.830343
C41	C	-0.187775	-0.477489	0.431628
C42	C	0.312225	0.022511	0.931628
C43	C	-0.187769	-0.560034	0.431614
C44	C	0.312231	-0.060034	0.931614
C45	C	-0.216463	-0.601252	0.380964
C46	C	0.283537	-0.101252	0.880964
C47	C	-0.245162	-0.559924	0.330328
C48	C	0.254838	-0.059924	0.830328
C49	C	-0.159073	-0.601369	0.482254
C50	C	0.340927	-0.101369	0.982254
C51	C	-0.159067	-0.683920	0.482242
C52	C	0.340933	-0.183920	0.982242
C53	C	-0.187758	-0.725139	0.431588
C54	C	0.312242	-0.225139	0.931588
C55	C	-0.216459	-0.683806	0.380949
C56	C	0.283541	-0.183806	0.880949
C57	C	-0.245152	-0.725023	0.330299
C58	C	0.254848	-0.225023	0.830299
C59	C	-0.273850	-0.683692	0.279657
C60	C	0.226150	-0.183692	0.779657
C61	C	-0.273854	-0.601143	0.279674
C62	C	0.226146	-0.101143	0.779674
C63	C	-0.187755	-0.807687	0.431570
C64	C	0.312245	-0.307687	0.931570
C65	C	-0.245148	-0.807577	0.330285
C66	C	0.254852	-0.307577	0.830285
C67	C	-0.333188	-1.141985	0.380936
C68	C	0.166812	-0.641985	0.880936
C69	C	-0.383122	-1.141996	0.380946
C70	C	0.116878	-0.641996	0.880946
C71	C	-0.692766	-1.192767	0.330507
C72	C	-0.192766	-0.692767	0.830507
C73	C	-0.880440	-1.192864	0.330538
C74	C	-0.380440	-0.692864	0.830538
O75	O	-0.904705	-1.235918	0.287623
O76	O	-0.404705	-0.735918	0.787623
N77	N	-0.903907	-1.142292	0.381035
N78	N	-0.403907	-0.642292	0.881035
C79	C	-0.880453	-1.091695	0.431532
C80	C	-0.380453	-0.591695	0.931532
O81	O	-0.904720	-1.048688	0.474489
O82	O	-0.404720	-0.548688	0.974489
C83	C	-0.692781	-1.091602	0.431505
C84	C	-0.192781	-0.591602	0.931505
C85	C	-0.669316	-1.142172	0.380998
C86	C	-0.169316	-0.642172	0.880998
C87	C	-0.669301	-1.243333	0.280006
C88	C	-0.169301	-0.743333	0.780006
C89	C	-0.622386	-1.243305	0.279995
C90	C	-0.122386	-0.743305	0.779995
C91	C	-0.598936	-1.192711	0.330487
C92	C	-0.098936	-0.692711	0.830487
C93	C	-0.622401	-1.142144	0.380988
C94	C	-0.122401	-0.642144	0.880988
C95	C	-0.669328	-1.041010	0.482005
C96	C	-0.169328	-0.541010	0.982005
C97	C	-0.622407	-1.040993	0.481995
C98	C	-0.122407	-0.540993	0.981995
C99	C	-0.598942	-1.091563	0.431489
C100	C	-0.098942	-0.591563	0.931489
C101	C	-0.552035	-1.091522	0.431469
C102	C	-0.052035	-0.591522	0.931469
N103	N	-0.528567	-1.142094	0.380972
N104	N	-0.028567	-0.642094	0.880972
C105	C	-0.552018	-1.192689	0.330481
C106	C	-0.052018	-0.692689	0.830481
C107	C	-0.978984	-1.091746	0.431541
C108	C	-0.478984	-0.591746	0.931541
C109	C	-1.025902	-1.091768	0.431547
C110	C	-0.525902	-0.591768	0.931547
C111	C	-1.025885	-1.192939	0.330554
C112	C	-0.525885	-0.692939	0.830554
C113	C	-0.978966	-1.192912	0.330545
C114	C	-0.478966	-0.692912	0.830545
C115	C	-0.955516	-1.142319	0.381044
C116	C	-0.455516	-0.642319	0.881044
C117	C	-0.453492	-1.192626	0.330463
C118	C	0.046508	-0.692626	0.830463
C119	C	-0.406572	-1.192591	0.330455
C120	C	0.093428	-0.692591	0.830455
C121	C	-0.406593	-1.091424	0.431450
C122	C	0.093407	-0.591424	0.931450
C123	C	-0.453509	-1.091455	0.431456
C124	C	0.046491	-0.591455	0.931456
C125	C	-0.476957	-1.142063	0.380959
C126	C	0.023043	-0.642063	0.880959
O127	O	-0.527740	-1.048497	0.474368
O128	O	-0.027740	-0.548497	0.974368
O129	O	-0.527743	-1.235702	0.287542
O130	O	-0.027743	-0.735702	0.787542
C131	C	-0.739682	-1.192795	0.330517
C132	C	-0.239682	-0.692795	0.830517
C133	C	-0.763147	-1.142228	0.381019
C134	C	-0.263147	-0.642228	0.881019
C135	C	-0.739697	-1.091634	0.431510
C136	C	-0.239697	-0.591634	0.931510
C137	C	-0.810065	-1.142250	0.381025
C138	C	-0.310065	-0.642250	0.881025
C139	C	-0.833515	-1.192845	0.330533
C140	C	-0.333515	-0.692845	0.830533
C141	C	-0.810048	-1.243417	0.280036
C142	C	-0.310048	-0.743417	0.780036
C143	C	-0.763132	-1.243389	0.280026
C144	C	-0.263132	-0.743389	0.780026
C145	C	-0.763164	-1.041061	0.482007
C146	C	-0.263164	-0.541061	0.982007
C147	C	-0.810080	-1.041093	0.482013
C148	C	-0.310080	-0.541093	0.982013
C149	C	-0.833530	-1.091687	0.431521
C150	C	-0.333530	-0.591687	0.931521
C151	C	-0.099287	-1.142293	0.381032
C152	C	0.400713	-0.642293	0.881032
C153	C	-0.049352	-1.142363	0.381056
C154	C	0.450648	-0.642363	0.881056
C155	C	-0.216428	-1.142161	0.587144
C156	C	0.283572	-0.642161	1.087144
C157	C	-0.216412	-1.142175	0.675000
C158	C	0.283588	-0.642175	1.175000
C159	C	-0.216479	-0.348296	0.381013
C160	C	0.283521	0.151704	0.881013
C161	C	-0.216472	-0.436153	0.380993
C162	C	0.283528	0.063847	0.880993
C163	C	-0.216470	-1.142141	0.175609
C164	C	0.283530	-0.642141	0.675609
C165	C	-0.216359	-1.142280	0.087753
C166	C	0.283641	-0.642280	0.587753
C167	C	-0.245091	-1.091678	1.046452
C168	C	0.254909	-0.591678	1.546452
C169	C	-0.187638	-1.192860	1.046500
C170	C	0.312362	-0.692860	1.546500
C171	C	-0.187648	-1.192839	0.963954
C172	C	0.312352	-0.692839	1.463954
C173	C	-0.216380	-1.142238	0.922653
C174	C	0.283620	-0.642238	1.422653
C175	C	-0.245102	-1.091657	0.963898
C176	C	0.254898	-0.591657	1.463898
C177	C	-0.158929	-1.243424	0.922703
C178	C	0.341071	-0.743424	1.422703
C179	C	-0.158938	-1.243406	0.840152
C180	C	0.341062	-0.743406	1.340152
C181	C	-0.187668	-1.192800	0.798850
C182	C	0.312332	-0.692800	1.298850
C183	C	-0.216391	-1.142217	0.840100
C184	C	0.283609	-0.642217	1.340100
C185	C	-0.245123	-1.091615	0.798799
C186	C	0.254877	-0.591615	1.298799
C187	C	-0.273844	-1.041028	0.840047
C188	C	0.226156	-0.541028	1.340047
C189	C	-0.273832	-1.041051	0.922596
C190	C	0.226168	-0.541051	1.422596
C191	C	-0.187680	-1.192776	0.716301
C192	C	0.312320	-0.692776	1.216301
C193	C	-0.245134	-1.091595	0.716245
C194	C	0.254866	-0.591595	1.216245
H195	H	-0.387469	-1.233771	0.289324
H196	H	0.112531	-0.733771	0.789324
H197	H	-0.135551	-1.284597	0.806575
H198	H	0.364449	-0.784597	1.306575
N199	N	-0.478773	-1.247203	0.275988
N200	N	0.021227	-0.747203	0.775988
H201	H	-0.498270	-1.215114	0.239326
H202	H	0.001730	-0.715114	0.739326
H203	H	-0.498182	-1.283823	0.308195
H204	H	0.001818	-0.783823	0.808195
N205	N	-0.127944	-1.298003	0.967246
N206	N	0.372056	-0.798003	1.467246
H207	H	-0.132294	-1.290336	1.025799
H208	H	0.367706	-0.790336	1.525799
H209	H	-0.095859	-1.285745	0.952834
H210	H	0.404141	-0.785745	1.452834
N211	N	-1.051206	-1.037222	0.486021
N212	N	-0.551206	-0.537222	0.986021
H213	H	-1.084488	-1.044908	0.478369
H214	H	-0.584488	-0.544908	0.978369
H215	H	-1.043038	-0.980775	0.473658
H216	H	-0.543038	-0.480775	0.973658
H217	H	-0.297240	-0.999832	0.806409
H218	H	0.202760	-0.499832	1.306409
H219	H	-0.164297	-1.233966	0.682721
H220	H	0.335703	-0.733966	1.182721
H221	H	-0.744074	-0.999862	0.523124
H222	H	-0.244074	-0.499862	1.023124
N223	N	-0.304799	-0.728147	0.225027
N224	N	0.195201	-0.228147	0.725027
H225	H	-0.325639	-0.762393	0.257079
H226	H	0.174361	-0.262393	0.757079
H227	H	-0.286481	-0.762350	0.188466
H228	H	0.213519	-0.262350	0.688466
N229	N	-0.276117	-1.037003	0.671701
N230	N	0.223883	-0.537003	1.171701
H231	H	-0.294306	-1.004960	0.710359
H232	H	0.205694	-0.504960	1.210359
H233	H	-0.296919	-1.069131	0.637440
H234	H	0.203081	-0.569131	1.137440
H235	H	-0.297217	-0.999868	0.956188
H236	H	0.202783	-0.499868	1.456188
H237	H	-0.268474	-1.050489	1.080040
H238	H	0.231526	-0.550489	1.580040
N239	N	-0.276114	-0.432791	0.275721
N240	N	0.223886	0.067209	0.775721
H241	H	-0.296957	-0.398537	0.307778
H242	H	0.203043	0.101463	0.807778
H243	H	-0.294260	-0.471477	0.243643
H244	H	0.205740	0.028523	0.743643
H245	H	-0.164248	-1.234062	1.080133
H246	H	0.335752	-0.734062	1.580133
H247	H	-0.268513	-0.841130	0.289036
H248	H	0.231487	-0.341130	0.789036
H249	H	-0.297218	-0.567483	0.238443
H250	H	0.202782	-0.067483	0.738443
H251	H	-0.135699	-0.717565	0.523478
H252	H	0.364301	-0.217565	1.023478
N253	N	-0.835345	-1.297981	0.225570
N254	N	-0.335345	-0.797981	0.725570
H255	H	-0.868627	-1.290318	0.233244
H256	H	-0.368627	-0.790318	0.733244
H257	H	-0.827112	-1.354423	0.237928
H258	H	-0.327112	-0.854423	0.737928
H259	H	-0.959864	-1.234091	0.289419
H260	H	-0.459864	-0.734091	0.789419
N261	N	-0.128130	-0.556912	0.536883
N262	N	0.371870	-0.056912	1.036883
H263	H	-0.096021	-0.571303	0.524714
H264	H	0.403979	-0.071303	1.024714
H265	H	-0.135188	-0.571320	0.593311
H266	H	0.364812	-0.071320	1.093311
H267	H	-0.603283	-1.284486	0.238871
H268	H	-0.103283	-0.784486	0.738871
H269	H	-0.164416	-0.443924	0.472870
H270	H	0.335584	0.056076	0.972870
H271	H	-0.164391	-0.841336	0.472805
H272	H	0.335609	-0.341336	0.972805
H273	H	-0.387493	-1.050228	0.472557
H274	H	0.112507	-0.550228	0.972557
H275	H	-1.044986	-1.234135	0.289442
H276	H	-0.544986	-0.734135	0.789442
H277	H	-0.688390	-1.284538	0.238889
H278	H	-0.188390	-0.784538	0.738889
H279	H	-0.959894	-1.050545	0.472665
H280	H	-0.459894	-0.550545	0.972665
H281	H	-0.603317	-0.999794	0.523120
H282	H	-0.103317	-0.499794	1.023120
N283	N	-0.694629	-0.986462	0.536476
N284	N	-0.194629	-0.486462	1.036476
H285	H	-0.672648	-0.954414	0.568458
H286	H	-0.172648	-0.454414	1.068458
H287	H	-0.714064	-1.018619	0.573096
H288	H	-0.214064	-0.518619	1.073096
H289	H	-0.472615	-1.050279	0.472585
H290	H	0.027385	-0.550279	0.972585
H291	H	-0.744030	-1.284568	0.238899
H292	H	-0.244030	-0.784568	0.738899
H293	H	-0.829181	-0.999905	0.523140
H294	H	-0.329181	-0.499905	1.023140
