data_functionalizedCrystal
_audit_creation_method	'MofGen! by Chris Wilmer'
_symmetry_space_group_name_H-M	'P1'
_symmetry_Int_Tables_number	1
_symmetry_cell_setting	triclinic
loop_
_symmetry_equiv_pos_as_xyz
  x,y,z
_cell_length_a	19.805405
_cell_length_b	17.077404
_cell_length_c	17.077396
_cell_angle_alpha	89.980499
_cell_angle_beta	89.968350
_cell_angle_gamma	90.026635
loop_
_atom_site_label
_atom_site_type_symbol
_atom_site_fract_x
_atom_site_fract_y
_atom_site_fract_z
Zn1	Zn	-0.269459	1.200035	-0.443825
Zn2	Zn	-0.382652	1.199934	-0.312552
Zn3	Zn	-0.269483	1.068767	-0.312573
Zn4	Zn	-0.382612	1.068727	-0.443776
O5	O	-0.326052	1.134366	-0.378182
O6	O	-0.284481	1.309869	-0.426424
O7	O	-0.367667	1.182509	-0.202708
O8	O	-0.174763	1.086239	-0.330014
O9	O	-0.367644	1.309795	-0.329978
O10	O	-0.174746	1.182681	-0.426444
O11	O	-0.284522	1.086141	-0.202724
O12	O	-0.284483	0.958915	-0.329966
O13	O	-0.367575	1.086171	-0.553629
O14	O	-0.367598	0.958886	-0.426360
O15	O	-0.284442	1.182643	-0.553666
O16	O	-0.477363	1.182470	-0.329930
O17	O	-0.477334	1.086073	-0.426339
C18	C	-0.326039	0.930418	-0.378160
C19	C	-0.326050	0.843168	-0.378169
C20	C	-0.369394	0.802183	-0.428281
C21	C	-0.369395	0.720203	-0.428294
C22	C	-0.326056	0.679209	-0.378190
C23	C	-0.282708	0.720200	-0.328076
C24	C	-0.282703	0.802179	-0.328068
C25	C	-0.282721	0.549330	-0.328095
C26	C	-0.282726	0.467345	-0.328102
C27	C	-0.369413	0.467354	-0.428321
C28	C	-0.369409	0.549333	-0.428313
C29	C	-0.326061	0.590318	-0.378197
C30	C	-0.501908	1.134278	-0.378144
C31	C	-0.577140	1.134312	-0.378154
C32	C	-0.612477	1.184555	-0.328006
C33	C	-0.683165	1.184588	-0.328023
C34	C	-0.718515	1.134374	-0.378185
C35	C	-0.683173	1.084129	-0.428338
C36	C	-0.612486	1.084100	-0.428324
C37	C	-0.968246	1.084245	-0.428397
C38	C	-1.038938	1.084276	-0.428405
C39	C	-1.038925	1.184733	-0.328095
C40	C	-0.968238	1.184704	-0.328081
C41	C	-0.932902	1.134462	-0.378237
C42	C	-0.856254	1.134427	-0.378219
C43	C	-0.795162	1.134404	-0.378200
C44	C	-0.149509	1.134476	-0.378237
C45	C	-0.074277	1.134523	-0.378261
C46	C	-0.326002	1.134414	-0.582926
C47	C	-0.325980	1.134434	-0.670176
C48	C	-0.326064	1.339110	-0.378204
C49	C	-0.326070	1.426360	-0.378213
C50	C	-0.282690	1.184668	-0.711186
C51	C	-0.282667	1.184678	-0.793167
C52	C	-0.325939	1.134456	-0.834135
C53	C	-0.369232	1.084216	-0.793119
C54	C	-0.369251	1.084203	-0.711140
C55	C	-0.369191	1.084248	-0.963989
C56	C	-0.369174	1.084261	-1.045974
C57	C	-0.282608	1.184722	-1.046016
C58	C	-0.282626	1.184709	-0.964037
C59	C	-0.325920	1.134470	-0.923026
C60	C	-0.326052	1.134364	-0.174234
C61	C	-0.325883	1.134496	-0.086984
H62	H	-0.247428	0.433970	-0.287312
O63	O	-0.411489	0.427634	-0.477114
C64	C	-0.396778	0.447697	-0.555381
H65	H	-0.370755	0.507231	-0.557057
H66	H	-0.445669	0.450499	-0.590468
H67	H	-0.362016	0.401586	-0.581906
H68	H	-0.939481	1.043334	-0.469234
H69	H	-0.247417	1.225586	-0.826554
O70	O	-0.717585	1.035460	-0.477105
C71	C	-0.758400	1.080138	-0.527865
H72	H	-0.768965	1.139647	-0.500236
H73	H	-0.808123	1.048178	-0.538363
H74	H	-0.731117	1.088718	-0.586041
H75	H	-0.583715	1.043188	-0.469161
H76	H	-0.711933	1.225500	-0.287187
O77	O	-0.240597	0.589022	-0.279334
C78	C	-0.202337	0.535263	-0.235121
H79	H	-0.230058	0.476809	-0.232359
H80	H	-0.195057	0.558923	-0.173284
H81	H	-0.150959	0.526586	-0.263968
H82	H	-0.404408	1.043364	-1.079328
H83	H	-1.067704	1.225645	-0.287259
O84	O	-0.933825	1.233520	-0.279464
C85	C	-0.892886	1.284188	-0.324197
H86	H	-0.882281	1.256463	-0.383657
H87	H	-0.843190	1.294705	-0.292225
H88	H	-0.920081	1.342367	-0.332880
H89	H	-1.067719	1.043386	-0.469259
H90	H	-0.404688	0.835555	-0.469079
H91	H	-0.247454	1.225567	-0.677836
O92	O	-0.411322	1.035433	-0.924272
C93	C	-0.449507	0.991104	-0.978009
H94	H	-0.451824	1.023256	-1.036456
H95	H	-0.502846	0.982717	-0.954310
H96	H	-0.424732	0.931492	-0.986713
H97	H	-0.247417	0.686816	-0.287284
H98	H	-0.404691	0.686837	-0.469099
H99	H	-0.247394	1.225609	-0.930683
O100	O	-0.411413	0.589241	-0.477023
C101	C	-0.372926	0.636684	-0.527810
H102	H	-0.321602	0.648974	-0.500230
H103	H	-0.400501	0.694326	-0.538266
H104	H	-0.365555	0.605119	-0.586001
O105	O	-0.411361	1.035469	-0.832828
C106	C	-0.478827	1.052590	-0.812790
H107	H	-0.480245	1.082754	-0.753272
H108	H	-0.509173	0.995919	-0.809966
H109	H	-0.501616	1.092942	-0.858927
O110	O	-0.240564	1.233441	-1.085970
C111	C	-0.249830	1.222693	-1.167112
H112	H	-0.271996	1.162104	-1.178288
H113	H	-0.199120	1.228045	-1.198280
H114	H	-0.285865	1.269238	-1.190382
O115	O	-0.411212	1.035324	-0.671270
C116	C	-0.372689	0.984649	-0.623838
H117	H	-0.319373	0.979837	-0.648556
H118	H	-0.397167	0.924225	-0.622895
H119	H	-0.370377	1.008907	-0.561712
O120	O	-0.240582	0.841873	-0.279311
C121	C	-0.202320	0.788113	-0.235100
H122	H	-0.230043	0.729661	-0.232331
H123	H	-0.195033	0.811776	-0.173266
H124	H	-0.150945	0.779433	-0.263953
H125	H	-0.583699	1.225441	-0.287155
