data_functionalizedCrystal
_audit_creation_method	'MofGen! by Chris Wilmer'
_symmetry_space_group_name_H-M	'P1'
_symmetry_Int_Tables_number	1
_symmetry_cell_setting	triclinic
loop_
_symmetry_equiv_pos_as_xyz
  x,y,z
_cell_length_a	12.759401
_cell_length_b	19.805405
_cell_length_c	19.805399
_cell_angle_alpha	90.030709
_cell_angle_beta	89.987249
_cell_angle_gamma	89.973428
loop_
_atom_site_label
_atom_site_type_symbol
_atom_site_fract_x
_atom_site_fract_y
_atom_site_fract_z
Zn1	Zn	1.606110	0.269467	-0.382637
Zn2	Zn	2.106110	0.769467	0.117363
Zn3	Zn	1.605986	0.382658	-0.269445
Zn4	Zn	2.105986	0.882658	0.230555
Zn5	Zn	1.430430	0.269488	-0.269470
Zn6	Zn	1.930430	0.769488	0.230530
Zn7	Zn	1.430365	0.382619	-0.382600
Zn8	Zn	1.930365	0.882619	0.117400
O9	O	1.518223	0.326058	-0.326038
O10	O	2.018223	0.826058	0.173962
O11	O	1.753115	0.284489	-0.367627
O12	O	2.253115	0.784489	0.132373
O13	O	1.582674	0.367671	-0.174732
O14	O	2.082674	0.867671	0.325268
O15	O	1.453813	0.174769	-0.284507
O16	O	1.953813	0.674769	0.215493
O17	O	1.753024	0.367650	-0.284465
O18	O	2.253024	0.867650	0.215535
O19	O	1.582885	0.174753	-0.367651
O20	O	2.082885	0.674753	0.132349
O21	O	1.453693	0.284526	-0.174750
O22	O	1.953693	0.784526	0.325250
O23	O	1.283400	0.284488	-0.284471
O24	O	1.783400	0.784488	0.215529
O25	O	1.453703	0.367584	-0.477322
O26	O	1.953703	0.867584	0.022678
O27	O	1.283353	0.367605	-0.367588
O28	O	1.783353	0.867605	0.132412
O29	O	1.582822	0.284451	-0.477349
O30	O	2.082822	0.784451	0.022651
O31	O	1.582611	0.477369	-0.284430
O32	O	2.082611	0.977369	0.215570
O33	O	1.453583	0.477341	-0.367564
O34	O	1.953583	0.977341	0.132436
C35	C	1.518105	0.501914	-0.326005
C36	C	2.018105	1.001914	0.173995
C37	C	1.518150	0.577146	-0.326014
C38	C	2.018150	1.077146	0.173986
C39	C	1.245256	0.326046	-0.326029
C40	C	1.745256	0.826046	0.173971
C41	C	1.128479	0.326057	-0.326041
C42	C	1.628479	0.826057	0.173959
C43	C	1.518269	0.326011	-0.502581
C44	C	2.018269	0.826011	-0.002581
C45	C	1.518289	0.325991	-0.577813
C46	C	2.018289	0.825991	-0.077813
C47	C	1.073620	0.369405	-0.369248
C48	C	1.573620	0.869405	0.130752
C49	C	0.963895	0.369413	-0.369255
C50	C	1.463895	0.869413	0.130745
C51	C	0.963900	0.282724	-0.282843
C52	C	1.463900	0.782724	0.217157
C53	C	1.073622	0.282712	-0.282839
C54	C	1.573622	0.782712	0.217161
C55	C	1.128477	0.412749	-0.412450
C56	C	1.628477	0.912749	0.087550
C57	C	1.073617	0.456101	-0.455660
C58	C	1.573617	0.956101	0.044340
C59	C	0.963893	0.456110	-0.455667
C60	C	1.463893	0.956110	0.044333
C61	C	0.909028	0.412766	-0.412464
C62	C	1.409028	0.912766	0.087536
C63	C	1.792256	0.326071	-0.326048
C64	C	2.292256	0.826071	0.173952
C65	C	1.909033	0.326077	-0.326052
C66	C	2.409033	0.826077	0.173948
C67	C	1.518370	0.149515	-0.326086
C68	C	2.018370	0.649515	0.173914
C69	C	1.518433	0.074283	-0.326106
C70	C	2.018433	0.574283	0.173894
C71	C	1.585400	0.612482	-0.282771
C72	C	2.085400	1.112482	0.217229
C73	C	1.585445	0.683171	-0.282786
C74	C	2.085445	1.183171	0.217214
C75	C	1.518233	0.718522	-0.326041
C76	C	2.018233	1.218522	0.173959
C77	C	1.450980	0.683180	-0.369288
C78	C	1.950980	1.183180	0.130712
C79	C	1.450942	0.612493	-0.369276
C80	C	1.950942	1.112493	0.130724
C81	C	1.451135	0.968253	-0.369339
C82	C	1.951135	1.468253	0.130661
C83	C	1.451177	1.038946	-0.369346
C84	C	1.951177	1.538946	0.130654
C85	C	1.585639	1.038931	-0.282848
C86	C	2.085639	1.538931	0.217152
C87	C	1.585600	0.968244	-0.282836
C88	C	2.085600	1.468244	0.217164
C89	C	1.518351	0.932909	-0.326086
C90	C	2.018351	1.432909	0.173914
C91	C	1.518305	0.856261	-0.326070
C92	C	2.018305	1.356261	0.173930
C93	C	1.518273	0.795169	-0.326054
C94	C	2.018273	1.295169	0.173946
C95	C	1.451148	0.282693	-0.613166
C96	C	1.951148	0.782693	-0.113166
C97	C	1.451162	0.282680	-0.683854
C98	C	1.951162	0.782680	-0.183854
C99	C	1.518324	0.325962	-0.719188
C100	C	2.018324	0.825962	-0.219188
C101	C	1.585468	0.369264	-0.683831
C102	C	2.085468	0.869264	-0.183831
C103	C	1.585447	0.369280	-0.613143
C104	C	2.085447	0.869280	-0.113143
C105	C	1.585551	0.369201	-0.968904
C106	C	2.085551	0.869201	-0.468904
C107	C	1.585569	0.369180	-1.039596
C108	C	2.085569	0.869180	-0.539596
C109	C	1.451266	0.282601	-1.039615
C110	C	1.951266	0.782601	-0.539615
C111	C	1.451245	0.282617	-0.968928
C112	C	1.951245	0.782617	-0.468928
C113	C	1.518385	0.325922	-0.933576
C114	C	2.018385	0.825922	-0.433576
C115	C	1.518367	0.325936	-0.856927
C116	C	2.018367	0.825936	-0.356927
C117	C	1.518348	0.325944	-0.795836
C118	C	2.018348	0.825944	-0.295836
C119	C	1.518237	0.326056	-0.150182
C120	C	2.018237	0.826056	0.349818
C121	C	1.518421	0.325885	-0.074950
C122	C	2.018421	0.825885	0.425050
H123	H	1.217819	0.412748	-0.412447
H124	H	1.717819	0.912748	0.087553
C125	C	1.377043	0.722069	-0.416867
C126	C	1.877043	1.222069	0.083133
N127	N	1.321347	0.751359	-0.452701
N128	N	1.821347	1.251359	0.047299
C129	C	1.659338	0.573603	-0.235185
C130	C	2.159338	1.073603	0.264815
N131	N	1.715032	0.544321	-0.199343
N132	N	2.215032	1.044321	0.300657
H133	H	0.919220	0.247436	-0.247668
H134	H	1.419220	0.747436	0.252332
C135	C	1.133971	0.235029	-0.235307
C136	C	1.633971	0.735029	0.264693
N137	N	1.179425	0.199112	-0.199505
N138	N	1.679425	0.699112	0.300495
C139	C	1.659620	1.077806	-0.235275
C140	C	2.159620	1.577806	0.264725
N141	N	1.715338	1.107086	-0.199443
N142	N	2.215338	1.607086	0.300557
H143	H	1.396181	0.583723	-0.404490
H144	H	1.896181	1.083723	0.095510
H145	H	1.396446	1.067726	-0.404574
H146	H	1.896446	1.567726	0.095426
H147	H	1.640206	0.711939	-0.247573
H148	H	2.140206	1.211939	0.252427
C149	C	1.377263	0.235079	-0.574305
C150	C	1.877263	0.735079	-0.074305
N151	N	1.321607	0.199217	-0.545036
N152	N	1.821607	0.699217	-0.045036
H153	H	1.396485	0.247425	-0.712636
H154	H	1.896485	0.747425	-0.212636
H155	H	1.396594	0.247342	-1.068407
H156	H	1.896594	0.747342	-0.568407
C157	C	1.659528	0.929362	-0.235247
C158	C	2.159528	1.429362	0.264753
N159	N	1.715213	0.900077	-0.199401
N160	N	2.215213	1.400077	0.300599
H161	H	1.640128	0.404533	-0.584360
H162	H	2.140128	0.904533	-0.084360
C163	C	1.133970	0.503776	-0.503181
C164	C	1.633970	1.003776	-0.003181
N165	N	1.179427	0.539686	-0.538975
N166	N	1.679427	1.039686	-0.038975
H167	H	1.396377	0.939489	-0.404553
H168	H	1.896377	1.439489	0.095447
C169	C	1.377361	0.235005	-0.930064
C170	C	1.877361	0.735005	-0.430064
N171	N	1.321706	0.199144	-0.900793
N172	N	1.821706	0.699144	-0.400793
H173	H	1.640262	0.404428	-1.068363
H174	H	2.140262	0.904428	-0.568363
H175	H	1.640209	0.404470	-0.940129
H176	H	2.140209	0.904470	-0.440129
C177	C	1.659108	0.417028	-0.722700
C178	C	2.159108	0.917028	-0.222700
N179	N	1.714492	0.453058	-0.751977
N180	N	2.214492	0.953058	-0.251977
C181	C	0.903551	0.503800	-0.503196
C182	C	1.403551	1.003800	-0.003196
N183	N	0.858103	0.539726	-0.538993
N184	N	1.358103	1.039726	-0.038993
H185	H	0.819684	0.412771	-0.412480
H186	H	1.319684	0.912771	0.087520
