data_functionalizedCrystal
_audit_creation_method	'MofGen! by Chris Wilmer'
_symmetry_space_group_name_H-M	'P1'
_symmetry_Int_Tables_number	1
_symmetry_cell_setting	triclinic
loop_
_symmetry_equiv_pos_as_xyz
  x,y,z
_cell_length_a	14.908571
_cell_length_b	14.908520
_cell_length_c	11.169409
_cell_angle_alpha	86.739668
_cell_angle_beta	93.316289
_cell_angle_gamma	90.205961
loop_
_atom_site_label
_atom_site_type_symbol
_atom_site_fract_x
_atom_site_fract_y
_atom_site_fract_z
Zn1	Zn	1.354005	-0.437324	0.815923
Zn2	Zn	1.854005	0.062676	1.315923
Zn3	Zn	1.345212	-0.587708	0.626090
Zn4	Zn	1.845212	-0.087708	1.126090
Zn5	Zn	1.203629	-0.428688	0.603060
Zn6	Zn	1.703629	0.071312	1.103060
Zn7	Zn	1.194932	-0.578949	0.814536
Zn8	Zn	1.694932	-0.078949	1.314536
O9	O	1.274445	-0.508167	0.714902
O10	O	1.774445	-0.008167	1.214902
O11	O	1.478664	-0.464554	0.800960
O12	O	1.978664	0.035446	1.300960
O13	O	1.326391	-0.566665	0.455086
O14	O	1.826391	-0.066665	0.955086
O15	O	1.230896	-0.304012	0.622239
O16	O	1.730896	0.195988	1.122239
O17	O	1.472204	-0.575040	0.661491
O18	O	1.972204	-0.075040	1.161491
O19	O	1.341376	-0.310358	0.778629
O20	O	1.841376	0.189642	1.278629
O21	O	1.222370	-0.449833	0.438166
O22	O	1.722370	0.050167	0.938166
O23	O	1.076650	-0.441340	0.620894
O24	O	1.576650	0.058660	1.120894
O25	O	1.216074	-0.560110	0.982669
O26	O	1.716074	-0.060110	1.482669
O27	O	1.070261	-0.551736	0.776264
O28	O	1.570261	-0.051736	1.276264
O29	O	1.332944	-0.456060	0.983688
O30	O	1.832944	0.043940	1.483688
O31	O	1.317958	-0.712367	0.660146
O32	O	1.817958	-0.212367	1.160146
O33	O	1.207548	-0.705931	0.798596
O34	O	1.707548	-0.205931	1.298596
C35	C	1.040830	-0.494651	0.695930
C36	C	1.540830	0.005349	1.195930
C37	C	0.940888	-0.488890	0.687844
C38	C	1.440888	0.011110	1.187844
C39	C	1.260880	-0.741775	0.731747
C40	C	1.760880	-0.241775	1.231747
C41	C	1.255159	-0.841718	0.739001
C42	C	1.755159	-0.341718	1.239001
C43	C	0.746470	-0.593198	0.834243
C44	C	1.246470	-0.093198	1.334243
C45	C	0.652565	-0.587788	0.826650
C46	C	1.152565	-0.087788	1.326650
C47	C	0.659171	-0.472656	0.665071
C48	C	1.159171	0.027344	1.165071
C49	C	0.753076	-0.478066	0.672664
C50	C	1.253076	0.021934	1.172664
C51	C	0.796722	-0.538340	0.757252
C52	C	1.296722	-0.038340	1.257252
C53	C	0.890629	-0.543754	0.764839
C54	C	1.390629	-0.043754	1.264839
C55	C	0.897234	-0.428617	0.603266
C56	C	1.397234	0.071383	1.103266
C57	C	0.803329	-0.423207	0.595673
C58	C	1.303329	0.076793	1.095673
C59	C	1.359497	-1.036168	0.608595
C60	C	1.859497	-0.536168	1.108595
C61	C	1.354124	-1.130074	0.615407
C62	C	1.854124	-0.630074	1.115407
C63	C	1.239047	-1.123436	0.759440
C64	C	1.739047	-0.623436	1.259440
C65	C	1.244419	-1.029531	0.752629
C66	C	1.744419	-0.529531	1.252629
C67	C	1.304645	-0.985900	0.677203
C68	C	1.804645	-0.485900	1.177203
C69	C	1.310012	-0.891993	0.670385
C70	C	1.810012	-0.391993	1.170385
C71	C	1.194940	-0.885357	0.814425
C72	C	1.694940	-0.385357	1.314425
C73	C	1.189568	-0.979263	0.821236
C74	C	1.689568	-0.479263	1.321236
C75	C	1.508971	-0.521737	0.733949
C76	C	2.008971	-0.021737	1.233949
C77	C	1.608912	-0.527520	0.742065
C78	C	2.108912	-0.027520	1.242065
C79	C	1.274519	-0.508071	1.027943
C80	C	1.774519	-0.008071	1.527943
C81	C	1.274551	-0.508030	1.161343
C82	C	1.774551	-0.008030	1.661343
C83	C	1.288087	-0.273649	0.698020
C84	C	1.788087	0.226351	1.198020
C85	C	1.293901	-0.173711	0.690825
C86	C	1.793901	0.326289	1.190825
C87	C	1.274426	-0.508201	0.403079
C88	C	1.774426	-0.008201	0.903079
C89	C	1.274583	-0.507998	0.269676
C90	C	1.774583	-0.007998	0.769676
H91	H	0.926164	-0.592834	0.833713
H92	H	1.426164	-0.092834	1.333713
H93	H	1.408529	-1.000644	0.547171
H94	H	1.908529	-0.500644	1.047171
O95	O	0.793556	-0.658204	0.925469
O96	O	1.293556	-0.158204	1.425469
H97	H	0.742835	-0.695441	0.977735
H98	H	1.242835	-0.195441	1.477735
H99	H	0.767779	-0.374132	0.526807
H100	H	1.267779	0.125868	1.026807
H101	H	1.398792	-1.170999	0.559542
H102	H	1.898792	-0.670999	1.059542
H103	H	1.190020	-1.158977	0.820857
H104	H	1.690020	-0.658977	1.320857
O105	O	1.124600	-1.026321	0.902570
O106	O	1.624600	-0.526321	1.402570
H107	H	1.130070	-1.100065	0.895771
H108	H	1.630070	-0.600065	1.395771
H109	H	0.611653	-0.632458	0.889346
H110	H	1.111653	-0.132458	1.389346
H111	H	1.150274	-0.844418	0.870286
H112	H	1.650274	-0.344418	1.370286
H113	H	1.359049	-0.856469	0.608966
H114	H	1.859049	-0.356469	1.108966
H115	H	0.623619	-0.423578	0.596211
H116	H	1.123619	0.076422	1.096211
H117	H	0.938159	-0.383950	0.540572
H118	H	1.438159	0.116050	1.040572
