data_functionalizedCrystal
_audit_creation_method	'MofGen! by Chris Wilmer'
_symmetry_space_group_name_H-M	'P1'
_symmetry_Int_Tables_number	1
_symmetry_cell_setting	triclinic
loop_
_symmetry_equiv_pos_as_xyz
  x,y,z
_cell_length_a	19.188933
_cell_length_b	19.188930
_cell_length_c	16.176319
_cell_angle_alpha	89.988074
_cell_angle_beta	89.993996
_cell_angle_gamma	83.145175
loop_
_atom_site_label
_atom_site_type_symbol
_atom_site_fract_x
_atom_site_fract_y
_atom_site_fract_z
O1	O	0.926147	0.087176	-0.068728
O2	O	0.722836	0.098909	-0.068737
O3	O	0.830358	-0.008613	-0.068716
O4	O	0.818624	0.194698	-0.068749
O5	O	0.830343	-0.008620	0.068777
O6	O	0.722821	0.098902	0.068756
O7	O	0.926132	0.087169	0.068765
Cu8	Cu	0.824475	0.093035	0.081315
Cu9	Cu	0.824492	0.093043	-0.081287
O10	O	0.818609	0.194691	0.068744
C11	C	0.696817	0.098525	0.000008
C12	C	0.619313	0.097384	0.000006
C13	C	0.066065	0.089242	-0.074932
C14	C	0.138890	0.090310	-0.074935
C15	C	0.175299	0.090844	0.000012
C16	C	0.138880	0.090291	0.074968
C17	C	0.066058	0.089216	0.074970
N18	N	0.284313	0.132260	0.055792
N19	N	0.353490	0.133283	0.055786
C20	C	0.394707	0.094082	0.000013
N21	N	0.364132	0.053828	-0.055766
N22	N	0.294948	0.052809	-0.055762
C23	C	0.254262	0.092009	0.000019
C24	C	0.510082	0.095788	-0.074942
C25	C	0.582909	0.096851	-0.074942
C26	C	0.582896	0.096840	0.074963
C27	C	0.510072	0.095769	0.074961
C28	C	0.473669	0.095246	0.000006
C29	C	0.829971	-0.034628	0.000033
C30	C	0.828830	-0.112132	0.000040
C31	C	0.891921	-0.157056	0.000046
C32	C	0.890849	-0.229880	0.000033
C33	C	0.826683	-0.257777	0.000030
C34	C	0.763584	-0.212843	0.000018
C35	C	0.764658	-0.140021	0.000023
N36	N	0.777631	-0.365784	0.046819
N37	N	0.776616	-0.434963	0.046816
C38	C	0.823445	-0.477185	0.000013
N39	N	0.871339	-0.447617	-0.046777
N40	N	0.872357	-0.378432	-0.046770
C41	C	0.825512	-0.336739	0.000024
C42	C	0.885378	-0.601073	0.000004
C43	C	0.884304	-0.673898	-0.000014
C44	C	0.757037	-0.656860	-0.000021
C45	C	0.758113	-0.584037	-0.000011
C46	C	0.822286	-0.556148	0.000006
C47	C	0.952150	0.087553	0.000017
C48	C	1.029655	0.088694	0.000015
C49	C	0.818997	0.220705	-0.000007
C50	C	0.820137	0.298210	-0.000019
N51	N	0.824468	0.093029	0.195680
N52	N	0.824505	0.093043	-0.195652
C53	C	0.872093	0.045437	0.238953
C54	C	0.872097	0.045437	0.325500
C55	C	0.824478	0.093031	0.368773
C56	C	0.776847	0.140625	0.325493
C57	C	0.776841	0.140622	0.238948
C58	C	0.776871	0.140638	0.674521
C59	C	0.776883	0.140639	0.761073
C60	C	0.872127	0.045453	0.761074
C61	C	0.872121	0.045450	0.674529
C62	C	0.824488	0.093040	0.631257
C63	C	0.824484	0.093040	0.537413
C64	C	0.824485	0.093036	0.462615
H65	H	0.480426	0.095325	0.135991
H66	H	0.706738	-0.547459	-0.000012
H67	H	0.910873	0.006683	0.203727
C68	C	0.622501	0.097303	-0.156292
C69	C	0.672333	0.037855	-0.160682
C70	C	0.708813	0.038244	-0.235614
H71	H	0.645525	0.138381	-0.159487
H72	H	0.590416	0.096802	-0.200954
H73	H	0.704413	0.038363	-0.116032
H74	H	0.649328	-0.003232	-0.157501
H75	H	0.676728	0.037742	-0.280276
H76	H	0.731833	0.079324	-0.238802
H77	H	0.742624	-0.002094	-0.238606
C78	C	0.696102	-0.091325	-0.000107
C79	C	0.657451	-0.103893	-0.070839
C80	C	0.594290	-0.059053	-0.070980
H81	H	0.705831	-0.043936	-0.000143
H82	H	0.669736	-0.099781	0.047812
H83	H	0.683811	-0.095431	-0.118745
H84	H	0.647703	-0.151273	-0.070818
H85	H	0.567924	-0.067509	-0.023061
H86	H	0.604026	-0.011666	-0.071013
H87	H	0.568055	-0.067579	-0.118966
C88	C	0.725277	0.192352	0.627447
C89	C	0.762334	0.234989	0.577728
C90	C	0.714829	0.282637	0.534342
H91	H	0.696905	0.220766	0.665525
H92	H	0.696293	0.167334	0.593651
H93	H	0.791306	0.260006	0.611521
H94	H	0.790703	0.206595	0.539634
H95	H	0.685844	0.257618	0.500545
H96	H	0.686460	0.311046	0.572426
H97	H	0.739965	0.311567	0.500597
H98	H	0.036431	0.088814	-0.135966
H99	H	0.937631	-0.578365	0.000014
H100	H	0.910899	0.006696	0.639299
C101	C	0.178301	0.090951	-0.156396
C102	C	0.130831	0.090282	-0.222036
C103	C	0.167107	0.090885	-0.297089
H104	H	0.212164	0.050679	-0.159634
H105	H	0.201237	0.132096	-0.159548
H106	H	0.107906	0.049141	-0.218886
H107	H	0.096967	0.130550	-0.218825
H108	H	0.190043	0.132031	-0.300241
H109	H	0.200969	0.050613	-0.300319
H110	H	0.134903	0.090438	-0.341635
C111	C	0.622520	0.097307	0.156277
C112	C	0.672376	0.037877	0.160652
C113	C	0.708900	0.038285	0.235543
H114	H	0.590485	0.096794	0.200982
H115	H	0.645523	0.138411	0.159398
H116	H	0.649374	-0.003216	0.157539
H117	H	0.704425	0.038377	0.115963
H118	H	0.731903	0.079388	0.238664
H119	H	0.676860	0.037773	0.280243
H120	H	0.742736	-0.002034	0.238518
C121	C	0.959276	-0.278781	0.000006
C122	C	0.944599	-0.348525	-0.000018
C123	C	1.007615	-0.393590	-0.000052
H124	H	0.985637	-0.270447	0.047946
H125	H	0.985615	-0.270383	-0.047954
H126	H	0.918272	-0.356920	0.047937
H127	H	0.918248	-0.356882	-0.047955
H128	H	1.033954	-0.385191	-0.048012
H129	H	1.033972	-0.385249	0.047889
H130	H	0.997666	-0.440915	-0.000077
H131	H	0.910876	0.006684	0.360733
C132	C	0.952882	-0.722560	0.000034
C133	C	1.009307	-0.682545	0.000073
C134	C	1.072493	-0.727349	0.000130
H135	H	0.955219	-0.751327	-0.047903
H136	H	0.955137	-0.751324	0.047998
H137	H	1.007054	-0.653794	-0.047885
H138	H	1.006994	-0.653780	0.048006
H139	H	1.074747	-0.756113	0.048093
H140	H	1.074822	-0.756113	-0.047808
H141	H	1.110784	-0.700206	0.000164
C142	C	0.961664	-0.126913	0.000016
C143	C	1.016687	-0.181848	-0.000002
C144	C	1.080943	-0.154106	-0.000042
H145	H	0.964821	-0.098879	0.047952
H146	H	0.964774	-0.098870	-0.047949
H147	H	1.013578	-0.209879	0.047958
H148	H	1.013553	-0.209886	-0.047934
H149	H	1.084053	-0.126063	-0.048006
H150	H	1.084094	-0.126072	0.047895
H151	H	1.118284	-0.191375	-0.000061
C152	C	0.687440	-0.687274	0.000012
C153	C	0.700002	-0.760665	0.000026
C154	C	0.635905	-0.788710	0.000062
H155	H	0.661425	-0.671905	-0.047923
H156	H	0.661458	-0.671892	0.047977
H157	H	0.725974	-0.776042	-0.047934
H158	H	0.726007	-0.776054	0.047957
H159	H	0.609922	-0.773327	0.048027
H160	H	0.609895	-0.773335	-0.047874
H161	H	0.644419	-0.838508	0.000079
H162	H	0.711340	-0.235562	0.000014
H163	H	0.480442	0.095360	-0.135975
H164	H	0.910910	0.006699	0.796315
H165	H	0.738059	0.179374	0.203715
H166	H	0.738072	0.179375	0.360730
H167	H	0.168529	0.090725	0.135991
C168	C	0.725095	0.192342	0.807907
C169	C	0.683365	0.234006	0.751488
C170	C	0.635648	0.281633	0.794601
H171	H	0.750037	0.221416	0.841656
H172	H	0.696081	0.167309	0.841666
H173	H	0.712375	0.259037	0.717744
H174	H	0.658407	0.204952	0.717737
H175	H	0.606633	0.256600	0.828361
H176	H	0.660596	0.310702	0.828349
H177	H	0.607324	0.309904	0.756329
H178	H	0.036412	0.088772	0.136002
