data_functionalizedCrystal
_audit_creation_method	'MofGen! by Chris Wilmer'
_symmetry_space_group_name_H-M	'P1'
_symmetry_Int_Tables_number	1
_symmetry_cell_setting	triclinic
loop_
_symmetry_equiv_pos_as_xyz
  x,y,z
_cell_length_a	18.215407
_cell_length_b	18.101397
_cell_length_c	18.215399
_cell_angle_alpha	90.030634
_cell_angle_beta	90.019833
_cell_angle_gamma	90.020914
loop_
_atom_site_label
_atom_site_type_symbol
_atom_site_fract_x
_atom_site_fract_y
_atom_site_fract_z
Zn1	Zn	1.125095	-0.294828	0.416102
Zn2	Zn	1.625095	0.205172	0.916102
Zn3	Zn	1.125012	-0.418675	0.293030
Zn4	Zn	1.625012	0.081325	0.793030
Zn5	Zn	1.002027	-0.294853	0.293050
Zn6	Zn	1.502027	0.205147	0.793050
Zn7	Zn	1.002002	-0.418633	0.416055
Zn8	Zn	1.502002	0.081367	0.916055
O9	O	1.063534	-0.356747	0.354559
O10	O	1.563534	0.143253	0.854559
O11	O	1.228068	-0.311264	0.399788
O12	O	1.728068	0.188736	0.899788
O13	O	1.108674	-0.402277	0.190048
O14	O	1.608674	0.097723	0.690048
O15	O	1.018397	-0.191216	0.309401
O16	O	1.518397	0.308784	0.809401
O17	O	1.228008	-0.402253	0.309367
O18	O	1.728008	0.097747	0.809367
O19	O	1.108814	-0.191199	0.399807
O20	O	1.608814	0.308801	0.899807
O21	O	1.018317	-0.311305	0.190063
O22	O	1.518317	0.188695	0.690063
O23	O	0.899040	-0.311265	0.309355
O24	O	1.399040	0.188735	0.809355
O25	O	1.018355	-0.402183	0.519046
O26	O	1.518355	0.097817	1.019046
O27	O	0.899021	-0.402207	0.399726
O28	O	1.399021	0.097793	0.899726
O29	O	1.108790	-0.311224	0.519080
O30	O	1.608790	0.188776	1.019080
O31	O	1.108650	-0.522302	0.309322
O32	O	1.608650	-0.022302	0.809322
O33	O	1.018275	-0.522272	0.399708
O34	O	1.518275	-0.022272	0.899708
C35	C	0.872328	-0.356735	0.354538
C36	C	1.372328	0.143265	0.854538
C37	C	0.790529	-0.356747	0.354546
C38	C	1.290529	0.143253	0.854546
C39	C	0.602345	-0.404175	0.401544
C40	C	1.102345	0.095825	0.901544
C41	C	0.525486	-0.404177	0.401553
C42	C	1.025486	0.095823	0.901553
C43	C	0.525475	-0.309333	0.307591
C44	C	1.025475	0.190667	0.807591
C45	C	0.602333	-0.309328	0.307586
C46	C	1.102333	0.190672	0.807586
C47	C	0.640765	-0.356753	0.354561
C48	C	1.140765	0.143247	0.854561
C49	C	0.487049	-0.356761	0.354575
C50	C	0.987049	0.143239	0.854575
C51	C	0.403716	-0.356763	0.354585
C52	C	0.903716	0.143237	0.854585
C53	C	0.724104	-0.356750	0.354553
C54	C	1.224104	0.143250	0.854553
C55	C	1.063471	-0.549158	0.354524
C56	C	1.563471	-0.049158	0.854524
C57	C	1.063512	-0.631472	0.354533
C58	C	1.563512	-0.131472	0.854533
C59	C	1.063606	-0.930563	0.354600
C60	C	1.563606	-0.430563	0.854600
C61	C	1.120308	-0.899226	0.297579
C62	C	1.620308	-0.399226	0.797579
C63	C	1.120505	-0.813607	0.297727
C64	C	1.620505	-0.313607	0.797727
C65	C	1.063559	-0.782180	0.354566
C66	C	1.563559	-0.282180	0.854566
C67	C	1.084583	-0.813187	0.432138
C68	C	1.584583	-0.313187	0.932138
C69	C	1.085022	-0.898832	0.431828
C70	C	1.585022	-0.398832	0.931828
C71	C	0.985727	-0.899072	0.334720
C72	C	1.485727	-0.399072	0.834720
C73	C	0.986112	-0.813423	0.332988
C74	C	1.486112	-0.313423	0.832988
C75	C	1.063531	-0.698321	0.354552
C76	C	1.563531	-0.198321	0.854552
C77	C	1.063635	-1.014422	0.354620
C78	C	1.563635	-0.514422	0.854620
C79	C	1.255487	-0.356761	0.354581
C80	C	1.755487	0.143239	0.854581
C81	C	1.337286	-0.356766	0.354590
C82	C	1.837286	0.143234	0.854590
C83	C	1.063579	-0.356696	0.546512
C84	C	1.563579	0.143304	1.046512
C85	C	1.063598	-0.356674	0.628311
C86	C	1.563598	0.143326	1.128311
C87	C	1.063617	-0.163585	0.354611
C88	C	1.563617	0.336415	0.854611
C89	C	1.063653	-0.081271	0.354633
C90	C	1.563653	0.418729	0.854633
C91	C	1.063532	-0.356745	0.163353
C92	C	1.563532	0.143255	0.663353
C93	C	1.063655	-0.356558	0.081554
C94	C	1.563655	0.143442	0.581554
C95	C	1.110705	-0.309268	0.816524
C96	C	1.610705	0.190732	1.316524
C97	C	1.110713	-0.309246	0.893383
C98	C	1.610713	0.190754	1.393383
C99	C	1.016544	-0.403967	0.893336
C100	C	1.516544	0.096033	1.393336
C101	C	1.016532	-0.403984	0.816478
C102	C	1.516532	0.096016	1.316478
C103	C	1.063616	-0.356636	0.778075
C104	C	1.563616	0.143364	1.278075
C105	C	1.063637	-0.356597	0.931791
C106	C	1.563637	0.143403	1.431791
C107	C	1.063646	-0.356574	1.015125
C108	C	1.563646	0.143426	1.515125
C109	C	1.063606	-0.356657	0.694736
C110	C	1.563606	0.143343	1.194736
H111	H	0.633616	-0.270707	0.269327
H112	H	1.133616	0.229293	0.769327
H113	H	0.978181	-0.442556	0.785172
H114	H	1.478181	0.057444	1.285172
H115	H	0.494174	-0.270723	0.269344
H116	H	0.994174	0.229277	0.769344
N117	N	1.103999	-0.787318	0.225569
N118	N	1.603999	-0.287318	0.725569
N119	N	1.092256	-0.832224	0.174747
N120	N	1.592256	-0.332224	0.674747
H121	H	1.080601	-0.813661	0.123782
H122	H	1.580601	-0.313661	0.623782
H123	H	0.494207	-0.442792	0.439812
H124	H	0.994207	0.057208	0.939812
N125	N	1.158802	-0.260899	0.777307
N126	N	1.658802	0.239101	1.277307
N127	N	1.200841	-0.218609	0.811650
N128	N	1.700841	0.281391	1.311650
H129	H	1.234810	-0.184446	0.783955
H130	H	1.734810	0.315554	1.283955
N131	N	0.930257	-0.786589	0.381265
N132	N	1.430257	-0.286589	0.881265
N133	N	0.918730	-0.718720	0.386478
N134	N	1.418730	-0.218720	0.886478
H135	H	0.879284	-0.699769	0.420579
H136	H	1.379284	-0.199769	0.920579
H137	H	1.149056	-0.270673	0.924686
H138	H	1.649056	0.229327	1.424686
H139	H	1.107314	-0.919869	0.239888
H140	H	1.607314	-0.419869	0.739888
N141	N	1.192279	-0.926161	0.313894
N142	N	1.692279	-0.426161	0.813894
N143	N	1.201992	-0.968335	0.367334
N144	N	1.701992	-0.468335	0.867334
H145	H	1.252821	-0.987360	0.378859
H146	H	1.752821	-0.487360	0.878859
H147	H	1.178193	-0.793063	0.310881
H148	H	1.678193	-0.293063	0.810881
H149	H	0.978211	-0.442518	0.924614
H150	H	1.478211	0.057482	1.424614
H151	H	1.045531	-0.919559	0.475777
H152	H	1.545531	-0.419559	0.975777
N153	N	0.641604	-0.452622	0.449520
N154	N	1.141604	0.047378	0.949520
N155	N	0.632997	-0.520951	0.444517
N156	N	1.132997	-0.020951	0.944517
H157	H	0.660722	-0.555169	0.478402
H158	H	1.160722	-0.055169	0.978402
N159	N	1.156436	-0.923814	0.452954
N160	N	1.656436	-0.423814	0.952954
N161	N	1.205607	-0.877996	0.467824
N162	N	1.705607	-0.377996	0.967824
H163	H	1.256045	-0.895635	0.482744
H164	H	1.756045	-0.395635	0.982744
H165	H	1.044547	-0.792828	0.475766
H166	H	1.544547	-0.292828	0.975766
N167	N	1.155195	-0.786200	0.453617
N168	N	1.655195	-0.286200	0.953617
N169	N	1.190156	-0.744140	0.411929
N170	N	1.690156	-0.244140	0.911929
H171	H	1.240027	-0.725080	0.427094
H172	H	1.740027	-0.225080	0.927094
N173	N	0.961740	-0.926249	0.264989
N174	N	1.461740	-0.426249	0.764989
N175	N	1.001757	-0.969162	0.229095
N176	N	1.501757	-0.469162	0.729095
H177	H	0.984824	-0.988357	0.179844
H178	H	1.484824	-0.488357	0.679844
H179	H	0.970259	-0.793165	0.275902
H180	H	1.470259	-0.293165	0.775902
H181	H	0.943479	-0.919338	0.376251
H182	H	1.443479	-0.419338	0.876251
