data_functionalizedCrystal
_audit_creation_method	'MofGen! by Chris Wilmer'
_symmetry_space_group_name_H-M	'P1'
_symmetry_Int_Tables_number	1
_symmetry_cell_setting	triclinic
loop_
_symmetry_equiv_pos_as_xyz
  x,y,z
_cell_length_a	10.540510
_cell_length_b	12.837943
_cell_length_c	11.295483
_cell_angle_alpha	85.461227
_cell_angle_beta	85.864564
_cell_angle_gamma	90.328874
loop_
_atom_site_label
_atom_site_type_symbol
_atom_site_fract_x
_atom_site_fract_y
_atom_site_fract_z
O1	O	-0.322576	1.384795	-0.099007
O2	O	-0.306260	1.082870	-0.099014
O3	O	-0.130469	1.240736	-0.099001
O4	O	-0.498368	1.226929	-0.099020
O5	O	-0.145882	1.226870	0.099049
O6	O	-0.321674	1.069005	0.099036
O7	O	-0.337990	1.370929	0.099043
Cu8	Cu	-0.331239	1.218701	0.117123
Cu9	Cu	-0.313011	1.235099	-0.117094
O10	O	-0.513782	1.213063	0.099029
C11	C	-0.308455	1.037277	0.000010
C12	C	-0.292017	0.922079	0.000008
C13	C	-0.489637	0.682566	0.000014
C14	C	-0.474197	0.574328	0.000013
C15	C	-0.245700	0.597361	0.000013
C16	C	-0.261140	0.705599	0.000014
C17	C	-0.383112	0.748198	0.000013
C18	C	-0.398549	0.856440	0.000006
C19	C	-0.170054	0.879470	0.000014
C20	C	-0.154615	0.771231	0.000012
C21	C	-0.553491	1.221025	0.000002
C22	C	-0.694779	1.224104	-0.000005
C23	C	-0.900221	1.114402	0.000462
C24	C	-0.753229	1.111151	-0.000003
C25	C	-0.737106	1.289844	-0.113093
C26	C	-0.884134	1.292333	-0.113169
C27	C	-0.901695	1.278916	0.112050
C28	C	-0.754879	1.273455	0.113527
C29	C	-0.090759	1.232774	0.000024
C30	C	0.050529	1.229696	0.000024
C31	C	-0.335795	1.416523	0.000016
C32	C	-0.352233	1.531721	0.000010
N33	N	-0.344061	1.207175	0.281858
N34	N	-0.300181	1.246633	-0.281829
C35	C	-0.207816	1.329602	0.531158
C36	C	-0.217515	1.320900	0.655821
C37	C	-0.373150	1.181062	0.655849
C38	C	-0.363451	1.189765	0.531186
C39	C	-0.280783	1.264038	0.468845
C40	C	-0.271091	1.272746	0.344180
C41	C	-0.426719	1.132904	0.344210
C42	C	-0.436418	1.124201	0.468873
H43	H	-0.588951	0.717251	0.000012
N44	N	-0.030040	0.727695	0.000022
N45	N	-0.016268	0.631053	0.000026
H46	H	0.071715	0.600305	0.000030
H47	H	-0.486137	1.079520	0.293461
N48	N	-0.121123	0.553831	0.000041
N49	N	-0.093522	0.490161	0.083532
H50	H	-0.005538	0.459415	0.083554
H51	H	-0.497865	0.891121	0.000007
H52	H	-0.083313	0.932920	0.000004
N53	N	-0.958359	1.226615	0.219601
N54	N	-1.025027	1.276467	0.291193
H55	H	-1.065047	1.239519	0.367146
N56	N	-0.718092	1.047289	0.101705
N57	N	-0.802214	1.004813	0.173528
H58	H	-0.777406	0.959709	0.245365
N59	N	-0.954694	1.052081	0.102216
N60	N	-1.030454	1.091905	0.175600
H61	H	-1.068933	1.047891	0.247469
N62	N	-0.940924	1.066604	-0.100703
N63	N	-1.006045	1.117082	-0.173122
H64	H	-1.034798	1.083326	-0.244571
H65	H	-0.440447	1.120583	0.706624
H66	H	-0.913442	1.258735	-0.197706
H67	H	-0.503721	1.063726	0.519646
N68	N	-0.142965	1.387874	0.719454
N69	N	-0.069159	1.454178	0.663772
H70	H	-0.016502	1.501481	0.708712
N71	N	-0.583024	0.507300	0.000024
N72	N	-0.691914	0.545353	0.000029
H73	H	-0.768780	0.498015	0.000040
H74	H	-0.713516	1.071337	-0.081219
N75	N	-0.924116	1.398766	-0.119598
N76	N	-0.843438	1.470973	-0.124023
H77	H	-0.871668	1.546141	-0.128567
N78	N	-0.941248	1.385233	0.113049
N79	N	-0.912717	1.438672	0.195273
H80	H	-0.940656	1.513756	0.195973
H81	H	-0.698525	1.373292	-0.117300
N82	N	-0.684653	1.246859	-0.218675
N83	N	-0.616090	1.167843	-0.210928
H84	H	-0.579044	1.137479	-0.285493
H85	H	-0.203782	1.333225	0.293422
N86	N	-0.721331	1.213323	0.218473
N87	N	-0.653414	1.134408	0.209779
H88	H	-0.629711	1.091937	0.283896
H89	H	-0.715398	1.355440	0.120359
H90	H	-0.140514	1.390086	0.480399
