data_functionalizedCrystal
_audit_creation_method	'MofGen! by Chris Wilmer'
_symmetry_space_group_name_H-M	'P1'
_symmetry_Int_Tables_number	1
_symmetry_cell_setting	triclinic
loop_
_symmetry_equiv_pos_as_xyz
  x,y,z
_cell_length_a	19.902436
_cell_length_b	14.446369
_cell_length_c	14.446369
_cell_angle_alpha	60.000250
_cell_angle_beta	90.002769
_cell_angle_gamma	59.998044
loop_
_atom_site_label
_atom_site_type_symbol
_atom_site_fract_x
_atom_site_fract_y
_atom_site_fract_z
Zr1	Zr	0.647327	1.013130	-0.121447
O2	O	0.540036	1.206258	-0.269270
O3	O	0.680217	0.820008	-0.076126
O4	O	0.680218	1.013117	-0.269245
O5	O	0.540035	1.013158	0.076178
O6	O	0.790797	1.013099	-0.269233
O7	O	0.540035	1.013150	-0.076150
O8	O	0.790794	0.667663	0.076222
O9	O	0.540037	1.358594	-0.269277
O10	O	0.776768	0.899426	-0.056795
O11	O	0.694245	0.899446	0.056877
O12	O	0.694246	1.126806	-0.170496
O13	O	0.611723	1.126826	-0.056824
Zr14	Zr	0.823687	1.013115	0.121519
Zr15	Zr	0.823688	1.013101	-0.121428
Zr16	Zr	0.647327	1.013143	0.121499
Zr17	Zr	0.647329	1.256088	-0.121459
Zr18	Zr	0.823686	0.770157	0.121530
O19	O	0.790798	1.206237	0.076198
O20	O	0.790798	1.206218	-0.269242
O21	O	0.540036	1.206277	0.076169
O22	O	0.930978	0.819986	0.269341
O23	O	0.930979	0.819967	-0.076098
O24	O	0.680216	0.820027	0.269313
O25	O	0.930980	1.013086	-0.076107
O26	O	0.790796	1.013128	0.269317
O27	O	0.680218	1.013146	0.269304
O28	O	0.930980	1.013095	0.076222
O29	O	0.680220	1.358571	-0.269261
O30	O	0.790794	0.667673	0.269333
O31	O	0.930977	0.667650	0.269348
O32	O	0.930977	0.667640	0.076238
O33	O	0.540037	1.358605	-0.076166
O34	O	0.680220	1.358582	-0.076151
O35	O	0.776768	0.899439	0.170568
O36	O	0.859292	0.899419	0.056896
O37	O	0.776770	1.126799	-0.056805
O38	O	0.694246	1.126819	0.056867
C39	C	0.735505	0.709219	0.000050
C40	C	0.735505	0.606077	0.000054
C41	C	0.514907	1.013158	0.000011
C42	C	0.440038	1.013170	0.000003
C43	C	0.683706	0.459080	0.072076
C44	C	0.683425	0.566700	0.071785
C45	C	0.697536	0.655072	-0.123485
C46	C	0.697147	0.547840	-0.123111
C47	C	0.825308	0.372607	0.050509
C48	C	0.825176	0.478758	0.053030
C49	C	0.168036	1.013106	0.000047
C50	C	0.144470	1.156542	-0.071334
C51	C	0.222308	1.156632	-0.071731
C52	C	0.302979	1.013139	0.000025
C53	C	0.300567	0.941901	-0.052267
C54	C	0.222340	0.942818	-0.052795
C55	C	0.223327	0.939881	0.123752
C56	C	0.300248	0.942577	0.123562
C57	C	0.379246	1.013150	0.000013
C58	C	0.091771	1.013091	0.000054
C59	C	0.956107	1.013086	0.000061
C60	C	1.030977	1.013074	0.000069
C61	C	0.735508	1.013106	-0.303854
C62	C	0.735508	1.013100	-0.406991
C63	C	0.735509	1.317026	0.000022
C64	C	0.735510	1.420168	0.000017
C65	C	0.787814	0.869706	-0.481961
C66	C	0.787587	0.869610	-0.374632
C67	C	0.645840	1.084342	-0.481564
C68	C	0.646127	1.083432	-0.588423
C69	C	0.772145	1.086365	-0.589982
C70	C	0.773960	1.083662	-0.481310
C71	C	0.735507	1.013139	0.303925
C72	C	0.735507	1.013145	0.407062
C73	C	0.956105	0.709183	0.000074
C74	C	1.030974	0.606029	0.000088
C75	C	0.735505	0.709236	0.303939
C76	C	0.735504	0.606099	0.407081
C77	C	0.956105	0.709200	0.303964
C78	C	1.030974	0.606051	0.407114
C79	C	0.514910	1.317045	-0.303892
C80	C	0.440041	1.420193	-0.407043
C81	C	0.514909	1.317061	-0.000003
C82	C	0.440040	1.420216	-0.000016
C83	C	0.735510	1.317009	-0.303868
C84	C	0.735510	1.420145	-0.407010
C85	C	1.023057	0.557590	-0.059262
C86	C	1.093398	0.460680	-0.059272
C87	C	1.171655	0.412202	0.000074
C88	C	1.179570	0.460651	0.059425
C89	C	1.109230	0.557566	0.059428
C90	C	1.109217	0.557601	0.396219
C91	C	1.179571	0.460696	0.493131
C92	C	1.171680	0.412236	0.600936
C93	C	1.093429	0.460695	0.611829
C94	C	1.023076	0.557605	0.514919
C95	C	0.361798	1.468655	-0.396148
C96	C	0.291444	1.565591	-0.493059
C97	C	0.299335	1.614056	-0.600864
C98	C	0.377586	1.565590	-0.611757
C99	C	0.447938	1.468663	-0.514847
C100	C	0.447958	1.468664	0.059323
C101	C	0.377617	1.565602	0.059307
C102	C	0.299360	1.614083	-0.000043
C103	C	0.291444	1.565630	-0.059389
C104	C	0.361784	1.468701	-0.059379
C105	C	0.683204	0.459793	0.482065
C106	C	0.683426	0.566714	0.374731
C107	C	0.825174	0.479232	0.481651
C108	C	0.824892	0.371857	0.588514
C109	C	0.698875	0.546850	0.590078
C110	C	0.697055	0.655320	0.481402
H111	H	0.708893	0.529990	0.162754
H112	H	0.384078	1.605036	0.107638
O113	O	1.084922	0.408405	0.728107
H114	H	1.146992	0.332863	0.793655
O115	O	0.591696	1.222821	-0.692536
H116	H	0.528067	1.269006	-0.689784
O117	O	0.353233	1.416449	-0.123381
H118	H	0.415286	1.340908	-0.113418
O119	O	0.754471	0.795498	-0.480580
H120	H	0.689535	0.845830	-0.483320
O121	O	0.938685	0.609833	0.526675
H122	H	0.945026	0.559831	0.617923
H123	H	0.736793	0.522057	0.668298
O124	O	0.938659	0.609872	-0.123291
H125	H	0.891067	0.685401	-0.113325
H126	H	0.617005	0.497043	0.479721
H127	H	1.086937	0.421245	-0.107603
H128	H	0.734214	1.192042	-0.668190
H129	H	0.511672	1.429199	0.107660
O130	O	0.879335	0.332147	0.692613
H131	H	0.842331	0.351450	0.746276
O132	O	0.223445	1.718606	-0.705378
H133	H	0.223473	1.681432	-0.756564
H134	H	1.115658	0.597044	0.308447
O135	O	0.880609	0.507233	-0.009260
H136	H	0.932502	0.480797	0.050417
O137	O	0.875504	0.795103	-0.478843
H138	H	0.882746	0.859452	-0.556358
H139	H	0.837177	1.040455	-0.594089
H140	H	0.242091	1.693009	-0.000042
O141	O	1.117776	0.609783	0.123468
H142	H	1.151945	0.653913	0.089192
O143	O	0.247961	0.803424	0.011609
H144	H	0.221598	0.790936	-0.045501
O145	O	1.263962	0.408485	0.481359
H146	H	1.311563	0.332983	0.566852
H147	H	0.227718	1.605118	-0.107710
H148	H	0.617396	0.656073	0.320452
O149	O	0.716561	0.341034	0.480670
H150	H	0.770235	0.253927	0.558671
H151	H	0.708841	0.529241	0.320950
O152	O	0.532320	1.416433	-0.526636
H153	H	0.566430	1.435046	-0.485342
H154	H	0.864087	0.346623	-0.001725
O155	O	0.299750	1.011376	0.175313
H156	H	0.297811	0.960923	0.262605
H157	H	0.854223	0.281099	0.588247
H158	H	0.733456	0.683849	-0.179496
O159	O	1.247563	0.307696	0.705459
H160	H	1.303293	0.282142	0.679760
H161	H	0.633842	0.586433	0.594186
O162	O	0.207049	1.617847	-0.481299
H163	H	0.172933	1.599271	-0.522630
O164	O	0.879053	0.508680	0.517713
H165	H	0.842404	0.614306	0.482783
H166	H	0.355357	1.429200	-0.308376
H167	H	0.854710	0.440667	0.430049
H168	H	0.105303	1.212844	-0.036439
H169	H	0.104559	1.212559	-0.162038
H170	H	0.185797	0.993435	-0.143825
O171	O	0.302599	1.007437	-0.171711
H172	H	0.357720	0.935661	-0.177339
H173	H	0.630995	0.745823	0.429970
H174	H	1.228923	0.333286	0.000063
O175	O	0.742266	0.697893	0.515198
H176	H	0.713561	0.732043	0.567512
O177	O	0.717246	0.341370	0.192876
H178	H	0.771194	0.253869	0.202851
H179	H	0.221030	1.212808	-0.036928
O180	O	0.386093	1.617859	-0.728036
H181	H	0.324023	1.693386	-0.793583
O182	O	1.263977	0.408358	0.123438
H183	H	1.298075	0.301452	0.189029
H184	H	0.853616	0.813715	-0.320349
H185	H	0.617859	0.494851	0.037363
H186	H	0.617187	0.655509	0.036780
H187	H	0.220533	1.212854	-0.162982
O188	O	0.376353	0.803900	0.199938
H189	H	0.431599	0.805093	0.203634
O190	O	0.609622	0.601744	-0.176649
H191	H	0.571510	0.629842	-0.127221
O192	O	0.743884	0.518732	-0.198104
H193	H	0.766658	0.581245	-0.234484
O194	O	0.591974	1.224064	-0.517570
H195	H	0.618013	1.277567	-0.567767
O196	O	0.610679	0.776931	-0.177174
H197	H	0.594417	0.802865	-0.116129
H198	H	0.187015	0.985784	0.167435
O199	O	0.867322	0.248470	0.169180
H200	H	0.831749	0.266886	0.224387
H201	H	0.357380	0.836395	-0.002777
O202	O	0.862725	0.426279	0.173603
H203	H	0.864874	0.501210	0.174370
O204	O	0.249716	0.799917	0.194544
H205	H	0.223602	0.782526	0.141949
H206	H	0.762177	0.813365	-0.320846
H207	H	0.616795	1.032818	-0.588154
O208	O	0.861467	1.014853	-0.413192
H209	H	0.861994	1.017075	-0.337509
O210	O	0.606714	1.018806	-0.413225
H211	H	0.604341	1.023313	-0.338719
O212	O	0.728734	1.222340	-0.515154
H213	H	0.677914	1.243233	-0.479378
