data_functionalizedCrystal
_audit_creation_method	'MofGen! by Chris Wilmer'
_symmetry_space_group_name_H-M	'P1'
_symmetry_Int_Tables_number	1
_symmetry_cell_setting	triclinic
loop_
_symmetry_equiv_pos_as_xyz
  x,y,z
_cell_length_a	18.215407
_cell_length_b	18.215405
_cell_length_c	18.215399
_cell_angle_alpha	90.030551
_cell_angle_beta	90.019833
_cell_angle_gamma	90.025333
loop_
_atom_site_label
_atom_site_type_symbol
_atom_site_fract_x
_atom_site_fract_y
_atom_site_fract_z
Zn1	Zn	-1.125072	0.292983	-0.416103
Zn2	Zn	-1.124980	0.416054	-0.293031
Zn3	Zn	-1.002005	0.293007	-0.293050
Zn4	Zn	-1.001970	0.416013	-0.416056
O5	O	-1.063507	0.354514	-0.354560
O6	O	-1.228044	0.309316	-0.399788
O7	O	-1.108643	0.399759	-0.190049
O8	O	-1.018382	0.190020	-0.309401
O9	O	-1.227977	0.399736	-0.309368
O10	O	-1.108799	0.190002	-0.399807
O11	O	-1.018293	0.309357	-0.190063
O12	O	-0.899016	0.309317	-0.309355
O13	O	-1.018324	0.399666	-0.519046
O14	O	-0.898991	0.399689	-0.399727
O15	O	-1.108766	0.309276	-0.519081
O16	O	-1.108610	0.519033	-0.309322
O17	O	-1.018235	0.519003	-0.399708
C18	C	-0.872301	0.354502	-0.354539
C19	C	-0.790502	0.354514	-0.354547
C20	C	-1.063429	0.545721	-0.354524
C21	C	-1.063463	0.627520	-0.354534
C22	C	-1.063552	0.354464	-0.546513
C23	C	-1.063571	0.354442	-0.628312
C24	C	-1.255460	0.354528	-0.354581
C25	C	-1.337259	0.354533	-0.354591
C26	C	-0.602314	0.401645	-0.401544
C27	C	-0.525455	0.401647	-0.401554
C28	C	-0.525452	0.307397	-0.307591
C29	C	-0.602309	0.307392	-0.307586
C30	C	-0.640738	0.354520	-0.354562
C31	C	-0.487022	0.354528	-0.354576
C32	C	-0.403688	0.354530	-0.354585
C33	C	-0.724077	0.354517	-0.354553
C34	C	-1.063605	0.162561	-0.354611
C35	C	-1.063647	0.080763	-0.354633
C36	C	-1.110632	0.815705	-0.307556
C37	C	-1.110665	0.892563	-0.307574
C38	C	-1.016476	0.892572	-0.401616
C39	C	-1.016447	0.815715	-0.401601
C40	C	-1.063524	0.777283	-0.354567
C41	C	-1.063586	0.930999	-0.354600
C42	C	-1.063621	1.014333	-0.354619
C43	C	-1.063490	0.693944	-0.354548
C44	C	-1.110681	0.307332	-0.816525
C45	C	-1.110690	0.307311	-0.893384
C46	C	-1.016513	0.401438	-0.893336
C47	C	-1.016501	0.401455	-0.816479
C48	C	-1.063589	0.354403	-0.778075
C49	C	-1.063610	0.354365	-0.931791
C50	C	-1.063619	0.354342	-1.015125
C51	C	-1.063579	0.354425	-0.694736
C52	C	-1.063504	0.354512	-0.163353
C53	C	-1.063628	0.354326	-0.081555
H54	H	-0.633601	0.440018	-0.439797
C55	C	-1.162469	0.255574	-0.774279
H56	H	-1.155724	0.262329	-0.722999
H57	H	-1.151724	0.206124	-0.786889
H58	H	-1.211915	0.266347	-0.786883
C59	C	-1.162474	0.934828	-0.255855
H60	H	-1.155754	0.986106	-0.262602
H61	H	-1.151722	0.922274	-0.206398
H62	H	-1.211914	0.922184	-0.266668
C63	C	-0.483177	0.255569	-0.255914
H64	H	-0.431900	0.262327	-0.262639
H65	H	-0.495793	0.206133	-0.266767
H66	H	-0.495752	0.266285	-0.206446
C67	C	-0.964688	0.934849	-0.453341
H68	H	-0.971445	0.986126	-0.446612
H69	H	-0.975419	0.922211	-0.502797
H70	H	-0.915242	0.922299	-0.442513
C71	C	-0.964625	0.773448	-0.453315
H72	H	-0.936585	0.807343	-0.481321
H73	H	-0.992747	0.743419	-0.485400
H74	H	-0.932564	0.743513	-0.425121
C75	C	-1.162421	0.773432	-0.255829
H76	H	-1.190486	0.807325	-0.227839
H77	H	-1.134282	0.743495	-0.223729
H78	H	-1.194459	0.743406	-0.284012
H79	H	-1.149035	0.268979	-0.924686
C80	C	-0.964726	0.453198	-0.935583
H81	H	-0.971483	0.446452	-0.986863
H82	H	-0.915282	0.442431	-0.922983
H83	H	-0.975478	0.502649	-0.922972
H84	H	-0.494174	0.440020	-0.439813
H85	H	-0.633595	0.269012	-0.269327
C86	C	-0.964702	0.453241	-0.774182
H87	H	-0.936668	0.481270	-0.808060
H88	H	-0.932645	0.425098	-0.744200
H89	H	-0.992843	0.485315	-0.744198
