data_functionalizedCrystal
_audit_creation_method	'MofGen! by Chris Wilmer'
_symmetry_space_group_name_H-M	'P1'
_symmetry_Int_Tables_number	1
_symmetry_cell_setting	triclinic
loop_
_symmetry_equiv_pos_as_xyz
  x,y,z
_cell_length_a	10.540539
_cell_length_b	13.330367
_cell_length_c	14.853567
_cell_angle_alpha	89.999156
_cell_angle_beta	84.080211
_cell_angle_gamma	89.994506
loop_
_atom_site_label
_atom_site_type_symbol
_atom_site_fract_x
_atom_site_fract_y
_atom_site_fract_z
O1	O	1.684495	-0.083367	0.127051
O2	O	1.314950	-0.083378	0.139022
O3	O	1.509594	-0.083375	0.001861
O4	O	1.489852	-0.083370	0.264211
O5	O	1.509566	0.083472	0.001858
O6	O	1.314922	0.083469	0.139019
O7	O	1.684467	0.083480	0.127048
Cu8	Cu	1.499692	0.098709	0.133033
Cu9	Cu	1.499725	-0.098607	0.133037
O10	O	1.489823	0.083477	0.264208
C11	C	1.267643	0.000044	0.138122
C12	C	1.126725	0.000039	0.135437
N13	N	1.499678	0.237490	0.133030
N14	N	1.499750	-0.237389	0.133033
C15	C	0.944430	0.000426	0.032519
C16	C	1.091018	0.000040	0.035242
C17	C	1.064538	-0.095234	0.183656
C18	C	0.918031	-0.095304	0.180237
C19	C	0.917488	0.094433	0.182271
C20	C	1.064460	0.095681	0.183194
C21	C	1.731774	0.000056	0.127947
C22	C	1.872693	0.000054	0.130633
C23	C	1.508685	0.000045	-0.031734
C24	C	1.506005	0.000036	-0.131832
C25	C	1.413534	0.710112	0.193747
C26	C	1.585951	0.710083	0.072319
C27	C	1.585937	0.605064	0.072316
C28	C	1.499721	0.552565	0.133031
C29	C	1.413519	0.605084	0.193748
C30	C	1.672146	0.552537	0.011607
C31	C	1.672136	0.447513	0.011602
C32	C	1.585913	0.395011	0.072313
C33	C	1.499707	0.447537	0.133032
C34	C	1.413490	0.395037	0.193746
C35	C	1.327277	0.447561	0.254461
C36	C	1.327296	0.552583	0.254459
C37	C	1.585894	0.289990	0.072315
C38	C	1.413476	0.290009	0.193747
C39	C	1.379051	0.000052	-0.545071
C40	C	1.610292	0.000059	-0.565069
C41	C	1.612812	0.000053	-0.471021
C42	C	1.498450	0.000048	-0.413994
C43	C	1.381568	0.000049	-0.451014
C44	C	1.729693	0.000062	-0.433993
C45	C	1.732218	0.000057	-0.339940
C46	C	1.617854	0.000045	-0.282911
C47	C	1.500967	0.000045	-0.319937
C48	C	1.386605	0.000040	-0.262910
C49	C	1.269717	0.000033	-0.299934
C50	C	1.267204	0.000037	-0.393985
C51	C	1.620367	0.000041	-0.188860
C52	C	1.389122	0.000037	-0.168853
C53	C	1.490732	0.000054	0.297803
C54	C	1.493413	0.000057	0.397902
H55	H	1.134038	0.068336	-0.002699
H56	H	1.257105	0.595354	0.303892
H57	H	1.172040	0.000032	-0.424139
F58	F	0.907615	0.089734	-0.019220
H59	H	0.890225	-0.166523	0.144601
F60	F	0.854720	0.095277	0.276864
F61	F	1.851395	0.000086	-0.494689
F62	F	1.763907	0.608410	-0.053002
F63	F	1.148009	0.000035	-0.239231
H64	H	1.343263	0.247271	0.243185
F65	F	1.235529	0.391676	0.319081
F66	F	1.763887	0.391621	-0.053017
F67	F	1.118365	0.187807	0.137078
F68	F	1.677650	0.234097	0.007707
F69	F	1.267399	0.000025	-0.108167
F70	F	0.905523	-0.088379	-0.019003
H71	H	0.886286	0.166649	0.149845
F72	F	1.321778	0.766009	0.258359
F73	F	1.095065	0.103202	0.278677
F74	F	1.146116	-0.089525	-0.014494
H75	H	1.656152	0.752831	0.022892
H76	H	1.107507	-0.166140	0.150163
F77	F	1.254656	0.000035	-0.584474
H78	H	1.703400	0.000071	-0.611505
H79	H	1.827395	0.000062	-0.309804
F80	F	0.854293	-0.100955	0.274420
H81	H	1.086082	-0.098778	0.257237
F82	F	1.744758	0.000065	-0.149459
