data_functionalizedCrystal
_audit_creation_method	'MofGen! by Chris Wilmer'
_symmetry_space_group_name_H-M	'P1'
_symmetry_Int_Tables_number	1
_symmetry_cell_setting	triclinic
loop_
_symmetry_equiv_pos_as_xyz
  x,y,z
_cell_length_a	12.837943
_cell_length_b	15.995350
_cell_length_c	11.295483
_cell_angle_alpha	94.097343
_cell_angle_beta	85.461227
_cell_angle_gamma	89.160657
loop_
_atom_site_label
_atom_site_type_symbol
_atom_site_fract_x
_atom_site_fract_y
_atom_site_fract_z
O1	O	1.382434	0.212589	-0.098992
O2	O	1.882434	0.712589	0.401008
O3	O	1.080629	0.201836	-0.099000
O4	O	1.580629	0.701836	0.401000
O5	O	1.239781	0.085983	-0.098995
O6	O	1.739781	0.585983	0.401005
O7	O	1.223282	0.328442	-0.098997
O8	O	1.723282	0.828442	0.401003
O9	O	1.225803	0.096142	0.099056
O10	O	1.725803	0.596142	0.599056
O11	O	1.066650	0.211995	0.099051
O12	O	1.566650	0.711995	0.599051
O13	O	1.368455	0.222747	0.099058
O14	O	1.868455	0.722747	0.599058
Cu15	Cu	1.216276	0.218299	0.117138
Cu16	Cu	1.716276	0.718299	0.617138
Cu17	Cu	1.232808	0.206285	-0.117080
Cu18	Cu	1.732808	0.706285	0.382920
O19	O	1.209303	0.338600	0.099053
O20	O	1.709303	0.838600	0.599053
C21	C	1.035019	0.203283	0.000024
C22	C	1.535019	0.703283	0.500024
C23	C	0.919942	0.192449	0.000021
C24	C	1.419942	0.692449	0.500021
C25	C	0.678983	0.322688	0.000037
C26	C	1.178983	0.822688	0.500037
C27	C	0.570857	0.312513	0.000035
C28	C	1.070857	0.812513	0.500035
C29	C	0.595562	0.161925	0.000024
C30	C	1.095562	0.661925	0.500024
C31	C	0.703688	0.172100	0.000026
C32	C	1.203688	0.672100	0.500026
C33	C	0.745394	0.252484	0.000031
C34	C	1.245394	0.752484	0.500031
C35	C	0.853523	0.262658	0.000024
C36	C	1.353523	0.762658	0.500024
C37	C	0.878225	0.112072	0.000021
C38	C	1.378225	0.612072	0.500021
C39	C	0.770100	0.101896	0.000019
C40	C	1.270100	0.601896	0.500019
C41	C	1.232110	0.059813	0.000028
C42	C	1.732110	0.559813	0.500028
C43	C	1.230066	-0.033301	0.000021
C44	C	1.730066	0.466699	0.500021
C45	C	1.222721	-0.371634	0.000025
C46	C	1.722721	0.128366	0.500025
C47	C	1.109407	-0.333266	-0.000422
C48	C	1.609407	0.166734	0.499578
C49	C	1.111421	-0.236390	0.000025
C50	C	1.611421	0.263610	0.500025
C51	C	1.226364	-0.203783	0.000023
C52	C	1.726364	0.296217	0.500023
C53	C	1.274288	-0.234599	0.113118
C54	C	1.774288	0.265401	0.613118
C55	C	1.271434	-0.331457	0.113213
C56	C	1.771434	0.168543	0.613213
C57	C	1.289672	-0.343180	-0.112007
C58	C	1.789672	0.156820	0.387993
C59	C	1.289750	-0.246314	-0.113502
C60	C	1.789750	0.253686	0.386498
C61	C	1.228429	-0.108920	0.000025
C62	C	1.728429	0.391080	0.500025
C63	C	1.220659	-0.466496	0.000031
C64	C	1.720659	0.033504	0.500031
C65	C	1.414065	0.221301	0.000031
C66	C	1.914065	0.721301	0.500031
C67	C	1.529143	0.232134	0.000027
C68	C	2.029143	0.732134	0.500027
C69	C	1.216974	0.364770	0.000027
C70	C	1.716974	0.864770	0.500027
C71	C	1.219019	0.457884	0.000026
C72	C	1.719019	0.957884	0.500026
N73	N	1.204657	0.226748	0.281874
N74	N	1.704657	0.726748	0.781874
N75	N	1.244436	0.197830	-0.281816
N76	N	1.744436	0.697830	0.218184
C77	C	1.328081	0.136958	0.531167
C78	C	1.828081	0.636958	1.031167
C79	C	1.319308	0.143350	0.655831
C80	C	1.819308	0.643350	1.155831
C81	C	1.178331	0.245919	0.655866
C82	C	1.678331	0.745919	1.155866
C83	C	1.187105	0.239527	0.531203
C84	C	1.687105	0.739527	1.031203
C85	C	1.261983	0.185046	0.468858
C86	C	1.761983	0.685046	0.968858
C87	C	1.270762	0.178659	0.344192
C88	C	1.770762	0.678659	0.844192
C89	C	1.129781	0.281223	0.344230
C90	C	1.629781	0.781223	0.844230
C91	C	1.121007	0.287615	0.468893
C92	C	1.621007	0.787615	0.968893
H93	H	0.932310	0.054906	0.000008
H94	H	1.432310	0.554906	0.500008
Cl95	Cl	0.487371	0.400773	0.000046
Cl96	Cl	0.987371	0.900773	0.500046
H97	H	1.331734	0.134300	0.293432
H98	H	1.831734	0.634300	0.793432
H99	H	1.389057	0.092603	0.480405
H100	H	1.889057	0.592603	0.980405
Cl101	Cl	1.030815	-0.363078	0.123726
Cl102	Cl	1.530815	0.136922	0.623726
H103	H	1.117360	0.290270	0.706644
H104	H	1.617360	0.790270	1.206644
H105	H	0.736126	0.036451	0.000029
H106	H	1.236126	0.536451	0.500029
H107	H	1.060039	0.331970	0.519669
H108	H	1.560039	0.831970	1.019669
H109	H	1.229518	-0.204999	0.197282
H110	H	1.729518	0.295001	0.697282
Cl111	Cl	1.402404	0.082892	0.734159
Cl112	Cl	1.902404	0.582892	1.234159
H113	H	0.712940	0.388139	0.000039
H114	H	1.212940	0.888139	0.500039
H115	H	1.075962	0.320382	0.293483
H116	H	1.575962	0.820382	0.793483
H117	H	0.561579	0.096485	0.000118
H118	H	1.061579	0.596485	0.500118
Cl119	Cl	1.052404	-0.204338	-0.125142
Cl120	Cl	1.552404	0.295662	0.374858
H121	H	1.069828	-0.359572	-0.081525
H122	H	1.569828	0.140428	0.418475
H123	H	1.258664	-0.371073	-0.197727
H124	H	1.758664	0.128927	0.302273
Cl125	Cl	1.034263	-0.192382	0.125401
Cl126	Cl	1.534263	0.307618	0.625401
Cl127	Cl	1.199275	-0.358044	0.243735
Cl128	Cl	1.699275	0.141956	0.743735
Cl129	Cl	1.399349	-0.370592	0.121151
Cl130	Cl	1.899349	0.129408	0.621151
Cl131	Cl	1.404208	-0.202056	0.119617
Cl132	Cl	1.904208	0.297944	0.619617
Cl133	Cl	1.236280	-0.215375	-0.242696
Cl134	Cl	1.736280	0.284625	0.257304
Cl135	Cl	1.419910	-0.212809	-0.124056
Cl136	Cl	1.919910	0.287191	0.375944
Cl137	Cl	0.905952	0.363710	0.000027
Cl138	Cl	1.405952	0.863710	0.500027
H139	H	1.373295	-0.368312	-0.112769
H140	H	1.873295	0.131688	0.387231
