data_functionalizedCrystal
_audit_creation_method	'MofGen! by Chris Wilmer'
_symmetry_space_group_name_H-M	'P1'
_symmetry_Int_Tables_number	1
_symmetry_cell_setting	triclinic
loop_
_symmetry_equiv_pos_as_xyz
  x,y,z
_cell_length_a	17.038272
_cell_length_b	9.065218
_cell_length_c	8.140239
_cell_angle_alpha	89.998670
_cell_angle_beta	89.995864
_cell_angle_gamma	91.936279
loop_
_atom_site_label
_atom_site_type_symbol
_atom_site_fract_x
_atom_site_fract_y
_atom_site_fract_z
O1	O	1.039679	-0.320647	0.136397
O2	O	0.812011	-0.315556	0.136445
O3	O	0.930551	-0.103931	0.136417
O4	O	0.921139	-0.532272	0.136425
O5	O	0.930547	-0.103929	-0.136810
O6	O	0.812007	-0.315554	-0.136782
O7	O	1.039675	-0.320645	-0.136830
Zn8	Zn	0.925841	-0.318099	-0.180187
Zn9	Zn	0.925846	-0.318102	0.179802
O10	O	0.921135	-0.532270	-0.136802
C11	C	0.782848	-0.310924	-0.000162
C12	C	0.695955	-0.297108	-0.000143
C13	C	0.646757	-0.423956	-0.000142
C14	C	0.565112	-0.410965	-0.000165
C15	C	0.532668	-0.271125	-0.000177
C16	C	0.581873	-0.144268	-0.000184
C17	C	0.663515	-0.157260	-0.000172
C18	C	0.286579	-0.225228	-0.000222
C19	C	0.204929	-0.212245	-0.000229
C20	C	0.188175	-0.478944	-0.000213
C21	C	0.269820	-0.491923	-0.000192
C22	C	0.319017	-0.365066	-0.000207
C23	C	0.449214	-0.257844	-0.000196
C24	C	0.402469	-0.378349	-0.000200
C25	C	1.068838	-0.325277	-0.000219
C26	C	1.155731	-0.339093	-0.000227
C27	C	0.929644	-0.048853	-0.000194
C28	C	0.926940	0.115262	-0.000186
N29	N	0.925843	-0.318097	-0.425869
C30	C	0.922042	-0.587348	-0.000187
C31	C	0.924746	-0.751462	-0.000185
N32	N	0.925849	-0.318093	0.425484
H33	H	0.555450	-0.030407	-0.000217
H34	H	0.422789	-0.143985	-0.000252
F35	F	0.338928	-0.090213	-0.000238
H36	H	0.673166	-0.537828	-0.000131
H37	H	0.148110	-0.582223	-0.000204
H38	H	0.703572	-0.053966	-0.000173
F39	F	0.512755	-0.545975	-0.000156
F40	F	0.304343	-0.640760	-0.000170
H41	H	0.178517	-0.098365	-0.000237
H42	H	0.428889	-0.492206	-0.000199
