data_functionalizedCrystal
_audit_creation_method	'MofGen! by Chris Wilmer'
_symmetry_space_group_name_H-M	'P1'
_symmetry_Int_Tables_number	1
_symmetry_cell_setting	triclinic
loop_
_symmetry_equiv_pos_as_xyz
  x,y,z
_cell_length_a	12.759401
_cell_length_b	12.759393
_cell_length_c	12.759395
_cell_angle_alpha	89.994043
_cell_angle_beta	90.004051
_cell_angle_gamma	89.986059
loop_
_atom_site_label
_atom_site_type_symbol
_atom_site_fract_x
_atom_site_fract_y
_atom_site_fract_z
Zn1	Zn	1.606092	0.418464	0.594036
Zn2	Zn	1.606034	0.594113	0.418366
Zn3	Zn	1.430442	0.418446	0.418372
Zn4	Zn	1.430383	0.594099	0.594003
O5	O	1.518238	0.506281	0.506194
O6	O	1.753106	0.441778	0.570744
O7	O	1.582742	0.570810	0.271345
O8	O	1.453792	0.271428	0.441691
O9	O	1.753063	0.570827	0.441680
O10	O	1.582841	0.271440	0.570750
O11	O	1.453736	0.441748	0.271350
O12	O	1.283413	0.441733	0.441659
O13	O	1.453690	0.570802	0.741029
O14	O	1.283369	0.570785	0.570694
O15	O	1.582783	0.441763	0.741053
O16	O	1.582684	0.741133	0.441648
O17	O	1.453634	0.741122	0.570688
C18	C	1.245270	0.506256	0.506174
C19	C	1.128494	0.506271	0.506191
C20	C	1.073624	0.438986	0.439126
C21	C	0.963900	0.439011	0.439139
C22	C	0.963925	0.573609	0.573292
C23	C	1.073648	0.573589	0.573272
C24	C	1.128470	0.371668	0.372044
C25	C	1.073600	0.304377	0.304974
C26	C	0.963876	0.304402	0.304987
C27	C	0.909022	0.371718	0.372071
C28	C	1.518175	0.779248	0.506187
C29	C	1.518244	0.896025	0.506219
C30	C	1.652725	0.895983	0.371949
C31	C	1.719993	0.950823	0.304831
C32	C	1.720055	1.060544	0.304867
C33	C	1.652843	1.115428	0.372030
C34	C	1.585575	1.060589	0.439149
C35	C	1.585519	0.950865	0.439104
C36	C	1.451101	1.060631	0.573422
C37	C	1.451033	0.950909	0.573382
C38	C	1.383890	1.115515	0.640585
C39	C	1.316615	1.060675	0.707700
C40	C	1.316555	0.950947	0.707661
C41	C	1.383765	0.896069	0.640501
C42	C	1.792271	0.506306	0.506215
C43	C	1.909048	0.506317	0.506224
C44	C	1.518237	0.506283	0.780228
C45	C	1.518236	0.506284	0.897004
C46	C	1.518330	1.232247	0.506241
C47	C	1.518369	1.115470	0.506303
C48	C	1.652669	0.371925	1.116473
C49	C	1.719882	0.304741	1.061623
C50	C	1.719882	0.304734	0.951902
C51	C	1.652663	0.371922	0.897027
C52	C	1.585450	0.439106	0.951877
C53	C	1.585455	0.439103	1.061601
C54	C	1.451023	0.573468	0.951854
C55	C	1.451016	0.573471	1.061575
C56	C	1.383804	0.640655	0.896979
C57	C	1.316584	0.707836	0.951829
C58	C	1.316586	0.707839	1.061557
C59	C	1.383802	0.640655	1.116425
C60	C	1.518232	0.506298	1.233227
C61	C	1.518235	0.506284	1.116450
H62	H	1.217813	0.371638	0.372028
H63	H	1.774615	0.250029	0.907244
H64	H	0.919255	0.628414	0.627909
F65	F	1.383810	0.640651	0.780203
F66	F	1.131980	0.232746	0.233576
F67	F	0.792242	0.371754	0.372069
H68	H	1.261856	0.762553	1.106209
F69	F	1.245099	1.119092	0.779179
F70	F	0.905482	0.232793	0.233600
H71	H	1.383716	0.806728	0.640455
F72	F	1.244963	0.892591	0.779105
H73	H	1.652909	1.204770	0.372062
F74	F	1.383609	1.232290	0.640273
F75	F	1.652896	0.779207	0.372137
H76	H	1.383804	0.640645	1.205766
H77	H	1.652662	0.371910	1.205814
F78	F	1.791525	0.892404	0.233358
F79	F	1.791421	0.233242	1.120032
F80	F	1.132048	0.645204	0.644649
H81	H	1.774835	1.105194	0.250218
H82	H	1.652678	0.371919	0.807686
H83	H	1.261865	0.762539	0.907141
