data_functionalizedCrystal
_audit_creation_method	'MofGen! by Chris Wilmer'
_symmetry_space_group_name_H-M	'P1'
_symmetry_Int_Tables_number	1
_symmetry_cell_setting	triclinic
loop_
_symmetry_equiv_pos_as_xyz
  x,y,z
_cell_length_a	18.101397
_cell_length_b	11.169417
_cell_length_c	18.101389
_cell_angle_alpha	89.985563
_cell_angle_beta	89.981649
_cell_angle_gamma	90.022011
loop_
_atom_site_label
_atom_site_type_symbol
_atom_site_fract_x
_atom_site_fract_y
_atom_site_fract_z
Zn1	Zn	-0.294863	1.834834	-0.418644
Zn2	Zn	-0.418689	1.834705	-0.294802
Zn3	Zn	-0.294870	1.634135	-0.294826
Zn4	Zn	-0.418672	1.634095	-0.418612
O5	O	-0.356773	1.734442	-0.356721
O6	O	-0.311293	2.002767	-0.402219
O7	O	-0.402274	1.808062	-0.191173
O8	O	-0.191236	1.660829	-0.311274
O9	O	-0.402267	2.002672	-0.311233
O10	O	-0.191231	1.808282	-0.402242
O11	O	-0.311305	1.660704	-0.191190
O12	O	-0.311289	1.466180	-0.311244
O13	O	-0.402238	1.660760	-0.522249
O14	O	-0.402246	1.466150	-0.402189
O15	O	-0.311276	1.808243	-0.522272
O16	O	-0.522319	1.808023	-0.311203
O17	O	-0.522307	1.660635	-0.402165
C18	C	-0.549184	1.734343	-0.356694
C19	C	-0.631498	1.734411	-0.356708
C20	C	-0.356767	1.422618	-0.356716
C21	C	-0.356782	1.289218	-0.356731
C22	C	-0.356755	1.734512	-0.549883
C23	C	-0.356747	1.734541	-0.632197
C24	C	-0.782206	1.734484	-0.356733
C25	C	-0.813537	1.827308	-0.299557
C26	C	-0.899155	1.827077	-0.299347
C27	C	-0.930589	1.734558	-0.356757
C28	C	-0.899572	1.607984	-0.335757
C29	C	-0.813927	1.608478	-0.335327
C30	C	-0.813713	1.767143	-0.435058
C31	C	-0.899363	1.769976	-0.434655
C32	C	-1.014448	1.734591	-0.356773
C33	C	-0.698347	1.734441	-0.356716
C34	C	-0.163612	1.734574	-0.356764
C35	C	-0.081297	1.734630	-0.356783
C36	C	-0.356781	2.047485	-0.356727
C37	C	-0.356784	2.180884	-0.356730
C38	C	-0.356608	1.734611	-0.931288
C39	C	-0.413657	1.641499	-0.899949
C40	C	-0.413921	1.641751	-0.814330
C41	C	-0.356677	1.734575	-0.782906
C42	C	-0.377858	1.861032	-0.813998
C43	C	-0.378232	1.860513	-0.899643
C44	C	-0.278251	1.702366	-0.899716
C45	C	-0.278704	1.699552	-0.814065
C46	C	-0.356714	1.734563	-0.699046
C47	C	-0.356572	1.734632	-1.015148
C48	C	-0.356739	1.734442	-0.164311
C49	C	-0.356538	1.734645	-0.081997
H50	H	-0.920124	1.920923	-0.312464
H51	H	-0.400667	1.547979	-0.793308
C52	C	-0.928600	1.570031	-0.259276
H53	H	-0.959613	1.631142	-0.240041
H54	H	-0.955984	1.497841	-0.263813
H55	H	-0.888105	1.557722	-0.226782
C56	C	-0.786338	1.675829	-0.492607
H57	H	-0.755854	1.618079	-0.469056
H58	H	-0.827520	1.636943	-0.514566
H59	H	-0.758732	1.716133	-0.529695
C60	C	-0.252178	1.579957	-0.928880
H61	H	-0.204795	1.562207	-0.909167
H62	H	-0.286254	1.519777	-0.914204
H63	H	-0.249391	1.582378	-0.981269
C64	C	-0.926901	1.797848	-0.220961
H65	H	-0.979384	1.797614	-0.220564
H66	H	-0.909188	1.721275	-0.206564
H67	H	-0.909257	1.856637	-0.187396
C68	C	-0.784471	1.889677	-0.460921
H69	H	-0.804145	1.907677	-0.508288
H70	H	-0.799138	1.949686	-0.426759
H71	H	-0.732082	1.887254	-0.463678
H72	H	-0.235747	1.770184	-0.919985
C73	C	-0.927077	1.512030	-0.390292
H74	H	-0.957798	1.548395	-0.426436
H75	H	-0.885954	1.475516	-0.413848
H76	H	-0.954460	1.452989	-0.364233
C77	C	-0.395935	1.514436	-0.927763
H78	H	-0.353589	1.517028	-0.958743
H79	H	-0.386481	1.463567	-0.886781
H80	H	-0.436802	1.484327	-0.954943
C81	C	-0.785642	1.954453	-0.317055
H82	H	-0.754635	1.952071	-0.359384
H83	H	-0.826589	2.005390	-0.326454
H84	H	-0.758473	1.984332	-0.276121
C85	C	-0.324551	1.957425	-0.927656
H86	H	-0.302616	1.996944	-0.886691
H87	H	-0.287089	1.921183	-0.956813
H88	H	-0.350844	2.013957	-0.956734
C89	C	-0.492372	1.670568	-0.786648
H90	H	-0.492804	1.670810	-0.734166
H91	H	-0.506885	1.747060	-0.804406
H92	H	-0.525828	1.611595	-0.804287
C93	C	-0.784524	1.798432	-0.221601
H94	H	-0.753403	1.730049	-0.223746
H95	H	-0.757256	1.864782	-0.203314
H96	H	-0.825018	1.782626	-0.189651
C97	C	-0.785924	1.511842	-0.389145
H98	H	-0.733441	1.511494	-0.389249
H99	H	-0.803606	1.435657	-0.373894
H100	H	-0.803445	1.528772	-0.437496
H101	H	-0.471383	1.662579	-0.921472
C102	C	-0.926740	1.895806	-0.456062
H103	H	-0.907663	1.916723	-0.503233
H104	H	-0.979191	1.896110	-0.457735
H105	H	-0.910246	1.952220	-0.420425
C106	C	-0.786998	1.571159	-0.257990
H107	H	-0.828400	1.555845	-0.227129
H108	H	-0.757796	1.500790	-0.261844
H109	H	-0.758195	1.633838	-0.237276
C110	C	-0.928253	1.685363	-0.495277
H111	H	-0.959874	1.627063	-0.473776
H112	H	-0.954962	1.730250	-0.530953
H113	H	-0.887739	1.646547	-0.518491
C114	C	-0.455611	1.897425	-0.926639
H115	H	-0.486523	1.912589	-0.885264
H116	H	-0.451850	1.967805	-0.955873
H117	H	-0.476207	1.834631	-0.955424
C118	C	-0.323497	1.957277	-0.786500
H119	H	-0.287316	1.921107	-0.755736
H120	H	-0.299970	1.993910	-0.827621
H121	H	-0.349671	2.016183	-0.759161
H122	H	-0.434529	1.888837	-0.792553
H123	H	-0.262731	1.606492	-0.793743
H124	H	-0.233943	1.762420	-0.792674
