data_functionalizedCrystal
_audit_creation_method	'MofGen! by Chris Wilmer'
_symmetry_space_group_name_H-M	'P1'
_symmetry_Int_Tables_number	1
_symmetry_cell_setting	triclinic
loop_
_symmetry_equiv_pos_as_xyz
  x,y,z
_cell_length_a	12.827893
_cell_length_b	13.897448
_cell_length_c	12.827885
_cell_angle_alpha	89.967724
_cell_angle_beta	89.980728
_cell_angle_gamma	90.017663
loop_
_atom_site_label
_atom_site_type_symbol
_atom_site_fract_x
_atom_site_fract_y
_atom_site_fract_z
Zn1	Zn	1.597653	-0.383969	-0.590831
Zn2	Zn	1.597540	-0.545295	-0.416083
Zn3	Zn	1.422894	-0.384016	-0.416104
Zn4	Zn	1.422873	-0.545224	-0.590783
O5	O	1.510240	-0.464626	-0.503450
O6	O	1.743874	-0.405380	-0.567661
O7	O	1.574335	-0.523951	-0.269850
O8	O	1.446133	-0.249028	-0.439311
O9	O	1.743791	-0.523905	-0.439275
O10	O	1.574527	-0.248994	-0.567681
O11	O	1.446023	-0.405460	-0.269865
O12	O	1.276655	-0.405390	-0.439265
O13	O	1.446096	-0.523783	-0.737026
O14	O	1.276639	-0.523829	-0.567601
O15	O	1.574506	-0.405310	-0.737060
O16	O	1.574314	-0.680267	-0.439229
O17	O	1.445986	-0.680215	-0.567580
C18	C	1.238730	-0.464607	-0.503430
C19	C	1.122577	-0.464623	-0.503447
C20	C	1.070812	-0.523321	-0.566853
C21	C	0.950762	-0.523338	-0.566872
C22	C	1.510164	-0.715240	-0.503420
C23	C	1.510227	-0.822454	-0.503442
C24	C	1.510336	-1.018749	-0.503508
C25	C	1.510272	-0.909517	-0.503474
C26	C	1.782810	-0.464645	-0.503471
C27	C	1.898963	-0.464654	-0.503480
C28	C	1.510311	-0.464533	-0.776021
C29	C	1.510341	-0.464494	-0.892174
C30	C	1.510345	-0.213033	-0.503504
C31	C	1.510390	-0.105819	-0.503526
C32	C	1.573890	-0.405858	-0.943976
C33	C	1.573923	-0.405816	-1.064026
C34	C	1.510229	-0.464649	-0.231940
C35	C	1.510401	-0.464416	-0.115788
H36	H	0.906245	-0.573595	-0.621154
O37	O	0.952171	-0.404830	-0.438660
C38	C	1.015243	-0.459720	-0.371090
H39	H	1.031491	-0.532871	-0.407821
H40	H	0.973202	-0.470203	-0.293597
C41	C	1.099026	-0.316856	-0.307234
C42	C	1.118989	-0.406699	-0.352351
H43	H	1.163019	-0.284150	-0.295669
H44	H	1.056531	-0.279875	-0.352753
H45	H	1.063989	-0.325605	-0.242661
H46	H	1.154013	-0.397949	-0.416928
H47	H	1.161493	-0.443678	-0.306841
O48	O	1.638930	-0.345892	-1.117002
C49	C	1.697965	-0.291396	-1.045556
H50	H	1.701616	-0.330867	-0.967717
H51	H	1.659732	-0.218130	-1.034000
C52	C	1.804679	-0.229041	-1.183877
C53	C	1.809171	-0.277524	-1.088275
H54	H	1.873275	-0.220479	-1.210229
H55	H	1.764905	-0.265753	-1.232012
H56	H	1.772814	-0.167991	-1.174234
H57	H	1.841024	-0.338577	-1.097922
H58	H	1.848954	-0.240821	-1.040143
O59	O	1.445637	-0.524359	-1.062540
C60	C	1.505153	-0.586647	-0.999418
H61	H	1.584372	-0.552624	-0.983190
H62	H	1.516577	-0.658151	-1.041405
C63	C	1.350423	-0.645846	-0.915599
C64	C	1.447718	-0.604054	-0.895662
H65	H	1.314993	-0.656587	-0.851600
H66	H	1.310324	-0.603884	-0.958128
H67	H	1.359956	-0.705428	-0.950591
H68	H	1.438183	-0.544468	-0.860683
H69	H	1.487814	-0.646006	-0.853124
H70	H	1.078018	-0.414377	-0.449180
H71	H	1.115371	-0.573559	-0.621128
H72	H	1.628268	-0.355686	-0.899449
H73	H	1.455953	-0.514656	-0.936701
