data_functionalizedCrystal
_audit_creation_method	'MofGen! by Chris Wilmer'
_symmetry_space_group_name_H-M	'P1'
_symmetry_Int_Tables_number	1
_symmetry_cell_setting	triclinic
loop_
_symmetry_equiv_pos_as_xyz
  x,y,z
_cell_length_a	14.853567
_cell_length_b	23.532407
_cell_length_c	13.330367
_cell_angle_alpha	89.990692
_cell_angle_beta	89.995418
_cell_angle_gamma	83.241804
loop_
_atom_site_label
_atom_site_type_symbol
_atom_site_fract_x
_atom_site_fract_y
_atom_site_fract_z
O1	O	1.195556	0.074353	-0.083365
O2	O	0.932999	0.083210	-0.083383
O3	O	1.072195	-0.004116	-0.083355
O4	O	1.056360	0.161678	-0.083393
O5	O	1.072175	-0.004118	0.083492
O6	O	0.932979	0.083208	0.083464
O7	O	1.195536	0.074351	0.083482
Cu8	Cu	1.064255	0.078779	0.098707
Cu9	Cu	1.064279	0.078782	-0.098609
O10	O	1.056340	0.161677	0.083454
C11	C	0.899405	0.082808	0.000038
C12	C	0.799334	0.081605	0.000032
C13	C	0.387423	0.024648	0.000067
C14	C	0.365008	0.128393	0.000043
C15	C	0.459029	0.129524	0.000039
C16	C	0.517252	0.078216	0.000048
C17	C	0.481454	0.025777	0.000061
C18	C	0.494835	0.181961	0.000016
C19	C	0.588861	0.183094	0.000012
C20	C	0.647086	0.131786	0.000028
C21	C	0.611283	0.079345	0.000042
C22	C	0.669506	0.028037	0.000051
C23	C	0.633704	-0.024404	0.000072
C24	C	0.539679	-0.025531	0.000077
C25	C	0.741111	0.132913	0.000023
C26	C	0.763536	0.029166	0.000044
C27	C	1.071782	-0.025335	0.000071
C28	C	1.070569	-0.088557	0.000078
C29	C	1.145338	-0.487334	0.000029
C30	C	1.144212	-0.546739	0.000021
O31	O	1.213524	-0.583181	-0.000011
N32	N	1.061460	-0.569726	0.000016
C33	C	0.979829	-0.533305	0.000008
O34	O	0.909339	-0.558312	0.000002
C35	C	0.980957	-0.473901	0.000009
C36	C	1.063714	-0.450917	0.000024
C37	C	1.228089	-0.464349	0.000043
C38	C	1.229214	-0.404948	0.000052
C39	C	1.147590	-0.368531	0.000048
C40	C	1.064839	-0.391516	0.000034
C41	C	0.899327	-0.437481	-0.000006
C42	C	0.900461	-0.378073	-0.000006
C43	C	0.983218	-0.355089	0.000009
C44	C	0.984341	-0.295698	0.000039
N45	N	1.067092	-0.272711	0.000044
C46	C	1.148717	-0.309128	0.000048
C47	C	0.977469	-0.658058	0.000005
C48	C	0.976340	-0.717461	0.000012
C49	C	1.140723	-0.730890	0.000023
C50	C	1.141851	-0.671486	0.000023
C51	C	1.060220	-0.635070	0.000011
C52	C	1.151075	-0.184380	0.000069
C53	C	1.152194	-0.124974	0.000083
C54	C	0.987811	-0.111549	0.000067
C55	C	0.986692	-0.170951	0.000058
C56	C	1.068331	-0.207365	0.000056
O57	O	0.915065	-0.259221	0.000067
O58	O	1.219196	-0.284112	0.000041
C59	C	1.229130	0.074753	0.000058
C60	C	1.329200	0.075956	0.000058
C61	C	1.056753	0.182895	0.000026
C62	C	1.057966	0.246118	0.000011
N63	N	1.064245	0.078777	0.237489
N64	N	1.064296	0.078779	-0.237390
C65	C	1.002641	0.117434	0.710099
C66	C	1.125942	0.040124	0.710092
C67	C	1.125932	0.040123	0.605074
C68	C	1.064276	0.078778	0.552563
C69	C	1.002631	0.117435	0.605071
C70	C	1.187582	0.001470	0.552558
C71	C	1.187575	0.001467	0.447533
C72	C	1.125914	0.040120	0.395021
C73	C	1.064266	0.078778	0.447535
C74	C	1.002610	0.117434	0.395025
C75	C	0.940957	0.156089	0.447537
C76	C	0.940970	0.156088	0.552559
C77	C	1.125901	0.040122	0.289999
C78	C	1.002600	0.117434	0.289997
H79	H	0.447423	0.223733	-0.000001
N80	N	1.254073	-0.040214	0.609208
H81	H	1.219847	-0.065467	0.652791
H82	H	1.293119	-0.064666	0.559957
N83	N	1.318474	-0.380163	0.000065
H84	H	1.370004	-0.412253	0.000065
H85	H	1.322534	-0.355803	-0.061786
N86	N	0.627474	0.239652	-0.000017
H87	H	0.576321	0.271983	-0.000026
H88	H	0.665995	0.242383	0.061832
H89	H	1.176102	0.008652	0.247249
H90	H	0.908951	-0.736168	0.000017
H91	H	0.770257	0.175610	0.000007
H92	H	1.237775	-0.030008	0.404784
N93	N	1.239126	-0.223651	0.000067
H94	H	1.291712	-0.200069	0.000080
H95	H	1.242234	-0.248598	0.061918
H96	H	0.952389	0.148910	0.247249
N97	N	0.899777	-0.072266	0.000089
H98	H	0.913055	-0.031147	0.000100
H99	H	0.863685	-0.079701	-0.061763
N100	N	0.302216	0.183730	0.000025
H101	H	0.262711	0.185571	-0.061826
H102	H	0.262760	0.185539	0.061915
N103	N	0.874493	0.197785	0.609199
H104	H	0.835431	0.222274	0.560001
H105	H	0.834841	0.175940	0.652795
H106	H	0.810936	-0.012615	0.000056
H107	H	1.207187	-0.760552	0.000023
H108	H	1.219587	-0.106264	0.000098
N109	N	0.501061	-0.082088	0.000079
H110	H	0.552210	-0.114421	0.000085
H111	H	0.462532	-0.084818	0.061930
N112	N	0.348817	-0.031912	0.000103
H113	H	0.280418	-0.024845	0.000112
H114	H	0.370145	-0.054369	-0.061743
H115	H	1.294561	-0.493994	0.000043
N116	N	0.936140	0.159123	0.766728
H117	H	0.945496	0.153258	0.841228
H118	H	0.946185	0.199537	0.748359
N119	N	0.874454	0.197777	0.390894
H120	H	0.835396	0.222264	0.440089
H121	H	0.908736	0.222994	0.347307
H122	H	1.176144	0.008655	0.752850
N123	N	1.231111	-0.646702	0.000037
H124	H	1.235258	-0.622350	-0.061812
H125	H	1.235181	-0.622389	0.061929
H126	H	0.681121	-0.066179	0.000072
N127	N	0.889424	-0.618777	0.000009
H128	H	0.853299	-0.626174	-0.061842
H129	H	0.853366	-0.626206	0.061900
N130	N	0.810060	-0.462253	-0.000016
H131	H	0.774339	-0.448966	-0.061871
H132	H	0.821783	-0.505408	0.000023
N133	N	0.812415	-0.338796	-0.000025
H134	H	0.759824	-0.362374	-0.000035
H135	H	0.809287	-0.313863	0.061830
N136	N	0.897436	-0.195745	0.000056
H137	H	0.845899	-0.163659	0.000058
H138	H	0.893396	-0.220088	-0.061805
