data_functionalizedCrystal
_audit_creation_method	'MofGen! by Chris Wilmer'
_symmetry_space_group_name_H-M	'P1'
_symmetry_Int_Tables_number	1
_symmetry_cell_setting	triclinic
loop_
_symmetry_equiv_pos_as_xyz
  x,y,z
_cell_length_a	29.839131
_cell_length_b	12.827893
_cell_length_c	12.827885
_cell_angle_alpha	89.980538
_cell_angle_beta	89.963180
_cell_angle_gamma	90.041581
loop_
_atom_site_label
_atom_site_type_symbol
_atom_site_fract_x
_atom_site_fract_y
_atom_site_fract_z
Zn1	Zn	-0.178830	1.597483	-0.590798
Zn2	Zn	-0.253967	1.597297	-0.416036
Zn3	Zn	-0.178852	1.422723	-0.416071
Zn4	Zn	-0.253934	1.422630	-0.590736
O5	O	-0.216395	1.510033	-0.503410
O6	O	-0.188801	1.743694	-0.567626
O7	O	-0.244026	1.574101	-0.269805
O8	O	-0.115982	1.446022	-0.439289
O9	O	-0.244004	1.743557	-0.439230
O10	O	-0.115965	1.574417	-0.567660
O11	O	-0.188839	1.445842	-0.269830
O12	O	-0.188807	1.276475	-0.439230
O13	O	-0.243948	1.445863	-0.736981
O14	O	-0.243969	1.276406	-0.567556
O15	O	-0.188769	1.574327	-0.737026
O16	O	-0.316830	1.574010	-0.439171
O17	O	-0.316805	1.445683	-0.567522
C18	C	-0.216387	1.238523	-0.503390
C19	C	-0.216394	1.122370	-0.503407
C20	C	-0.189127	1.070653	-0.567040
C21	C	-0.189134	0.950602	-0.567059
C22	C	-0.333118	1.509844	-0.503359
C23	C	-0.383052	1.509859	-0.503371
C24	C	-0.692696	1.576974	-0.436675
C25	C	-0.880369	1.577103	-0.436716
O26	O	-0.904634	1.634018	-0.379969
N27	N	-0.903837	1.510250	-0.503489
C28	C	-0.880385	1.443364	-0.570262
O29	O	-0.904653	1.386511	-0.627065
C30	C	-0.692713	1.443241	-0.570226
C31	C	-0.669247	1.510092	-0.503441
C32	C	-0.669230	1.643820	-0.369897
C33	C	-0.622314	1.643783	-0.369883
C34	C	-0.598865	1.576901	-0.436649
C35	C	-0.622331	1.510055	-0.503427
C36	C	-0.669261	1.376361	-0.637003
C37	C	-0.622340	1.376338	-0.636990
C38	C	-0.598874	1.443189	-0.570205
C39	C	-0.551966	1.443135	-0.570179
N40	N	-0.528498	1.509988	-0.503406
C41	C	-0.551947	1.576871	-0.436641
C42	C	-0.978916	1.443432	-0.570274
C43	C	-1.025833	1.443461	-0.570282
C44	C	-1.025814	1.577202	-0.436738
C45	C	-0.978895	1.577167	-0.436725
C46	C	-0.955447	1.510285	-0.503501
C47	C	-0.453421	1.576788	-0.436617
C48	C	-0.406502	1.576742	-0.436606
C49	C	-0.406525	1.443005	-0.570154
C50	C	-0.453441	1.443047	-0.570161
C51	C	-0.476888	1.509947	-0.503389
O52	O	-0.527673	1.386259	-0.626905
O53	O	-0.527671	1.633732	-0.379862
C54	C	-0.739611	1.577011	-0.436689
C55	C	-0.763077	1.510165	-0.503468
C56	C	-0.739628	1.443283	-0.570233
C57	C	-0.809995	1.510195	-0.503476
C58	C	-0.833445	1.577078	-0.436710
C59	C	-0.809976	1.643931	-0.369937
C60	C	-0.763061	1.643894	-0.369924
C61	C	-0.763097	1.376429	-0.637006
C62	C	-0.810012	1.376471	-0.637013
C63	C	-0.833462	1.443353	-0.570248
C64	C	-0.099217	1.510251	-0.503485
C65	C	-0.049283	1.510344	-0.503517
C66	C	-0.216352	1.510105	-0.775981
C67	C	-0.216334	1.510136	-0.892134
C68	C	-0.216404	1.782603	-0.503431
C69	C	-0.216408	1.898756	-0.503440
C70	C	-0.189020	1.446690	-0.943931
C71	C	-0.189001	1.446720	-1.063982
C72	C	-0.216406	1.510022	-0.231900
C73	C	-0.216298	1.510193	-0.115748
H74	H	-0.165790	0.906126	-0.621541
O75	O	-0.383720	1.378193	-0.635121
C76	C	-0.356526	1.437654	-0.702629
H77	H	-0.370633	1.519960	-0.709152
H78	H	-0.355977	1.399826	-0.783022
H79	H	-0.320978	1.441257	-0.670303
O80	O	-0.956172	1.642207	-0.371821
C81	C	-0.986935	1.701217	-0.312877
H82	H	-1.020364	1.704827	-0.355694
H83	H	-0.973351	1.783553	-0.301795
H84	H	-0.991967	1.662991	-0.233479
O85	O	-0.244279	1.574857	-0.945204
C86	C	-0.289068	1.551975	-0.918563
H87	H	-0.291352	1.468508	-0.888479
H88	H	-0.311223	1.560889	-0.990379
H89	H	-0.300848	1.608025	-0.855289
H90	H	-0.239756	0.943226	-0.448964
O91	O	-0.244315	1.069288	-0.438478
C92	C	-0.289112	1.095812	-0.461118
H93	H	-0.290089	1.175104	-0.501202
H94	H	-0.309220	1.099370	-0.385610
H95	H	-0.304249	1.034410	-0.514845
O96	O	-1.048646	1.378405	-0.635001
C97	C	-1.075842	1.310971	-0.575461
H98	H	-1.061735	1.304548	-0.493145
H99	H	-1.076394	1.230530	-0.613190
H100	H	-1.111388	1.343302	-0.571903
H101	H	-0.165653	1.392345	-0.899400
O102	O	-0.599592	1.708832	-0.304986
C103	C	-0.630358	1.767849	-0.246053
H104	H	-0.663786	1.771448	-0.288873
H105	H	-0.616776	1.850189	-0.234985
H106	H	-0.635389	1.729637	-0.166649
H107	H	-0.743958	1.698330	-0.315541
H108	H	-0.603251	1.321877	-0.691370
O109	O	-0.161167	1.381800	-1.117159
C110	C	-0.186757	1.314350	-1.180292
H111	H	-0.222133	1.307796	-1.147313
H112	H	-0.170509	1.233957	-1.181638
H113	H	-0.188323	1.346751	-1.262975
H114	H	-0.829077	1.698387	-0.315572
O115	O	-0.244213	1.575098	-1.062784
C116	C	-0.269599	1.634098	-1.134233
H117	H	-0.251215	1.637844	-1.212077
H118	H	-0.274389	1.716387	-1.102620
H119	H	-0.303719	1.595775	-1.145779
H120	H	-1.044914	1.631661	-0.382375
H121	H	-0.165775	1.115252	-0.621502
O122	O	-0.383777	1.641784	-0.371696
C123	C	-0.414538	1.700806	-0.312757
H124	H	-0.447966	1.704423	-0.355577
H125	H	-0.400950	1.783139	-0.301677
H126	H	-0.419573	1.662585	-0.233358
H127	H	-0.959827	1.388966	-0.624653
O128	O	-0.476247	1.641633	-0.371716
C129	C	-0.503430	1.582210	-0.304153
H130	H	-0.510485	1.502996	-0.340929
H131	H	-0.536407	1.624817	-0.290206
H132	H	-0.485381	1.570765	-0.226691
O133	O	-0.692027	1.311537	-0.702035
C134	C	-0.680502	1.334313	-0.806195
H135	H	-0.667571	1.417790	-0.811523
H136	H	-0.711339	1.325302	-0.857839
H137	H	-0.653278	1.278266	-0.833449
O138	O	-0.692068	1.708682	-0.305043
C139	C	-0.719263	1.649296	-0.237472
H140	H	-0.726308	1.570058	-0.274207
H141	H	-0.752244	1.691906	-0.223588
H142	H	-0.701229	1.637903	-0.159983
O143	O	-0.476169	1.378073	-0.635129
C144	C	-0.445408	1.319012	-0.694032
H145	H	-0.411942	1.361783	-0.697667
H146	H	-0.458939	1.307837	-0.776366
H147	H	-0.440471	1.239659	-0.655696
H148	H	-0.829114	1.322024	-0.691397
H149	H	-0.744008	1.321966	-0.691376
