data_functionalizedCrystal
_audit_creation_method	'MofGen! by Chris Wilmer'
_symmetry_space_group_name_H-M	'P1'
_symmetry_Int_Tables_number	1
_symmetry_cell_setting	triclinic
loop_
_symmetry_equiv_pos_as_xyz
  x,y,z
_cell_length_a	6.817900
_cell_length_b	11.168136
_cell_length_c	11.168121
_cell_angle_alpha	92.020174
_cell_angle_beta	108.508496
_cell_angle_gamma	108.508683
loop_
_atom_site_label
_atom_site_type_symbol
_atom_site_fract_x
_atom_site_fract_y
_atom_site_fract_z
V1	V	-4.109882	-0.393710	-0.174724
O2	O	-4.069466	-0.386204	0.008377
O3	O	-4.086169	-0.391027	-0.346429
O4	O	-4.086172	-0.565415	-0.172045
O5	O	-4.069463	-0.210609	-0.167215
V6	V	-4.587111	-0.371808	-0.152822
O7	O	-4.384945	-0.441753	-0.222767
O8	O	-4.762245	-0.323765	-0.104778
O9	O	-4.387617	-0.374490	0.018883
O10	O	-4.744924	-0.379314	-0.335922
O11	O	-4.744927	-0.554909	-0.160331
O12	O	-4.387614	-0.200102	-0.155501
C13	C	-3.936377	-0.384819	-0.388286
C14	C	-3.998441	-0.383771	-0.528658
C15	C	-4.200950	-0.389292	-0.597350
C16	C	-4.265100	-0.388208	-0.742432
C17	C	-3.936379	-0.607267	-0.165840
C18	C	-3.998441	-0.747637	-0.164786
C19	C	-4.200949	-0.816329	-0.170305
C20	C	-4.265097	-0.961409	-0.169216
C21	C	-4.200752	-0.380695	0.060735
C22	C	-4.117928	-0.381752	0.201105
C23	C	-4.200749	-0.158244	-0.161709
C24	C	-4.117925	-0.017873	-0.162757
H25	H	-3.872561	-0.378248	-0.577256
N26	N	-4.494890	-1.039626	-0.175464
H27	H	-4.524587	-1.007280	-0.099751
H28	H	-4.605771	-1.031798	-0.257077
N29	N	-4.367733	-0.751983	-0.177639
H30	H	-4.417678	-0.765419	-0.101585
H31	H	-4.298147	-0.657489	-0.177422
N32	N	-4.494821	-0.394360	-0.820676
H33	H	-4.567823	-0.472836	-0.887994
H34	H	-4.584107	-0.398734	-0.763008
H35	H	-3.944439	-0.377021	-0.739852
N36	N	-3.888114	-0.939682	-0.156499
H37	H	-3.896477	-0.896940	-0.235271
H38	H	-3.815295	-0.872472	-0.077944
N39	N	-4.367725	-0.396630	-0.532997
H40	H	-4.298260	-0.396368	-0.438478
H41	H	-4.417626	-0.320571	-0.546526
N42	N	-3.831722	-0.812022	-0.157489
H43	H	-3.781805	-0.798592	-0.233553
H44	H	-3.700561	-0.774042	-0.076226
