data_functionalizedCrystal
_audit_creation_method	'MofGen! by Chris Wilmer'
_symmetry_space_group_name_H-M	'P1'
_symmetry_Int_Tables_number	1
_symmetry_cell_setting	triclinic
loop_
_symmetry_equiv_pos_as_xyz
  x,y,z
_cell_length_a	16.959455
_cell_length_b	16.625539
_cell_length_c	16.959454
_cell_angle_alpha	90.023052
_cell_angle_beta	89.982978
_cell_angle_gamma	89.984051
loop_
_atom_site_label
_atom_site_type_symbol
_atom_site_fract_x
_atom_site_fract_y
_atom_site_fract_z
Zn1	Zn	1.208396	-0.455904	0.314759
Zn2	Zn	1.541730	-0.122571	0.648092
Zn3	Zn	1.875063	0.210762	0.981426
Zn4	Zn	1.208315	-0.321080	0.446943
Zn5	Zn	1.541649	0.012254	0.780276
Zn6	Zn	1.874982	0.345587	1.113610
Zn7	Zn	1.076221	-0.321088	0.314775
Zn8	Zn	1.409554	0.012246	0.648109
Zn9	Zn	1.742888	0.345579	0.981442
Zn10	Zn	1.076190	-0.455872	0.446892
Zn11	Zn	1.409523	-0.122539	0.780226
Zn12	Zn	1.742856	0.210795	1.113559
O13	O	1.142281	-0.388486	0.380842
O14	O	1.475614	-0.055153	0.714176
O15	O	1.808947	0.278181	1.047509
O16	O	1.318997	-0.438030	0.332308
O17	O	1.652330	-0.104697	0.665641
O18	O	1.985663	0.228637	0.998975
O19	O	1.190772	-0.208248	0.429439
O20	O	1.524105	0.125085	0.762772
O21	O	1.857439	0.458418	1.096105
O22	O	1.093802	-0.338988	0.204162
O23	O	1.427135	-0.005655	0.537496
O24	O	1.760468	0.327678	0.870829
O25	O	1.318937	-0.338975	0.429423
O26	O	1.652270	-0.005641	0.762756
O27	O	1.985604	0.327692	1.096090
O28	O	1.190910	-0.438038	0.204150
O29	O	1.524244	-0.104704	0.537484
O30	O	1.857577	0.228629	0.870817
O31	O	1.093723	-0.208254	0.332336
O32	O	1.427056	0.125079	0.665669
O33	O	1.760390	0.458413	0.999002
O34	O	0.965606	-0.338957	0.332287
O35	O	1.298939	-0.005624	0.665620
O36	O	1.632273	0.327710	0.998953
O37	O	1.093748	-0.568709	0.429337
O38	O	1.427081	-0.235376	0.762670
O39	O	1.760415	0.097958	1.096003
O40	O	0.965583	-0.437982	0.429352
O41	O	1.298916	-0.104649	0.762686
O42	O	1.632250	0.228684	1.096019
O43	O	1.190880	-0.568733	0.332259
O44	O	1.524213	-0.235399	0.665592
O45	O	1.857546	0.097934	0.998926
O46	O	1.190741	-0.338943	0.557547
O47	O	1.524075	-0.005610	0.890881
O48	O	1.857408	0.327723	1.224214
O49	O	1.093669	-0.437975	0.557510
O50	O	1.427002	-0.104641	0.890843
O51	O	1.760336	0.228692	1.224177
C52	C	0.936914	-0.388468	0.380816
C53	C	1.270248	-0.055134	0.714150
C54	C	1.603581	0.278199	1.047483
C55	C	0.849058	-0.388479	0.380824
C56	C	1.182391	-0.055145	0.714158
C57	C	1.515724	0.278188	1.047491
C58	C	0.477570	-0.337031	0.330259
C59	C	0.810903	-0.003698	0.663592
C60	C	1.144236	0.329636	0.996926
C61	C	0.477594	-0.439987	0.431491
C62	C	0.810928	-0.106654	0.764824
C63	C	1.144261	0.226680	1.098158
C64	C	0.560140	-0.439982	0.431480
C65	C	0.893474	-0.106649	0.764813
C66	C	1.226807	0.226685	1.098146
C67	C	0.601405	-0.388500	0.380858
C68	C	0.934738	-0.055167	0.714191
C69	C	1.268071	0.278167	1.047525
C70	C	0.560123	-0.337023	0.330248
C71	C	0.893457	-0.003689	0.663581
C72	C	1.226790	0.329644	0.996914
C73	C	0.601428	-0.491453	0.482095
C74	C	0.934761	-0.158119	0.815428
C75	C	1.268095	0.175214	1.148762
C76	C	0.683979	-0.491449	0.482086
C77	C	1.017312	-0.158116	0.815420
C78	C	1.350646	0.175218	1.148753
C79	C	0.725245	-0.439970	0.431460
C80	C	1.058578	-0.106637	0.764793
C81	C	1.391912	0.226696	1.098127
C82	C	0.683958	-0.388492	0.380847
C83	C	1.017292	-0.055158	0.714180
C84	C	1.350625	0.278175	1.047513
C85	C	0.725223	-0.337010	0.330225
C86	C	1.058556	-0.003676	0.663558
C87	C	1.391889	0.329657	0.996892
C88	C	0.683938	-0.285534	0.279607
C89	C	1.017271	0.047799	0.612941
C90	C	1.350604	0.381132	0.946274
C91	C	0.601389	-0.285544	0.279621
C92	C	0.934723	0.047789	0.612955
C93	C	1.268056	0.381123	0.946288
C94	C	0.807793	-0.439961	0.431446
C95	C	1.141127	-0.106628	0.764779
C96	C	1.474460	0.226706	1.098113
C97	C	0.807776	-0.337001	0.330214
C98	C	1.141110	-0.003668	0.663547
C99	C	1.474443	0.329665	0.996881
C100	C	1.142319	-0.598795	0.380790
C101	C	1.475653	-0.265462	0.714124
C102	C	1.808986	0.067872	1.047457
C103	C	1.142336	-0.688416	0.380768
C104	C	1.475669	-0.355083	0.714101
C105	C	1.809003	-0.021749	1.047435
C106	C	1.142349	-0.761199	0.380751
C107	C	1.475682	-0.427865	0.714084
C108	C	1.809015	-0.094532	1.047417
C109	C	1.142367	-0.852507	0.380721
C110	C	1.475701	-0.519174	0.714054
C111	C	1.809034	-0.185840	1.047388
C112	C	1.142386	-0.925284	0.380693
C113	C	1.475719	-0.591950	0.714027
C114	C	1.809052	-0.258617	1.047360
C115	C	1.142405	-1.016598	0.380665
C116	C	1.475739	-0.683265	0.713998
C117	C	1.809072	-0.349931	1.047331
C118	C	1.348449	-0.388505	0.380869
C119	C	1.681782	-0.055172	0.714203
C120	C	2.015115	0.278162	1.047536
C121	C	1.436305	-0.388513	0.380881
C122	C	1.769639	-0.055180	0.714214
C123	C	2.102972	0.278154	1.047547
C124	C	1.142214	-0.388472	0.586209
C125	C	1.475548	-0.055139	0.919542
C126	C	1.808881	0.278194	1.252875
C127	C	1.142258	-0.388493	0.674065
C128	C	1.475592	-0.055160	1.007399
C129	C	1.808925	0.278173	1.340732
C130	C	1.142287	-0.178995	0.380837
C131	C	1.475621	0.154338	0.714171
C132	C	1.808954	0.487671	1.047504
C133	C	1.142424	-0.089374	0.380637
C134	C	1.475757	0.243959	0.713970
C135	C	1.809091	0.577292	1.047304
C136	C	1.142369	-0.388517	0.174674
C137	C	1.475702	-0.055184	0.508008
C138	C	1.809035	0.278149	0.841341
C139	C	1.142406	-0.388531	0.086818
C140	C	1.475739	-0.055197	0.420151
C141	C	1.809073	0.278136	0.753484
C142	C	1.091808	-0.440046	1.045551
C143	C	1.425142	-0.106713	1.378885
C144	C	1.758475	0.226621	1.712218
C145	C	1.192973	-0.337008	1.045530
C146	C	1.526306	-0.003675	1.378864
C147	C	1.859640	0.329659	1.712197
C148	C	1.192945	-0.337001	0.962984
C149	C	1.526279	-0.003667	1.296318
C150	C	1.859612	0.329666	1.629651
C151	C	1.142348	-0.388516	0.921718
C152	C	1.475681	-0.055183	1.255052
C153	C	1.809014	0.278151	1.588385
C154	C	1.091778	-0.440039	0.962998
C155	C	1.425111	-0.106705	1.296331
C156	C	1.758444	0.226628	1.629665
C157	C	1.243509	-0.285473	0.921698
C158	C	1.576842	0.047860	1.255032
C159	C	1.910175	0.381194	1.588365
C160	C	1.243482	-0.285463	0.839148
C161	C	1.576816	0.047870	1.172481
C162	C	1.910149	0.381204	1.505814
C163	C	1.192888	-0.336983	0.797880
C164	C	1.526222	-0.003650	1.131213
C165	C	1.859555	0.329684	1.464547
C166	C	1.142317	-0.388508	0.839165
C167	C	1.475650	-0.055175	1.172498
C168	C	1.808983	0.278158	1.505831
C169	C	1.091719	-0.440024	0.797899
C170	C	1.425053	-0.106690	1.131232
C171	C	1.758386	0.226643	1.464565
C172	C	1.041151	-0.491554	0.839182
C173	C	1.374484	-0.158220	1.172515
C174	C	1.707818	0.175113	1.505849
C175	C	1.041183	-0.491559	0.921730
C176	C	1.374517	-0.158225	1.255064
C177	C	1.707850	0.175108	1.588397
C178	C	1.192856	-0.336978	0.715331
C179	C	1.526189	-0.003645	1.048665
C180	C	1.859523	0.329689	1.381998
C181	C	1.091688	-0.440016	0.715345
C182	C	1.425022	-0.106683	1.048678
C183	C	1.758355	0.226651	1.382012
H184	H	0.841368	-0.295083	0.288986
H185	H	1.174701	0.038251	0.622319
H186	H	1.508035	0.371584	0.955653
N187	N	0.556913	-0.546976	0.536681
N188	N	0.890246	-0.213643	0.870015
N189	N	1.223579	0.119690	1.203348
H190	H	0.571303	-0.604606	0.524476
H191	H	0.904636	-0.271273	0.857810
H192	H	1.237970	0.062060	1.191143
H193	H	0.571270	-0.534290	0.593122
H194	H	0.904604	-0.200957	0.926455
H195	H	1.237937	0.132377	1.259789
H196	H	1.050488	-0.481969	0.681751
H197	H	1.383822	-0.148636	1.015084
H198	H	1.717155	0.184697	1.348418
N199	N	0.433044	-0.281502	0.275681
N200	N	0.766377	0.051831	0.609014
N201	N	1.099711	0.385165	0.942347
H202	H	0.398807	-0.314327	0.239094
H203	H	0.732140	0.019006	0.572428
H204	H	1.065473	0.352340	0.905761
H205	H	0.398826	-0.244102	0.307830
H206	H	0.732159	0.089231	0.641163
H207	H	1.065492	0.422565	0.974496
N208	N	0.728456	-0.230014	0.225010
N209	N	1.061789	0.103319	0.558344
N210	N	1.395122	0.436652	0.891677
H211	H	0.714111	-0.242639	0.168551
H212	H	1.047444	0.090695	0.501884
H213	H	1.380778	0.424028	0.835217
H214	H	0.714053	-0.172404	0.237276
H215	H	1.047386	0.160930	0.570609
H216	H	1.380719	0.494263	0.903943
H217	H	1.284697	-0.243526	0.955303
H218	H	1.618030	0.089807	1.288637
H219	H	1.951363	0.423141	1.621970
H220	H	1.234024	-0.295019	0.681722
H221	H	1.567357	0.038314	1.015056
H222	H	1.900691	0.371647	1.348389
H223	H	1.234162	-0.295062	1.079134
H224	H	1.567496	0.038272	1.412467
H225	H	1.900829	0.371605	1.745801
N226	N	0.556862	-0.230003	0.225056
N227	N	0.890196	0.103330	0.558389
N228	N	1.223529	0.436663	0.891722
H229	H	0.498307	-0.237811	0.232756
H230	H	0.831640	0.095523	0.566090
H231	H	1.164974	0.428856	0.899423
H232	H	0.571283	-0.172405	0.237308
H233	H	0.904617	0.160929	0.570641
H234	H	1.237950	0.494262	0.903975
H235	H	0.443992	-0.481897	0.472710
H236	H	0.777325	-0.148563	0.806043
H237	H	1.110659	0.184770	1.139376
H238	H	1.284658	-0.243505	0.805540
H239	H	1.617991	0.089828	1.138873
H240	H	1.951325	0.423161	1.472206
H241	H	0.717586	-0.533364	0.523302
H242	H	1.050920	-0.200031	0.856635
H243	H	1.384253	0.133303	1.189968
H244	H	0.841404	-0.481869	0.472660
H245	H	1.174737	-0.148535	0.805994
H246	H	1.508071	0.184798	1.139327
N247	N	0.986571	-0.547108	0.794671
N248	N	1.319905	-0.213775	1.128004
N249	N	1.653238	0.119559	1.461337
H250	H	0.994225	-0.539276	0.736113
H251	H	1.327558	-0.205943	1.069446
H252	H	1.660892	0.127390	1.402780
H253	H	0.998842	-0.604709	0.809054
H254	H	1.332175	-0.271376	1.142387
H255	H	1.665508	0.061957	1.475721
N256	N	0.986643	-0.547130	0.966256
N257	N	1.319976	-0.213796	1.299589
N258	N	1.653309	0.119537	1.632922
H259	H	0.994338	-0.539312	1.024811
H260	H	1.327671	-0.205979	1.358144
H261	H	1.661004	0.127355	1.691478
H262	H	0.930195	-0.534523	0.951867
H263	H	1.263528	-0.201190	1.285201
H264	H	1.596861	0.132143	1.618534
N265	N	1.037271	-0.495625	1.090071
N266	N	1.370604	-0.162292	1.423404
N267	N	1.703938	0.171042	1.756737
H268	H	1.044966	-0.487818	1.148628
H269	H	1.378299	-0.154484	1.481961
H270	H	1.711633	0.178849	1.815294
H271	H	0.980822	-0.483020	1.075686
H272	H	1.314155	-0.149687	1.409019
H273	H	1.647488	0.183646	1.742353
