data_functionalizedCrystal
_audit_creation_method	'MofGen! by Chris Wilmer'
_symmetry_space_group_name_H-M	'P1'
_symmetry_Int_Tables_number	1
_symmetry_cell_setting	triclinic
loop_
_symmetry_equiv_pos_as_xyz
  x,y,z
_cell_length_a	10.654554
_cell_length_b	15.944551
_cell_length_c	9.730223
_cell_angle_alpha	89.997716
_cell_angle_beta	89.999030
_cell_angle_gamma	83.992790
loop_
_atom_site_label
_atom_site_type_symbol
_atom_site_fract_x
_atom_site_fract_y
_atom_site_fract_z
O1	O	1.666304	0.117992	-0.114318
O2	O	1.300681	0.129228	-0.114315
O3	O	1.493477	0.001393	-0.114304
O4	O	1.473508	0.245827	-0.114329
O5	O	1.493474	0.001396	0.114276
O6	O	1.300679	0.129231	0.114265
O7	O	1.666302	0.117995	0.114262
Zn8	Zn	1.483490	0.123613	0.150555
Zn9	Zn	1.483493	0.123609	-0.150608
O10	O	1.473506	0.245830	0.114251
C11	C	1.253892	0.128403	-0.000025
C12	C	1.114481	0.125933	-0.000024
C13	C	0.932954	0.046019	-0.000034
C14	C	1.063945	0.048340	-0.000020
C15	C	1.034018	0.201209	-0.000027
C16	C	0.903029	0.198887	-0.000031
C17	C	0.950233	-0.042238	-0.000035
C18	C	1.081224	-0.039917	-0.000021
C19	C	1.492647	-0.029904	-0.000014
C20	C	1.490161	-0.123165	-0.000013
C21	C	1.364717	-0.338749	-0.000031
C22	C	1.422968	-0.399427	0.112672
C23	C	1.485665	-0.293917	-0.000024
C24	C	1.422999	-0.399413	-0.112690
C25	C	1.481313	-0.458855	-0.000040
C26	C	1.543949	-0.353366	0.112773
C27	C	1.543963	-0.353346	-0.112690
C28	C	1.602302	-0.414006	0.000040
C29	C	1.488169	-0.198900	-0.000013
C30	C	1.478819	-0.553870	-0.000040
C31	C	1.713090	0.118819	-0.000031
C32	C	1.852501	0.121290	-0.000041
C33	C	1.474336	0.277127	-0.000042
C34	C	1.476821	0.370387	-0.000052
N35	N	1.483497	0.123616	0.356092
N36	N	1.483495	0.123600	-0.356145
C37	C	1.568889	0.067030	0.428023
C38	C	1.568885	0.067020	0.571906
C39	C	1.398095	0.180189	0.571914
C40	C	1.398093	0.180194	0.428034
C41	C	1.667497	0.001695	0.428019
C42	C	1.667494	0.001685	0.571902
H43	H	0.837528	0.260180	-0.000022
H44	H	1.763819	0.016077	0.610951
C45	C	1.790326	0.029328	0.367720
N46	N	1.882842	0.050141	0.322303
H47	H	1.371811	-0.419831	0.207954
H48	H	1.371828	-0.419788	-0.207978
H49	H	1.646890	-0.062867	0.388972
C50	C	1.612995	-0.325960	0.241640
N51	N	1.664994	-0.305316	0.338704
C52	C	1.304153	0.242420	0.651064
N53	N	1.233395	0.289295	0.710678
H54	H	1.637770	-0.059326	0.616524
C55	C	1.738042	-0.458024	0.000129
N56	N	1.840279	-0.491180	0.000204
H57	H	1.075175	0.264386	-0.000018
H58	H	0.921315	-0.076755	0.095622
H59	H	1.127207	-0.066585	0.098681
C60	C	0.902588	-0.080215	-0.133358
N61	N	0.866702	-0.108822	-0.233778
C62	C	1.138224	-0.084835	-0.129250
N63	N	1.181155	-0.118663	-0.226585
C64	C	1.613014	-0.325749	-0.241421
N65	N	1.665014	-0.304960	-0.338392
H66	H	1.264324	-0.306024	0.000082
H67	H	1.328550	0.226264	0.369469
