data_functionalizedCrystal
_audit_creation_method	'MofGen! by Chris Wilmer'
_symmetry_space_group_name_H-M	'P1'
_symmetry_Int_Tables_number	1
_symmetry_cell_setting	triclinic
loop_
_symmetry_equiv_pos_as_xyz
  x,y,z
_cell_length_a	19.805407
_cell_length_b	21.295416
_cell_length_c	19.805399
_cell_angle_alpha	90.029778
_cell_angle_beta	89.983114
_cell_angle_gamma	89.969669
loop_
_atom_site_label
_atom_site_type_symbol
_atom_site_fract_x
_atom_site_fract_y
_atom_site_fract_z
Zn1	Zn	1.034699	0.250615	-0.382716
Zn2	Zn	1.534699	0.750615	0.117284
Zn3	Zn	1.034612	0.355886	-0.269526
Zn4	Zn	1.534612	0.855886	0.230474
Zn5	Zn	0.921519	0.250635	-0.269541
Zn6	Zn	1.421519	0.750635	0.230459
Zn7	Zn	0.921470	0.355850	-0.382673
Zn8	Zn	1.421470	0.855850	0.117327
O9	O	0.978075	0.303247	-0.326114
O10	O	1.478075	0.803247	0.173886
O11	O	1.129404	0.264586	-0.367713
O12	O	1.629404	0.764586	0.132287
O13	O	1.019594	0.341948	-0.174811
O14	O	1.519594	0.841948	0.325189
O15	O	0.936590	0.162543	-0.284578
O16	O	1.436590	0.662543	0.215422
O17	O	1.129340	0.341929	-0.284553
O18	O	1.629340	0.841929	0.215447
O19	O	1.019743	0.162528	-0.367727
O20	O	1.519743	0.662528	0.132273
O21	O	0.936505	0.264620	-0.174822
O22	O	1.436505	0.764620	0.325178
O23	O	0.826796	0.264585	-0.284536
O24	O	1.326796	0.764585	0.215464
O25	O	0.936506	0.341867	-0.477395
O26	O	1.436506	0.841867	0.022605
O27	O	0.826760	0.341887	-0.367654
O28	O	1.326760	0.841887	0.132346
O29	O	1.019695	0.264551	-0.477427
O30	O	1.519695	0.764551	0.022573
O31	O	1.019546	0.443971	-0.284511
O32	O	1.519546	0.943971	0.215489
O33	O	0.936421	0.443945	-0.367640
O34	O	1.436421	0.943945	0.132360
C35	C	0.802219	0.303235	-0.326092
C36	C	1.302219	0.803235	0.173908
C37	C	0.726987	0.303245	-0.326099
C38	C	1.226987	0.803245	0.173901
C39	C	0.977987	0.466798	-0.326084
C40	C	1.477987	0.966798	0.173916
C41	C	0.978011	0.536766	-0.326094
C42	C	1.478011	1.036766	0.173906
C43	C	0.691642	0.343556	-0.369308
C44	C	1.191642	0.843556	0.130692
C45	C	0.620953	0.343557	-0.369318
C46	C	1.120953	0.843557	0.130682
C47	C	0.585611	0.303250	-0.326114
C48	C	1.085611	0.803250	0.173886
C49	C	0.620962	0.262934	-0.282903
C50	C	1.120962	0.762934	0.217097
C51	C	0.691649	0.262930	-0.282897
C52	C	1.191649	0.762930	0.217103
C53	C	0.335888	0.262948	-0.282925
C54	C	0.835888	0.762948	0.217075
C55	C	0.265196	0.262956	-0.282932
C56	C	0.765196	0.762956	0.217068
C57	C	0.265193	0.343575	-0.369346
C58	C	0.765193	0.843575	0.130654
C59	C	0.335880	0.343571	-0.369340
C60	C	0.835880	0.843571	0.130660
C61	C	0.371224	0.303253	-0.326132
C62	C	0.871224	0.803253	0.173868
C63	C	0.447872	0.303252	-0.326123
C64	C	0.947872	0.803252	0.173877
C65	C	0.508964	0.303254	-0.326119
C66	C	1.008964	0.803254	0.173881
C67	C	1.021333	0.569626	-0.282855
C68	C	1.521333	1.069626	0.217145
C69	C	1.021365	0.635368	-0.282873
C70	C	1.521365	1.135368	0.217127
C71	C	0.978063	0.668249	-0.326123
C72	C	1.478063	1.168249	0.173877
C73	C	0.934738	0.635381	-0.369371
C74	C	1.434738	1.135381	0.130629
C75	C	0.934712	0.569640	-0.369356
C76	C	1.434712	1.069640	0.130644
N77	N	0.918852	0.771515	-0.331281
N78	N	1.418852	1.271515	0.168719
N79	N	0.918879	0.833966	-0.331291
N80	N	1.418879	1.333966	0.168709
C81	C	0.978139	0.866324	-0.326171
C82	C	1.478139	1.366324	0.173829
N83	N	1.037373	0.833870	-0.321028
N84	N	1.537373	1.333870	0.178972
N85	N	1.037346	0.771413	-0.321015
N86	N	1.537346	1.271413	0.178985
C87	C	0.978086	0.739534	-0.326144
C88	C	1.478086	1.239534	0.173856
C89	C	1.021499	0.970469	-0.282950
C90	C	1.521499	1.470469	0.217050
C91	C	1.021532	1.036212	-0.282973
C92	C	1.521532	1.536212	0.217027
C93	C	0.934900	1.036224	-0.369467
C94	C	1.434900	1.536224	0.130533
C95	C	0.934873	0.970482	-0.369447
C96	C	1.434873	1.470482	0.130553
C97	C	0.978171	0.937608	-0.326185
C98	C	1.478171	1.437608	0.173815
C99	C	1.154618	0.303259	-0.326136
C100	C	1.654618	0.803259	0.173864
C101	C	1.229850	0.303265	-0.326146
C102	C	1.729850	0.803265	0.173854
C103	C	0.978183	1.139056	-0.326170
C104	C	1.478183	1.639056	0.173830
C105	C	0.978231	1.069088	-0.326224
C106	C	1.478231	1.569088	0.173776
C107	C	0.978105	0.303203	-0.502657
C108	C	1.478105	0.803203	-0.002657
C109	C	0.978117	0.303184	-0.577889
C110	C	1.478117	0.803184	-0.077889
C111	C	0.934865	0.262916	-0.613238
C112	C	1.434865	0.762916	-0.113238
C113	C	0.934875	0.262904	-0.683926
C114	C	1.434875	0.762904	-0.183926
C115	C	0.978140	0.303157	-0.719264
C116	C	1.478140	0.803157	-0.219264
C117	C	1.021394	0.343430	-0.683910
C118	C	1.521394	0.843430	-0.183910
C119	C	1.021380	0.343445	-0.613223
C120	C	1.521380	0.843445	-0.113223
C121	C	1.021447	0.343371	-0.968984
C122	C	1.521447	0.843371	-0.468984
C123	C	1.021459	0.343352	-1.039676
C124	C	1.521459	0.843352	-0.539676
C125	C	0.934942	0.262830	-1.039687
C126	C	1.434942	0.762830	-0.539687
C127	C	0.934928	0.262845	-0.969000
C128	C	1.434928	0.762845	-0.469000
C129	C	0.978179	0.303120	-0.933652
C130	C	1.478179	0.803120	-0.433652
C131	C	0.978168	0.303133	-0.857003
C132	C	1.478168	0.803133	-0.357003
C133	C	0.978155	0.303141	-0.795912
C134	C	1.478155	0.803141	-0.295912
C135	C	0.978084	0.303245	-0.150258
C136	C	1.478084	0.803245	0.349742
C137	C	0.978203	0.303086	-0.075026
C138	C	1.478203	0.803086	0.424974
H139	H	0.592178	0.376383	-0.404502
H140	H	1.092178	0.876383	0.095498
H141	H	1.056591	0.542862	-0.247630
H142	H	1.556591	1.042862	0.252370
H143	H	0.899723	0.230038	-1.068476
H144	H	1.399723	0.730038	-0.568476
O145	O	1.063555	1.068232	-0.240990
O146	O	1.563555	1.568232	0.259010
C147	C	1.072845	1.142575	-0.149704
C148	C	1.572845	1.642575	0.350296
C149	C	1.025159	1.106344	-0.197181
C150	C	1.525159	1.606344	0.302819
H151	H	1.041821	1.173387	-0.114262
H152	H	1.541821	1.673387	0.385738
H153	H	1.108183	1.173314	-0.180858
H154	H	1.608183	1.673314	0.319142
H155	H	1.103840	1.107804	-0.118811
H156	H	1.603840	1.607804	0.381189
H157	H	0.994121	1.141069	-0.228083
H158	H	1.494121	1.641069	0.271917
H159	H	0.989867	1.075595	-0.165988
H160	H	1.489867	1.575595	0.334012
H161	H	0.899645	1.062995	-0.404685
H162	H	1.399645	1.562995	0.095315
O163	O	0.892721	0.537689	-0.411430
O164	O	1.392721	1.037689	0.088570
C165	C	0.883525	0.463377	-0.502755
C166	C	1.383525	0.963377	-0.002755
C167	C	0.931158	0.499535	-0.455161
C168	C	1.431158	0.999535	0.044839
H169	H	0.914582	0.432510	-0.538114
H170	H	1.414582	0.932510	-0.038114
H171	H	0.852594	0.498138	-0.533723
H172	H	1.352594	0.998138	-0.033723
H173	H	0.848128	0.432679	-0.471623
H174	H	1.348128	0.932679	0.028377
H175	H	0.966597	0.530233	-0.486240
H176	H	1.466597	1.030233	0.013760
H177	H	0.962042	0.464739	-0.424190
H178	H	1.462042	0.964739	0.075810
O179	O	1.063493	0.382443	-0.718267
O180	O	1.563493	0.882443	-0.218267
C181	C	1.154857	0.390904	-0.798113
C182	C	1.654857	0.890904	-0.298113
C183	C	1.107231	0.346650	-0.759236
C184	C	1.607231	0.846650	-0.259236
H185	H	1.190223	0.361983	-0.831257
H186	H	1.690223	0.861983	-0.331257
H187	H	1.185818	0.419678	-0.760735
H188	H	1.685818	0.919678	-0.260735
H189	H	1.123752	0.423820	-0.831164
H190	H	1.623752	0.923820	-0.331164
H191	H	1.138285	0.313695	-0.726184
H192	H	1.638285	0.813695	-0.226184
H193	H	1.076269	0.317920	-0.796651
H194	H	1.576269	0.817920	-0.296651
H195	H	1.056692	0.376133	-1.068446
H196	H	1.556692	0.876133	-0.568446
O197	O	0.892751	0.938488	-0.411350
O198	O	1.392751	1.438488	0.088650
C199	C	0.801306	0.864363	-0.420347
C200	C	1.301306	1.364363	0.079653
C201	C	0.848977	0.900545	-0.372813
C202	C	1.348977	1.400545	0.127187
H203	H	0.765894	0.833686	-0.389208
H204	H	1.265894	1.333686	0.110792
H205	H	0.832309	0.833491	-0.455750
H206	H	1.332309	1.333491	0.044250
H207	H	0.770392	0.899165	-0.451279
H208	H	1.270392	1.399165	0.048721
H209	H	0.879902	0.865788	-0.341837
H210	H	1.379902	1.365788	0.158163
H211	H	0.817936	0.931425	-0.337455
H212	H	1.317936	1.431425	0.162545
H213	H	1.056658	0.376172	-0.940212
H214	H	1.556658	0.876172	-0.440212
H215	H	1.056645	0.662128	-0.247663
H216	H	1.556645	1.162128	0.252337
O217	O	0.230963	0.382792	-0.411350
O218	O	0.730963	0.882792	0.088650
C219	C	0.238422	0.462725	-0.497097
C220	C	0.738422	0.962725	0.002903
C221	C	0.277269	0.418357	-0.449552
C222	C	0.777269	0.918357	0.050448
H223	H	0.275844	0.491482	-0.528006
H224	H	0.775844	0.991482	-0.028006
H225	H	0.205314	0.495648	-0.465999
H226	H	0.705314	0.995648	0.034001
H227	H	0.205342	0.433856	-0.532520
H228	H	0.705342	0.933856	-0.032520
H229	H	0.310385	0.447176	-0.414120
H230	H	0.810385	0.947176	0.085880
H231	H	0.310334	0.385432	-0.480693
H232	H	0.810334	0.885432	0.019307
H233	H	0.236423	0.230129	-0.247751
H234	H	0.736423	0.730129	0.252249
H235	H	1.056758	0.943702	-0.247725
H236	H	1.556758	1.443702	0.252275
O237	O	0.892772	0.223794	-0.579018
O238	O	1.392772	0.723794	-0.079018
C239	C	0.806980	0.143902	-0.586498
C240	C	1.306980	0.643902	-0.086498
C241	C	0.854609	0.188184	-0.625333
C242	C	1.354609	0.688184	-0.125333
H243	H	0.776123	0.115091	-0.623927
H244	H	1.276123	0.615091	-0.123927
H245	H	0.771519	0.172779	-0.553411
H246	H	1.271519	0.672779	-0.053411
H247	H	0.838078	0.111022	-0.553399
H248	H	1.338078	0.611022	-0.053399
H249	H	0.823565	0.221074	-0.658469
H250	H	1.323565	0.721074	-0.158469
H251	H	0.890072	0.159269	-0.658378
H252	H	1.390072	0.659269	-0.158378
H253	H	1.056606	0.376231	-0.584443
H254	H	1.556606	0.876231	-0.084443
O255	O	0.892652	0.667221	-0.411447
O256	O	1.392652	1.167221	0.088553
C257	C	0.806699	0.660296	-0.497210
C258	C	1.306699	1.160296	0.002790
C259	C	0.854335	0.624161	-0.449599
C260	C	1.354335	1.124161	0.050401
H261	H	0.775697	0.625498	-0.528057
H262	H	1.275697	1.125498	-0.028057
H263	H	0.837731	0.691009	-0.532681
H264	H	1.337731	1.191009	-0.032681
H265	H	0.771367	0.691141	-0.466098
H266	H	1.271367	1.191141	0.033902
H267	H	0.889677	0.593282	-0.480656
H268	H	1.389677	1.093282	0.019344
H269	H	0.823261	0.593488	-0.414126
H270	H	1.323261	1.093488	0.085874
H271	H	0.364652	0.376396	-0.404519
H272	H	0.864652	0.876396	0.095481
O273	O	0.725865	0.382731	-0.411341
O274	O	1.225865	0.882731	0.088659
C275	C	0.718392	0.462720	-0.497031
C276	C	1.218392	0.962720	0.002969
C277	C	0.679553	0.418377	-0.449470
C278	C	1.179553	0.918377	0.050530
H279	H	0.680966	0.491560	-0.527861
H280	H	1.180966	0.991560	-0.027861
H281	H	0.751495	0.433889	-0.532521
H282	H	1.251495	0.933889	-0.032521
H283	H	0.751477	0.495571	-0.465880
H284	H	1.251477	0.995571	0.034120
H285	H	0.646432	0.385518	-0.480567
H286	H	1.146432	0.885518	0.019433
H287	H	0.646493	0.447247	-0.413979
H288	H	1.146493	0.947247	0.086021
H289	H	0.364657	0.230123	-0.247737
H290	H	0.864657	0.730123	0.252263
O291	O	0.586528	0.223834	-0.240959
O292	O	1.086528	0.723834	0.259041
C293	C	0.477635	0.188078	-0.202702
C294	C	0.977635	0.688078	0.297298
C295	C	0.516544	0.232401	-0.250226
C296	C	1.016544	0.732401	0.249774
H297	H	0.421046	0.194979	-0.210188
H298	H	0.921046	0.694979	0.289812
H299	H	0.491456	0.199062	-0.148086
H300	H	0.991456	0.699062	0.351914
H301	H	0.491606	0.137341	-0.214683
H302	H	0.991606	0.637341	0.285317
H303	H	0.502595	0.283153	-0.238306
H304	H	1.002595	0.783153	0.261694
H305	H	0.502720	0.221362	-0.304829
H306	H	1.002720	0.721362	0.195171
O307	O	0.892780	0.223880	-0.718288
O308	O	1.392780	0.723880	-0.218288
C309	C	0.801423	0.215397	-0.798097
C310	C	1.301423	0.715397	-0.298097
C311	C	0.849053	0.259661	-0.759217
C312	C	1.349053	0.759661	-0.259217
H313	H	0.766068	0.244307	-0.831208
H314	H	1.266068	0.744307	-0.331208
H315	H	0.770453	0.186644	-0.760721
H316	H	1.270453	0.686644	-0.260721
H317	H	0.832527	0.182460	-0.831182
H318	H	1.332527	0.682460	-0.331182
H319	H	0.818001	0.292636	-0.726131
H320	H	1.318001	0.792636	-0.226131
H321	H	0.880025	0.288369	-0.796629
H322	H	1.380025	0.788369	-0.296629
O323	O	0.725957	0.223842	-0.240823
O324	O	1.225957	0.723842	0.259177
C325	C	0.747531	0.193125	-0.125749
C326	C	1.247531	0.693125	0.374251
C327	C	0.708648	0.237442	-0.173319
C328	C	1.208648	0.737442	0.326681
H329	H	0.733540	0.204095	-0.071163
H330	H	1.233540	0.704095	0.428837
H331	H	0.804131	0.200048	-0.133109
H332	H	1.304131	0.700048	0.366891
H333	H	0.733672	0.142384	-0.137768
H334	H	1.233672	0.642384	0.362232
H335	H	0.722450	0.288200	-0.161330
H336	H	1.222450	0.788200	0.338670
H337	H	0.652057	0.230464	-0.165951
H338	H	1.152057	0.730464	0.334049
O339	O	0.892837	0.223723	-0.934778
O340	O	1.392837	0.723723	-0.434778
C341	C	0.807046	0.143829	-0.942251
C342	C	1.307046	0.643829	-0.442251
C343	C	0.854672	0.188111	-0.981090
C344	C	1.354672	0.688111	-0.481090
H345	H	0.776188	0.115016	-0.979677
H346	H	1.276188	0.615016	-0.479677
H347	H	0.771585	0.172706	-0.909164
H348	H	1.271585	0.672706	-0.409164
H349	H	0.838147	0.110950	-0.909152
H350	H	1.338147	0.610950	-0.409152
H351	H	0.823626	0.220998	-1.014226
H352	H	1.323626	0.720998	-0.514226
H353	H	0.890135	0.159195	-1.014135
H354	H	1.390135	0.659195	-0.514135
