data_functionalizedCrystal
_audit_creation_method	'MofGen! by Chris Wilmer'
_symmetry_space_group_name_H-M	'P1'
_symmetry_Int_Tables_number	1
_symmetry_cell_setting	triclinic
loop_
_symmetry_equiv_pos_as_xyz
  x,y,z
_cell_length_a	19.288864
_cell_length_b	14.044220
_cell_length_c	17.766277
_cell_angle_alpha	89.993125
_cell_angle_beta	89.976791
_cell_angle_gamma	88.162561
loop_
_atom_site_label
_atom_site_type_symbol
_atom_site_fract_x
_atom_site_fract_y
_atom_site_fract_z
O1	O	0.928949	0.118215	-0.062840
O2	O	0.727713	0.134161	-0.062789
O3	O	0.825310	-0.011784	-0.062806
O4	O	0.831351	0.264160	-0.062822
O5	O	0.825291	-0.011791	0.062383
O6	O	0.727693	0.134154	0.062400
O7	O	0.928929	0.118207	0.062349
Cu8	Cu	0.828310	0.126180	0.073805
Cu9	Cu	0.828332	0.126189	-0.074245
O10	O	0.831332	0.264152	0.062366
C11	C	0.701794	0.133645	-0.000188
C12	C	0.624591	0.132104	-0.000168
C13	C	0.585397	0.217738	-0.000185
C14	C	0.512857	0.216291	-0.000193
C15	C	0.479514	0.129205	-0.000200
C16	C	0.518717	0.043560	-0.000178
C17	C	0.591256	0.045010	-0.000163
C18	C	0.366860	0.060749	-0.044080
C19	C	0.294323	0.059303	-0.044100
C20	C	0.255781	0.124731	-0.000245
C21	C	0.289785	0.191621	0.043621
C22	C	0.362323	0.193071	0.043637
C23	C	0.400858	0.127624	-0.000216
C24	C	0.137930	0.208802	-0.000270
C25	C	0.065389	0.207351	-0.000273
C26	C	0.071251	0.034617	-0.000266
C27	C	0.143790	0.036071	-0.000255
C28	C	0.177126	0.123165	-0.000260
C29	C	0.822656	-0.047091	-0.000211
C30	C	0.814768	-0.152283	-0.000208
C31	C	0.800348	-0.344882	-0.000215
C32	C	0.856291	-0.402755	-0.000231
C33	C	0.848267	-0.509924	-0.000235
C34	C	0.808370	-0.237703	-0.000211
C35	C	0.954848	0.118724	-0.000254
C36	C	1.032051	0.120264	-0.000278
C37	C	0.833986	0.299459	-0.000231
C38	C	0.841874	0.404651	-0.000239
N39	N	0.828299	0.126173	0.177935
N40	N	0.828348	0.126188	-0.178375
C41	C	0.871532	0.061580	0.217315
C42	C	0.871536	0.061576	0.296116
C43	C	0.828314	0.126181	0.335536
C44	C	0.785072	0.190779	0.296147
C45	C	0.785064	0.190775	0.217347
C46	C	0.824563	0.212524	0.460370
C47	C	0.824575	0.212529	0.539169
C48	C	0.828333	0.126192	0.578582
C49	C	0.832093	0.039847	0.539187
C50	C	0.832085	0.039843	0.460387
C51	C	0.828317	0.126192	0.420982
C52	C	0.871573	0.061589	0.703407
C53	C	0.871572	0.061583	0.782211
C54	C	0.785111	0.190794	0.782240
C55	C	0.785109	0.190792	0.703438
C56	C	0.828343	0.126190	0.664027
H57	H	0.480939	0.286027	-0.000205
C58	C	0.727508	-0.386681	-0.000187
N59	N	0.672645	-0.418174	-0.000159
C60	C	0.634371	-0.049199	-0.000149
N61	N	0.666846	-0.120158	-0.000141
C62	C	0.186906	-0.058135	-0.000245
N63	N	0.219380	-0.129095	-0.000236
C64	C	0.919084	-0.009493	0.173967
N65	N	0.954898	-0.063029	0.141316
H66	H	0.749907	0.243393	0.671373
H67	H	0.906775	0.008983	0.671317
H68	H	0.910212	-0.371814	-0.000296
H69	H	0.906743	0.008975	0.328185
C70	C	0.820429	0.307507	0.417024
N71	N	0.817315	0.379047	0.384376
C72	C	0.247394	0.263596	0.091869
N73	N	0.215463	0.317805	0.128208
H74	H	0.266642	0.004841	-0.079822
H75	H	0.835145	-0.030462	0.428314
C76	C	0.820432	0.307510	0.582496
N77	N	0.817308	0.379052	0.615129
C78	C	0.836225	-0.055132	0.582535
N79	N	0.839338	-0.126667	0.615189
C80	C	0.174601	0.304607	-0.000266
N81	N	0.202220	0.376768	-0.000262
H82	H	0.906775	0.008979	0.814274
H83	H	0.749916	0.243393	0.814335
C84	C	0.737524	0.261840	0.339510
N85	N	0.701707	0.315362	0.372171
H86	H	0.749858	0.243375	0.185284
H87	H	0.491565	-0.027346	-0.000194
H88	H	0.033478	0.277088	-0.000283
C89	C	0.622061	0.313545	-0.000176
N90	N	0.649678	0.385708	-0.000164
C91	C	0.409249	-0.011229	-0.092331
N92	N	0.441175	-0.065439	-0.128674
C93	C	0.034578	-0.061179	-0.000272
N94	N	0.006952	-0.133335	-0.000275
C95	C	0.399725	0.266640	0.091897
N96	N	0.427896	0.322049	0.128250
