data_functionalizedCrystal
_audit_creation_method	'MofGen! by Chris Wilmer'
_symmetry_space_group_name_H-M	'P1'
_symmetry_Int_Tables_number	1
_symmetry_cell_setting	triclinic
loop_
_symmetry_equiv_pos_as_xyz
  x,y,z
_cell_length_a	10.654550
_cell_length_b	17.699083
_cell_length_c	9.730223
_cell_angle_alpha	89.994713
_cell_angle_beta	89.999957
_cell_angle_gamma	83.883973
loop_
_atom_site_label
_atom_site_type_symbol
_atom_site_fract_x
_atom_site_fract_y
_atom_site_fract_z
O1	O	1.665978	0.106302	-0.114190
O2	O	1.300323	0.116430	-0.114216
O3	O	1.493481	0.001243	-0.114190
O4	O	1.472820	0.221490	-0.114216
O5	O	1.493469	0.001240	0.114390
O6	O	1.300310	0.116427	0.114364
O7	O	1.665966	0.106299	0.114390
Zn8	Zn	1.483136	0.111363	0.150669
Zn9	Zn	1.483152	0.111367	-0.150495
O10	O	1.472807	0.221487	0.114364
C11	C	1.253531	0.115685	0.000071
C12	C	1.114127	0.113460	0.000061
C13	C	1.033454	0.181281	0.000058
C14	C	0.902470	0.179186	0.000082
C15	C	0.932844	0.041444	0.000108
C16	C	1.063826	0.043539	0.000094
C17	C	1.492735	-0.026960	0.000100
C18	C	1.490514	-0.110993	0.000100
C19	C	1.603894	-0.158893	0.000110
C20	C	1.601799	-0.237849	0.000098
C21	C	1.486323	-0.268904	0.000085
C22	C	1.372935	-0.220998	0.000071
C23	C	1.375030	-0.142043	0.000074
C24	C	1.364481	-0.539415	0.000060
C25	C	1.362394	-0.618376	0.000061
C26	C	1.591249	-0.635221	0.000083
C27	C	1.593345	-0.556266	0.000086
C28	C	1.479957	-0.508367	0.000065
C29	C	1.482229	-0.422753	0.000075
C30	C	1.484050	-0.354516	0.000085
C31	C	1.712757	0.107045	0.000100
C32	C	1.852161	0.109269	0.000100
C33	C	1.473554	0.249690	0.000071
C34	C	1.475775	0.333722	0.000061
N35	N	1.483134	0.111359	0.356205
N36	N	1.483164	0.111364	-0.356032
C37	C	1.568694	0.060376	0.428142
C38	C	1.568706	0.060376	0.572025
C39	C	1.397596	0.162350	0.572021
C40	C	1.397578	0.162345	0.428141
H41	H	1.129514	-0.011692	0.000101
C42	C	1.250316	-0.089350	0.000063
H43	H	1.268102	-0.037879	0.000051
H44	H	1.202944	-0.098829	0.079766
H45	H	1.202968	-0.098825	-0.079666
H46	H	0.836791	0.234412	0.000081
H47	H	1.074405	0.238215	0.000042
C48	C	1.662798	0.004296	0.349011
H49	H	1.650547	0.011599	0.253017
H50	H	1.649332	-0.046295	0.372603
H51	H	1.746582	0.012996	0.372583
H52	H	1.687377	-0.530986	0.000103
H53	H	1.697927	-0.133614	0.000128
H54	H	1.327900	0.203862	0.369565
C55	C	0.877508	-0.035463	0.000126
H56	H	0.787946	-0.026999	0.000119
H57	H	0.905218	-0.063419	0.079837
H58	H	0.905210	-0.063413	-0.079595
C59	C	1.726517	-0.290536	0.000123
H60	H	1.795589	-0.260733	0.000150
H61	H	1.730474	-0.321684	-0.079587
H62	H	1.730442	-0.321689	0.079845
H63	H	1.683575	-0.674231	0.000094
C64	C	1.235365	-0.652535	0.000030
H65	H	1.168134	-0.612700	0.000002
H66	H	1.229777	-0.682990	0.079737
H67	H	1.229813	-0.682981	-0.079694
C68	C	1.239759	-0.486736	0.000060
H69	H	1.170690	-0.516541	0.000072
H70	H	1.235811	-0.455578	-0.079647
H71	H	1.235820	-0.455593	0.079785
C72	C	1.245914	-0.255156	0.000062
H73	H	1.260902	-0.309040	0.000077
H74	H	1.199241	-0.238753	-0.079651
H75	H	1.199241	-0.238757	0.079781
H76	H	1.638375	0.018860	0.630593
H77	H	1.327940	0.203863	0.630605
