data_functionalizedCrystal
_audit_creation_method	'MofGen! by Chris Wilmer'
_symmetry_space_group_name_H-M	'P1'
_symmetry_Int_Tables_number	1
_symmetry_cell_setting	triclinic
loop_
_symmetry_equiv_pos_as_xyz
  x,y,z
_cell_length_a	18.050591
_cell_length_b	18.050589
_cell_length_c	18.050571
_cell_angle_alpha	89.916021
_cell_angle_beta	89.932189
_cell_angle_gamma	90.024669
loop_
_atom_site_label
_atom_site_type_symbol
_atom_site_fract_x
_atom_site_fract_y
_atom_site_fract_z
Zn1	Zn	1.135645	-0.295295	-0.420032
Zn2	Zn	1.468978	0.038039	-0.086699
Zn3	Zn	1.802312	0.371372	0.246635
Zn4	Zn	1.135451	-0.419621	-0.295851
Zn5	Zn	1.468785	-0.086287	0.037482
Zn6	Zn	1.802118	0.247046	0.370816
Zn7	Zn	1.011360	-0.295441	-0.295845
Zn8	Zn	1.344693	0.037892	0.037488
Zn9	Zn	1.678027	0.371225	0.370821
Zn10	Zn	1.011412	-0.419440	-0.419989
Zn11	Zn	1.344745	-0.086106	-0.086656
Zn12	Zn	1.678079	0.247227	0.246677
O13	O	1.073467	-0.357449	-0.357929
O14	O	1.406800	-0.024116	-0.024596
O15	O	1.740134	0.309218	0.308737
O16	O	1.239544	-0.311801	-0.403579
O17	O	1.572877	0.021532	-0.070246
O18	O	1.906211	0.354866	0.263087
O19	O	1.118888	-0.403285	-0.191925
O20	O	1.452221	-0.069952	0.141408
O21	O	1.785554	0.263382	0.474741
O22	O	1.027906	-0.191497	-0.312334
O23	O	1.361239	0.141836	0.020999
O24	O	1.694572	0.475170	0.354332
O25	O	1.239402	-0.403143	-0.312344
O26	O	1.572735	-0.069809	0.020989
O27	O	1.906068	0.263524	0.354323
O28	O	1.119217	-0.191389	-0.403574
O29	O	1.452551	0.141944	-0.070240
O30	O	1.785884	0.475277	0.263093
O31	O	1.027718	-0.312051	-0.191921
O32	O	1.361052	0.021282	0.141412
O33	O	1.694385	0.354616	0.474746
O34	O	0.907442	-0.311876	-0.312293
O35	O	1.240776	0.021458	0.021040
O36	O	1.574109	0.354791	0.354374
O37	O	1.027995	-0.402835	-0.523920
O38	O	1.361328	-0.069501	-0.190587
O39	O	1.694661	0.263832	0.142747
O40	O	0.907481	-0.402977	-0.403501
O41	O	1.240814	-0.069643	-0.070168
O42	O	1.574147	0.263690	0.263166
O43	O	1.119268	-0.311626	-0.523951
O44	O	1.452601	0.021708	-0.190618
O45	O	1.785935	0.355041	0.142716
O46	O	1.118938	-0.523521	-0.312303
O47	O	1.452272	-0.190188	0.021030
O48	O	1.785605	0.143145	0.354364
O49	O	1.027807	-0.523388	-0.403507
O50	O	1.361140	-0.190055	-0.070173
O51	O	1.694474	0.143278	0.263160
C52	C	0.880515	-0.357423	-0.357892
C53	C	1.213848	-0.024090	-0.024559
C54	C	1.547182	0.309244	0.308774
C55	C	0.797969	-0.357430	-0.357894
C56	C	1.131303	-0.024096	-0.024561
C57	C	1.464636	0.309237	0.308773
C58	C	0.549101	-0.307837	-0.308412
C59	C	0.882435	0.025496	0.024921
C60	C	1.215768	0.358829	0.358254
C61	C	0.598590	-0.289678	-0.376187
C62	C	0.931924	0.043655	-0.042854
C63	C	1.265257	0.376988	0.290479
C64	C	0.500849	-0.357467	-0.357955
C65	C	0.834182	-0.024134	-0.024621
C66	C	1.167516	0.309199	0.308712
C67	C	0.598442	-0.375573	-0.290154
C68	C	0.931775	-0.042239	0.043180
C69	C	1.265108	0.291094	0.376513
C70	C	0.646834	-0.357447	-0.357921
C71	C	0.980167	-0.024114	-0.024588
C72	C	1.313501	0.309220	0.308745
C73	C	0.549251	-0.339274	-0.425766
C74	C	0.882584	-0.005940	-0.092432
C75	C	1.215917	0.327393	0.240901
C76	C	0.549098	-0.425199	-0.339687
C77	C	0.882431	-0.091866	-0.006353
C78	C	1.215764	0.241467	0.326980
C79	C	0.598564	-0.407066	-0.407508
C80	C	0.931898	-0.073733	-0.074175
C81	C	1.265231	0.259600	0.259158
C82	C	0.416751	-0.357477	-0.357973
C83	C	0.750084	-0.024144	-0.024640
C84	C	1.083417	0.309189	0.308694
C85	C	0.730930	-0.357437	-0.357911
C86	C	1.064264	-0.024104	-0.024577
C87	C	1.397597	0.309229	0.308756
C88	C	1.073377	-0.550401	-0.357917
C89	C	1.406711	-0.217068	-0.024584
C90	C	1.740044	0.116265	0.308750
C91	C	1.073407	-0.632947	-0.357937
C92	C	1.406740	-0.299614	-0.024603
C93	C	1.740074	0.033720	0.308730
C94	C	1.023899	-0.832352	-0.407516
C95	C	1.357232	-0.499019	-0.074183
C96	C	1.690565	-0.165686	0.259151
C97	C	1.005744	-0.881863	-0.339747
C98	C	1.339077	-0.548530	-0.006414
C99	C	1.672411	-0.215196	0.326920
C100	C	1.073480	-0.784077	-0.357946
C101	C	1.406813	-0.450744	-0.024613
C102	C	1.740147	-0.117411	0.308720
C103	C	1.091671	-0.881648	-0.425723
C104	C	1.425005	-0.548315	-0.092390
C105	C	1.758338	-0.214982	0.240944
C106	C	1.073549	-0.930062	-0.357962
C107	C	1.406882	-0.596729	-0.024628
C108	C	1.740216	-0.263396	0.308705
C109	C	1.055290	-0.832501	-0.290141
C110	C	1.388623	-0.499167	0.043192
C111	C	1.721956	-0.165834	0.376525
C112	C	1.141249	-0.832282	-0.376163
C113	C	1.474582	-0.498948	-0.042830
C114	C	1.807915	-0.165615	0.290503
C115	C	1.123119	-0.881770	-0.308348
C116	C	1.456453	-0.548437	0.024986
C117	C	1.789786	-0.215103	0.358319
C118	C	1.073438	-0.699979	-0.357938
C119	C	1.406772	-0.366646	-0.024605
C120	C	1.740105	-0.033312	0.308728
C121	C	1.073591	-1.014159	-0.357962
C122	C	1.406924	-0.680825	-0.024628
C123	C	1.740258	-0.347492	0.308705
C124	C	1.267173	-0.357476	-0.357967
C125	C	1.600506	-0.024142	-0.024634
C126	C	1.933839	0.309191	0.308700
C127	C	1.349719	-0.357487	-0.357983
C128	C	1.683052	-0.024154	-0.024650
C129	C	2.016385	0.309179	0.308683
C130	C	1.073659	-0.357194	-0.551635
C131	C	1.406992	-0.023860	-0.218302
C132	C	1.740325	0.309473	0.115031
C133	C	1.073740	-0.357085	-0.634182
C134	C	1.407074	-0.023751	-0.300848
C135	C	1.740407	0.309582	0.032485
C136	C	1.073577	-0.163743	-0.357958
C137	C	1.406911	0.169590	-0.024625
C138	C	1.740244	0.502923	0.308709
C139	C	1.073624	-0.081198	-0.357970
C140	C	1.406958	0.252136	-0.024637
C141	C	1.740291	0.585469	0.308696
C142	C	1.073319	-0.357650	-0.164977
C143	C	1.406652	-0.024316	0.168357
C144	C	1.739986	0.309017	0.501690
C145	C	1.073381	-0.357549	-0.082431
C146	C	1.406715	-0.024216	0.250902
C147	C	1.740048	0.309117	0.584235
C148	C	1.023637	-0.308031	0.166358
C149	C	1.356970	0.025303	0.499692
C150	C	1.690304	0.358636	0.833025
C151	C	1.005883	-0.375963	0.117174
C152	C	1.339216	-0.042630	0.450507
C153	C	1.672550	0.290703	0.783841
C154	C	1.073619	-0.357243	0.214688
C155	C	1.406952	-0.023910	0.548022
C156	C	1.740286	0.309424	0.881355
C157	C	1.091220	-0.289466	0.116792
C158	C	1.424554	0.043867	0.450125
C159	C	1.757887	0.377200	0.783458
C160	C	1.073500	-0.357390	0.068704
C161	C	1.406834	-0.024057	0.402037
C162	C	1.740167	0.309277	0.735370
C163	C	1.055831	-0.425211	0.166591
C164	C	1.389164	-0.091877	0.499925
C165	C	1.722498	0.241456	0.833258
C166	C	1.141200	-0.338668	0.166213
C167	C	1.474533	-0.005334	0.499547
C168	C	1.807866	0.327999	0.832880
C169	C	1.123472	-0.406647	0.117051
C170	C	1.456805	-0.073314	0.450384
C171	C	1.790138	0.260020	0.783718
C172	C	1.073686	-0.357157	0.298787
C173	C	1.407019	-0.023824	0.632120
C174	C	1.740352	0.309509	0.965453
C175	C	1.073434	-0.357483	-0.015393
C176	C	1.406767	-0.024150	0.317941
C177	C	1.740101	0.309183	0.651274
H178	H	0.527343	-0.482471	-0.324225
H179	H	0.860676	-0.149138	0.009109
H180	H	1.194010	0.184195	0.342442
O181	O	1.111018	-0.213462	0.087831
O182	O	1.444351	0.119871	0.421165
O183	O	1.777685	0.453205	0.754498
H184	H	1.064942	-0.192122	0.053186
H185	H	1.398276	0.141212	0.386519
H186	H	1.731609	0.474545	0.719853
H187	H	1.039865	-0.810999	-0.232814
H188	H	1.373198	-0.477666	0.100520
H189	H	1.706531	-0.144333	0.433853
H190	H	0.620054	-0.390894	-0.232829
H191	H	0.953387	-0.057561	0.100504
H192	H	1.286720	0.275772	0.433837
O193	O	1.035948	-0.501240	0.195427
O194	O	1.369281	-0.167906	0.528760
O195	O	1.702614	0.165427	0.862094
H196	H	1.036124	-0.500572	0.256913
H197	H	1.369457	-0.167239	0.590246
H198	H	1.702790	0.166094	0.923579
H199	H	0.620316	-0.232388	-0.391638
H200	H	0.953649	0.100946	-0.058305
H201	H	1.286982	0.434279	0.275029
H202	H	1.165078	-0.903331	-0.266386
H203	H	1.498412	-0.569997	0.066947
H204	H	1.831745	-0.236664	0.400280
O205	O	0.967684	-0.252887	0.195049
O206	O	1.301017	0.080447	0.528382
O207	O	1.634351	0.413780	0.861715
H208	H	0.968604	-0.252942	0.256532
H209	H	1.301937	0.080391	0.589865
H210	H	1.635271	0.413725	0.923198
H211	H	0.527731	-0.323885	-0.483106
H212	H	0.861064	0.009449	-0.149773
H213	H	1.194397	0.342782	0.183560
O214	O	1.179392	-0.461914	0.088538
O215	O	1.512725	-0.128581	0.421871
O216	O	1.846059	0.204752	0.755205
H217	H	1.164555	-0.518159	0.108594
H218	H	1.497888	-0.184826	0.441928
H219	H	1.831221	0.148508	0.775261
H220	H	0.948467	-0.903657	-0.324353
H221	H	1.281800	-0.570324	0.008980
H222	H	1.615133	-0.236991	0.342314
H223	H	0.981908	-0.810655	-0.449376
H224	H	1.315241	-0.477321	-0.116043
H225	H	1.648574	-0.143988	0.217291
H226	H	0.620143	-0.449028	-0.449439
H227	H	0.953477	-0.115695	-0.116105
H228	H	1.286810	0.217638	0.217228
H229	H	1.107030	-0.903239	-0.483035
H230	H	1.440363	-0.569906	-0.149702
H231	H	1.773697	-0.236573	0.183632
H232	H	1.198386	-0.322870	0.187777
H233	H	1.531719	0.010464	0.521110
H234	H	1.865052	0.343797	0.854444
O235	O	0.520325	-0.252219	-0.253003
O236	O	0.853658	0.081114	0.080330
O237	O	1.186991	0.414447	0.413664
H238	H	0.540149	-0.196030	-0.268335
H239	H	0.873482	0.137303	0.064998
H240	H	1.206815	0.470637	0.398332
O241	O	1.217187	-0.803576	-0.396509
O242	O	1.550520	-0.470243	-0.063176
O243	O	1.883854	-0.136909	0.270158
H244	H	1.232167	-0.823282	-0.452784
H245	H	1.565500	-0.489949	-0.119451
H246	H	1.898833	-0.156615	0.213882
O247	O	0.930118	-0.396868	0.088622
O248	O	1.263451	-0.063535	0.421955
O249	O	1.596784	0.269798	0.755288
H250	H	0.888773	-0.355878	0.108361
H251	H	1.222106	-0.022545	0.441695
H252	H	1.555440	0.310789	0.775028
