data_functionalizedCrystal
_audit_creation_method	'MofGen! by Chris Wilmer'
_symmetry_space_group_name_H-M	'P1'
_symmetry_Int_Tables_number	1
_symmetry_cell_setting	triclinic
loop_
_symmetry_equiv_pos_as_xyz
  x,y,z
_cell_length_a	10.489741
_cell_length_b	23.532407
_cell_length_c	9.565339
_cell_angle_alpha	89.995586
_cell_angle_beta	89.999100
_cell_angle_gamma	83.693926
loop_
_atom_site_label
_atom_site_type_symbol
_atom_site_fract_x
_atom_site_fract_y
_atom_site_fract_z
O1	O	1.691382	0.080340	-0.116190
O2	O	1.319936	0.087882	-0.116213
O3	O	1.516860	0.001253	-0.116175
O4	O	1.494458	0.166968	-0.116228
O5	O	1.516844	0.001259	0.116345
O6	O	1.319920	0.087887	0.116307
O7	O	1.691366	0.080345	0.116330
Zn8	Zn	1.505641	0.084117	0.153236
Zn9	Zn	1.505661	0.084110	-0.153119
O10	O	1.494442	0.166974	0.116293
C11	C	1.272415	0.087315	0.000045
C12	C	1.130842	0.085611	0.000037
C13	C	1.516282	-0.019964	0.000089
C14	C	1.514566	-0.083192	0.000099
C15	C	1.064535	0.030491	0.000067
C16	C	0.971550	0.056527	-0.114582
C17	C	0.971568	0.056545	0.114664
C18	C	1.039722	0.111668	-0.114708
C19	C	1.039750	0.111679	0.114642
C20	C	0.946792	0.137754	-0.000036
C21	C	1.620344	-0.481594	0.000029
C22	C	1.618751	-0.541005	0.000019
O23	O	1.716808	-0.577100	-0.000027
N24	N	1.501680	-0.564407	0.000012
C25	C	1.386194	-0.528395	0.000002
O26	O	1.286470	-0.553755	-0.000005
C27	C	1.387789	-0.468985	0.000003
C28	C	1.504868	-0.445587	0.000024
C29	C	1.737414	-0.458195	0.000048
C30	C	1.739007	-0.398788	0.000062
C31	C	1.623530	-0.362781	0.000056
C32	C	1.506460	-0.386180	0.000037
C33	C	1.272305	-0.432974	-0.000017
C34	C	1.273909	-0.373561	-0.000017
C35	C	1.390988	-0.350162	0.000003
C36	C	1.392576	-0.290766	0.000045
N37	N	1.509648	-0.267364	0.000051
C38	C	1.625125	-0.303371	0.000057
C39	C	1.382854	-0.653160	-0.000002
C40	C	1.381258	-0.712568	0.000008
C41	C	1.613816	-0.725174	0.000021
C42	C	1.615410	-0.665765	0.000022
C43	C	1.499926	-0.629758	0.000005
C44	C	1.628461	-0.178612	0.000086
C45	C	1.630043	-0.119200	0.000105
C46	C	1.397486	-0.106599	0.000084
C47	C	1.395903	-0.166006	0.000072
C48	C	1.511401	-0.202012	0.000068
O49	O	1.294571	-0.254636	0.000084
O50	O	1.724833	-0.278003	0.000046
C51	C	1.738887	0.080912	0.000070
C52	C	1.880460	0.082616	0.000069
C53	C	1.495021	0.188191	0.000026
C54	C	1.496736	0.251419	0.000006
N55	N	1.505636	0.084122	0.362316
N56	N	1.505676	0.084101	-0.362198
C57	C	1.414538	0.124171	0.453501
C58	C	1.529652	0.135693	0.546683
C59	C	1.390572	0.072603	0.546689
C60	C	1.620808	0.095670	0.453446
C61	C	1.481652	0.032557	0.453444
C62	C	1.596850	0.044059	0.546584
H63	H	1.115731	-0.014820	-0.000062
H64	H	0.941359	0.033215	0.211592
C65	C	1.740839	-0.764790	0.000001
H66	H	1.723112	-0.803522	-0.000021
H67	H	1.788889	-0.757655	0.081083
H68	H	1.788869	-0.757640	-0.081097
H69	H	1.461303	-0.011026	0.412456
C70	C	1.758831	-0.093462	0.000129
H71	H	1.743250	-0.052922	0.000150
H72	H	1.806355	-0.105784	-0.080952
H73	H	1.806333	-0.105796	0.081228
H74	H	1.293248	0.062870	0.587651
H75	H	1.722510	-0.207922	0.000077
H76	H	1.070015	0.134984	0.211562
H77	H	1.834344	-0.379743	0.000072
H78	H	1.831454	-0.487507	0.000048
C79	C	1.744195	-0.640031	0.000031
H80	H	1.812734	-0.669990	0.000028
H81	H	1.749654	-0.617119	0.081113
H82	H	1.749661	-0.617119	-0.081067
H83	H	0.941317	0.033202	-0.211498
C84	C	1.252472	-0.738300	-0.000003
H85	H	1.183933	-0.708342	-0.000015
H86	H	1.247000	-0.761219	0.081073
H87	H	1.247020	-0.761206	-0.081107
C88	C	1.146873	-0.333956	-0.000030
H89	H	1.076925	-0.356405	-0.000033
H90	H	1.142664	-0.310513	-0.081110
H91	H	1.142649	-0.310525	0.081070
C92	C	1.255812	-0.613556	0.000006
H93	H	1.185869	-0.636007	0.000015
H94	H	1.251590	-0.590113	-0.081075
H95	H	1.251595	-0.590124	0.081105
C96	C	1.143516	-0.458700	-0.000051
H97	H	1.074983	-0.428739	-0.000073
H98	H	1.138030	-0.481618	0.081026
H99	H	1.138068	-0.481606	-0.081154
C100	C	1.310568	0.169963	0.398269
H101	H	1.327841	0.206571	0.430195
H102	H	1.228972	0.162149	0.431562
H103	H	1.310771	0.169426	0.298961
H104	H	1.300568	-0.185058	0.000094
C105	C	1.080314	0.143143	-0.245805
H106	H	1.006680	0.155212	-0.300479
H107	H	1.138395	0.118101	-0.299390
H108	H	1.120895	0.175543	-0.218415
H109	H	1.303468	-0.077271	0.000084
C110	C	1.557101	0.194586	0.602022
H111	H	1.633199	0.190383	0.656638
H112	H	1.487259	0.210362	0.658081
H113	H	1.567797	0.219344	0.525471
H114	H	1.673989	0.010180	0.587197
C115	C	1.752308	0.108896	0.398360
H116	H	1.751476	0.108844	0.299044
H117	H	1.817061	0.080611	0.430972
H118	H	1.769498	0.145403	0.431062
H119	H	0.895860	0.183113	-0.000113
