data_functionalizedCrystal
_audit_creation_method	'MofGen! by Chris Wilmer'
_symmetry_space_group_name_H-M	'P1'
_symmetry_Int_Tables_number	1
_symmetry_cell_setting	triclinic
loop_
_symmetry_equiv_pos_as_xyz
  x,y,z
_cell_length_a	14.971491
_cell_length_b	23.532407
_cell_length_c	13.448316
_cell_angle_alpha	89.984904
_cell_angle_beta	89.991393
_cell_angle_gamma	83.232490
loop_
_atom_site_label
_atom_site_type_symbol
_atom_site_fract_x
_atom_site_fract_y
_atom_site_fract_z
O1	O	1.186160	0.074230	-0.082754
O2	O	1.686160	0.574230	0.417246
O3	O	0.925667	0.083115	-0.082749
O4	O	1.425667	0.583115	0.417251
O5	O	1.063769	-0.004225	-0.082723
O6	O	1.563769	0.495775	0.417277
O7	O	1.048059	0.161571	-0.082779
O8	O	1.548059	0.661571	0.417221
O9	O	1.063752	-0.004231	0.082660
O10	O	1.563752	0.495769	0.582660
O11	O	0.925650	0.083110	0.082635
O12	O	1.425650	0.583110	0.582635
O13	O	1.186143	0.074225	0.082630
O14	O	1.686143	0.574225	0.582630
Cu15	Cu	1.055895	0.078667	0.097734
Cu16	Cu	1.555895	0.578667	0.597734
Cu17	Cu	1.055915	0.078673	-0.097852
Cu18	Cu	1.555915	0.578673	0.402148
O19	O	1.048041	0.161565	0.082605
O20	O	1.548041	0.661565	0.582605
C21	C	0.892338	0.082714	-0.000056
C22	C	1.392338	0.582714	0.499944
C23	C	0.793054	0.081522	-0.000052
C24	C	1.293054	0.581522	0.499948
C25	C	0.365412	0.076380	-0.090224
C26	C	0.865412	0.576380	0.409776
C27	C	0.458700	0.077499	-0.090221
C28	C	0.958700	0.577499	0.409779
C29	C	0.505331	0.078059	-0.000067
C30	C	1.005331	0.578059	0.499933
C31	C	0.458669	0.077495	0.090090
C32	C	0.958669	0.577495	0.590090
C33	C	0.365383	0.076372	0.090085
C34	C	0.865383	0.576372	0.590085
C35	C	0.653106	0.079836	0.090092
C36	C	1.153106	0.579836	0.590092
C37	C	0.746398	0.080960	0.090097
C38	C	1.246398	0.580960	0.590097
C39	C	0.746423	0.080963	-0.090214
C40	C	1.246423	0.580963	0.409786
C41	C	0.653137	0.079840	-0.090218
C42	C	1.153137	0.579840	0.409782
C43	C	0.606482	0.079277	-0.000061
C44	C	1.106482	0.579277	0.499939
C45	C	1.063360	-0.025446	-0.000026
C46	C	1.563360	0.474554	0.499974
C47	C	1.062157	-0.088668	-0.000011
C48	C	1.562157	0.411332	0.499989
C49	C	0.975471	-0.355208	-0.000072
C50	C	1.475471	0.144792	0.499928
C51	C	0.976589	-0.295803	-0.000064
C52	C	1.476589	0.204197	0.499936
O53	O	0.907821	-0.259353	-0.000094
O54	O	1.407821	0.240647	0.499906
N55	N	1.058690	-0.272824	-0.000054
N56	N	1.558690	0.227176	0.499946
C57	C	1.139679	-0.309254	-0.000062
C58	C	1.639679	0.190746	0.499938
O59	O	1.209616	-0.284253	-0.000054
O60	O	1.709616	0.215747	0.499946
C61	C	1.138561	-0.368657	-0.000077
C62	C	1.638561	0.131343	0.499923
C63	C	1.056454	-0.391633	-0.000077
C64	C	1.556454	0.108367	0.499923
C65	C	0.893371	-0.378184	-0.000072
C66	C	1.393371	0.121816	0.499928
C67	C	0.892254	-0.437585	-0.000078
C68	C	1.392254	0.062415	0.499922
C69	C	0.973237	-0.474010	-0.000083
C70	C	1.473237	0.025990	0.499917
C71	C	1.055337	-0.451034	-0.000082
C72	C	1.555337	0.048966	0.499918
C73	C	1.219550	-0.405086	-0.000092
C74	C	1.719550	0.094914	0.499908
C75	C	1.218424	-0.464493	-0.000107
C76	C	1.718424	0.035507	0.499893
C77	C	1.136318	-0.487469	-0.000107
C78	C	1.636318	0.012531	0.499893
C79	C	1.135204	-0.546860	-0.000093
C80	C	1.635204	-0.046860	0.499907
N81	N	1.053102	-0.569838	-0.000103
N82	N	1.553102	-0.069838	0.499897
C83	C	0.972119	-0.533413	-0.000098
C84	C	1.472119	-0.033413	0.499902
C85	C	1.142022	-0.184501	-0.000033
C86	C	1.642022	0.315499	0.499967
C87	C	1.143141	-0.125098	-0.000011
C88	C	1.643141	0.374902	0.499989
C89	C	0.980050	-0.111651	-0.000015
C90	C	1.480050	0.388349	0.499985
C91	C	0.978931	-0.171055	-0.000030
C92	C	1.478931	0.328945	0.499970
C93	C	1.059920	-0.207480	-0.000043
C94	C	1.559920	0.292520	0.499957
C95	C	0.969780	-0.658160	-0.000109
C96	C	1.469780	-0.158160	0.499891
C97	C	0.968670	-0.717567	-0.000111
C98	C	1.468670	-0.217567	0.499889
C99	C	1.131761	-0.731009	-0.000112
C100	C	1.631761	-0.231009	0.499888
C101	C	1.132871	-0.671607	-0.000105
C102	C	1.632871	-0.171607	0.499895
C103	C	1.051873	-0.635184	-0.000107
C104	C	1.551873	-0.135184	0.499893
O105	O	1.203935	-0.583344	-0.000067
O106	O	1.703935	-0.083344	0.499933
O107	O	0.902194	-0.558422	-0.000119
O108	O	1.402194	-0.058422	0.499881
C109	C	1.219472	0.074626	-0.000065
C110	C	1.719472	0.574626	0.499935
C111	C	1.318756	0.075818	-0.000075
C112	C	1.818756	0.575818	0.499925
C113	C	1.048450	0.182786	-0.000094
C114	C	1.548450	0.682786	0.499906
C115	C	1.049653	0.246008	-0.000116
C116	C	1.549653	0.746008	0.499884
N117	N	1.055887	0.078662	0.235298
N118	N	1.555887	0.578662	0.735298
N119	N	1.055930	0.078674	-0.235416
N120	N	1.555930	0.578674	0.264584
C121	C	1.117057	0.040004	0.287349
C122	C	1.617057	0.540004	0.787349
C123	C	1.117063	0.040003	0.391453
C124	C	1.617063	0.540003	0.891453
C125	C	1.055902	0.078664	0.443502
C126	C	1.555902	0.578664	0.943502
C127	C	0.994725	0.117324	0.391444
C128	C	1.494725	0.617324	0.891444
C129	C	0.994716	0.117322	0.287342
C130	C	1.494716	0.617322	0.787342
C131	C	0.994750	0.117328	0.608424
C132	C	1.494750	0.617328	1.108424
C133	C	0.994760	0.117332	0.712532
C134	C	1.494760	0.617332	1.212532
C135	C	1.117097	0.040010	0.712534
C136	C	1.617097	0.540010	1.212534
C137	C	1.117088	0.040007	0.608433
C138	C	1.617088	0.540007	1.108433
C139	C	1.055912	0.078668	0.556381
C140	C	1.555912	0.578668	1.056381
H141	H	0.327396	0.075920	0.163494
H142	H	0.827396	0.575920	0.663494
Br143	Br	0.809737	0.081737	-0.212570
Br144	Br	1.309737	0.581737	0.287430
Br145	Br	0.589790	0.079063	0.212449
Br146	Br	1.089790	0.579063	0.712449
H147	H	1.210000	-0.106397	0.000004
H148	H	1.710000	0.393603	0.500004
Br149	Br	0.859853	-0.608738	-0.000111
Br150	Br	1.359853	-0.108738	0.499889
H151	H	0.615172	0.079388	-0.163629
H152	H	1.115172	0.579388	0.336371
H153	H	1.166865	0.008524	0.244977
H154	H	1.666865	0.508524	0.744977
Br155	Br	1.200077	-0.012464	0.462097
Br156	Br	1.700077	0.487536	0.962097
Br157	Br	0.809683	0.081717	0.212450
Br158	Br	1.309683	0.581717	0.712450
Br159	Br	0.521953	0.078252	0.212443
Br160	Br	1.021953	0.578252	0.712443
Br161	Br	0.857232	-0.748744	-0.000105
Br162	Br	1.357232	-0.248744	0.499895
Br163	Br	0.780818	-0.468756	-0.000088
Br164	Br	1.280818	0.031244	0.499912
H165	H	0.827421	-0.348531	-0.000072
H166	H	1.327421	0.151469	0.499928
H167	H	0.912073	-0.189757	-0.000025
H168	H	1.412073	0.310243	0.499975
Br169	Br	0.870143	-0.062206	-0.000006
Br170	Br	1.370143	0.437794	0.499994
H171	H	1.166894	0.008529	0.566054
H172	H	1.666894	0.508529	1.066054
Br173	Br	1.251946	-0.233929	-0.000041
Br174	Br	1.751946	0.266071	0.499959
H175	H	1.286410	-0.386390	-0.000093
H176	H	1.786410	0.113610	0.499907
H177	H	1.284377	-0.494148	-0.000123
H178	H	1.784377	0.005852	0.499877
H179	H	1.199729	-0.652900	-0.000091
H180	H	1.699729	-0.152900	0.499909
Br181	Br	1.241661	-0.780454	-0.000109
Br182	Br	1.741661	-0.280454	0.499891
Br183	Br	0.522017	0.078257	-0.212572
Br184	Br	1.022017	0.578257	0.287428
H185	H	1.166908	0.008531	0.754921
H186	H	1.666908	0.508531	1.254921
Br187	Br	0.911752	0.169803	0.783164
Br188	Br	1.411752	0.669803	1.283164
H189	H	0.944931	0.148808	0.566047
H190	H	1.444931	0.648808	1.066047
H191	H	0.944922	0.148801	0.433829
H192	H	1.444922	0.648801	0.933829
H193	H	0.327451	0.075928	-0.163638
H194	H	0.827451	0.575928	0.336362
Br195	Br	0.911690	0.169785	0.216701
Br196	Br	1.411690	0.669785	0.716701
