data_functionalizedCrystal
_audit_creation_method	'MofGen! by Chris Wilmer'
_symmetry_space_group_name_H-M	'P1'
_symmetry_Int_Tables_number	1
_symmetry_cell_setting	triclinic
loop_
_symmetry_equiv_pos_as_xyz
  x,y,z
_cell_length_a	12.759401
_cell_length_b	18.215405
_cell_length_c	18.215407
_cell_angle_alpha	90.011538
_cell_angle_beta	90.006460
_cell_angle_gamma	90.025046
loop_
_atom_site_label
_atom_site_type_symbol
_atom_site_fract_x
_atom_site_fract_y
_atom_site_fract_z
Zn1	Zn	1.606056	-0.293127	0.416037
Zn2	Zn	1.605956	-0.416157	0.292965
Zn3	Zn	1.430395	-0.293109	0.292991
Zn4	Zn	1.430316	-0.416156	0.415997
O5	O	1.518181	-0.354637	0.354498
O6	O	1.753064	-0.309455	0.399717
O7	O	1.582659	-0.399828	0.189984
O8	O	1.453772	-0.190127	0.309341
O9	O	1.752990	-0.399845	0.309296
O10	O	1.582829	-0.190140	0.399742
O11	O	1.453675	-0.309425	0.190004
O12	O	1.283363	-0.309424	0.309303
O13	O	1.453636	-0.399843	0.518987
O14	O	1.283305	-0.399826	0.399674
O15	O	1.582752	-0.309454	0.519016
O16	O	1.582582	-0.519141	0.309258
O17	O	1.453540	-0.519141	0.399649
C18	C	1.245213	-0.354624	0.354488
C19	C	1.128437	-0.354636	0.354501
C20	C	1.073572	-0.401784	0.401479
C21	C	0.963848	-0.401793	0.401487
C22	C	0.963863	-0.307505	0.307532
C23	C	1.073585	-0.307492	0.307528
C24	C	1.073562	-0.456222	0.455722
C25	C	0.963838	-0.456232	0.455730
C26	C	1.518070	-0.545844	0.354462
C27	C	1.518118	-0.627643	0.354472
C28	C	1.585469	-0.815812	0.307492
C29	C	1.585516	-0.892671	0.307509
C30	C	1.451027	-0.892710	0.401556
C31	C	1.450986	-0.815853	0.401542
C32	C	1.518205	-0.777406	0.354505
C33	C	1.518293	-0.931122	0.354538
C34	C	1.518344	-1.014456	0.354557
C35	C	1.518157	-0.694067	0.354486
C36	C	1.792214	-0.354652	0.354508
C37	C	1.908991	-0.354658	0.354512
C38	C	1.518197	-0.354650	0.546450
C39	C	1.518203	-0.354656	0.628249
C40	C	1.518321	-0.162685	0.354549
C41	C	1.518380	-0.080886	0.354571
C42	C	1.585350	-0.401714	0.893301
C43	C	1.585352	-0.401717	0.816442
C44	C	1.451028	-0.307586	0.816446
C45	C	1.451020	-0.307587	0.893303
C46	C	1.518187	-0.354650	0.931729
C47	C	1.518197	-0.354652	0.778013
C48	C	1.518199	-0.354656	0.694679
C49	C	1.518184	-0.354648	1.015068
C50	C	1.518165	-0.354644	1.163291
C51	C	1.518181	-0.354646	1.081492
H52	H	1.103357	-0.441048	0.512747
H53	H	1.640204	-0.784511	0.269193
Br54	Br	1.130253	-0.546425	0.421599
H55	H	1.396344	-0.269268	0.785150
H56	H	1.640042	-0.440042	0.785158
Br57	Br	1.359845	-0.243724	0.945460
H58	H	0.934032	-0.513208	0.440361
H59	H	0.929829	-0.435912	0.509915
H60	H	1.396213	-0.784581	0.439829
H61	H	1.640289	-0.923938	0.269227
Br62	Br	1.359805	-0.944893	0.465388
H63	H	1.640040	-0.440036	0.924585
Br64	Br	0.889416	-0.243525	0.243789
Br65	Br	1.148043	-0.243487	0.243785
