data_functionalizedCrystal
_audit_creation_method	'MofGen! by Chris Wilmer'
_symmetry_space_group_name_H-M	'P1'
_symmetry_Int_Tables_number	1
_symmetry_cell_setting	triclinic
loop_
_symmetry_equiv_pos_as_xyz
  x,y,z
_cell_length_a	16.992694
_cell_length_b	14.044220
_cell_length_c	15.455313
_cell_angle_alpha	92.908275
_cell_angle_beta	87.142206
_cell_angle_gamma	91.928550
loop_
_atom_site_label
_atom_site_type_symbol
_atom_site_fract_x
_atom_site_fract_y
_atom_site_fract_z
O1	O	1.057683	0.198159	-0.072025
O2	O	1.557683	0.698159	0.427975
O3	O	0.829244	0.195941	-0.072050
O4	O	1.329244	0.695941	0.427950
O5	O	0.940034	0.058806	-0.072029
O6	O	1.440034	0.558806	0.427971
O7	O	0.946893	0.335294	-0.072046
O8	O	1.446893	0.835294	0.427954
O9	O	0.933696	0.066614	0.072232
O10	O	1.433696	0.566614	0.572232
O11	O	0.822906	0.203749	0.072211
O12	O	1.322906	0.703749	0.572211
O13	O	1.051345	0.205967	0.072236
O14	O	1.551345	0.705967	0.572236
Cu15	Cu	0.936547	0.205571	0.085396
Cu16	Cu	1.436547	0.705571	0.585396
Cu17	Cu	0.944042	0.196337	-0.085210
Cu18	Cu	1.444042	0.696337	0.414790
O19	O	0.940555	0.343102	0.072215
O20	O	1.440555	0.843102	0.572215
C21	C	0.796663	0.196993	0.000077
C22	C	1.296663	0.696993	0.500077
C23	C	0.709024	0.188484	0.000068
C24	C	1.209024	0.688484	0.500068
C25	C	0.664526	0.270581	0.000063
C26	C	1.164526	0.770581	0.500063
C27	C	0.582179	0.262581	0.000076
C28	C	1.082179	0.762581	0.500076
C29	C	0.544332	0.172483	0.000086
C30	C	1.044332	0.672483	0.500086
C31	C	0.588836	0.090381	0.000093
C32	C	1.088836	0.590381	0.500093
C33	C	0.671181	0.098382	0.000087
C34	C	1.171181	0.598382	0.500087
C35	C	0.298414	0.139322	0.000112
C36	C	0.798414	0.639322	0.500112
C37	C	0.216063	0.131327	0.000115
C38	C	0.716063	0.631327	0.500115
C39	C	0.209411	0.303528	0.000100
C40	C	0.709411	0.803528	0.500100
C41	C	0.291759	0.311521	0.000088
C42	C	0.791759	0.811521	0.500088
C43	C	0.336255	0.229419	0.000099
C44	C	0.836255	0.729419	0.500099
N45	N	0.460161	0.164304	0.000096
N46	N	0.960161	0.664304	0.500096
N47	N	0.420425	0.237599	0.000096
N48	N	0.920425	0.737599	0.500096
C49	C	0.933863	0.027168	0.000101
C50	C	1.433863	0.527168	0.500101
C51	C	0.924909	-0.078736	0.000101
C52	C	1.424909	0.421264	0.500101
C53	C	0.908540	-0.272638	0.000087
C54	C	1.408540	0.227362	0.500087
C55	C	0.972046	-0.325460	0.000092
C56	C	1.472046	0.174540	0.500092
C57	C	0.962938	-0.433354	0.000084
C58	C	1.462938	0.066646	0.500084
C59	C	0.917647	-0.164734	0.000095
C60	C	1.417647	0.335266	0.500095
C61	C	1.083926	0.204915	0.000107
C62	C	1.583926	0.704915	0.500107
C63	C	1.171565	0.213424	0.000111
C64	C	1.671565	0.713424	0.500111
C65	C	0.946726	0.374740	0.000083
C66	C	1.446726	0.874740	0.500083
C67	C	0.955680	0.480644	0.000077
C68	C	1.455680	0.980644	0.500077
N69	N	0.931281	0.212065	0.205390
N70	N	1.431281	0.712065	0.705390
N71	N	0.949314	0.189836	-0.205204
N72	N	1.449314	0.689836	0.294796
C73	C	0.978368	0.153829	0.250793
C74	C	1.478368	0.653829	0.750793
C75	C	0.974393	0.158750	0.341600
C76	C	1.474393	0.658750	0.841600
C77	C	0.923335	0.221911	0.387003
C78	C	1.423335	0.721911	0.887003
C79	C	0.876243	0.280149	0.341594
C80	C	1.376243	0.780149	0.841594
C81	C	0.880214	0.275223	0.250788
C82	C	1.380214	0.775223	0.750788
C83	C	0.906193	0.243148	0.658581
C84	C	1.406193	0.743148	1.158581
C85	C	0.902227	0.248072	0.749393
C86	C	1.402227	0.748072	1.249393
C87	C	1.000377	0.126671	0.749394
C88	C	1.500377	0.626671	1.249394
C89	C	1.004347	0.121754	0.658586
C90	C	1.504347	0.621754	1.158586
C91	C	0.957251	0.179989	0.613185
C92	C	1.457251	0.679989	1.113185
N93	N	0.919273	0.226945	0.479822
N94	N	1.419273	0.726945	0.979822
N95	N	0.961310	0.174950	0.520367
N96	N	1.461310	0.674950	1.020367
H97	H	0.695334	0.343947	0.000054
H98	H	1.195334	0.843947	0.500054
O99	O	0.827466	-0.320068	0.000087
O100	O	1.327466	0.179932	0.500087
H101	H	0.797572	-0.301383	-0.058713
H102	H	1.297572	0.198617	0.441287
H103	H	0.860647	0.299509	0.786355
H104	H	1.360647	0.799509	1.286355
O105	O	0.332569	0.408704	0.000097
O106	O	0.832569	0.908704	0.500097
H107	H	0.317738	0.445282	-0.058696
H108	H	0.817738	0.945282	0.441304
H109	H	0.867847	0.290567	0.621622
H110	H	1.367847	0.790567	1.121622
O111	O	0.821176	0.348277	0.390564
O112	O	1.321176	0.848277	0.890564
H113	H	0.837176	0.422383	0.373111
H114	H	1.337176	0.922383	0.873111
O115	O	1.053130	-0.278044	0.000109
O116	O	1.553130	0.221956	0.500109
H117	H	1.057719	-0.229816	0.058917
H118	H	1.557719	0.270184	0.558917
O119	O	0.175244	0.034143	0.000138
O120	O	0.675244	0.534143	0.500138
H121	H	0.110509	0.042377	0.000132
H122	H	0.610509	0.542377	0.500132
H123	H	1.019948	0.102401	0.213833
H124	H	1.519948	0.602401	0.713833
H125	H	1.045922	0.070323	0.621622
H126	H	1.545922	0.570323	1.121622
O127	O	0.829432	0.338038	0.201811
O128	O	1.329432	0.838038	0.701811
H129	H	0.793266	0.382793	0.248635
H130	H	1.293266	0.882793	0.748635
H131	H	1.012735	0.111329	0.378567
H132	H	1.512735	0.611329	0.878567
O133	O	1.051164	0.063854	0.798360
O134	O	1.551164	0.563854	1.298360
H135	H	1.039822	0.077881	0.869130
H136	H	1.539822	0.577881	1.369130
H137	H	0.545952	0.329433	0.000072
H138	H	1.045952	0.829433	0.500072
H139	H	0.334634	0.072468	0.000121
H140	H	0.834634	0.572468	0.500121
O141	O	0.161415	0.392076	0.000107
O142	O	0.661415	0.892076	0.500107
H143	H	0.126306	0.389371	-0.058683
H144	H	0.626306	0.889371	0.441317
O145	O	0.548022	-0.006799	0.000108
O146	O	1.048022	0.493201	0.500108
H147	H	0.483287	0.001427	0.000103
H148	H	0.983287	0.501427	0.500103
H149	H	0.707411	0.031530	0.000090
H150	H	1.207411	0.531530	0.500090
