data_functionalizedCrystal
_audit_creation_method	'MofGen! by Chris Wilmer'
_symmetry_space_group_name_H-M	'P1'
_symmetry_Int_Tables_number	1
_symmetry_cell_setting	triclinic
loop_
_symmetry_equiv_pos_as_xyz
  x,y,z
_cell_length_a	12.759401
_cell_length_b	19.805405
_cell_length_c	19.805399
_cell_angle_alpha	90.029301
_cell_angle_beta	89.983178
_cell_angle_gamma	89.972065
loop_
_atom_site_label
_atom_site_type_symbol
_atom_site_fract_x
_atom_site_fract_y
_atom_site_fract_z
Zn1	Zn	1.606138	0.269451	-0.382662
Zn2	Zn	1.606006	0.382640	-0.269470
Zn3	Zn	1.430450	0.269473	-0.269492
Zn4	Zn	1.430393	0.382607	-0.382622
O5	O	1.518247	0.326043	-0.326062
O6	O	1.753142	0.284471	-0.367654
O7	O	1.582686	0.367651	-0.174756
O8	O	1.453834	0.174754	-0.284530
O9	O	1.753045	0.367630	-0.284493
O10	O	1.582912	0.174738	-0.367675
O11	O	1.453706	0.284508	-0.174772
O12	O	1.283421	0.284476	-0.284491
O13	O	1.453737	0.367574	-0.477344
O14	O	1.283379	0.367595	-0.367608
O15	O	1.582857	0.284439	-0.477373
O16	O	1.582631	0.477352	-0.284455
O17	O	1.453609	0.477328	-0.367587
C18	C	1.245279	0.326034	-0.326048
C19	C	1.128503	0.326047	-0.326058
C20	C	1.518128	0.501899	-0.326029
C21	C	1.518174	0.577131	-0.326037
C22	C	1.518306	0.326000	-0.502604
C23	C	1.518331	0.325982	-0.577836
C24	C	1.073647	0.369393	-0.369269
C25	C	0.963922	0.369396	-0.369283
C26	C	0.963920	0.282705	-0.282869
C27	C	1.073642	0.282699	-0.282859
C28	C	0.814010	0.393693	-0.449076
C29	C	0.759150	0.437049	-0.492280
C30	C	0.794726	0.503105	-0.502548
C31	C	0.885159	0.525817	-0.469600
C32	C	0.940014	0.482464	-0.426390
C33	C	0.904440	0.416399	-0.416136
C34	C	1.223557	0.258409	-0.203065
C35	C	1.278413	0.215059	-0.159852
C36	C	1.242840	0.149003	-0.149578
C37	C	1.152402	0.126292	-0.182513
C38	C	1.097546	0.169642	-0.225727
C39	C	1.133127	0.235698	-0.236002
C40	C	1.792280	0.326052	-0.326075
C41	C	1.909057	0.326055	-0.326081
C42	C	1.518394	0.149500	-0.326109
C43	C	1.518457	0.074268	-0.326130
C44	C	1.585421	0.612465	-0.282796
C45	C	1.585466	0.683153	-0.282811
C46	C	1.518257	0.718506	-0.326065
C47	C	1.451007	0.683167	-0.369311
C48	C	1.450969	0.612480	-0.369299
C49	C	1.451162	0.968240	-0.369361
C50	C	1.451204	1.038932	-0.369368
C51	C	1.585659	1.038914	-0.282873
C52	C	1.585621	0.968227	-0.282861
C53	C	1.518375	0.932894	-0.326110
C54	C	1.518329	0.856245	-0.326094
C55	C	1.518297	0.795153	-0.326077
C56	C	1.585565	0.282691	-0.613197
C57	C	1.585575	0.282672	-0.683885
C58	C	1.518357	0.325947	-0.719212
C59	C	1.451115	0.369239	-0.683847
C60	C	1.451100	0.369255	-0.613160
C61	C	1.451175	0.369176	-0.968920
C62	C	1.451197	0.369158	-1.039612
C63	C	1.585650	0.282593	-1.039646
C64	C	1.585635	0.282609	-0.968959
C65	C	1.518390	0.325898	-0.933600
C66	C	1.518378	0.325918	-0.856951
C67	C	1.518374	0.325931	-0.795859
C68	C	1.518248	0.326036	-0.150206
C69	C	1.518427	0.325864	-0.074974
H70	H	1.118311	0.404688	-0.404446
H71	H	1.640375	0.247372	-0.940199
C72	C	1.659557	0.235071	-0.722782
H73	H	1.649940	0.241256	-0.769940
H74	H	1.730128	0.244998	-0.711195
H75	H	1.644236	0.189588	-0.711214
H76	H	1.352052	0.233556	-0.133034
C77	C	1.659612	0.234970	-1.078543
H78	H	1.649990	0.241151	-1.125701
H79	H	1.730190	0.244883	-1.066962
H80	H	1.644269	0.189492	-1.066967
H81	H	1.396455	0.404399	-1.068374
C82	C	1.377187	0.416778	-0.930034
H83	H	1.337159	0.442547	-0.961199
H84	H	1.331433	0.390876	-0.902472
H85	H	1.417324	0.446287	-0.902445
C86	C	0.998073	0.144660	-0.261961
H87	H	0.984744	0.099108	-0.249659
H88	H	0.940186	0.172000	-0.249161
H89	H	1.007932	0.147448	-0.309424
C90	C	1.262695	0.331072	-0.214370
H91	H	1.324404	0.338391	-0.188558
H92	H	1.277784	0.337550	-0.260888
H93	H	1.210044	0.362104	-0.200623
H94	H	1.396211	0.583711	-0.404512
H95	H	1.396289	0.711957	-0.404532
C96	C	0.774885	0.321027	-0.437789
H97	H	0.820513	0.298456	-0.407345
H98	H	0.706141	0.322164	-0.419395
H99	H	0.773881	0.297627	-0.479667
H100	H	1.123425	0.072508	-0.174137
H101	H	1.640145	0.583685	-0.247571
C102	C	1.377177	0.416841	-0.722704
H103	H	1.386823	0.410637	-0.769868
H104	H	1.306592	0.406937	-0.711117
H105	H	1.392521	0.462323	-0.711106
H106	H	1.396341	0.404499	-0.584370
C107	C	0.924284	0.598482	-0.480892
H108	H	0.878668	0.621046	-0.511349
H109	H	0.925293	0.621887	-0.439020
H110	H	0.993033	0.597339	-0.499288
C111	C	1.659432	0.722018	-0.235242
H112	H	1.699443	0.690840	-0.209473
H113	H	1.705205	0.749551	-0.261160
H114	H	1.619275	0.749635	-0.205732
H115	H	0.685519	0.418550	-0.519107
H116	H	1.640418	1.067690	-0.247660
C117	C	1.039483	0.507440	-0.390153
H118	H	1.052818	0.552991	-0.402456
H119	H	1.029640	0.504640	-0.342693
H120	H	1.097370	0.480100	-0.402969
C121	C	1.377280	1.077823	-0.416953
H122	H	1.386929	1.124982	-0.410760
H123	H	1.392614	1.066202	-0.462437
H124	H	1.306686	1.066284	-0.407007
C125	C	0.734386	0.550793	-0.550075
H126	H	0.675439	0.527806	-0.568228
H127	H	0.711376	0.589265	-0.525532
H128	H	0.779118	0.564717	-0.585798
H129	H	0.919240	0.247413	-0.247697
H130	H	1.287509	0.113710	-0.114383
H131	H	1.396406	0.939478	-0.404574
C132	C	1.659531	0.929339	-0.235272
H133	H	1.649865	0.882180	-0.241452
H134	H	1.730124	0.940872	-0.245209
H135	H	1.644181	0.940968	-0.189789
C136	C	1.659501	0.235085	-0.574343
H137	H	1.699536	0.209295	-0.605529
H138	H	1.705253	0.260980	-0.546763
H139	H	1.619319	0.205597	-0.546776
