data_functionalizedCrystal
_audit_creation_method	'MofGen! by Chris Wilmer'
_symmetry_space_group_name_H-M	'P1'
_symmetry_Int_Tables_number	1
_symmetry_cell_setting	triclinic
loop_
_symmetry_equiv_pos_as_xyz
  x,y,z
_cell_length_a	18.050590
_cell_length_b	18.050589
_cell_length_c	18.050582
_cell_angle_alpha	89.981795
_cell_angle_beta	90.000767
_cell_angle_gamma	90.017386
loop_
_atom_site_label
_atom_site_type_symbol
_atom_site_fract_x
_atom_site_fract_y
_atom_site_fract_z
Zn1	Zn	1.135292	-0.295921	-0.419624
Zn2	Zn	1.135203	-0.420105	-0.295444
Zn3	Zn	1.011112	-0.295910	-0.295482
Zn4	Zn	1.011060	-0.420051	-0.419626
O5	O	1.073167	-0.357997	-0.357544
O6	O	1.239205	-0.312422	-0.403134
O7	O	1.118727	-0.403648	-0.191524
O8	O	1.027644	-0.191987	-0.311965
O9	O	1.239140	-0.403659	-0.311899
O10	O	1.118879	-0.191995	-0.403172
O11	O	1.027557	-0.312402	-0.191553
O12	O	0.907180	-0.312350	-0.311967
O13	O	1.027555	-0.403567	-0.523550
O14	O	0.907142	-0.403555	-0.403175
O15	O	1.118828	-0.312370	-0.523549
O16	O	1.118676	-0.524022	-0.311901
O17	O	1.027468	-0.523982	-0.403138
C18	C	0.880215	-0.357946	-0.357576
C19	C	0.797669	-0.357942	-0.357607
C20	C	1.073077	-0.550949	-0.357532
C21	C	1.073107	-0.633494	-0.357551
C22	C	0.598219	-0.407682	-0.407088
C23	C	0.548826	-0.339967	-0.425358
C24	C	0.646538	-0.357984	-0.357571
C25	C	0.548850	-0.425737	-0.339300
C26	C	0.500553	-0.358030	-0.357537
C27	C	0.598233	-0.290233	-0.375876
C28	C	0.598261	-0.376049	-0.289787
C29	C	0.548890	-0.308287	-0.308031
C30	C	0.730637	-0.357958	-0.357592
C31	C	0.416457	-0.358047	-0.357516
C32	C	1.023557	-0.832950	-0.407148
C33	C	1.005459	-0.882381	-0.339386
C34	C	1.073180	-0.784625	-0.357561
C35	C	1.091314	-0.882276	-0.425331
C36	C	1.073249	-0.930610	-0.357576
C37	C	1.055046	-0.832968	-0.289763
C38	C	1.140933	-0.832859	-0.375754
C39	C	1.122861	-0.882267	-0.307945
C40	C	1.073138	-0.700527	-0.357553
C41	C	1.073290	-1.014706	-0.357576
C42	C	1.266872	-0.358048	-0.357512
C43	C	1.349418	-0.358070	-0.357499
C44	C	1.073196	-0.357964	-0.551250
C45	C	1.073208	-0.357950	-0.633796
C46	C	1.073277	-0.164291	-0.357573
C47	C	1.073324	-0.081745	-0.357585
C48	C	1.023612	-0.407475	-0.833247
C49	C	1.091367	-0.425641	-0.882621
C50	C	1.073245	-0.357893	-0.784926
C51	C	1.005527	-0.339706	-0.882634
C52	C	1.073274	-0.357840	-0.930911
C53	C	1.141036	-0.376095	-0.833213
C54	C	1.055150	-0.290128	-0.833221
C55	C	1.122952	-0.308269	-0.882573
C56	C	1.073227	-0.357926	-0.700828
C57	C	1.073300	-0.357807	-1.015008
C58	C	1.073180	-0.357976	-0.164592
C59	C	1.073312	-0.357781	-0.082047
H60	H	0.527112	-0.324702	-0.482668
N61	N	0.520124	-0.501609	-0.318840
H62	H	0.489347	-0.498019	-0.272251
H63	H	0.488570	-0.521445	-0.360569
H64	H	0.948195	-0.904150	-0.324012
N65	N	1.216929	-0.396589	-0.804618
H66	H	1.254498	-0.359394	-0.822980
H67	H	1.216401	-0.396541	-0.748669
H68	H	0.981530	-0.811296	-0.449023
N69	N	1.034681	-0.804406	-0.213830
H70	H	1.034759	-0.748455	-0.214298
H71	H	0.983707	-0.822912	-0.200027
H72	H	1.164855	-0.903785	-0.265968
H73	H	1.164986	-0.266316	-0.904094
N74	N	1.111659	-0.501516	-0.911378
H75	H	1.158254	-0.497967	-0.942156
H76	H	1.120350	-0.536077	-0.868235
N77	N	1.034829	-0.214274	-0.804444
H78	H	0.983627	-0.200601	-0.822386
H79	H	1.035492	-0.214806	-0.748498
N80	N	0.626915	-0.463253	-0.462618
H81	H	0.682864	-0.463176	-0.461906
H82	H	0.608127	-0.514261	-0.449325
H83	H	1.198184	-0.811091	-0.391160
N84	N	1.111597	-0.910974	-0.501235
H85	H	1.074050	-0.893035	-0.538642
H86	H	1.162396	-0.892181	-0.515292
H87	H	0.948246	-0.324346	-0.904342
N88	N	0.626836	-0.214335	-0.396413
H89	H	0.682788	-0.214791	-0.396320
H90	H	0.608364	-0.200638	-0.447423
N91	N	0.520380	-0.252580	-0.252543
H92	H	0.488862	-0.214528	-0.278800
H93	H	0.489615	-0.278869	-0.213890
N94	N	0.627041	-0.396285	-0.213891
H95	H	0.609107	-0.447482	-0.200144
H96	H	0.682986	-0.395594	-0.214399
N97	N	0.968066	-0.463081	-0.804550
H98	H	0.981847	-0.514238	-0.822520
H99	H	0.968139	-0.462309	-0.748604
