data_functionalizedCrystal
_audit_creation_method	'MofGen! by Chris Wilmer'
_symmetry_space_group_name_H-M	'P1'
_symmetry_Int_Tables_number	1
_symmetry_cell_setting	triclinic
loop_
_symmetry_equiv_pos_as_xyz
  x,y,z
_cell_length_a	12.970454
_cell_length_b	14.560438
_cell_length_c	14.560438
_cell_angle_alpha	60.007195
_cell_angle_beta	90.001163
_cell_angle_gamma	59.998793
loop_
_atom_site_label
_atom_site_type_symbol
_atom_site_fract_x
_atom_site_fract_y
_atom_site_fract_z
Zr1	Zr	-0.135265	1.005230	0.884877
O2	O	-0.299888	1.196816	0.738255
O3	O	-0.084802	0.813642	0.929808
O4	O	-0.299888	1.005230	0.929832
O5	O	0.084864	1.005229	0.738229
O6	O	-0.299886	1.005233	1.080971
O7	O	-0.084802	1.005228	0.738230
O8	O	0.084865	0.662516	1.080926
O9	O	-0.299886	1.347945	0.738273
O10	O	-0.063275	0.892448	1.061783
O11	O	0.063343	0.892446	0.948989
O12	O	-0.189893	1.118017	0.949018
O13	O	-0.063275	1.118016	0.836225
Zr14	Zr	0.135337	1.005236	1.125923
Zr15	Zr	-0.135261	1.005234	1.125925
Zr16	Zr	0.135333	1.005231	0.884875
Zr17	Zr	-0.135261	1.246264	0.884906
Zr18	Zr	0.135333	0.764202	1.125893
O19	O	0.084874	1.196824	1.080992
O20	O	-0.299882	1.196822	1.080994
O21	O	0.084868	1.196818	0.738253
O22	O	0.299960	0.813649	1.272545
O23	O	-0.084796	0.813648	1.272547
O24	O	0.299954	0.813644	0.929805
O25	O	-0.084792	1.005237	1.272570
O26	O	0.299960	1.005236	1.080967
O27	O	0.299958	1.005233	0.929829
O28	O	0.084874	1.005238	1.272569
O29	O	-0.299882	1.347949	0.929874
O30	O	0.299954	0.662517	1.080925
O31	O	0.299958	0.662520	1.272526
O32	O	0.084868	0.662519	1.272527
O33	O	-0.084796	1.347946	0.738272
O34	O	-0.084793	1.347950	0.929873
O35	O	0.189965	0.892449	1.061781
O36	O	0.063347	0.892450	1.174575
O37	O	-0.063271	1.118019	1.061810
O38	O	0.063347	1.118018	0.949017
C39	C	0.000031	0.703737	1.005363
C40	C	0.000029	0.601412	1.005350
C41	C	0.093502	0.470097	1.088632
C42	C	0.093512	0.373917	1.088680
C43	C	-0.093435	0.540381	0.922159
C44	C	-0.093439	0.636559	0.922108
C45	C	0.201431	0.373990	1.184775
C46	C	0.201441	0.277809	1.184822
C47	C	-0.338441	1.005231	1.005402
C48	C	-0.453318	1.005231	1.005403
C49	C	0.338514	1.005234	1.005398
C50	C	0.453390	1.005235	1.005397
C51	C	0.000031	1.005228	0.703885
C52	C	0.000029	1.005226	0.601554
C53	C	0.000041	1.306729	1.005437
C54	C	0.000043	1.409054	1.005449
C55	C	0.066122	0.887483	0.612338
C56	C	0.066133	0.887490	0.516183
C57	C	-0.066052	1.122992	0.398464
C58	C	-0.066055	1.122984	0.494618
C59	C	0.142433	0.751518	0.680301
C60	C	0.142445	0.751524	0.584146
C61	C	0.000041	1.005238	1.306914
C62	C	0.000043	1.005240	1.409245
C63	C	0.000036	0.703742	1.306877
C64	C	0.000036	0.601419	1.409196
C65	C	0.338508	0.703738	1.005361
C66	C	0.453383	0.601414	1.005347
C67	C	0.338514	0.703744	1.306875
C68	C	0.453390	0.601421	1.409193
C69	C	-0.338442	1.306722	0.703924
C70	C	-0.453318	1.409045	0.601606
C71	C	0.000036	1.306724	0.703922
C72	C	0.000036	1.409047	0.601604
C73	C	-0.338436	1.306727	1.005439
C74	C	-0.453310	1.409052	1.005452
C75	C	0.507330	0.636622	0.922076
C76	C	0.615256	0.540491	0.922041
C77	C	0.669239	0.409153	1.005283
C78	C	0.615281	0.373945	1.088558
C79	C	0.507352	0.470075	1.088588
C80	C	0.507334	0.470098	1.457240
C81	C	0.615261	0.373940	1.553390
C82	C	0.669246	0.409108	1.601485
C83	C	0.615291	0.540443	1.553434
C84	C	0.507362	0.636598	1.457291
C85	C	-0.507272	1.540368	0.553567
C86	C	-0.615222	1.636525	0.457439
C87	C	-0.669211	1.601358	0.409347
C88	C	-0.615251	1.470022	0.457395
C89	C	-0.507308	1.373867	0.553526
C90	C	-0.507258	1.540374	0.922200
C91	C	-0.615184	1.636532	0.922209
C92	C	-0.669166	1.601365	1.005465
C93	C	-0.615209	1.470030	1.088725
C94	C	-0.507279	1.373874	1.088720
C95	C	-0.066055	0.553342	1.398392
C96	C	-0.066059	0.457206	1.494535
C97	C	0.066130	0.457228	1.612283
C98	C	0.066126	0.553369	1.516140
C99	C	-0.142369	0.553325	1.330412
C100	C	-0.142373	0.457189	1.426556
H101	H	0.293614	0.363160	1.176474
Br102	Br	0.169976	0.374078	1.312186
Br103	Br	-0.688427	1.814754	0.392250
Br104	Br	0.071645	0.664560	0.584102
H105	H	-0.092010	0.517190	1.279494
H106	H	0.287295	0.218124	1.168038
H107	H	0.659261	0.569059	1.592608
Br108	Br	-0.815644	1.731880	1.005455
H109	H	0.240173	0.709329	0.575423
Br110	Br	0.688464	0.195712	1.618579
H111	H	-0.757105	1.679666	0.331072
H112	H	0.243487	0.699400	0.732451
H113	H	-0.463367	1.266947	1.156512
Br114	Br	0.434093	0.814859	0.809093
Br115	Br	0.688464	0.588302	0.809019
Br116	Br	0.186148	0.172710	1.321775
Br117	Br	0.688560	0.195693	1.201523
H118	H	-0.119870	1.218861	0.485829
Br119	Br	0.815717	0.278705	1.005226
Br120	Br	-0.155728	1.282798	0.253335
H121	H	-0.659177	1.441414	1.156510
Br122	Br	-0.434092	1.195643	0.618705
H123	H	-0.240098	0.493322	1.435286
Br124	Br	0.434154	0.422269	1.201614
H125	H	-0.099918	0.367172	1.426541
Br126	Br	0.058489	0.681212	0.765151
Br127	Br	0.155801	0.618635	1.530807
Br128	Br	0.434093	0.422336	1.391989
Br129	Br	0.434170	0.814822	1.392091
Br130	Br	0.155815	0.392015	1.757423
Br131	Br	-0.310811	0.703342	1.243421
H132	H	-0.659225	1.441405	0.418224
Br133	Br	-0.220274	0.588070	0.809189
Br134	Br	0.815724	0.278593	1.731967
Br135	Br	-0.220278	0.814774	0.809058
H136	H	-0.659104	1.743464	0.854404
Br137	Br	-0.434027	1.588130	0.618814
H138	H	-0.463323	1.569033	0.854398
