data_functionalizedCrystal
_audit_creation_method	'MofGen! by Chris Wilmer'
_symmetry_space_group_name_H-M	'P1'
_symmetry_Int_Tables_number	1
_symmetry_cell_setting	triclinic
loop_
_symmetry_equiv_pos_as_xyz
  x,y,z
_cell_length_a	18.627054
_cell_length_b	18.627468
_cell_length_c	18.627215
_cell_angle_alpha	90.004348
_cell_angle_beta	120.004546
_cell_angle_gamma	60.000256
loop_
_atom_site_label
_atom_site_type_symbol
_atom_site_fract_x
_atom_site_fract_y
_atom_site_fract_z
O1	O	-0.633187	-0.492538	-0.021342
O2	O	-0.486190	-0.388129	0.021268
O3	O	-0.633194	-0.388138	-0.125740
O4	O	-0.486183	-0.492528	0.125666
O5	O	-0.513786	-0.507535	-0.125739
O6	O	-0.366782	-0.507526	0.021269
O7	O	-0.513780	-0.611935	-0.021341
Cu8	Cu	-0.429378	-0.570632	-0.000036
Cu9	Cu	-0.570591	-0.429431	-0.000037
O10	O	-0.366775	-0.611925	0.125667
C11	C	-0.355985	-0.387029	0.030958
C12	C	-0.406384	-0.431327	0.024866
C13	C	-0.398780	-0.300631	0.031564
C14	C	-0.225983	-0.387034	0.030952
C15	C	-0.137384	-0.431338	0.024853
C16	C	-0.268975	-0.300636	0.031558
C17	C	-0.355981	-0.257032	0.030952
C18	C	-0.406376	-0.162336	0.024854
C19	C	-0.268980	-0.430436	0.031563
C20	C	-0.643984	-0.387034	-0.257037
C21	C	-0.593590	-0.431335	-0.162341
C22	C	-0.601184	-0.430436	-0.300639
C23	C	-0.773982	-0.257035	-0.387036
C24	C	-0.862583	-0.162340	-0.431334
C25	C	-0.730985	-0.300635	-0.430440
C26	C	-0.643979	-0.387032	-0.387036
C27	C	-0.593579	-0.431330	-0.431334
C28	C	-0.730991	-0.300637	-0.300639
C29	C	-0.773981	-0.613048	-0.031046
C30	C	-0.862584	-0.568751	-0.024952
C31	C	-0.730983	-0.699445	-0.031655
C32	C	-0.643979	-0.613042	-0.031041
C33	C	-0.593583	-0.568739	-0.024941
C34	C	-0.601179	-0.699439	-0.031650
C35	C	-0.643975	-0.743043	-0.031045
C36	C	-0.593574	-0.837739	-0.024950
C37	C	-0.730988	-0.569641	-0.031651
O38	O	0.104410	-0.611950	-0.021351
O39	O	-0.104384	-0.507540	0.021256
O40	O	-0.104398	-0.507554	-0.125751
O41	O	0.104424	-0.611937	0.125655
O42	O	-0.104393	-0.388155	-0.125756
O43	O	-0.104379	-0.388141	0.021250
O44	O	0.104415	-0.492552	-0.021357
Cu45	Cu	0.000018	-0.429445	-0.000054
Cu46	Cu	0.000013	-0.570647	-0.000047
O47	O	0.104429	-0.492538	0.125650
O48	O	-0.513771	0.125658	-0.021354
O49	O	-0.366774	-0.125737	0.021251
O50	O	-0.513784	0.021252	-0.125755
O51	O	-0.366761	-0.021330	0.125652
O52	O	-0.633187	0.021256	-0.125749
O53	O	-0.486176	-0.125732	0.021257
O54	O	-0.633174	0.125663	-0.021349
Cu55	Cu	-0.570578	-0.000035	-0.000045
Cu56	Cu	-0.429370	-0.000040	-0.000052
O57	O	-0.486164	-0.021326	0.125658
O58	O	-1.104384	0.125652	-0.492521
O59	O	-0.895587	-0.125742	-0.388134
O60	O	-0.895576	0.021251	-0.388110
O61	O	-1.104395	-0.021341	-0.492546
O62	O	-0.895574	0.021256	-0.507512
O63	O	-0.895585	-0.125736	-0.507536
O64	O	-1.104382	0.125657	-0.611923
Cu65	Cu	-0.999983	-0.000039	-0.570632
Cu66	Cu	-0.999985	-0.000046	-0.429426
O67	O	-1.104393	-0.021336	-0.611947
O68	O	-0.486161	-0.492532	-0.611923
O69	O	-0.633176	-0.388131	-0.507536
O70	O	-0.486160	-0.388136	-0.507512
O71	O	-0.633177	-0.492527	-0.611947
O72	O	-0.366762	-0.507535	-0.388110
O73	O	-0.513778	-0.507531	-0.388135
O74	O	-0.366763	-0.611931	-0.492522
Cu75	Cu	-0.429368	-0.570633	-0.429426
Cu76	Cu	-0.570570	-0.429430	-0.570632
O77	O	-0.513779	-0.611926	-0.492546
C78	C	-0.225962	-0.743022	0.386971
C79	C	-0.137356	-0.837715	0.431271
C80	C	-0.268955	-0.699423	0.430377
C81	C	-0.355973	-0.613027	0.256969
C82	C	-0.406376	-0.568728	0.162270
C83	C	-0.398769	-0.569625	0.300573
C84	C	-0.355966	-0.613028	0.386973
C85	C	-0.406362	-0.568732	0.431276
C86	C	-0.268962	-0.699421	0.300570
C87	C	-0.356019	-0.257067	-0.387062
C88	C	-0.406416	-0.162375	-0.431365
C89	C	-0.398823	-0.300669	-0.430465
C90	C	-0.226010	-0.387059	-0.257056
C91	C	-0.137402	-0.431355	-0.162357
C92	C	-0.269012	-0.430463	-0.300657
C93	C	-0.356026	-0.387063	-0.387058
C94	C	-0.406430	-0.431363	-0.431357
C95	C	-0.269005	-0.300665	-0.300661
C96	C	0.356057	-0.613031	0.386958
C97	C	0.406462	-0.568732	0.431258
C98	C	0.398854	-0.699425	0.430364
C99	C	0.226041	-0.613034	0.256955
C100	C	0.137433	-0.568737	0.162256
C101	C	0.269035	-0.699428	0.300559
C102	C	0.356049	-0.743026	0.386960
C103	C	0.406445	-0.837719	0.431263
C104	C	0.269044	-0.569630	0.300557
C105	C	-0.773989	0.030904	-0.387047
C106	C	-0.862591	0.024802	-0.431342
C107	C	-0.730995	0.031501	-0.430454
C108	C	-0.643985	0.030925	-0.257051
C109	C	-0.593586	0.024846	-0.162354
C110	C	-0.601189	0.031522	-0.300655
C111	C	-0.643988	0.030899	-0.387053
C112	C	-0.593591	0.024792	-0.431355
C113	C	-0.730993	0.031527	-0.300649
O114	O	-0.633238	0.125618	-0.611964
O115	O	-0.486224	-0.125776	-0.507569
O116	O	-0.633217	0.021214	-0.507555
O117	O	-0.486244	-0.021373	-0.611978
O118	O	-0.513801	0.021218	-0.388153
O119	O	-0.366808	-0.125773	-0.388166
O120	O	-0.513822	0.125621	-0.492561
Cu121	Cu	-0.429411	-0.000076	-0.429461
Cu122	Cu	-0.570635	-0.000080	-0.570669
O123	O	-0.366828	-0.021370	-0.492575
C124	C	-0.355959	-0.030976	0.386956
C125	C	-0.406354	-0.024871	0.431259
C126	C	-0.268953	-0.031575	0.430357
C127	C	-0.355962	-0.031000	0.256953
C128	C	-0.406361	-0.024920	0.162257
C129	C	-0.268956	-0.031599	0.300551
C130	C	-0.225960	-0.030976	0.386949
C131	C	-0.137360	-0.024871	0.431244
C132	C	-0.398757	-0.031599	0.300559
H133	H	-0.468785	-0.265629	0.032551
H134	H	-0.232967	-0.032547	0.501347
O135	O	-0.517788	-0.515182	-0.258968
C136	C	-0.540518	-0.568592	-0.306050
H137	H	-0.626015	-0.535311	-0.347660
H138	H	-0.500299	-0.635063	-0.257886
H139	H	-0.513622	-0.578590	-0.350671
H140	H	-0.232974	-0.734427	0.265567
H141	H	-0.233003	-0.501424	0.032541
H142	H	-0.232953	-0.734426	0.501373
O143	O	-0.517775	0.032855	-0.258922
C144	C	-0.540462	0.108979	-0.234552
H145	H	-0.625953	0.161209	-0.278435
H146	H	-0.500217	0.135209	-0.242484
H147	H	-0.513562	0.092075	-0.163032
H148	H	-0.233017	-0.501453	-0.265650
O149	O	-0.773750	-0.258901	-0.258755
C150	C	-0.702787	-0.254500	-0.183004
H151	H	-0.622638	-0.308726	-0.161188
H152	H	-0.711611	-0.263479	-0.128026
H153	H	-0.716728	-0.187739	-0.198544
O154	O	-0.482464	-0.258828	-0.515103
C155	C	-0.562600	-0.183050	-0.519913
H156	H	-0.548973	-0.190999	-0.452673
H157	H	-0.637379	-0.173719	-0.570063
H158	H	-0.566250	-0.123156	-0.540893
O159	O	-0.482362	-0.032650	0.258844
C160	C	-0.562524	0.042701	0.254432
H161	H	-0.530127	0.068654	0.308636
H162	H	-0.608493	0.024878	0.263444
H163	H	-0.613773	0.095502	0.187651
O164	O	-0.226235	-0.258779	-0.258944
C165	C	-0.297177	-0.183024	-0.254539
H166	H	-0.377333	-0.161214	-0.308747
H167	H	-0.288356	-0.128051	-0.263549
H168	H	-0.283206	-0.198549	-0.187760
O169	O	-0.773903	-0.258986	-0.515160
C170	C	-0.803043	-0.305989	-0.568641
H171	H	-0.756262	-0.377345	-0.526538
H172	H	-0.789367	-0.303423	-0.621499
H173	H	-0.887061	-0.275207	-0.601133
O174	O	-0.517737	-0.741257	-0.032935
C175	C	-0.540459	-0.765583	-0.109089
H176	H	-0.607163	-0.770229	-0.133651
H177	H	-0.471385	-0.832127	-0.092868
H178	H	-0.561202	-0.714067	-0.162326
O179	O	-0.482195	-0.484893	0.258840
C180	C	-0.459540	-0.431438	0.234452
H181	H	-0.374053	-0.464671	0.278325
H182	H	-0.499797	-0.364964	0.242383
H183	H	-0.486452	-0.421452	0.162929
H184	H	0.233042	-0.734430	0.265550
O185	O	-0.774089	0.032774	-0.515180
C186	C	-0.874575	0.108910	-0.568630
H187	H	-0.903799	0.133467	-0.526501
H188	H	-0.924882	0.092673	-0.621488
H189	H	-0.876301	0.162152	-0.601121
H190	H	0.468870	-0.734424	0.501356
O191	O	0.226039	-0.484894	0.258878
C192	C	0.196994	-0.431458	0.305946
H193	H	0.186370	-0.464706	0.347558
H194	H	0.122586	-0.364981	0.257774
H195	H	0.258537	-0.421478	0.350566
H196	H	-0.766977	0.032509	-0.265643
O197	O	-0.773966	-0.741204	-0.032986
C198	C	-0.803020	-0.765571	-0.109117
H199	H	-0.813679	-0.721664	-0.161351
H200	H	-0.877413	-0.757676	-0.135347
H201	H	-0.741467	-0.837075	-0.092216
O202	O	-0.225942	-0.258936	0.032860
C203	C	-0.125433	-0.305962	0.108968
H204	H	-0.117034	-0.347581	0.161227
H205	H	-0.107159	-0.257764	0.135177
H206	H	-0.070834	-0.350567	0.092044
O207	O	-0.773919	-0.484994	-0.032691
C208	C	-0.774318	-0.480189	0.042661
H209	H	-0.770187	-0.538528	0.068599
H210	H	-0.847121	-0.416396	0.024838
H211	H	-0.705972	-0.481755	0.095476
H212	H	-0.232980	-0.032580	0.265538
