data_functionalizedCrystal
_audit_creation_method	'MofGen! by Chris Wilmer'
_symmetry_space_group_name_H-M	'P1'
_symmetry_Int_Tables_number	1
_symmetry_cell_setting	triclinic
loop_
_symmetry_equiv_pos_as_xyz
  x,y,z
_cell_length_a	14.044220
_cell_length_b	15.995350
_cell_length_c	13.101039
_cell_angle_alpha	93.364563
_cell_angle_beta	86.340132
_cell_angle_gamma	88.340626
loop_
_atom_site_label
_atom_site_type_symbol
_atom_site_fract_x
_atom_site_fract_y
_atom_site_fract_z
O1	O	1.262914	0.197637	-0.085096
O2	O	0.986946	0.190352	-0.085122
O3	O	1.132474	0.072670	-0.085107
O4	O	1.117386	0.315319	-0.085111
O5	O	1.122032	0.081129	0.085321
O6	O	0.976505	0.198810	0.085307
O7	O	1.252472	0.206096	0.085333
Zn8	Zn	1.112831	0.203796	0.112379
Zn9	Zn	1.126588	0.192651	-0.112168
O10	O	1.106945	0.323777	0.085318
C11	C	0.946411	0.191392	0.000089
C12	C	0.841186	0.181881	0.000079
C13	C	0.648524	0.164494	0.000099
C14	C	0.590890	0.231950	0.000102
C15	C	0.483686	0.222275	0.000114
C16	C	0.755738	0.174167	0.000088
C17	C	1.126629	0.045658	0.000105
C18	C	1.124760	-0.047432	0.000099
C19	C	1.118044	-0.385681	0.000102
C20	C	1.014425	-0.346007	-0.000290
C21	C	1.016272	-0.249158	0.000094
C22	C	1.121375	-0.217872	0.000100
C23	C	1.166533	-0.250301	0.097426
C24	C	1.163924	-0.347127	0.097507
C25	C	1.177939	-0.356944	-0.096302
C26	C	1.177993	-0.260065	-0.097588
C27	C	1.123263	-0.123033	0.000102
C28	C	1.116159	-0.480519	0.000106
C29	C	1.293008	0.205055	0.000120
C30	C	1.398233	0.214566	0.000123
C31	C	1.112789	0.350789	0.000103
C32	C	1.114659	0.443879	0.000103
N33	N	1.103449	0.211402	0.265626
N34	N	1.135977	0.185039	-0.265416
C35	C	1.090685	0.221758	0.474668
C36	C	1.148739	0.174686	0.525549
C37	C	1.141636	0.180448	0.641867
C38	C	1.097786	0.215997	0.358340
H39	H	0.980363	-0.227200	-0.069674
H40	H	1.203775	0.130059	0.481753
C41	C	0.606420	0.076664	0.000099
C42	C	0.623809	0.020016	0.088592
C43	C	0.581691	-0.067812	0.088587
C44	C	0.522183	-0.098993	0.000090
C45	C	0.504791	-0.042344	-0.088410
C46	C	0.546909	0.045484	-0.088405
H47	H	0.667862	0.043097	0.154108
H48	H	0.594566	-0.109747	0.154101
H49	H	0.491005	-0.164008	0.000087
H50	H	0.460738	-0.065425	-0.153926
H51	H	0.534034	0.087419	-0.153919
C52	C	0.964236	-0.379889	-0.094585
C53	C	1.016720	-0.443998	-0.172385
C54	C	0.966533	-0.477880	-0.266689
C55	C	0.863862	-0.447651	-0.283192
C56	C	0.811372	-0.383538	-0.205390
C57	C	0.861559	-0.349657	-0.111086
H58	H	1.092728	-0.466378	-0.160170
H59	H	1.005390	-0.525341	-0.324283
H60	H	0.826711	-0.472732	-0.353001
H61	H	0.735364	-0.361158	-0.217605
H62	H	0.822703	-0.302196	-0.053492
H63	H	0.622062	0.296967	0.000097
H64	H	1.243527	-0.230228	0.101050
H65	H	1.254394	-0.383030	-0.096952
C66	C	1.016344	0.282051	0.533823
C67	C	1.008634	0.287210	0.651819
C68	C	0.934297	0.347506	0.710988
C69	C	0.867670	0.402642	0.652161
C70	C	0.875378	0.397485	0.534158
C71	C	0.949715	0.337189	0.474989
H72	H	1.057957	0.246394	0.695372
H73	H	0.928592	0.351323	0.798341
H74	H	0.812642	0.447276	0.695961
H75	H	0.826055	0.438301	0.490604
H76	H	0.955420	0.333372	0.387635
C77	C	0.952961	-0.371979	0.093461
C78	C	0.996450	-0.429002	0.170266
C79	C	0.934988	-0.454976	0.264018
C80	C	0.830037	-0.423926	0.280965
C81	C	0.786542	-0.366899	0.204158
C82	C	0.848004	-0.340925	0.110406
H83	H	1.074146	-0.451990	0.157722
H84	H	0.967187	-0.497191	0.320875
H85	H	0.784539	-0.443153	0.350366
H86	H	0.708846	-0.343911	0.216702
H87	H	0.815806	-0.298710	0.053549
H88	H	0.971537	-0.220847	0.069973
C89	C	1.107536	-0.370741	0.195778
C90	C	1.156120	-0.424269	0.272767
C91	C	1.099727	-0.447877	0.371038
C92	C	0.994751	-0.417957	0.392321
C93	C	0.946161	-0.364425	0.315330
C94	C	1.002553	-0.340817	0.217058
H95	H	1.233835	-0.446420	0.257014
H96	H	1.135698	-0.487504	0.428032
H97	H	0.953006	-0.435433	0.465067
H98	H	0.868445	-0.342274	0.331083
H99	H	0.966583	-0.301190	0.160065
H100	H	1.126590	-0.220977	0.169849
C101	C	1.266347	-0.382724	0.103505
C102	C	1.350250	-0.323034	0.108209
C103	C	1.452669	-0.358626	0.114218
C104	C	1.471186	-0.453908	0.115523
C105	C	1.387282	-0.513604	0.110818
C106	C	1.284862	-0.478012	0.104809
H107	H	1.336544	-0.252495	0.107244
H108	H	1.514781	-0.314434	0.117701
H109	H	1.547003	-0.480255	0.119971
H110	H	1.400987	-0.584143	0.111784
H111	H	1.222750	-0.522203	0.101326
H112	H	1.145029	-0.239181	-0.169587
C113	C	1.282024	-0.231973	-0.105532
C114	C	1.317545	-0.169955	-0.023082
C115	C	1.421579	-0.141861	-0.031019
C116	C	1.490092	-0.175786	-0.121404
C117	C	1.454573	-0.237808	-0.203860
C118	C	1.350538	-0.265901	-0.195924
H119	H	1.266827	-0.144838	0.043833
H120	H	1.447873	-0.095949	0.030021
H121	H	1.567105	-0.154990	-0.127279
H122	H	1.505291	-0.262924	-0.270775
H123	H	1.324245	-0.311814	-0.256964
C124	C	1.138269	-0.393049	-0.195961
C125	C	1.202150	-0.450592	-0.271850
C126	C	1.162468	-0.486696	-0.371503
C127	C	1.058906	-0.465258	-0.395268
C128	C	0.995020	-0.407712	-0.319377
C129	C	1.034701	-0.371608	-0.219724
H130	H	1.278818	-0.466464	-0.254259
H131	H	1.209762	-0.529295	-0.427682
H132	H	1.029532	-0.491984	-0.469037
H133	H	0.918352	-0.391840	-0.336968
H134	H	0.987408	-0.329009	-0.163545
