data_functionalizedCrystal
_audit_creation_method	'MofGen! by Chris Wilmer'
_symmetry_space_group_name_H-M	'P1'
_symmetry_Int_Tables_number	1
_symmetry_cell_setting	triclinic
loop_
_symmetry_equiv_pos_as_xyz
  x,y,z
_cell_length_a	12.759401
_cell_length_b	18.215406
_cell_length_c	18.215399
_cell_angle_alpha	89.984834
_cell_angle_beta	89.983502
_cell_angle_gamma	90.000960
loop_
_atom_site_label
_atom_site_type_symbol
_atom_site_fract_x
_atom_site_fract_y
_atom_site_fract_z
Zn1	Zn	1.606336	-0.292989	-0.416116
Zn2	Zn	1.939669	0.040345	-0.082782
Zn3	Zn	2.273003	0.373678	0.250551
Zn4	Zn	1.606279	-0.416060	-0.293077
Zn5	Zn	1.939613	-0.082727	0.040256
Zn6	Zn	2.272946	0.250607	0.373590
Zn7	Zn	1.430644	-0.293012	-0.293070
Zn8	Zn	1.763978	0.040321	0.040263
Zn9	Zn	2.097311	0.373655	0.373596
Zn10	Zn	1.430669	-0.416018	-0.416109
Zn11	Zn	1.764003	-0.082685	-0.082776
Zn12	Zn	2.097336	0.250648	0.250558
O13	O	1.518482	-0.354520	-0.354593
O14	O	1.851816	-0.021186	-0.021260
O15	O	2.185149	0.312147	0.312074
O16	O	1.753350	-0.309322	-0.399800
O17	O	2.086683	0.024011	-0.066467
O18	O	2.420016	0.357345	0.266867
O19	O	1.582947	-0.399765	-0.190092
O20	O	1.916280	-0.066431	0.143242
O21	O	2.249613	0.266902	0.476575
O22	O	1.453963	-0.190025	-0.309393
O23	O	1.787297	0.143309	0.023941
O24	O	2.120630	0.476642	0.357274
O25	O	1.753308	-0.399742	-0.309404
O26	O	2.086641	-0.066408	0.023929
O27	O	2.419974	0.266925	0.357263
O28	O	1.583044	-0.190007	-0.399794
O29	O	1.916377	0.143326	-0.066460
O30	O	2.249710	0.476659	0.266873
O31	O	1.453908	-0.309362	-0.190087
O32	O	1.787242	0.023971	0.143246
O33	O	2.120575	0.357305	0.476580
O34	O	1.283627	-0.309322	-0.309386
O35	O	1.616960	0.024012	0.023947
O36	O	1.950293	0.357345	0.357281
O37	O	1.454006	-0.399671	-0.519094
O38	O	1.787340	-0.066338	-0.185761
O39	O	2.120673	0.266996	0.147572
O40	O	1.283645	-0.399694	-0.399782
O41	O	1.616978	-0.066360	-0.066449
O42	O	1.950312	0.266973	0.266885
O43	O	1.583068	-0.309282	-0.519099
O44	O	1.916401	0.024052	-0.185766
O45	O	2.249735	0.357385	0.147567
O46	O	1.582971	-0.519039	-0.309397
O47	O	1.916304	-0.185705	0.023936
O48	O	2.249638	0.147628	0.357269
O49	O	1.453951	-0.519008	-0.399789
O50	O	1.787284	-0.185675	-0.066455
O51	O	2.120618	0.147659	0.266878
C52	C	1.245515	-0.354506	-0.354583
C53	C	1.578848	-0.021173	-0.021250
C54	C	1.912182	0.312161	0.312084
C55	C	1.128738	-0.354518	-0.354596
C56	C	1.462072	-0.021185	-0.021263
C57	C	1.795405	0.312149	0.312070
C58	C	1.518486	-0.545726	-0.354609
C59	C	1.851819	-0.212393	-0.021276
C60	C	2.185153	0.120941	0.312058
C61	C	1.518584	-0.627525	-0.354640
C62	C	1.851917	-0.294191	-0.021307
C63	C	2.185251	0.039142	0.312026
C64	C	1.518546	-0.354469	-0.546546
C65	C	1.851880	-0.021136	-0.213213
C66	C	2.185213	0.312198	0.120121
C67	C	1.518574	-0.354447	-0.628345
C68	C	1.851907	-0.021114	-0.295012
C69	C	2.185240	0.312219	0.038322
C70	C	1.073913	-0.401650	-0.401588
C71	C	1.407247	-0.068317	-0.068254
C72	C	1.740580	0.265017	0.265079
C73	C	0.964189	-0.401659	-0.401596
C74	C	1.297523	-0.068326	-0.068262
C75	C	1.630856	0.265007	0.265071
C76	C	0.964125	-0.307403	-0.307615
C77	C	1.297458	0.025931	0.025719
C78	C	1.630791	0.359264	0.359052
C79	C	1.073847	-0.307390	-0.307611
C80	C	1.407180	0.025943	0.025723
C81	C	1.740513	0.359277	0.359056
C82	C	1.128805	-0.448778	-0.448573
C83	C	1.462138	-0.115445	-0.115240
C84	C	1.795472	0.217889	0.218094
C85	C	1.073980	-0.495915	-0.495568
C86	C	1.407313	-0.162581	-0.162234
C87	C	1.740647	0.170752	0.171099
C88	C	0.964256	-0.495924	-0.495576
C89	C	1.297589	-0.162591	-0.162242
C90	C	1.630923	0.170743	0.171091
C91	C	0.909357	-0.448797	-0.448589
C92	C	1.242690	-0.115463	-0.115256
C93	C	1.576023	0.217870	0.218078
C94	C	1.792516	-0.354534	-0.354603
C95	C	2.125849	-0.021201	-0.021270
C96	C	2.459182	0.312133	0.312063
C97	C	1.909292	-0.354540	-0.354608
C98	C	2.242625	-0.021207	-0.021275
C99	C	2.575959	0.312127	0.312059
C100	C	1.518507	-0.162567	-0.354593
C101	C	1.851840	0.170767	-0.021260
C102	C	2.185174	0.504100	0.312074
C103	C	1.518518	-0.080768	-0.354593
C104	C	1.851851	0.252565	-0.021260
C105	C	2.185184	0.585899	0.312074
C106	C	1.451339	0.107418	-0.307548
C107	C	1.784672	0.440752	0.025785
C108	C	2.118006	0.774085	0.359119
C109	C	1.451348	0.184277	-0.307557
C110	C	1.784681	0.517610	0.025777
C111	C	2.118014	0.850944	0.359110
C112	C	1.585765	0.184284	-0.401691
C113	C	1.919099	0.517617	-0.068358
C114	C	2.252432	0.850950	0.264976
C115	C	1.585751	0.107426	-0.401685
C116	C	1.919084	0.440760	-0.068352
C117	C	2.252417	0.774093	0.264982
C118	C	1.518539	0.068996	-0.354609
C119	C	1.851872	0.402329	-0.021276
C120	C	2.185206	0.735662	0.312057
C121	C	1.518562	0.222712	-0.354624
C122	C	1.851896	0.556045	-0.021291
C123	C	2.185229	0.889378	0.312043
C124	C	1.518572	0.306045	-0.354634
C125	C	1.851906	0.639379	-0.021301
C126	C	2.185239	0.972712	0.312032
C127	C	1.518527	-0.014343	-0.354600
C128	C	1.851861	0.318990	-0.021267
C129	C	2.185194	0.652323	0.312067
C130	C	1.585800	-0.307338	-0.816543
C131	C	1.919133	0.025996	-0.483209
C132	C	2.252467	0.359329	-0.149876
C133	C	1.585813	-0.307316	-0.893402
C134	C	1.919146	0.026017	-0.560068
C135	C	2.252479	0.359351	-0.226735
C136	C	1.451421	-0.401443	-0.893385
C137	C	1.784755	-0.068110	-0.560052
C138	C	2.118088	0.265223	-0.226718
C139	C	1.451404	-0.401460	-0.816528
C140	C	1.784738	-0.068127	-0.483194
C141	C	2.118071	0.265206	-0.149861
C142	C	1.518600	-0.354409	-0.778109
C143	C	1.851933	-0.021075	-0.444775
C144	C	2.185266	0.312258	-0.111442
C145	C	1.518629	-0.354370	-0.931825
C146	C	1.851962	-0.021037	-0.598491
C147	C	2.185296	0.312297	-0.265158
C148	C	1.518642	-0.354347	-1.015158
C149	C	1.851976	-0.021014	-0.681825
C150	C	2.185309	0.312319	-0.348492
C151	C	1.518585	-0.354430	-0.694770
C152	C	1.851919	-0.021097	-0.361436
C153	C	2.185252	0.312236	-0.028103
C154	C	1.518479	-0.354517	-0.163387
C155	C	1.851812	-0.021184	0.169947
C156	C	2.185146	0.312150	0.503280
C157	C	1.518655	-0.354331	-0.081588
C158	C	1.851988	-0.020998	0.251745
C159	C	2.185322	0.312335	0.585078
H160	H	1.218148	-0.448777	-0.448570
H161	H	1.551481	-0.115444	-0.115237
H162	H	1.884814	0.217890	0.218096
H163	H	1.396608	0.076130	-0.269217
H164	H	1.729942	0.409464	0.064116
H165	H	2.063275	0.742797	0.397449
H166	H	1.640473	0.076142	-0.440013
H167	H	1.973806	0.409475	-0.106680
H168	H	2.307139	0.742808	0.226653
H169	H	1.396715	-0.439753	-0.924675
H170	H	1.730049	-0.106419	-0.591342
H171	H	2.063382	0.226914	-0.258009
H172	H	0.820012	-0.448802	-0.448606
H173	H	1.153345	-0.115469	-0.115272
H174	H	1.486679	0.217865	0.218061
H175	H	1.396674	-0.439791	-0.785234
H176	H	1.730007	-0.106458	-0.451900
H177	H	2.063341	0.226876	-0.118567
O178	O	1.378877	0.225716	-0.256787
O179	O	1.712211	0.559049	0.076546
O180	O	2.045544	0.892383	0.409880
H181	H	1.296422	0.210967	-0.269396
H182	H	1.629755	0.544300	0.063937
H183	H	1.963088	0.877634	0.397271
O184	O	1.658270	0.225733	-0.452455
O185	O	1.991603	0.559066	-0.119122
O186	O	2.324936	0.892399	0.214211
H187	H	1.647002	0.285632	-0.444547
H188	H	1.980335	0.618965	-0.111214
H189	H	2.313668	0.952299	0.222119
O190	O	1.658267	-0.256590	-0.775100
O191	O	1.991600	0.076743	-0.441767
O192	O	2.324934	0.410077	-0.108434
H193	H	1.640249	-0.198827	-0.789846
H194	H	1.973582	0.134507	-0.456513
H195	H	2.306915	0.467840	-0.123179
O196	O	1.133182	-0.546728	-0.546260
O197	O	1.466516	-0.213395	-0.212927
O198	O	1.799849	0.119938	0.120406
H199	H	1.218690	-0.538805	-0.538362
H200	H	1.552024	-0.205471	-0.205029
H201	H	1.885357	0.127862	0.128305
O202	O	0.904920	-0.256595	-0.256917
O203	O	1.238253	0.076739	0.076416
O204	O	1.571586	0.410072	0.409749
H205	H	0.819412	-0.264533	-0.264804
H206	H	1.152746	0.068801	0.068529
H207	H	1.486079	0.402134	0.401862
H208	H	0.919620	-0.534299	-0.533846
H209	H	1.252954	-0.200966	-0.200513
H210	H	1.586287	0.132367	0.132821
O211	O	1.658298	-0.256551	-0.934859
O212	O	1.991632	0.076782	-0.601525
O213	O	2.324965	0.410115	-0.268192
H214	H	1.705023	-0.223843	-0.895228
H215	H	2.038356	0.109491	-0.561895
H216	H	2.371690	0.442824	-0.228562
H217	H	1.118486	-0.269006	-0.269352
H218	H	1.451820	0.064328	0.063982
H219	H	1.785153	0.397661	0.397315
