data_functionalizedCrystal
_audit_creation_method	'MofGen! by Chris Wilmer'
_symmetry_space_group_name_H-M	'P1'
_symmetry_Int_Tables_number	1
_symmetry_cell_setting	triclinic
loop_
_symmetry_equiv_pos_as_xyz
  x,y,z
_cell_length_a	10.868271
_cell_length_b	11.792241
_cell_length_c	11.792254
_cell_angle_alpha	84.196007
_cell_angle_beta	89.995741
_cell_angle_gamma	89.994719
loop_
_atom_site_label
_atom_site_type_symbol
_atom_site_fract_x
_atom_site_fract_y
_atom_site_fract_z
O1	O	-0.102322	0.155637	1.506900
O2	O	0.397678	0.655637	2.006900
O3	O	-0.102324	0.171655	1.176561
O4	O	0.397676	0.671655	1.676561
O5	O	-0.102314	-0.001524	1.349747
O6	O	0.397686	0.498476	1.849747
O7	O	-0.102332	0.328816	1.333714
O8	O	0.397668	0.828816	1.833714
O9	O	0.102330	-0.001531	1.349732
O10	O	0.602330	0.498469	1.849732
O11	O	0.102320	0.171648	1.176546
O12	O	0.602320	0.671648	1.676546
O13	O	0.102323	0.155630	1.506885
O14	O	0.602323	0.655630	2.006885
Zn15	Zn	0.134813	0.163638	1.341714
Zn16	Zn	0.634813	0.663638	1.841714
Zn17	Zn	-0.134815	0.163647	1.341733
Zn18	Zn	0.365185	0.663647	1.841733
O19	O	0.102313	0.328809	1.333699
O20	O	0.602313	0.828809	1.833699
C21	C	-0.000002	0.170642	1.134263
C22	C	0.499998	0.670642	1.634263
C23	C	-0.000003	0.167622	1.008250
C24	C	0.499997	0.667622	1.508250
N25	N	0.318827	0.163631	1.341709
N26	N	0.818827	0.663631	1.841709
N27	N	-0.318829	0.163645	1.341746
N28	N	0.181171	0.663645	1.841746
C29	C	0.000008	-0.043819	1.348732
C30	C	0.500008	0.456181	1.848732
C31	C	0.000006	-0.169832	1.345718
C32	C	0.500006	0.330168	1.845718
C33	C	0.569833	0.163645	1.341727
C34	C	1.069833	0.663645	1.841727
C35	C	0.430156	0.163640	1.341713
C36	C	0.930156	0.663640	1.841713
C37	C	-0.000014	-0.400545	1.340175
C38	C	0.499986	0.099455	1.840175
C39	C	-0.000003	-0.272160	1.343255
C40	C	0.499997	0.227840	1.843255
C41	C	-0.000012	0.371104	1.334714
C42	C	0.499988	0.871104	1.834714
C43	C	-0.000019	0.497118	1.337728
C44	C	0.499981	0.997118	1.837728
C45	C	-0.000008	0.165168	0.905913
C46	C	0.499992	0.665168	1.405913
C47	C	-0.000009	0.162100	0.777527
C48	C	0.499991	0.662100	1.277527
C49	C	-0.000002	0.156643	1.549183
C50	C	0.499998	0.656643	2.049183
C51	C	-0.000009	0.159663	1.675196
C52	C	0.499991	0.659663	2.175196
