data_functionalizedCrystal
_audit_creation_method	'MofGen! by Chris Wilmer'
_symmetry_space_group_name_H-M	'P1'
_symmetry_Int_Tables_number	1
_symmetry_cell_setting	triclinic
loop_
_symmetry_equiv_pos_as_xyz
  x,y,z
_cell_length_a	21.606444
_cell_length_b	19.377372
_cell_length_c	21.606444
_cell_angle_alpha	90.003631
_cell_angle_beta	120.009152
_cell_angle_gamma	72.114809
loop_
_atom_site_label
_atom_site_type_symbol
_atom_site_fract_x
_atom_site_fract_y
_atom_site_fract_z
Zr1	Zr	0.861792	0.580578	0.173502
O2	O	0.960377	0.484357	0.257071
O3	O	0.742025	0.610075	0.147868
O4	O	0.871154	0.610084	0.277009
O5	O	0.831249	0.484341	0.026079
O6	O	0.902634	0.709260	0.292754
O7	O	0.831248	0.484348	0.127930
O8	O	0.671646	0.709243	0.061744
O9	O	1.062237	0.484358	0.257088
O10	O	0.822625	0.696669	0.148704
O11	O	0.799132	0.622650	0.060944
O12	O	0.951166	0.622661	0.212990
O13	O	0.927673	0.548642	0.125230
Zr14	Zr	0.912000	0.738742	0.036171
Zr15	Zr	0.911999	0.738753	0.198613
Zr16	Zr	0.861793	0.580568	0.011061
Zr17	Zr	1.024247	0.580579	0.173529
Zr18	Zr	0.749545	0.738741	0.036144
O19	O	1.031767	0.709245	0.061805
O20	O	1.031765	0.709261	0.292775
O21	O	0.960379	0.484342	0.026101
O22	O	0.813415	0.834963	-0.047398
O23	O	0.813413	0.834978	0.183572
O24	O	0.742027	0.610059	-0.083102
O25	O	0.942543	0.834979	0.183594
O26	O	0.902638	0.709236	-0.067336
O27	O	0.871158	0.610060	-0.083081
O28	O	0.942544	0.834972	0.081743
O29	O	1.102145	0.610085	0.277048
O30	O	0.671647	0.709235	-0.067375
O31	O	0.711555	0.834962	-0.047415
O32	O	0.711553	0.834971	0.081704
O33	O	1.062238	0.484349	0.127969
O34	O	1.102146	0.610077	0.147929
O35	O	0.822626	0.696659	-0.003317
O36	O	0.846119	0.770678	0.084443
O37	O	0.974659	0.696670	0.148730
O38	O	0.951167	0.622651	0.060969
C39	C	0.683689	0.659659	0.104802
C40	C	0.614722	0.659659	0.104791
C41	C	0.621113	0.605023	0.152243
C42	C	0.556325	0.605025	0.152259
C43	C	0.485145	0.659660	0.104819
C44	C	0.478756	0.714301	0.057364
C45	C	0.543545	0.714301	0.057352
C46	C	0.217469	0.714300	0.057412
C47	C	0.152678	0.714294	0.057426
C48	C	0.230249	0.605025	0.152319
C49	C	0.295038	0.605025	0.152307
C50	C	0.288644	0.659668	0.104855
C51	C	0.358896	0.659666	0.104839
C52	C	0.414893	0.659659	0.104830
C53	C	0.824095	0.461808	0.073427
C54	C	0.802781	0.394659	0.062767
C55	C	1.068157	-0.019338	0.195492
C56	C	1.048112	-0.082425	0.185465
C57	C	0.913925	-0.005157	0.118355
C58	C	0.933960	0.057938	0.128373
C59	C	1.011077	0.050840	0.166943
C60	C	0.876879	0.128116	0.099824
C61	C	0.896912	0.191205	0.109844
C62	C	0.974026	0.184115	0.148414
C63	C	1.031110	0.113929	0.176963
C64	C	0.799762	0.135212	0.061259
C65	C	0.742682	0.205391	0.032710
C66	C	0.762714	0.268481	0.042726
C67	C	0.839828	0.261391	0.081295
C68	C	0.705630	0.338668	0.014177
C69	C	0.725663	0.401756	0.024197
C70	C	0.859861	0.324480	0.091316
C71	C	1.090103	0.659661	0.104871
C72	C	1.159070	0.659662	0.104882
C73	C	0.886894	0.659674	0.308026
C74	C	0.886893	0.659678	0.376986
C75	C	0.949697	0.857512	0.136246
C76	C	0.971011	0.924661	0.146906
C77	C	0.869556	0.605008	0.791611
C78	C	0.869552	0.605014	0.726813
C79	C	0.886894	0.659655	0.703093
C80	C	0.904234	0.714298	0.744172
C81	C	0.904233	0.714294	0.808966
C82	C	0.904238	0.714315	0.482863
C83	C	0.904240	0.714313	0.418065
C84	C	0.869557	0.605035	0.400710
C85	C	0.869556	0.605031	0.465504
C86	C	0.886892	0.659676	0.506576
C87	C	0.886895	0.659669	0.576836
C88	C	0.886896	0.659659	0.632836
C89	C	0.886897	0.659647	0.901647
C90	C	0.886897	0.659645	0.832686
C91	C	0.746490	0.857511	0.136212
C92	C	0.698838	0.924660	0.146861
C93	C	0.683691	0.659645	-0.098387
C94	C	0.614725	0.659640	-0.167359
C95	C	0.746492	0.857497	-0.066977
C96	C	0.698840	0.924641	-0.125289
C97	C	1.027300	0.461823	0.276650
C98	C	1.074952	0.394679	0.334962
C99	C	1.027302	0.461809	0.073461
C100	C	1.074954	0.394661	0.062813
C101	C	1.090101	0.659675	0.308060
C102	C	1.159067	0.659680	0.377032
C103	C	0.664196	0.917562	0.185411
C104	C	0.619428	0.980649	0.195431
C105	C	0.609299	1.050834	0.166895
C106	C	0.643947	1.057930	0.128343
C107	C	0.688718	0.994844	0.118328
C108	C	0.594601	0.698270	-0.233299
C109	C	0.529809	0.698262	-0.298113
C110	C	0.485138	0.659629	-0.296984
C111	C	0.505266	0.620995	-0.231036
C112	C	0.570061	0.620999	-0.166225
C113	C	0.688727	0.994817	-0.106862
C114	C	0.643964	1.057912	-0.161645
C115	C	0.609310	1.050830	-0.234855
C116	C	0.619427	0.980647	-0.253282
C117	C	0.664194	0.917554	-0.198499
C118	C	1.085072	0.324503	0.316535
C119	C	1.129856	0.261408	0.371318
C120	C	1.164513	0.268490	0.444528
C121	C	1.154392	0.338673	0.462955
C122	C	1.109614	0.401767	0.408173
C123	C	1.109603	0.401759	0.024268
C124	C	1.154388	0.338671	0.014267
C125	C	1.164520	0.268487	0.042805
C126	C	1.129869	0.261390	0.081354
C127	C	1.085089	0.324477	0.091360
C128	C	1.203720	0.698320	0.375880
C129	C	1.268517	0.698340	0.440683
C130	C	1.288662	0.659713	0.506636
C131	C	1.244003	0.621072	0.507787
C132	C	1.179204	0.621057	0.442986
H133	H	0.094719	0.758788	0.018792
O134	O	0.536651	0.773237	0.006176
H135	H	0.593663	0.764066	0.014145
O136	O	0.830751	0.002497	0.076756
H137	H	0.826409	-0.053163	0.074581
O138	O	1.212812	0.200454	0.031992
H139	H	1.261296	0.167136	0.085788
H140	H	0.635733	1.115052	-0.146629
H141	H	0.716937	1.000597	-0.047254
H142	H	0.635693	1.115083	0.105111
O143	O	1.047694	0.316854	0.237576
H144	H	1.068658	0.343760	0.210426
H145	H	1.130954	-0.025119	0.226877
H146	H	1.200972	0.217109	0.489129
H147	H	1.182594	0.344464	-0.017125
O148	O	1.191768	0.346308	0.541918
H149	H	1.224594	0.290641	0.576909
O150	O	0.457059	0.579352	-0.229831
H151	H	0.455924	0.536656	-0.264241
H152	H	0.513430	0.729726	-0.351802
H153	H	0.420796	0.758788	0.018740
O154	O	0.591753	0.579335	-0.095106
H155	H	0.644316	0.585819	-0.050223
H156	H	0.642842	0.344435	-0.017220
O157	O	1.098690	0.477462	0.428038
H158	H	1.071202	0.483878	0.460512
O159	O	1.265720	0.579409	0.578917
H160	H	1.323646	0.536707	0.603567
H161	H	1.304873	0.729805	0.439731
O162	O	0.210571	0.773228	0.006229
H163	H	0.150188	0.811211	-0.026762
H164	H	1.341428	0.659731	0.559396
O165	O	0.726068	1.002503	0.076733
H166	H	0.711490	1.061907	0.058568
O167	O	1.140799	0.185689	0.112134
H168	H	1.177753	0.143020	0.098691
H169	H	0.591222	0.974856	0.226823
H170	H	0.572860	1.102211	-0.279456
O171	O	0.237150	0.546089	0.203507
H172	H	0.277372	0.548775	0.260509
O173	O	0.582037	0.973012	-0.332245
H174	H	0.549201	1.028679	-0.367236
H175	H	0.922658	0.318699	0.122701
H176	H	1.142852	0.589588	0.443933
H177	H	1.101358	0.458901	0.001022
O178	O	0.642779	0.739938	-0.234527
H179	H	0.617896	0.766787	-0.291274
H180	H	1.187329	0.729775	0.322183
H181	H	0.990335	0.235488	0.156573
O182	O	0.675077	0.841867	-0.218385
H183	H	0.702551	0.835447	-0.250872
O184	O	0.850858	0.546097	0.491098
H185	H	0.900207	0.514602	0.545291
H186	H	1.056877	0.318687	0.122744
H187	H	1.093907	0.108148	0.208348
O188	O	0.415242	0.659642	-0.366887
H189	H	0.408752	0.693006	-0.412925
O190	O	0.675121	0.841869	0.216205
H191	H	0.712069	0.799184	0.202767
O192	O	0.659507	0.213045	-0.008889
H193	H	0.655165	0.157385	-0.011064
H194	H	0.572841	1.102197	0.175054
O195	O	0.563220	0.546093	0.203438
H196	H	0.544748	0.572365	0.239976
H197	H	1.138086	0.204269	0.356301
H198	H	0.352993	0.560533	0.190935
O199	O	0.697887	0.546100	0.203417
H200	H	0.691445	0.508115	0.236422
H201	H	0.918350	0.758791	0.724854
H202	H	1.094599	-0.139569	0.208718
O203	O	0.922928	0.773257	0.392466
H204	H	0.981408	0.770592	0.434149
H205	H	0.783454	0.083839	0.053107
H206	H	0.679183	0.458900	0.000937
H207	H	0.855431	0.560525	0.693369
O208	O	0.850867	0.546061	0.817197
H209	H	0.792381	0.548741	0.775514
O210	O	0.850834	0.546112	0.356393
H211	H	0.900165	0.514617	0.351533
O212	O	0.922960	0.773235	0.527170
H213	H	0.935034	0.811220	0.499796
H214	H	0.918352	0.758786	0.842409
