data_functionalizedCrystal
_audit_creation_method	'MofGen! by Chris Wilmer'
_symmetry_space_group_name_H-M	'P1'
_symmetry_Int_Tables_number	1
_symmetry_cell_setting	triclinic
loop_
_symmetry_equiv_pos_as_xyz
  x,y,z
_cell_length_a	17.699097
_cell_length_b	14.421503
_cell_length_c	15.944551
_cell_angle_alpha	90.003340
_cell_angle_beta	96.606416
_cell_angle_gamma	90.011209
loop_
_atom_site_label
_atom_site_type_symbol
_atom_site_fract_x
_atom_site_fract_y
_atom_site_fract_z
O1	O	1.004256	0.077191	-0.106261
O2	O	1.337589	0.410524	0.227072
O3	O	1.670922	0.743857	0.560405
O4	O	0.783902	0.077176	-0.120069
O5	O	1.117235	0.410509	0.213264
O6	O	1.450569	0.743843	0.546597
O7	O	0.900096	0.077175	0.009122
O8	O	1.233430	0.410509	0.342455
O9	O	1.566763	0.743842	0.675788
O10	O	0.888061	0.077191	-0.235452
O11	O	1.221395	0.410525	0.097881
O12	O	1.554728	0.743858	0.431214
O13	O	0.900077	-0.077048	0.009103
O14	O	1.233410	0.256285	0.342436
O15	O	1.566744	0.589619	0.675769
O16	O	0.783883	-0.077048	-0.120089
O17	O	1.117216	0.256286	0.213245
O18	O	1.450550	0.589619	0.546578
O19	O	1.004236	-0.077033	-0.106281
O20	O	1.337570	0.256301	0.227053
O21	O	1.670903	0.589634	0.560386
Cu22	Cu	0.894058	-0.091122	-0.113186
Cu23	Cu	1.227391	0.242211	0.220147
Cu24	Cu	1.560724	0.575545	0.553480
Cu25	Cu	0.894081	0.091265	-0.113164
Cu26	Cu	1.227414	0.424598	0.220170
Cu27	Cu	1.560747	0.757932	0.553503
O28	O	0.888042	-0.077032	-0.235472
O29	O	1.221376	0.256301	0.097862
O30	O	1.554709	0.589634	0.431195
C31	C	0.755695	0.000062	-0.119582
C32	C	1.089028	0.333396	0.213751
C33	C	1.422362	0.666729	0.547084
C34	C	0.671675	0.000056	-0.118092
C35	C	1.005008	0.333390	0.215241
C36	C	1.338341	0.666723	0.548574
N37	N	0.894047	-0.219403	-0.113202
N38	N	1.227381	0.113930	0.220132
N39	N	1.560714	0.447263	0.553465
C40	C	0.155951	0.084160	-0.108949
C41	C	0.489285	0.417494	0.224384
C42	C	0.822618	0.750827	0.557718
C43	C	0.234898	0.084156	-0.110343
C44	C	0.568231	0.417489	0.222990
C45	C	0.901565	0.750822	0.556324
C46	C	0.274355	0.000085	-0.111052
C47	C	0.607688	0.333418	0.222281
C48	C	0.941021	0.666752	0.555615
C49	C	0.234862	-0.083987	-0.110358
C50	C	0.568195	0.249346	0.222975
C51	C	0.901528	0.582680	0.556308
C52	C	0.155917	-0.083982	-0.108958
C53	C	0.489251	0.249352	0.224375
C54	C	0.822584	0.582685	0.557709
C55	C	0.553235	-0.084011	-0.116004
C56	C	0.886569	0.249322	0.217329
C57	C	1.219902	0.582656	0.550663
C58	C	0.632185	-0.084010	-0.117407
C59	C	0.965518	0.249323	0.215926
C60	C	1.298852	0.582657	0.549260
C61	C	0.632216	0.084126	-0.117389
C62	C	0.965549	0.417460	0.215944
C63	C	1.298883	0.750793	0.549277
C64	C	0.553272	0.084132	-0.115989
C65	C	0.886605	0.417465	0.217344
C66	C	1.219938	0.750798	0.550678
C67	C	0.513786	0.000060	-0.115291
C68	C	0.847119	0.333394	0.218043
C69	C	1.180453	0.666727	0.551376
C70	C	0.428184	0.000066	-0.113777
C71	C	0.761517	0.333400	0.219556
C72	C	1.094850	0.666733	0.552889
C73	C	0.359955	0.000078	-0.112572
C74	C	0.693288	0.333411	0.220762
C75	C	1.026622	0.666745	0.554095
C76	C	0.840310	-0.469057	-0.172913
C77	C	1.173643	-0.135723	0.160420
C78	C	1.506976	0.197610	0.493754
C79	C	0.908700	-0.530853	-0.189080
C80	C	1.242033	-0.197520	0.144253
C81	C	1.575367	0.135813	0.477587
C82	C	0.894066	-0.408565	-0.113182
C83	C	1.227399	-0.075231	0.220152
C84	C	1.560732	0.258102	0.553485
C85	C	0.825693	-0.530862	-0.097034
C86	C	1.159026	-0.197528	0.236299
C87	C	1.492360	0.135805	0.569632
C88	C	0.894077	-0.591286	-0.113164
C89	C	1.227411	-0.257953	0.220169
C90	C	1.560744	0.075381	0.553502
C91	C	0.962491	-0.469001	-0.129386
C92	C	1.295824	-0.135667	0.203947
C93	C	1.629157	0.197666	0.537280
C94	C	0.879439	-0.469004	-0.037308
C95	C	1.212772	-0.135670	0.296026
C96	C	1.546105	0.197663	0.629359
C97	C	0.947878	-0.530772	-0.053442
C98	C	1.281212	-0.197439	0.279891
C99	C	1.614545	0.135894	0.613224
C100	C	0.894058	-0.303304	-0.113194
C101	C	1.227391	0.030030	0.220139
C102	C	1.560725	0.363363	0.553473
C103	C	0.894093	-0.696545	-0.113151
C104	C	1.227426	-0.363212	0.220182
C105	C	1.560760	-0.029878	0.553515
C106	C	1.032444	0.000083	-0.106768
C107	C	1.365777	0.333416	0.226566
C108	C	1.699110	0.666750	0.559899
C109	C	1.116464	0.000095	-0.108258
C110	C	1.449797	0.333428	0.225076
C111	C	1.783130	0.666762	0.558409
C112	C	0.899587	0.000063	0.040405
C113	C	1.232920	0.333397	0.373738
C114	C	1.566254	0.666730	0.707072
C115	C	0.898089	0.000063	0.133648
C116	C	1.231422	0.333396	0.466981
C117	C	1.564756	0.666729	0.800315
N118	N	0.894097	0.219546	-0.113141
N119	N	1.227430	0.552880	0.220192
N120	N	1.560764	0.886213	0.553525
C121	C	0.888551	0.000082	-0.266755
C122	C	1.221885	0.333415	0.066578
C123	C	1.555218	0.666748	0.399912
C124	C	0.890049	0.000088	-0.359998
C125	C	1.223383	0.333422	-0.026665
C126	C	1.556716	0.666755	0.306669
C127	C	0.822486	0.000070	0.348350
C128	C	1.155820	0.333404	0.681683
C129	C	1.489153	0.666737	1.015017
C130	C	0.857584	-0.075969	0.409430
C131	C	1.190918	0.257365	0.742763
C132	C	1.524251	0.590698	1.076096
C133	C	0.895379	0.000070	0.304368
C134	C	1.228713	0.333403	0.637702
C135	C	1.562046	0.666736	0.971035
C136	C	0.857621	0.076084	0.409432
C137	C	1.190954	0.409417	0.742765
C138	C	1.524287	0.742750	1.076099
C139	C	0.892757	0.000080	0.469276
C140	C	1.226090	0.333414	0.802609
C141	C	1.559423	0.666747	1.135942
C142	C	0.930497	-0.076032	0.364220
C143	C	1.263831	0.257301	0.697553
C144	C	1.597164	0.590634	1.030887
C145	C	0.930523	0.076088	0.364216
C146	C	1.263857	0.409422	0.697549
C147	C	1.597190	0.742755	1.030883
C148	C	0.965674	0.000031	0.425278
C149	C	1.299008	0.333364	0.758612
C150	C	1.632341	0.666697	1.091945
C151	C	0.896888	0.000063	0.209369
C152	C	1.230222	0.333396	0.542703
C153	C	1.563555	0.666729	0.876036
C154	C	0.891253	0.000081	0.564274
C155	C	1.224587	0.333414	0.897607
C156	C	1.557920	0.666747	1.230940
H157	H	0.123831	0.152621	-0.108378
H158	H	0.457164	0.485954	0.224956
H159	H	0.790497	0.819288	0.558289
O160	O	1.037871	0.000056	0.465114
O161	O	1.371204	0.333389	0.798448
O162	O	1.704538	0.666722	1.131781
C163	C	1.035693	0.000805	0.553228
C164	C	1.369026	0.334138	0.886562
C165	C	1.702360	0.667472	1.219895
H166	H	0.978962	0.030407	0.567918
H167	H	1.312295	0.363740	0.901251
H168	H	1.645629	0.697073	1.234585
H169	H	1.084074	0.045616	0.584392
H170	H	1.417407	0.378949	0.917726
H171	H	1.750740	0.712283	1.251059
H172	H	1.042283	-0.072999	0.578626
H173	H	1.375616	0.260335	0.911960
H174	H	1.708950	0.593668	1.245293
O175	O	1.031537	-0.436748	-0.145635
O176	O	1.364870	-0.103415	0.187699
O177	O	1.698204	0.229918	0.521032
C178	C	1.088169	-0.468920	-0.082975
C179	C	1.421503	-0.135586	0.250359
C180	C	1.754836	0.197747	0.583692
H181	H	1.061248	-0.486657	-0.023378
H182	H	1.394582	-0.153323	0.309955
H183	H	1.727915	0.180010	0.643288
H184	H	1.132926	-0.412617	-0.068092
H185	H	1.466260	-0.079283	0.265241
H186	H	1.799593	0.254050	0.598575
H187	H	1.116127	-0.533498	-0.106784
H188	H	1.449460	-0.200165	0.226549
H189	H	1.782794	0.133169	0.559882
H190	H	0.267046	0.152610	-0.110901
H191	H	0.600379	0.485944	0.222432
H192	H	0.933713	0.819277	0.555766
H193	H	0.826745	-0.140258	0.429467
H194	H	1.160079	0.193076	0.762800
H195	H	1.493412	0.526409	1.096133
H196	H	0.867034	-0.441815	0.026829
H197	H	1.200368	-0.108482	0.360162
H198	H	1.533701	0.224852	0.693496
O199	O	0.514894	0.165775	-0.115449
O200	O	0.848227	0.499108	0.217885
O201	O	1.181560	0.832441	0.551218
C202	C	0.460648	0.170805	-0.187344
C203	C	0.793982	0.504138	0.145989
C204	C	1.127315	0.837471	0.479323
H205	H	0.478440	0.123101	-0.238599
H206	H	0.811773	0.456434	0.094734
H207	H	1.145107	0.789768	0.428067
H208	H	0.456892	0.245162	-0.211726
H209	H	0.790225	0.578496	0.121608
H210	H	1.123558	0.911829	0.454941
H211	H	0.402751	0.148219	-0.169845
H212	H	0.736084	0.481553	0.163489
H213	H	1.069417	0.814886	0.496822
H214	H	0.521097	-0.152467	-0.115423
H215	H	0.854431	0.180866	0.217910
H216	H	1.187764	0.514200	0.551243
H217	H	0.921083	-0.558020	-0.253237
H218	H	1.254416	-0.224687	0.080096
H219	H	1.587749	0.108646	0.413429
H220	H	0.993393	-0.557700	-0.002919
H221	H	1.326726	-0.224367	0.330414
H222	H	1.660059	0.108966	0.663748
H223	H	0.961294	-0.140388	0.344285
H224	H	1.294627	0.192946	0.677618
H225	H	1.627961	0.526279	1.010951
H226	H	0.767867	-0.558037	-0.083385
H227	H	1.101200	-0.224704	0.249949
H228	H	1.434533	0.108630	0.583282
H229	H	0.123766	-0.152436	-0.108404
H230	H	0.457100	0.180897	0.224930
H231	H	0.790433	0.514230	0.558263
O232	O	0.967172	0.152880	0.340300
O233	O	1.300506	0.486214	0.673634
O234	O	1.633839	0.819547	1.006967
C235	C	0.928564	0.232896	0.363086
C236	C	1.261897	0.566229	0.696419
C237	C	1.595230	0.899562	1.029753
H238	H	0.866856	0.214673	0.369723
H239	H	1.200190	0.548007	0.703056
H240	H	1.533523	0.881340	1.036389
H241	H	0.930420	0.288076	0.312170
H242	H	1.263753	0.621409	0.645504
H243	H	1.597087	0.954743	0.978837
H244	H	0.957194	0.260641	0.425788
H245	H	1.290527	0.593975	0.759121
H246	H	1.623860	0.927308	1.092455
H247	H	0.794896	-0.441959	-0.223466
H248	H	1.128230	-0.108625	0.109867
H249	H	1.461563	0.224708	0.443200
O250	O	0.670532	-0.165658	-0.118238
O251	O	1.003865	0.167676	0.215096
O252	O	1.337198	0.501009	0.548429
C253	C	0.707642	-0.170684	-0.191756
C254	C	1.040975	0.162650	0.141577
C255	C	1.374309	0.495983	0.474911
H256	H	0.677868	-0.122983	-0.242160
H257	H	1.011202	0.210351	0.091174
H258	H	1.344535	0.543684	0.424507
H259	H	0.705652	-0.245042	-0.216180
H260	H	1.038985	0.088292	0.117153
H261	H	1.372319	0.421625	0.450487
H262	H	0.769413	-0.148093	-0.176378
H263	H	1.102746	0.185240	0.156955
H264	H	1.436079	0.518573	0.490289
H265	H	0.826788	0.140373	0.429454
H266	H	1.160122	0.473706	0.762787
H267	H	1.493455	0.807040	1.096120
H268	H	0.761982	-0.000009	0.314918
H269	H	1.095315	0.333324	0.648251
H270	H	1.428649	0.666657	0.981585
H271	H	0.664375	0.152581	-0.117954
H272	H	0.997708	0.485915	0.215379
H273	H	1.331042	0.819248	0.548712
H274	H	0.266994	-0.152439	-0.110930
H275	H	0.600327	0.180894	0.222403
H276	H	0.933661	0.514228	0.555737
