data_functionalizedCrystal
_audit_creation_method	'MofGen! by Chris Wilmer'
_symmetry_space_group_name_H-M	'P1'
_symmetry_Int_Tables_number	1
_symmetry_cell_setting	triclinic
loop_
_symmetry_equiv_pos_as_xyz
  x,y,z
_cell_length_a	25.639242
_cell_length_b	25.639240
_cell_length_c	19.805399
_cell_angle_alpha	89.964092
_cell_angle_beta	89.972605
_cell_angle_gamma	90.028283
loop_
_atom_site_label
_atom_site_type_symbol
_atom_site_fract_x
_atom_site_fract_y
_atom_site_fract_z
Zn1	Zn	0.799274	-0.208225	-0.382822
Zn2	Zn	0.799198	-0.295659	-0.269617
Zn3	Zn	0.711842	-0.208233	-0.269631
Zn4	Zn	0.711804	-0.295625	-0.382748
O5	O	0.755529	-0.251936	-0.326204
O6	O	0.872429	-0.219835	-0.367830
O7	O	0.787594	-0.284080	-0.174902
O8	O	0.723487	-0.135067	-0.284682
O9	O	0.872373	-0.284072	-0.284659
O10	O	0.787723	-0.135061	-0.367843
O11	O	0.723414	-0.219848	-0.174912
O12	O	0.638672	-0.219814	-0.284611
O13	O	0.723423	-0.284013	-0.477475
O14	O	0.638644	-0.284021	-0.367718
O15	O	0.787686	-0.219801	-0.477529
O16	O	0.787558	-0.368820	-0.284588
O17	O	0.723350	-0.368794	-0.367705
C18	C	0.619687	-0.251915	-0.326159
C19	C	0.561573	-0.251919	-0.326155
C20	C	0.755456	-0.387778	-0.326151
C21	C	0.755472	-0.445892	-0.326151
C22	C	0.201204	-0.285424	-0.369437
C23	C	0.146600	-0.285427	-0.369448
O24	O	0.118358	-0.313888	-0.406209
N25	N	0.119290	-0.251950	-0.326249
C26	C	0.146588	-0.218464	-0.283041
O27	O	0.118345	-0.189989	-0.246298
C28	C	0.201191	-0.218458	-0.283034
C29	C	0.228498	-0.251941	-0.326231
C30	C	0.228511	-0.318903	-0.412631
C31	C	0.283111	-0.318901	-0.412620
C32	C	0.310405	-0.285418	-0.369414
C33	C	0.283099	-0.251939	-0.326219
C34	C	0.228488	-0.184970	-0.239830
C35	C	0.283095	-0.184967	-0.239827
C36	C	0.310402	-0.218450	-0.283025
C37	C	0.364993	-0.218454	-0.283002
N38	N	0.392302	-0.251931	-0.326201
C39	C	0.365009	-0.285413	-0.369407
C40	C	0.031917	-0.218477	-0.283059
C41	C	-0.022685	-0.218485	-0.283062
C42	C	-0.022669	-0.285447	-0.369470
C43	C	0.031934	-0.285442	-0.369463
C44	C	0.059227	-0.251954	-0.326258
C45	C	0.479674	-0.285405	-0.369379
C46	C	0.534279	-0.285401	-0.369361
C47	C	0.534259	-0.218437	-0.282956
C48	C	0.479658	-0.218443	-0.282970
C49	C	0.452367	-0.251929	-0.326187
O50	O	0.393269	-0.190005	-0.246261
O51	O	0.393258	-0.313878	-0.406150
C52	C	0.788994	-0.806214	-0.369584
C53	C	0.789009	-0.860818	-0.369598
O54	O	0.817423	-0.889020	-0.406472
N55	N	0.755602	-0.888175	-0.326270
C56	C	0.722174	-0.860924	-0.282930
O57	O	0.693759	-0.889207	-0.246077
C58	C	0.722156	-0.806321	-0.282920
C59	C	0.755569	-0.778967	-0.326246
C60	C	0.822403	-0.778860	-0.412908
C61	C	0.822388	-0.724260	-0.412893
C62	C	0.788964	-0.697013	-0.369555
C63	C	0.755554	-0.724366	-0.326231
C64	C	0.688725	-0.779071	-0.239584
C65	C	0.688710	-0.724464	-0.239578
C66	C	0.722123	-0.697110	-0.282904
C67	C	0.722115	-0.642519	-0.282879
N68	N	0.755522	-0.615163	-0.326207
C69	C	0.788946	-0.642409	-0.369545
C70	C	0.722213	-0.975594	-0.282955
C71	C	0.722233	-1.030197	-0.282961
C72	C	0.789067	-1.030087	-0.369630
C73	C	0.789050	-0.975484	-0.369620
C74	C	0.755620	-0.948238	-0.326283
C75	C	0.788913	-0.527744	-0.369510
C76	C	0.788896	-0.473139	-0.369489
C77	C	0.722060	-0.473253	-0.282823
C78	C	0.722078	-0.527854	-0.282841
C79	C	0.755506	-0.555098	-0.326190
O80	O	0.693714	-0.614283	-0.246025
O81	O	0.817351	-0.614120	-0.406397
C82	C	0.891902	-0.251957	-0.326251
C83	C	0.950016	-0.251966	-0.326271
C84	C	0.755559	-0.251903	-0.502747
C85	C	0.755571	-0.251889	-0.577979
C86	C	0.755618	-0.115562	-0.326272
C87	C	0.755656	-0.057448	-0.326302
C88	C	0.789034	-0.218452	-0.613353
C89	C	0.789039	-0.218437	-0.684041
C90	C	0.755584	-0.251861	-0.719355
C91	C	0.722118	-0.285300	-0.683977
C92	C	0.722110	-0.285312	-0.613289
C93	C	0.722147	-0.285251	-0.969050
C94	C	0.722159	-0.285237	-1.039742
C95	C	0.789077	-0.218376	-1.039802
C96	C	0.789069	-0.218388	-0.969115
C97	C	0.755601	-0.251824	-0.933742
C98	C	0.755595	-0.251839	-0.857094
C99	C	0.755593	-0.251849	-0.796002
C100	C	0.755530	-0.251931	-0.150348
C101	C	0.755619	-0.251797	-0.075117
H102	H	0.556510	-0.312669	-0.404538
C103	C	0.825238	-0.443414	-0.416422
C104	C	0.858770	-0.412075	-0.378140
C105	C	0.892258	-0.384693	-0.421350
H106	H	0.805279	-0.422067	-0.445894
H107	H	0.845175	-0.467448	-0.442224
H108	H	0.838836	-0.388044	-0.352350
H109	H	0.878741	-0.433409	-0.348670
H110	H	0.912195	-0.408727	-0.447151
H111	H	0.872295	-0.363349	-0.450820
H112	H	0.915016	-0.363430	-0.395382
C113	C	-0.052242	-0.321768	-0.416496
C114	C	-0.038916	-0.310457	-0.483490
C115	C	-0.066144	-0.343907	-0.526824
H116	H	-0.088680	-0.317006	-0.410404
H117	H	-0.043305	-0.356897	-0.406544
H118	H	-0.047857	-0.275336	-0.493438
H119	H	-0.002483	-0.315222	-0.489603
H120	H	-0.057206	-0.379036	-0.516873
H121	H	-0.102580	-0.339142	-0.520726
H122	H	-0.057102	-0.336241	-0.572284
C123	C	0.825261	-0.557224	-0.416603
C124	C	0.854521	-0.521573	-0.454525
C125	C	0.888015	-0.548710	-0.497905
H126	H	0.805312	-0.578522	-0.446134
H127	H	0.848091	-0.578513	-0.390769
H128	H	0.831694	-0.500292	-0.480357
H129	H	0.874481	-0.500274	-0.425011
H130	H	0.910845	-0.569999	-0.472072
H131	H	0.868062	-0.570007	-0.527433
H132	H	0.907875	-0.524525	-0.523636
H133	H	0.816283	-1.052281	-0.404919
H134	H	0.661517	-0.801333	-0.204303
H135	H	0.816279	-0.191235	-0.584605
C136	C	0.685869	-0.321637	-0.930696
C137	C	0.697224	-0.373369	-0.947855
C138	C	0.663814	-0.406903	-0.912530
H139	H	0.650732	-0.314039	-0.942253
H140	H	0.690649	-0.316896	-0.883531
H141	H	0.692439	-0.378108	-0.995009
H142	H	0.732355	-0.380984	-0.936296
H143	H	0.668594	-0.402162	-0.865365
H144	H	0.628678	-0.399300	-0.924090
H145	H	0.671516	-0.442007	-0.924163
H146	H	0.816289	-0.191210	-0.712839
C147	C	0.825411	-0.182040	-0.930897
C148	C	0.854708	-0.152743	-0.977006
C149	C	0.888186	-0.119247	-0.941825
H150	H	0.848223	-0.201989	-0.903317
H151	H	0.805432	-0.159233	-0.903340
H152	H	0.874686	-0.175546	-1.004550
H153	H	0.831911	-0.132783	-1.004586
H154	H	0.868207	-0.096440	-0.914269
H155	H	0.910994	-0.139200	-0.914247
H156	H	0.908065	-0.099361	-0.973105
C157	C	0.858598	-0.694595	-0.460053
C158	C	0.847172	-0.707842	-0.527005
C159	C	0.880514	-0.680525	-0.570472
H160	H	0.893753	-0.703503	-0.450289
H161	H	0.853803	-0.658166	-0.453893
H162	H	0.851972	-0.744263	-0.533162
H163	H	0.812023	-0.698933	-0.536790
H164	H	0.875718	-0.644096	-0.564312
H165	H	0.915667	-0.689435	-0.560702
H166	H	0.872763	-0.689506	-0.615904
C167	C	0.685715	-0.321532	-0.574850
C168	C	0.652207	-0.291933	-0.534283
C169	C	0.618666	-0.325281	-0.498874
H170	H	0.705636	-0.344332	-0.547217
H171	H	0.665764	-0.341428	-0.605987
H172	H	0.672156	-0.272046	-0.503150
H173	H	0.632274	-0.269134	-0.561900
H174	H	0.598714	-0.345176	-0.530011
H175	H	0.638591	-0.348080	-0.471244
H176	H	0.595923	-0.305202	-0.471349
C177	C	0.685893	-0.557581	-0.235711
C178	C	0.715524	-0.588926	-0.192367
C179	C	0.682205	-0.616308	-0.148939
H180	H	0.663092	-0.578924	-0.261496
H181	H	0.665997	-0.533546	-0.209857
H182	H	0.735411	-0.612958	-0.218217
H183	H	0.738323	-0.567597	-0.166567
H184	H	0.662309	-0.592273	-0.123085
H185	H	0.659406	-0.637647	-0.174729
H186	H	0.702305	-0.637575	-0.119520
H187	H	0.816257	-0.953216	-0.404900
H188	H	0.816326	-0.191148	-1.068610
C189	C	0.652393	-0.694978	-0.192451
C190	C	0.623147	-0.730625	-0.154504
C191	C	0.589692	-0.703483	-0.111078
H192	H	0.629548	-0.673677	-0.218232
H193	H	0.672386	-0.673691	-0.162942
H194	H	0.603155	-0.751903	-0.184009
H195	H	0.645978	-0.751926	-0.128709
H196	H	0.609684	-0.682196	-0.081569
H197	H	0.566850	-0.682183	-0.136865
H198	H	0.569848	-0.727665	-0.085322
C199	C	0.858612	-0.808464	-0.460047
C200	C	0.829007	-0.839802	-0.503414
C201	C	0.862349	-0.867070	-0.546853
H202	H	0.881424	-0.829802	-0.434270
H203	H	0.878494	-0.784362	-0.485882
H204	H	0.809133	-0.863901	-0.477581
H205	H	0.806196	-0.818476	-0.529206
H206	H	0.882232	-0.842968	-0.572688
H207	H	0.885160	-0.888405	-0.521071
H208	H	0.842267	-0.888332	-0.576287
C209	C	0.685790	-0.443570	-0.235847
C210	C	0.692921	-0.389897	-0.245129
C211	C	0.659510	-0.362536	-0.201877
H212	H	0.693427	-0.452474	-0.190353
H213	H	0.650647	-0.452509	-0.245717
H214	H	0.728055	-0.380963	-0.235254
H215	H	0.685280	-0.380978	-0.290614
H216	H	0.624367	-0.371474	-0.211747
H217	H	0.667150	-0.371444	-0.156385
H218	H	0.664340	-0.326116	-0.208172
C219	C	0.563829	-0.182002	-0.236084
C220	C	0.550569	-0.130287	-0.250943
C221	C	0.577794	-0.096707	-0.207775
H222	H	0.600268	-0.186725	-0.242223
H223	H	0.554845	-0.189576	-0.190577
H224	H	0.559556	-0.122716	-0.296439
H225	H	0.514135	-0.125548	-0.244800
H226	H	0.568810	-0.104281	-0.162268
H227	H	0.614231	-0.101434	-0.213918
H228	H	0.568797	-0.061615	-0.217847
H229	H	0.695030	-1.052464	-0.247673
H230	H	0.694913	-0.312457	-1.068493
C231	C	0.685881	-0.321654	-0.722352
C232	C	0.715468	-0.355173	-0.762914
C233	C	0.682106	-0.388676	-0.798267
H234	H	0.663107	-0.301706	-0.749984
H235	H	0.665958	-0.341600	-0.691181
H236	H	0.735382	-0.335229	-0.794081
H237	H	0.738241	-0.375133	-0.735299
H238	H	0.662183	-0.408622	-0.767096
H239	H	0.659333	-0.368723	-0.825895
H240	H	0.702176	-0.411425	-0.825787
H241	H	-0.044913	-0.191225	-0.247879
H242	H	0.206264	-0.157706	-0.204652
H243	H	0.457460	-0.312671	-0.404571
H244	H	0.054163	-0.312706	-0.404639
H245	H	0.206294	-0.346169	-0.447819
C246	C	0.685900	-0.946110	-0.235818
C247	C	0.656661	-0.981760	-0.197867
C248	C	0.623209	-0.954621	-0.154433
H249	H	0.663051	-0.924810	-0.261593
H250	H	0.705895	-0.924823	-0.206312
H251	H	0.636667	-1.003038	-0.227369
H252	H	0.679496	-1.003061	-0.172078
H253	H	0.643204	-0.933334	-0.124927
H254	H	0.600364	-0.933322	-0.180214
H255	H	0.603370	-0.978805	-0.128673
H256	H	0.054136	-0.191208	-0.247871
C257	C	0.312725	-0.355185	-0.459642
C258	C	0.299480	-0.343853	-0.526637
C259	C	0.326750	-0.377263	-0.569977
H260	H	0.303777	-0.390324	-0.449742
H261	H	0.349161	-0.350389	-0.453503
H262	H	0.263053	-0.348654	-0.532772
H263	H	0.308430	-0.308721	-0.536558
H264	H	0.363186	-0.372467	-0.563839
H265	H	0.317800	-0.412400	-0.560071
H266	H	0.317771	-0.369576	-0.615438
C267	C	0.312632	-0.148591	-0.192838
C268	C	0.277026	-0.119284	-0.155000
C269	C	0.304215	-0.085777	-0.111699
H270	H	0.333959	-0.125788	-0.218703
H271	H	0.333897	-0.168550	-0.163254
H272	H	0.255771	-0.099327	-0.184580
H273	H	0.255698	-0.142073	-0.129121
H274	H	0.325480	-0.105735	-0.082115
H275	H	0.325541	-0.062977	-0.137570
H276	H	0.280061	-0.065891	-0.086017
H277	H	0.457424	-0.191179	-0.247794
