data_functionalizedCrystal
_audit_creation_method	'MofGen! by Chris Wilmer'
_symmetry_space_group_name_H-M	'P1'
_symmetry_Int_Tables_number	1
_symmetry_cell_setting	triclinic
loop_
_symmetry_equiv_pos_as_xyz
  x,y,z
_cell_length_a	14.519709
_cell_length_b	7.681187
_cell_length_c	14.519709
_cell_angle_alpha	84.259711
_cell_angle_beta	83.680145
_cell_angle_gamma	95.736717
loop_
_atom_site_label
_atom_site_type_symbol
_atom_site_fract_x
_atom_site_fract_y
_atom_site_fract_z
O1	O	1.232558	0.146207	0.112191
O2	O	1.732558	0.646207	0.612191
O3	O	0.964084	0.146261	0.126424
O4	O	1.464084	0.646261	0.626424
O5	O	1.105438	0.146217	-0.014930
O6	O	1.605438	0.646217	0.485070
O7	O	1.091204	0.146251	0.253545
O8	O	1.591204	0.646251	0.753545
O9	O	1.088018	-0.146648	0.002493
O10	O	1.588018	0.353352	0.502493
O11	O	0.946664	-0.146604	0.143847
O12	O	1.446664	0.353396	0.643847
O13	O	1.215138	-0.146658	0.129614
O14	O	1.715138	0.353342	0.629614
Zn15	Zn	1.078135	-0.193129	0.139497
Zn16	Zn	1.578135	0.306871	0.639497
Zn17	Zn	1.101087	0.192733	0.116541
Zn18	Zn	1.601087	0.692733	0.616541
O19	O	1.073784	-0.146614	0.270968
O20	O	1.573784	0.353386	0.770968
C21	C	0.921015	-0.000164	0.134472
C22	C	1.421015	0.499836	0.634472
C23	C	0.818635	-0.000144	0.132482
C24	C	1.318635	0.499856	0.632482
N25	N	1.062478	-0.456470	0.155163
N26	N	1.562478	0.043530	0.655163
C27	C	1.096065	-0.000216	-0.040578
C28	C	1.596065	0.499784	0.459422
C29	C	1.094077	-0.000216	-0.142959
C30	C	1.594077	0.499784	0.357041
C31	C	0.443734	-0.000225	0.125168
C32	C	0.943734	0.499775	0.625168
C33	C	0.548044	-0.000202	0.127199
C34	C	1.048044	0.499798	0.627199
C35	C	0.631181	-0.000183	0.128825
C36	C	1.131181	0.499817	0.628825
C37	C	0.735497	-0.000163	0.130857
C38	C	1.235497	0.499837	0.630857
C39	C	1.258208	-0.000228	0.121566
C40	C	1.758208	0.499772	0.621566
C41	C	1.360588	-0.000237	0.123555
C42	C	1.860588	0.499763	0.623555
N43	N	1.116752	0.456073	0.100868
N44	N	1.616752	0.956073	0.600868
C45	C	1.086760	-0.000169	-0.517858
C46	C	1.586760	0.499831	-0.017858
C47	C	1.088792	-0.000183	-0.413549
C48	C	1.588792	0.499817	0.086451
C49	C	1.090418	-0.000194	-0.330412
C50	C	1.590418	0.499806	0.169588
C51	C	1.092450	-0.000205	-0.226097
C52	C	1.592450	0.499795	0.273903
C53	C	1.083158	-0.000177	0.296616
C54	C	1.583158	0.499823	0.796616
C55	C	1.085147	-0.000165	0.398997
C56	C	1.585147	0.499835	0.898997
H57	H	1.172129	-0.468698	0.045450
H58	H	1.672129	0.031302	0.545450
H59	H	1.007098	-0.531689	0.210571
H60	H	1.507098	-0.031689	0.710571
