data_functionalizedCrystal
_audit_creation_method	'MofGen! by Chris Wilmer'
_symmetry_space_group_name_H-M	'P1'
_symmetry_Int_Tables_number	1
_symmetry_cell_setting	triclinic
loop_
_symmetry_equiv_pos_as_xyz
  x,y,z
_cell_length_a	6.817900
_cell_length_b	10.992469
_cell_length_c	10.992743
_cell_angle_alpha	91.823596
_cell_angle_beta	108.770538
_cell_angle_gamma	108.765624
loop_
_atom_site_label
_atom_site_type_symbol
_atom_site_fract_x
_atom_site_fract_y
_atom_site_fract_z
V1	V	-4.114299	-0.177721	-0.400571
O2	O	-4.072421	0.008581	-0.392964
O3	O	-4.091882	-0.352431	-0.397813
O4	O	-4.091911	-0.174970	-0.575282
O5	O	-4.072392	-0.170108	-0.214267
V6	V	-4.591190	-0.155440	-0.378289
O7	O	-4.390106	-0.226598	-0.449446
O8	O	-4.765580	-0.106563	-0.329414
O9	O	-4.390400	0.019270	-0.381047
O10	O	-4.750464	-0.341742	-0.385896
O11	O	-4.750494	-0.163053	-0.564593
O12	O	-4.390371	-0.158191	-0.203578
C13	C	-3.942362	-0.395022	-0.391489
C14	C	-4.005493	-0.537848	-0.390399
C15	C	-3.807114	-0.584348	-0.382243
C16	C	-3.872968	-0.732984	-0.381612
C17	C	-4.270218	-0.764484	-0.515755
C18	C	-4.203092	-0.615838	-0.516925
C19	C	-4.079398	-0.577561	-0.271576
C20	C	-4.140135	-0.725781	-0.268697
C21	C	-3.942398	-0.168651	-0.617866
C22	C	-4.005549	-0.167557	-0.760693
C23	C	-4.317988	-0.174249	-0.971786
C24	C	-4.252204	-0.174894	-0.823154
C25	C	-3.855213	-0.040045	-0.791481
C26	C	-3.922275	-0.038864	-0.940123
C27	C	-4.044626	-0.284158	-0.978370
C28	C	-3.983951	-0.287059	-0.830155
C29	C	-4.203263	0.061854	-0.387368
C30	C	-4.119371	0.204679	-0.388466
C31	C	-4.203226	-0.164514	-0.160987
C32	C	-4.119312	-0.165601	-0.018159
H33	H	-4.157458	-0.592794	-0.606774
H34	H	-3.968497	0.050797	-0.963222
H35	H	-3.673598	-0.030031	-0.749616
N36	N	-4.371547	-0.780933	-0.265483
H37	H	-4.466632	-0.852094	-0.341963
H38	H	-4.436273	-0.709730	-0.270282
N39	N	-3.609475	-0.514692	-0.261729
H40	H	-3.650709	-0.533432	-0.182109
H41	H	-3.561323	-0.418039	-0.264072
N42	N	-4.275023	-0.538426	-0.277902
H43	H	-4.315643	-0.495181	-0.357305
H44	H	-4.235329	-0.475764	-0.197279
H45	H	-4.027669	-0.743993	-0.174603
N46	N	-4.394713	-0.061433	-1.007178
H47	H	-4.379403	-0.008571	-0.925611
H48	H	-4.554758	-0.095469	-1.066541
H49	H	-4.277973	-0.089697	-0.776916
H50	H	-4.368429	-0.266542	-0.803547
N51	N	-4.401787	-0.576911	-0.531739
H52	H	-4.532557	-0.656300	-0.537490
H53	H	-4.437883	-0.536450	-0.613517
N54	N	-4.132429	-0.411920	-0.806098
H55	H	-4.213352	-0.391178	-0.750436
H56	H	-4.039984	-0.463581	-0.759939
N57	N	-3.723343	-0.023599	-0.978932
H58	H	-3.592509	-0.017654	-0.899493
H59	H	-3.687617	0.058202	-1.019398
N60	N	-3.872272	0.077548	-0.726889
H61	H	-3.977216	0.048505	-0.677650
H62	H	-3.929595	0.129122	-0.795285
N63	N	-4.515109	-0.294986	-1.041506
H64	H	-4.554953	-0.351143	-0.975977
H65	H	-4.477391	-0.345146	-1.103826
H66	H	-4.451672	-0.806259	-0.525415
N67	N	-4.253993	-0.829164	-0.633598
H68	H	-4.149094	-0.878472	-0.604813
H69	H	-4.196994	-0.760812	-0.685300
H70	H	-4.180669	-0.379774	-1.032949
H71	H	-3.809027	-0.289132	-0.788409
N72	N	-3.848735	-0.277349	-1.017413
H73	H	-3.887808	-0.357840	-1.080100
H74	H	-3.718737	-0.271693	-0.937584
H75	H	-3.749720	-0.557668	-0.467599
N76	N	-3.717980	-0.758817	-0.260570
H77	H	-3.638166	-0.812758	-0.285928
H78	H	-3.805441	-0.807371	-0.207482
N79	N	-3.839637	-0.794313	-0.494745
H80	H	-3.935147	-0.776667	-0.578751
H81	H	-3.882280	-0.891213	-0.494692
N82	N	-3.898626	-0.505308	-0.145096
H83	H	-3.766979	-0.446091	-0.163544
H84	H	-3.852993	-0.569727	-0.089385
