data_functionalizedCrystal
_audit_creation_method	'MofGen! by Chris Wilmer'
_symmetry_space_group_name_H-M	'P1'
_symmetry_Int_Tables_number	1
_symmetry_cell_setting	triclinic
loop_
_symmetry_equiv_pos_as_xyz
  x,y,z
_cell_length_a	21.295418
_cell_length_b	21.295417
_cell_length_c	21.395355
_cell_angle_alpha	90.017926
_cell_angle_beta	89.956257
_cell_angle_gamma	89.956327
loop_
_atom_site_label
_atom_site_type_symbol
_atom_site_fract_x
_atom_site_fract_y
_atom_site_fract_z
Zn1	Zn	0.962367	0.250416	-0.354585
Zn2	Zn	1.462367	0.750416	0.145415
Zn3	Zn	0.962275	0.355668	-0.249808
Zn4	Zn	1.462275	0.855668	0.250192
Zn5	Zn	0.857091	0.250446	-0.249787
Zn6	Zn	1.357091	0.750446	0.250213
Zn7	Zn	0.857065	0.355681	-0.354514
Zn8	Zn	1.357065	0.855681	0.145486
O9	O	0.909699	0.303053	-0.302173
O10	O	1.409699	0.803053	0.197827
O11	O	1.050445	0.264361	-0.340725
O12	O	1.550445	0.764361	0.159275
O13	O	0.948294	0.341717	-0.162128
O14	O	1.448294	0.841717	0.337872
O15	O	0.871105	0.162352	-0.263709
O16	O	1.371105	0.662352	0.236291
O17	O	1.050376	0.341688	-0.263746
O18	O	1.550376	0.841688	0.236254
O19	O	0.948452	0.162331	-0.340704
O20	O	1.448452	0.662331	0.159296
O21	O	0.871015	0.264410	-0.162112
O22	O	1.371015	0.764410	0.337888
O23	O	0.768998	0.264423	-0.263640
O24	O	1.268998	0.764423	0.236360
O25	O	0.871061	0.341710	-0.442201
O26	O	1.371061	0.841710	0.057799
O27	O	0.768979	0.341739	-0.340582
O28	O	1.268979	0.841739	0.159418
O29	O	0.948427	0.264373	-0.442253
O30	O	1.448427	0.764373	0.057747
O31	O	0.948269	0.443759	-0.263677
O32	O	1.448269	0.943759	0.236323
O33	O	0.870972	0.443768	-0.340604
O34	O	1.370972	0.943768	0.159396
C35	C	0.746148	0.303086	-0.302101
C36	C	1.246148	0.803086	0.197899
C37	C	0.676180	0.303115	-0.302085
C38	C	1.176180	0.803115	0.197915
C39	C	0.909624	0.466604	-0.302149
C40	C	1.409624	0.966604	0.197851
C41	C	0.909650	0.536572	-0.302159
C42	C	1.409650	1.036572	0.197841
C43	C	0.950093	1.036004	-0.262242
C44	C	1.450093	1.536004	0.237758
C45	C	0.950070	0.970262	-0.262225
C46	C	1.450070	1.470262	0.237775
C47	C	0.909783	0.937412	-0.302238
C48	C	1.409783	1.437412	0.197762
C49	C	0.869505	0.970309	-0.342258
C50	C	1.369505	1.470309	0.157742
C51	C	0.869525	1.036051	-0.342270
C52	C	1.369525	1.536051	0.157730
N53	N	0.904895	0.834170	-0.357058
N54	N	1.404895	1.334170	0.142942
N55	N	0.904879	0.771719	-0.357046
N56	N	1.404879	1.271719	0.142954
C57	C	0.909719	0.739337	-0.302205
C58	C	1.409719	1.239337	0.197795
N59	N	0.914587	0.771766	-0.247376
N60	N	1.414587	1.271766	0.252624
N61	N	0.914606	0.834223	-0.247389
N62	N	1.414606	1.334223	0.252611
C63	C	0.909756	0.866126	-0.302229
C64	C	1.409756	1.366126	0.197771
C65	C	0.949966	0.635162	-0.262165
C66	C	1.449966	1.135162	0.237835
C67	C	0.949938	0.569418	-0.262147
C68	C	1.449938	1.069418	0.237853
C69	C	0.869376	0.569467	-0.342186
C70	C	1.369376	1.069467	0.157814
C71	C	0.869401	0.635209	-0.342198
C72	C	1.369401	1.135209	0.157802
C73	C	0.909699	0.668053	-0.302189
C74	C	1.409699	1.168053	0.197811
C75	C	0.643320	0.343427	-0.342089
C76	C	1.143320	0.843427	0.157911
C77	C	0.577577	0.343411	-0.342117
C78	C	1.077577	0.843411	0.157883
C79	C	0.544697	0.303091	-0.302130
C80	C	1.044697	0.803091	0.197870
C81	C	0.577565	0.262771	-0.262123
C82	C	1.077565	0.762771	0.237877
C83	C	0.643306	0.262783	-0.262101
C84	C	1.143306	0.762783	0.237899
N85	N	0.441421	0.298163	-0.247330
N86	N	0.941421	0.798163	0.252670
N87	N	0.378969	0.298156	-0.247353
N88	N	0.878969	0.798156	0.252647
C89	C	0.346622	0.303051	-0.302197
C90	C	0.846622	0.803051	0.197803
N91	N	0.379086	0.307966	-0.357018
N92	N	0.879086	0.807966	0.142982
N93	N	0.441543	0.307977	-0.356994
N94	N	0.941543	0.807977	0.143006
C95	C	0.473412	0.303073	-0.302151
C96	C	0.973412	0.803073	0.197849
C97	C	0.242477	0.343348	-0.342235
C98	C	0.742477	0.843348	0.157765
C99	C	0.176733	0.343328	-0.342264
C100	C	0.676733	0.843328	0.157736
C101	C	0.176722	0.262691	-0.262264
C102	C	0.676722	0.762691	0.237736
C103	C	0.242465	0.262707	-0.262241
C104	C	0.742465	0.762707	0.237759
C105	C	0.275338	0.303039	-0.302225
C106	C	0.775338	0.803039	0.197775
C107	C	1.073890	0.303020	-0.302246
C108	C	1.573890	0.803020	0.197754
C109	C	1.143858	0.303006	-0.302277
C110	C	1.643858	0.803006	0.197723
C111	C	0.909752	0.303040	-0.465597
C112	C	1.409752	0.803040	0.034403
C113	C	0.909774	0.303034	-0.535238
C114	C	1.409774	0.803034	-0.035238
C115	C	0.909790	1.138862	-0.302220
C116	C	1.409790	1.638862	0.197780
C117	C	0.909823	1.068894	-0.302260
C118	C	1.409823	1.568894	0.197740
C119	C	0.950056	0.262763	-0.567979
C120	C	1.450056	0.762763	-0.067979
C121	C	0.950055	0.262736	-0.633415
C122	C	1.450055	0.762736	-0.133415
C123	C	0.909779	0.302992	-0.666106
C124	C	1.409779	0.802992	-0.166106
C125	C	0.869489	0.343266	-0.633357
C126	C	1.369489	0.843266	-0.133357
C127	C	0.869486	0.343287	-0.567923
C128	C	1.369486	0.843287	-0.067923
C129	C	0.904782	0.359673	-0.769771
C130	C	1.404782	0.859673	-0.269771
C131	C	0.904789	0.359653	-0.835204
C132	C	1.404789	0.859653	-0.335204
C133	C	0.909783	0.302925	-0.867927
C134	C	1.409783	0.802925	-0.367927
C135	C	0.914783	0.246216	-0.835210
C136	C	1.414783	0.746216	-0.335210
C137	C	0.914780	0.246238	-0.769775
C138	C	1.414780	0.746238	-0.269775
C139	C	0.909777	0.302973	-0.737059
C140	C	1.409777	0.802973	-0.237059
C141	C	0.950066	0.262621	-0.971621
C142	C	1.450066	0.762621	-0.471621
C143	C	0.950061	0.262593	-1.037058
C144	C	1.450061	0.762593	-0.537058
C145	C	0.869497	0.343128	-1.036999
C146	C	1.369497	0.843128	-0.536999
C147	C	0.869499	0.343150	-0.971563
C148	C	1.369499	0.843150	-0.471563
C149	C	0.909787	0.302898	-0.938879
C150	C	1.409787	0.802898	-0.438879
C151	C	0.909684	0.303020	-0.139386
C152	C	1.409684	0.803020	0.360614
C153	C	0.909783	0.302848	-0.069745
C154	C	1.409783	0.802848	0.430255
H155	H	0.982905	1.062742	-0.229661
H156	H	1.482905	1.562742	0.270339
H157	H	0.670061	0.229955	-0.229525
H158	H	1.170061	0.729955	0.270475
H159	H	0.149952	0.229858	-0.229709
H160	H	0.649952	0.729858	0.270291
C161	C	0.825181	0.387544	-0.669319
C162	C	1.325181	0.887544	-0.169319
N163	N	0.791805	0.420893	-0.696406
N164	N	1.291805	0.920893	-0.196406
C165	C	0.679476	0.387791	-0.386076
C166	C	1.179476	0.887791	0.113924
N167	N	0.706711	0.421206	-0.419207
N168	N	1.206711	0.921206	0.080793
C169	C	0.278612	0.218367	-0.218227
C170	C	0.778612	0.718367	0.281773
N171	N	0.305838	0.184966	-0.185074
N172	N	0.805838	0.684966	0.314926
H173	H	0.900722	0.405829	-0.861838
H174	H	1.400722	0.905829	-0.361838
H175	H	0.918849	0.200063	-0.743139
H176	H	1.418849	0.700063	-0.243139
C177	C	0.994378	0.934076	-0.218207
C178	C	1.494378	1.434076	0.281793
N179	N	1.027753	0.906822	-0.185055
N180	N	1.527753	1.406822	0.314945
C181	C	0.825172	0.387592	-0.531906
C182	C	1.325172	0.887592	-0.031906
N183	N	0.791794	0.420964	-0.504778
N184	N	1.291794	0.920964	-0.004778
C185	C	0.541424	0.387761	-0.386125
C186	C	1.041424	0.887761	0.113875
N187	N	0.514195	0.421166	-0.419270
N188	N	1.014195	0.921166	0.080730
C189	C	0.825190	0.934173	-0.386273
C190	C	1.325190	1.434173	0.113727
N191	N	0.791810	0.906955	-0.419425
N192	N	1.291810	1.406955	0.080575
H193	H	0.836733	1.062829	-0.374859
H194	H	1.336733	1.562829	0.125141
H195	H	0.982778	0.661904	-0.229586
H196	H	1.482778	1.161904	0.270414
C197	C	0.825105	0.671390	-0.386226
C198	C	1.325105	1.171390	0.113774
N199	N	0.791738	0.698640	-0.419390
N200	N	1.291738	1.198640	0.080610
C201	C	0.825188	0.387455	-0.935546
C202	C	1.325188	0.887455	-0.435546
N203	N	0.791808	0.420826	-0.908419
N204	N	1.291808	0.920826	-0.408419
C205	C	0.994231	0.533239	-0.218112
C206	C	1.494231	1.033239	0.281888
N207	N	1.027591	0.505989	-0.184942
N208	N	1.527591	1.005989	0.315058
H209	H	0.836572	0.542721	-0.374762
H210	H	1.336572	1.042721	0.125238
C211	C	0.278640	0.387706	-0.386225
C212	C	0.778640	0.887706	0.113775
N213	N	0.305876	0.421115	-0.419360
N214	N	0.805876	0.921115	0.080640
C215	C	0.994376	0.218288	-1.073073
C216	C	1.494376	0.718288	-0.573073
N217	N	1.027756	0.184917	-1.100201
N218	N	1.527756	0.684917	-0.600201
H219	H	0.550790	0.229941	-0.229567
H220	H	1.050790	0.729941	0.270433
H221	H	0.982861	0.229986	-0.541371
H222	H	1.482861	0.729986	-0.041371
C223	C	0.994378	0.218337	-0.935666
C224	C	1.494378	0.718337	-0.435666
N225	N	1.027752	0.184981	-0.908586
N226	N	1.527752	0.684981	-0.408586
H227	H	0.149980	0.376153	-0.374844
H228	H	0.649980	0.876153	0.125156
H229	H	0.982857	0.229939	-0.660078
H230	H	1.482857	0.729939	-0.160078
H231	H	0.918850	0.200023	-0.861852
H232	H	1.418850	0.700023	-0.361852
H233	H	0.836697	0.375898	-1.063616
H234	H	1.336697	0.875898	-0.563616
C235	C	0.899301	0.422083	-0.733782
C236	C	1.399301	0.922083	-0.233782
N237	N	0.895177	0.469089	-0.706676
N238	N	1.395177	0.969089	-0.206676
