data_functionalizedCrystal
_audit_creation_method	'MofGen! by Chris Wilmer'
_symmetry_space_group_name_H-M	'P1'
_symmetry_Int_Tables_number	1
_symmetry_cell_setting	triclinic
loop_
_symmetry_equiv_pos_as_xyz
  x,y,z
_cell_length_a	13.897449
_cell_length_b	12.759394
_cell_length_c	12.759387
_cell_angle_alpha	90.026897
_cell_angle_beta	89.975598
_cell_angle_gamma	89.983623
loop_
_atom_site_label
_atom_site_type_symbol
_atom_site_fract_x
_atom_site_fract_y
_atom_site_fract_z
Zn1	Zn	1.474727	0.418188	-0.594143
Zn2	Zn	1.974727	0.918188	-0.094143
Zn3	Zn	1.474624	0.593905	-0.418475
Zn4	Zn	1.974624	1.093905	0.081525
Zn5	Zn	1.313413	0.418243	-0.418468
Zn6	Zn	1.813413	0.918243	0.081532
Zn7	Zn	1.313403	0.593828	-0.594102
Zn8	Zn	1.813403	1.093828	-0.094102
O9	O	1.394042	0.506041	-0.506297
O10	O	1.894042	1.006041	-0.006297
O11	O	1.609695	0.441506	-0.570860
O12	O	2.109695	0.941506	-0.070860
O13	O	1.453200	0.570658	-0.271453
O14	O	1.953200	1.070658	0.228547
O15	O	1.334858	0.271215	-0.441785
O16	O	1.834858	0.771215	0.058215
O17	O	1.609619	0.570605	-0.441798
O18	O	2.109619	1.070605	0.058202
O19	O	1.453375	0.271174	-0.570853
O20	O	1.953375	0.771174	-0.070853
O21	O	1.334759	0.441600	-0.271447
O22	O	1.834759	0.941600	0.228553
O23	O	1.178430	0.441526	-0.441746
O24	O	1.678430	0.941526	0.058254
O25	O	1.334842	0.570474	-0.741129
O26	O	1.834842	1.070474	-0.241129
O27	O	1.178423	0.570527	-0.570784
O28	O	1.678423	1.070527	-0.070784
O29	O	1.453366	0.441432	-0.741159
O30	O	1.953366	0.941432	-0.241159
O31	O	1.453191	0.740916	-0.441759
O32	O	1.953191	1.240916	0.058241
O33	O	1.334743	0.740859	-0.570791
O34	O	1.834743	1.240859	-0.070791
C35	C	1.143427	0.506025	-0.506260
C36	C	1.643427	1.006025	-0.006260
C37	C	1.036213	0.506043	-0.506270
C38	C	1.536213	1.006043	-0.006270
C39	C	0.949144	0.506047	-0.506287
C40	C	1.449144	1.006047	-0.006287
C41	C	0.839911	0.506054	-0.506319
C42	C	1.339911	1.006054	-0.006319
C43	C	1.393981	0.779008	-0.506294
C44	C	1.893981	1.279008	-0.006294
C45	C	1.394043	0.895785	-0.506328
C46	C	1.894043	1.395785	-0.006328
C47	C	1.517584	1.115214	-0.372121
C48	C	2.017584	1.615214	0.127879
C49	C	1.579278	1.060345	-0.304981
C50	C	2.079278	1.560345	0.195019
C51	C	1.579229	0.950623	-0.304955
C52	C	2.079229	1.450623	0.195045
C53	C	1.517478	0.895768	-0.372074
C54	C	2.017478	1.395768	0.127926
C55	C	1.455785	0.950637	-0.439214
C56	C	1.955785	1.450637	0.060786
C57	C	1.455842	1.060362	-0.439235
C58	C	1.955842	1.560362	0.060765
C59	C	1.332349	0.950654	-0.573468
C60	C	1.832349	1.450654	-0.073468
C61	C	1.332401	1.060376	-0.573501
C62	C	1.832401	1.560376	-0.073501
C63	C	1.270598	0.895799	-0.640587
C64	C	1.770598	1.395799	-0.140587
C65	C	1.208908	0.950668	-0.707734
C66	C	1.708908	1.450668	-0.207734
C67	C	1.208960	1.060397	-0.707759
C68	C	1.708960	1.560397	-0.207759
C69	C	1.270708	1.115245	-0.640642
C70	C	1.770708	1.615245	-0.140642
C71	C	1.645635	0.506058	-0.506334
C72	C	2.145635	1.006058	-0.006334
C73	C	1.752849	0.506065	-0.506350
C74	C	2.252849	1.006065	-0.006350
C75	C	1.394115	0.505938	-0.780331
C76	C	1.894115	1.005938	-0.280331
C77	C	1.394146	0.505894	-0.897107
C78	C	1.894146	1.005894	-0.397107
C79	C	1.394126	1.232007	-0.506335
C80	C	1.894126	1.732007	-0.006335
C81	C	1.394152	1.115231	-0.506382
C82	C	1.894152	1.615231	-0.006382
C83	C	1.517572	0.371531	-0.897158
C84	C	2.017572	0.871531	-0.397158
C85	C	1.579299	0.304334	-0.952044
C86	C	2.079299	0.804334	-0.452044
C87	C	1.579323	0.304296	-1.061766
C88	C	2.079323	0.804296	-0.561766
C89	C	1.517611	0.371460	-1.116604
C90	C	2.017611	0.871460	-0.616604
C91	C	1.455884	0.438657	-1.061718
C92	C	1.955884	0.938657	-0.561718
C93	C	1.455869	0.438690	-0.951994
C94	C	1.955869	0.938690	-0.451994
C95	C	1.332454	0.573013	-1.061667
C96	C	1.832454	1.073013	-0.561667
C97	C	1.332434	0.573058	-0.951945
C98	C	1.832434	1.073058	-0.451945
C99	C	1.270742	0.640176	-1.116505
C100	C	1.770742	1.140176	-0.616505
C101	C	1.209018	0.707380	-1.061619
C102	C	1.709018	1.207380	-0.561619
C103	C	1.208998	0.707417	-0.951891
C104	C	1.708998	1.207417	-0.451891
C105	C	1.270707	0.640255	-0.897059
C106	C	1.770707	1.140255	-0.397059
C107	C	1.394025	0.506068	-0.233329
C108	C	1.894025	1.006068	0.266671
C109	C	1.394180	0.505816	-0.116553
C110	C	1.894180	1.005816	0.383447
H111	H	1.517639	1.204555	-0.372146
H112	H	2.017639	1.704555	0.127854
H113	H	1.158722	0.762126	-0.907209
H114	H	1.658722	1.262126	-0.407209
Cl115	Cl	1.270691	0.640299	-0.759122
Cl116	Cl	1.770691	1.140299	-0.259122
H117	H	1.270760	1.204586	-0.640659
H118	H	1.770760	1.704586	-0.140659
H119	H	1.158631	0.905999	-0.762373
H120	H	1.658631	1.405999	-0.262373
Cl121	Cl	1.656853	0.219879	-0.883101
Cl122	Cl	2.156853	0.719879	-0.383101
H123	H	1.517569	0.371566	-0.807817
H124	H	2.017569	0.871566	-0.307817
Cl125	Cl	1.131391	1.129366	-0.792162
Cl126	Cl	1.631391	1.629366	-0.292162
H127	H	1.629552	1.105020	-0.250332
H128	H	2.129552	1.605020	0.249668
Cl129	Cl	1.270771	0.640128	-1.254442
Cl130	Cl	1.770771	1.140128	-0.754442
Cl131	Cl	1.656907	0.219803	-1.130769
Cl132	Cl	2.156907	0.719803	-0.630769
H133	H	1.517627	0.371414	-1.205945
H134	H	2.017627	0.871414	-0.705945
H135	H	1.629462	0.905949	-0.250280
H136	H	2.129462	1.405949	0.249720
Cl137	Cl	1.131441	0.791799	-1.130562
Cl138	Cl	1.631441	1.291799	-0.630562
H139	H	1.270560	0.806458	-0.640557
H140	H	1.770560	1.306458	-0.140557
H141	H	1.517436	0.806427	-0.372038
H142	H	2.017436	1.306427	0.127962
