data_functionalizedCrystal
_audit_creation_method	'MofGen! by Chris Wilmer'
_symmetry_space_group_name_H-M	'P1'
_symmetry_Int_Tables_number	1
_symmetry_cell_setting	triclinic
loop_
_symmetry_equiv_pos_as_xyz
  x,y,z
_cell_length_a	10.654550
_cell_length_b	10.654550
_cell_length_c	9.730223
_cell_angle_alpha	89.995747
_cell_angle_beta	89.999957
_cell_angle_gamma	84.484931
loop_
_atom_site_label
_atom_site_type_symbol
_atom_site_fract_x
_atom_site_fract_y
_atom_site_fract_z
O1	O	1.667839	0.176399	-0.114187
O2	O	1.302361	0.193205	-0.114212
O3	O	1.493503	0.002062	-0.114190
O4	O	1.476697	0.367541	-0.114209
O5	O	1.493490	0.002057	0.114390
O6	O	1.302348	0.193199	0.114368
O7	O	1.667827	0.176393	0.114393
Zn8	Zn	1.485085	0.184796	0.150672
Zn9	Zn	1.485102	0.184802	-0.150492
O10	O	1.476684	0.367536	0.114371
C11	C	1.255556	0.191968	0.000075
C12	C	1.116113	0.188276	0.000065
C13	C	1.036628	0.300818	0.000064
C14	C	0.905607	0.297341	0.000088
C15	C	0.933570	0.068772	0.000109
C16	C	1.064588	0.072250	0.000095
C17	C	1.492263	-0.044738	0.000099
C18	C	1.488571	-0.184181	0.000096
C19	C	1.601112	-0.263667	0.000104
C20	C	1.597636	-0.394688	0.000087
C21	C	1.369066	-0.366725	0.000061
C22	C	1.372544	-0.235706	0.000068
C23	C	1.714631	0.177630	0.000103
C24	C	1.854074	0.181322	0.000104
C25	C	1.477925	0.414336	0.000079
C26	C	1.481617	0.553779	0.000072
N27	N	1.485083	0.184790	0.356209
N28	N	1.485114	0.184798	-0.356028
C29	C	1.569750	0.100188	0.428144
C30	C	1.569763	0.100189	0.572027
C31	C	1.400438	0.269404	0.572026
C32	C	1.400420	0.269396	0.428146
H33	H	0.840894	0.388984	0.000089
O34	O	1.713923	-0.213822	0.000053
C35	C	1.940265	-0.255392	0.000138
C36	C	1.812591	-0.312003	0.000171
H37	H	2.020072	-0.334744	0.000262
H38	H	1.947695	-0.194788	-0.095543
H39	H	1.947540	-0.194718	0.095778
H40	H	1.805229	-0.372734	-0.095404
H41	H	1.805216	-0.372534	0.095915
O42	O	1.318256	0.351764	0.641754
C43	C	1.246596	0.569465	0.685807
C44	C	1.339720	0.476328	0.606738
H45	H	1.263935	0.670195	0.657548
H46	H	1.145840	0.552259	0.657506
H47	H	1.261130	0.554880	0.800994
H48	H	1.325301	0.490858	0.491534
H49	H	1.440442	0.493557	0.635154
H50	H	1.689279	-0.459401	0.000090
H51	H	1.274601	-0.408693	0.000041
O52	O	1.263130	-0.158614	-0.000121
C53	C	1.068887	-0.094554	-0.118607
C54	C	1.192728	-0.181952	-0.118540
H55	H	1.011944	-0.113373	-0.214353
H56	H	1.011747	-0.113438	-0.023019
H57	H	1.091335	0.007928	-0.118536
H58	H	1.170393	-0.284464	-0.118659
H59	H	1.249831	-0.162959	-0.214119
H60	H	1.638687	0.031295	0.369576
H61	H	1.078574	0.395294	0.000049
O62	O	1.652132	0.017963	0.641692
C63	C	1.820029	-0.149923	0.626499
C64	C	1.726832	-0.056844	0.547435
H65	H	1.880431	-0.210447	0.550327
H66	H	1.883327	-0.095176	0.693809
H67	H	1.765253	-0.213116	0.693911
H68	H	1.781506	0.006371	0.479948
H69	H	1.663535	-0.111670	0.480212
H70	H	1.331468	0.338290	0.369572
H71	H	1.129309	-0.019401	0.000100
H72	H	0.891602	-0.025693	0.000142
