data_functionalizedCrystal
_audit_creation_method	'MofGen! by Chris Wilmer'
_symmetry_space_group_name_H-M	'P1'
_symmetry_Int_Tables_number	1
_symmetry_cell_setting	triclinic
loop_
_symmetry_equiv_pos_as_xyz
  x,y,z
_cell_length_a	16.793024
_cell_length_b	16.793047
_cell_length_c	33.586455
_cell_angle_alpha	113.253857
_cell_angle_beta	66.219990
_cell_angle_gamma	112.758327
loop_
_atom_site_label
_atom_site_type_symbol
_atom_site_fract_x
_atom_site_fract_y
_atom_site_fract_z
O1	O	0.005016	-0.570216	-0.583573
O2	O	-0.034529	-0.474528	-0.453458
O3	O	0.114723	-0.474535	-0.528082
O4	O	-0.144235	-0.570209	-0.508949
O5	O	0.108729	-0.346329	-0.530229
O6	O	-0.040523	-0.346322	-0.455605
O7	O	-0.000977	-0.442010	-0.585721
Cu8	Cu	-0.021297	-0.382459	-0.520859
Cu9	Cu	-0.014209	-0.534079	-0.518320
O10	O	-0.150229	-0.442003	-0.511097
C11	C	0.005100	-0.790970	-0.238461
C12	C	0.009223	-0.693065	-0.217557
C13	C	0.003804	-0.645758	-0.241627
C14	C	-0.075059	-0.538459	-0.266316
C15	C	0.049838	-0.422849	-0.250165
C16	C	-0.040584	-0.395375	-0.435637
C17	C	-0.044693	-0.353446	-0.386631
C18	C	-0.039275	-0.401741	-0.363054
C19	C	-0.040566	-0.125547	-0.300731
C20	C	-0.044689	-0.223451	-0.321635
C21	C	-0.039266	-0.270752	-0.297563
C22	C	0.039597	-0.378051	-0.272874
C23	C	-0.085304	-0.493667	-0.289026
C24	C	0.005118	-0.521142	-0.103554
C25	C	0.009231	-0.563064	-0.152559
C26	C	0.003809	-0.514775	-0.176138
C27	C	0.010758	-0.652581	-0.172822
C28	C	0.001010	-0.556371	-0.220792
C29	C	-0.008251	-0.506059	-0.245823
C30	C	-0.046224	-0.263935	-0.366370
C31	C	-0.036476	-0.360146	-0.318399
C32	C	-0.027211	-0.410451	-0.293367
C33	C	0.815184	-0.521162	-0.508596
C34	C	0.717729	-0.563083	-0.506815
C35	C	0.669923	-0.514793	-0.509201
C36	C	0.564072	-0.463272	-0.548285
C37	C	0.445555	-0.498966	-0.486078
C38	C	0.415541	-0.125553	-0.528781
C39	C	0.375032	-0.223457	-0.531493
C40	C	0.423813	-0.270761	-0.529101
C41	C	0.149318	-0.395376	-0.530584
C42	C	0.246774	-0.353455	-0.532364
C43	C	0.294574	-0.401748	-0.529976
C44	C	0.400424	-0.453269	-0.490892
C45	C	0.518948	-0.417572	-0.553101
C46	C	0.548961	-0.790984	-0.510398
C47	C	0.589464	-0.693083	-0.507684
C48	C	0.540690	-0.645776	-0.510078
C49	C	0.678399	-0.652598	-0.506649
C50	C	0.581167	-0.556389	-0.510877
C51	C	0.530434	-0.506073	-0.515170
C52	C	0.286104	-0.263940	-0.532530
C53	C	0.383336	-0.360149	-0.528302
C54	C	0.434062	-0.410467	-0.524008
C55	C	-0.040530	-0.395407	-0.935652
C56	C	-0.044651	-0.353482	-0.886645
C57	C	-0.039242	-0.401770	-0.863061
C58	C	0.039602	-0.453292	-0.810474
C59	C	-0.085288	-0.417587	-0.750981
C60	C	0.005063	-0.791004	-0.738448
C61	C	0.009186	-0.693099	-0.717543
C62	C	0.003779	-0.645796	-0.741620
C63	C	0.005077	-0.521171	-0.603544
C64	C	0.009198	-0.563096	-0.652550
C65	C	0.003786	-0.514804	-0.676131
C66	C	-0.075058	-0.463283	-0.728717
C67	C	0.049835	-0.498991	-0.788214
C68	C	-0.040516	-0.125574	-0.800747
C69	C	-0.044642	-0.223476	-0.821649
C70	C	-0.039232	-0.270782	-0.797575
C71	C	-0.046172	-0.263965	-0.866386
C72	C	-0.036447	-0.360171	-0.818406
C73	C	-0.027197	-0.410486	-0.793373
C74	C	0.010719	-0.652613	-0.672809
C75	C	0.000994	-0.556406	-0.720789
C76	C	-0.008259	-0.506089	-0.745819
O77	O	-0.000965	0.173549	-0.277957
O78	O	-0.040516	-0.085616	-0.325254
O79	O	0.108737	0.059592	-0.327284
O80	O	-0.150219	0.028341	-0.275927
O81	O	0.114753	0.055151	-0.263265
O82	O	-0.034500	-0.090057	-0.261234
O83	O	0.005051	0.169108	-0.213937
Cu84	Cu	-0.014175	0.039120	-0.231740
Cu85	Cu	-0.021290	0.044372	-0.307451
O86	O	-0.144202	0.023900	-0.211907
O87	O	-0.034458	-0.474571	0.046517
O88	O	0.005076	-0.570190	-0.083599
O89	O	-0.144170	-0.570237	-0.008972
O90	O	0.114787	-0.474523	-0.028110
O91	O	-0.150200	-0.442024	-0.011093
O92	O	-0.000954	-0.441976	-0.085720
O93	O	-0.040488	-0.346357	0.044396
Cu94	Cu	-0.021272	-0.382460	-0.020856
Cu95	Cu	-0.014141	-0.534087	-0.018347
O96	O	0.108757	-0.346309	-0.030231
C97	C	-0.850734	0.086244	-0.289716
C98	C	-0.753280	0.087165	-0.312001
C99	C	-0.705462	0.081107	-0.288506
C100	C	-0.599592	0.000085	-0.264184
C101	C	-0.481080	0.121287	-0.283645
C102	C	-0.450996	0.035117	-0.097351
C103	C	-0.410501	0.028587	-0.146852
C104	C	-0.459292	0.034683	-0.169840
C105	C	-0.184802	0.024283	-0.235878
C106	C	-0.282257	0.023363	-0.213592
C107	C	-0.330068	0.029423	-0.237088
C108	C	-0.435938	0.110445	-0.261411
C109	C	-0.554456	-0.010759	-0.241948
C110	C	-0.584541	0.075410	-0.428242
C111	C	-0.625029	0.081943	-0.378743
C112	C	-0.576244	0.075844	-0.355753
C113	C	-0.713963	0.086424	-0.357292
C114	C	-0.616708	0.075351	-0.310510
C115	C	-0.565963	0.065400	-0.286043
C116	C	-0.321573	0.024104	-0.168302
C117	C	-0.418828	0.035176	-0.215083
C118	C	-0.469568	0.045131	-0.239552
O119	O	0.585213	0.169090	-0.504004
O120	O	0.494056	-0.090076	-0.525516
O121	O	0.488081	0.055124	-0.449918
O122	O	0.591189	0.023889	-0.579602
O123	O	0.359978	0.059584	-0.452885
O124	O	0.365953	-0.085616	-0.528483
O125	O	0.457110	0.173550	-0.506971
Cu126	Cu	0.399835	0.044374	-0.517998
Cu127	Cu	0.551332	0.039099	-0.514489
O128	O	0.463086	0.028349	-0.582569
C129	C	0.815354	-0.521094	-0.008709
C130	C	0.717898	-0.563028	-0.006927
C131	C	0.670072	-0.514739	-0.009298
C132	C	0.564182	-0.463204	-0.048354
C133	C	0.445681	-0.498945	0.013847
C134	C	0.415547	-0.125494	-0.028771
C135	C	0.375059	-0.223405	-0.031498
C136	C	0.423859	-0.270708	-0.029121
C137	C	0.149365	-0.395355	-0.030599
C138	C	0.246820	-0.353421	-0.032381
C139	C	0.294640	-0.401713	-0.030008
C140	C	0.400530	-0.453248	0.009048
C141	C	0.519038	-0.417504	-0.053155
C142	C	0.549171	-0.790955	-0.010537
C143	C	0.589653	-0.693047	-0.007809
C144	C	0.540859	-0.645741	-0.010187
C145	C	0.678588	-0.652551	-0.006775
C146	C	0.581317	-0.556344	-0.010973
C147	C	0.530562	-0.506029	-0.015250
C148	C	0.286131	-0.263897	-0.032533
C149	C	0.383402	-0.360104	-0.028335
C150	C	0.434150	-0.410423	-0.024057
O151	O	-0.620614	0.089309	0.052274
O152	O	-0.529507	0.043784	-0.078544
O153	O	-0.523494	0.194833	-0.006033
O154	O	-0.626628	-0.061740	-0.020236
O155	O	-0.395386	0.185419	-0.005549
O156	O	-0.401400	0.034370	-0.078059
O157	O	-0.492507	0.079895	0.052758
Cu158	Cu	-0.435256	0.056273	-0.012607
Cu159	Cu	-0.586758	0.067406	-0.013179
O160	O	-0.498521	-0.071154	-0.019752
C161	C	-0.437537	0.048335	0.402491
C162	C	-0.397043	0.041789	0.352989
C163	C	-0.445822	0.047883	0.329994
C164	C	-0.496646	0.126653	0.277022
C165	C	-0.465894	-0.000633	0.218811
C166	C	-0.837226	0.099430	0.210091
C167	C	-0.739773	0.100339	0.187806
C168	C	-0.691967	0.094287	0.211308
C169	C	-0.571027	0.088563	0.071568
C170	C	-0.611521	0.095108	0.121070
C171	C	-0.562739	0.089011	0.144061
C172	C	-0.511915	0.010241	0.197033
C173	C	-0.542670	0.137531	0.255247
C174	C	-0.171338	0.037467	0.263967
C175	C	-0.268788	0.036555	0.286249
C176	C	-0.316597	0.042611	0.262750
C177	C	-0.308112	0.037305	0.331542
C178	C	-0.405351	0.048369	0.284750
C179	C	-0.456092	0.058317	0.260279
C180	C	-0.700452	0.099593	0.142516
C181	C	-0.603213	0.088528	0.189308
C182	C	-0.552469	0.078578	0.213776
O183	O	-0.040608	-1.085661	-0.825229
O184	O	-0.001018	-0.826491	-0.777938
O185	O	-0.150287	-0.971682	-0.775894
O186	O	0.108661	-0.940470	-0.827272
O187	O	-0.144253	-0.976123	-0.711878
O188	O	0.005016	-0.830932	-0.713922
O189	O	-0.034575	-1.090102	-0.761213
Cu190	Cu	-0.014228	-0.960923	-0.731722
Cu191	Cu	-0.021364	-0.955670	-0.807428
O192	O	0.114695	-0.944911	-0.763256
O193	O	-0.036862	-0.230384	-0.253947
C194	C	-0.115987	-0.202041	-0.227222
H195	H	-0.171766	-0.243574	-0.244184
H196	H	-0.101653	-0.127812	-0.223676
C197	C	-0.077925	-0.164236	-0.159072
C198	C	-0.146436	-0.215253	-0.179904
H199	H	-0.096706	-0.172381	-0.129884
H200	H	-0.024615	-0.183328	-0.177078
H201	H	-0.065986	-0.102383	-0.156122
H202	H	-0.158365	-0.277105	-0.182860
H203	H	-0.199749	-0.196172	-0.161898
H204	H	0.013347	-0.692513	-0.652885
H205	H	0.702991	-0.441593	-0.009870
H206	H	0.001660	-0.441639	-0.159184
O207	O	-0.580570	0.207418	0.274116
C208	C	-0.674756	0.173789	0.281267
H209	H	-0.697844	0.101870	0.283471
H210	H	-0.691869	0.174438	0.251838
C211	C	-0.694978	0.321656	0.323150
C212	C	-0.723336	0.233327	0.325861
H213	H	-0.724945	0.358384	0.350656
H214	H	-0.631523	0.344315	0.318330
H215	H	-0.709240	0.322185	0.298624
H216	H	-0.709064	0.232798	0.350383
H217	H	-0.786790	0.210670	0.330685
O218	O	-0.153781	-0.377495	-0.731642
C219	C	-0.204411	-0.392864	-0.688911
H220	H	-0.160813	-0.407949	-0.675553
H221	H	-0.266292	-0.452646	-0.692406
C222	C	-0.288563	-0.289990	-0.671962
C223	C	-0.235014	-0.308510	-0.655554
H224	H	-0.307445	-0.237959	-0.651386
H225	H	-0.254456	-0.279638	-0.700751
H226	H	-0.340124	-0.339815	-0.674874
H227	H	-0.183449	-0.258691	-0.652648
H228	H	-0.269114	-0.318852	-0.626763
O229	O	0.726670	-0.700166	-0.505452
C230	C	0.803487	-0.703056	-0.543868
H231	H	0.821014	-0.643991	-0.557406
H232	H	0.788642	-0.768942	-0.571238
C233	C	0.862251	-0.769542	-0.513941
C234	C	0.883781	-0.696993	-0.530567
H235	H	0.911779	-0.765807	-0.505738
H236	H	0.810496	-0.767599	-0.488060
H237	H	0.849878	-0.824440	-0.536752
H238	H	0.896142	-0.642097	-0.507754
H239	H	0.935540	-0.698927	-0.556444
O240	O	0.097382	-0.448175	-0.852238
C241	C	0.092610	-0.535638	-0.882350
H242	H	0.024851	-0.583318	-0.869221
H243	H	0.149764	-0.559711	-0.884863
C244	C	0.184941	-0.475689	-0.945710
C245	C	0.101716	-0.534250	-0.929586
H246	H	0.190563	-0.474834	-0.974849
H247	H	0.188160	-0.416764	-0.925423
H248	H	0.232561	-0.495757	-0.947800
H249	H	0.054099	-0.514175	-0.927491
H250	H	0.098490	-0.593173	-0.949874
O251	O	-0.036599	-0.230523	-0.753991
C252	C	-0.031169	-0.292332	-0.737093
H253	H	-0.001941	-0.346812	-0.766609
H254	H	-0.101621	-0.324572	-0.716914
C255	C	-0.005447	-0.175793	-0.669767
C256	C	0.030458	-0.242701	-0.706020
H257	H	0.032564	-0.145179	-0.650598
H258	H	-0.009109	-0.134151	-0.681150
H259	H	-0.064157	-0.202669	-0.652956
H260	H	0.089162	-0.215823	-0.722833
H261	H	0.034131	-0.284338	-0.694638
O262	O	-0.762008	0.090359	-0.380466
C263	C	-0.718322	0.167741	-0.395996
H264	H	-0.643678	0.189804	-0.398303
H265	H	-0.750734	0.224284	-0.371302
C266	C	-0.819330	0.118986	-0.440367
C267	C	-0.727649	0.146080	-0.443205
H268	H	-0.825086	0.105626	-0.469487
H269	H	-0.848765	0.066854	-0.429903
H270	H	-0.846330	0.166109	-0.419787
H271	H	-0.700654	0.098953	-0.463780
H272	H	-0.698210	0.198204	-0.453673
O273	O	0.316825	-0.448104	-0.461995
C274	C	0.253784	-0.486726	-0.486787
H275	H	0.280811	-0.535977	-0.520281
H276	H	0.242601	-0.431394	-0.493845
C277	C	0.130327	-0.476636	-0.417950
C278	C	0.163517	-0.537134	-0.459087
H279	H	0.074644	-0.507727	-0.400863
H280	H	0.172798	-0.450613	-0.401247
H281	H	0.121015	-0.430531	-0.423838
H282	H	0.172839	-0.583231	-0.453198
H283	H	0.121045	-0.563166	-0.475788
O284	O	0.407449	-0.539190	-0.452152
C285	C	0.325303	-0.603381	-0.457220
H286	H	0.326114	-0.625480	-0.494100
H287	H	0.266719	-0.572306	-0.434513
C288	C	0.312618	-0.658484	-0.398313
C289	C	0.313617	-0.685632	-0.443611
H290	H	0.305406	-0.709219	-0.389917
H291	H	0.367959	-0.615235	-0.394897
H292	H	0.263798	-0.632588	-0.379396
H293	H	0.362443	-0.711517	-0.462527
H294	H	0.258283	-0.728887	-0.447029
H295	H	0.718963	-0.692464	-0.005731
H296	H	0.001639	-0.441666	-0.659178
H297	H	-0.037138	-0.474881	-0.380005
H298	H	-0.048809	-0.224052	-0.886301
O299	O	0.118194	-0.539250	-0.807496
C300	C	0.081834	-0.632604	-0.812869
H301	H	0.009238	-0.653761	-0.813772
H302	H	0.082813	-0.648941	-0.783218
C303	C	0.228023	-0.657941	-0.856463
C304	C	0.138862	-0.683929	-0.857575
H305	H	0.263202	-0.689602	-0.884039
H306	H	0.252521	-0.595047	-0.852842
H307	H	0.228826	-0.671557	-0.831752
H308	H	0.138059	-0.670303	-0.882282
H309	H	0.114365	-0.746822	-0.861202
O310	O	-0.049243	-0.216379	-0.390196
C311	C	0.027556	-0.213514	-0.428584
H312	H	0.055411	-0.272579	-0.437727
H313	H	0.081424	-0.147628	-0.420727
C314	C	-0.033156	-0.147051	-0.457548
C315	C	0.001050	-0.219601	-0.468780
H316	H	-0.049504	-0.150802	-0.482343
H317	H	-0.084897	-0.148978	-0.431685
H318	H	0.011739	-0.092154	-0.451001
H319	H	-0.043848	-0.274496	-0.475322
H320	H	0.052783	-0.217683	-0.494646
H321	H	-0.142704	-0.524425	-0.305055
H322	H	0.261638	-0.474883	-0.529387
H323	H	0.468064	-0.679625	-0.511379
H324	H	-0.123559	-0.467696	-0.693740
O325	O	-0.428162	-0.070648	0.199893
C326	C	-0.446040	-0.121929	0.158094
H327	H	-0.460314	-0.078323	0.144335
H328	H	-0.507390	-0.182024	0.163266
C329	C	-0.345883	-0.209231	0.140931
C330	C	-0.363408	-0.155671	0.124031
H331	H	-0.294914	-0.230048	0.119920
H332	H	-0.333840	-0.174685	0.169093
H333	H	-0.397014	-0.259303	0.145241
H334	H	-0.312282	-0.105594	0.119727
H335	H	-0.375440	-0.190209	0.095868
O336	O	-0.259993	0.033634	0.354759
C337	C	-0.254035	0.111284	0.392018
H338	H	-0.312110	0.140947	0.401570
H339	H	-0.186919	0.163096	0.382514
C340	C	-0.188411	0.049611	0.420921
C341	C	-0.259745	0.086040	0.432656
H342	H	-0.191928	0.034042	0.445988
H343	H	-0.192421	-0.002702	0.395818
H344	H	-0.132488	0.092794	0.413001
H345	H	-0.315666	0.042854	0.440570
H346	H	-0.255744	0.138345	0.457761
O347	O	0.237846	-0.216325	-0.533700
C348	C	0.160910	-0.213669	-0.495340
H349	H	0.173258	-0.225153	-0.467292
H350	H	0.099992	-0.268598	-0.504829
C351	C	0.127317	-0.106946	-0.512958
C352	C	0.142485	-0.121044	-0.478507
H353	H	0.115947	-0.049813	-0.502575
H354	H	0.179147	-0.108738	-0.538802
H355	H	0.076553	-0.152727	-0.520862
H356	H	0.193254	-0.075271	-0.470607
H357	H	0.090662	-0.119243	-0.452660
H358	H	-0.531920	0.039247	-0.151930
H359	H	-0.738384	0.080845	-0.251490
H360	H	-0.503619	0.071273	-0.373665
H361	H	0.088092	-0.309407	-0.275738
O362	O	0.001098	-0.686117	-0.785195
C363	C	-0.079805	-0.685597	-0.788458
H364	H	-0.106635	-0.629158	-0.759386
H365	H	-0.132077	-0.752980	-0.786438
C366	C	-0.028370	-0.739563	-0.869730
C367	C	-0.061319	-0.670239	-0.834025
H368	H	-0.016969	-0.730094	-0.897838
H369	H	0.026135	-0.739917	-0.867532
H370	H	-0.071936	-0.795709	-0.868040
H371	H	-0.017749	-0.614096	-0.835712
H372	H	-0.115816	-0.669875	-0.836225
O373	O	0.118340	-0.386022	-0.231053
C374	C	0.168967	-0.301932	-0.239427
H375	H	0.125363	-0.274039	-0.246376
H376	H	0.230841	-0.310602	-0.270159
C377	C	0.253142	-0.270302	-0.189139
C378	C	0.199585	-0.236040	-0.197670
H379	H	0.272033	-0.229657	-0.163383
H380	H	0.219037	-0.326956	-0.183498
H381	H	0.304698	-0.277526	-0.214752
H382	H	0.148026	-0.228827	-0.172060
H383	H	0.233682	-0.179383	-0.203306
H384	H	0.013390	-0.692483	-0.152899
O385	O	0.407844	-0.539095	0.047792
C386	C	0.467392	-0.582055	0.045727
H387	H	0.539383	-0.549531	0.027128
H388	H	0.447329	-0.656487	0.026788
C389	C	0.373872	-0.612314	0.117023
C390	C	0.462294	-0.572363	0.094183
H391	H	0.370726	-0.606340	0.146912
H392	H	0.333752	-0.583375	0.118413
H393	H	0.357163	-0.674338	0.101235
H394	H	0.478997	-0.510339	0.109967
H395	H	0.502417	-0.601292	0.092796
H396	H	-0.518447	0.052455	0.347905
H397	H	0.702857	-0.441654	-0.509785
O398	O	-0.036811	-0.489055	-0.883311
C399	C	-0.115958	-0.540367	-0.896390
H400	H	-0.145815	-0.494268	-0.900252
H401	H	-0.167300	-0.574859	-0.869378
C402	C	-0.056057	-0.668718	-0.937207
C403	C	-0.092724	-0.612099	-0.941954
H404	H	-0.041727	-0.712968	-0.965312
H405	H	-0.002735	-0.634149	-0.928394
H406	H	-0.098848	-0.697452	-0.914695
H407	H	-0.049930	-0.583358	-0.964461
H408	H	-0.146038	-0.646664	-0.950772
O409	O	-0.683193	-0.055495	-0.265606
C410	C	-0.742242	-0.047950	-0.221074
H411	H	-0.715338	0.019716	-0.197600
H412	H	-0.746949	-0.104657	-0.208974
C413	C	-0.869777	-0.137620	-0.249313
C414	C	-0.836736	-0.054508	-0.220483
H415	H	-0.928066	-0.141669	-0.248949
H416	H	-0.829994	-0.142706	-0.279316
H417	H	-0.873691	-0.184866	-0.239226
H418	H	-0.832811	-0.007264	-0.230574
H419	H	-0.876520	-0.049413	-0.190483
H420	H	0.001650	-0.679613	-0.278166
O421	O	-0.290821	0.029578	-0.281271
C422	C	-0.265315	-0.050930	-0.307266
H423	H	-0.307875	-0.105068	-0.288962
H424	H	-0.190794	-0.038714	-0.312025
C425	C	-0.228357	-0.015746	-0.376438
C426	C	-0.280635	-0.082243	-0.353959
H427	H	-0.237803	-0.035060	-0.405242
H428	H	-0.245537	0.038495	-0.358926
H429	H	-0.166260	-0.005573	-0.380400
H430	H	-0.342731	-0.092407	-0.349993
H431	H	-0.263466	-0.136487	-0.371472
O432	O	0.647614	-0.468433	-0.577272
C433	C	0.672353	-0.421453	-0.609051
H434	H	0.632560	-0.369414	-0.594414
H435	H	0.656719	-0.470933	-0.641597
C436	C	0.823122	-0.437506	-0.637549
C437	C	0.774253	-0.373586	-0.619570
H438	H	0.885979	-0.407982	-0.644040
H439	H	0.806455	-0.469160	-0.616141
H440	H	0.810084	-0.478735	-0.664669
H441	H	0.787283	-0.332365	-0.592449
H442	H	0.790925	-0.341923	-0.640975
O443	O	-0.132972	-0.620359	-0.262946
C444	C	-0.197165	-0.643984	-0.285561
H445	H	-0.168586	-0.605669	-0.311971
H446	H	-0.261589	-0.625933	-0.259947
C447	C	-0.253965	-0.792993	-0.276754
C448	C	-0.218861	-0.745939	-0.309194
H449	H	-0.267352	-0.855884	-0.291330
H450	H	-0.210719	-0.777076	-0.261516
H451	H	-0.307648	-0.777940	-0.255411
H452	H	-0.165173	-0.760984	-0.330533
H453	H	-0.262098	-0.761862	-0.324436
O454	O	-0.442940	0.188208	-0.304210
C455	C	-0.357267	0.236722	-0.297689
H456	H	-0.330349	0.192598	-0.290511
H457	H	-0.363453	0.299572	-0.267716
C458	C	-0.324748	0.318613	-0.349569
C459	C	-0.291684	0.264417	-0.340756
H460	H	-0.284293	0.335701	-0.376133
H461	H	-0.382469	0.285931	-0.353960
H462	H	-0.329902	0.370981	-0.324588
H463	H	-0.286541	0.212045	-0.365734
H464	H	-0.233960	0.297091	-0.336370
O465	O	0.510404	-0.230313	-0.527475
C466	C	0.512131	-0.155151	-0.488814
H467	H	0.442856	-0.163942	-0.462427
H468	H	0.529864	-0.091508	-0.498800
C469	C	0.668728	-0.136350	-0.501148
C470	C	0.583645	-0.147150	-0.468737
H471	H	0.712843	-0.131411	-0.488764
H472	H	0.667566	-0.186985	-0.527195
H473	H	0.683493	-0.083314	-0.509467
H474	H	0.568877	-0.200191	-0.460423
H475	H	0.584806	-0.096523	-0.442688
H476	H	-0.365918	0.157102	-0.260160
H477	H	0.550810	-0.383955	-0.581575
H478	H	-0.281187	0.020914	-0.148901
O479	O	0.255370	-0.488928	-0.029240
C480	C	0.253889	-0.497653	0.011136
H481	H	0.257910	-0.429575	0.037968
H482	H	0.314075	-0.522029	0.004264
C483	C	0.160599	-0.649835	-0.004679
C484	C	0.165530	-0.566221	0.028278
H485	H	0.106098	-0.692134	0.005895
H486	H	0.161599	-0.643959	-0.031882
H487	H	0.210759	-0.670136	-0.010403
H488	H	0.115378	-0.545917	0.033997
H489	H	0.164520	-0.572096	0.055483
O490	O	0.454259	-0.686250	-0.011792
C491	C	0.452553	-0.761368	-0.050473
H492	H	0.515085	-0.785509	-0.061628
H493	H	0.451928	-0.741504	-0.079097
C494	C	0.290259	-0.807997	-0.025290
C495	C	0.367058	-0.837651	-0.038988
H496	H	0.237521	-0.855051	-0.018207
H497	H	0.291408	-0.757387	0.000770
H498	H	0.289751	-0.791443	-0.049145
H499	H	0.367571	-0.854193	-0.015131
H500	H	0.365908	-0.888266	-0.065044
O501	O	0.647726	-0.468341	-0.077346
C502	C	0.672445	-0.421340	-0.109113
H503	H	0.632638	-0.369310	-0.094464
H504	H	0.656812	-0.470806	-0.141661
C505	C	0.823227	-0.437364	-0.137625
C506	C	0.774341	-0.373454	-0.119631
H507	H	0.886082	-0.407829	-0.144116
H508	H	0.806573	-0.469033	-0.116225
H509	H	0.810190	-0.478581	-0.164747
H510	H	0.787370	-0.332246	-0.092508
H511	H	0.791000	-0.341777	-0.141028
O512	O	0.557047	-0.377216	-0.087054
C513	C	0.566524	-0.283868	-0.068232
H514	H	0.568054	-0.262737	-0.031796
H515	H	0.506990	-0.267536	-0.068600
C516	C	0.653352	-0.258462	-0.141144
C517	C	0.655239	-0.232507	-0.096394
H518	H	0.708072	-0.226779	-0.158517
H519	H	0.646964	-0.321352	-0.153826
H520	H	0.603736	-0.244850	-0.141445
H521	H	0.704847	-0.246129	-0.096094
H522	H	0.661637	-0.169618	-0.083714
H523	H	-0.586315	-0.066836	-0.224702
O524	O	-0.748488	0.103507	0.119332
C525	C	-0.704803	0.180874	0.103790
H526	H	-0.630161	0.202952	0.101490
H527	H	-0.737224	0.237417	0.128472
C528	C	-0.805792	0.132067	0.059402
C529	C	-0.714114	0.159178	0.056574
H530	H	-0.811538	0.118687	0.030278
H531	H	-0.835226	0.079945	0.069874
H532	H	-0.832799	0.179191	0.079972
H533	H	-0.687111	0.112051	0.036008
H534	H	-0.684675	0.211292	0.046097
O535	O	0.510451	-0.230250	-0.027496
C536	C	0.512170	-0.155105	0.011173
H537	H	0.442897	-0.163917	0.037561
H538	H	0.529884	-0.091451	0.001199
C539	C	0.668777	-0.136281	-0.001171
C540	C	0.583697	-0.147108	0.031241
H541	H	0.712900	-0.131344	0.011207
H542	H	0.667620	-0.186905	-0.027224
H543	H	0.683526	-0.083237	-0.009480
H544	H	0.568944	-0.200157	0.039544
H545	H	0.584853	-0.096492	0.057295
H546	H	0.330510	-0.448858	0.033327
H547	H	0.245737	-0.223998	-0.033572
O548	O	-0.476144	0.083441	0.122634
C549	C	-0.474447	0.006033	0.085052
H550	H	-0.536977	-0.014575	0.073829
H551	H	-0.473832	-0.051238	0.094975
C552	C	-0.312153	0.051987	0.059540
C553	C	-0.388950	0.026681	0.045753
H554	H	-0.259413	0.064721	0.035299
H555	H	-0.313295	0.104137	0.084860
H556	H	-0.311653	0.004256	0.067809
H557	H	-0.389455	0.074415	0.037490
H558	H	-0.387806	-0.025461	0.020430
O559	O	-0.277450	0.042975	0.218594
C560	C	-0.339574	0.049620	0.202464
H561	H	-0.392462	0.081095	0.232299
H562	H	-0.374262	-0.020416	0.183729
C563	C	-0.224175	0.070311	0.133204
C564	C	-0.289129	0.108976	0.169848
H565	H	-0.193059	0.106921	0.113083
H566	H	-0.182322	0.065831	0.144070
H567	H	-0.253093	0.011949	0.117597
H568	H	-0.260210	0.167332	0.185457
H569	H	-0.330977	0.113468	0.158983
H570	H	-0.489994	0.175891	0.311254
O571	O	-0.731176	0.093847	0.255453
C572	C	-0.732725	0.013103	0.259831
H573	H	-0.677793	-0.015990	0.230372
H574	H	-0.801565	-0.037335	0.259462
C575	C	-0.783098	0.068073	0.341090
C576	C	-0.715624	0.032343	0.304909
H577	H	-0.772553	0.079938	0.368897
H578	H	-0.782058	0.122470	0.338140
H579	H	-0.840459	0.026035	0.340776
H580	H	-0.658266	0.074385	0.305220
H581	H	-0.716654	-0.022047	0.307860
H582	H	-0.518563	-0.039000	0.162804
