data_functionalizedCrystal
_audit_creation_method	'MofGen! by Chris Wilmer'
_symmetry_space_group_name_H-M	'P1'
_symmetry_Int_Tables_number	1
_symmetry_cell_setting	triclinic
loop_
_symmetry_equiv_pos_as_xyz
  x,y,z
_cell_length_a	18.050589
_cell_length_b	12.827893
_cell_length_c	12.827885
_cell_angle_alpha	89.978811
_cell_angle_beta	90.029551
_cell_angle_gamma	89.973760
loop_
_atom_site_label
_atom_site_type_symbol
_atom_site_fract_x
_atom_site_fract_y
_atom_site_fract_z
Zn1	Zn	-0.295663	-1.597576	0.590904
Zn2	Zn	-0.419871	-1.597431	0.416165
Zn3	Zn	-0.295695	-1.422818	0.416172
Zn4	Zn	-0.419811	-1.422764	0.590859
O5	O	-0.357760	-1.510147	0.503525
O6	O	-0.312151	-1.743793	0.567740
O7	O	-0.403437	-1.574230	0.269930
O8	O	-0.191766	-1.446083	0.439372
O9	O	-0.403406	-1.743687	0.439360
O10	O	-0.191742	-1.574478	0.567747
O11	O	-0.312205	-1.445943	0.269935
O12	O	-0.312147	-1.276575	0.439328
O13	O	-0.403304	-1.445991	0.737101
O14	O	-0.403335	-1.276535	0.567670
O15	O	-0.312093	-1.574425	0.737134
O16	O	-0.523787	-1.574178	0.439317
O17	O	-0.523744	-1.445851	0.567664
C18	C	-0.357739	-1.238638	0.503496
C19	C	-0.357748	-1.122484	0.503508
C20	C	-0.402940	-1.070708	0.566916
C21	C	-0.402950	-0.950657	0.566930
C22	C	-0.550712	-1.510021	0.503507
C23	C	-0.633258	-1.510063	0.503535
C24	C	-0.832712	-1.440347	0.573306
C25	C	-0.882158	-1.414870	0.477948
C26	C	-0.784388	-1.510166	0.503549
C27	C	-0.882023	-1.535694	0.598917
C28	C	-0.930373	-1.510263	0.503570
C29	C	-0.832748	-1.484639	0.408140
C30	C	-0.832608	-1.605506	0.529174
C31	C	-0.882032	-1.580066	0.433751
C32	C	-0.700290	-1.510107	0.503538
C33	C	-1.014470	-1.510322	0.503570
C34	C	-0.164054	-1.510303	0.503565
C35	C	-0.081508	-1.510369	0.503582
C36	C	-0.357688	-1.510219	0.776095
C37	C	-0.357658	-1.510249	0.892248
C38	C	-0.357775	-0.782718	0.503546
C39	C	-0.357766	-0.898871	0.503534
C40	C	-0.357777	-1.510137	0.232015
C41	C	-0.357598	-1.510309	0.115862
C42	C	-0.312515	-1.573809	0.944049
C43	C	-0.312483	-1.573842	1.064100
H44	H	-0.441643	-0.906131	0.621213
Br45	Br	-0.422033	-1.419578	0.966453
Br46	Br	-0.917900	-1.678550	0.335337
Br47	Br	-0.467420	-1.144947	0.657382
H48	H	-0.319076	-0.943391	0.449241
Br49	Br	-0.796826	-1.448565	0.273688
Br50	Br	-0.918431	-1.280557	0.441821
H51	H	-0.319062	-1.077936	0.449237
Br52	Br	-0.248112	-1.664440	0.869844
H53	H	-0.810829	-1.686069	0.550874
H54	H	-0.811055	-1.381217	0.632213
H55	H	-0.903668	-1.557247	0.679561
Br56	Br	-0.248068	-1.664554	1.138341
H57	H	-0.396252	-1.455894	1.071321
