data_functionalizedCrystal
_audit_creation_method	'MofGen! by Chris Wilmer'
_symmetry_space_group_name_H-M	'P1'
_symmetry_Int_Tables_number	1
_symmetry_cell_setting	triclinic
loop_
_symmetry_equiv_pos_as_xyz
  x,y,z
_cell_length_a	13.635800
_cell_length_b	15.866870
_cell_length_c	17.078481
_cell_angle_alpha	66.318152
_cell_angle_beta	80.693839
_cell_angle_gamma	102.655915
loop_
_atom_site_label
_atom_site_type_symbol
_atom_site_fract_x
_atom_site_fract_y
_atom_site_fract_z
V1	V	-1.998838	-0.132377	0.286074
O2	O	-1.983573	0.006591	0.240725
O3	O	-1.983639	-0.262702	0.322495
O4	O	-1.964215	-0.130239	0.393332
O5	O	-2.003131	-0.126788	0.169398
V6	V	-2.240836	-0.115766	0.267457
O7	O	-2.128948	-0.168812	0.326913
O8	O	-2.335825	-0.079330	0.226618
O9	O	-2.144433	0.014559	0.231036
O10	O	-2.314799	-0.254734	0.312806
O11	O	-2.295242	-0.121355	0.384133
O12	O	-2.163856	-0.117904	0.160199
C13	C	-1.908666	-0.294476	0.327885
C14	C	-1.936812	-0.401017	0.358378
V15	V	-1.498838	-0.132377	0.286074
O16	O	-1.483573	0.006591	0.240725
O17	O	-1.483639	-0.262702	0.322495
O18	O	-1.464215	-0.130239	0.393332
O19	O	-1.503131	-0.126788	0.169398
V20	V	-1.740836	-0.115766	0.267457
O21	O	-1.628948	-0.168812	0.326913
O22	O	-1.835825	-0.079330	0.226618
O23	O	-1.644433	0.014559	0.231036
O24	O	-1.814799	-0.254734	0.312806
O25	O	-1.795242	-0.121355	0.384133
O26	O	-1.663856	-0.117904	0.160199
C27	C	-1.958749	-0.683357	0.075526
C28	C	-1.985199	-0.783474	0.104205
C29	C	-2.013452	-0.810688	0.257466
C30	C	-1.986999	-0.710571	0.228798
C31	C	-1.959650	-0.646913	0.137827
C32	C	-1.987900	-0.674127	0.291100
C33	C	-1.961454	-0.574019	0.262435
C34	C	-1.934107	-0.510355	0.171468
C35	C	-1.933204	-0.546805	0.109163
C36	C	-2.015256	-0.737788	0.382071
C37	C	-2.016157	-0.701343	0.444373
C38	C	-1.989704	-0.601233	0.415708
C39	C	-1.962357	-0.537570	0.324741
C40	C	-1.990607	-0.564784	0.478014
C41	C	-1.964161	-0.464676	0.449349
C42	C	-1.935912	-0.437462	0.296076
C43	C	-1.883889	-0.125505	0.418243
C44	C	-1.896282	-0.124620	0.506179
C45	C	-2.051077	0.046328	0.225645
C46	C	-2.012549	0.152869	0.195157
C47	C	-2.075854	-0.122641	0.135284
C48	C	-2.053079	-0.123521	0.047346
C49	C	-1.408666	-0.294476	0.327885
C50	C	-1.436812	-0.401017	0.358378
C51	C	-1.383889	-0.125505	0.418243
C52	C	-1.396282	-0.124620	0.506179
C53	C	-1.993101	-0.128988	0.552932
C54	C	-2.004740	-0.128156	0.635557
C55	C	-1.919561	-0.122962	0.671430
C56	C	-1.822733	-0.118591	0.624669
C57	C	-1.811094	-0.119416	0.542043
C58	C	-1.944612	-0.119975	0.917959
C59	C	-1.956261	-0.119153	1.000593
C60	C	-2.138266	-0.128716	1.011474
C61	C	-2.126620	-0.129547	0.928849
C62	C	-2.029793	-0.125170	0.882093
N63	N	-1.931456	-0.122115	0.755887
N64	N	-2.017896	-0.126011	0.797635
C65	C	-1.551077	0.046328	0.225645
C66	C	-1.512549	0.152869	0.195157
C67	C	-1.575854	-0.122641	0.135284
C68	C	-1.553079	-0.123521	0.047346
C69	C	-1.541052	-0.455934	0.378090
C70	C	-1.567515	-0.556044	0.406755
C71	C	-1.489736	-0.601235	0.415701
C72	C	-1.385488	-0.546312	0.395989
C73	C	-1.359028	-0.446205	0.367331
C74	C	-1.493107	-0.128979	0.552915
C75	C	-1.504762	-0.128135	0.635535
C76	C	-1.419594	-0.122938	0.671421
C77	C	-1.322761	-0.118576	0.624678
C78	C	-1.311105	-0.119414	0.542056
C79	C	-1.580803	0.207784	0.175448
C80	C	-1.544612	0.307894	0.146787
C81	C	-1.440167	0.353085	0.137843
C82	C	-1.371908	0.298162	0.157552
C83	C	-1.408098	0.198056	0.186206
C84	C	-1.456015	-0.128706	0.011478
C85	C	-1.434597	-0.129522	-0.071154
C86	C	-1.510249	-0.125159	-0.117912
C87	C	-1.607321	-0.119971	-0.082040
C88	C	-1.628734	-0.119148	0.000588
H89	H	-1.913625	-0.385626	0.221998
H90	H	-1.322168	-0.583122	0.403278
H91	H	-1.668909	-0.116416	-0.120124
C92	C	-1.984200	-0.823557	0.035660
N93	N	-1.983448	-0.853747	-0.015967
H94	H	-2.062468	-0.133224	0.523734
C95	C	-1.244352	-0.385804	0.345637
N96	N	-1.157973	-0.340315	0.329296
H97	H	-1.429099	-0.122258	0.738698
C98	C	-1.586806	-0.134688	0.513454
N99	N	-1.657385	-0.138982	0.483734
H100	H	-2.035727	-0.862532	0.331535
C101	C	-2.020691	-0.634820	0.578079
N102	N	-2.043345	-0.687571	0.653449
H103	H	-1.753378	-0.114356	0.653881
C104	C	-1.735519	-0.113452	0.040037
N105	N	-1.815954	-0.109161	0.069746
C106	C	-2.044268	-0.847905	0.413596
N107	N	-2.066090	-0.930845	0.437338
C108	C	-2.111245	-0.132951	0.686978
N109	N	-2.191467	-0.136557	0.725705
H110	H	-1.910918	-0.494970	0.035084
C111	C	-1.965151	-0.424585	0.517884
N112	N	-1.965899	-0.394388	0.569507
H113	H	-1.583616	-0.131691	0.673585
H114	H	-1.253422	-0.114346	0.653909
H115	H	-1.352512	0.153349	0.202260
C116	C	-1.204591	-0.114636	0.490663
N117	N	-1.124361	-0.111041	0.451958
H118	H	-1.912579	-0.428842	0.148131
H119	H	-1.936463	-0.631522	0.001447
H120	H	-1.492804	-0.125842	-0.185187
C121	C	-1.695697	0.158095	0.185274
N122	N	-1.782236	0.120677	0.192667
C123	C	-1.619725	0.368285	0.125147
N124	N	-1.676306	0.413766	0.108860
C125	C	-1.518860	-0.711357	0.447221
N126	N	-1.540801	-0.794301	0.470959
H127	H	-1.410712	0.434599	0.114510
H128	H	-2.195984	-0.133775	0.899647
H129	H	-1.652403	-0.600749	0.422798
C130	C	-1.257019	0.347888	0.147708
N131	N	-1.170485	0.385345	0.140296
C132	C	-2.046230	-0.771377	0.544438
N133	N	-2.068872	-0.824125	0.619808
H134	H	-1.394402	-0.132259	0.049538
C135	C	-2.244768	-0.133518	1.062907
N136	N	-2.324987	-0.137129	1.101644
C137	C	-1.327818	-0.135246	-0.110591
N138	N	-1.247394	-0.139563	-0.140290
C139	C	-1.838107	-0.115182	0.866548
N140	N	-1.757884	-0.111578	0.827825
H141	H	-1.732248	-0.115835	0.503967
C142	C	-1.626629	-0.406244	0.368261
N143	N	-1.691094	-0.368826	0.360866
H144	H	-1.886891	-0.114920	1.029796
