data_functionalizedCrystal
_audit_creation_method	'MofGen! by Chris Wilmer'
_symmetry_space_group_name_H-M	'P1'
_symmetry_Int_Tables_number	1
_symmetry_cell_setting	triclinic
loop_
_symmetry_equiv_pos_as_xyz
  x,y,z
_cell_length_a	19.121424
_cell_length_b	19.121111
_cell_length_c	15.296720
_cell_angle_alpha	78.381985
_cell_angle_beta	101.630494
_cell_angle_gamma	85.194139
loop_
_atom_site_label
_atom_site_type_symbol
_atom_site_fract_x
_atom_site_fract_y
_atom_site_fract_z
Zn1	Zn	0.997219	0.300626	-0.472070
Zn2	Zn	1.497219	0.800626	0.027930
Zn3	Zn	1.012720	0.397703	-0.325687
Zn4	Zn	1.512720	0.897703	0.174313
Zn5	Zn	0.900171	0.285075	-0.325683
Zn6	Zn	1.400171	0.785075	0.174317
Zn7	Zn	0.872584	0.425191	-0.485646
Zn8	Zn	1.372584	0.925191	0.014354
O9	O	0.945674	0.352149	-0.402272
O10	O	1.445674	0.852149	0.097728
O11	O	1.098538	0.308508	-0.446972
O12	O	1.598538	0.808508	0.053028
O13	O	1.015822	0.364750	-0.197480
O14	O	1.515822	0.864750	0.302520
O15	O	0.918103	0.187872	-0.339418
O16	O	1.418103	0.687872	0.160582
O17	O	1.109926	0.379830	-0.339425
O18	O	1.609926	0.879830	0.160575
O19	O	0.989404	0.199297	-0.446968
O20	O	1.489404	0.699297	0.053032
O21	O	0.933133	0.282003	-0.197477
O22	O	1.433133	0.782003	0.302523
O23	O	0.797250	0.308657	-0.352582
O24	O	1.297250	0.808657	0.147418
O25	O	0.871085	0.426680	-0.612052
O26	O	1.371085	0.926680	-0.112052
O27	O	0.776982	0.411600	-0.470107
O28	O	1.276982	0.911600	0.029893
O29	O	0.962654	0.335162	-0.602078
O30	O	1.462654	0.835162	-0.102078
O31	O	0.989072	0.500615	-0.352590
O32	O	1.489072	1.000615	0.147410
O33	O	0.886115	0.520811	-0.470111
O34	O	1.386115	1.020811	0.029889
C35	C	0.761378	0.361425	-0.412818
C36	C	1.261378	0.861425	0.087182
C37	C	0.682531	0.365413	-0.417352
C38	C	1.182531	0.865413	0.082648
C39	C	0.236054	0.390649	-0.446134
C40	C	0.736054	0.890649	0.053866
C41	C	0.310141	0.386905	-0.441857
C42	C	0.810141	0.886905	0.058143
C43	C	0.357704	0.331377	-0.378623
C44	C	0.857704	0.831377	0.121377
C45	C	0.331177	0.279594	-0.319656
C46	C	0.831177	0.779594	0.180344
C47	C	0.257092	0.283342	-0.323929
C48	C	0.757092	0.783342	0.176071
C49	C	0.581920	0.317378	-0.362659
C50	C	1.081920	0.817378	0.137341
C51	C	0.656009	0.313633	-0.358391
C52	C	1.156009	0.813633	0.141609
C53	C	0.634968	0.420946	-0.480592
C54	C	1.134968	0.920946	0.019408
C55	C	0.560882	0.424686	-0.484864
C56	C	1.060882	0.924686	0.015136
C57	C	0.534362	0.372905	-0.425893
C58	C	1.034362	0.872905	0.074107
C59	C	0.433432	0.327546	-0.374251
C60	C	0.933432	0.827546	0.125749
C61	C	0.458635	0.376739	-0.430261
C62	C	0.958635	0.876739	0.069739
C63	C	0.936299	0.536454	-0.412843
C64	C	1.436299	1.036454	0.087157
C65	C	0.932349	0.615301	-0.417392
C66	C	1.432349	1.115301	0.082608
C67	C	0.984126	0.641811	-0.358389
C68	C	1.484126	1.141811	0.141611
C69	C	0.980414	0.715897	-0.362673
C70	C	1.480414	1.215897	0.137327
C71	C	0.924922	0.763473	-0.425956
C72	C	1.424922	1.263473	0.074044
C73	C	0.873143	0.736959	-0.484965
C74	C	1.373143	1.236959	0.015035
C75	C	0.876858	0.662874	-0.480685
C76	C	1.376858	1.162874	0.019315
C77	C	0.911025	0.987689	-0.441941
C78	C	1.411025	1.487689	0.058059
C79	C	0.907312	1.061779	-0.446215
C80	C	1.407312	1.561779	0.053785
C81	C	1.014585	1.040712	-0.323923
C82	C	1.514585	1.540712	0.176077
C83	C	1.018293	0.966626	-0.319645
C84	C	1.518293	1.466626	0.180355
C85	C	0.966515	0.940119	-0.378658
C86	C	1.466515	1.440119	0.121342
C87	C	0.921126	0.839202	-0.430334
C88	C	1.421126	1.339202	0.069666
C89	C	0.970315	0.864392	-0.374283
C90	C	1.470315	1.364392	0.125717
C91	C	1.130689	0.342837	-0.391685
C92	C	1.630689	0.842837	0.108315
C93	C	1.209532	0.338869	-0.387173
C94	C	1.709532	0.838869	0.112827
C95	C	0.955094	1.167128	-0.391690
C96	C	1.455094	1.667128	0.108310
C97	C	0.959089	1.088288	-0.387212
C98	C	1.459089	1.588288	0.112788
C99	C	0.912063	0.385722	-0.641237
C100	C	1.412063	0.885722	-0.141237
C101	C	0.897741	0.400029	-0.743070
C102	C	1.397741	0.900029	-0.243070
C103	C	1.048073	0.249770	-1.009347
C104	C	1.548073	0.749770	-0.509347
C105	C	1.061534	0.236329	-0.913670
C106	C	1.561534	0.736329	-0.413670
C107	C	1.020587	0.277252	-0.871015
C108	C	1.520587	0.777252	-0.371015
C109	C	0.966176	0.331620	-0.924047
C110	C	1.466176	0.831620	-0.424047
C111	C	0.952717	0.345066	-1.019734
C112	C	1.452717	0.845066	-0.519734
C113	C	0.925231	0.372549	-0.881402
C114	C	1.425231	0.872549	-0.381402
C115	C	0.870821	0.426916	-0.934434
C116	C	1.370821	0.926916	-0.434434
C117	C	0.857364	0.440359	-1.030111
C118	C	1.357364	0.940359	-0.530111
C119	C	0.898311	0.399436	-1.072765
C120	C	1.398311	0.899436	-0.572765
C121	C	0.938690	0.359102	-0.785715
C122	C	1.438690	0.859102	-0.285715
C123	C	0.843334	0.454399	-0.796101
C124	C	1.343334	0.954399	-0.296101
C125	C	0.829873	0.467840	-0.891779
C126	C	1.329873	0.967840	-0.391779
C127	C	0.979197	0.318653	-0.164231
C128	C	1.479197	0.818653	0.335769
C129	C	0.993667	0.304139	-0.062379
C130	C	1.493667	0.804139	0.437621
H131	H	0.331731	0.429071	-0.489867
H132	H	0.831731	0.929071	0.010133
C133	C	1.091778	0.206109	-0.728305
C134	C	1.591778	0.706109	-0.228305
C135	C	1.035377	0.262473	-0.765845
C136	C	1.535377	0.762473	-0.265845
H137	H	1.100904	0.196980	-0.663374
H138	H	1.600904	0.696980	-0.163374
H139	H	1.133877	0.219121	-0.748027
H140	H	1.633877	0.719121	-0.248027
H141	H	1.078797	0.163996	-0.748043
H142	H	1.578797	0.663996	-0.248043
H143	H	1.048360	0.304588	-0.746112
H144	H	1.548360	0.804588	-0.246112
H145	H	0.993270	0.249464	-0.746115
H146	H	1.493270	0.749464	-0.246115
H147	H	0.813064	0.484635	-1.073287
H148	H	1.313064	0.984635	-0.573287
C149	C	1.069777	0.228080	-1.151415
C150	C	1.569777	0.728080	-0.651415
C151	C	1.093080	0.204794	-1.056235
C152	C	1.593080	0.704794	-0.556235
H153	H	1.097564	0.200309	-1.180359
H154	H	1.597564	0.700309	-0.680359
H155	H	1.075522	0.277418	-1.169217
H156	H	1.575522	0.777418	-0.669217
H157	H	1.020441	0.222295	-1.169219
H158	H	1.520441	0.722295	-0.669219
H159	H	1.142415	0.210585	-1.038429
H160	H	1.642415	0.710585	-0.538429
H161	H	1.087341	0.155445	-1.038426
H162	H	1.587341	0.655445	-0.538426
C163	C	0.146134	0.492057	-0.468941
C164	C	0.646134	0.992057	0.031059
C165	C	0.183776	0.451688	-0.515646
C166	C	0.683776	0.951688	-0.015646
H167	H	0.113858	0.529738	-0.511857
H168	H	0.613858	1.029738	-0.011857
H169	H	0.179270	0.512062	-0.428859
H170	H	0.679270	1.012062	0.071141
H171	H	0.119734	0.461748	-0.434444
H172	H	0.619734	0.961748	0.065556
H173	H	0.210180	0.481996	-0.550138
H174	H	0.710180	0.981996	-0.050138
H175	H	0.150634	0.431682	-0.555744
H176	H	0.650634	0.931682	-0.055744
C177	C	0.725598	0.490866	-0.775501
C178	C	1.225598	0.990866	-0.275501
C179	C	0.798319	0.499389	-0.749229
C180	C	1.298319	0.999389	-0.249229
H181	H	0.697812	0.518644	-0.746564
H182	H	1.197812	1.018644	-0.246564
H183	H	0.719856	0.441529	-0.757683
H184	H	1.219856	0.941529	-0.257683
H185	H	0.709806	0.506656	-0.840076
H186	H	1.209806	1.006656	-0.340076
H187	H	0.814112	0.483594	-0.684655
H188	H	1.314112	0.983594	-0.184655
H189	H	0.804065	0.548736	-0.767042
H190	H	1.304065	1.048736	-0.267042
H191	H	0.419906	0.421952	-0.481743
H192	H	0.919906	0.921952	0.018257
H193	H	1.022576	0.737477	-0.314625
H194	H	1.522576	1.237477	0.185375
H195	H	0.785571	0.512106	-0.934971
H196	H	1.285571	1.012106	-0.434971
C197	C	1.075913	0.920310	-0.161248
C198	C	1.575913	1.420310	0.338752
C199	C	1.079298	0.914338	-0.250086
C200	C	1.579298	1.414338	0.249914
H201	H	1.113579	0.888033	-0.118306
H202	H	1.613579	1.388033	0.381694
H203	H	1.030769	0.908716	-0.149819
H204	H	1.530769	1.408716	0.350181
H205	H	1.081107	0.968231	-0.155367
H206	H	1.581107	1.468231	0.344633
H207	H	1.074099	0.866419	-0.255969
H208	H	1.574099	1.366419	0.244031
H209	H	1.124454	0.925928	-0.261519
H210	H	1.624454	1.425928	0.238481
H211	H	0.522160	0.469905	-0.536354
H212	H	1.022160	0.969905	-0.036354
H213	H	0.656568	0.463103	-0.528601
H214	H	1.156568	0.963103	-0.028601
C215	C	0.669374	0.207949	-0.237996
C216	C	1.169374	0.707949	0.262004
C217	C	0.708295	0.252602	-0.288863
C218	C	1.208295	0.752602	0.211137
H219	H	0.701655	0.170278	-0.195070
H220	H	1.201655	0.670278	0.304930
H221	H	0.636248	0.187929	-0.278074
H222	H	1.136248	0.687929	0.221926
H223	H	0.643833	0.235355	-0.206335
H224	H	1.143833	0.735355	0.293665
H225	H	0.733831	0.225196	-0.320529
H226	H	1.233831	0.725196	0.179471
H227	H	0.741433	0.272622	-0.248780
H228	H	1.241433	0.772622	0.251220
C229	C	0.887925	0.922176	-0.560939
C230	C	1.387925	1.422176	-0.060939
C231	C	0.854104	0.958564	-0.506804
C232	C	1.354104	1.458564	-0.006804
H233	H	0.852780	0.904199	-0.600988
H234	H	1.352780	1.404199	-0.100988
H235	H	0.921496	0.883238	-0.522646
H236	H	1.421496	1.383238	-0.022646
H237	H	0.912428	0.954419	-0.595911
H238	H	1.412428	1.454419	-0.095911
H239	H	0.829606	0.926319	-0.471827
H240	H	1.329606	1.426319	0.028173
H241	H	0.820521	0.997507	-0.545102
H242	H	1.320521	1.497507	-0.045102
C243	C	0.745595	0.772154	-0.537675
C244	C	1.245595	1.272154	-0.037675
C245	C	0.812144	0.789250	-0.554532
C246	C	1.312144	1.289250	-0.054532
H247	H	0.707937	0.804433	-0.580627
H248	H	1.207937	1.304433	-0.080627
H249	H	0.743304	0.776202	-0.477411
H250	H	1.243304	1.276202	0.022589
H251	H	0.740409	0.724236	-0.543570
H252	H	1.240409	1.224236	-0.043570
H253	H	0.817332	0.837167	-0.548629
H254	H	1.317332	1.337167	-0.048629
H255	H	0.814437	0.785209	-0.614811
H256	H	1.314437	1.285209	-0.114811
H257	H	1.105837	0.192064	-0.870498
H258	H	1.605837	0.692064	-0.370498
H259	H	0.560337	0.275217	-0.314638
H260	H	1.060337	0.775217	0.185362
C261	C	0.180372	0.190368	-0.310737
C262	C	0.680372	0.690368	0.189263
C263	C	0.227933	0.226426	-0.259119
C264	C	0.727933	0.726426	0.240881
H265	H	0.162368	0.155235	-0.270720
H266	H	0.662368	0.655235	0.229280
H267	H	0.205037	0.167433	-0.347480
H268	H	0.705037	0.667433	0.152520
H269	H	0.141448	0.223983	-0.349006
H270	H	0.641448	0.723983	0.150994
H271	H	0.266859	0.192811	-0.220854
H272	H	0.766859	0.692811	0.279146
H273	H	0.203267	0.249361	-0.222360
H274	H	0.703267	0.749361	0.277640
H275	H	0.887354	0.410377	-1.150673
H276	H	1.387354	0.910377	-0.650673
H277	H	1.056740	1.062303	-0.275880
H278	H	1.556740	1.562303	0.224120
H279	H	0.834696	0.641292	-0.528733
H280	H	1.334696	1.141292	-0.028733
H281	H	0.369910	0.234384	-0.268165
H282	H	0.869910	0.734384	0.231835
H283	H	0.472166	0.282334	-0.322767
H284	H	0.972166	0.782334	0.177233
C285	C	0.801657	1.075168	-0.566690
C286	C	1.301657	1.575168	-0.066690
C287	C	0.846317	1.114077	-0.515790
C288	C	1.346317	1.614077	-0.015790
H289	H	0.764007	1.107456	-0.609643
H290	H	1.264007	1.607456	-0.109643
H291	H	0.781608	1.042065	-0.526637
H292	H	1.281608	1.542065	-0.026637
H293	H	0.829069	1.049603	-0.598321
H294	H	1.329069	1.549603	-0.098321
H295	H	0.818906	1.139638	-0.484153
H296	H	1.318906	1.639638	0.015847
H297	H	0.866367	1.147193	-0.555849
H298	H	1.366367	1.647193	-0.055849
C299	C	1.089788	0.628437	-0.237944
C300	C	1.589788	1.128437	0.262056
C301	C	1.045125	0.589519	-0.288825
C302	C	1.545125	1.089519	0.211175
H303	H	1.127450	0.596154	-0.195002
H304	H	1.627450	1.096154	0.304998
H305	H	1.062387	0.653997	-0.206308
H306	H	1.562387	1.153997	0.293692
H307	H	1.109827	0.661545	-0.278017
H308	H	1.609827	1.161545	0.221983
H309	H	1.025082	0.556414	-0.248752
H310	H	1.525082	1.056414	0.251248
H311	H	1.072530	0.563946	-0.320462
H312	H	1.572530	1.063946	0.179538
H313	H	1.015499	0.825654	-0.322761
H314	H	1.515499	1.325654	0.177239
H315	H	0.875943	0.877946	-0.481858
H316	H	1.375943	1.377946	0.018142
H317	H	0.982992	0.314835	-0.742546
H318	H	1.482992	0.814835	-0.242546
