data_functionalizedCrystal
_audit_creation_method	'MofGen! by Chris Wilmer'
_symmetry_space_group_name_H-M	'P1'
_symmetry_Int_Tables_number	1
_symmetry_cell_setting	triclinic
loop_
_symmetry_equiv_pos_as_xyz
  x,y,z
_cell_length_a	23.532407
_cell_length_b	10.540539
_cell_length_c	9.016244
_cell_angle_alpha	90.003050
_cell_angle_beta	90.000281
_cell_angle_gamma	96.312877
loop_
_atom_site_label
_atom_site_type_symbol
_atom_site_fract_x
_atom_site_fract_y
_atom_site_fract_z
O1	O	-0.756276	0.154085	0.123216
O2	O	-0.590560	0.176379	0.123243
O3	O	-0.677199	-0.019599	0.123230
O4	O	-0.669637	0.350063	0.123229
O5	O	-0.677194	-0.019610	-0.123451
O6	O	-0.590555	0.176368	-0.123438
O7	O	-0.756271	0.154074	-0.123465
Cu8	Cu	-0.673412	0.165220	-0.145975
Cu9	Cu	-0.673418	0.165233	0.145753
O10	O	-0.669632	0.350052	-0.123452
C11	C	-0.569338	0.175806	-0.000094
C12	C	-0.506109	0.174099	-0.000083
C13	C	-0.676629	-0.066888	-0.000107
C14	C	-0.674933	-0.207781	-0.000097
C15	C	-0.239129	0.051084	-0.000116
C16	C	-0.298540	0.052670	-0.000117
O17	O	-0.334640	-0.044916	-0.000169
N18	N	-0.321936	0.169179	-0.000108
C19	C	-0.285917	0.284109	-0.000113
O20	O	-0.311273	0.383354	-0.000107
C21	C	-0.226508	0.282522	-0.000122
C22	C	-0.203115	0.166006	-0.000116
C23	C	-0.215736	-0.065423	-0.000111
C24	C	-0.156330	-0.067008	-0.000107
C25	C	-0.120316	0.047914	-0.000107
C26	C	-0.143709	0.164421	-0.000112
C27	C	-0.190491	0.397451	-0.000137
C28	C	-0.131078	0.395854	-0.000148
C29	C	-0.107685	0.279338	-0.000142
C30	C	-0.048288	0.277758	-0.000108
N31	N	-0.024893	0.161249	-0.000117
C32	C	-0.060906	0.046327	-0.000117
C33	C	-0.410682	0.287433	-0.000096
C34	C	-0.470090	0.289021	-0.000076
C35	C	-0.482709	0.057581	-0.000083
C36	C	-0.423299	0.055994	-0.000092
C37	C	-0.387286	0.170924	-0.000105
C38	C	0.063852	0.043007	-0.000107
C39	C	0.123265	0.041432	-0.000096
C40	C	0.135878	0.272871	-0.000097
C41	C	0.076471	0.274447	-0.000100
C42	C	0.040459	0.159505	-0.000109
O43	O	-0.012154	0.375292	-0.000062
O44	O	-0.035543	-0.052902	-0.000142
C45	C	0.222507	0.154647	-0.000118
C46	C	0.159278	0.156354	-0.000097
N47	N	-0.673413	0.165210	-0.351162
C48	C	-0.670202	0.397341	-0.000112
C49	C	-0.671898	0.538234	-0.000113
C50	C	-0.736907	0.719527	0.000447
C51	C	-0.735187	0.572966	-0.000120
C52	C	-0.641438	0.600893	-0.140970
C53	C	-0.643598	0.747366	-0.141077
C54	C	-0.642316	0.747923	0.139445
C55	C	-0.641733	0.600960	0.141296
C56	C	-0.719784	0.060386	-0.414093
C57	C	-0.719957	0.060667	-0.585984
C58	C	-0.686691	0.297675	-0.586634
C59	C	-0.687019	0.297045	-0.414689
C60	C	-0.613637	0.138789	-0.414540
C61	C	-0.614031	0.135789	-0.586496
N62	N	-0.673423	0.165233	0.350939
H63	H	0.142307	-0.053453	-0.000088
F64	F	0.174217	0.395173	-0.000089
F65	F	-0.766661	0.516203	0.131618
F66	F	-0.597065	0.015262	-0.357882
F67	F	-0.372358	0.409766	-0.000093
H68	H	-0.662800	0.778808	0.246213
H69	H	-0.666107	0.774828	-0.246377
F70	F	-0.644907	0.402696	-0.360271
F71	F	-0.092753	0.518182	-0.000167
F72	F	0.025534	-0.079328	-0.000116
H73	H	-0.759317	0.530420	-0.101277
F74	F	0.051574	0.398456	-0.000086
F75	F	-0.777930	0.082716	-0.639752
F76	F	-0.744010	0.327525	-0.362260
F77	F	-0.769589	0.755830	0.132486
F78	F	-0.398409	-0.068016	-0.000091
H79	H	-0.603969	0.038361	-0.627299
F80	F	-0.669092	0.544318	-0.278000
F81	F	-0.582565	0.811605	0.140695
F82	F	-0.670824	0.546498	0.277503
F83	F	-0.581439	0.571175	0.152504
H84	H	-0.489131	0.383900	-0.000060
F85	F	-0.643737	0.402085	-0.640027
F86	F	-0.215373	0.521466	-0.000143
F87	F	-0.709569	-0.068021	-0.641159
F88	F	-0.584106	0.812021	-0.149445
F89	F	-0.709561	-0.068747	-0.360071
H90	H	-0.579126	0.215236	-0.373841
F91	F	-0.566784	0.229152	-0.642602
H92	H	-0.594960	0.580065	-0.146203
H93	H	-0.729800	0.321576	-0.629694
F94	F	-0.131442	-0.191021	-0.000089
F95	F	-0.521048	-0.064729	-0.000082
F96	F	-0.254057	-0.187749	-0.000115
H97	H	-0.761827	0.749036	-0.099908
F98	F	-0.777430	0.082098	-0.357617
