data_functionalizedCrystal
_audit_creation_method	'MofGen! by Chris Wilmer'
_symmetry_space_group_name_H-M	'P1'
_symmetry_Int_Tables_number	1
_symmetry_cell_setting	triclinic
loop_
_symmetry_equiv_pos_as_xyz
  x,y,z
_cell_length_a	14.446369
_cell_length_b	14.809374
_cell_length_c	14.809374
_cell_angle_alpha	60.797835
_cell_angle_beta	89.998181
_cell_angle_gamma	67.426738
loop_
_atom_site_label
_atom_site_type_symbol
_atom_site_fract_x
_atom_site_fract_y
_atom_site_fract_z
Zr1	Zr	1.022448	0.955245	-0.203726
O2	O	0.909057	1.113161	-0.350880
O3	O	1.041155	0.777479	-0.145650
O4	O	1.079020	0.926628	-0.332192
O5	O	0.859586	0.993507	-0.031939
O6	O	1.231350	0.926635	-0.332200
O7	O	0.871193	0.964012	-0.164338
O8	O	1.163618	0.659834	0.001489
O9	O	0.927318	1.260307	-0.365628
O10	O	1.182211	0.857953	-0.136552
O11	O	1.059867	0.879960	-0.037739
O12	O	1.104447	1.055564	-0.257368
O13	O	0.982102	1.077571	-0.158554
Zr14	Zr	1.246886	1.002297	0.007422
Zr15	Zr	1.265398	0.955255	-0.203739
Zr16	Zr	1.003936	1.002286	0.007434
Zr17	Zr	1.051572	1.189927	-0.227249
Zr18	Zr	1.217761	0.767615	0.030944
O19	O	1.228179	1.180062	-0.050654
O20	O	1.254500	1.113175	-0.350897
O21	O	0.882736	1.180048	-0.050636
O22	O	1.360277	0.844381	0.154575
O23	O	1.386598	0.777494	-0.145668
O24	O	1.014834	0.844366	0.154593
O25	O	1.409748	0.964035	-0.164366
O26	O	1.190314	1.030913	0.135888
O27	O	1.037984	1.030907	0.135896
O28	O	1.398141	0.993530	-0.031967
O29	O	1.120431	1.260316	-0.365638
O30	O	1.148903	0.697226	0.169334
O31	O	1.342016	0.697234	0.169324
O32	O	1.356730	0.659842	0.001479
O33	O	0.912604	1.297699	-0.197784
O34	O	1.105716	1.297707	-0.197794
O35	O	1.164887	0.901977	0.061063
O36	O	1.287232	0.879970	-0.037750
O37	O	1.209467	1.077581	-0.158566
O38	O	1.087123	1.099588	-0.059752
C39	C	1.098237	0.685219	-0.068729
C40	C	1.085873	0.585591	-0.058743
C41	C	0.830774	0.978758	-0.098137
C42	C	0.727636	0.978753	-0.098131
C43	C	1.141052	0.530256	-0.103309
C44	C	1.128274	0.427284	-0.092989
C45	C	0.630031	0.854063	-0.022258
C46	C	0.737317	0.854048	-0.021893
C47	C	0.657629	1.057681	-0.059571
C48	C	0.550622	1.056902	-0.059035
C49	C	0.562855	1.025569	-0.212772
C50	C	0.671188	1.022998	-0.212335
C51	C	1.438560	0.978784	-0.098168
C52	C	1.541698	0.978788	-0.098173
C53	C	1.157822	0.919929	-0.362282
C54	C	1.165681	0.899959	-0.451925
C55	C	1.171097	1.272322	-0.127576
C56	C	1.183461	1.371951	-0.137561
C57	C	1.130609	0.989084	-0.551824
C58	C	1.138730	0.968446	-0.644476
C59	C	1.111511	1.037612	0.165977
C60	C	1.103653	1.057583	0.255621
C61	C	1.402130	0.685232	-0.068745
C62	C	1.492904	0.585608	-0.058764
C63	C	1.075081	0.744061	0.195401
C64	C	1.054859	0.664403	0.295030
C65	C	1.378974	0.744074	0.195385
C66	C	1.461890	0.664420	0.295009
C67	C	0.890360	1.213467	-0.391689
C68	C	0.807444	1.293121	-0.491313
C69	C	0.867204	1.272309	-0.127560
C70	C	0.776430	1.371933	-0.137540
C71	C	1.194252	1.213480	-0.391705
C72	C	1.214475	1.293139	-0.491334
C73	C	1.480714	0.527329	-0.105659
C74	C	1.566000	0.433730	-0.096303
C75	C	1.663474	0.398407	-0.040044
C76	C	1.675663	0.456695	0.006852
C77	C	1.590379	0.550298	-0.002511
C78	C	1.100181	0.638489	0.393399
C79	C	1.081176	0.563656	0.487018
C80	C	1.016855	0.514732	0.482266
C81	C	0.971527	0.540653	0.383886
C82	C	0.990527	0.615491	0.290269
C83	C	1.564701	0.615526	0.290214
C84	C	1.642620	0.540694	0.383811
C85	C	1.617726	0.514751	0.482204
C86	C	1.514905	0.563654	0.486996
C87	C	1.436988	0.638491	0.393399
C88	C	0.704635	1.342026	-0.486519
C89	C	0.626719	1.416888	-0.580120
C90	C	0.651614	1.442836	-0.678513
C91	C	0.754434	1.393927	-0.683305
C92	C	0.832348	1.319074	-0.589706
C93	C	0.788622	1.430220	-0.090655
C94	C	0.703341	1.523840	-0.100038
C95	C	0.605868	1.559166	-0.156300
C96	C	0.593678	1.500874	-0.203191
C97	C	0.678959	1.407261	-0.193815
C98	C	1.278801	1.342040	-0.486548
C99	C	1.297823	1.416877	-0.580151
C100	C	1.252511	1.442817	-0.678540
C101	C	1.188182	1.393907	-0.683323
C102	C	1.169167	1.319065	-0.589721
H103	H	1.197757	0.559109	-0.149100
H104	H	1.094574	1.080666	-0.568757
F105	F	1.553006	0.371707	-0.146216
H106	H	0.646815	1.150006	-0.112786
F107	F	0.482502	1.145451	-0.286835
H108	H	1.151293	1.415040	-0.763444
F109	F	1.779410	0.419086	0.066728
H110	H	1.071572	0.398427	-0.047189
F111	F	0.659961	1.140578	-0.291069
H112	H	1.174776	0.876857	-0.627535
H113	H	1.350202	1.456694	-0.576235
H114	H	0.669017	1.359805	-0.231993
F115	F	1.272756	1.522476	-0.778152
F116	F	0.568678	1.522503	-0.778122
H117	H	1.732909	0.322187	-0.032426
H118	H	1.315703	1.320933	-0.406444
H119	H	1.067613	1.149172	-0.761322
F120	F	0.515112	1.658799	-0.166269
F121	F	1.212796	0.780251	-0.429785
F122	F	1.376983	0.564906	-0.165543
F123	F	1.591219	0.643127	0.185506
H124	H	1.116783	1.279257	-0.593633
H125	H	1.118094	0.542562	0.567114
H126	H	1.240170	0.400801	-0.183355
F127	F	0.996644	0.435084	0.581912
H128	H	0.617438	0.817517	0.061995
H129	H	0.543004	1.456698	-0.576197
F130	F	0.734148	0.947536	-0.250148
H131	H	0.867981	1.401468	-0.044834
F132	F	1.488426	0.536032	0.591722
H133	H	1.029175	0.556730	-0.012946
F134	F	0.780913	1.421552	-0.788031
H135	H	0.787558	0.793291	-0.046988
H136	H	0.537888	1.025631	0.024979
H137	H	0.916059	1.279253	-0.593621
H138	H	0.488362	1.149135	-0.111484
F139	F	0.708344	1.018041	0.049119
F140	F	1.603367	0.612309	0.047412
H141	H	0.514304	1.529651	-0.249000
F142	F	0.627744	0.774150	-0.054781
H143	H	0.953621	0.636578	0.210177
F144	F	0.554635	0.956564	-0.256600
F145	F	0.789716	0.806140	0.088888
H146	H	1.152555	0.678316	0.397288
H147	H	0.919156	0.500809	0.380033
F148	F	1.752042	0.488657	0.378689
F149	F	1.700663	0.435099	0.581811
H150	H	1.353276	0.678291	0.397318
H151	H	0.684344	1.320904	-0.406411
H152	H	0.713286	1.571288	-0.061847
