data_functionalizedCrystal
_audit_creation_method	'MofGen! by Chris Wilmer'
_symmetry_space_group_name_H-M	'P1'
_symmetry_Int_Tables_number	1
_symmetry_cell_setting	triclinic
loop_
_symmetry_equiv_pos_as_xyz
  x,y,z
_cell_length_a	19.188930
_cell_length_b	8.559649
_cell_length_c	7.681481
_cell_angle_alpha	85.086760
_cell_angle_beta	84.272277
_cell_angle_gamma	103.538277
loop_
_atom_site_label
_atom_site_type_symbol
_atom_site_fract_x
_atom_site_fract_y
_atom_site_fract_z
O1	O	-0.016273	-2.105137	-0.146396
O2	O	0.019799	-1.639679	-0.146415
O3	O	-0.100597	-1.885844	-0.146371
O4	O	0.104122	-1.858973	-0.146440
O5	O	-0.115446	-1.916143	0.146493
O6	O	0.004950	-1.669978	0.146449
O7	O	-0.031122	-2.135436	0.146467
Zn8	Zn	-0.015443	-1.907518	0.192956
Zn9	Zn	0.004120	-1.867598	-0.192904
O10	O	0.089274	-1.889272	0.146423
C11	C	0.015108	-1.595280	0.000015
C12	C	0.023245	-1.417842	0.000010
C13	C	-0.133987	-1.900124	0.000066
C14	C	-0.211356	-1.897514	0.000081
C15	C	-0.026431	-2.179835	0.000033
C16	C	-0.034568	-2.357272	0.000027
C17	C	-0.263833	-2.041954	0.000095
C18	C	-0.336527	-2.039498	0.000067
C19	C	-0.356742	-1.892597	0.000060
C20	C	-0.304254	-1.748137	0.000036
C21	C	-0.231561	-1.750595	0.000047
N22	N	-0.463929	-1.790620	0.099722
N23	N	-0.532986	-1.788294	0.099716
C24	C	-0.575761	-1.885180	0.000024
N25	N	-0.546875	-1.984505	-0.099639
N26	N	-0.477813	-1.986836	-0.099625
C27	C	-0.435564	-1.889914	0.000047
C28	C	-0.707062	-2.026966	0.000005
C29	C	-0.779757	-2.024502	-0.000034
C30	C	-0.747483	-1.733139	-0.000048
C31	C	-0.674790	-1.735605	-0.000026
C32	C	-0.654585	-1.882524	0.000008
C33	C	0.122664	-1.874991	-0.000018
C34	C	0.200033	-1.877600	-0.000044
N35	N	-0.028796	-1.934774	0.456295
N36	N	0.017467	-1.840354	-0.456243
H37	H	-0.247387	-2.161586	0.000117
H38	H	-0.090289	-1.441159	0.000037
H39	H	-0.320718	-1.628528	0.000026
Br40	Br	0.116128	-1.278018	-0.000047
Br41	Br	0.096176	-1.679706	0.418399
Br42	Br	-0.407758	-2.235536	0.000078
H43	H	-0.188832	-1.632971	0.000036
Br44	Br	-0.107499	-2.095455	0.581659
H45	H	-0.690610	-2.146595	0.000025
H46	H	-0.763941	-1.613528	-0.000062
H47	H	-0.822484	-2.142127	-0.000033
Br48	Br	-0.603566	-1.539568	-0.000043
