data_functionalizedCrystal
_audit_creation_method	'MofGen! by Chris Wilmer'
_symmetry_space_group_name_H-M	'P1'
_symmetry_Int_Tables_number	1
_symmetry_cell_setting	triclinic
loop_
_symmetry_equiv_pos_as_xyz
  x,y,z
_cell_length_a	27.731996
_cell_length_b	15.455341
_cell_length_c	16.956995
_cell_angle_alpha	93.160271
_cell_angle_beta	79.337929
_cell_angle_gamma	93.005407
loop_
_atom_site_label
_atom_site_type_symbol
_atom_site_fract_x
_atom_site_fract_y
_atom_site_fract_z
O1	O	0.018278	-0.072193	1.054682
O2	O	0.518278	0.427807	1.554682
O3	O	0.035256	-0.072185	0.822311
O4	O	0.535256	0.427815	1.322311
O5	O	-0.043888	-0.072171	0.945736
O6	O	0.456112	0.427829	1.445736
O7	O	0.097421	-0.072208	0.931257
O8	O	0.597421	0.427792	1.431257
O9	O	-0.040361	0.072089	0.951924
O10	O	0.459639	0.572089	1.451924
O11	O	0.038783	0.072075	0.828499
O12	O	0.538783	0.572075	1.328499
O13	O	0.021805	0.072067	1.060870
O14	O	0.521805	0.572067	1.560870
Cu15	Cu	0.030616	0.085243	0.945249
Cu16	Cu	0.530616	0.585243	1.445249
Cu17	Cu	0.026445	-0.085361	0.937931
Cu18	Cu	0.526445	0.414639	1.437931
O19	O	0.100948	0.072052	0.937445
O20	O	0.600948	0.572052	1.437445
C21	C	0.037889	-0.000054	0.795686
C22	C	0.537889	0.499946	1.295686
C23	C	0.040473	-0.000050	0.707133
C24	C	0.540473	0.499950	1.207133
C25	C	-0.060121	-0.000038	0.948532
C26	C	0.439879	0.499962	1.448532
C27	C	-0.113745	-0.000029	0.947637
C28	C	0.386255	0.499971	1.447637
N29	N	0.033549	0.205237	0.950402
N30	N	0.533549	0.705237	1.450402
C31	C	-0.448186	-0.078707	0.938626
C32	C	0.051814	0.421293	1.438626
C33	C	-0.649724	-0.078722	0.935224
C34	C	-0.149724	0.421278	1.435224
O35	O	-0.677413	-0.145600	0.931881
O36	O	-0.177413	0.354400	1.431881
N37	N	-0.673003	-0.000087	0.938175
N38	N	-0.173003	0.499913	1.438175
C39	C	-0.645894	0.078558	0.941971
C40	C	-0.145894	0.578558	1.441971
O41	O	-0.670318	0.145442	0.944394
O42	O	-0.170318	0.645442	1.444394
C43	C	-0.444357	0.078572	0.945367
C44	C	0.055643	0.578572	1.445367
C45	C	-0.421081	-0.000068	0.942425
C46	C	0.078919	0.499932	1.442425
C47	C	-0.424909	-0.157341	0.935683
C48	C	0.075091	0.342659	1.435683
C49	C	-0.374528	-0.157337	0.936538
C50	C	0.125472	0.342663	1.436538
C51	C	-0.347424	-0.078698	0.940336
C52	C	0.152576	0.421302	1.440336
C53	C	-0.370700	-0.000064	0.943279
C54	C	0.129300	0.499936	1.443279
C55	C	-0.417248	0.157216	0.949157
C56	C	0.082752	0.657216	1.449157
C57	C	-0.366860	0.157213	0.950004
C58	C	0.133140	0.657213	1.450004
C59	C	-0.343584	0.078572	0.947062
C60	C	0.156416	0.578572	1.447062
C61	C	-0.293214	0.078579	0.947933
C62	C	0.206786	0.578579	1.447933
N63	N	-0.269934	-0.000056	0.944982
N64	N	0.230066	0.499944	1.444982
C65	C	-0.297039	-0.078695	0.941184
C66	C	0.202961	0.421305	1.441184
C67	C	-0.751705	0.078545	0.940189
C68	C	-0.251705	0.578545	1.440189
C69	C	-0.802089	0.078542	0.939341
C70	C	-0.302089	0.578542	1.439341
C71	C	-0.805915	-0.078739	0.932593
C72	C	-0.305915	0.421261	1.432593
C73	C	-0.755530	-0.078735	0.933447
C74	C	-0.255530	0.421265	1.433447
C75	C	-0.728425	-0.000090	0.937238
C76	C	-0.228425	0.499910	1.437238
C77	C	-0.191235	-0.078679	0.942980
C78	C	0.308765	0.421321	1.442980
C79	C	-0.140850	-0.078667	0.943839
C80	C	0.359150	0.421333	1.443839
C81	C	-0.137028	0.078612	0.950583
C82	C	0.362972	0.578612	1.450583
C83	C	-0.187410	0.078601	0.949728
C84	C	0.312590	0.578601	1.449728
C85	C	-0.214512	-0.000051	0.945924
C86	C	0.285488	0.499949	1.445924
O87	O	-0.265494	0.145422	0.951265
O88	O	0.234506	0.645422	1.451265
O89	O	-0.272604	-0.145569	0.938743
O90	O	0.227396	0.354431	1.438743
C91	C	-0.498567	-0.078712	0.937771
C92	C	0.001433	0.421288	1.437771
C93	C	-0.521843	-0.000078	0.940715
C94	C	-0.021843	0.499922	1.440715
C95	C	-0.494738	0.078561	0.944513
C96	C	0.005262	0.578561	1.444513
C97	C	-0.572227	-0.000081	0.939867
C98	C	-0.072227	0.499919	1.439867
C99	C	-0.599332	-0.078720	0.936069
C100	C	-0.099332	0.421280	1.436069
C101	C	-0.576052	-0.157355	0.933118
C102	C	-0.076052	0.342645	1.433118
C103	C	-0.525671	-0.157350	0.933973
C104	C	-0.025671	0.342650	1.433973
C105	C	-0.518017	0.157197	0.947463
C106	C	-0.018017	0.657197	1.447463
C107	C	-0.568399	0.157186	0.946609
C108	C	-0.068399	0.657186	1.446609
C109	C	-0.595504	0.078547	0.942811
C110	C	-0.095504	0.578547	1.442811
C111	C	0.117182	-0.000083	0.934648
C112	C	0.617182	0.499917	1.434648
C113	C	0.170806	-0.000097	0.935543
C114	C	0.670806	0.499903	1.435543
N115	N	0.023507	-0.205355	0.932785
N116	N	0.523507	0.294645	1.432785
C117	C	0.049812	0.749235	0.978848
C118	C	0.549812	1.249235	1.478848
C119	C	0.047590	0.658428	0.974956
C120	C	0.547590	1.158428	1.474956
C121	C	0.019060	0.613034	0.925004
C122	C	0.519060	1.113034	1.425004
C123	C	-0.007246	0.658450	0.878935
C124	C	0.492754	1.158450	1.378935
C125	C	-0.005021	0.749255	0.882824
C126	C	0.494979	1.249255	1.382824
C127	C	0.009468	0.341458	0.908222
C128	C	0.509468	0.841458	1.408222
C129	C	0.007244	0.250647	0.904339
C130	C	0.507244	0.750647	1.404339
C131	C	0.062081	0.250631	1.000359
C132	C	0.562081	0.750631	1.500359
C133	C	0.064301	0.341438	1.004246
C134	C	0.564301	0.841438	1.504246
C135	C	0.037998	0.386846	0.958175
C136	C	0.537998	0.886846	1.458175
N137	N	0.016787	0.520215	0.921026
N138	N	0.516787	1.020215	1.421026
N139	N	0.040274	0.479664	0.962149
N140	N	0.540274	0.979664	1.462149
C141	C	0.059807	-0.000087	0.207587
C142	C	0.559807	0.499913	0.707587
C143	C	0.057375	-0.000086	0.290792
C144	C	0.557375	0.499914	0.790792
C145	C	0.011723	-0.000067	0.342458
C146	C	0.511723	0.499933	0.842458
C147	C	-0.031500	-0.000059	0.310914
C148	C	0.468500	0.499941	0.810914
C149	C	-0.029068	-0.000066	0.227709
C150	C	0.470932	0.499934	0.727709
C151	C	-0.000317	-0.000049	0.592384
C152	C	0.499683	0.499951	1.092384
C153	C	-0.002746	-0.000039	0.675594
C154	C	0.497254	0.499961	1.175594
C155	C	0.086129	-0.000067	0.655466
C156	C	0.586129	0.499933	1.155466
C157	C	0.088558	-0.000070	0.572261
C158	C	0.588558	0.499930	1.072261
C159	C	0.045335	-0.000066	0.540724
C160	C	0.545335	0.499934	1.040724
N161	N	0.009236	-0.000063	0.427508
N162	N	0.509236	0.499937	0.927508
N163	N	0.047822	-0.000076	0.455675
N164	N	0.547822	0.499924	0.955675
C165	C	0.019172	-0.000066	1.087495
C166	C	0.519172	0.499934	1.587495
C167	C	0.016587	-0.000076	1.176047
C168	C	0.516587	0.499924	1.676047
H169	H	-0.121902	-0.142709	0.941444
H170	H	0.378098	0.357291	1.441444
H171	H	-0.446973	-0.221382	0.932587
H172	H	0.053027	0.278618	1.432587
H173	H	-0.827993	-0.142770	0.929501
H174	H	-0.327993	0.357230	1.429501
F175	F	-0.018527	0.389774	0.859188
F176	F	0.481473	0.889774	1.359188
F177	F	0.132127	-0.000076	0.689037
F178	F	0.632127	0.499924	1.189037
H179	H	-0.035512	-0.000043	0.566717
H180	H	0.464488	0.499957	1.066717
H181	H	0.125732	-0.000087	0.530199
H182	H	0.625732	0.499913	1.030199
F183	F	-0.075068	-0.000055	0.194144
F184	F	0.424932	0.499945	0.694144
F185	F	-0.037607	0.610135	0.825768
F186	F	0.462393	1.110135	1.325768
H187	H	-0.026440	0.786227	0.845312
H188	H	0.473560	1.286227	1.345312
H189	H	-0.213296	-0.142726	0.939878
H190	H	0.286704	0.357274	1.439878
F191	F	0.108397	-0.000100	0.152607
F192	F	0.608397	0.499900	0.652607
F193	F	-0.338016	0.240919	0.954040
F194	F	0.161984	0.740919	1.454040
F195	F	0.090075	0.202298	1.049386
F196	F	0.590075	0.702298	1.549386
H197	H	-0.039924	-0.000028	0.717659
H198	H	0.460076	0.499972	1.217659
F199	F	-0.023136	0.202336	0.851191
F200	F	0.476864	0.702336	1.351191
F201	F	-0.489176	0.240899	0.951500
F202	F	0.010824	0.740899	1.451500
F203	F	0.103375	-0.000102	0.324354
F204	F	0.603375	0.499898	0.824354
F205	F	0.075602	0.610104	1.023961
F206	F	0.575602	1.110104	1.523961
F207	F	-0.080087	-0.000042	0.365902
F208	F	0.419913	0.499958	0.865902
H209	H	-0.355582	-0.221374	0.934139
H210	H	0.144418	0.278626	1.434139
F211	F	-0.212184	0.162299	0.952875
F212	F	0.287816	0.662299	1.452875
F213	F	-0.826857	0.162241	0.942488
F214	F	-0.326857	0.662241	1.442488
F215	F	-0.730763	-0.162434	0.930313
F216	F	-0.230763	0.337566	1.430313
F217	F	-0.722863	0.162255	0.944221
F218	F	-0.222863	0.662255	1.444221
H219	H	0.087533	0.378392	1.044924
H220	H	0.587533	0.878392	1.544924
F221	F	-0.442008	0.240918	0.952286
F222	F	0.057992	0.740918	1.452286
H223	H	-0.114951	0.142638	0.953679
H224	H	0.385049	0.642638	1.453679
H225	H	-0.506725	-0.221388	0.931577
H226	H	-0.006725	0.278612	1.431577
F227	F	-0.604909	-0.241048	0.929080
F228	F	-0.104909	0.258952	1.429080
H229	H	-0.587346	0.221229	0.949012
H230	H	-0.087346	0.721229	1.449012
F231	F	0.080176	0.797539	1.032019
F232	F	0.580176	1.297539	1.532019
