data_functionalizedCrystal
_audit_creation_method	'MofGen! by Chris Wilmer'
_symmetry_space_group_name_H-M	'P1'
_symmetry_Int_Tables_number	1
_symmetry_cell_setting	triclinic
loop_
_symmetry_equiv_pos_as_xyz
  x,y,z
_cell_length_a	19.188930
_cell_length_b	10.489741
_cell_length_c	8.965430
_cell_angle_alpha	89.999293
_cell_angle_beta	90.017672
_cell_angle_gamma	83.841977
loop_
_atom_site_label
_atom_site_type_symbol
_atom_site_fract_x
_atom_site_fract_y
_atom_site_fract_z
O1	O	-0.927211	-0.159225	-0.124519
O2	O	-0.724044	-0.180661	-0.124416
O3	O	-0.830251	0.015758	-0.124461
O4	O	-0.821005	-0.355644	-0.124474
O5	O	-0.830242	0.015745	0.123618
O6	O	-0.724035	-0.180674	0.123663
O7	O	-0.927203	-0.159238	0.123560
Cu8	Cu	-0.825618	-0.169958	0.146263
Cu9	Cu	-0.825628	-0.169942	-0.147119
O10	O	-0.820996	-0.355658	0.123605
C11	C	-0.698024	-0.179974	-0.000364
C12	C	-0.620505	-0.177890	-0.000325
C13	C	-0.829548	0.063267	-0.000422
C14	C	-0.827459	0.204850	-0.000424
C15	C	-0.953223	-0.159926	-0.000496
C16	C	-1.030741	-0.162010	-0.000545
C17	C	-0.576353	-0.293142	-0.000352
C18	C	-0.503516	-0.291184	-0.000368
C19	C	-0.474835	-0.173968	-0.000387
C20	C	-0.518996	-0.058700	-0.000351
C21	C	-0.591831	-0.060661	-0.000320
N22	N	-0.366257	-0.084366	-0.084876
N23	N	-0.297066	-0.082511	-0.084909
C24	C	-0.255386	-0.168052	-0.000478
N25	N	-0.285510	-0.255538	0.083968
N26	N	-0.354707	-0.257397	0.083994
C27	C	-0.395858	-0.171828	-0.000420
C28	C	-0.132256	-0.281190	-0.000521
C29	C	-0.059418	-0.279227	-0.000528
C30	C	-0.074899	-0.046740	-0.000526
C31	C	-0.147736	-0.048706	-0.000504
C32	C	-0.176409	-0.165934	-0.000509
C33	C	-0.821699	-0.403167	-0.000437
C34	C	-0.823788	-0.544750	-0.000445
N35	N	-0.825615	-0.169968	0.352612
C36	C	-0.759882	0.271479	-0.000400
C37	C	-0.791800	0.364309	0.121899
C38	C	-0.791825	0.364297	-0.122687
C39	C	-0.859404	0.295815	0.121977
C40	C	-0.859420	0.295793	-0.122719
C41	C	-0.891387	0.388597	-0.000390
N42	N	-0.825636	-0.169922	-0.353468
C43	C	-0.776483	-0.260775	0.449939
C44	C	-0.839698	-0.285173	0.549319
C45	C	-0.762427	-0.145581	0.549359
C46	C	-0.888863	-0.194422	0.449804
C47	C	-0.811550	-0.054781	0.449835
C48	C	-0.874810	-0.079129	0.549171
H49	H	-0.467561	-0.385040	-0.000386
O50	O	-0.855457	-0.414158	0.607297
H51	H	-0.814585	-0.489392	0.567597
H52	H	-0.887992	0.265393	-0.226148
O53	O	-0.691635	-0.118267	0.607287
H54	H	-0.650941	-0.193795	0.567529
O55	O	-0.686293	0.204037	-0.000210
H56	H	-0.648101	0.276359	0.000936
O57	O	-0.607282	-0.419575	-0.000314
H58	H	-0.564339	-0.499389	-0.000314
H59	H	-0.051547	0.048700	-0.000634
H60	H	-0.734972	-0.337638	0.406367
H61	H	-0.495639	0.036738	-0.000387
H62	H	-0.942321	-0.215145	0.406258
H63	H	-0.763203	0.394676	0.225323
O64	O	-0.929914	0.022621	0.606555
H65	H	-0.982292	0.002084	0.566470
H66	H	-0.946998	0.439264	-0.000350
O67	O	-0.639460	0.063650	-0.000298
H68	H	-0.607282	0.145492	-0.000317
O69	O	-0.163192	-0.407620	-0.000496
H70	H	-0.120250	-0.487437	-0.000489
O71	O	-0.011791	-0.403541	-0.000552
H72	H	-0.043970	-0.485380	-0.000563
O73	O	-0.753949	0.404496	-0.259651
H74	H	-0.699377	0.357108	-0.259354
H75	H	-0.183685	0.045145	-0.000490
H76	H	-0.887969	0.265617	0.225487
O77	O	-0.795751	0.074182	0.391885
H78	H	-0.743236	0.094187	0.431685
