data_functionalizedCrystal
_audit_creation_method	'MofGen! by Chris Wilmer'
_symmetry_space_group_name_H-M	'P1'
_symmetry_Int_Tables_number	1
_symmetry_cell_setting	triclinic
loop_
_symmetry_equiv_pos_as_xyz
  x,y,z
_cell_length_a	21.295418
_cell_length_b	17.077402
_cell_length_c	17.077396
_cell_angle_alpha	90.028267
_cell_angle_beta	89.963466
_cell_angle_gamma	89.959853
loop_
_atom_site_label
_atom_site_type_symbol
_atom_site_fract_x
_atom_site_fract_y
_atom_site_fract_z
Zn1	Zn	0.962338	0.312170	-0.444253
Zn2	Zn	1.462338	0.812170	0.055747
Zn3	Zn	0.962265	0.443447	-0.312989
Zn4	Zn	1.462265	0.943447	0.187011
Zn5	Zn	0.857074	0.312235	-0.312956
Zn6	Zn	1.357074	0.812235	0.187044
Zn7	Zn	0.857042	0.443434	-0.444168
Zn8	Zn	1.357042	0.943434	0.055832
O9	O	0.909680	0.377822	-0.378592
O10	O	1.409680	0.877822	0.121408
O11	O	1.050418	0.329562	-0.426889
O12	O	1.550418	0.829562	0.073111
O13	O	0.948294	0.426074	-0.203138
O14	O	1.448294	0.926074	0.296862
O15	O	0.871082	0.202380	-0.330395
O16	O	1.371082	0.702380	0.169605
O17	O	1.050364	0.426011	-0.330450
O18	O	1.550364	0.926011	0.169550
O19	O	0.948419	0.202332	-0.426857
O20	O	1.448419	0.702332	0.073143
O21	O	0.871011	0.329674	-0.203114
O22	O	1.371011	0.829674	0.296886
O23	O	0.768981	0.329661	-0.330313
O24	O	1.268981	0.829661	0.169687
O25	O	0.871027	0.425989	-0.554027
O26	O	1.371027	0.925989	-0.054027
O27	O	0.768957	0.426052	-0.426714
O28	O	1.268957	0.926052	0.073286
O29	O	0.948387	0.329550	-0.554088
O30	O	1.448387	0.829550	-0.054088
O31	O	0.948263	0.553292	-0.330369
O32	O	1.448263	1.053292	0.169631
O33	O	0.870956	0.553283	-0.426746
O34	O	1.370956	1.053283	0.073254
C35	C	0.746128	0.377863	-0.378501
C36	C	1.246128	0.877863	0.121499
C37	C	0.676160	0.377900	-0.378481
C38	C	1.176160	0.877900	0.121519
C39	C	0.909615	0.581770	-0.378569
C40	C	1.409615	1.081770	0.121431
C41	C	0.909645	0.669019	-0.378585
C42	C	1.409645	1.169019	0.121415
C43	C	0.909711	0.377761	-0.583336
C44	C	1.409711	0.877761	-0.083336
C45	C	0.909725	0.377735	-0.670586
C46	C	1.409725	0.877735	-0.170586
C47	C	0.643297	0.428157	-0.428602
C48	C	1.143297	0.928157	0.071398
C49	C	0.577555	0.428138	-0.428637
C50	C	1.077555	0.928138	0.071363
C51	C	0.544678	0.377869	-0.378538
C52	C	1.044678	0.877869	0.121462
C53	C	0.577548	0.327602	-0.328413
C54	C	1.077548	0.827602	0.171587
C55	C	0.643289	0.327617	-0.328385
C56	C	1.143289	0.827617	0.171615
N57	N	0.441408	0.371740	-0.309881
N58	N	0.941408	0.871740	0.190119
N59	N	0.378957	0.371730	-0.309910
N60	N	0.878957	0.871730	0.190090
C61	C	0.346603	0.377819	-0.378621
C62	C	0.846603	0.877819	0.121379
N63	N	0.379060	0.383934	-0.447304
N64	N	0.879060	0.883934	0.052696
N65	N	0.441517	0.383948	-0.447274
N66	N	0.941517	0.883948	0.052726
C67	C	0.473392	0.377847	-0.378563
C68	C	0.973392	0.877847	0.121437
C69	C	0.242455	0.428058	-0.428784
C70	C	0.742455	0.928058	0.071216
C71	C	0.176711	0.428033	-0.428821
C72	C	0.676711	0.928033	0.071179
C73	C	0.176706	0.327502	-0.328590
C74	C	0.676706	0.827502	0.171410
C75	C	0.242448	0.327523	-0.328560
C76	C	0.742448	0.827523	0.171440
C77	C	0.275319	0.377805	-0.378656
C78	C	0.775319	0.877805	0.121344
C79	C	1.073870	0.377781	-0.378683
C80	C	1.573870	0.877781	0.121317
C81	C	1.143838	0.377763	-0.378722
C82	C	1.643838	0.877763	0.121278
C83	C	0.949939	0.709988	-0.328457
C84	C	1.449939	1.209988	0.171543
C85	C	0.949968	0.791969	-0.328481
C86	C	1.449968	1.291969	0.171519
C87	C	0.909699	0.832979	-0.378628
C88	C	1.409699	1.332979	0.121372
C89	C	0.869404	0.792004	-0.428762
C90	C	1.369404	1.292004	0.071238
C91	C	0.869378	0.710025	-0.428742
C92	C	1.369378	1.210025	0.071258
C93	C	0.869458	0.962874	-0.428799
C94	C	1.369458	1.462874	0.071201
C95	C	0.869483	1.044859	-0.428818
C96	C	1.369483	1.544859	0.071182
C97	C	0.950048	1.044818	-0.328537
C98	C	1.450048	1.544818	0.171463
C99	C	0.950023	0.962839	-0.328517
C100	C	1.450023	1.462839	0.171483
C101	C	0.909726	0.921870	-0.378650
C102	C	1.409726	1.421870	0.121350
C103	C	0.909757	1.173077	-0.378642
C104	C	1.409757	1.673077	0.121358
C105	C	0.909777	1.085828	-0.378690
C106	C	1.409777	1.585828	0.121310
C107	C	0.869496	0.327533	-0.711563
C108	C	1.369496	0.827533	-0.211563
C109	C	0.869506	0.327515	-0.793543
C110	C	1.369506	0.827515	-0.293543
C111	C	0.909749	0.377696	-0.834545
C112	C	1.409749	0.877696	-0.334545
C113	C	0.949980	0.427903	-0.793563
C114	C	1.449980	0.927903	-0.293563
C115	C	0.949966	0.427925	-0.711583
C116	C	1.449966	0.927925	-0.211583
C117	C	0.950007	0.427854	-0.964433
C118	C	1.450007	0.927854	-0.464433
C119	C	0.950022	0.427832	-1.046417
C120	C	1.450022	0.927832	-0.546417
C121	C	0.869547	0.327445	-1.046393
C122	C	1.369547	0.827445	-0.546393
C123	C	0.869533	0.327466	-0.964414
C124	C	1.369533	0.827466	-0.464414
C125	C	0.909765	0.377673	-0.923436
C126	C	1.409765	0.877673	-0.423436
C127	C	0.909685	0.377826	-0.174644
C128	C	1.409685	0.877826	0.325356
C129	C	0.909793	0.377630	-0.087394
C130	C	1.409793	0.877630	0.412606
H131	H	0.670057	0.469100	-0.469396
H132	H	1.170057	0.969100	0.030604
O133	O	0.144759	0.476744	-0.477596
O134	O	0.644759	0.976744	0.022404
C135	C	0.106795	0.432114	-0.528385
C136	C	0.606795	0.932114	-0.028385
H137	H	0.126656	0.370301	-0.533339
H138	H	0.626656	0.870301	-0.033339
H139	H	0.056953	0.429364	-0.504145
H140	H	0.556953	0.929364	-0.004145
C141	C	0.081432	0.546494	-0.603833
C142	C	0.581432	1.046494	-0.103833
C143	C	0.105828	0.470576	-0.609922
C144	C	0.605828	0.970576	-0.109922
H145	H	0.080833	0.570220	-0.654128
H146	H	0.580833	1.070220	-0.154128
H147	H	0.107007	0.576563	-0.569614
H148	H	0.607007	1.076563	-0.069614
H149	H	0.039899	0.544192	-0.583630
H150	H	0.539899	1.044192	-0.083630
H151	H	0.147363	0.472880	-0.630116
H152	H	0.647363	0.972880	-0.130116
H153	H	0.080260	0.440508	-0.644147
H154	H	0.580260	0.940508	-0.144147
O155	O	0.830410	0.278672	-0.833227
O156	O	1.330410	0.778672	-0.333227
C157	C	0.794880	0.234396	-0.779459
C158	C	1.294880	0.734396	-0.279459
H159	H	0.820657	0.231690	-0.721037
H160	H	1.320657	0.731690	-0.221037
H161	H	0.747057	0.263151	-0.770705
H162	H	1.247057	0.763151	-0.270705
C163	C	0.754192	0.154169	-0.883222
C164	C	1.254192	0.654169	-0.383222
C165	C	0.785854	0.150839	-0.811469
C166	C	1.285854	0.650839	-0.311469
H167	H	0.748621	0.102628	-0.902969
H168	H	1.248621	0.602628	-0.402969
H169	H	0.778127	0.184000	-0.919448
H170	H	1.278127	0.684000	-0.419448
H171	H	0.714342	0.178134	-0.875918
H172	H	1.214342	0.678134	-0.375918
H173	H	0.825706	0.126883	-0.818776
H174	H	1.325706	0.626883	-0.318776
H175	H	0.761926	0.121002	-0.775246
H176	H	1.261926	0.621002	-0.275246
O177	O	0.989114	0.670276	-0.279715
O178	O	1.489114	1.170276	0.220285
C179	C	1.024673	0.724020	-0.235463
C180	C	1.524673	1.224020	0.264537
H181	H	1.026856	0.782430	-0.267635
H182	H	1.526856	1.282430	0.232365
H183	H	1.001652	0.732816	-0.175813
H184	H	1.501652	1.232816	0.324187
C185	C	1.088985	0.620204	-0.184729
C186	C	1.588985	1.120204	0.315271
C187	C	1.091670	0.691941	-0.224247
C188	C	1.591670	1.191941	0.275753
H189	H	1.130311	0.600415	-0.177807
H190	H	1.630311	1.100415	0.322193
H191	H	1.065027	0.583994	-0.214540
H192	H	1.565027	1.083994	0.285460
H193	H	1.069798	0.627543	-0.135025
H194	H	1.569798	1.127543	0.364975
H195	H	1.110849	0.684599	-0.273953
H196	H	1.610849	1.184599	0.226047
H197	H	1.115633	0.728149	-0.194443
H198	H	1.615633	1.228149	0.305557
O199	O	0.274277	0.278682	-0.279792
O200	O	0.774277	0.778682	0.220208
C201	C	0.231164	0.234294	-0.235594
C202	C	0.731164	0.734294	0.264406
H203	H	0.184276	0.266431	-0.232839
H204	H	0.684276	0.766431	0.267161
H205	H	0.224238	0.174711	-0.264447
H206	H	0.724238	0.674711	0.235553
C207	C	0.314353	0.183409	-0.155442
C208	C	0.814353	0.683409	0.344558
C209	C	0.256766	0.222884	-0.152053
C210	C	0.756766	0.722884	0.347947
H211	H	0.330145	0.176367	-0.103911
H212	H	0.830145	0.676367	0.396089
H213	H	0.343399	0.213312	-0.185221
H214	H	0.843399	0.713312	0.314779
H215	H	0.308573	0.133761	-0.179490
H216	H	0.808573	0.633761	0.320510
H217	H	0.262548	0.272534	-0.128014
H218	H	0.762548	0.772534	0.371986
H219	H	0.227720	0.192989	-0.122268
H220	H	0.727720	0.692989	0.377732
H221	H	0.982809	0.929449	-0.287679
H222	H	1.482809	1.429449	0.212321
H223	H	0.982779	0.825322	-0.287661
H224	H	1.482779	1.325322	0.212339
O225	O	0.830389	0.278794	-1.086223
O226	O	1.330389	0.778794	-0.586223
C227	C	0.789727	0.323487	-1.133616
C228	C	1.289727	0.823487	-0.633616
H229	H	0.785819	0.385319	-1.108893
H230	H	1.285819	0.885319	-0.608893
H231	H	0.809190	0.326167	-1.195761
H232	H	1.309190	0.826167	-0.695761
C233	C	0.729100	0.209218	-1.165197
C234	C	1.229100	0.709218	-0.665197
C235	C	0.724296	0.285159	-1.134829
C236	C	1.224296	0.785159	-0.634829
H237	H	0.688740	0.185575	-1.165949
H238	H	1.188740	0.685575	-0.665949
H239	H	0.756496	0.179106	-1.133271
H240	H	1.256496	0.679106	-0.633271
H241	H	0.745322	0.211462	-1.216982
H242	H	1.245322	0.711462	-0.716982
H243	H	0.708082	0.282914	-1.083042
H244	H	1.208082	0.782914	-0.583042
H245	H	0.696896	0.315270	-1.166747
H246	H	1.196896	0.815270	-0.666747
O247	O	0.989145	0.476653	-0.924748
O248	O	1.489145	0.976653	-0.424748
C249	C	1.024656	0.520954	-0.978514
C250	C	1.524656	1.020954	-0.478514
H251	H	1.026862	0.488785	-1.036959
H252	H	1.526862	0.988785	-0.536959
H253	H	1.001579	0.580572	-0.987209
H254	H	1.501579	1.080572	-0.487209
C255	C	1.088933	0.571776	-0.874766
C256	C	1.588933	1.071776	-0.374766
C257	C	1.091646	0.532262	-0.946548
C258	C	1.591646	1.032262	-0.446548
H259	H	1.130254	0.578755	-0.855047
H260	H	1.630254	1.078755	-0.355047
H261	H	1.065006	0.541932	-0.838542
H262	H	1.565006	1.041932	-0.338542
H263	H	1.069699	0.621454	-0.882022
H264	H	1.569699	1.121454	-0.382022
H265	H	1.110872	0.482582	-0.939290
H266	H	1.610872	0.982582	-0.439290
H267	H	1.115577	0.562098	-0.982770
H268	H	1.615577	1.062098	-0.482770
H269	H	0.982791	0.468694	-1.079799
H270	H	1.482791	0.968694	-0.579799
O271	O	0.144679	0.278763	-0.279928
O272	O	0.644679	0.778763	0.220072
C273	C	0.079606	0.289519	-0.290705
C274	C	0.579606	0.789519	0.209295
H275	H	0.070609	0.350118	-0.316338
H276	H	0.570609	0.850118	0.183662
H277	H	0.061005	0.242991	-0.332571
H278	H	0.561005	0.742991	0.167429
C279	C	0.056858	0.207834	-0.179815
C280	C	0.556858	0.707834	0.320185
C281	C	0.045806	0.282265	-0.211292
C282	C	0.545806	0.782265	0.288708
H283	H	0.036007	0.203355	-0.130831
H284	H	0.536007	0.703355	0.369169
H285	H	0.100698	0.200584	-0.172556
H286	H	0.600698	0.700584	0.327444
H287	H	0.041356	0.169068	-0.214711
H288	H	0.541356	0.669068	0.285289
H289	H	0.061315	0.321028	-0.176401
H290	H	0.561315	0.821028	0.323599
H291	H	0.001967	0.289521	-0.218544
H292	H	0.501967	0.789521	0.281456
H293	H	0.982861	1.078179	-0.287720
H294	H	1.482861	1.578179	0.212280
O295	O	0.545721	0.477030	-0.477356
O296	O	1.045721	0.977030	0.022644
C297	C	0.588830	0.521394	-0.521584
C298	C	1.088830	1.021394	-0.021584
H299	H	0.635666	0.524088	-0.489408
H300	H	1.135666	1.024088	0.010592
H301	H	0.595891	0.492723	-0.581248
H302	H	1.095891	0.992723	-0.081248
C303	C	0.505592	0.601634	-0.572285
C304	C	1.005592	1.101634	-0.072285
C305	C	0.563115	0.604949	-0.532762
C306	C	1.063115	1.104949	-0.032762
H307	H	0.489730	0.653174	-0.579183
H308	H	0.989730	1.153174	-0.079183
H309	H	0.476548	0.571744	-0.542490
H310	H	0.976548	1.071744	-0.042490
H311	H	0.511484	0.577738	-0.622000
H312	H	1.011484	1.077738	-0.122000
H313	H	0.557222	0.628835	-0.483044
H314	H	1.057222	1.128835	0.016956
H315	H	0.592159	0.634845	-0.562549
H316	H	1.092159	1.134845	-0.062549
H317	H	0.836568	0.676669	-0.469562
H318	H	1.336568	1.176669	0.030438
H319	H	0.836705	1.078247	-0.469667
H320	H	1.336705	1.578247	0.030333
H321	H	0.836647	0.929520	-0.469625
H322	H	1.336647	1.429520	0.030375
O323	O	0.830374	0.831926	-0.477515
O324	O	1.330374	1.331926	0.022485
C325	C	0.866203	0.879248	-0.528293
C326	C	1.366203	1.379248	-0.028293
H327	H	0.913926	0.891484	-0.500686
H328	H	1.413926	1.391484	-0.000686
H329	H	0.873081	0.847604	-0.586470
H330	H	1.373081	1.347604	-0.086470
C331	C	0.772971	0.942127	-0.576376
C332	C	1.272971	1.442127	-0.076376
C333	C	0.831583	0.957161	-0.542465
C334	C	1.331583	1.457161	-0.042465
H335	H	0.751615	0.990187	-0.585121
H336	H	1.251615	1.490187	-0.085121
H337	H	0.748832	0.910244	-0.542168
H338	H	1.248832	1.410244	-0.042168
H339	H	0.778711	0.915755	-0.624852
H340	H	1.278711	1.415755	-0.124852
H341	H	0.825842	0.983524	-0.493985
H342	H	1.325842	1.483524	0.006015
H343	H	0.855720	0.989051	-0.576665
H344	H	1.355720	1.489051	-0.076665
H345	H	0.836729	0.286666	-0.678185
H346	H	1.336729	0.786666	-0.178185
O347	O	0.274293	0.476917	-0.477527
O348	O	0.774293	0.976917	0.022473
C349	C	0.231186	0.521280	-0.521767
C350	C	0.731186	1.021280	-0.021767
H351	H	0.184349	0.489119	-0.524561
H352	H	0.684349	0.989119	-0.024561
H353	H	0.224128	0.580861	-0.492925
H354	H	0.724128	1.080861	0.007075
C355	C	0.314429	0.572200	-0.601850
C356	C	0.814429	1.072200	-0.101850
C357	C	0.256904	0.532696	-0.605287
C358	C	0.756904	1.032696	-0.105287
H359	H	0.330293	0.579245	-0.653368
H360	H	0.830293	1.079245	-0.153368
H361	H	0.343471	0.542314	-0.572043
H362	H	0.843471	1.042314	-0.072043
H363	H	0.308539	0.621847	-0.577812
H364	H	0.808539	1.121847	-0.077812
H365	H	0.262796	0.483046	-0.629316
H366	H	0.762796	0.983046	-0.129316
H367	H	0.227863	0.562574	-0.635100
H368	H	0.727863	1.062574	-0.135100
H369	H	0.550775	0.286672	-0.287623
H370	H	1.050775	0.786672	0.212377
H371	H	0.670046	0.286689	-0.287570
H372	H	1.170046	0.786689	0.212430
H373	H	0.836767	0.286601	-0.931032
H374	H	1.336767	0.786601	-0.431032
H375	H	0.982743	0.468765	-0.826953
H376	H	1.482743	0.968765	-0.326953
H377	H	0.982729	0.468798	-0.678221
H378	H	1.482729	0.968798	-0.178221
