data_functionalizedCrystal
_audit_creation_method	'MofGen! by Chris Wilmer'
_symmetry_space_group_name_H-M	'P1'
_symmetry_Int_Tables_number	1
_symmetry_cell_setting	triclinic
loop_
_symmetry_equiv_pos_as_xyz
  x,y,z
_cell_length_a	19.188933
_cell_length_b	19.188930
_cell_length_c	17.666332
_cell_angle_alpha	89.988397
_cell_angle_beta	89.992061
_cell_angle_gamma	83.145175
loop_
_atom_site_label
_atom_site_type_symbol
_atom_site_fract_x
_atom_site_fract_y
_atom_site_fract_z
O1	O	0.926149	0.087175	-0.062932
O2	O	1.259482	0.420509	0.270402
O3	O	1.592815	0.753842	0.603735
O4	O	0.722838	0.098908	-0.062940
O5	O	1.056171	0.432241	0.270394
O6	O	1.389504	0.765575	0.603727
O7	O	0.830360	-0.008614	-0.062921
O8	O	1.163694	0.324719	0.270413
O9	O	1.497027	0.658053	0.603746
O10	O	0.818626	0.194697	-0.062951
O11	O	1.151959	0.528031	0.270383
O12	O	1.485293	0.861364	0.603716
O13	O	0.830341	-0.008620	0.062976
O14	O	1.163675	0.324714	0.396309
O15	O	1.497008	0.658047	0.729643
O16	O	0.722819	0.098902	0.062957
O17	O	1.056152	0.432236	0.396290
O18	O	1.389485	0.765569	0.729624
O19	O	0.926130	0.087170	0.062965
O20	O	1.259463	0.420503	0.396299
O21	O	1.592797	0.753836	0.729632
Cu22	Cu	0.824473	0.093035	0.074456
Cu23	Cu	1.157806	0.426369	0.407790
Cu24	Cu	1.491139	0.759702	0.741123
Cu25	Cu	0.824495	0.093042	-0.074431
Cu26	Cu	1.157828	0.426375	0.258902
Cu27	Cu	1.491162	0.759709	0.592236
O28	O	0.818607	0.194692	0.062946
O29	O	1.151941	0.528025	0.396279
O30	O	1.485274	0.861358	0.729613
C31	C	0.696817	0.098525	0.000008
C32	C	1.030151	0.431858	0.333341
C33	C	1.363484	0.765192	0.666674
C34	C	0.619313	0.097384	0.000005
C35	C	0.952646	0.430717	0.333339
C36	C	1.285979	0.764050	0.666672
C37	C	0.066068	0.089242	-0.068612
C38	C	0.399401	0.422575	0.264722
C39	C	0.732734	0.755908	0.598055
C40	C	0.138892	0.090310	-0.068615
C41	C	0.472225	0.423643	0.264719
C42	C	0.805559	0.756976	0.598052
C43	C	0.175299	0.090844	0.000011
C44	C	0.508632	0.424177	0.333345
C45	C	0.841965	0.757511	0.666678
C46	C	0.138877	0.090292	0.068645
C47	C	0.472211	0.423625	0.401979
C48	C	0.805544	0.756959	0.735312
C49	C	0.066056	0.089217	0.068647
C50	C	0.399389	0.422550	0.401980
C51	C	0.732722	0.755884	0.735313
N52	N	0.284311	0.132260	0.051087
N53	N	0.617644	0.465594	0.384420
N54	N	0.950978	0.798927	0.717753
N55	N	0.353489	0.133283	0.051081
N56	N	0.686822	0.466616	0.384414
N57	N	1.020155	0.799950	0.717748
C58	C	0.394707	0.094082	0.000012
C59	C	0.728041	0.427415	0.333345
C60	C	1.061374	0.760749	0.666679
N61	N	0.364134	0.053828	-0.051062
N62	N	0.697467	0.387161	0.282271
N63	N	1.030800	0.720495	0.615604
N64	N	0.294949	0.052808	-0.051059
N65	N	0.628283	0.386142	0.282274
N66	N	0.961616	0.719475	0.615608
C67	C	0.254262	0.092009	0.000018
C68	C	0.587595	0.425343	0.333351
C69	C	0.920929	0.758676	0.666684
C70	C	0.510085	0.095787	-0.068621
C71	C	0.843418	0.429120	0.264712
C72	C	1.176751	0.762454	0.598046
C73	C	0.582911	0.096851	-0.068621
C74	C	0.916244	0.430184	0.264712
C75	C	1.249578	0.763517	0.598045
C76	C	0.582894	0.096840	0.068641
C77	C	0.916227	0.430173	0.401974
C78	C	1.249561	0.763507	0.735307
C79	C	0.510070	0.095769	0.068639
C80	C	0.843404	0.429103	0.401972
C81	C	1.176737	0.762436	0.735306
C82	C	0.473669	0.095246	0.000006
C83	C	0.807003	0.428579	0.333339
C84	C	1.140336	0.761913	0.666673
C85	C	0.829971	-0.034628	0.000030
C86	C	1.163304	0.298706	0.333363
C87	C	1.496638	0.632039	0.666697
C88	C	0.828830	-0.112132	0.000036
C89	C	1.162163	0.221201	0.333370
C90	C	1.495497	0.554534	0.666703
C91	C	0.891921	-0.157056	0.000043
C92	C	1.225254	0.176278	0.333376
C93	C	1.558588	0.509611	0.666709
C94	C	0.890849	-0.229880	0.000030
C95	C	1.224183	0.103454	0.333364
C96	C	1.557516	0.436787	0.666697
C97	C	0.826683	-0.257777	0.000027
C98	C	1.160017	0.075557	0.333361
C99	C	1.493350	0.408890	0.666694
C100	C	0.763584	-0.212843	0.000017
C101	C	1.096917	0.120490	0.333350
C102	C	1.430251	0.453823	0.666683
C103	C	0.764658	-0.140021	0.000021
C104	C	1.097991	0.193312	0.333355
C105	C	1.431324	0.526646	0.666688
N106	N	0.777630	-0.365784	0.042870
N107	N	1.110963	-0.032451	0.376204
N108	N	1.444296	0.300883	0.709537
N109	N	0.776614	-0.434963	0.042868
N110	N	1.109947	-0.101629	0.376201
N111	N	1.443281	0.231704	0.709534
C112	C	0.823445	-0.477185	0.000012
C113	C	1.156778	-0.143852	0.333345
C114	C	1.490112	0.189481	0.666678
N115	N	0.871341	-0.447618	-0.042832
N116	N	1.204674	-0.114284	0.290502
N117	N	1.538007	0.219049	0.623835
N118	N	0.872358	-0.378433	-0.042826
N119	N	1.205691	-0.045100	0.290508
N120	N	1.539025	0.288234	0.623841
C121	C	0.825512	-0.336739	0.000022
C122	C	1.158845	-0.003406	0.333355
C123	C	1.492179	0.329927	0.666688
C124	C	0.885378	-0.601073	0.000004
C125	C	1.218712	-0.267740	0.333337
C126	C	1.552045	0.065593	0.666670
C127	C	0.884304	-0.673898	-0.000013
C128	C	1.217637	-0.340565	0.333320
C129	C	1.550971	-0.007231	0.666653
C130	C	0.757037	-0.656860	-0.000019
C131	C	1.090370	-0.323527	0.333314
C132	C	1.423704	0.009807	0.666648
C133	C	0.758113	-0.584037	-0.000010
C134	C	1.091446	-0.250704	0.333323
C135	C	1.424780	0.082630	0.666657
C136	C	0.822286	-0.556148	0.000005
C137	C	1.155619	-0.222815	0.333338
C138	C	1.488952	0.110518	0.666672
C139	C	0.952150	0.087553	0.000016
C140	C	1.285484	0.420886	0.333349
C141	C	1.618817	0.754219	0.666683
C142	C	1.029655	0.088694	0.000013
C143	C	1.362988	0.422027	0.333347
C144	C	1.696321	0.755360	0.666680
C145	C	0.818997	0.220705	-0.000006
C146	C	1.152330	0.554039	0.333327
C147	C	1.485663	0.887372	0.666661
C148	C	0.820137	0.298210	-0.000018
C149	C	1.153471	0.631543	0.333316
C150	C	1.486804	0.964877	0.666649
N151	N	0.824462	0.093030	0.179176
N152	N	1.157795	0.426364	0.512509
N153	N	1.491129	0.759697	0.845843
N154	N	0.824511	0.093042	-0.179150
N155	N	1.157844	0.426375	0.154183
N156	N	1.491178	0.759708	0.487516
C157	C	0.872088	0.045443	0.218794
C158	C	1.205422	0.378776	0.552127
C159	C	1.538755	0.712109	0.885461
C160	C	0.872093	0.045439	0.298042
C161	C	1.205426	0.378773	0.631375
C162	C	1.538759	0.712106	0.964708
C163	C	0.824477	0.093036	0.337668
C164	C	1.157810	0.426369	0.671001
C165	C	1.491144	0.759702	1.004335
C166	C	0.776842	0.140627	0.298040
C167	C	1.110175	0.473960	0.631374
C168	C	1.443508	0.807293	0.964707
C169	C	0.776834	0.140624	0.218794
C170	C	1.110168	0.473957	0.552128
C171	C	1.443501	0.807291	0.885461
N172	N	0.815401	0.154843	0.462077
N173	N	1.148734	0.488176	0.795411
N174	N	1.482067	0.821510	1.128744
N175	N	0.815412	0.154843	0.537358
N176	N	1.148745	0.488176	0.870691
N177	N	1.482079	0.821510	1.204024
C178	C	0.824495	0.093045	0.576432
C179	C	1.157829	0.426379	0.909765
C180	C	1.491162	0.759712	1.243099
N181	N	0.833581	0.031245	0.537382
N182	N	1.166914	0.364578	0.870715
N183	N	1.500247	0.697912	1.204049
N184	N	0.833573	0.031245	0.462095
N185	N	1.166906	0.364579	0.795428
N186	N	1.500240	0.697912	1.128761
C187	C	0.824479	0.093043	0.423597
C188	C	1.157813	0.426377	0.756930
C189	C	1.491146	0.759710	1.090264
C190	C	0.872129	0.045450	0.701980
C191	C	1.205462	0.378783	1.035313
C192	C	1.538795	0.712117	1.368646
C193	C	0.872128	0.045446	0.781229
C194	C	1.205461	0.378779	1.114562
C195	C	1.538795	0.712113	1.447895
C196	C	0.776880	0.140639	0.781226
C197	C	1.110214	0.473973	1.114559
C198	C	1.443547	0.807306	1.447892
C199	C	0.776878	0.140638	0.701978
C200	C	1.110211	0.473971	1.035312
C201	C	1.443544	0.807304	1.368645
C202	C	0.824506	0.093044	0.662360
C203	C	1.157839	0.426377	0.995693
C204	C	1.491172	0.759710	1.329027
H205	H	0.036435	0.088813	-0.124498
H206	H	0.369768	0.422146	0.208835
H207	H	0.703102	0.755480	0.542169
H208	H	0.480422	0.095326	0.124521
H209	H	0.813756	0.428659	0.457854
H210	H	1.147089	0.761992	0.791188
H211	H	0.713280	-0.103444	0.000017
H212	H	1.046613	0.229890	0.333350
H213	H	1.379946	0.563223	0.666683
H214	H	0.612536	0.097272	0.124517
H215	H	0.945869	0.430606	0.457851
H216	H	1.279203	0.763939	0.791184
Cl217	Cl	0.972595	-0.121999	0.000040
Cl218	Cl	1.305928	0.211334	0.333373
Cl219	Cl	1.639262	0.544667	0.666707
Cl220	Cl	0.682918	-0.247913	0.000007
Cl221	Cl	1.016252	0.085421	0.333340
Cl222	Cl	1.349585	0.418754	0.666673
H223	H	0.937631	-0.578365	0.000012
H224	H	1.270965	-0.245032	0.333346
H225	H	1.604298	0.088301	0.666679
Cl226	Cl	0.963626	-0.730375	-0.000011
Cl227	Cl	1.296959	-0.397042	0.333323
Cl228	Cl	1.630293	-0.063709	0.666656
Cl229	Cl	0.932000	-0.014385	0.652172
Cl230	Cl	1.265333	0.318948	0.985506
Cl231	Cl	1.598666	0.652281	1.318839
Cl232	Cl	0.970169	-0.286365	0.000037
Cl233	Cl	1.303503	0.046968	0.333371
Cl234	Cl	1.636836	0.380301	0.666704
Cl235	Cl	0.678794	-0.527558	-0.000014
Cl236	Cl	1.012128	-0.194225	0.333319
Cl237	Cl	1.345461	0.139108	0.666653
H238	H	0.910868	0.006687	0.186539
H239	H	1.244202	0.340021	0.519872
H240	H	1.577535	0.673354	0.853206
Cl241	Cl	0.931972	-0.014390	0.347856
Cl242	Cl	1.265305	0.318943	0.681189
Cl243	Cl	1.598638	0.652277	1.014522
H244	H	0.036408	0.088773	0.124531
H245	H	0.369742	0.422107	0.457865
H246	H	0.703075	0.755440	0.791198
H247	H	0.612558	0.097292	-0.124507
H248	H	0.945891	0.430625	0.208827
H249	H	1.279224	0.763958	0.542160
Cl250	Cl	0.716979	0.200459	0.347854
Cl251	Cl	1.050312	0.533793	0.681188
Cl252	Cl	1.383645	0.867126	1.014521
Cl253	Cl	0.676370	-0.691924	-0.000027
Cl254	Cl	1.009703	-0.358590	0.333306
Cl255	Cl	1.343037	-0.025257	0.666639
Cl256	Cl	0.716957	0.200454	0.168985
Cl257	Cl	1.050290	0.533787	0.502318
Cl258	Cl	1.383624	0.867121	0.835652
Cl259	Cl	0.932002	-0.014388	0.831038
Cl260	Cl	1.265335	0.318946	1.164371
Cl261	Cl	1.598668	0.652279	1.497704
Cl262	Cl	0.184645	0.090961	0.154918
Cl263	Cl	0.517979	0.424294	0.488252
Cl264	Cl	0.851312	0.757627	0.821585
Cl265	Cl	0.464321	0.095124	-0.154901
Cl266	Cl	0.797654	0.428457	0.178433
Cl267	Cl	1.130988	0.761791	0.511766
Cl268	Cl	0.717015	0.200470	0.831036
Cl269	Cl	1.050349	0.533803	1.164369
Cl270	Cl	1.383682	0.867136	1.497703
Cl271	Cl	0.717005	0.200468	0.652168
Cl272	Cl	1.050339	0.533802	0.985501
Cl273	Cl	1.383672	0.867135	1.318834
H274	H	0.168545	0.090760	-0.124499
H275	H	0.501878	0.424093	0.208834
H276	H	0.835211	0.757426	0.542167
