data_functionalizedCrystal
_audit_creation_method	'MofGen! by Chris Wilmer'
_symmetry_space_group_name_H-M	'P1'
_symmetry_Int_Tables_number	1
_symmetry_cell_setting	triclinic
loop_
_symmetry_equiv_pos_as_xyz
  x,y,z
_cell_length_a	6.817900
_cell_length_b	7.190334
_cell_length_c	19.453103
_cell_angle_alpha	88.400661
_cell_angle_beta	78.290822
_cell_angle_gamma	119.388224
loop_
_atom_site_label
_atom_site_type_symbol
_atom_site_fract_x
_atom_site_fract_y
_atom_site_fract_z
V1	V	4.214586	0.665981	-0.096059
O2	O	4.207232	0.652283	0.005769
O3	O	4.156443	0.662407	-0.191578
O4	O	4.251923	0.955990	-0.094076
O5	O	4.111091	0.356667	-0.092408
V6	V	4.688367	0.628865	-0.083939
O7	O	4.497215	0.747397	-0.122646
O8	O	4.855936	0.547449	-0.057353
O9	O	4.523303	0.632439	0.011580
O10	O	4.813118	0.642563	-0.185767
O11	O	4.909259	0.938178	-0.087590
O12	O	4.427823	0.338856	-0.085923
C13	C	3.996300	0.652154	-0.214879
C14	C	4.030620	0.651165	-0.292964
C15	C	4.118105	1.026646	-0.090502
C16	C	4.231951	1.268192	-0.089493
C17	C	4.231670	0.661366	-0.333202
C18	C	4.263928	0.660458	-0.406572
C19	C	4.095103	0.649307	-0.439699
C20	C	3.894030	0.639117	-0.399452
C21	C	3.861789	0.640046	-0.326084
N22	N	3.947478	0.517871	-0.546185
N23	N	3.978117	0.516985	-0.615881
C24	C	4.192236	0.646511	-0.660751
N25	N	4.374578	0.776932	-0.633291
N26	N	4.343937	0.777809	-0.563588
C27	C	4.130044	0.648299	-0.519253
C28	C	4.428279	0.655731	-0.780545
C29	C	4.460537	0.654837	-0.853917
C30	C	4.090622	0.633473	-0.846794
C31	C	4.058381	0.634390	-0.773425
C32	C	4.227212	0.645509	-0.740305
C33	C	4.346787	0.642686	0.034877
C34	C	4.291709	0.643689	0.112961
H35	H	4.369156	0.670434	-0.306241
C36	C	3.640619	0.628808	-0.281817
H37	H	3.645602	0.630965	-0.233378
H38	H	3.507839	0.499255	-0.286173
H39	H	3.631995	0.749305	-0.298581
C40	C	3.904902	0.621184	-0.883223
H41	H	3.952887	0.622073	-0.932681
H42	H	3.885674	0.741953	-0.875944
H43	H	3.761561	0.491906	-0.863528
C44	C	3.837205	0.623135	-0.729159
H45	H	3.741266	0.616346	-0.759393
H46	H	3.879001	0.748066	-0.706594
H47	H	3.754867	0.498017	-0.694186
C48	C	4.485086	0.671662	-0.450842
H49	H	4.581008	0.678404	-0.420608
H50	H	4.567435	0.796753	-0.485820
H51	H	4.443243	0.546701	-0.473400
H52	H	3.756576	0.630042	-0.426428
H53	H	4.565750	0.664781	-0.753577
H54	H	4.624267	0.663158	-0.886679
