data_functionalizedCrystal
_audit_creation_method	'MofGen! by Chris Wilmer'
_symmetry_space_group_name_H-M	'P1'
_symmetry_Int_Tables_number	1
_symmetry_cell_setting	triclinic
loop_
_symmetry_equiv_pos_as_xyz
  x,y,z
_cell_length_a	31.640172
_cell_length_b	14.446369
_cell_length_c	31.640172
_cell_angle_alpha	59.998712
_cell_angle_beta	90.014226
_cell_angle_gamma	59.999358
loop_
_atom_site_label
_atom_site_type_symbol
_atom_site_fract_x
_atom_site_fract_y
_atom_site_fract_z
Zr1	Zr	0.407172	1.013147	-0.055435
O2	O	0.339667	1.206306	-0.122939
O3	O	0.427866	0.820015	-0.034739
O4	O	0.427845	1.013162	-0.122923
O5	O	0.339705	1.013137	0.034803
O6	O	0.497402	1.013143	-0.122913
O7	O	0.339688	1.013159	-0.034755
O8	O	0.497440	0.667639	0.034831
O9	O	0.339667	1.358642	-0.122942
O10	O	0.488602	0.899429	-0.025909
O11	O	0.436705	0.899427	0.025994
O12	O	0.436680	1.126832	-0.077831
O13	O	0.384783	1.126830	-0.025927
Zr14	Zr	0.518135	1.013081	0.055516
Zr15	Zr	0.518108	1.013116	-0.055420
Zr16	Zr	0.407200	1.013112	0.055501
Zr17	Zr	0.407173	1.256105	-0.055440
Zr18	Zr	0.518134	0.770123	0.055521
O19	O	0.497442	1.206213	0.034820
O20	O	0.497402	1.206262	-0.122917
O21	O	0.339706	1.206256	0.034799
O22	O	0.585641	0.819922	0.123019
O23	O	0.585602	0.819972	-0.034718
O24	O	0.427905	0.819966	0.122998
O25	O	0.585603	1.013091	-0.034722
O26	O	0.497463	1.013066	0.123004
O27	O	0.427906	1.013085	0.122994
O28	O	0.585620	1.013069	0.034836
O29	O	0.427846	1.358617	-0.122930
O30	O	0.497462	0.667611	0.123011
O31	O	0.585641	0.667586	0.123023
O32	O	0.585619	0.667614	0.034843
O33	O	0.339689	1.358614	-0.034762
O34	O	0.427868	1.358589	-0.034750
O35	O	0.488628	0.899396	0.077911
O36	O	0.540524	0.899398	0.026008
O37	O	0.488603	1.126801	-0.025914
O38	O	0.436706	1.126799	0.025990
C39	C	0.462653	0.709211	0.000047
C40	C	0.462652	0.606069	0.000049
C41	C	0.430078	0.459058	0.032934
C42	C	0.429901	0.566678	0.032801
C43	C	0.438755	0.655089	-0.056364
C44	C	0.438510	0.547856	-0.056193
C45	C	0.519147	0.372588	0.023091
C46	C	0.519064	0.478738	0.024242
C47	C	0.323891	1.013152	0.000022
C48	C	0.276796	1.013165	0.000016
C49	C	0.011892	0.894399	0.027154
C50	C	-0.165093	0.894377	0.027164
O51	O	-0.164929	0.793424	0.050232
N52	N	-0.214325	1.013078	0.000060
C53	C	-0.219311	1.131794	-0.027045
O54	O	-0.265247	1.232756	-0.050093
C55	C	-0.042326	1.131815	-0.027051
C56	C	0.006906	1.013106	0.000049
C57	C	0.061122	0.775700	0.054253
C58	C	0.105365	0.775707	0.054247
C59	C	0.100379	0.894413	0.027143
C60	C	0.051149	1.013113	0.000044
C61	C	-0.047312	1.250529	-0.054153
C62	C	-0.003060	1.250524	-0.054151
C63	C	0.046171	1.131815	-0.027051
C64	C	0.090406	1.131826	-0.027065
N65	N	0.139639	1.013124	0.000038
C66	C	0.144625	0.894418	0.027142
C67	C	-0.312228	1.131774	-0.027040
C68	C	-0.356474	1.131769	-0.027039
C69	C	-0.302253	0.894352	0.027170
C70	C	-0.258007	0.894358	0.027166
C71	C	-0.262996	1.013073	0.000063
C72	C	0.237537	0.894441	0.027129
C73	C	0.281782	0.894459	0.027120
C74	C	0.227557	1.131876	-0.027087
C75	C	0.183316	1.131859	-0.027080
C76	C	0.188310	1.013131	0.000032
O77	O	0.090282	1.232726	-0.050117
O78	O	0.190565	0.793471	0.050197
C79	C	-0.032351	0.894392	0.027159
C80	C	-0.081581	1.013092	0.000060
C81	C	-0.086567	1.131798	-0.027045
C82	C	-0.125827	1.013087	0.000060
C83	C	-0.120841	0.894381	0.027165
C84	C	-0.071608	0.775679	0.054268
C85	C	-0.027365	0.775686	0.054263
C86	C	-0.135799	1.250500	-0.054148
C87	C	-0.180041	1.250483	-0.054141
C88	C	-0.175054	1.131777	-0.027037
C89	C	0.601417	1.013076	0.000059
C90	C	0.648512	1.013063	0.000065
C91	C	0.462619	1.013158	-0.138724
C92	C	0.462607	1.013172	-0.185820
C93	C	0.462655	1.317017	0.000034
C94	C	0.462656	1.420159	0.000032
C95	C	0.424337	1.013098	-0.522097
C96	C	0.424311	1.013138	-0.345116
O97	O	0.391731	1.013100	-0.322228
N98	N	0.462629	1.013133	-0.322977
C99	C	0.500957	1.013109	-0.345083
O100	O	0.533551	1.013092	-0.322189
C101	C	0.500984	1.013060	-0.522062
C102	C	0.462662	1.013078	-0.544202
C103	C	0.386018	1.013115	-0.544237
C104	C	0.386023	1.013112	-0.588481
C105	C	0.424347	1.013093	-0.610585
C106	C	0.462667	1.013075	-0.588446
C107	C	0.539315	1.013027	-0.544165
C108	C	0.539319	1.013011	-0.588412
C109	C	0.500996	1.013029	-0.610552
C110	C	0.500997	1.013053	-0.654795
N111	N	0.462679	1.013058	-0.676934
C112	C	0.424355	1.013078	-0.654829
C113	C	0.500939	1.013138	-0.252168
C114	C	0.500932	1.013153	-0.207924
C115	C	0.424287	1.013179	-0.207959
C116	C	0.424292	1.013174	-0.252206
C117	C	0.462622	1.013143	-0.274307
C118	C	0.424368	1.013073	-0.747746
C119	C	0.424376	1.013075	-0.791995
C120	C	0.501022	1.013042	-0.791955
C121	C	0.501014	1.013046	-0.747711
C122	C	0.462684	1.013057	-0.725606
O123	O	0.533563	1.013076	-0.677706
O124	O	0.391773	1.013066	-0.677725
C125	C	0.424332	1.013101	-0.477853
C126	C	0.462651	1.013084	-0.455713
C127	C	0.500976	1.013064	-0.477818
C128	C	0.462644	1.013099	-0.411469
C129	C	0.424319	1.013119	-0.389365
C130	C	0.386002	1.013124	-0.411504
C131	C	0.386007	1.013121	-0.455748
C132	C	0.539293	1.013059	-0.455678
C133	C	0.539284	1.013063	-0.411434
C134	C	0.500960	1.013083	-0.389330
C135	C	0.462689	1.013070	0.138805
C136	C	0.462700	1.013055	0.185900
C137	C	0.601416	0.709172	0.000065
C138	C	0.648511	0.606017	0.000074
C139	C	0.462687	0.709167	0.138811
C140	C	0.462699	0.606010	0.185909
C141	C	0.601451	0.709129	0.138830
C142	C	0.648557	0.605959	0.185934
C143	C	0.323857	1.317099	-0.138749
C144	C	0.276751	1.420269	-0.185853
C145	C	0.323892	1.317056	0.000016
C146	C	0.276797	1.420211	0.000007
C147	C	0.462620	1.317061	-0.138731
C148	C	0.462609	1.420218	-0.185828
C149	C	0.643524	0.557591	-0.027027
C150	C	0.687770	0.460679	-0.027030
C151	C	0.737002	0.412189	0.000072
C152	C	0.741988	0.460625	0.027174
C153	C	0.697743	0.557542	0.027173
C154	C	0.489807	0.557551	0.235131
C155	C	0.489816	0.460637	0.279389
C156	C	0.462719	0.412179	0.274423
C157	C	0.435607	0.460648	0.225195
C158	C	0.435596	0.557566	0.180939
C159	C	0.697773	0.557510	0.180961
C160	C	0.742038	0.460585	0.225216
C161	C	0.737087	0.412103	0.274443
C162	C	0.687866	0.460561	0.279414
C163	C	0.643602	0.557491	0.235160
C164	C	0.227535	1.468730	-0.180880
C165	C	0.183269	1.565685	-0.225135
C166	C	0.188221	1.614172	-0.274362
C167	C	0.237442	1.565708	-0.279333
C168	C	0.281706	1.468760	-0.235079
C169	C	0.281784	1.468647	0.027103
C170	C	0.237538	1.565586	0.027094
C171	C	0.188305	1.614079	-0.000010
C172	C	0.183319	1.565638	-0.027109
C173	C	0.227565	1.468708	-0.027102
C174	C	0.489711	1.468646	-0.180845
C175	C	0.489711	1.565560	-0.225094
C176	C	0.462605	1.614051	-0.274325
C177	C	0.435502	1.565613	-0.279307
C178	C	0.435505	1.468694	-0.235059
H179	H	0.446024	0.370172	0.074578
H180	H	0.603440	0.597070	-0.049103
Br181	Br	0.456695	0.505390	0.102033
H182	H	-0.316299	1.228451	-0.049114
Br183	Br	0.361046	0.518588	0.006542
H184	H	0.461343	0.683876	-0.081939
H185	H	0.511780	1.604987	-0.221028
H186	H	0.532133	1.013158	-0.189905
H187	H	0.143229	1.228522	-0.049155
Br188	Br	0.680991	0.394962	-0.063812
H189	H	0.354819	1.013122	-0.606503
H190	H	0.773026	0.333272	0.000069
Br191	Br	0.348497	1.402998	-0.241837
H192	H	0.701810	0.596958	0.049245
H193	H	0.241610	0.797762	0.049207
H194	H	0.782079	0.421131	0.049239
H195	H	0.511873	0.596995	0.239185
H196	H	0.782112	0.421140	0.221159
Br197	Br	0.704507	0.623293	0.114159
Br198	Br	0.398715	1.402993	-0.241830
Br199	Br	0.334000	1.013139	-0.514244
H200	H	0.570533	1.012982	-0.606404
Br201	Br	0.116476	1.631435	-0.218376
Br202	Br	0.372361	1.013108	-0.822042
H203	H	0.143228	1.605136	-0.049176
H204	H	0.388232	0.655495	0.016815
H205	H	0.511895	0.421185	0.319467
H206	H	0.532215	1.013050	-0.729688
Br207	Br	0.681155	0.394751	0.346226
Br208	Br	0.172175	0.614592	0.091033
Br209	Br	0.553031	1.013020	-0.821962
H210	H	0.413522	0.597009	0.140861
Br211	Br	0.526502	1.402859	-0.114037
Br212	Br	-0.064850	0.614579	0.091049
Br213	Br	0.559793	0.329302	-0.016662
Br214	Br	0.348596	0.733343	0.063900
Br215	Br	0.462604	1.745587	-0.334372
H216	H	0.462732	0.333262	0.310463
Br217	Br	0.128262	1.745629	-0.000014
Br218	Br	0.244317	1.631303	0.063876
H219	H	0.413432	1.605110	-0.319397
H220	H	0.396940	0.588572	-0.074652
H221	H	0.223497	1.429274	-0.049166
H222	H	0.460705	0.525890	-0.082040
H223	H	0.223494	1.429257	-0.140801
Br224	Br	0.370131	0.808970	-0.087344
Br225	Br	0.128141	1.745745	-0.334417
H226	H	0.773134	0.333176	0.310473
Br227	Br	0.548822	0.412695	0.093512
Br228	Br	0.244152	1.631523	-0.346146
Br229	Br	0.552411	0.216353	0.091275
H230	H	0.393087	1.013188	-0.270229
H231	H	0.321868	1.429172	0.049178
H232	H	0.545383	0.500240	0.002771
Br233	Br	0.591310	1.013030	-0.485672
Br234	Br	-0.191196	0.733248	0.063947
Br235	Br	-0.295495	0.733250	0.063954
Br236	Br	-0.423285	1.292881	-0.063830
Br237	Br	0.067902	0.614576	0.091044
H238	H	0.603530	0.596926	0.239216
Br239	Br	-0.114117	1.411645	-0.090931
H240	H	-0.007128	1.347198	-0.076215
Br241	Br	-0.246853	1.411605	-0.090927
Br242	Br	0.220801	1.292969	-0.063861
Br243	Br	0.398835	0.394868	0.218464
H244	H	-0.139867	1.347167	-0.076221
Br245	Br	0.372275	1.013207	-0.177951
Br246	Br	0.372349	1.013087	-0.717754
H247	H	0.532153	1.013114	-0.270160
Br248	Br	0.333988	1.013160	-0.381498
H249	H	0.012718	0.679021	0.076332
Br250	Br	0.591296	1.013050	-0.381395
H251	H	0.354801	1.013136	-0.473771
H252	H	0.570521	1.013010	-0.526145
