data_functionalizedCrystal
_audit_creation_method	'MofGen! by Chris Wilmer'
_symmetry_space_group_name_H-M	'P1'
_symmetry_Int_Tables_number	1
_symmetry_cell_setting	triclinic
loop_
_symmetry_equiv_pos_as_xyz
  x,y,z
_cell_length_a	11.169417
_cell_length_b	13.032721
_cell_length_c	11.169409
_cell_angle_alpha	97.146154
_cell_angle_beta	89.979436
_cell_angle_gamma	97.204996
loop_
_atom_site_label
_atom_site_type_symbol
_atom_site_fract_x
_atom_site_fract_y
_atom_site_fract_z
Zn1	Zn	1.774219	-0.415926	-0.739163
Zn2	Zn	2.274219	0.084074	-0.239163
Zn3	Zn	1.748575	-0.590714	-0.563955
Zn4	Zn	2.248575	-0.090714	-0.063955
Zn5	Zn	1.573493	-0.415990	-0.538507
Zn6	Zn	2.073493	0.084010	-0.038507
Zn7	Zn	1.547994	-0.590629	-0.764588
Zn8	Zn	2.047994	-0.090629	-0.264588
O9	O	1.661070	-0.503315	-0.651553
O10	O	2.161070	-0.003315	-0.151553
O11	O	1.938765	-0.439121	-0.715932
O12	O	2.438765	0.060879	-0.215932
O13	O	1.725289	-0.567599	-0.392639
O14	O	2.225289	-0.067599	0.107361
O15	O	1.621523	-0.269745	-0.543834
O16	O	2.121523	0.230255	-0.043834
O17	O	1.919925	-0.567537	-0.587207
O18	O	2.419925	-0.067537	-0.087207
O19	O	1.768995	-0.269698	-0.691255
O20	O	2.268995	0.230302	-0.191255
O21	O	1.596657	-0.439229	-0.373942
O22	O	2.096657	0.060771	0.126058
O23	O	1.402162	-0.439147	-0.568487
O24	O	1.902162	0.060853	-0.068487
O25	O	1.578064	-0.567392	-0.929156
O26	O	2.078064	-0.067392	-0.429156
O27	O	1.383428	-0.567454	-0.734588
O28	O	1.883428	-0.067454	-0.234588
O29	O	1.744270	-0.439039	-0.910477
O30	O	2.244270	0.060961	-0.410477
O31	O	1.700564	-0.736940	-0.611860
O32	O	2.200564	-0.236940	-0.111860
O33	O	1.553198	-0.736877	-0.759264
O34	O	2.053198	-0.236877	-0.259264
C35	C	1.349248	-0.503299	-0.651536
C36	C	1.849248	-0.003299	-0.151536
C37	C	1.215845	-0.503317	-0.651560
C38	C	1.715845	-0.003317	-0.151560
C39	C	1.621364	-0.774826	-0.691108
C40	C	2.121364	-0.274826	-0.191108
C41	C	1.604488	-0.890980	-0.708070
C42	C	2.104488	-0.390980	-0.208070
C43	C	1.669942	-0.942761	-0.642755
C44	C	2.169942	-0.442761	-0.142755
C45	C	1.652501	-1.062811	-0.660284
C46	C	2.152501	-0.562811	-0.160284
C47	C	1.974110	-0.503332	-0.651572
C48	C	2.474110	-0.003332	-0.151572
C49	C	2.107509	-0.503339	-0.651580
C50	C	2.607509	-0.003339	-0.151580
C51	C	1.661183	-0.503199	-0.964579
C52	C	2.161183	-0.003199	-0.464579
C53	C	1.661231	-0.503150	-1.097972
C54	C	2.161231	-0.003150	-0.597972
C55	C	1.700964	-0.230744	-0.611870
C56	C	2.200964	0.269256	-0.111870
C57	C	1.717964	-0.114590	-0.594959
C58	C	2.217964	0.385410	-0.094959
C59	C	1.661037	-0.503355	-0.339734
C60	C	2.161037	-0.003355	0.160266
C61	C	1.661265	-0.503110	-0.206299
C62	C	2.161265	-0.003110	0.293701
H63	H	1.738897	-0.898218	-0.573862
H64	H	2.238897	-0.398218	-0.073862
O65	O	1.809314	-1.055605	-0.503695
O66	O	2.309314	-0.555605	-0.003695
H67	H	1.762796	-1.005963	-0.435381
H68	H	2.262796	-0.505963	0.064619
H69	H	1.583551	-1.107353	-0.729190
H70	H	2.083551	-0.607353	-0.229190
O71	O	1.513140	-0.949969	-0.799327
O72	O	2.013140	-0.449969	-0.299327
H73	H	1.513765	-1.035005	-0.798764
H74	H	2.013765	-0.535005	-0.298764
