data_functionalizedCrystal
_audit_creation_method	'MofGen! by Chris Wilmer'
_symmetry_space_group_name_H-M	'P1'
_symmetry_Int_Tables_number	1
_symmetry_cell_setting	triclinic
loop_
_symmetry_equiv_pos_as_xyz
  x,y,z
_cell_length_a	11.792254
_cell_length_b	10.868271
_cell_length_c	10.654550
_cell_angle_alpha	90.004980
_cell_angle_beta	84.341764
_cell_angle_gamma	90.004259
loop_
_atom_site_label
_atom_site_type_symbol
_atom_site_fract_x
_atom_site_fract_y
_atom_site_fract_z
O1	O	1.507298	0.102321	0.172212
O2	O	1.176999	0.102324	0.189936
O3	O	1.349743	0.102314	-0.001687
O4	O	1.334554	0.102330	0.363834
O5	O	1.349728	-0.102330	-0.001694
O6	O	1.176985	-0.102321	0.189928
O7	O	1.507283	-0.102324	0.172204
Zn8	Zn	1.342132	-0.134814	0.181065
Zn9	Zn	1.342151	0.134814	0.181075
O10	O	1.334540	-0.102315	0.363827
C11	C	1.134699	0.000002	0.188815
C12	C	1.008678	0.000002	0.185474
C13	C	0.906335	0.000007	0.182758
C14	C	0.777941	0.000008	0.179363
N15	N	1.342127	-0.318828	0.181058
C16	C	1.342145	-0.569834	0.181072
C17	C	1.342131	-0.430157	0.181068
C18	C	1.549584	0.000001	0.173325
C19	C	1.675605	0.000008	0.176666
C20	C	1.348620	-0.000007	-0.048485
C21	C	1.345284	-0.000005	-0.187919
N22	N	1.342164	0.318828	0.181073
C23	C	1.446992	-0.000006	-0.267687
C24	C	1.443850	0.000009	-0.398699
C25	C	1.237283	0.000020	-0.370162
C26	C	1.240426	0.000014	-0.239153
C27	C	1.335662	0.000010	0.410625
C28	C	1.338999	0.000016	0.550059
H29	H	1.532374	-0.000019	-0.225978
H30	H	1.526672	0.000012	-0.463642
C31	C	1.128538	0.000013	-0.151398
C32	C	1.102307	0.106280	-0.057398
C33	C	0.990425	0.106285	0.030356
C34	C	0.904775	0.000022	0.024111
C35	C	0.931003	-0.106253	-0.069893
C36	C	1.042885	-0.106258	-0.157647
H37	H	1.165713	0.184949	-0.052771
H38	H	0.971009	0.184957	0.099944
H39	H	0.821953	0.000026	0.089072
H40	H	0.867598	-0.184922	-0.074520
H41	H	1.062301	-0.184930	-0.227235
C42	C	1.121945	0.000035	-0.426528
C43	C	1.091366	-0.106225	-0.512683
C44	C	0.976027	-0.106210	-0.569048
C45	C	0.891267	0.000064	-0.539257
C46	C	0.921845	0.106332	-0.453098
C47	C	1.037184	0.106318	-0.396733
H48	H	1.154112	-0.184903	-0.534740
H49	H	0.953392	-0.184878	-0.632829
H50	H	0.805887	0.000075	-0.580981
H51	H	0.859099	0.185011	-0.431041
H52	H	1.059819	0.184985	-0.332952
