data_functionalizedCrystal
_audit_creation_method	'MofGen! by Chris Wilmer'
_symmetry_space_group_name_H-M	'P1'
_symmetry_Int_Tables_number	1
_symmetry_cell_setting	triclinic
loop_
_symmetry_equiv_pos_as_xyz
  x,y,z
_cell_length_a	13.339070
_cell_length_b	15.995350
_cell_length_c	11.804365
_cell_angle_alpha	101.833003
_cell_angle_beta	74.875130
_cell_angle_gamma	99.560835
loop_
_atom_site_label
_atom_site_type_symbol
_atom_site_fract_x
_atom_site_fract_y
_atom_site_fract_z
O1	O	1.362724	0.407602	-0.099048
O2	O	1.068197	0.352506	-0.099044
O3	O	1.223511	0.260037	-0.099045
O4	O	1.207410	0.500071	-0.099047
O5	O	1.182623	0.284347	0.099011
O6	O	1.027308	0.376816	0.099012
O7	O	1.321836	0.431912	0.099008
Cu8	Cu	1.170839	0.406583	0.117094
Cu9	Cu	1.219194	0.377835	-0.117130
O10	O	1.166521	0.524381	0.099009
C11	C	1.010063	0.355354	-0.000015
C12	C	0.897761	0.327613	-0.000014
C13	C	0.532972	0.543314	-0.000035
C14	C	0.638486	0.569380	-0.000040
C15	C	0.703310	0.508941	-0.000033
C16	C	0.662610	0.422430	-0.000022
C17	C	0.557088	0.396360	-0.000026
C18	C	0.727425	0.361987	-0.000024
C19	C	0.686725	0.275476	-0.000013
C20	C	0.581213	0.249410	-0.000017
C21	C	0.516389	0.309850	-0.000024
C22	C	0.832947	0.388057	-0.000020
C23	C	0.857062	0.241103	-0.000012
C24	C	0.751549	0.215036	-0.000007
C25	C	1.202402	0.240842	-0.000019
C26	C	1.200408	0.147427	-0.000026
C27	C	1.193240	-0.191985	-0.000022
C28	C	1.082719	-0.170302	-0.000464
C29	C	1.084623	-0.073093	-0.000018
C30	C	1.196795	-0.023599	-0.000025
C31	C	1.228004	-0.038120	0.113072
C32	C	1.225206	-0.135389	0.113167
C33	C	1.273989	-0.162861	-0.112060
C34	C	1.274271	-0.066105	-0.113555
C35	C	1.198810	0.071567	-0.000022
C36	C	1.191227	-0.287149	-0.000016
C37	C	1.379970	0.429063	-0.000023
C38	C	1.492274	0.456804	-0.000032
C39	C	1.187631	0.543575	-0.000019
C40	C	1.189627	0.636989	-0.000020
N41	N	1.136835	0.426805	0.281835
N42	N	1.253205	0.357608	-0.281871
C43	C	1.334859	0.309033	0.655782
C44	C	1.360581	0.293731	0.531121
C45	C	1.304647	0.326998	0.468793
C46	C	1.222986	0.375570	0.531140
C47	C	1.197267	0.390878	0.655814
C48	C	1.167054	0.408844	0.468824
C49	C	1.085394	0.457415	0.531171
C50	C	1.059678	0.472721	0.655833
C51	C	1.115613	0.439454	0.718160
C52	C	1.192774	0.393535	0.344150
C53	C	1.055181	0.475380	0.344182
C54	C	1.029459	0.490682	0.468843
H55	H	0.789224	0.530169	-0.000040
H56	H	0.993193	0.512278	0.706596
N57	N	0.946048	0.540290	0.532554
N58	N	0.923096	0.553945	0.643862
H59	H	0.864186	0.588980	0.688861
N60	N	0.998019	0.509362	0.280548
N61	N	0.925116	0.552731	0.336226
H62	H	0.884749	0.576731	0.291280
N63	N	1.051807	-0.062398	-0.101703
N64	N	1.047595	0.011397	-0.118765
H65	H	1.024414	0.018948	-0.190581
N66	N	0.874493	0.476425	-0.000010
N67	N	0.837385	0.532954	0.083476
H68	H	0.866723	0.595370	0.083487
H69	H	0.671618	0.639816	-0.000058
H70	H	0.480187	0.592513	-0.000050
H71	H	0.718397	0.144597	-0.000007
H72	H	1.325593	0.314538	0.367288
N73	N	0.408604	0.283237	-0.000019
N74	N	0.350743	0.337212	-0.000020
H75	H	0.274617	0.318419	-0.000020
N76	N	0.923283	0.179368	-0.000013
N77	N	1.017491	0.202655	-0.000010
H78	H	1.064267	0.159059	-0.000014
H79	H	1.055252	-0.209060	-0.081568
N80	N	1.006621	-0.195296	0.100715
N81	N	1.033430	-0.229008	0.173148
H82	H	0.979688	-0.246662	0.244608
H83	H	1.380399	0.281957	0.706538
N84	N	0.539659	0.161037	-0.000030
N85	N	0.597543	0.107080	-0.000028
H86	H	0.568198	0.044665	-0.000039
H87	H	1.094667	0.451909	0.819670
N88	N	1.153400	-0.156918	0.219232
N89	N	1.105696	-0.100139	0.292669
H90	H	1.054979	-0.115338	0.367580
N91	N	1.009427	-0.038221	0.101865
N92	N	0.955381	-0.085685	0.172868
H93	H	0.902271	-0.061057	0.244830
H94	H	1.305357	-0.148142	0.118294
H95	H	1.309546	-0.004333	0.117274
N96	N	1.158664	-0.000599	0.218653
N97	N	1.086214	0.036863	0.210898
H98	H	1.037237	0.063360	0.285462
N99	N	1.250821	-0.212378	-0.219588
N100	N	1.174504	-0.269741	-0.214951
H101	H	1.158131	-0.304716	-0.290887
N102	N	1.376501	-0.179061	-0.113057
N103	N	1.452412	-0.160376	-0.195290
H104	H	1.524807	-0.171821	-0.195989
N105	N	1.245955	-0.056352	-0.218509
N106	N	1.169020	-0.018245	-0.209822
H107	H	1.149018	-0.011352	-0.283944
H108	H	1.259262	0.353989	0.293399
N109	N	1.378652	-0.024029	-0.122132
N110	N	1.397727	0.038245	-0.044359
H111	H	1.471447	0.067966	-0.050412
H112	H	1.427069	0.254186	0.480363
