data_functionalizedCrystal
_audit_creation_method	'MofGen! by Chris Wilmer'
_symmetry_space_group_name_H-M	'P1'
_symmetry_Int_Tables_number	1
_symmetry_cell_setting	triclinic
loop_
_symmetry_equiv_pos_as_xyz
  x,y,z
_cell_length_a	19.188930
_cell_length_b	11.792241
_cell_length_c	10.268362
_cell_angle_alpha	90.005428
_cell_angle_beta	90.018465
_cell_angle_gamma	83.669098
loop_
_atom_site_label
_atom_site_type_symbol
_atom_site_fract_x
_atom_site_fract_y
_atom_site_fract_z
O1	O	-0.926947	-0.141694	-0.108720
O2	O	-0.426947	0.358306	0.391280
O3	O	-0.723744	-0.160769	-0.108631
O4	O	-0.223744	0.339231	0.391369
O5	O	-0.830277	0.014013	-0.108668
O6	O	-0.330277	0.514013	0.391332
O7	O	-0.820415	-0.316476	-0.108682
O8	O	-0.320415	0.183524	0.391318
O9	O	-0.830268	0.014020	0.107932
O10	O	-0.330268	0.514020	0.607932
O11	O	-0.723735	-0.160762	0.107970
O12	O	-0.223735	0.339238	0.607970
O13	O	-0.926938	-0.141687	0.107881
O14	O	-0.426938	0.358313	0.607881
Cu15	Cu	-0.825336	-0.151224	0.127703
Cu16	Cu	-0.325336	0.348776	0.627703
Cu17	Cu	-0.825347	-0.151232	-0.128453
Cu18	Cu	-0.325347	0.348768	0.371547
O19	O	-0.820405	-0.316469	0.107919
O20	O	-0.320405	0.183531	0.607919
C21	C	-0.697725	-0.160148	-0.000319
C22	C	-0.197725	0.339852	0.499681
C23	C	-0.620210	-0.158293	-0.000285
C24	C	-0.120210	0.341707	0.499715
C25	C	-0.829653	0.056298	-0.000368
C26	C	-0.329653	0.556298	0.499632
C27	C	-0.827799	0.182284	-0.000368
C28	C	-0.327799	0.682284	0.499632
C29	C	-0.952957	-0.142309	-0.000434
C30	C	-0.452957	0.357691	0.499566
C31	C	-1.030472	-0.144163	-0.000477
C32	C	-0.530472	0.355837	0.499523
C33	C	-0.575867	-0.260849	-0.000309
C34	C	-0.075867	0.239151	0.499691
C35	C	-0.503033	-0.259107	-0.000324
C36	C	-0.003033	0.240893	0.499676
C37	C	-0.474546	-0.154803	-0.000339
C38	C	0.025454	0.345197	0.499661
C39	C	-0.518899	-0.052234	-0.000307
C40	C	-0.018899	0.447766	0.499693
C41	C	-0.591731	-0.053979	-0.000280
C42	C	-0.091731	0.446021	0.499720
N43	N	-0.366117	-0.075079	-0.074107
N44	N	0.133883	0.424921	0.425893
N45	N	-0.296929	-0.073428	-0.074136
N46	N	0.203071	0.426572	0.425864
C47	C	-0.255107	-0.149540	-0.000419
C48	C	0.244893	0.350460	0.499581
N49	N	-0.285086	-0.227382	0.073312
N50	N	0.214914	0.272618	0.573312
N51	N	-0.354280	-0.229036	0.073335
N52	N	0.145720	0.270964	0.573335
C53	C	-0.395573	-0.152900	-0.000368
C54	C	0.104427	0.347100	0.499632
C55	C	-0.131789	-0.250214	-0.000457
C56	C	0.368211	0.249786	0.499543
C57	C	-0.058955	-0.248468	-0.000463
C58	C	0.441045	0.251532	0.499537
C59	C	-0.074822	-0.041591	-0.000460
C60	C	0.425178	0.458409	0.499540
C61	C	-0.147655	-0.043341	-0.000440
C62	C	0.352345	0.456659	0.499560
C63	C	-0.176134	-0.147655	-0.000445
C64	C	0.323866	0.352345	0.499555
C65	C	-0.821029	-0.358754	-0.000385
C66	C	-0.321029	0.141246	0.499615
C67	C	-0.822884	-0.484740	-0.000393
C68	C	-0.322884	0.015260	0.499607
N69	N	-0.825333	-0.151217	0.307869
N70	N	-0.325333	0.348783	0.807869
C71	C	-0.824389	0.412945	-0.000389
C72	C	-0.324389	0.912945	0.499611
C73	C	-0.826283	0.284588	-0.000378
C74	C	-0.326283	0.784588	0.499622
N75	N	-0.825355	-0.151230	-0.308618
N76	N	-0.325355	0.348770	0.191382
C77	C	-0.825343	-0.151230	0.573539
C78	C	-0.325343	0.348770	1.073539
C79	C	-0.825335	-0.151226	0.425701
C80	C	-0.325335	0.348774	0.925701
H81	H	-0.599050	-0.345790	-0.000316
H82	H	-0.099050	0.154210	0.499684
H83	H	-0.154978	-0.335153	-0.000442
H84	H	0.345022	0.164847	0.499558
H85	H	-0.022850	-0.331985	-0.000476
H86	H	0.477150	0.168015	0.499524
H87	H	-0.627836	0.029537	-0.000260
H88	H	-0.127836	0.529537	0.499740
C89	C	-0.454994	-0.370582	-0.000430
C90	C	0.045006	0.129418	0.499570
C91	C	-0.495524	-0.462307	-0.000461
C92	C	0.004476	0.037693	0.499539
C93	C	-0.451298	-0.565013	-0.000582
C94	C	0.048702	-0.065013	0.499418
H95	H	-0.426213	-0.374370	0.075067
H96	H	0.073787	0.125630	0.575067
H97	H	-0.426288	-0.374251	-0.076010
H98	H	0.073712	0.125749	0.423990
H99	H	-0.524218	-0.458641	0.075111
H100	H	-0.024218	0.041359	0.575111
H101	H	-0.524304	-0.458557	-0.075953
H102	H	-0.024304	0.041443	0.424047
H103	H	-0.422591	-0.568682	-0.076162
H104	H	0.077409	-0.068682	0.423838
H105	H	-0.422518	-0.568789	0.074916
H106	H	0.077482	-0.068789	0.574916
H107	H	-0.478790	-0.627261	-0.000615
H108	H	0.021210	-0.127261	0.499385
C109	C	-0.043767	0.071540	-0.000546
C110	C	0.456233	0.571540	0.499454
C111	C	0.029508	0.051121	-0.000605
C112	C	0.529508	0.551121	0.499395
C113	C	0.058142	0.155312	-0.000699
C114	C	0.558142	0.655312	0.499301
H115	H	-0.058864	0.113846	0.074970
H116	H	0.441136	0.613846	0.574970
H117	H	-0.058944	0.113758	-0.076106
H118	H	0.441056	0.613758	0.423894
H119	H	0.044678	0.008921	0.074948
H120	H	0.544678	0.508921	0.574948
H121	H	0.044625	0.008832	-0.076116
H122	H	0.544625	0.508832	0.423884
H123	H	0.042966	0.197530	-0.076259
H124	H	0.542966	0.697530	0.423741
H125	H	0.043040	0.197611	0.074819
H126	H	0.543040	0.697611	0.574819
H127	H	0.107862	0.141472	-0.000751
H128	H	0.607862	0.641472	0.499249
H129	H	-0.183760	0.040172	-0.000427
H130	H	0.316240	0.540172	0.499573
C131	C	-0.487838	0.060896	-0.000394
C132	C	0.012162	0.560896	0.499606
C133	C	-0.414563	0.040475	-0.000461
C134	C	0.085437	0.540475	0.499539
C135	C	-0.385928	0.144666	-0.000553
C136	C	0.114072	0.644666	0.499447
H137	H	-0.502933	0.103199	0.075126
H138	H	-0.002933	0.603199	0.575126
H139	H	-0.503017	0.103117	-0.075951
H140	H	-0.003017	0.603117	0.424049
H141	H	-0.399391	-0.001728	0.075088
H142	H	0.100609	0.498272	0.575088
H143	H	-0.399449	-0.001811	-0.075975
H144	H	0.100551	0.498189	0.424025
H145	H	-0.401107	0.186888	-0.076110
H146	H	0.098893	0.686888	0.423890
H147	H	-0.401028	0.186961	0.074968
H148	H	0.098972	0.686961	0.574968
H149	H	-0.336209	0.130825	-0.000611
H150	H	0.163791	0.630825	0.499389
