data_functionalizedCrystal
_audit_creation_method	'MofGen! by Chris Wilmer'
_symmetry_space_group_name_H-M	'P1'
_symmetry_Int_Tables_number	1
_symmetry_cell_setting	triclinic
loop_
_symmetry_equiv_pos_as_xyz
  x,y,z
_cell_length_a	12.594516
_cell_length_b	12.759401
_cell_length_c	12.759393
_cell_angle_alpha	90.022497
_cell_angle_beta	89.971950
_cell_angle_gamma	89.983125
loop_
_atom_site_label
_atom_site_type_symbol
_atom_site_fract_x
_atom_site_fract_y
_atom_site_fract_z
Zn1	Zn	-0.423667	-1.606257	-0.594082
Zn2	Zn	-0.601683	-1.606143	-0.418409
Zn3	Zn	-0.423722	-1.430555	-0.418412
Zn4	Zn	-0.601607	-1.430543	-0.594042
O5	O	-0.512670	-1.518375	-0.506236
O6	O	-0.447291	-1.753263	-0.570794
O7	O	-0.578131	-1.582809	-0.271389
O8	O	-0.274769	-1.453915	-0.441733
O9	O	-0.578078	-1.753179	-0.441728
O10	O	-0.274729	-1.583002	-0.570797
O11	O	-0.447383	-1.453805	-0.271391
O12	O	-0.447309	-1.283533	-0.441694
O13	O	-0.577948	-1.453894	-0.741068
O14	O	-0.578001	-1.283524	-0.570728
O15	O	-0.447216	-1.582990	-0.741097
O16	O	-0.750619	-1.582797	-0.441689
O17	O	-0.750563	-1.453784	-0.570726
C18	C	-0.512653	-1.245407	-0.506208
C19	C	-0.512672	-1.128631	-0.506221
C20	C	-0.789211	-1.518306	-0.506226
C21	C	-0.907516	-1.518372	-0.506257
C22	C	-0.580826	-1.073791	-0.573302
C23	C	-0.580828	-0.964067	-0.573320
C24	C	-0.444520	-0.964031	-0.439166
C25	C	-0.444513	-1.073753	-0.439155
C26	C	-0.619019	-0.814170	-0.697178
C27	C	-0.687189	-0.759328	-0.764249
C28	C	-0.791063	-0.794923	-0.780202
C29	C	-0.826787	-0.885359	-0.729069
C30	C	-0.758622	-0.940197	-0.661989
C31	C	-0.654734	-0.904603	-0.646056
C32	C	-0.406334	-1.223652	-0.315295
C33	C	-0.338174	-1.278491	-0.248210
C34	C	-0.234298	-1.242898	-0.232246
C35	C	-0.198578	-1.152458	-0.283361
C36	C	-0.266738	-1.097619	-0.350447
C37	C	-0.370612	-1.133220	-0.366412
C38	C	-0.976777	-1.448195	-0.576390
C39	C	-1.047646	-1.422594	-0.480522
C40	C	-1.047446	-1.544069	-0.602141
C41	C	-0.976827	-1.492721	-0.410338
C42	C	-0.976621	-1.614240	-0.532021
C43	C	-1.047457	-1.588675	-0.436087
C44	C	-0.235049	-1.518472	-0.506270
C45	C	-0.116743	-1.518514	-0.506284
C46	C	-0.512568	-1.518453	-0.780270
C47	C	-0.512524	-1.518487	-0.897046
C48	C	-0.512684	-0.792408	-0.506258
C49	C	-0.512682	-0.909184	-0.506250
C50	C	-0.444441	-1.585712	-0.951925
C51	C	-0.444395	-1.585730	-1.061649
C52	C	-0.580524	-1.451294	-1.061606
C53	C	-0.580564	-1.451272	-0.951884
C54	C	-0.318817	-1.623345	-1.211623
C55	C	-0.250743	-1.690586	-1.266506
C56	C	-0.234423	-1.793100	-1.230917
C57	C	-0.286192	-1.828392	-1.140446
C58	C	-0.354273	-1.761156	-1.085569
C59	C	-0.370573	-1.658628	-1.121157
C60	C	-0.706144	-1.413668	-0.801908
C61	C	-0.774231	-1.346436	-0.747029
C62	C	-0.790563	-1.243921	-0.782616
C63	C	-0.738813	-1.208632	-0.873090
C64	C	-0.670725	-1.275864	-0.927969
C65	C	-0.654392	-1.378378	-0.892374
C66	C	-0.512695	-1.518357	-0.233269
C67	C	-0.512438	-1.518527	-0.116493
H68	H	-0.636322	-1.118469	-0.627914
H69	H	-0.396426	-1.789892	-1.011913
H70	H	-0.945934	-1.470950	-0.329239
O71	O	-0.518040	-0.779745	-0.681797
C72	C	-0.445770	-0.858005	-0.713493
H73	H	-0.485887	-0.912390	-0.772279
H74	H	-0.373641	-0.819779	-0.751604
H75	H	-0.419343	-0.905129	-0.642230
H76	H	-0.752114	-1.125158	-0.902069
H77	H	-1.078867	-1.341587	-0.458753
H78	H	-0.945742	-1.388743	-0.635614
O79	O	-0.168214	-1.858466	-1.284069
C80	C	-0.084854	-1.890348	-1.217599
H81	H	-0.110982	-1.882392	-1.132412
H82	H	-0.063832	-1.975578	-1.234645
H83	H	-0.012340	-1.838857	-1.231990
H84	H	-0.208593	-1.661842	-1.340167
H85	H	-0.692845	-1.497142	-0.772919
O86	O	-1.084209	-1.659429	-0.365126
C87	C	-1.048010	-1.632037	-0.264222
H88	H	-1.028336	-1.544858	-0.262142
H89	H	-1.112619	-1.649745	-0.204187
H90	H	-0.973807	-1.679355	-0.244743
O91	O	-0.939547	-1.710907	-0.558106
C92	C	-1.025854	-1.778583	-0.577315
H93	H	-1.098815	-1.730365	-0.599010
H94	H	-1.005221	-1.833726	-0.644636
H95	H	-1.043318	-1.826382	-0.503834
O96	O	-0.793472	-1.028038	-0.612424
C97	C	-0.899790	-1.047675	-0.640851
H98	H	-0.917445	-1.008511	-0.719219
H99	H	-0.912850	-1.135788	-0.648090
H100	H	-0.955046	-1.014609	-0.578232
H101	H	-1.078467	-1.565747	-0.683218
O102	O	-0.378189	-1.650882	-0.898704
C103	C	-0.272099	-1.627977	-0.925549
H104	H	-0.266713	-1.544052	-0.955694
H105	H	-0.219537	-1.637032	-0.853403
H106	H	-0.244258	-1.684324	-0.989256
O107	O	-0.856708	-1.178734	-0.729160
C108	C	-0.898919	-1.231869	-0.641696
H109	H	-0.844016	-1.299260	-0.619252
H110	H	-0.906137	-1.175172	-0.572984
H111	H	-0.980735	-1.264139	-0.662124
H112	H	-0.658092	-0.685695	-0.805883
H113	H	-0.367267	-1.352132	-0.206588
H114	H	-0.272905	-1.911872	-1.111482
H115	H	-0.911376	-0.914327	-0.742054
H116	H	-0.389030	-0.919337	-0.384562
O117	O	-0.507225	-1.258349	-0.330655
C118	C	-0.524131	-1.349941	-0.271166
H119	H	-0.465568	-1.352170	-0.203106
H120	H	-0.608717	-1.349972	-0.239320
H121	H	-0.511778	-1.421743	-0.322965
O122	O	-0.646733	-1.386162	-1.114926
C123	C	-0.715444	-1.445964	-1.178414
H124	H	-0.722038	-1.528701	-1.145361
H125	H	-0.797352	-1.407935	-1.179642
H126	H	-0.682505	-1.449614	-1.261575
H127	H	-0.332090	-1.539868	-1.240604
O128	O	-0.232118	-1.009831	-0.400273
C129	C	-0.238666	-1.024647	-0.509589
H130	H	-0.299914	-1.087917	-0.527531
H131	H	-0.263509	-0.948104	-0.548580
H132	H	-0.157872	-1.049899	-0.541050
H133	H	-0.628588	-1.247123	-1.001638
H134	H	-0.846567	-0.750262	-0.834815
O135	O	-0.097626	-1.118045	-0.267778
C136	C	-0.045133	-1.185826	-0.197589
H137	H	-0.085326	-1.265859	-0.198714
H138	H	0.041424	-1.194615	-0.222256
H139	H	-0.049050	-1.151813	-0.115041
H140	H	-0.816379	-1.375181	-0.673367
H141	H	-0.178807	-1.287553	-0.177610
