data_functionalizedCrystal
_audit_creation_method	'MofGen! by Chris Wilmer'
_symmetry_space_group_name_H-M	'P1'
_symmetry_Int_Tables_number	1
_symmetry_cell_setting	triclinic
loop_
_symmetry_equiv_pos_as_xyz
  x,y,z
_cell_length_a	18.215407
_cell_length_b	25.639239
_cell_length_c	18.215399
_cell_angle_alpha	89.967555
_cell_angle_beta	89.983176
_cell_angle_gamma	90.039134
loop_
_atom_site_label
_atom_site_type_symbol
_atom_site_fract_x
_atom_site_fract_y
_atom_site_fract_z
Zn1	Zn	1.124980	-0.208137	-0.416105
Zn2	Zn	1.124865	-0.295577	-0.293034
Zn3	Zn	1.001919	-0.208158	-0.293053
Zn4	Zn	1.001848	-0.295544	-0.416059
O5	O	1.063403	-0.251854	-0.354563
O6	O	1.227949	-0.219742	-0.399791
O7	O	1.108537	-0.284003	-0.190052
O8	O	1.018320	-0.134990	-0.309403
O9	O	1.227864	-0.283983	-0.309372
O10	O	1.108733	-0.134975	-0.399809
O11	O	1.018209	-0.219777	-0.190066
O12	O	0.898925	-0.219745	-0.309358
O13	O	1.018201	-0.283927	-0.519050
O14	O	0.898873	-0.283947	-0.399731
O15	O	1.108665	-0.219710	-0.519083
O16	O	1.108469	-0.368738	-0.309327
O17	O	1.018089	-0.368714	-0.399713
C18	C	0.872197	-0.251845	-0.354542
C19	C	0.790398	-0.251854	-0.354550
C20	C	0.602196	-0.285337	-0.401548
C21	C	0.525337	-0.285338	-0.401557
C22	C	0.525362	-0.218381	-0.307594
C23	C	0.602219	-0.218377	-0.307589
C24	C	0.640634	-0.251858	-0.354565
C25	C	0.486918	-0.251864	-0.354579
C26	C	0.403584	-0.251865	-0.354589
C27	C	0.723973	-0.251856	-0.354556
C28	C	1.063279	-0.387697	-0.354529
C29	C	1.063293	-0.445811	-0.354539
C30	C	1.110586	-0.806174	-0.307579
C31	C	1.110615	-0.860778	-0.307589
O32	O	1.150696	-0.889015	-0.267625
N33	N	1.063532	-0.888093	-0.354612
C34	C	1.016423	-0.860801	-0.401633
O35	O	0.976379	-0.889049	-0.441631
C36	C	1.016399	-0.806198	-0.401626
C37	C	1.063479	-0.778886	-0.354595
C38	C	1.157663	-0.778862	-0.260553
C39	C	1.157634	-0.724261	-0.260542
C40	C	1.110527	-0.696973	-0.307558
C41	C	1.063450	-0.724285	-0.354584
C42	C	0.969294	-0.778907	-0.448650
C43	C	0.969274	-0.724300	-0.448640
C44	C	1.016355	-0.696988	-0.401609
C45	C	1.016313	-0.642396	-0.401590
N46	N	1.063396	-0.615081	-0.354567
C47	C	1.110503	-0.642370	-0.307551
C48	C	1.016479	-0.975472	-0.401644
C49	C	1.016499	-1.030074	-0.401648
C50	C	1.110691	-1.030047	-0.307605
C51	C	1.110667	-0.975444	-0.307598
C52	C	1.063561	-0.948157	-0.354621
C53	C	1.110436	-0.527704	-0.307532
C54	C	1.110400	-0.473099	-0.307523
C55	C	1.016211	-0.473131	-0.401569
C56	C	1.016244	-0.527731	-0.401575
C57	C	1.063362	-0.555017	-0.354554
O58	O	0.976254	-0.614125	-0.441536
O59	O	1.150547	-0.614115	-0.267567
C60	C	1.255356	-0.251864	-0.354584
C61	C	1.337155	-0.251868	-0.354594
C62	C	1.063438	-0.251813	-0.546516
C63	C	1.063452	-0.251795	-0.628315
C64	C	1.063547	-0.115481	-0.354613
C65	C	1.063609	-0.057367	-0.354634
C66	C	1.016458	-0.218330	-0.816517
C67	C	1.016471	-0.218319	-0.893375
C68	C	1.110534	-0.285198	-0.893351
C69	C	1.110517	-0.285210	-0.816493
C70	C	1.063480	-0.251773	-0.778078
C71	C	1.063510	-0.251750	-0.931795
C72	C	1.063525	-0.251739	-1.015128
C73	C	1.063465	-0.251785	-0.694739
C74	C	1.063411	-0.251858	-0.163357
C75	C	1.063538	-0.251729	-0.081558
H76	H	1.148739	-0.450863	-0.269223
O77	O	1.156311	-0.554143	-0.261890
C78	C	1.281533	-0.570770	-0.226308
C79	C	1.229665	-0.540791	-0.278035
H80	H	1.340851	-0.559994	-0.239353
H81	H	1.268698	-0.560055	-0.166945
H82	H	1.273445	-0.614488	-0.234367
H83	H	1.237724	-0.497066	-0.270043
H84	H	1.242513	-0.551549	-0.337380
O85	O	0.488122	-0.185889	-0.261858
C86	C	0.464546	-0.160425	-0.136738
C87	C	0.506776	-0.197246	-0.188453
H88	H	0.479600	-0.169601	-0.077378
H89	H	0.479710	-0.118267	-0.149705
H90	H	0.403015	-0.166171	-0.144850
H91	H	0.568317	-0.191546	-0.180370
H92	H	0.491551	-0.239390	-0.175473
O93	O	1.203449	-0.805283	-0.214806
C94	C	1.296892	-0.799475	-0.121550
C95	C	1.245067	-0.769493	-0.173318
H96	H	1.330565	-0.770552	-0.088004
H97	H	1.263176	-0.825064	-0.082988
H98	H	1.335339	-0.825012	-0.155378
H99	H	1.206610	-0.743929	-0.139550
H100	H	1.278829	-0.743937	-0.211882
H101	H	1.148831	-0.312420	-0.924638
H102	H	0.633516	-0.191112	-0.269329
O103	O	0.970713	-0.185907	-0.930744
C104	C	0.871397	-0.178858	-1.017535
C105	C	0.923167	-0.215624	-0.975250
H106	H	0.832954	-0.202870	-1.053540
H107	H	0.837725	-0.154976	-0.976904
H108	H	0.905230	-0.151503	-1.053505
H109	H	0.889392	-0.243011	-0.939280
H110	H	0.956843	-0.239470	-1.015921
O111	O	1.203269	-0.697712	-0.214782
C112	C	1.213230	-0.636090	-0.115442
C113	C	1.161458	-0.666128	-0.167208
H114	H	1.179446	-0.610538	-0.076975
H115	H	1.246886	-0.664958	-0.081794
H116	H	1.251695	-0.610507	-0.149276
H117	H	1.122948	-0.691711	-0.133431
H118	H	1.127853	-0.637231	-0.200858
H119	H	0.633472	-0.312598	-0.439801
O120	O	1.156162	-0.317772	-0.779231
C121	C	1.191757	-0.406715	-0.755636
C122	C	1.140037	-0.369898	-0.797895
H123	H	1.178729	-0.448867	-0.770699
H124	H	1.251125	-0.397576	-0.770767
H125	H	1.183674	-0.400954	-0.694110
H126	H	1.148055	-0.375638	-0.859431
H127	H	1.080689	-0.379046	-0.782703
O128	O	0.488113	-0.317910	-0.447219
C129	C	0.496205	-0.384301	-0.540446
C130	C	0.538452	-0.347448	-0.488757
H131	H	0.536886	-0.408185	-0.574054
H132	H	0.460204	-0.411647	-0.506629
H133	H	0.460239	-0.360323	-0.578960
H134	H	0.574458	-0.371384	-0.450232
H135	H	0.574407	-0.320102	-0.522620
H136	H	1.149004	-0.953210	-0.269302
O137	O	1.156482	-1.056641	-0.262054
C138	C	1.198345	-1.140756	-0.220488
C139	C	1.146434	-1.110702	-0.272086
H140	H	1.190228	-1.184469	-0.228569
H141	H	1.257665	-1.129985	-0.233535
H142	H	1.185535	-1.130057	-0.161114
H143	H	1.159178	-1.121384	-0.331477
H144	H	1.087130	-1.121476	-0.258975
O145	O	0.970735	-1.056521	-0.447397
C146	C	0.877277	-1.050770	-0.540642
C147	C	0.929075	-1.020757	-0.488875
H148	H	0.843570	-1.021867	-0.574180
H149	H	0.911014	-1.076274	-0.579212
H150	H	0.838860	-1.076394	-0.506815
H151	H	0.967503	-0.995104	-0.522643
H152	H	0.895292	-0.995285	-0.450303
H153	H	0.930953	-0.801135	-0.486945
O154	O	0.970814	-0.948943	-0.447397
C155	C	0.960804	-0.887238	-0.546716
C156	C	1.012601	-0.917254	-0.494960
H157	H	0.994567	-0.861602	-0.585173
H158	H	0.927173	-0.916121	-0.580375
H159	H	0.922317	-0.861742	-0.512875
H160	H	1.051133	-0.942751	-0.528744
H161	H	1.046180	-0.888344	-0.461298
H162	H	0.930916	-0.702085	-0.486935
H163	H	0.977909	-0.549970	-0.439874
H164	H	0.978158	-0.191103	-0.785241
H165	H	0.977854	-0.450904	-0.439847
