data_functionalizedCrystal
_audit_creation_method	'MofGen! by Chris Wilmer'
_symmetry_space_group_name_H-M	'P1'
_symmetry_Int_Tables_number	1
_symmetry_cell_setting	triclinic
loop_
_symmetry_equiv_pos_as_xyz
  x,y,z
_cell_length_a	6.817900
_cell_length_b	10.992723
_cell_length_c	17.110486
_cell_angle_alpha	95.148318
_cell_angle_beta	99.060439
_cell_angle_gamma	108.770285
loop_
_atom_site_label
_atom_site_type_symbol
_atom_site_fract_x
_atom_site_fract_y
_atom_site_fract_z
V1	V	-4.003827	-0.177380	-0.246713
O2	O	-3.964020	0.008918	-0.242024
O3	O	-3.982197	-0.352093	-0.245019
O4	O	-3.933244	-0.174479	-0.354317
O5	O	-4.013311	-0.169927	-0.131970
V6	V	-4.486861	-0.155117	-0.232990
O7	O	-4.266159	-0.226216	-0.276817
O8	O	-4.674726	-0.106282	-0.202886
O9	O	-4.285284	0.019596	-0.234684
O10	O	-4.644065	-0.341415	-0.237679
O11	O	-4.594774	-0.162570	-0.347733
O12	O	-4.334237	-0.158018	-0.125387
C13	C	-3.834428	-0.394690	-0.241125
C14	C	-3.897882	-0.537520	-0.240457
C15	C	-4.208238	-0.748455	-0.243975
C16	C	-4.142513	-0.599974	-0.244976
C17	C	-3.842142	-0.606618	-0.313748
C18	C	-3.909577	-0.755292	-0.313144
C19	C	-3.845926	-0.717253	-0.161870
C20	C	-3.783669	-0.568532	-0.161655
C21	C	-3.771983	-0.168123	-0.380544
C22	C	-3.795735	-0.166907	-0.468510
C23	C	-3.989162	-0.172748	-0.513868
C24	C	-4.011467	-0.171605	-0.596521
C25	C	-3.840346	-0.164630	-0.633816
C26	C	-3.646901	-0.158784	-0.588452
C27	C	-3.624594	-0.159919	-0.505799
C28	C	-3.898576	-0.160876	-0.883171
C29	C	-3.920900	-0.159746	-0.965830
C30	C	-4.285464	-0.172565	-0.973893
C31	C	-4.263144	-0.173706	-0.891240
C32	C	-4.069699	-0.167854	-0.845882
C33	C	-3.863143	-0.163465	-0.718301
C34	C	-4.046900	-0.169009	-0.761398
C35	C	-4.096397	0.062186	-0.238576
C36	C	-4.012180	0.205014	-0.239249
C37	C	-4.158842	-0.164378	-0.099155
C38	C	-4.114328	-0.165587	-0.011188
H39	H	-3.923723	-0.586342	-0.372062
H40	H	-3.467072	-0.155131	-0.468867
H41	H	-4.024947	-0.807024	-0.371412
N42	N	-4.264268	-0.575149	-0.319885
H43	H	-4.222032	-0.478482	-0.320847
H44	H	-4.420692	-0.612299	-0.320450
H45	H	-3.825805	-0.522021	-0.107388
N46	N	-4.372267	-0.820033	-0.317921
H47	H	-4.419702	-0.916464	-0.315716
H48	H	-4.309191	-0.801926	-0.367051
H49	H	-4.402493	-0.179385	-0.860880
H50	H	-4.128516	-0.178437	-0.483509
N51	N	-3.462344	-0.151266	-0.628681
H52	H	-3.416698	-0.228665	-0.620211
H53	H	-3.340974	-0.068611	-0.604839
H54	H	-4.186222	-0.174685	-0.731028
H55	H	-3.781540	-0.154062	-0.996193
H56	H	-3.741086	-0.156157	-0.846255
N57	N	-4.494097	-0.178872	-1.022813
H58	H	-4.482271	-0.177094	-1.080832
H59	H	-4.531862	-0.101860	-1.002445
N60	N	-3.678582	-0.155946	-0.758528
H61	H	-3.641799	-0.075185	-0.784960
H62	H	-3.717784	-0.235250	-0.800285
H63	H	-4.168970	-0.176354	-0.633447
N64	N	-4.315615	-0.781787	-0.174133
H65	H	-4.440975	-0.751095	-0.178321
H66	H	-4.212409	-0.737603	-0.122451
N67	N	-4.206540	-0.537607	-0.175587
H68	H	-4.275161	-0.606286	-0.143423
H69	H	-4.309975	-0.494326	-0.196630
N70	N	-3.718769	-0.796730	-0.312965
H71	H	-3.607483	-0.749742	-0.263750
H72	H	-3.659739	-0.774749	-0.362490
N73	N	-3.608167	-0.553059	-0.313073
H74	H	-3.527104	-0.567534	-0.262138
H75	H	-3.564871	-0.456900	-0.315948
N76	N	-3.931515	-0.751078	-0.087440
H77	H	-4.078946	-0.817144	-0.103130
H78	H	-3.935770	-0.670057	-0.055938
N79	N	-3.546451	-0.510163	-0.151201
H80	H	-3.503703	-0.412707	-0.148306
H81	H	-3.499473	-0.547108	-0.198185
N82	N	-3.651346	-0.755925	-0.156313
H83	H	-3.670693	-0.823456	-0.203656
H84	H	-3.628872	-0.793132	-0.105132
