data_functionalizedCrystal
_audit_creation_method	'MofGen! by Chris Wilmer'
_symmetry_space_group_name_H-M	'P1'
_symmetry_Int_Tables_number	1
_symmetry_cell_setting	triclinic
loop_
_symmetry_equiv_pos_as_xyz
  x,y,z
_cell_length_a	17.052862
_cell_length_b	12.970454
_cell_length_c	12.970454
_cell_angle_alpha	120.000323
_cell_angle_beta	89.999968
_cell_angle_gamma	129.740910
loop_
_atom_site_label
_atom_site_type_symbol
_atom_site_fract_x
_atom_site_fract_y
_atom_site_fract_z
Zr1	Zr	0.914385	-0.765904	0.046003
O2	O	0.762822	-1.041104	-0.148677
O3	O	0.960848	-0.532386	0.105684
O4	O	0.960845	-0.747480	-0.109409
O5	O	0.762826	-0.826008	0.236084
O6	O	1.117047	-0.685534	-0.078436
O7	O	0.762825	-0.826009	0.066416
O8	O	1.117052	-0.300769	0.306326
O9	O	0.762821	-1.210773	-0.148678
O10	O	1.097234	-0.566768	0.154250
O11	O	0.980663	-0.612997	0.257756
O12	O	0.980659	-0.866243	0.004512
O13	O	0.864088	-0.912472	0.108018
Zr14	Zr	1.163510	-0.667106	0.366001
Zr15	Zr	1.163509	-0.667107	0.095401
Zr16	Zr	0.914386	-0.765903	0.316603
Zr17	Zr	0.914382	-1.036507	0.046000
Zr18	Zr	1.163512	-0.396503	0.366004
O19	O	1.117047	-0.900624	0.306320
O20	O	1.117045	-0.900627	-0.078439
O21	O	0.762824	-1.041101	0.236082
O22	O	1.315072	-0.391906	0.560680
O23	O	1.315070	-0.391909	0.175922
O24	O	0.960849	-0.532383	0.490442
O25	O	1.315068	-0.607002	0.175920
O26	O	1.117049	-0.685530	0.521413
O27	O	0.960847	-0.747476	0.490440
O28	O	1.315069	-0.607001	0.345587
O29	O	0.960841	-1.132242	-0.109413
O30	O	1.117053	-0.300768	0.521417
O31	O	1.315074	-0.222237	0.560682
O32	O	1.315073	-0.222239	0.345591
O33	O	0.762822	-1.210771	0.066413
O34	O	0.960842	-1.132241	0.105678
O35	O	1.097235	-0.566767	0.407492
O36	O	1.213806	-0.520538	0.303986
O37	O	1.097232	-0.820013	0.154247
O38	O	0.980660	-0.866242	0.257754
C39	C	1.038950	-0.378022	0.206005
C40	C	1.038951	-0.263144	0.206006
C41	C	0.727331	-0.840085	0.144212
C42	C	0.621571	-0.882027	0.123241
C43	C	0.566861	-0.374948	0.376777
C44	C	0.666230	-0.335536	0.396475
C45	C	0.655071	-0.472155	0.328169
C46	C	0.544532	-0.648194	0.240160
C47	C	0.445153	-0.687610	0.220452
C48	C	0.533363	-0.784816	0.171844
C49	C	0.422824	-0.960855	0.083835
C50	C	0.323457	-1.000264	0.064131
C51	C	0.334616	-0.863645	0.132437
C52	C	0.632741	-0.745400	0.191552
C53	C	0.511034	-1.058062	0.035227
C54	C	0.411665	-1.097474	0.015529
C55	C	1.350564	-0.592925	0.267792
C56	C	1.456323	-0.550983	0.288762
C57	C	1.038946	-0.054985	0.206000
C58	C	1.038953	-0.169855	0.206002
C59	C	1.038946	-0.716507	-0.132478
C60	C	1.038945	-0.716508	-0.247355
C61	C	1.038949	-0.716503	0.544481
C62	C	1.038949	-0.716502	0.659358
C63	C	1.350567	-0.254442	0.267795
C64	C	1.456328	-0.097622	0.288767
C65	C	1.038952	-0.378020	0.544485
C66	C	1.038953	-0.263141	0.659363
C67	C	1.350568	-0.254440	0.606274
C68	C	1.456329	-0.097619	0.742123
C69	C	0.727326	-1.178570	-0.194271
C70	C	0.621565	-1.335391	-0.330120
C71	C	0.727328	-1.178568	0.144209
C72	C	0.621567	-1.335388	0.123237
C73	C	1.038943	-1.054990	-0.132481
C74	C	1.038941	-1.169869	-0.247359
C75	C	1.445144	-0.048110	0.220444
C76	C	1.544508	0.099220	0.240122
C77	C	1.655055	0.197043	0.328131
C78	C	1.666235	0.147519	0.396456
C79	C	1.566873	0.000184	0.376770
C80	C	1.566856	0.000160	0.751892
C81	C	1.666239	0.147499	0.879528
C82	C	1.655094	0.197062	0.997393
C83	C	1.544556	0.099267	0.987620
C84	C	1.445175	-0.048076	0.859985
C85	C	0.511039	-1.433184	-0.339889
C86	C	0.411655	-1.580556	-0.467525
C87	C	0.422801	-1.630124	-0.585390
C88	C	0.533338	-1.532322	-0.575616
C89	C	0.632719	-1.384961	-0.447982
C90	C	0.632750	-1.384911	0.191549
C91	C	0.533386	-1.532271	0.171841
C92	C	0.422840	-1.630098	0.083827
C93	C	0.411659	-1.580569	0.015508
C94	C	0.511022	-1.433219	0.035209
H95	H	0.722735	-0.602067	0.263219
H96	H	0.321639	-1.660241	-0.056153
C97	C	1.787842	0.255153	0.493282
C98	C	1.897127	0.417230	0.514941
C99	C	2.018735	0.524881	0.611778
C100	C	2.031059	0.470455	0.686957
C101	C	1.921771	0.308370	0.665300
C102	C	1.800162	0.200719	0.568462
H103	H	1.888007	0.457527	0.459287
H104	H	2.099638	0.644867	0.627810
H105	H	2.121081	0.550144	0.758642
H106	H	1.930890	0.268073	0.720954
H107	H	1.719259	0.080733	0.552431
C108	C	1.787819	0.255061	0.890255
C109	C	1.824339	0.343749	0.828128
C110	C	1.945915	0.451305	0.838850
C111	C	2.030971	0.470173	0.911699
C112	C	1.994453	0.381482	0.973831
C113	C	1.872877	0.273927	0.963110
H114	H	1.761374	0.329784	0.774196
H115	H	1.972947	0.516959	0.792855
H116	H	2.120968	0.549792	0.919636
H117	H	2.057418	0.395447	1.027763
H118	H	1.845845	0.208272	1.009104
H119	H	1.535382	0.139520	0.184480
C120	C	0.498759	-1.378689	-0.210249
C121	C	0.377169	-1.486298	-0.221024
C122	C	0.364878	-1.431824	-0.091392
C123	C	0.474176	-1.269742	0.049016
C124	C	0.595774	-1.162123	0.059797
C125	C	0.608066	-1.216597	-0.069836
H126	H	0.296253	-1.606290	-0.324968
H127	H	0.274862	-1.511492	-0.099373
H128	H	0.465077	-1.229417	0.144978
H129	H	0.676691	-1.042131	0.163740
H130	H	0.698081	-1.136929	-0.061854
H131	H	1.736026	0.317042	1.101313
C132	C	0.290075	-1.688105	-0.478253
C133	C	0.253557	-1.776742	-0.416084
C134	C	0.131981	-1.884283	-0.426808
C135	C	0.046922	-1.903186	-0.499700
C136	C	0.083438	-1.814546	-0.561875
C137	C	0.205014	-1.707006	-0.551151
H138	H	0.316524	-1.762751	-0.362120
H139	H	0.104950	-1.949900	-0.380782
H140	H	-0.043076	-1.982794	-0.507639
H141	H	0.020470	-1.828538	-0.615839
H142	H	0.232045	-1.641389	-0.597177
H143	H	1.575952	-0.040169	0.655934
H144	H	0.735985	-0.440055	0.344213
H145	H	0.756225	-0.192204	0.468117
H146	H	0.575932	-0.263732	0.432377
H147	H	0.542399	-1.572700	-0.671598
H148	H	0.253707	-0.895724	0.116410
H149	H	0.321652	-1.240806	-0.056130
H150	H	0.501900	-1.392906	-0.020418
H151	H	0.501943	-1.169309	-0.020396
C152	C	0.201868	-1.193910	-0.032671
C153	C	0.165318	-1.317492	-0.183489
C154	C	0.043733	-1.511141	-0.280285
C155	C	-0.041302	-1.581206	-0.226262
C156	C	-0.004753	-1.457621	-0.075437
C157	C	0.116832	-1.263973	0.021359
H158	H	0.228267	-1.265627	-0.223487
H159	H	0.016677	-1.602626	-0.391936
H160	H	-0.131306	-1.724556	-0.297916
H161	H	-0.067703	-1.509486	-0.035439
H162	H	0.143887	-1.172488	0.133010
H163	H	1.575994	-0.040109	0.432417
H164	H	1.535499	0.139644	1.083603
H165	H	1.735953	0.317010	0.344150
H166	H	1.355141	-0.127755	0.148764
H167	H	1.355184	-0.127675	0.852049
H168	H	0.722753	-1.305270	0.263225
H169	H	0.341869	-1.750119	-0.689309
H170	H	0.542512	-1.572571	0.227484
H171	H	0.722712	-1.305338	-0.440043
H172	H	0.341942	-1.750076	0.067798
