data_functionalizedCrystal
_audit_creation_method	'MofGen! by Chris Wilmer'
_symmetry_space_group_name_H-M	'P1'
_symmetry_Int_Tables_number	1
_symmetry_cell_setting	triclinic
loop_
_symmetry_equiv_pos_as_xyz
  x,y,z
_cell_length_a	18.050591
_cell_length_b	29.839126
_cell_length_c	18.050589
_cell_angle_alpha	90.016881
_cell_angle_beta	89.975773
_cell_angle_gamma	89.974078
loop_
_atom_site_label
_atom_site_type_symbol
_atom_site_fract_x
_atom_site_fract_y
_atom_site_fract_z
Zn1	Zn	1.135329	-0.254103	0.295795
Zn2	Zn	1.468663	0.079230	0.629129
Zn3	Zn	1.801996	0.412563	0.962462
Zn4	Zn	1.135229	-0.178983	0.419976
Zn5	Zn	1.468562	0.154351	0.753309
Zn6	Zn	1.801896	0.487684	1.086643
Zn7	Zn	1.011138	-0.178978	0.295796
Zn8	Zn	1.344471	0.154356	0.629129
Zn9	Zn	1.677804	0.487689	0.962462
Zn10	Zn	1.011096	-0.254076	0.419939
Zn11	Zn	1.344430	0.079257	0.753273
Zn12	Zn	1.677763	0.412591	1.086606
O13	O	1.073198	-0.216535	0.357877
O14	O	1.406531	0.116798	0.691210
O15	O	1.739865	0.450132	1.024543
O16	O	1.239240	-0.244152	0.312283
O17	O	1.572574	0.089181	0.645617
O18	O	1.905907	0.422515	0.978950
O19	O	1.118743	-0.116115	0.403518
O20	O	1.452077	0.217218	0.736852
O21	O	1.785410	0.550552	1.070185
O22	O	1.027671	-0.188953	0.191871
O23	O	1.361004	0.144381	0.525204
O24	O	1.694338	0.477714	0.858538
O25	O	1.239167	-0.188961	0.403518
O26	O	1.572500	0.144372	0.736852
O27	O	1.905834	0.477706	1.070185
O28	O	1.118914	-0.244147	0.191871
O29	O	1.452247	0.089186	0.525204
O30	O	1.785581	0.422520	0.858538
O31	O	1.027574	-0.116111	0.312284
O32	O	1.360907	0.217222	0.645617
O33	O	1.694241	0.550555	0.978950
O34	O	0.907208	-0.188926	0.312248
O35	O	1.240541	0.144407	0.645582
O36	O	1.573874	0.477741	0.978915
O37	O	1.027601	-0.316947	0.403456
O38	O	1.360934	0.016387	0.736790
O39	O	1.694267	0.349720	1.070123
O40	O	0.907177	-0.244101	0.403456
O41	O	1.240511	0.089233	0.736790
O42	O	1.573844	0.422566	1.070123
O43	O	1.118874	-0.316967	0.312248
O44	O	1.452207	0.016367	0.645581
O45	O	1.785541	0.349700	0.978915
O46	O	1.118703	-0.188935	0.523896
O47	O	1.452037	0.144399	0.857229
O48	O	1.785370	0.477732	1.190562
O49	O	1.027504	-0.244105	0.523869
O50	O	1.360837	0.089228	0.857202
O51	O	1.694170	0.422561	1.190536
C52	C	0.880246	-0.216510	0.357849
C53	C	1.213579	0.116823	0.691182
C54	C	1.546913	0.450157	1.024516
C55	C	0.797700	-0.216510	0.357855
C56	C	1.131033	0.116823	0.691188
C57	C	1.464367	0.450157	1.024522
C58	C	0.598244	-0.186575	0.308199
C59	C	0.931578	0.146758	0.641532
C60	C	1.264911	0.480091	0.974865
C61	C	0.548823	-0.175523	0.375934
C62	C	0.882156	0.157811	0.709267
C63	C	1.215490	0.491144	1.042601
C64	C	0.646570	-0.216530	0.357878
C65	C	0.979903	0.116803	0.691211
C66	C	1.313236	0.450136	1.024544
C67	C	0.548909	-0.227582	0.290166
C68	C	0.882243	0.105751	0.623499
C69	C	1.215576	0.439085	0.956832
C70	C	0.500585	-0.216549	0.357893
C71	C	0.833918	0.116784	0.691227
C72	C	1.167251	0.450118	1.024560
C73	C	0.598236	-0.205456	0.425649
C74	C	0.931569	0.127877	0.758982
C75	C	1.264902	0.461210	1.092315
C76	C	0.598326	-0.257535	0.339834
C77	C	0.931660	0.075799	0.673168
C78	C	1.264993	0.409132	1.006501
C79	C	0.548927	-0.246498	0.407617
C80	C	0.882261	0.086836	0.740950
C81	C	1.215594	0.420169	1.074283
C82	C	0.730668	-0.216518	0.357867
C83	C	1.064001	0.116815	0.691201
C84	C	1.397335	0.450148	1.024534
C85	C	0.416488	-0.216561	0.357911
C86	C	0.749821	0.116772	0.691244
C87	C	1.083155	0.450106	1.024578
C88	C	1.073244	-0.333713	0.357848
C89	C	1.406577	-0.000380	0.691181
C90	C	1.739911	0.332953	1.024515
C91	C	1.073264	-0.383648	0.357836
C92	C	1.406597	-0.050314	0.691169
C93	C	1.739930	0.283019	1.024503
C94	C	1.025806	-0.693292	0.310256
C95	C	1.359140	-0.359959	0.643589
C96	C	1.692473	-0.026625	0.976922
C97	C	1.025828	-0.880965	0.310204
C98	C	1.359161	-0.547632	0.643538
C99	C	1.692494	-0.214299	0.976871
O100	O	0.985441	-0.905231	0.269824
O101	O	1.318774	-0.571898	0.603157
O102	O	1.652107	-0.238564	0.936491
N103	N	1.073299	-0.904433	0.357697
N104	N	1.406632	-0.571100	0.691030
N105	N	1.739965	-0.237766	1.024363
C106	C	1.120765	-0.880980	0.405209
C107	C	1.454098	-0.547646	0.738542
C108	C	1.787431	-0.214313	1.071875
O109	O	1.161137	-0.905247	0.445608
O110	O	1.494470	-0.571913	0.778942
O111	O	1.827804	-0.238580	1.112275
C112	C	1.120739	-0.693307	0.405264
C113	C	1.454073	-0.359974	0.738597
C114	C	1.787406	-0.026641	1.071930
C115	C	1.073270	-0.669842	0.357763
C116	C	1.406604	-0.336509	0.691096
C117	C	1.739937	-0.003175	1.024429
C118	C	0.978341	-0.669827	0.262759
C119	C	1.311674	-0.336494	0.596093
C120	C	1.645007	-0.003160	0.929426
C121	C	0.978339	-0.622911	0.262770
C122	C	1.311672	-0.289578	0.596103
C123	C	1.645005	0.043755	0.929437
C124	C	1.025803	-0.599461	0.310277
C125	C	1.359136	-0.266128	0.643610
C126	C	1.692469	0.067205	0.976943
C127	C	1.073268	-0.622927	0.357773
C128	C	1.406602	-0.289593	0.691107
C129	C	1.739935	0.043740	1.024440
C130	C	1.168201	-0.669855	0.452779
C131	C	1.501534	-0.336521	0.786112
C132	C	1.834868	-0.003188	1.119446
C133	C	1.168189	-0.622934	0.452790
C134	C	1.501523	-0.289600	0.786123
C135	C	1.834856	0.043733	1.119456
C136	C	1.120720	-0.599468	0.405289
C137	C	1.454054	-0.266135	0.738622
C138	C	1.787387	0.067198	1.071956
C139	C	1.120730	-0.552561	0.405291
C140	C	1.454064	-0.219228	0.738624
C141	C	1.787397	0.114106	1.071957
N142	N	1.073259	-0.529093	0.357798
N143	N	1.406592	-0.195760	0.691132
N144	N	1.739926	0.137573	1.024465
C145	C	1.025795	-0.552543	0.310291
C146	C	1.359129	-0.219210	0.643625
C147	C	1.692462	0.114123	0.976958
C148	C	1.120776	-0.979510	0.405176
C149	C	1.454109	-0.646177	0.738509
C150	C	1.787442	-0.312844	1.071842
C151	C	1.120783	-1.026428	0.405161
C152	C	1.454117	-0.693095	0.738495
C153	C	1.787450	-0.359761	1.071828
C154	C	1.025845	-1.026411	0.310157
C155	C	1.359178	-0.693077	0.643491
C156	C	1.692511	-0.359744	0.976824
C157	C	1.025842	-0.979492	0.310169
C158	C	1.359175	-0.646159	0.643502
C159	C	1.692508	-0.312825	0.976835
C160	C	1.073304	-0.956042	0.357683
C161	C	1.406638	-0.622709	0.691017
C162	C	1.739971	-0.289376	1.024350
C163	C	1.025795	-0.454017	0.310316
C164	C	1.359129	-0.120684	0.643650
C165	C	1.692462	0.212649	0.976983
C166	C	1.025800	-0.407098	0.310329
C167	C	1.359133	-0.073765	0.643662
C168	C	1.692466	0.259569	0.976996
C169	C	1.120735	-0.407119	0.405335
C170	C	1.454068	-0.073786	0.738669
C171	C	1.787402	0.259547	1.072002
C172	C	1.120734	-0.454035	0.405320
C173	C	1.454067	-0.120702	0.738654
C174	C	1.787400	0.212632	1.071987
C175	C	1.073258	-0.477483	0.357808
C176	C	1.406591	-0.144150	0.691142
C177	C	1.739924	0.189184	1.024475
O178	O	1.161090	-0.528266	0.445656
O179	O	1.494424	-0.194933	0.778989
O180	O	1.827757	0.138400	1.112322
O181	O	0.985417	-0.528268	0.269909
O182	O	1.318751	-0.194935	0.603243
O183	O	1.652084	0.138398	0.936576
C184	C	1.025808	-0.740208	0.310245
C185	C	1.359142	-0.406874	0.643579
C186	C	1.692475	-0.073541	0.976912
C187	C	1.073274	-0.763673	0.357742
C188	C	1.406608	-0.430340	0.691075
C189	C	1.739941	-0.097006	1.024408
C190	C	1.120738	-0.740223	0.405249
C191	C	1.454071	-0.406889	0.738582
C192	C	1.787405	-0.073556	1.071915
C193	C	1.073282	-0.810591	0.357727
C194	C	1.406615	-0.477257	0.691061
C195	C	1.739948	-0.143924	1.024394
C196	C	1.025818	-0.834041	0.310220
C197	C	1.359151	-0.500708	0.643554
C198	C	1.692484	-0.167374	0.976887
C199	C	0.978346	-0.810573	0.262728
C200	C	1.311680	-0.477240	0.596061
C201	C	1.645013	-0.143907	0.929395
C202	C	0.978344	-0.763658	0.262738
C203	C	1.311678	-0.430324	0.596072
C204	C	1.645011	-0.096991	0.929405
C205	C	1.168209	-0.763690	0.452741
C206	C	1.501543	-0.430357	0.786074
C207	C	1.834876	-0.097024	1.119408
C208	C	1.168208	-0.810606	0.452726
C209	C	1.501541	-0.477273	0.786059
C210	C	1.834875	-0.143939	1.119393
C211	C	1.120744	-0.834056	0.405219
C212	C	1.454077	-0.500723	0.738552
C213	C	1.787411	-0.167389	1.071886
C214	C	1.266904	-0.216560	0.357905
C215	C	1.600237	0.116773	0.691238
C216	C	1.933570	0.450107	1.024572
C217	C	1.349449	-0.216571	0.357917
C218	C	1.682783	0.116763	0.691250
C219	C	2.016116	0.450096	1.024584
C220	C	1.073108	-0.216527	0.550829
C221	C	1.406442	0.116806	0.884162
C222	C	1.739775	0.450139	1.217495
C223	C	1.073138	-0.216539	0.633374
C224	C	1.406471	0.116794	0.966708
C225	C	1.739805	0.450127	1.300041
C226	C	1.073195	-0.099812	0.357851
C227	C	1.406528	0.233521	0.691185
C228	C	1.739862	0.566854	1.024518
C229	C	1.073319	-0.049878	0.357654
C230	C	1.406653	0.283455	0.690988
C231	C	1.739986	0.616788	1.024321
C232	C	1.073308	-0.216552	0.164171
C233	C	1.406642	0.116781	0.497504
C234	C	1.739975	0.450114	0.830838
C235	C	1.073355	-0.216560	0.081625
C236	C	1.406689	0.116774	0.414958
C237	C	1.740022	0.450107	0.748292
C238	C	1.023592	-0.246531	0.832838
C239	C	1.356926	0.086803	1.166171
C240	C	1.690259	0.420136	1.499504
C241	C	1.005489	-0.205535	0.882269
C242	C	1.338822	0.127798	1.215602
C243	C	1.672155	0.461132	1.548935
C244	C	1.073211	-0.216545	0.784505
C245	C	1.406544	0.116788	1.117838
C246	C	1.739878	0.450122	1.451171
C247	C	1.091351	-0.257545	0.882155
C248	C	1.424684	0.075788	1.215489
C249	C	1.758018	0.409121	1.548822
C250	C	1.073280	-0.216554	0.930490
C251	C	1.406613	0.116779	1.263823
C252	C	1.739947	0.450112	1.597157
C253	C	1.055072	-0.175528	0.832849
C254	C	1.388405	0.157806	1.166182
C255	C	1.721738	0.491139	1.499515
C256	C	1.140966	-0.227566	0.832731
C257	C	1.474299	0.105767	1.166064
C258	C	1.807632	0.439101	1.499398
C259	C	1.122888	-0.186542	0.882140
C260	C	1.456221	0.146791	1.215473
C261	C	1.789554	0.480125	1.548807
C262	C	1.073169	-0.216540	0.700407
C263	C	1.406503	0.116793	1.033740
C264	C	1.739836	0.450126	1.367073
C265	C	1.073322	-0.216555	1.014586
C266	C	1.406655	0.116779	1.347920
C267	C	1.739988	0.450112	1.681253
H268	H	0.527203	-0.236906	0.232903
H269	H	0.860536	0.096427	0.566237
H270	H	1.193870	0.429761	0.899570
O271	O	1.216889	-0.239875	0.804050
O272	O	1.550222	0.093459	1.137383
O273	O	1.883555	0.426792	1.470716
H274	H	1.231826	-0.273917	0.823822
H275	H	1.565159	0.059416	1.157155
H276	H	1.898493	0.392749	1.490488
H277	H	0.620087	-0.292193	0.324541
H278	H	0.953420	0.041141	0.657874
H279	H	1.286754	0.374474	0.991208
O280	O	0.626806	-0.193025	0.501531
O281	O	0.960139	0.140309	0.834864
O282	O	1.293473	0.473642	1.168197
H283	H	0.688294	-0.193095	0.500919
H284	H	1.021627	0.140238	0.834253
H285	H	1.354961	0.473571	1.167586
O286	O	0.626945	-0.152988	0.252612
O287	O	0.960278	0.180345	0.585945
O288	O	1.293611	0.513679	0.919279
H289	H	0.607118	-0.118984	0.267779
H290	H	0.940452	0.214350	0.601112
H291	H	1.273785	0.547683	0.934445
O292	O	1.111645	-0.303468	0.910843
O293	O	1.444979	0.029865	1.244176
O294	O	1.778312	0.363198	1.577509
H295	H	1.070339	-0.328287	0.891096
H296	H	1.403673	0.005046	1.224429
H297	H	1.737006	0.338380	1.557762
O298	O	0.974651	-1.051707	0.258913
O299	O	1.307984	-0.718373	0.592247
O300	O	1.641318	-0.385040	0.925580
H301	H	0.982634	-1.088273	0.266891
H302	H	1.315967	-0.754939	0.600224
H303	H	1.649301	-0.421606	0.933557
O304	O	1.178510	-0.152921	0.910638
O305	O	1.511843	0.180412	1.243971
O306	O	1.845176	0.513746	1.577304
H307	H	1.220908	-0.170465	0.944428
H308	H	1.554242	0.162869	1.277761
H309	H	1.887575	0.496202	1.611094
H310	H	0.987145	-0.387995	0.271645
H311	H	1.320478	-0.054661	0.604978
H312	H	1.653811	0.278672	0.938311
O313	O	0.974598	-0.479305	0.259067
O314	O	1.307931	-0.145972	0.592400
O315	O	1.641265	0.187362	0.925733
H316	H	0.941602	-0.455100	0.226039
H317	H	1.274935	-0.121766	0.559373
H318	H	1.608269	0.211567	0.892706
O319	O	0.520011	-0.129604	0.396168
O320	O	0.853345	0.203730	0.729501
O321	O	1.186678	0.537063	1.062835
H322	H	0.539756	-0.104789	0.354845
H323	H	0.873089	0.228544	0.688178
H324	H	1.206422	0.561877	1.021512
H325	H	0.939682	-0.603810	0.224093
H326	H	1.273015	-0.270477	0.557426
H327	H	1.606348	0.062857	0.890759
O328	O	0.520404	-0.280060	0.463333
O329	O	0.853738	0.053273	0.796667
O330	O	1.187071	0.386606	1.130000
H331	H	0.540263	-0.270787	0.519468
H332	H	0.873596	0.062546	0.852801
H333	H	1.206929	0.395879	1.186134
O334	O	0.927150	-0.695116	0.211510
O335	O	1.260483	-0.361783	0.544843
O336	O	1.593816	-0.028450	0.878176
H337	H	0.894153	-0.670910	0.178486
H338	H	1.227486	-0.337576	0.511819
H339	H	1.560819	-0.004243	0.845152
H340	H	0.987188	-0.960390	0.271489
H341	H	1.320522	-0.627056	0.604822
H342	H	1.653855	-0.293723	0.938155
O343	O	0.929631	-0.193188	0.911091
O344	O	1.262964	0.140145	1.244424
O345	O	1.596297	0.473479	1.577757
H346	H	0.933660	-0.162218	0.944922
H347	H	1.266993	0.171116	1.278255
H348	H	1.600326	0.504449	1.611588
O349	O	1.171988	-0.954225	0.456416
O350	O	1.505321	-0.620892	0.789749
O351	O	1.838655	-0.287558	1.123082
H352	H	1.159232	-0.963229	0.514698
H353	H	1.492565	-0.629895	0.848031
H354	H	1.825899	-0.296562	1.181364
H355	H	1.159446	-1.045530	0.443833
H356	H	1.492779	-0.712196	0.777166
H357	H	1.826112	-0.378863	1.110500
O358	O	1.219382	-0.695157	0.504031
O359	O	1.552715	-0.361824	0.837364
O360	O	1.886048	-0.028491	1.170698
H361	H	1.252367	-0.670961	0.537075
H362	H	1.585700	-0.337628	0.870408
H363	H	1.919033	-0.004295	1.203742
H364	H	1.206845	-0.603844	0.491478
H365	H	1.540178	-0.270510	0.824811
H366	H	1.873512	0.062823	1.158145
H367	H	1.159395	-0.473141	0.443991
H368	H	1.492728	-0.139808	0.777324
H369	H	1.826062	0.193525	1.110658
O370	O	1.171930	-0.381822	0.456571
O371	O	1.505263	-0.048488	0.789904
O372	O	1.838596	0.284845	1.123237
H373	H	1.159162	-0.390820	0.514853
H374	H	1.492495	-0.057486	0.848186
H375	H	1.825828	0.275847	1.181519
H376	H	0.939690	-0.744557	0.224058
H377	H	1.273024	-0.411223	0.557392
H378	H	1.606357	-0.077890	0.890725
O379	O	0.927160	-0.835870	0.211477
O380	O	1.260494	-0.502536	0.544810
O381	O	1.593827	-0.169203	0.878143
H382	H	0.935143	-0.872436	0.219455
H383	H	1.268477	-0.539102	0.552789
H384	H	1.601810	-0.205769	0.886122
O385	O	1.219400	-0.835914	0.503973
O386	O	1.552733	-0.502580	0.837306
O387	O	1.886066	-0.169247	1.170639
H388	H	1.252392	-0.811720	0.537015
H389	H	1.585725	-0.478387	0.870348
H390	H	1.919059	-0.145054	1.203681
H391	H	1.206858	-0.744602	0.491431
H392	H	1.540192	-0.411269	0.824764
H393	H	1.873525	-0.077935	1.158097
O394	O	0.967932	-0.280069	0.804147
O395	O	1.301266	0.053264	1.137480
O396	O	1.634599	0.386597	1.470813
H397	H	0.939881	-0.296544	0.851604
H398	H	1.273215	0.036789	1.184937
H399	H	1.606548	0.370122	1.518271
O400	O	1.034691	-0.129590	0.804289
O401	O	1.368024	0.203743	1.137623
O402	O	1.701357	0.537077	1.470956
H403	H	1.034792	-0.129952	0.742801
H404	H	1.368125	0.203382	1.076135
H405	H	1.701459	0.536715	1.409468
