data_functionalizedCrystal
_audit_creation_method	'MofGen! by Chris Wilmer'
_symmetry_space_group_name_H-M	'P1'
_symmetry_Int_Tables_number	1
_symmetry_cell_setting	triclinic
loop_
_symmetry_equiv_pos_as_xyz
  x,y,z
_cell_length_a	15.297327
_cell_length_b	11.169417
_cell_length_c	11.169409
_cell_angle_alpha	89.980176
_cell_angle_beta	80.360209
_cell_angle_gamma	80.292774
loop_
_atom_site_label
_atom_site_type_symbol
_atom_site_fract_x
_atom_site_fract_y
_atom_site_fract_z
Zn1	Zn	-0.359064	-1.752166	0.761131
Zn2	Zn	-0.509956	-1.717262	0.595155
Zn3	Zn	-0.359119	-1.551440	0.560478
Zn4	Zn	-0.509883	-1.516683	0.795783
O5	O	-0.434505	-1.634387	0.678137
O6	O	-0.379088	-1.915484	0.739125
O7	O	-0.490001	-1.695203	0.422618
O8	O	-0.232867	-1.607220	0.558081
O9	O	-0.489948	-1.889840	0.617183
O10	O	-0.232827	-1.754693	0.705500
O11	O	-0.379181	-1.573374	0.397141
O12	O	-0.379110	-1.378881	0.591682
O13	O	-0.489823	-1.547982	0.959124
O14	O	-0.489876	-1.353345	0.764559
O15	O	-0.379016	-1.720991	0.933665
O16	O	-0.636191	-1.661501	0.650783
O17	O	-0.636137	-1.514136	0.798184
C18	C	-0.668898	-1.580292	0.732033
C19	C	-0.769172	-1.557259	0.755130
C20	C	-0.434492	-1.322566	0.678118
C21	C	-0.434508	-1.189162	0.678144
C22	C	-0.434405	-1.634503	0.991157
C23	C	-0.434362	-1.634552	1.124547
C24	C	-1.051814	-1.799500	0.513469
C25	C	-0.957602	-1.821139	0.491762
C26	C	-0.910490	-1.755172	0.557602
C27	C	-0.957599	-1.667560	0.645153
C28	C	-1.051821	-1.645911	0.666855
C29	C	-0.910496	-1.601583	0.710988
C30	C	-0.957606	-1.513971	0.798539
C31	C	-1.051818	-1.492327	0.820238
C32	C	-1.098930	-1.558295	0.754397
C33	C	-0.816275	-1.623232	0.689286
C34	C	-0.816281	-1.469643	0.842672
C35	C	-0.910493	-1.448003	0.864379
C36	C	-0.199198	-1.688727	0.624057
C37	C	-0.098924	-1.711884	0.601011
C38	C	-0.434520	-1.947426	0.678156
C39	C	-0.434526	-2.080825	0.678165
C40	C	-0.434540	-1.634357	0.366320
C41	C	-0.434329	-1.634599	0.232872
H42	H	-0.777926	-1.694565	0.618002
H43	H	-1.090172	-1.420974	0.891513
O44	O	-1.097439	-1.863641	0.449373
C45	C	-1.087505	-2.018308	0.294995
C46	C	-1.035723	-1.945731	0.367485
H47	H	-1.037630	-2.084713	0.228790
H48	H	-1.131659	-1.953143	0.242286
H49	H	-1.131570	-2.070857	0.360319
H50	H	-0.991609	-1.893177	0.302248
H51	H	-0.991625	-2.010958	0.420211
H52	H	-0.777923	-1.415924	0.896283
O53	O	-1.190451	-1.537389	0.775679
C54	C	-1.325558	-1.537081	0.921916
C55	C	-1.221912	-1.560818	0.897975
H56	H	-1.351026	-1.555989	1.020796
H57	H	-1.351178	-1.599320	0.859906
H58	H	-1.351202	-1.438267	0.902778
H59	H	-1.196191	-1.659600	0.917126
H60	H	-1.196353	-1.498502	0.959975
H61	H	-0.833778	-1.772795	0.539922
O62	O	-0.956400	-1.362901	0.949336
C63	C	-1.101552	-1.261549	1.050791
C64	C	-1.049676	-1.357940	0.954524
H65	H	-1.176974	-1.257524	1.055035
H66	H	-1.083172	-1.168978	1.025400
H67	H	-1.082903	-1.286847	1.143277
H68	H	-1.068296	-1.332756	0.862004
H69	H	-1.068060	-1.450485	0.980019
O70	O	-0.911703	-1.906159	0.406731
C71	C	-0.766557	-2.007618	0.305364
C72	C	-0.818426	-1.911274	0.401682
H73	H	-0.691133	-2.011803	0.301269
H74	H	-0.785088	-1.982328	0.212814
H75	H	-0.785061	-2.100121	0.330767
H76	H	-0.799950	-1.818736	0.376394
H77	H	-0.799890	-1.936669	0.494206
