data_functionalizedCrystal
_audit_creation_method	'MofGen! by Chris Wilmer'
_symmetry_space_group_name_H-M	'P1'
_symmetry_Int_Tables_number	1
_symmetry_cell_setting	triclinic
loop_
_symmetry_equiv_pos_as_xyz
  x,y,z
_cell_length_a	10.967953
_cell_length_b	16.974897
_cell_length_c	15.455313
_cell_angle_alpha	83.675220
_cell_angle_beta	104.803889
_cell_angle_gamma	84.839040
loop_
_atom_site_label
_atom_site_type_symbol
_atom_site_fract_x
_atom_site_fract_y
_atom_site_fract_z
O1	O	0.149750	1.055891	-0.123787
O2	O	0.649750	1.555891	0.376213
O3	O	0.171459	0.824871	-0.104343
O4	O	0.671459	1.324871	0.395657
O5	O	-0.023164	0.947022	-0.141997
O6	O	0.476836	1.447022	0.358003
O7	O	0.344373	0.933740	-0.086134
O8	O	0.844373	1.433740	0.413866
O9	O	-0.012081	0.940037	0.004412
O10	O	0.487919	1.440037	0.504412
O11	O	0.182543	0.817886	0.042065
O12	O	0.682543	1.317886	0.542065
O13	O	0.160833	1.048906	0.022622
O14	O	0.660833	1.548906	0.522622
Cu15	Cu	0.172700	0.932758	0.045712
Cu16	Cu	0.672700	1.432758	0.545712
Cu17	Cu	0.159592	0.941019	-0.127433
Cu18	Cu	0.659592	1.441019	0.372567
O19	O	0.355457	0.926755	0.060275
O20	O	0.855457	1.426755	0.560275
C21	C	0.176378	0.791822	-0.029160
C22	C	0.676378	1.291822	0.470840
C23	C	0.174506	0.703753	-0.023265
C24	C	0.674506	1.203753	0.476735
C25	C	0.167588	0.666178	-0.100295
C26	C	0.667588	1.166178	0.399705
C27	C	0.165851	0.583425	-0.094740
C28	C	0.665851	1.083425	0.405260
C29	C	0.171022	0.538250	-0.012155
C30	C	0.671022	1.038250	0.487845
C31	C	0.177944	0.575830	0.064882
C32	C	0.677944	1.075830	0.564882
C33	C	0.179690	0.658580	0.059328
C34	C	0.679690	1.158580	0.559328
C35	C	0.166455	0.290355	0.013017
C36	C	0.666455	0.790355	0.513017
C37	C	0.164704	0.207599	0.018566
C38	C	0.664704	0.707599	0.518566
C39	C	0.152613	0.215200	-0.141057
C40	C	0.652613	0.715200	0.358943
C41	C	0.154352	0.297952	-0.146606
C42	C	0.654352	0.797952	0.353394
C43	C	0.161281	0.335525	-0.069568
C44	C	0.661281	0.835525	0.430432
N45	N	0.169242	0.453664	-0.006475
N46	N	0.669242	0.953664	0.493525
N47	N	0.163070	0.420108	-0.075247
N48	N	0.663070	0.920108	0.424753
C49	C	-0.064640	0.943091	-0.075791
C50	C	0.435360	1.443091	0.424209
C51	C	-0.204736	0.941776	-0.096643
C52	C	0.295264	1.441776	0.403357
C53	C	-0.406250	0.936207	-0.051634
C54	C	0.093750	1.436207	0.448366
C55	C	-0.261454	0.937569	-0.030086
C56	C	0.238546	1.437569	0.469914
C57	C	0.396932	0.930685	-0.005933
C58	C	0.896932	1.430685	0.494067
C59	C	0.537028	0.932001	0.014913
C60	C	1.037028	1.432001	0.514913
C61	C	0.155914	1.081955	-0.052564
C62	C	0.655914	1.581955	0.447436
C63	C	0.157786	1.170024	-0.058465
C64	C	0.657786	1.670024	0.441535
N65	N	0.181919	0.926954	0.167492
N66	N	0.681919	1.426954	0.667492
N67	N	0.150364	0.946829	-0.249216
N68	N	0.650364	1.446829	0.250784
C69	C	0.099266	0.978866	0.196893
C70	C	0.599266	1.478866	0.696893
C71	C	0.106249	0.974484	0.289052
C72	C	0.606249	1.474484	0.789052
C73	C	0.195892	0.918192	0.351809
C74	C	0.695892	1.418192	0.851809
C75	C	0.278549	0.866275	0.322402
C76	C	0.778549	1.366275	0.822402
C77	C	0.271558	0.870654	0.230244
C78	C	0.771558	1.370654	0.730244
C79	C	0.226030	0.899291	0.629220
C80	C	0.726030	1.399291	1.129220
C81	C	0.233017	0.894917	0.721383
C82	C	0.733017	1.394917	1.221383
C83	C	0.060715	1.003126	0.688026
C84	C	0.560715	1.503126	1.188026
C85	C	0.053738	1.007503	0.595868
C86	C	0.553738	1.507503	1.095868
C87	C	0.136390	0.955582	0.566469
C88	C	0.636390	1.455582	1.066469
N89	N	0.203035	0.913713	0.446011
N90	N	0.703035	1.413713	0.946011
N91	N	0.129240	0.960058	0.472268
N92	N	0.629240	1.460058	0.972268
H93	H	0.163374	0.702954	-0.167546
H94	H	0.663374	1.202954	0.332454
H95	H	-0.263365	0.944372	-0.169575
H96	H	0.236635	1.444372	0.330425
Br97	Br	-0.005928	1.044934	0.328955
Br98	Br	0.494072	1.544934	0.828955
H99	H	-0.006578	1.045396	0.711972
H100	H	0.493422	1.545396	1.211972
Br101	Br	0.354691	0.818518	0.806551
Br102	Br	0.854691	1.318518	1.306551
H103	H	-0.019257	1.053340	0.544772
H104	H	0.480743	1.553340	1.044772
Br105	Br	0.338199	0.828831	0.589326
Br106	Br	0.838199	1.328831	1.089326
H107	H	-0.404339	0.929413	0.087839
H108	H	0.095661	1.429413	0.587839
Br109	Br	-0.022390	1.055271	0.111732
Br110	Br	0.477610	1.555271	0.611732
H111	H	0.351534	0.820437	0.373504
H112	H	0.851534	1.320437	0.873504
H113	H	0.168950	0.170817	0.085826
H114	H	0.668950	0.670817	0.585826
Br115	Br	0.156468	0.532433	-0.199286
Br116	Br	0.656468	1.032433	0.300714
Br117	Br	0.147321	0.359257	-0.258692
Br118	Br	0.647321	0.859257	0.241308
Br119	Br	-0.503968	0.940544	-0.173190
Br120	Br	-0.003968	1.440544	0.326810
Br121	Br	-0.163745	0.933257	0.091472
Br122	Br	0.336255	1.433257	0.591472
Br123	Br	0.383727	0.800193	0.190343
Br124	Br	0.883727	1.300193	0.690343
Br125	Br	0.143191	0.164206	-0.245606
Br126	Br	0.643191	0.664206	0.254394
H127	H	0.182162	0.539041	0.132126
H128	H	0.682162	1.039041	0.632126
Br129	Br	0.175860	0.341336	0.117570
Br130	Br	0.675860	0.841336	0.617570
H131	H	0.185329	0.689172	0.122055
H132	H	0.685329	1.189172	0.622055
