data_functionalizedCrystal
_audit_creation_method	'MofGen! by Chris Wilmer'
_symmetry_space_group_name_H-M	'P1'
_symmetry_Int_Tables_number	1
_symmetry_cell_setting	triclinic
loop_
_symmetry_equiv_pos_as_xyz
  x,y,z
_cell_length_a	8.497367
_cell_length_b	8.497374
_cell_length_c	18.050591
_cell_angle_alpha	90.009569
_cell_angle_beta	90.037463
_cell_angle_gamma	90.038609
loop_
_atom_site_label
_atom_site_type_symbol
_atom_site_fract_x
_atom_site_fract_y
_atom_site_fract_z
Zn1	Zn	0.628498	0.892803	1.135528
Zn2	Zn	0.892244	0.629222	1.135597
Zn3	Zn	0.628453	0.628994	1.011372
Zn4	Zn	0.892212	0.892917	1.011429
O5	O	0.760352	0.760984	1.073481
O6	O	0.663517	0.857886	1.239462
O7	O	0.857247	0.408429	1.119123
O8	O	0.407697	0.663845	1.027788
O9	O	0.857290	0.664234	1.239512
O10	O	0.407730	0.857664	1.119005
O11	O	0.663441	0.408262	1.027855
O12	O	0.663409	0.663956	0.907455
O13	O	0.857235	1.113664	1.027886
O14	O	0.857192	0.857860	0.907497
O15	O	0.663486	1.113580	1.119061
O16	O	1.113003	0.664345	1.119178
O17	O	1.112979	0.858081	1.027953
C18	C	0.760293	0.760897	0.880529
C19	C	0.760306	0.760897	0.797983
C20	C	1.348872	0.760838	1.073430
C21	C	1.170228	0.761127	1.073523
C22	C	0.760354	1.172464	1.073476
C23	C	0.760371	1.351108	1.073477
C24	C	0.654805	0.655695	0.598488
C25	C	0.798686	0.616997	0.549145
C26	C	0.760354	0.760968	0.646853
C27	C	0.616523	0.799661	0.549114
C28	C	0.760388	0.761034	0.500868
C29	C	0.904311	0.722196	0.598597
C30	C	0.722051	0.904927	0.598571
C31	C	0.866031	0.866284	0.549250
C32	C	0.760333	0.760926	0.730951
C33	C	0.760425	0.761076	0.416771
C34	C	0.760412	0.761072	1.267187
C35	C	0.760438	0.761110	1.349733
H36	H	0.831109	0.495282	0.527435
O37	O	0.683413	1.050007	0.624624
C38	C	0.641343	1.212727	0.732137
C39	C	0.685185	1.048363	0.702729
H40	H	0.642728	1.211443	0.795288
H41	H	0.730093	1.302881	0.711086
H42	H	0.518626	1.245513	0.711801
H43	H	0.807864	1.015429	0.723053
H44	H	0.596334	0.958305	0.723775
H45	H	1.025997	0.689361	0.620240
O46	O	0.471522	0.838870	0.523096
C47	C	0.318133	1.021343	0.450815
C48	C	0.482439	0.977120	0.480215
H49	H	0.326898	1.133139	0.416152
H50	H	0.270520	0.921397	0.415096
H51	H	0.235311	1.042286	0.499484
H52	H	0.565379	0.956202	0.431592
H53	H	0.529923	1.077090	0.515956
O54	O	0.972429	0.972707	0.523579
C55	C	1.015179	1.207505	0.451487
C56	C	0.894510	1.087124	0.480525
H57	H	0.952233	1.300022	0.416659
H58	H	1.076241	1.267018	0.500283
H59	H	1.106429	1.144516	0.415977
H60	H	0.803165	1.149993	0.516023
H61	H	0.833568	1.027615	0.431694
O62	O	0.548413	0.549267	0.624164
C63	C	0.354192	0.353325	0.593030
C64	C	0.474644	0.473769	0.563852
H65	H	0.294493	0.292275	0.544282
H66	H	0.416992	0.262036	0.628629
H67	H	0.261834	0.416588	0.627789
H68	H	0.567033	0.410642	0.529061
H69	H	0.411734	0.565051	0.528293
