data_functionalizedCrystal
_audit_creation_method	'MofGen! by Chris Wilmer'
_symmetry_space_group_name_H-M	'P1'
_symmetry_Int_Tables_number	1
_symmetry_cell_setting	triclinic
loop_
_symmetry_equiv_pos_as_xyz
  x,y,z
_cell_length_a	15.698487
_cell_length_b	17.052862
_cell_length_c	17.052862
_cell_angle_alpha	61.493325
_cell_angle_beta	90.001087
_cell_angle_gamma	70.264613
loop_
_atom_site_label
_atom_site_type_symbol
_atom_site_fract_x
_atom_site_fract_y
_atom_site_fract_z
Zr1	Zr	0.987260	0.816672	-0.200433
O2	O	0.893187	0.944568	-0.328563
O3	O	0.995386	0.665950	-0.146242
O4	O	1.041032	0.783753	-0.307053
O5	O	0.835095	0.860692	-0.057865
O6	O	1.181215	0.783751	-0.307049
O7	O	0.847541	0.826765	-0.167752
O8	O	1.099563	0.573024	-0.019386
O9	O	0.916747	1.071419	-0.345527
O10	O	1.128493	0.736397	-0.141143
O11	O	1.014587	0.761718	-0.059139
O12	O	1.068330	0.900415	-0.248473
O13	O	0.954424	0.925736	-0.166469
Zr14	Zr	1.190986	0.870779	-0.025168
Zr15	Zr	1.210836	0.816669	-0.200426
Zr16	Zr	0.967410	0.870782	-0.025175
Zr17	Zr	1.024836	1.018986	-0.227488
Zr18	Zr	1.153410	0.668465	0.001887
O19	O	1.182860	1.021500	-0.079359
O20	O	1.211084	0.944563	-0.328553
O21	O	0.864963	1.021505	-0.079370
O22	O	1.285059	0.742883	0.102962
O23	O	1.313283	0.665946	-0.146232
O24	O	0.967162	0.742887	0.102952
O25	O	1.343151	0.826759	-0.167736
O26	O	1.137214	0.903698	0.081452
O27	O	0.997030	0.903700	0.081447
O28	O	1.330705	0.860686	-0.057849
O29	O	1.094461	1.071417	-0.345521
O30	O	1.083785	0.616034	0.119920
O31	O	1.261498	0.616032	0.119926
O32	O	1.277276	0.573022	-0.019381
O33	O	0.900970	1.114429	-0.206220
O34	O	1.078683	1.114427	-0.206215
O35	O	1.109916	0.787036	0.022872
O36	O	1.223822	0.761715	-0.059132
O37	O	1.163659	0.925733	-0.166462
O38	O	1.049753	0.951054	-0.084458
C39	C	1.042120	0.590662	-0.078959
C40	C	1.026168	0.504774	-0.067474
C41	C	1.219031	0.209808	-0.206333
C42	C	1.234017	0.290506	-0.217130
C43	C	1.182057	0.344077	-0.179717
C44	C	1.115106	0.316942	-0.131505
C45	C	1.100114	0.236240	-0.120712
C46	C	1.063139	0.370509	-0.094096
C47	C	0.996189	0.343374	-0.045884
C48	C	0.981200	0.262679	-0.035094
C49	C	1.033160	0.209109	-0.072507
C50	C	1.078132	0.451211	-0.104889
C51	C	0.959215	0.477643	-0.019268
C52	C	0.944229	0.396945	-0.008471
C53	C	0.809463	0.843729	-0.112809
C54	C	0.714549	0.843730	-0.112812
C55	C	0.637467	0.843733	-0.112811
C56	C	0.540768	0.843730	-0.112801
C57	C	1.368783	0.843722	-0.112792
C58	C	1.463697	0.843721	-0.112789
C59	C	1.113952	0.776042	-0.332021
C60	C	1.122379	0.753072	-0.406423
C61	C	1.136125	1.096789	-0.146642
C62	C	1.152077	1.182677	-0.158127
C63	C	1.020500	1.030791	-0.840255
C64	C	1.012577	1.052377	-0.770353
C65	C	1.040027	0.977552	-0.679368
C66	C	1.075401	0.881139	-0.658290
C67	C	1.083318	0.859551	-0.728199
C68	C	1.102845	0.806312	-0.567311
C69	C	1.138218	0.709898	-0.546233
C70	C	1.146134	0.688315	-0.616137
C71	C	1.118684	0.763139	-0.707122
C72	C	1.094928	0.827900	-0.497403
C73	C	1.157745	0.656660	-0.385346
C74	C	1.165668	0.635074	-0.455248
C75	C	1.064294	0.911408	0.106420
C76	C	1.055867	0.934379	0.180822
C77	C	1.321780	0.590658	-0.078950
C78	C	1.400742	0.504769	-0.067462
C79	C	1.017291	0.658345	0.140261
C80	C	0.992912	0.595428	0.226148
C81	C	1.296951	0.658341	0.140270
C82	C	1.367486	0.595423	0.226160
C83	C	0.881294	1.029110	-0.365871
C84	C	0.810759	1.092027	-0.451761
C85	C	0.856465	1.096793	-0.146651
C86	C	0.777503	1.182681	-0.158139
C87	C	1.160954	1.029106	-0.365863
C88	C	1.185333	1.092023	-0.451749
C89	C	1.388064	0.451217	-0.104883
C90	C	1.462252	0.370522	-0.094106
C91	C	1.549117	0.343376	-0.045903
C92	C	1.561795	0.396937	-0.008481
C93	C	1.487609	0.477635	-0.019264
C94	C	1.031224	0.579100	0.309298
C95	C	1.008314	0.519997	0.390003
C96	C	0.947099	0.477217	0.387557
C97	C	0.908783	0.493551	0.304398
C98	C	0.931687	0.552659	0.223694
C99	C	1.460077	0.552659	0.223690
C100	C	1.526364	0.493551	0.304384
C101	C	1.500057	0.477202	0.387549
C102	C	1.407457	0.519973	0.390017
C103	C	1.341173	0.579086	0.309323
C104	C	0.718170	1.134801	-0.449292
C105	C	0.651888	1.193935	-0.529990
C106	C	0.678196	1.210288	-0.613155
C107	C	0.770795	1.167512	-0.615623
C108	C	0.837076	1.108385	-0.534926
C109	C	0.790184	1.236240	-0.120726
C110	C	0.716002	1.316952	-0.131525
C111	C	0.629138	1.344099	-0.179732
C112	C	0.616459	1.290536	-0.217149
C113	C	0.690642	1.209830	-0.206356
C114	C	1.246552	1.134785	-0.449274
C115	C	1.269476	1.193893	-0.529966
C116	C	1.231176	1.210243	-0.613133
C117	C	1.169954	1.167473	-0.615606
C118	C	1.147036	1.108361	-0.534914
H119	H	1.020966	0.143393	-0.063714
C120	C	1.031355	1.001295	-0.602477
H121	H	1.006375	1.069431	-0.628060
H122	H	0.991771	0.974560	-0.565943
H123	H	1.090591	0.974556	-0.565998
H124	H	0.792206	1.180834	-0.683346
C125	C	0.547545	1.432874	-0.191595
H126	H	0.567544	1.460873	-0.162399
H127	H	0.525067	1.479007	-0.254553
H128	H	0.499690	1.413500	-0.165130
H129	H	0.983777	1.130877	-0.787521
H130	H	1.066125	0.906401	-0.514573
C131	C	0.689220	1.116825	-0.357819
H132	H	0.741947	1.075480	-0.310104
H133	H	0.662238	1.176654	-0.359436
H134	H	0.645617	1.087239	-0.347481
H135	H	1.386050	0.506653	0.457741
C136	C	0.729962	1.375850	-0.090352
H137	H	0.792316	1.348107	-0.060083
H138	H	0.715794	1.440632	-0.137481
H139	H	0.690396	1.375127	-0.048071
C140	C	0.550037	1.240970	-0.527258
H141	H	0.543867	1.222744	-0.466167
H142	H	0.530006	1.309290	-0.562924
H143	H	0.513406	1.219872	-0.550984
C144	C	0.520905	1.320401	-0.270166
H145	H	0.478546	1.376131	-0.271221
H146	H	0.525289	1.334500	-0.330698
H147	H	0.499920	1.268996	-0.241267
H148	H	1.265781	0.613898	0.311347
H149	H	0.624217	1.258435	-0.678857
C150	C	1.098557	0.626154	0.312001
H151	H	1.106724	0.663693	0.252033
H152	H	1.074140	0.666608	0.336832
H153	H	1.156355	0.577183	0.348802
H154	H	1.194262	0.409784	-0.188511
H155	H	0.912465	1.073556	-0.536947
C156	C	0.676678	1.150913	-0.247500
H157	H	0.614317	1.178640	-0.277745
H158	H	0.716235	1.151618	-0.289780
H159	H	0.690849	1.086133	-0.200352
H160	H	1.554038	0.429066	0.453249
C161	C	1.288694	1.116808	-0.357801
H162	H	1.328443	1.150738	-0.367895
H163	H	1.240730	1.139007	-0.330517
H164	H	1.322932	1.049581	-0.318563
H165	H	1.125135	0.745570	-0.764047
H166	H	1.319324	1.228713	-0.527935
C167	C	0.885725	1.206392	-0.067696
H168	H	0.882642	1.249863	-0.046973
H169	H	0.904045	1.142712	-0.016994
H170	H	0.929428	1.208212	-0.106418
H171	H	0.998149	1.091703	-0.914336
C172	C	1.256385	1.275275	-0.701887
H173	H	1.298324	1.298406	-0.688494
H174	H	1.284295	1.239070	-0.729983
H175	H	1.202084	1.328487	-0.741933
H176	H	1.317343	0.473314	-0.144146
C177	C	1.489033	0.570635	0.132219
H178	H	1.553674	0.536704	0.142316
H179	H	1.457355	0.548436	0.104933
H180	H	1.473952	0.637861	0.092981
C181	C	0.921912	0.412197	0.476334
H182	H	0.879962	0.389058	0.462974
H183	H	0.976216	0.359003	0.516379
H184	H	0.894004	0.448427	0.504412
H185	H	1.180094	0.595732	-0.311262
H186	H	1.451911	0.326921	-0.124581
C187	C	1.628212	0.446502	0.301654
H188	H	1.634377	0.464694	0.240567
H189	H	1.664853	0.467598	0.325364
H190	H	1.648233	0.378178	0.337337
H191	H	1.174929	0.609808	-0.598968
H192	H	0.858939	0.458711	0.302421
H193	H	1.138775	1.180795	-0.683331
H194	H	0.900489	0.565942	0.155995
H195	H	1.132643	0.473297	-0.144144
C196	C	1.307658	0.320348	-0.270155
H197	H	1.336463	0.276883	-0.290884
H198	H	1.279260	0.384031	-0.320853
H199	H	1.352699	0.318522	-0.231430
H200	H	1.097183	1.073549	-0.536942
H201	H	1.261326	0.166191	-0.236796
C202	C	1.050477	0.502031	0.481466
H203	H	1.090226	0.535963	0.471359
H204	H	1.002518	0.524235	0.508753
H205	H	1.084716	0.434806	0.520708
H206	H	0.926677	0.240596	0.004155
H207	H	0.889717	0.374840	0.030782
C208	C	1.204568	0.529026	-0.432072
H209	H	1.205343	0.526891	-0.486738
H210	H	1.265581	0.497380	-0.397594
H211	H	1.166760	0.497386	-0.397598
C212	C	0.902053	0.536559	0.021890
H213	H	0.860024	0.508850	0.052137
H214	H	0.942145	0.535839	0.064168
H215	H	0.868710	0.601344	-0.025257
C216	C	1.630710	0.254602	-0.034039
H217	H	1.610708	0.226594	-0.063224
H218	H	1.678571	0.273962	-0.060491
H219	H	1.653177	0.208467	0.028926
H220	H	1.632530	0.374823	0.030766
C221	C	1.501561	0.536537	0.021902
H222	H	1.444945	0.588494	0.008576
H223	H	1.521485	0.495982	0.085967
H224	H	1.546859	0.561491	-0.003457
