data_functionalizedCrystal
_audit_creation_method	'MofGen! by Chris Wilmer'
_symmetry_space_group_name_H-M	'P1'
_symmetry_Int_Tables_number	1
_symmetry_cell_setting	triclinic
loop_
_symmetry_equiv_pos_as_xyz
  x,y,z
_cell_length_a	10.654559
_cell_length_b	14.519709
_cell_length_c	9.730223
_cell_angle_alpha	89.997715
_cell_angle_beta	89.999563
_cell_angle_gamma	84.084414
loop_
_atom_site_label
_atom_site_type_symbol
_atom_site_fract_x
_atom_site_fract_y
_atom_site_fract_z
O1	O	1.666581	0.129569	-0.114301
O2	O	2.166581	0.629569	0.385699
O3	O	1.300986	0.141901	-0.114302
O4	O	1.800986	0.641901	0.385698
O5	O	1.493477	0.001547	-0.114289
O6	O	1.993477	0.501547	0.385711
O7	O	1.474090	0.269923	-0.114314
O8	O	1.974090	0.769923	0.385686
O9	O	1.493475	0.001550	0.114291
O10	O	1.993475	0.501550	0.614291
O11	O	1.300984	0.141904	0.114278
O12	O	1.800984	0.641904	0.614278
O13	O	1.666579	0.129572	0.114279
O14	O	2.166579	0.629572	0.614279
Zn15	Zn	1.483781	0.135739	0.150571
Zn16	Zn	1.983781	0.635739	0.650571
Zn17	Zn	1.483784	0.135734	-0.150593
Zn18	Zn	1.983784	0.635734	0.349407
O19	O	1.474088	0.269926	0.114266
O20	O	1.974088	0.769926	0.614266
C21	C	1.254196	0.140995	-0.000012
C22	C	1.754196	0.640995	0.499988
C23	C	1.114779	0.138281	-0.000012
C24	C	1.614779	0.638281	0.499988
C25	C	1.492572	-0.032816	0.000001
C26	C	1.992572	0.467184	0.500001
C27	C	1.489865	-0.135211	0.000002
C28	C	1.989865	0.364789	0.500002
C29	C	1.064058	0.053091	-0.000001
C30	C	1.564058	0.553091	0.499999
C31	C	0.933061	0.050547	-0.000011
C32	C	1.433061	0.550547	0.499989
C33	C	0.903515	0.218388	-0.000038
C34	C	1.403515	0.718388	0.499962
C35	C	1.034510	0.220932	-0.000038
C36	C	1.534510	0.720932	0.499962
C37	C	1.144327	-0.029560	0.000025
C38	C	1.644327	0.470440	0.500025
C39	C	1.093608	-0.114756	0.000038
C40	C	1.593608	0.385244	0.500038
C41	C	0.962610	-0.117301	0.000028
C42	C	1.462610	0.382699	0.500028
C43	C	0.882332	-0.034650	0.000005
C44	C	1.382332	0.465350	0.500005
C45	C	1.479898	-0.510159	-0.000034
C46	C	1.979898	-0.010159	0.499966
C47	C	1.482665	-0.405837	-0.000023
C48	C	1.982665	0.094163	0.499977
C49	C	1.484881	-0.322688	-0.000015
C50	C	1.984881	0.177312	0.499985
C51	C	1.487649	-0.218359	-0.000007
C52	C	1.987649	0.281641	0.499993
C53	C	1.713369	0.130478	-0.000014
C54	C	2.213369	0.630478	0.499986
C55	C	1.852786	0.133192	-0.000023
C56	C	2.352786	0.633192	0.499977
C57	C	1.474993	0.304289	-0.000027
C58	C	1.974993	0.804289	0.499973
C59	C	1.477700	0.406684	-0.000037
C60	C	1.977700	0.906684	0.499963
N61	N	1.483788	0.135742	0.356107
N62	N	1.983788	0.635742	0.856107
N63	N	1.483787	0.135724	-0.356130
N64	N	1.983787	0.635724	0.143870
C65	C	1.569045	0.073614	0.428039
C66	C	2.069045	0.573614	0.928039
C67	C	1.569042	0.073603	0.571922
C68	C	2.069042	0.573603	1.071922
C69	C	1.398521	0.197855	0.571928
C70	C	1.898521	0.697855	1.071928
C71	C	1.398519	0.197861	0.428048
C72	C	1.898519	0.697861	0.928048
C73	C	1.654314	0.011495	0.356098
C74	C	2.154314	0.511495	0.856098
C75	C	1.739579	-0.050637	0.428030
C76	C	2.239579	0.449363	0.928030
C77	C	1.739576	-0.050648	0.571913
C78	C	2.239576	0.449352	1.071913
C79	C	1.654308	0.011472	0.643864
C80	C	2.154308	0.511472	1.143864
H81	H	1.250994	-0.027497	0.000037
H82	H	1.750994	0.472503	0.500037
Cl83	Cl	0.717648	-0.037852	-0.000019
Cl84	Cl	1.217648	0.462148	0.499981
H85	H	0.921318	-0.186672	0.000025
H86	H	1.421318	0.313328	0.500025
H87	H	1.075807	0.290301	-0.000035
H88	H	1.575807	0.790301	0.499965
H89	H	1.654327	0.011500	0.238941
H90	H	2.154327	0.511500	0.738941
H91	H	0.838143	0.285679	-0.000054
H92	H	1.338143	0.785679	0.499946
H93	H	1.808994	-0.101219	0.369440
H94	H	2.308994	0.398781	0.869440
Cl95	Cl	1.194525	-0.218655	0.000051
Cl96	Cl	1.694525	0.281345	0.500051
H97	H	1.808993	-0.101244	0.630478
H98	H	2.308993	0.398756	1.130478
H99	H	1.654304	0.011452	0.761023
H100	H	2.154304	0.511452	1.261023
Cl101	Cl	1.291339	0.275947	0.662381
Cl102	Cl	1.791339	0.775947	1.162381
H103	H	1.329094	0.248450	0.369481
H104	H	1.829094	0.748450	0.869481
