data_functionalizedCrystal
_audit_creation_method	'MofGen! by Chris Wilmer'
_symmetry_space_group_name_H-M	'P1'
_symmetry_Int_Tables_number	1
_symmetry_cell_setting	triclinic
loop_
_symmetry_equiv_pos_as_xyz
  x,y,z
_cell_length_a	15.698487
_cell_length_b	21.606444
_cell_length_c	21.606444
_cell_angle_alpha	59.999490
_cell_angle_beta	90.001483
_cell_angle_gamma	60.011528
loop_
_atom_site_label
_atom_site_type_symbol
_atom_site_fract_x
_atom_site_fract_y
_atom_site_fract_z
Zr1	Zr	0.820834	0.677362	-0.081177
O2	O	0.684856	0.806463	-0.179992
O3	O	0.862488	0.548263	-0.050892
O4	O	0.862522	0.677367	-0.180005
O5	O	0.684828	0.677354	0.050974
O6	O	1.002704	0.677370	-0.180006
O7	O	0.684821	0.677359	-0.050880
O8	O	1.002642	0.446426	0.050952
O9	O	0.684890	0.908298	-0.179984
O10	O	0.984905	0.601365	-0.037969
O11	O	0.880295	0.601360	0.038045
O12	O	0.880335	0.753363	-0.113968
O13	O	0.775725	0.753358	-0.037954
Zr14	Zr	1.044418	0.677359	0.081266
Zr15	Zr	1.044406	0.677366	-0.081180
Zr16	Zr	0.820845	0.677355	0.081268
Zr17	Zr	0.820888	0.839778	-0.081164
Zr18	Zr	1.044363	0.514944	0.081253
O19	O	1.002763	0.806459	0.050981
O20	O	1.002747	0.806469	-0.179996
O21	O	0.684872	0.806453	0.050984
O22	O	1.180396	0.548259	0.180081
O23	O	1.180379	0.548269	-0.050896
O24	O	0.862504	0.548253	0.180084
O25	O	1.180423	0.677367	-0.050886
O26	O	1.002729	0.677354	0.180093
O27	O	0.862548	0.677352	0.180095
O28	O	1.180430	0.677363	0.050969
O29	O	0.862600	0.908301	-0.179986
O30	O	1.002651	0.446420	0.180074
O31	O	1.180361	0.446423	0.180072
O32	O	1.180352	0.446429	0.050950
O33	O	0.684899	0.908293	-0.050861
O34	O	0.862609	0.908296	-0.050863
O35	O	0.984916	0.601358	0.114056
O36	O	1.089526	0.601363	0.038043
O37	O	0.984956	0.753362	-0.037957
O38	O	0.880346	0.753357	0.038057
C39	C	0.932557	0.474204	0.000028
C40	C	0.932534	0.405254	0.000022
C41	C	1.009916	-0.074215	0.056173
C42	C	1.009894	-0.009407	0.056165
C43	C	0.932668	0.079083	0.000053
C44	C	0.855465	0.102766	-0.056059
C45	C	0.855492	0.037958	-0.056054
C46	C	0.855353	0.364128	-0.056082
C47	C	0.855329	0.428936	-0.056082
C48	C	1.009755	0.316763	0.056136
C49	C	1.009782	0.251956	0.056142
C50	C	0.932583	0.275643	0.000028
C51	C	0.932609	0.205371	0.000036
C52	C	0.932636	0.149356	0.000047
C53	C	0.652970	0.677356	0.000047
C54	C	0.558058	0.677354	0.000048
C55	C	0.384272	0.677370	0.000041
C56	C	0.480976	0.677365	0.000044
C57	C	1.212281	0.677366	0.000041
C58	C	1.307193	0.677367	0.000040
C59	C	0.932611	0.677370	-0.203150
C60	C	0.932607	0.677373	-0.272113
C61	C	0.932694	0.880518	0.000061
C62	C	0.932717	0.949468	0.000066
C63	C	0.878022	0.756714	-0.344182
C64	C	0.878031	0.756711	-0.408977
C65	C	0.932619	0.677367	-0.401701
C66	C	0.987211	0.598020	-0.329624
C67	C	0.987207	0.598023	-0.264831
C68	C	0.987227	0.598004	-0.590927
C69	C	0.987224	0.598007	-0.655728
C70	C	0.878051	0.756693	-0.735073
C71	C	0.878047	0.756696	-0.670280
C72	C	0.932643	0.677349	-0.598209
C73	C	0.932634	0.677353	-0.527952
C74	C	0.932622	0.677362	-0.471957
C75	C	0.932640	0.677352	0.203239
C76	C	0.932645	0.677349	0.272201
C77	C	1.212212	0.474209	0.000025
C78	C	1.307101	0.405261	0.000018
C79	C	0.932571	0.474195	0.203222
C80	C	0.932553	0.405242	0.272179
C81	C	1.212226	0.474200	0.203219
C82	C	1.307120	0.405249	0.272175
C83	C	0.653025	0.880522	-0.203131
C84	C	0.558131	0.949473	-0.272087
C85	C	0.653039	0.880513	0.000064
C86	C	0.558150	0.949461	0.000070
C87	C	0.932680	0.880527	-0.203134
C88	C	0.932698	0.949479	-0.272091
C89	C	1.297051	0.372883	-0.039669
C90	C	1.386201	0.308108	-0.039690
C91	C	1.485400	0.275707	-0.000020
C92	C	1.495448	0.308092	0.039668
C93	C	1.406299	0.372870	0.039685
C94	C	0.987155	0.372861	0.344246
C95	C	0.987134	0.308081	0.409045
C96	C	0.932515	0.275681	0.401775
C97	C	0.877906	0.308069	0.329700
C98	C	0.877922	0.372851	0.264903
C99	C	1.406299	0.372871	0.264879
C100	C	1.495470	0.308094	0.329664
C101	C	1.485461	0.275690	0.401744
C102	C	1.386273	0.308074	0.409039
C103	C	1.297103	0.372855	0.344255
C104	C	0.458953	0.981858	-0.264791
C105	C	0.369781	1.046656	-0.329576
C106	C	0.379790	1.079063	-0.401656
C107	C	0.478978	1.046675	-0.408951
C108	C	0.568148	0.981883	-0.344166
C109	C	0.568200	0.981846	0.039751
C110	C	0.479050	1.046639	0.039754
C111	C	0.379851	1.079041	0.000081
C112	C	0.369803	1.046654	-0.039604
C113	C	0.458952	0.981867	-0.039611
C114	C	0.987327	0.981860	-0.264797
C115	C	0.987365	1.046639	-0.329583
C116	C	0.932767	1.079042	-0.401662
C117	C	0.878137	1.046655	-0.408955
C118	C	0.878106	0.981872	-0.344170
H119	H	1.072665	0.179904	0.101836
H120	H	0.792435	0.500993	-0.101775
H121	H	0.833592	0.821306	-0.676212
H122	H	1.031606	0.281719	0.467724
H123	H	1.576226	0.281733	0.323711
H124	H	1.031655	0.533415	-0.206148
H125	H	1.414497	0.399224	0.072007
H126	H	0.833462	0.399208	0.206226
H127	H	0.648900	0.955515	-0.350116
H128	H	1.031850	1.073002	-0.323630
H129	H	1.031632	0.399234	0.350180
H130	H	0.932801	1.131793	-0.454408
H131	H	0.648964	0.955469	0.072062
H132	H	0.833685	1.073048	-0.467651
H133	H	0.487251	1.072998	0.072073
H134	H	0.307269	1.131795	0.000094
H135	H	0.289023	1.073046	-0.071904
H136	H	0.450754	0.955501	-0.071922
H137	H	1.558077	0.222941	0.454490
H138	H	0.487115	1.073069	-0.467646
H139	H	1.378139	0.281681	0.467735
H140	H	1.031683	0.533395	-0.532252
H141	H	1.031663	0.533416	-0.323704
H142	H	0.932511	0.222931	0.454543
H143	H	1.031787	0.955487	-0.206111
H144	H	0.833616	0.955515	-0.350119
H145	H	1.216351	0.399208	0.350206
H146	H	1.414468	0.399245	0.206193
H147	H	1.072799	-0.146266	0.101868
H148	H	0.792490	0.383426	-0.101772
H149	H	1.072759	-0.028698	0.101851
H150	H	1.072617	0.297482	0.101825
H151	H	0.833584	0.821319	-0.467657
H152	H	1.576228	0.281702	0.071967
H153	H	0.450783	0.955476	-0.206105
H154	H	0.833438	0.281678	0.323792
H155	H	0.289026	1.073015	-0.323621
H156	H	0.307174	1.131821	-0.454401
H157	H	1.216287	0.399262	-0.071983
H158	H	0.792589	0.174821	-0.101749
H159	H	0.792631	0.057247	-0.101743
H160	H	0.833563	0.821325	-0.350116
H161	H	0.833599	0.821301	-0.793763
H162	H	1.378000	0.281748	-0.072009
H163	H	1.031680	0.533391	-0.649795
H164	H	1.557983	0.222960	-0.000039
