data_functionalizedCrystal
_audit_creation_method	'MofGen! by Chris Wilmer'
_symmetry_space_group_name_H-M	'P1'
_symmetry_Int_Tables_number	1
_symmetry_cell_setting	triclinic
loop_
_symmetry_equiv_pos_as_xyz
  x,y,z
_cell_length_a	6.817900
_cell_length_b	11.102193
_cell_length_c	10.943624
_cell_angle_alpha	91.863696
_cell_angle_beta	108.838799
_cell_angle_gamma	108.604125
loop_
_atom_site_label
_atom_site_type_symbol
_atom_site_fract_x
_atom_site_fract_y
_atom_site_fract_z
V1	V	-4.114277	-0.175806	-0.402556
O2	O	-4.073263	0.008482	-0.394888
O3	O	-4.091030	-0.348627	-0.399807
O4	O	-4.092258	-0.173087	-0.578122
O5	O	-4.072026	-0.168273	-0.215339
V6	V	-4.591227	-0.153765	-0.380163
O7	O	-4.389953	-0.224156	-0.451677
O8	O	-4.765748	-0.105416	-0.331041
O9	O	-4.391268	0.019056	-0.382911
O10	O	-4.749638	-0.338054	-0.387831
O11	O	-4.750875	-0.161298	-0.567380
O12	O	-4.390039	-0.156484	-0.204596
C13	C	-3.941296	-0.390758	-0.393458
C14	C	-4.003751	-0.532041	-0.392381
C15	C	-3.999138	-0.761243	-0.153864
C16	C	-3.908811	-0.676722	-0.036134
C17	C	-3.850131	-0.543975	-0.037149
C18	C	-3.881777	-0.495747	-0.155907
C19	C	-3.972104	-0.580268	-0.273636
C20	C	-4.030785	-0.713016	-0.272609
C21	C	-4.094079	-0.616562	-0.510111
C22	C	-4.152775	-0.749310	-0.509100
C23	C	-4.125725	-0.568334	-0.628868
C24	C	-4.216068	-0.652856	-0.746602
C25	C	-4.274752	-0.785610	-0.745582
C26	C	-4.243102	-0.833831	-0.626829
C27	C	-3.942862	-0.166837	-0.620915
C28	C	-4.006309	-0.165757	-0.764441
C29	C	-3.851189	-0.158486	-0.841589
C30	C	-4.039800	-0.266417	-0.947582
C31	C	-3.930777	-0.055914	-0.914189
C32	C	-4.194130	-0.273790	-0.868558
C33	C	-4.085027	-0.063191	-0.835142
C34	C	-4.273774	-0.171154	-0.941105
C35	C	-4.204344	0.061180	-0.389257
C36	C	-4.121128	0.202462	-0.390342
C37	C	-4.202778	-0.162738	-0.161797
C38	C	-4.118568	-0.163812	-0.018269
H39	H	-3.672025	-0.153274	-0.798140
H40	H	-4.021343	-0.352334	-0.996533
C41	C	-3.873988	-0.728994	0.092853
C42	C	-3.649198	-0.679674	0.170005
C43	C	-3.617023	-0.727805	0.288829
H44	H	-3.956865	-0.703945	0.137308
H45	H	-3.921740	-0.820158	0.076664
H46	H	-3.601471	-0.588530	0.186197
H47	H	-3.566273	-0.704719	0.125590
H48	H	-3.664775	-0.818969	0.272640
H49	H	-3.699912	-0.702753	0.333272
H50	H	-3.464500	-0.694357	0.341186
C51	C	-4.512667	-0.178054	-0.998805
C52	C	-4.520785	-0.068241	-1.056619
C53	C	-4.740811	-0.074550	-1.109773
H54	H	-4.595680	-0.252434	-1.062928
H55	H	-4.573392	-0.182421	-0.931506
H56	H	-4.460090	-0.063886	-1.123910
H57	H	-4.437818	0.006156	-0.992522
H58	H	-4.801536	-0.078918	-1.042475
H59	H	-4.823807	-0.148934	-1.173892
H60	H	-4.746347	-0.000039	-1.148996
C61	C	-3.752500	-0.452274	0.090692
C62	C	-3.903722	-0.479700	0.156177
C63	C	-3.813882	-0.395239	0.273936
H64	H	-3.619338	-0.462347	0.143721
H65	H	-3.722175	-0.366295	0.073116
H66	H	-3.934019	-0.565658	0.173756
H67	H	-4.036891	-0.469619	0.103186
H68	H	-3.783556	-0.309260	0.256361
H69	H	-3.680720	-0.405319	0.326954
H70	H	-3.916479	-0.413828	0.318376
C71	C	-4.307046	-0.978001	-0.625996
C72	C	-4.392966	-1.041706	-0.754514
C73	C	-4.451909	-1.174516	-0.753792
H74	H	-4.180191	-0.997356	-0.578060
H75	H	-4.415643	-1.005528	-0.586279
H76	H	-4.284377	-1.014189	-0.794212
H77	H	-4.519840	-1.022390	-0.802473
H78	H	-4.560507	-1.202043	-0.714075
H79	H	-4.325045	-1.193857	-0.705852
H80	H	-4.510232	-1.217757	-0.840989
H81	H	-4.304873	-0.365971	-0.848016
H82	H	-4.046932	-0.869332	-0.153027
H83	H	-3.833968	-0.387655	-0.156722
H84	H	-4.077932	-0.460243	-0.629686
H85	H	-4.241812	-0.613576	-0.843284
H86	H	-4.348287	-0.854421	-0.841452
H87	H	-4.103400	0.022729	-0.786156
H88	H	-3.820066	0.036144	-0.934949
