data_functionalizedCrystal
_audit_creation_method	'MofGen! by Chris Wilmer'
_symmetry_space_group_name_H-M	'P1'
_symmetry_Int_Tables_number	1
_symmetry_cell_setting	triclinic
loop_
_symmetry_equiv_pos_as_xyz
  x,y,z
_cell_length_a	19.805406
_cell_length_b	19.805407
_cell_length_c	19.805399
_cell_angle_alpha	90.021725
_cell_angle_beta	89.982961
_cell_angle_gamma	89.998138
loop_
_atom_site_label
_atom_site_type_symbol
_atom_site_fract_x
_atom_site_fract_y
_atom_site_fract_z
Zn1	Zn	-0.269457	-1.034857	-0.382808
Zn2	Zn	0.063877	-0.701524	-0.049475
Zn3	Zn	0.397210	-0.368190	0.283859
Zn4	Zn	-0.382645	-1.034823	-0.269641
Zn5	Zn	-0.049312	-0.701489	0.063693
Zn6	Zn	0.284022	-0.368156	0.397026
Zn7	Zn	-0.269478	-0.921672	-0.269628
Zn8	Zn	0.063856	-0.588338	0.063705
Zn9	Zn	0.397189	-0.255005	0.397038
Zn10	Zn	-0.382611	-0.921686	-0.382783
Zn11	Zn	-0.049278	-0.588353	-0.049450
Zn12	Zn	0.284055	-0.255019	0.283883
O13	O	-0.326048	-0.978259	-0.326215
O14	O	0.007286	-0.644926	0.007118
O15	O	0.340619	-0.311593	0.340452
O16	O	-0.284476	-1.129569	-0.367812
O17	O	0.048857	-0.796236	-0.034478
O18	O	0.382190	-0.462902	0.298855
O19	O	-0.367656	-1.019793	-0.174922
O20	O	-0.034323	-0.686459	0.158411
O21	O	0.299011	-0.353126	0.491744
O22	O	-0.174758	-0.936694	-0.284647
O23	O	0.158575	-0.603361	0.048686
O24	O	0.491908	-0.270027	0.382019
O25	O	-0.367635	-1.129544	-0.284668
O26	O	-0.034302	-0.796210	0.048665
O27	O	0.299031	-0.462877	0.381998
O28	O	-0.174743	-1.019851	-0.367800
O29	O	0.158591	-0.686518	-0.034467
O30	O	0.491924	-0.353184	0.298867
O31	O	-0.284512	-0.936661	-0.174913
O32	O	0.048821	-0.603328	0.158420
O33	O	0.382154	-0.269994	0.491753
O34	O	-0.284480	-0.826957	-0.284623
O35	O	0.048853	-0.493624	0.048710
O36	O	0.382187	-0.160290	0.382044
O37	O	-0.367578	-0.936719	-0.477503
O38	O	-0.034245	-0.603385	-0.144170
O39	O	0.299088	-0.270052	0.189164
O40	O	-0.367599	-0.826968	-0.367757
O41	O	-0.034265	-0.493634	-0.034424
O42	O	0.299068	-0.160301	0.298909
O43	O	-0.284444	-1.019865	-0.477521
O44	O	0.048889	-0.686532	-0.144188
O45	O	0.382223	-0.353198	0.189145
O46	O	-0.477357	-1.019807	-0.284644
O47	O	-0.144024	-0.686473	0.048689
O48	O	0.189310	-0.353140	0.382023
O49	O	-0.477332	-0.936686	-0.367769
O50	O	-0.143999	-0.603352	-0.034436
O51	O	0.189334	-0.270019	0.298897
C52	C	-0.326038	-0.802403	-0.326187
C53	C	0.007295	-0.469070	0.007147
C54	C	0.340628	-0.135737	0.340480
C55	C	-0.326051	-0.727171	-0.326191
C56	C	0.007282	-0.393838	0.007143
C57	C	0.340616	-0.060505	0.340476
C58	C	-0.149505	-0.978275	-0.326225
C59	C	0.183828	-0.644941	0.007108
C60	C	0.517162	-0.311608	0.340442
C61	C	-0.074273	-0.978281	-0.326229
C62	C	0.259060	-0.644948	0.007104
C63	C	0.592394	-0.311615	0.340437
C64	C	-0.282819	-0.265397	-0.369584
C65	C	0.050514	0.067936	-0.036251
C66	C	0.383848	0.401270	0.297083
C67	C	-0.282821	-0.336085	-0.369581
C68	C	0.050512	-0.002752	-0.036248
C69	C	0.383846	0.330581	0.297086
C70	C	-0.326050	-0.371410	-0.326223
C71	C	0.007283	-0.038076	0.007110
C72	C	0.340616	0.295257	0.340444
C73	C	-0.369285	-0.336042	-0.282871
C74	C	-0.035952	-0.002708	0.050463
C75	C	0.297381	0.330625	0.383796
C76	C	-0.369286	-0.265355	-0.282878
C77	C	-0.035953	0.067979	0.050456
C78	C	0.297381	0.401312	0.383789
C79	C	-0.369284	-0.621115	-0.282841
C80	C	-0.035950	-0.287782	0.050492
C81	C	0.297383	0.045552	0.383825
C82	C	-0.369278	-0.691807	-0.282836
C83	C	-0.035945	-0.358474	0.050497
C84	C	0.297389	-0.025140	0.383831
C85	C	-0.282819	-0.691846	-0.369544
C86	C	0.050515	-0.358512	-0.036211
C87	C	0.383848	-0.025179	0.297122
C88	C	-0.282819	-0.621159	-0.369552
C89	C	0.050514	-0.287825	-0.036218
C90	C	0.383847	0.045508	0.297115
C91	C	-0.326057	-0.585797	-0.326202
C92	C	0.007277	-0.252464	0.007131
C93	C	0.340610	0.080870	0.340465
C94	C	-0.326055	-0.509149	-0.326207
C95	C	0.007279	-0.175815	0.007126
C96	C	0.340612	0.157518	0.340460
C97	C	-0.326049	-0.448057	-0.326214
C98	C	0.007284	-0.114723	0.007119
C99	C	0.340617	0.218610	0.340452
C100	C	-0.501904	-0.978262	-0.326220
C101	C	-0.168570	-0.644929	0.007113
C102	C	0.164763	-0.311596	0.340447
C103	C	-0.577136	-0.978325	-0.326245
C104	C	-0.243802	-0.644992	0.007089
C105	C	0.089531	-0.311659	0.340422
C106	C	-0.038918	-0.935007	-0.369507
C107	C	0.294415	-0.601673	-0.036174
C108	C	0.627749	-0.268340	0.297159
C109	C	0.031771	-0.935015	-0.369512
C110	C	0.365104	-0.601682	-0.036179
C111	C	0.698437	-0.268348	0.297154
C112	C	0.067103	-0.978295	-0.326235
C113	C	0.400436	-0.644961	0.007098
C114	C	0.733769	-0.311628	0.340431
C115	C	0.031743	-1.021574	-0.282955
C116	C	0.365076	-0.688241	0.050378
C117	C	0.698409	-0.354907	0.383711
C118	C	-0.038945	-1.021569	-0.282954
C119	C	0.294389	-0.688235	0.050379
C120	C	0.627722	-0.354902	0.383712
C121	C	0.316816	-1.021597	-0.282960
C122	C	0.650149	-0.688263	0.050374
C123	C	0.983483	-0.354930	0.383707
C124	C	0.387508	-1.021597	-0.282963
C125	C	0.720841	-0.688264	0.050371
C126	C	1.054175	-0.354930	0.383704
C127	C	0.387531	-0.935043	-0.369518
C128	C	0.720864	-0.601709	-0.036185
C129	C	1.054198	-0.268376	0.297149
C130	C	0.316844	-0.935038	-0.369517
C131	C	0.650177	-0.601704	-0.036183
C132	C	0.983511	-0.268371	0.297150
C133	C	0.281490	-0.978319	-0.326240
C134	C	0.614823	-0.644986	0.007094
C135	C	0.948157	-0.311652	0.340427
C136	C	0.204842	-0.978311	-0.326235
C137	C	0.538175	-0.644977	0.007098
C138	C	0.871508	-0.311644	0.340431
C139	C	0.143750	-0.978300	-0.326236
C140	C	0.477083	-0.644967	0.007098
C141	C	0.810416	-0.311634	0.340431
C142	C	-0.326005	-0.978297	-0.502758
C143	C	0.007328	-0.644964	-0.169425
C144	C	0.340662	-0.311631	0.163909
C145	C	-0.325987	-0.978313	-0.577990
C146	C	0.007346	-0.644980	-0.244657
C147	C	0.340680	-0.311647	0.088677
C148	C	-0.326054	-0.154802	-0.326238
C149	C	0.007279	0.178531	0.007095
C150	C	0.340612	0.511865	0.340428
C151	C	-0.326049	-0.230034	-0.326234
C152	C	0.007284	0.103299	0.007100
C153	C	0.340618	0.436633	0.340433
C154	C	-0.282697	-1.021609	-0.613345
C155	C	0.050637	-0.688275	-0.280011
C156	C	0.383970	-0.354942	0.053322
C157	C	-0.282677	-1.021616	-0.684033
C158	C	0.050656	-0.688282	-0.350700
C159	C	0.383990	-0.354949	-0.017367
C160	C	-0.325952	-0.978330	-0.719366
C161	C	0.007382	-0.644997	-0.386032
C162	C	0.340715	-0.311664	-0.052699
C163	C	-0.369244	-0.935030	-0.684006
C164	C	-0.035910	-0.601697	-0.350673
C165	C	0.297423	-0.268364	-0.017339
C166	C	-0.369259	-0.935020	-0.613319
C167	C	-0.035926	-0.601687	-0.279985
C168	C	0.297407	-0.268354	0.053348
C169	C	-0.369181	-0.935068	-0.969079
C170	C	-0.035847	-0.601735	-0.635746
C171	C	0.297486	-0.268402	-0.302413
C172	C	-0.369163	-0.935083	-1.039771
C173	C	-0.035830	-0.601750	-0.706438
C174	C	0.297504	-0.268416	-0.373105
C175	C	-0.282598	-1.021664	-1.039794
C176	C	0.050735	-0.688330	-0.706461
C177	C	0.384068	-0.354997	-0.373127
C178	C	-0.282614	-1.021654	-0.969107
C179	C	0.050719	-0.688320	-0.635773
C180	C	0.384053	-0.354987	-0.302440
C181	C	-0.325903	-0.978352	-0.933753
C182	C	0.007430	-0.645018	-0.600420
C183	C	0.340763	-0.311685	-0.267086
C184	C	-0.325923	-0.978344	-0.857105
C185	C	0.007410	-0.645010	-0.523771
C186	C	0.340744	-0.311677	-0.190438
C187	C	-0.325936	-0.978341	-0.796013
C188	C	0.007398	-0.645008	-0.462679
C189	C	0.340731	-0.311674	-0.129346
C190	C	-0.326041	-0.978260	-0.150359
C191	C	0.007292	-0.644927	0.182974
C192	C	0.340625	-0.311594	0.516308
C193	C	-0.325869	-0.978375	-0.075128
C194	C	0.007465	-0.645042	0.258206
C195	C	0.340798	-0.311709	0.591539
H196	H	-0.247612	-0.236641	-0.404887
H197	H	0.085721	0.096692	-0.071554
H198	H	0.419054	0.430026	0.261780
H199	H	-0.404439	-0.899819	-0.940303
H200	H	-0.071106	-0.566486	-0.606970
H201	H	0.262227	-0.233152	-0.273636
F202	F	-0.236641	-1.067683	-0.575748
F203	F	0.096693	-0.734350	-0.242414
F204	F	0.430026	-0.401016	0.090919
H205	H	-0.404504	-0.899758	-0.584534
H206	H	-0.071171	-0.566425	-0.251200
H207	H	0.262163	-0.233091	0.082133
H208	H	-0.247615	-0.720646	-0.404844
H209	H	0.085719	-0.387312	-0.071511
H210	H	0.419052	-0.053979	0.261823
F211	F	0.425163	-0.888981	-0.415581
F212	F	0.758496	-0.555648	-0.082248
F213	F	1.091829	-0.222315	0.251086
H214	H	-0.247427	-1.056872	-0.712816
H215	H	0.085906	-0.723539	-0.379483
H216	H	0.419239	-0.390206	-0.046149
F217	F	-0.236812	-0.373718	-0.415724
F218	F	0.096521	-0.040385	-0.082390
F219	F	0.429854	0.292949	0.250943
F220	F	-0.415291	-0.729400	-0.236686
F221	F	-0.081958	-0.396067	0.096647
F222	F	0.251376	-0.062734	0.429980
H223	H	0.288039	-1.056837	-0.247718
H224	H	0.621373	-0.723503	0.085615
H225	H	0.954706	-0.390170	0.418948
F226	F	-0.415285	-0.583489	-0.236689
F227	F	-0.081952	-0.250156	0.096644
F228	F	0.251381	0.083177	0.429977
H229	H	0.060514	-1.056817	-0.247721
H230	H	0.393847	-0.723483	0.085613
H231	H	0.727181	-0.390150	0.418946
H232	H	-0.067730	-1.056809	-0.247714
H233	H	0.265604	-0.723476	0.085619
H234	H	0.598937	-0.390142	0.418952
H235	H	-0.404476	-0.899784	-0.712779
H236	H	-0.071143	-0.566451	-0.379446
H237	H	0.262191	-0.233117	-0.046112
F238	F	-0.415297	-0.373638	-0.236729
F239	F	-0.081963	-0.040305	0.096605
F240	F	0.251370	0.293028	0.429938
H241	H	-0.247615	-0.592401	-0.404856
H242	H	0.085718	-0.259068	-0.071522
H243	H	0.419052	0.074266	0.261811
F244	F	-0.236523	-1.067748	-1.077425
F245	F	0.096810	-0.734415	-0.744092
F246	F	0.430144	-0.401081	-0.410759
H247	H	-0.404404	-0.899832	-1.068537
H248	H	-0.071070	-0.566499	-0.735204
H249	H	0.262263	-0.233165	-0.401870
H250	H	-0.247378	-1.056903	-0.940342
H251	H	0.085956	-0.723570	-0.607009
H252	H	0.419289	-0.390237	-0.273676
H253	H	-0.404490	-0.236563	-0.247578
H254	H	-0.071157	0.096770	0.085755
H255	H	0.262177	0.430104	0.419088
F256	F	0.069395	-0.888958	-0.415577
F257	F	0.402728	-0.555625	-0.082244
F258	F	0.736062	-0.222291	0.251090
F259	F	-0.076515	-0.888938	-0.415565
F260	F	0.256819	-0.555604	-0.082232
F261	F	0.590152	-0.222271	0.251101
F262	F	0.279245	-0.888973	-0.415577
F263	F	0.612578	-0.555640	-0.082244
F264	F	0.945911	-0.222306	0.251089
H265	H	0.416274	-1.056843	-0.247720
H266	H	0.749608	-0.723510	0.085613
H267	H	1.082941	-0.390177	0.418947
