data_functionalizedCrystal
_audit_creation_method	'MofGen! by Chris Wilmer'
_symmetry_space_group_name_H-M	'P1'
_symmetry_Int_Tables_number	1
_symmetry_cell_setting	triclinic
loop_
_symmetry_equiv_pos_as_xyz
  x,y,z
_cell_length_a	19.805407
_cell_length_b	19.120904
_cell_length_c	19.805399
_cell_angle_alpha	87.529423
_cell_angle_beta	90.019573
_cell_angle_gamma	87.528276
loop_
_atom_site_label
_atom_site_type_symbol
_atom_site_fract_x
_atom_site_fract_y
_atom_site_fract_z
Zn1	Zn	1.023213	0.279646	0.371208
Zn2	Zn	1.018288	0.397105	0.253184
Zn3	Zn	0.910026	0.279666	0.258031
Zn4	Zn	0.905152	0.397068	0.366332
O5	O	0.964170	0.338371	0.312189
O6	O	1.117276	0.295235	0.355563
O7	O	1.003905	0.381550	0.159109
O8	O	0.929142	0.181373	0.277113
O9	O	1.113657	0.381532	0.268852
O10	O	1.012299	0.181359	0.360263
O11	O	0.924366	0.295268	0.162671
O12	O	0.814664	0.295232	0.272386
O13	O	0.920835	0.381468	0.461696
O14	O	0.811083	0.381487	0.351954
O15	O	1.007573	0.295199	0.465278
O16	O	0.999179	0.495391	0.264124
O17	O	0.916059	0.495363	0.347254
C18	C	0.788314	0.338358	0.312167
C19	C	0.713082	0.338369	0.312174
C20	C	0.956574	0.520862	0.304649
C21	C	0.953386	0.598933	0.301446
C22	C	0.675888	0.383350	0.353532
C23	C	0.605199	0.383351	0.353541
C24	C	0.571706	0.338374	0.312189
C25	C	0.608905	0.293389	0.270829
C26	C	0.679592	0.293385	0.270823
C27	C	0.323831	0.293404	0.270850
C28	C	0.253139	0.293414	0.270857
C29	C	0.249438	0.383371	0.353569
C30	C	0.320126	0.383366	0.353563
C31	C	0.357319	0.338379	0.312206
C32	C	0.433967	0.338377	0.312197
C33	C	0.495059	0.338379	0.312193
C34	C	0.995152	0.635543	0.343268
C35	C	0.992154	0.708898	0.340259
C36	C	0.947394	0.745642	0.295425
C37	C	0.905623	0.709027	0.253601
C38	C	0.908618	0.635673	0.256613
C39	C	0.936183	0.967128	0.284165
C40	C	0.933193	1.040487	0.281155
C41	C	1.019724	1.040353	0.367814
C42	C	1.022717	0.966997	0.370820
C43	C	0.980945	0.930389	0.328998
C44	C	0.944330	0.820624	0.292347
C45	C	0.984006	0.855409	0.332080
C46	C	1.140712	0.338385	0.312210
C47	C	1.215944	0.338391	0.312220
C48	C	0.964210	0.338327	0.488733
C49	C	0.964227	0.338308	0.563966
C50	C	0.971786	1.155168	0.319766
C51	C	0.974959	1.077097	0.322977
C52	C	0.964171	0.338365	0.136333
C53	C	0.964294	0.338186	0.061109
C54	C	1.009392	0.293386	0.601177
C55	C	1.009400	0.293365	0.671866
C56	C	0.964245	0.338271	0.705343
C57	C	0.919074	0.383196	0.668128
C58	C	0.919064	0.383212	0.597440
C59	C	0.919115	0.383131	0.953204
C60	C	0.919131	0.383112	1.023897
C61	C	1.009451	0.293283	1.027630
C62	C	1.009441	0.293300	0.956942
C63	C	0.964268	0.338221	0.919733
C64	C	0.964259	0.338242	0.843084
C65	C	0.964256	0.338255	0.781991
H66	H	0.703153	0.419977	0.387204
H67	H	1.059165	0.937082	0.407328
C68	C	0.869449	0.432510	1.060721
N69	N	0.832031	0.469714	1.088456
C70	C	0.572060	0.243913	0.225342
N71	N	0.544309	0.206648	0.191078
H72	H	1.046213	0.256735	0.929688
H73	H	1.053732	1.070167	0.401864
C74	C	0.895155	0.861050	0.242970
N75	N	0.858136	0.891501	0.205759
C76	C	0.869397	0.432587	0.704956
N77	N	0.831978	0.469789	0.732694
C78	C	1.059135	0.243859	1.068567
N79	N	1.096555	0.206634	1.099399
H80	H	0.882279	0.419786	0.567144
H81	H	0.896740	1.070402	0.244645
C82	C	0.564289	0.432847	0.399025
N83	N	0.533475	0.470133	0.433281
C84	C	0.869422	0.432544	0.912283
N85	N	0.831989	0.469763	0.881459
H86	H	0.869175	0.738951	0.217099
C87	C	0.356964	0.432845	0.399053
N88	N	0.384710	0.470111	0.433320
H89	H	0.219147	0.419999	0.387246
C90	C	0.364734	0.243921	0.225352
N91	N	0.395545	0.206649	0.191079
C92	C	0.216298	0.243928	0.225369
N93	N	0.188549	0.206657	0.191110
H94	H	1.031604	0.605630	0.379774
C95	C	1.038109	0.749166	0.386259
N96	N	1.072727	0.779495	0.420904
C97	C	0.720505	0.243904	0.225324
N98	N	0.751320	0.206633	0.191054
C99	C	0.862673	0.595403	0.210605
N100	N	0.828064	0.565072	0.175951
H101	H	1.020447	0.825490	0.368587
C102	C	1.059067	0.243984	0.564358
N103	N	1.096481	0.206770	0.536629
H104	H	1.046180	0.256786	0.702160
H105	H	0.902172	0.937327	0.250111
