data_functionalizedCrystal
_audit_creation_method	'MofGen! by Chris Wilmer'
_symmetry_space_group_name_H-M	'P1'
_symmetry_Int_Tables_number	1
_symmetry_cell_setting	triclinic
loop_
_symmetry_equiv_pos_as_xyz
  x,y,z
_cell_length_a	23.532407
_cell_length_b	17.038272
_cell_length_c	15.500227
_cell_angle_alpha	93.043705
_cell_angle_beta	92.805592
_cell_angle_gamma	93.019883
loop_
_atom_site_label
_atom_site_type_symbol
_atom_site_fract_x
_atom_site_fract_y
_atom_site_fract_z
O1	O	0.121159	-1.040103	-0.071851
O2	O	0.621159	-0.540103	0.428149
O3	O	0.119196	-0.812488	-0.071876
O4	O	0.619196	-0.312488	0.428124
O5	O	0.037607	-0.933158	-0.071847
O6	O	0.537607	-0.433158	0.428153
O7	O	0.202748	-0.919432	-0.071880
O8	O	0.702748	-0.419432	0.428120
O9	O	0.042537	-0.925836	0.072040
O10	O	0.542537	-0.425836	0.572040
O11	O	0.124126	-0.805165	0.072011
O12	O	0.624126	-0.305165	0.572011
O13	O	0.126090	-1.032780	0.072036
O14	O	0.626090	-0.532780	0.572036
Cu15	Cu	0.125558	-0.918304	0.085162
Cu16	Cu	0.625558	-0.418304	0.585162
Cu17	Cu	0.119727	-0.926964	-0.085001
Cu18	Cu	0.619727	-0.426964	0.414999
O19	O	0.207678	-0.912110	0.072007
O20	O	0.707678	-0.412110	0.572007
C21	C	0.119875	-0.779712	0.000065
C22	C	0.619875	-0.279712	0.500065
C23	C	0.114548	-0.692959	0.000056
C24	C	0.614548	-0.192959	0.500056
C25	C	0.018838	-0.929147	0.000099
C26	C	0.518838	-0.429147	0.500099
C27	C	-0.044434	-0.928096	0.000105
C28	C	0.455566	-0.428096	0.500105
N29	N	0.129659	-0.912219	0.204845
N30	N	0.629659	-0.412219	0.704845
C31	C	-0.440131	-0.992917	0.000065
C32	C	0.059869	-0.492917	0.500065
C33	C	-0.499583	-0.991941	0.000058
C34	C	0.000417	-0.491941	0.500058
O35	O	-0.533169	-1.052030	0.000033
O36	O	-0.033169	-0.552030	0.500033
N37	N	-0.525981	-0.920202	0.000051
N38	N	-0.025981	-0.420202	0.500051
C39	C	-0.492924	-0.849435	0.000042
C40	C	0.007076	-0.349435	0.500042
O41	O	-0.520836	-0.788325	0.000034
O42	O	-0.020836	-0.288325	0.500034
C43	C	-0.433473	-0.850412	0.000042
C44	C	0.066527	-0.350412	0.500042
C45	C	-0.407078	-0.922155	0.000058
C46	C	0.092922	-0.422155	0.500058
C47	C	-0.413736	-1.064654	0.000080
C48	C	0.086264	-0.564654	0.500080
C49	C	-0.354288	-1.065630	0.000089
C50	C	0.145712	-0.565630	0.500089
C51	C	-0.321235	-0.994868	0.000082
C52	C	0.178765	-0.494868	0.500082
C53	C	-0.347631	-0.923131	0.000067
C54	C	0.152369	-0.423131	0.500067
C55	C	-0.400418	-0.779646	0.000027
C56	C	0.099582	-0.279646	0.500027
C57	C	-0.340963	-0.780629	0.000026
C58	C	0.159037	-0.280629	0.500026
C59	C	-0.314569	-0.852372	0.000043
C60	C	0.185431	-0.352372	0.500043
C61	C	-0.255130	-0.853344	0.000068
C62	C	0.244870	-0.353344	0.500068
N63	N	-0.228732	-0.925083	0.000075
N64	N	0.271268	-0.425083	0.500075
C65	C	-0.261785	-0.995845	0.000082
C66	C	0.238215	-0.495845	0.500082
C67	C	-0.617774	-0.847388	0.000039
C68	C	-0.117774	-0.347388	0.500039
C69	C	-0.677223	-0.846410	0.000045
C70	C	-0.177223	-0.346410	0.500045
C71	C	-0.683878	-0.988916	0.000060
C72	C	-0.183878	-0.488916	0.500060
C73	C	-0.624428	-0.989894	0.000061
C74	C	-0.124428	-0.489894	0.500061
C75	C	-0.591376	-0.919127	0.000047
C76	C	-0.091376	-0.419127	0.500047
C77	C	-0.136940	-0.997889	0.000100
C78	C	0.363060	-0.497889	0.500100
C79	C	-0.077487	-0.998858	0.000112
C80	C	0.422513	-0.498858	0.500112
C81	C	-0.070837	-0.856352	0.000093
C82	C	0.429163	-0.356352	0.500093
C83	C	-0.130285	-0.855382	0.000085
C84	C	0.369715	-0.355382	0.500085
C85	C	-0.163336	-0.926157	0.000086
C86	C	0.336664	-0.426157	0.500086
O87	O	-0.221508	-0.793287	0.000090
O88	O	0.278492	-0.293287	0.500090
O89	O	-0.233865	-1.056945	0.000078
O90	O	0.266135	-0.556945	0.500078
C91	C	0.226447	-0.916121	0.000059
C92	C	0.726447	-0.416121	0.500059
C93	C	0.289719	-0.917172	0.000047
C94	C	0.789719	-0.417172	0.500047
C95	C	0.125410	-1.065556	0.000094
C96	C	0.625410	-0.565556	0.500094
C97	C	0.130737	-1.152310	0.000097
C98	C	0.630737	-0.652310	0.500097
C99	C	0.163453	-0.642483	0.000046
C100	C	0.663453	-0.142483	0.500046
C101	C	0.158445	-0.560969	0.000059
C102	C	0.658445	-0.060969	0.500059
C103	C	0.104532	-0.529932	0.000075
C104	C	0.604532	-0.029932	0.500075
C105	C	0.055624	-0.580414	0.000087
C106	C	0.555624	-0.080414	0.500087
C107	C	0.060632	-0.661927	0.000080
C108	C	0.560632	-0.161927	0.500080
C109	C	0.086837	-0.284304	0.000102
C110	C	0.586837	0.215696	0.500102
C111	C	0.081832	-0.202786	0.000106
C112	C	0.581832	0.297214	0.500106
C113	C	0.184654	-0.183345	0.000080
C114	C	0.684654	0.316655	0.500080
C115	C	0.189658	-0.264860	0.000068
C116	C	0.689658	0.235140	0.500068
C117	C	0.140750	-0.315335	0.000084
C118	C	0.640750	0.184665	0.500084
C119	C	0.099412	-0.446612	0.000086
C120	C	0.599412	0.053388	0.500086
C121	C	0.145871	-0.398653	0.000080
C122	C	0.645871	0.101347	0.500080
N123	N	0.115622	-0.933055	-0.204685
N124	N	0.615622	-0.433055	0.295315
C125	C	0.095101	-0.963369	0.250134
C126	C	0.595101	-0.463369	0.750134
C127	C	0.098208	-0.958774	0.340706
C128	C	0.598208	-0.458774	0.840706
C129	C	0.135876	-0.903033	0.385987
C130	C	0.635876	-0.403033	0.885987
C131	C	0.170435	-0.851877	0.340691
C132	C	0.670435	-0.351877	0.840691
C133	C	0.167324	-0.856469	0.250121
C134	C	0.667324	-0.356469	0.750121
C135	C	0.147071	-0.886491	0.659450
C136	C	0.647071	-0.386491	1.159450
C137	C	0.150180	-0.881905	0.750026
C138	C	0.650180	-0.381905	1.250026
C139	C	0.077952	-0.988801	0.750034
C140	C	0.577952	-0.488801	1.250034
C141	C	0.074848	-0.993391	0.659462
C142	C	0.574848	-0.493391	1.159462
C143	C	0.109404	-0.942233	0.614175
C144	C	0.609404	-0.442233	1.114175
C145	C	0.139054	-0.898336	0.478566
C146	C	0.639054	-0.398336	0.978566
C147	C	0.106223	-0.946927	0.521598
C148	C	0.606223	-0.446927	1.021598
H149	H	-0.055999	-1.057282	0.000128
H150	H	0.444001	-0.557282	0.500128
C151	C	0.053666	-1.024684	0.200333
C152	C	0.553666	-0.524684	0.700333
H153	H	0.033526	-1.054483	0.240280
H154	H	0.533526	-0.554483	0.740280
H155	H	0.074519	-1.058849	0.164987
H156	H	0.574519	-0.558849	0.664987
H157	H	0.027378	-0.998541	0.165017
H158	H	0.527378	-0.498541	0.665017
H159	H	0.195464	-0.814816	0.213248
H160	H	0.695464	-0.314816	0.713248
H161	H	0.224472	-0.142240	0.000069
H162	H	0.724472	0.357760	0.500069
H163	H	0.020809	-0.703024	0.000087
H164	H	0.520809	-0.203024	0.500087
H165	H	0.047013	-0.325391	0.000116
H166	H	0.547013	0.174609	0.500116
H167	H	0.175209	-0.844838	0.622584
H168	H	0.675209	-0.344838	1.122584
C169	C	-0.325262	-1.144549	0.000090
C170	C	0.174738	-0.644549	0.500090
H171	H	-0.353468	-1.186546	0.000083
H172	H	0.146532	-0.686546	0.500083
H173	H	-0.300492	-1.145352	0.050264
H174	H	0.199508	-0.645352	0.550264
H175	H	-0.303927	-1.150444	-0.050095
H176	H	0.196073	-0.650444	0.449905
H177	H	0.011727	-0.555138	0.000112
H178	H	0.511727	-0.055138	0.500112
C179	C	0.191584	-0.820546	0.799834
C180	C	0.691584	-0.320546	1.299834
H181	H	0.211706	-0.790719	0.759892
H182	H	0.711706	-0.290719	1.259892
H183	H	0.217880	-0.846641	0.835175
H184	H	0.717880	-0.346641	1.335175
H185	H	0.170693	-0.786403	0.835156
H186	H	0.670693	-0.286403	1.335156
C187	C	-0.173287	-1.075739	0.000109
C188	C	0.326713	-0.575739	0.500109
H189	H	-0.149045	-1.118597	0.000127
H190	H	0.350955	-0.618597	0.500127
H191	H	-0.198332	-1.080884	-0.050068
H192	H	0.301668	-0.580884	0.449932
H193	H	-0.194901	-1.075766	0.050292
H194	H	0.305099	-0.575766	0.550292
H195	H	-0.710801	-1.046535	0.000062
H196	H	-0.210801	-0.546535	0.500062
C197	C	0.248960	-0.298998	0.000047
C198	C	0.748960	0.201002	0.500047
H199	H	0.244938	-0.354774	0.000034
H200	H	0.744938	0.145226	0.500034
H201	H	0.270988	-0.279102	0.050216
H202	H	0.770988	0.220898	0.550216
H203	H	0.267538	-0.284190	-0.050143
H204	H	0.767538	0.215810	0.449857
H205	H	0.169725	-0.852952	0.515441
H206	H	0.669725	-0.352952	1.015441
C207	C	0.022525	-0.168647	0.000125
C208	C	0.522525	0.331353	0.500125
H209	H	-0.005885	-0.210382	0.000141
H210	H	0.494115	0.289618	0.500141
H211	H	0.016715	-0.139802	-0.050050
H212	H	0.516715	0.360198	0.449950
H213	H	0.020158	-0.134704	0.050310
H214	H	0.520158	0.365296	0.550310
H215	H	0.198268	-0.519874	0.000051
H216	H	0.698268	-0.019874	0.500051
C217	C	0.040109	-0.412473	0.000093
C218	C	0.540109	0.087527	0.500093
H219	H	0.011697	-0.454207	0.000099
H220	H	0.511697	0.045793	0.500099
H221	H	0.034303	-0.383623	-0.050080
H222	H	0.534303	0.116377	0.449920
H223	H	0.037738	-0.378535	0.050280
H224	H	0.537738	0.121465	0.550280
H225	H	0.189767	-0.423926	0.000072
H226	H	0.689767	0.076074	0.500072
H227	H	0.049817	-1.030451	0.786915
H228	H	0.549817	-0.530451	1.286915
C229	C	-0.450085	-1.142499	0.000095
C230	C	0.049915	-0.642499	0.500095
H231	H	-0.425842	-1.185356	0.000110
H232	H	0.074158	-0.685356	0.500110
H233	H	-0.475133	-1.147647	-0.050078
H234	H	0.024867	-0.647647	0.449922
H235	H	-0.471695	-1.142526	0.050282
H236	H	0.028305	-0.642526	0.550282
C237	C	0.211851	-0.790538	0.390494
C238	C	0.711851	-0.290538	0.890494
H239	H	0.231978	-0.760722	0.350547
H240	H	0.731978	-0.260722	0.850547
H241	H	0.238143	-0.816650	0.425826
H242	H	0.738143	-0.316650	0.925826
H243	H	0.190975	-0.756383	0.425824
H244	H	0.690975	-0.256383	0.925824
C245	C	0.222757	-0.676615	0.000028
C246	C	0.722757	-0.176615	0.500028
H247	H	0.251165	-0.634876	0.000033
H248	H	0.751165	-0.134876	0.500033
H249	H	0.225130	-0.710555	-0.050151
H250	H	0.725130	-0.210555	0.449849
H251	H	0.228568	-0.705461	0.050209
H252	H	0.728568	-0.205461	0.550209
H253	H	0.070069	-1.000424	0.377580
H254	H	0.570069	-0.500424	0.877580
C255	C	-0.429439	-0.700727	0.000002
C256	C	0.070561	-0.200727	0.500002
H257	H	-0.401233	-0.658732	-0.000014
H258	H	0.098767	-0.158732	0.499986
H259	H	-0.450780	-0.694816	0.050173
H260	H	0.049220	-0.194816	0.550173
H261	H	-0.454203	-0.699940	-0.050186
H262	H	0.045797	-0.199940	0.449814
H263	H	-0.314056	-0.723001	0.000014
H264	H	0.185944	-0.223001	0.500014
C265	C	0.033410	-1.054702	0.609659
C266	C	0.533410	-0.554702	1.109659
H267	H	0.013269	-1.084503	0.649604
H268	H	0.513269	-0.584503	1.149604
H269	H	0.054264	-1.088865	0.574313
H270	H	0.554264	-0.588865	1.074313
H271	H	0.007123	-1.028558	0.574344
H272	H	0.507123	-0.528558	1.074344
C273	C	0.064790	-1.008240	0.471796
C274	C	0.564790	-0.508240	0.971796
H275	H	0.044650	-1.038047	0.511736
H276	H	0.544650	-0.538047	1.011736
H277	H	0.085648	-1.042397	0.436449
H278	H	0.585648	-0.542397	0.936449
H279	H	0.038503	-0.982097	0.436480
H280	H	0.538503	-0.482097	0.936480
H281	H	-0.602941	-1.048313	0.000073
H282	H	-0.102941	-0.548313	0.500073
H283	H	-0.590866	-0.789757	0.000035
H284	H	-0.090866	-0.289757	0.500035
C285	C	-0.706253	-0.767494	0.000037
C286	C	-0.206253	-0.267494	0.500037
H287	H	-0.746395	-0.777039	0.000040
H288	H	-0.246395	-0.277039	0.500040
H289	H	-0.696852	-0.740932	-0.050141
H290	H	-0.196852	-0.240932	0.449859
H291	H	-0.693428	-0.735828	0.050219
H292	H	-0.193428	-0.235828	0.550219
C293	C	-0.159321	-0.776467	0.000066
C294	C	0.340679	-0.276467	0.500066
H295	H	-0.131119	-0.734465	0.000057
H296	H	0.368881	-0.234465	0.500057
H297	H	-0.180668	-0.770563	0.050232
H298	H	0.319332	-0.270563	0.550232
H299	H	-0.184081	-0.775685	-0.050128
H300	H	0.315919	-0.275685	0.449872
H301	H	-0.043915	-0.798739	0.000090
H302	H	0.456085	-0.298739	0.500090
