data_functionalizedCrystal
_audit_creation_method	'MofGen! by Chris Wilmer'
_symmetry_space_group_name_H-M	'P1'
_symmetry_Int_Tables_number	1
_symmetry_cell_setting	triclinic
loop_
_symmetry_equiv_pos_as_xyz
  x,y,z
_cell_length_a	18.050591
_cell_length_b	29.839131
_cell_length_c	29.839125
_cell_angle_alpha	89.988394
_cell_angle_beta	89.980084
_cell_angle_gamma	90.037426
loop_
_atom_site_label
_atom_site_type_symbol
_atom_site_fract_x
_atom_site_fract_y
_atom_site_fract_z
Zn1	Zn	1.135217	-0.178991	-0.254081
Zn2	Zn	1.635217	0.321009	0.245919
Zn3	Zn	1.135101	-0.254095	-0.178950
Zn4	Zn	1.635101	0.245905	0.321050
Zn5	Zn	1.011038	-0.178975	-0.178955
Zn6	Zn	1.511038	0.321025	0.321045
Zn7	Zn	1.010956	-0.254090	-0.254044
Zn8	Zn	1.510956	0.245910	0.245956
O9	O	1.073078	-0.216538	-0.216507
O10	O	1.573078	0.283462	0.283493
O11	O	1.239126	-0.188963	-0.244128
O12	O	1.739126	0.311037	0.255872
O13	O	1.118630	-0.244126	-0.116084
O14	O	1.618630	0.255874	0.383916
O15	O	1.027594	-0.116110	-0.188938
O16	O	1.527594	0.383890	0.311062
O17	O	1.239041	-0.244142	-0.188930
O18	O	1.739041	0.255858	0.311070
O19	O	1.118827	-0.116122	-0.244132
O20	O	1.618827	0.383878	0.255868
O21	O	1.027482	-0.188935	-0.116087
O22	O	1.527482	0.311065	0.383913
O23	O	0.907103	-0.188930	-0.188902
O24	O	1.407103	0.311070	0.311098
O25	O	1.027453	-0.244132	-0.316916
O26	O	1.527453	0.255868	0.183084
O27	O	0.907042	-0.244116	-0.244069
O28	O	1.407042	0.255884	0.255931
O29	O	1.118747	-0.188958	-0.316943
O30	O	1.618747	0.311042	0.183057
O31	O	1.118550	-0.316962	-0.188894
O32	O	1.618550	0.183038	0.311106
O33	O	1.027341	-0.316958	-0.244065
O34	O	1.527341	0.183042	0.255935
C35	C	0.880126	-0.216521	-0.216483
C36	C	1.380126	0.283479	0.283517
C37	C	0.797580	-0.216525	-0.216483
C38	C	1.297580	0.283475	0.283517
C39	C	0.598141	-0.186479	-0.186552
C40	C	1.098141	0.313521	0.313448
C41	C	0.548706	-0.227452	-0.175494
C42	C	1.048706	0.272548	0.324506
C43	C	0.646450	-0.216538	-0.216503
C44	C	1.146450	0.283462	0.283497
C45	C	0.548803	-0.175580	-0.227560
C46	C	1.048803	0.324420	0.272440
C47	C	0.500465	-0.216548	-0.216522
C48	C	1.000465	0.283452	0.283478
C49	C	0.598102	-0.257533	-0.205424
C50	C	1.098102	0.242467	0.294576
C51	C	0.598203	-0.205633	-0.257508
C52	C	1.098203	0.294367	0.242492
C53	C	0.548791	-0.246634	-0.246466
C54	C	1.048791	0.253366	0.253534
C55	C	0.730548	-0.216532	-0.216491
C56	C	1.230548	0.283468	0.283509
C57	C	0.416368	-0.216559	-0.216534
C58	C	0.916368	0.283441	0.283466
C59	C	1.072944	-0.333260	-0.216485
C60	C	1.572944	0.166740	0.283515
C61	C	1.072954	-0.383195	-0.216491
C62	C	1.572954	0.116805	0.283509
C63	C	1.120657	-0.692828	-0.187822
C64	C	1.620657	-0.192828	0.312178
C65	C	1.120749	-0.880501	-0.187839
C66	C	1.620749	-0.380501	0.312161
O67	O	1.161201	-0.904757	-0.163447
O68	O	1.661201	-0.404757	0.336553
N69	N	1.073232	-0.903980	-0.216541
N70	N	1.573232	-0.403980	0.283459
C71	C	1.025692	-0.880538	-0.245243
C72	C	1.525692	-0.380538	0.254757
O73	O	0.985284	-0.904815	-0.269659
O74	O	1.485284	-0.404815	0.230341
C75	C	1.025605	-0.692866	-0.245227
C76	C	1.525605	-0.192866	0.254773
C77	C	1.073120	-0.669389	-0.216520
C78	C	1.573120	-0.169389	0.283480
C79	C	1.168168	-0.669351	-0.159118
C80	C	1.668168	-0.169351	0.340882
C81	C	1.168142	-0.622435	-0.159112
C82	C	1.668142	-0.122435	0.340888
C83	C	1.120605	-0.598997	-0.187810
C84	C	1.620605	-0.098997	0.312190
C85	C	1.073093	-0.622473	-0.216515
C86	C	1.573093	-0.122473	0.283485
C87	C	0.978070	-0.669424	-0.273931
C88	C	1.478070	-0.169424	0.226069
C89	C	0.978053	-0.622503	-0.273925
C90	C	1.478053	-0.122503	0.226075
C91	C	1.025568	-0.599027	-0.245218
C92	C	1.525568	-0.099027	0.254782
C93	C	1.025530	-0.552119	-0.245207
C94	C	1.525530	-0.052119	0.254793
N95	N	1.073046	-0.528640	-0.216505
N96	N	1.573046	-0.028640	0.283495
C97	C	1.120584	-0.552079	-0.187807
C98	C	1.620584	-0.052079	0.312193
C99	C	1.025741	-0.979068	-0.245248
C100	C	1.525741	-0.479068	0.254752
C101	C	1.025761	-1.025986	-0.245252
C102	C	1.525761	-0.525986	0.254748
C103	C	1.120819	-1.025946	-0.187849
C104	C	1.620819	-0.525946	0.312151
C105	C	1.120794	-0.979027	-0.187843
C106	C	1.620794	-0.479027	0.312157
C107	C	1.073257	-0.955589	-0.216547
C108	C	1.573257	-0.455589	0.283453
C109	C	1.120525	-0.453553	-0.187797
C110	C	1.620525	0.046447	0.312203
C111	C	1.120492	-0.406633	-0.187792
C112	C	1.620492	0.093367	0.312208
C113	C	1.025438	-0.406678	-0.245197
C114	C	1.525438	0.093322	0.254803
C115	C	1.025467	-0.453593	-0.245200
C116	C	1.525467	0.046407	0.254800
C117	C	1.073017	-0.477030	-0.216498
C118	C	1.573017	0.022970	0.283502
O119	O	0.985105	-0.527835	-0.269590
O120	O	1.485105	-0.027835	0.230410
O121	O	1.160998	-0.527794	-0.163401
O122	O	1.660998	-0.027794	0.336599
C123	C	1.120683	-0.739743	-0.187828
C124	C	1.620683	-0.239743	0.312172
C125	C	1.073172	-0.763220	-0.216532
C126	C	1.573172	-0.263220	0.283468
C127	C	1.025635	-0.739781	-0.245230
C128	C	1.525635	-0.239781	0.254770
C129	C	1.073193	-0.810138	-0.216535
C130	C	1.573193	-0.310138	0.283465
C131	C	1.120730	-0.833576	-0.187837
C132	C	1.620730	-0.333576	0.312163
C133	C	1.168247	-0.810097	-0.159135
C134	C	1.668247	-0.310097	0.340865
C135	C	1.168221	-0.763182	-0.159129
C136	C	1.668221	-0.263182	0.340871
C137	C	0.978118	-0.763260	-0.273932
C138	C	1.478118	-0.263260	0.226068
C139	C	0.978147	-0.810176	-0.273935
C140	C	1.478147	-0.310176	0.226065
C141	C	1.025685	-0.833614	-0.245237
C142	C	1.525685	-0.333614	0.254763
C143	C	1.266784	-0.216555	-0.216533
C144	C	1.766784	0.283445	0.283467
C145	C	1.349329	-0.216562	-0.216543
C146	C	1.849329	0.283438	0.283457
C147	C	1.073104	-0.216546	-0.333686
C148	C	1.573104	0.283454	0.166314
C149	C	1.073115	-0.216550	-0.383620
C150	C	1.573115	0.283450	0.116380
C151	C	1.073233	-0.099359	-0.216540
C152	C	1.573233	0.400641	0.283460
C153	C	1.073299	-0.049425	-0.216553
C154	C	1.573299	0.450575	0.283447
C155	C	1.025629	-0.245176	-0.740193
C156	C	1.525629	0.254824	-0.240193
C157	C	1.025603	-0.245228	-0.552520
C158	C	1.525603	0.254772	-0.052520
O159	O	0.985156	-0.269652	-0.528244
O160	O	1.485156	0.230348	-0.028244
N161	N	1.073131	-0.216508	-0.529065
N162	N	1.573131	0.283492	-0.029065
C163	C	1.120666	-0.187771	-0.552532
C164	C	1.620666	0.312229	-0.052532
O165	O	1.161086	-0.163341	-0.528276
O166	O	1.661086	0.336659	-0.028276
C167	C	1.120689	-0.187718	-0.740204
C168	C	1.620689	0.312282	-0.240204
C169	C	1.073162	-0.216443	-0.763656
C170	C	1.573162	0.283557	-0.263656
C171	C	0.978106	-0.273898	-0.763646
C172	C	1.478106	0.226102	-0.263646
C173	C	0.978116	-0.273887	-0.810561
C174	C	1.478116	0.226113	-0.310561
C175	C	1.025649	-0.245153	-0.834024
C176	C	1.525649	0.254847	-0.334024
C177	C	1.073172	-0.216431	-0.810572
C178	C	1.573172	0.283569	-0.310572
C179	C	1.168220	-0.158979	-0.763669
C180	C	1.668220	0.341021	-0.263669
C181	C	1.168220	-0.158967	-0.810590
C182	C	1.668220	0.341033	-0.310590
C183	C	1.120693	-0.187692	-0.834043
C184	C	1.620693	0.312308	-0.334043
C185	C	1.120715	-0.187686	-0.880950
C186	C	1.620715	0.312314	-0.380950
N187	N	1.073187	-0.216406	-0.904405
N188	N	1.573187	0.283594	-0.404405
C189	C	1.025654	-0.245139	-0.880942
C190	C	1.525654	0.254861	-0.380942
C191	C	1.120652	-0.187802	-0.454001
C192	C	1.620652	0.312198	0.045999
C193	C	1.120648	-0.187816	-0.407083
C194	C	1.620648	0.312184	0.092917
C195	C	1.025583	-0.245272	-0.407075
C196	C	1.525583	0.254728	0.092925
C197	C	1.025592	-0.245260	-0.453994
C198	C	1.525592	0.254740	0.046006
C199	C	1.073124	-0.216522	-0.477456
C200	C	1.573124	0.283478	0.022544
C201	C	1.025679	-0.245113	-0.979468
C202	C	1.525679	0.254887	-0.479468
C203	C	1.025695	-0.245100	-1.026388
C204	C	1.525695	0.254900	-0.526388
C205	C	1.120757	-0.187643	-1.026392
C206	C	1.620757	0.312357	-0.526392
C207	C	1.120744	-0.187657	-0.979476
C208	C	1.620744	0.312343	-0.479476
C209	C	1.073199	-0.216394	-0.956016
C210	C	1.573199	0.283606	-0.456016
O211	O	1.161135	-0.163271	-0.905256
O212	O	1.661135	0.336729	-0.405256
O213	O	0.985228	-0.269558	-0.905206
O214	O	1.485228	0.230442	-0.405206
C215	C	1.025619	-0.245188	-0.693278
C216	C	1.525619	0.254812	-0.193278
C217	C	1.073142	-0.216466	-0.669825
C218	C	1.573142	0.283534	-0.169825
C219	C	1.120675	-0.187732	-0.693288
C220	C	1.620675	0.312268	-0.193288
C221	C	1.073138	-0.216479	-0.622908
C222	C	1.573138	0.283521	-0.122908
C223	C	1.025605	-0.245213	-0.599445
C224	C	1.525605	0.254787	-0.099445
C225	C	0.978076	-0.273933	-0.622900
C226	C	1.478076	0.226067	-0.122900
C227	C	0.978086	-0.273921	-0.669815
C228	C	1.478086	0.226079	-0.169815
C229	C	1.168204	-0.159012	-0.669833
C230	C	1.668204	0.340988	-0.169833
C231	C	1.168191	-0.159026	-0.622918
C232	C	1.668191	0.340974	-0.122918
C233	C	1.120658	-0.187760	-0.599455
C234	C	1.620658	0.312240	-0.099455
C235	C	1.073095	-0.216497	-0.099785
C236	C	1.573095	0.283503	0.400215
C237	C	1.073228	-0.216367	-0.049851
C238	C	1.573228	0.283633	0.450149
H239	H	1.159246	-0.472629	-0.164426
H240	H	1.659246	0.027371	0.335574
H241	H	0.527108	-0.140942	-0.236888
H242	H	1.027108	0.359058	0.263112
N243	N	1.169370	-1.049899	-0.158534
N244	N	1.669370	-0.549899	0.341466
N245	N	1.169376	-1.091790	-0.158546
N246	N	1.669376	-0.591790	0.341454
H247	H	1.203666	-1.108710	-0.137845
H248	H	1.703666	-0.608710	0.362155
N249	N	1.216765	-0.129612	-0.834563
N250	N	1.716765	0.370388	-0.334563
N251	N	1.190674	-0.100977	-0.860739
N252	N	1.690674	0.399023	-0.360739
H253	H	1.224959	-0.080245	-0.877670
H254	H	1.724959	0.419755	-0.377670
H255	H	0.619809	-0.161087	-0.161195
H256	H	1.119809	0.338913	0.338805
N257	N	0.521758	-0.278563	-0.278245
N258	N	1.021758	0.221437	0.221755
N259	N	0.453575	-0.283541	-0.283619
N260	N	0.953575	0.216459	0.216381
H261	H	0.434480	-0.306092	-0.306060
H262	H	0.934480	0.193908	0.193940
N263	N	1.169030	-0.382660	-0.158462
N264	N	1.669030	0.117340	0.341538
N265	N	1.211470	-0.403597	-0.132841
N266	N	1.711470	0.096403	0.367159
H267	H	1.245750	-0.386668	-0.112127
H268	H	1.745750	0.113332	0.387873
H269	H	0.986779	-0.472709	-0.268577
H270	H	1.486779	0.027291	0.231423
H271	H	0.619667	-0.292185	-0.196041
H272	H	1.119667	0.207815	0.303959
N273	N	1.169295	-0.158324	-0.955512
N274	N	1.669295	0.341676	-0.455512
N275	N	1.216592	-0.174138	-0.929335
N276	N	1.716592	0.325862	-0.429335
H277	H	1.250879	-0.153419	-0.912413
H278	H	1.750879	0.346581	-0.412413
N279	N	0.521412	-0.239037	-0.132008
N280	N	1.021412	0.260963	0.367992
N281	N	0.481769	-0.273043	-0.127055
N282	N	0.981769	0.226957	0.372945
H283	H	0.462493	-0.281223	-0.096343
H284	H	0.962493	0.218777	0.403657
N285	N	0.976880	-0.382724	-0.274503
N286	N	1.476880	0.117276	0.225497
N287	N	0.976870	-0.340834	-0.274491
N288	N	1.476870	0.159166	0.225509
H289	H	0.942577	-0.323914	-0.295190
H290	H	1.442577	0.176086	0.204810
N291	N	1.216759	-0.739212	-0.129802
N292	N	1.716759	-0.239212	0.370198
N293	N	1.259195	-0.760152	-0.104182
N294	N	1.759195	-0.260152	0.395818
H295	H	1.293478	-0.743226	-0.083468
H296	H	1.793478	-0.243226	0.416532
H297	H	1.206952	-0.829189	-0.135767
H298	H	1.706952	-0.329189	0.364233
N299	N	0.625492	-0.194033	-0.300989
N300	N	1.125492	0.305967	0.199011
N301	N	0.609744	-0.156864	-0.317788
N302	N	1.109744	0.343136	0.182212
H303	H	0.629017	-0.148667	-0.348496
H304	H	1.129017	0.351333	0.151504
N305	N	1.216683	-0.598465	-0.129786
N306	N	1.716683	-0.098465	0.370214
N307	N	1.259121	-0.619406	-0.104168
N308	N	1.759121	-0.119406	0.395832
H309	H	1.293408	-0.602480	-0.083455
H310	H	1.793408	-0.102480	0.416545
N311	N	1.169224	-0.158454	-0.477964
N312	N	1.669224	0.341546	0.022036
N313	N	1.216535	-0.174256	-0.504151
N314	N	1.716535	0.325744	-0.004151
H315	H	1.250842	-0.153531	-0.521073
H316	H	1.750842	0.346469	-0.021073
N317	N	0.929598	-0.834147	-0.303260
N318	N	1.429598	-0.334147	0.196740
N319	N	0.887160	-0.813208	-0.328881
N320	N	1.387160	-0.313208	0.171119
H321	H	0.852875	-0.830136	-0.349593
H322	H	1.352875	-0.330136	0.150407
H323	H	1.206883	-0.688430	-0.135748
H324	H	1.706883	-0.188430	0.364252
N325	N	0.977210	-1.049957	-0.274571
N326	N	1.477210	-0.549957	0.225429
N327	N	0.934771	-1.029018	-0.300191
N328	N	1.434771	-0.529018	0.199809
H329	H	0.900481	-1.045946	-0.320900
H330	H	1.400481	-0.545946	0.179100
N331	N	0.977127	-0.274475	-0.955509
N332	N	1.477127	0.225525	-0.455509
N333	N	1.003216	-0.303114	-0.929337
N334	N	1.503216	0.196886	-0.429337
H335	H	0.968930	-0.323853	-0.912415
H336	H	1.468930	0.176147	-0.412415
H337	H	1.159484	-0.959915	-0.164468
H338	H	1.659484	-0.459915	0.335532
H339	H	0.987029	-0.959988	-0.268622
H340	H	1.487029	-0.459988	0.231378
N341	N	0.929555	-0.739329	-0.303253
N342	N	1.429555	-0.239329	0.196747
N343	N	0.887138	-0.760303	-0.328876
N344	N	1.387138	-0.260303	0.171124
H345	H	0.852834	-0.743404	-0.349585
H346	H	1.352834	-0.243404	0.150415
N347	N	1.216730	-0.129681	-0.598958
N348	N	1.716730	0.370319	-0.098958
N349	N	1.216716	-0.129688	-0.557067
N350	N	1.716716	0.370312	-0.057067
H351	H	1.250991	-0.108960	-0.540146
H352	H	1.750991	0.391040	-0.040146
N353	N	0.929529	-0.693391	-0.303258
N354	N	1.429529	-0.193391	0.196742
N355	N	0.887097	-0.672449	-0.328879
N356	N	1.387097	-0.172449	0.171121
H357	H	0.852813	-0.689373	-0.349594
H358	H	1.352813	-0.189373	0.150406
N359	N	1.216761	-0.129640	-0.739712
N360	N	1.716761	0.370360	-0.239712
N361	N	1.264067	-0.145448	-0.713539
N362	N	1.764067	0.354552	-0.213539
H363	H	1.298351	-0.124725	-0.696619
H364	H	1.798351	0.375275	-0.196619
H365	H	0.939344	-0.603423	-0.297300
H366	H	1.439344	-0.103423	0.202700
H367	H	0.986993	-0.268493	-1.045481
H368	H	1.486993	0.231507	-0.545481
N369	N	0.929573	-0.303237	-0.834507
N370	N	1.429573	0.196763	-0.334507
N371	N	0.887146	-0.328891	-0.813545
N372	N	1.387146	0.171109	-0.313545
H373	H	0.852862	-0.349623	-0.830453
H374	H	1.352862	0.150377	-0.330453
H375	H	0.939394	-0.297296	-0.744547
H376	H	1.439394	0.202704	-0.244547
H377	H	0.986891	-0.268650	-0.473086
H378	H	1.486891	0.231350	0.026914
N379	N	0.977032	-0.274620	-0.383097
N380	N	1.477032	0.225380	0.116903
N381	N	0.977038	-0.274623	-0.341206
N382	N	1.477038	0.225377	0.158794
H383	H	0.942747	-0.295346	-0.324269
H384	H	1.442747	0.204654	0.175731
H385	H	1.159356	-0.164430	-0.387992
H386	H	1.659356	0.335570	0.112008
N387	N	1.169309	-0.158299	-1.050370
N388	N	1.669309	0.341701	-0.550370
N389	N	1.169303	-0.158296	-1.092261
N390	N	1.669303	0.341704	-0.592261
H391	H	1.203590	-0.137570	-1.109198
H392	H	1.703590	0.362430	-0.609198
N393	N	0.929535	-0.303267	-0.693761
N394	N	1.429535	0.196733	-0.193761
N395	N	0.887103	-0.328918	-0.672798
N396	N	1.387103	0.171082	-0.172798
H397	H	0.852810	-0.349645	-0.689707
H398	H	1.352810	0.150355	-0.189707
N399	N	0.929530	-0.303283	-0.598921
N400	N	1.429530	0.196717	-0.098921
N401	N	0.929536	-0.303285	-0.557030
N402	N	1.429536	0.196715	-0.057030
H403	H	0.895250	-0.324011	-0.540093
H404	H	1.395250	0.175989	-0.040093
N405	N	1.216764	-0.129656	-0.693789
N406	N	1.716764	0.370344	-0.193789
N407	N	1.259191	-0.104017	-0.672837
N408	N	1.759191	0.395983	-0.172837
H409	H	1.293493	-0.083284	-0.689754
H410	H	1.793493	0.416716	-0.189754
