data_functionalizedCrystal
_audit_creation_method	'MofGen! by Chris Wilmer'
_symmetry_space_group_name_H-M	'P1'
_symmetry_Int_Tables_number	1
_symmetry_cell_setting	triclinic
loop_
_symmetry_equiv_pos_as_xyz
  x,y,z
_cell_length_a	8.559649
_cell_length_b	10.654550
_cell_length_c	7.088929
_cell_angle_alpha	83.717104
_cell_angle_beta	95.325015
_cell_angle_gamma	77.131784
loop_
_atom_site_label
_atom_site_type_symbol
_atom_site_fract_x
_atom_site_fract_y
_atom_site_fract_z
O1	O	2.103417	-0.028084	-0.158957
O2	O	1.638930	0.036703	-0.158966
O3	O	1.881854	-0.179534	-0.158954
O4	O	1.860494	0.188152	-0.158969
O5	O	1.914318	-0.208490	0.159022
O6	O	1.671394	0.007747	0.159011
O7	O	2.135881	-0.057041	0.159020
Cu8	Cu	1.906602	-0.027291	0.188049
Cu9	Cu	1.868210	0.006953	-0.187995
O10	O	1.892957	0.159196	0.159008
C11	C	1.595687	0.027135	0.000021
C12	C	1.418468	0.041749	0.000018
C13	C	1.896517	-0.240648	0.000032
C14	C	1.891825	-0.379606	0.000025
C15	C	2.034854	-0.473867	0.000033
C16	C	2.030434	-0.604430	0.000020
C17	C	1.739944	-0.546457	-0.000003
C18	C	1.744364	-0.415896	-0.000003
C19	C	2.182315	-0.437576	0.000061
C20	C	2.325357	-0.531840	0.000072
C21	C	2.320937	-0.662403	0.000058
C22	C	2.173476	-0.698703	0.000034
C23	C	2.179124	-0.047472	0.000028
C24	C	2.356341	-0.062086	0.000019
C25	C	1.878293	0.220310	0.000017
C26	C	1.882985	0.359270	0.000012
N27	N	1.933616	-0.051378	0.452538
N28	N	1.841208	0.031029	-0.452485
H29	H	1.438729	-0.162163	0.000013
O30	O	1.727143	0.132959	0.449910
C31	C	1.801880	0.212513	0.334141
H32	H	1.923127	0.153132	0.304327
H33	H	1.821725	0.297184	0.411165
C34	C	1.544007	0.338184	0.180523
C35	C	1.692919	0.265248	0.143892
H36	H	1.476793	0.370719	0.063172
H37	H	1.493653	0.284591	0.258523
H38	H	1.560567	0.408734	0.244715
H39	H	1.676359	0.194691	0.079724
H40	H	1.743267	0.318831	0.065876
O41	O	2.047793	-0.153410	0.549736
C42	C	2.015276	-0.270627	0.501011
H43	H	1.938998	-0.251358	0.355637
H44	H	1.946745	-0.311870	0.613646
C45	C	2.269057	-0.392655	0.670561
C46	C	2.175383	-0.368989	0.492003
H47	H	2.367817	-0.453332	0.665013
H48	H	2.290963	-0.313684	0.703395
H49	H	2.211929	-0.427017	0.764405
H50	H	2.232502	-0.334612	0.398168
H51	H	2.153490	-0.447956	0.459153
H52	H	1.336070	0.141835	0.000003
H53	H	2.185931	-0.331269	0.000078
H54	H	2.445410	-0.502271	0.000044
H55	H	1.627896	-0.339145	-0.000007
H56	H	2.437406	-0.739149	0.000047
H57	H	2.169886	-0.805017	0.000003
H58	H	1.619888	-0.576024	-0.000019
