data_functionalizedCrystal
_audit_creation_method	'MofGen! by Chris Wilmer'
_symmetry_space_group_name_H-M	'P1'
_symmetry_Int_Tables_number	1
_symmetry_cell_setting	triclinic
loop_
_symmetry_equiv_pos_as_xyz
  x,y,z
_cell_length_a	17.077404
_cell_length_b	16.625546
_cell_length_c	17.077396
_cell_angle_alpha	89.969785
_cell_angle_beta	89.981638
_cell_angle_gamma	90.020438
loop_
_atom_site_label
_atom_site_type_symbol
_atom_site_fract_x
_atom_site_fract_y
_atom_site_fract_z
Zn1	Zn	1.200057	-0.321045	-0.443809
Zn2	Zn	1.700057	0.178955	0.056191
Zn3	Zn	1.199965	-0.455888	-0.312539
Zn4	Zn	1.699965	0.044112	0.187461
Zn5	Zn	1.068789	-0.321068	-0.312560
Zn6	Zn	1.568789	0.178932	0.187440
Zn7	Zn	1.068758	-0.455835	-0.443766
Zn8	Zn	1.568758	0.044165	0.056234
O9	O	1.134392	-0.388459	-0.378169
O10	O	1.634392	0.111541	0.121831
O11	O	1.309892	-0.338945	-0.426406
O12	O	1.809892	0.161055	0.073594
O13	O	1.182539	-0.438036	-0.202695
O14	O	1.682539	0.061964	0.297305
O15	O	1.086253	-0.208233	-0.329997
O16	O	1.586253	0.291767	0.170003
O17	O	1.309824	-0.438013	-0.329962
O18	O	1.809824	0.061987	0.170038
O19	O	1.182695	-0.208216	-0.426426
O20	O	1.682695	0.291784	0.073574
O21	O	1.086164	-0.338984	-0.202710
O22	O	1.586164	0.161016	0.297290
O23	O	0.958938	-0.338933	-0.329955
O24	O	1.458938	0.161067	0.170045
O25	O	1.086200	-0.437923	-0.553618
O26	O	1.586200	0.062077	-0.053618
O27	O	0.958915	-0.437945	-0.426351
O28	O	1.458915	0.062055	0.073649
O29	O	1.182665	-0.338894	-0.553651
O30	O	1.682665	0.161106	-0.053651
O31	O	1.182509	-0.568713	-0.329920
O32	O	1.682509	-0.068713	0.170080
O33	O	1.086111	-0.568674	-0.426331
O34	O	1.586111	-0.068674	0.073669
C35	C	0.930444	-0.388436	-0.378151
C36	C	1.430444	0.111564	0.121849
C37	C	0.843194	-0.388446	-0.378162
C38	C	1.343194	0.111554	0.121838
C39	C	0.802240	-0.336953	-0.428457
C40	C	1.302240	0.163047	0.071543
C41	C	0.720260	-0.336958	-0.428460
C42	C	1.220260	0.163042	0.071540
C43	C	0.679235	-0.388461	-0.378173
C44	C	1.179235	0.111539	0.121827
C45	C	0.720195	-0.439956	-0.327872
C46	C	1.220195	0.060044	0.172128
C47	C	0.802174	-0.439947	-0.327865
C48	C	1.302174	0.060053	0.172135
C49	C	0.549325	-0.439975	-0.327892
C50	C	1.049325	0.060025	0.172108
C51	C	0.467340	-0.439986	-0.327900
C52	C	0.967340	0.060014	0.172100
C53	C	0.467411	-0.336986	-0.428487
C54	C	0.967411	0.163014	0.071513
C55	C	0.549390	-0.336976	-0.428480
C56	C	1.049390	0.163024	0.071520
C57	C	0.590344	-0.388473	-0.378180
C58	C	1.090344	0.111527	0.121820
C59	C	1.134318	-0.597950	-0.378136
C60	C	1.634318	-0.097950	0.121864
C61	C	1.134358	-0.687571	-0.378148
C62	C	1.634358	-0.187571	0.121852
C63	C	1.134495	-1.015747	-0.378230
C64	C	1.634495	-0.515747	0.121770
C65	C	1.134454	-0.924438	-0.378209
C66	C	1.634454	-0.424438	0.121791
C67	C	1.134426	-0.851662	-0.378188
C68	C	1.634426	-0.351662	0.121812
C69	C	1.134386	-0.760348	-0.378169
C70	C	1.634386	-0.260348	0.121831
C71	C	1.339136	-0.388483	-0.378187
C72	C	1.839136	0.111517	0.121813
C73	C	1.426386	-0.388493	-0.378194
C74	C	1.926386	0.111507	0.121806
C75	C	1.134440	-0.388400	-0.582913
C76	C	1.634440	0.111600	-0.082913
C77	C	1.134460	-0.388374	-0.670163
C78	C	1.634460	0.111626	-0.170163
C79	C	1.134488	-0.178150	-0.378219
C80	C	1.634488	0.321850	0.121781
C81	C	1.134529	-0.088529	-0.378240
C82	C	1.634529	0.411471	0.121760
C83	C	1.184691	-0.336806	-0.711171
C84	C	1.684691	0.163194	-0.211171
C85	C	1.184700	-0.336779	-0.793151
C86	C	1.684700	0.163221	-0.293151
C87	C	1.134482	-0.388325	-0.834122
C88	C	1.634482	0.111675	-0.334122
C89	C	1.084245	-0.439896	-0.793108
C90	C	1.584245	0.060104	-0.293108
C91	C	1.084233	-0.439919	-0.711129
C92	C	1.584233	0.060081	-0.211129
C93	C	1.084277	-0.439848	-0.963979
C94	C	1.584277	0.060152	-0.463979
C95	C	1.084291	-0.439827	-1.045963
C96	C	1.584291	0.060173	-0.545963
C97	C	1.184745	-0.336708	-1.046001
C98	C	1.684745	0.163292	-0.546001
C99	C	1.184732	-0.336730	-0.964022
C100	C	1.684732	0.163270	-0.464022
C101	C	1.134496	-0.388303	-0.923013
C102	C	1.634496	0.111697	-0.423013
C103	C	1.134390	-0.388460	-0.174221
C104	C	1.634390	0.111540	0.325779
C105	C	1.134522	-0.388258	-0.086971
C106	C	1.634522	0.111742	0.413029
H107	H	0.434062	-0.295054	-0.469441
H108	H	0.934062	0.204946	0.030559
O109	O	0.676084	-0.281419	-0.482706
O110	O	1.176084	0.218581	0.017294
H111	H	0.718384	-0.245611	-0.517679
H112	H	1.218384	0.254389	-0.017679
H113	H	1.043354	-0.481864	-0.826473
H114	H	1.543354	0.018136	-0.326473
H115	H	1.043397	-0.481799	-1.079319
H116	H	1.543397	0.018201	-0.579319
H117	H	1.225647	-0.294715	-1.079393
H118	H	1.725647	0.205285	-0.579393
H119	H	1.043321	-0.481903	-0.677742
H120	H	1.543321	0.018097	-0.177742
H121	H	0.582667	-0.481907	-0.286931
H122	H	1.082667	0.018093	0.213069
H123	H	0.835637	-0.295015	-0.469409
H124	H	1.335637	0.204985	0.030591
O125	O	0.593643	-0.281423	-0.482711
O126	O	1.093643	0.218577	0.017289
H127	H	0.551394	-0.245607	-0.517681
H128	H	1.051394	0.254393	-0.017681
O129	O	0.423087	-0.495522	-0.273652
O130	O	0.923087	0.004478	0.226348
H131	H	0.438811	-0.558824	-0.286985
H132	H	0.938811	-0.058824	0.213015
H133	H	0.686786	-0.481887	-0.286923
H134	H	1.186786	0.018113	0.213077
H135	H	0.835518	-0.481877	-0.286910
H136	H	1.335518	0.018123	0.213090
H137	H	1.225587	-0.294833	-0.677818
H138	H	1.725587	0.205167	-0.177818
H139	H	1.225605	-0.294788	-0.826537
H140	H	1.725605	0.205212	-0.326537
O141	O	1.030090	-0.495466	-0.919743
O142	O	1.530090	0.004534	-0.419743
H143	H	0.995176	-0.531310	-0.962004
H144	H	1.495176	-0.031310	-0.462004
O145	O	1.238898	-0.281140	-0.919826
O146	O	1.738898	0.218860	-0.419826
H147	H	1.273828	-0.245270	-0.962113
H148	H	1.773828	0.254730	-0.462113
