data_functionalizedCrystal
_audit_creation_method	'MofGen! by Chris Wilmer'
_symmetry_space_group_name_H-M	'P1'
_symmetry_Int_Tables_number	1
_symmetry_cell_setting	triclinic
loop_
_symmetry_equiv_pos_as_xyz
  x,y,z
_cell_length_a	29.839125
_cell_length_b	21.295418
_cell_length_c	21.295417
_cell_angle_alpha	90.046319
_cell_angle_beta	90.018987
_cell_angle_gamma	90.031451
loop_
_atom_site_label
_atom_site_type_symbol
_atom_site_fract_x
_atom_site_fract_y
_atom_site_fract_z
Zn1	Zn	-0.254235	-0.962279	0.250432
Zn2	Zn	0.079099	-0.628946	0.583765
Zn3	Zn	0.412432	-0.295613	0.917098
Zn4	Zn	-0.179103	-0.962204	0.355679
Zn5	Zn	0.154230	-0.628871	0.689012
Zn6	Zn	0.487564	-0.295538	1.022345
Zn7	Zn	-0.179092	-0.857025	0.250456
Zn8	Zn	0.154242	-0.523692	0.583790
Zn9	Zn	0.487575	-0.190358	0.917123
Zn10	Zn	-0.254179	-0.856972	0.355696
Zn11	Zn	0.079154	-0.523639	0.689029
Zn12	Zn	0.412488	-0.190305	1.022363
O13	O	-0.216652	-0.909620	0.303066
O14	O	0.116681	-0.576287	0.636399
O15	O	0.450015	-0.242954	0.969732
O16	O	-0.244296	-1.050359	0.264375
O17	O	0.089037	-0.717025	0.597709
O18	O	0.422370	-0.383692	0.931042
O19	O	-0.116234	-0.948243	0.341724
O20	O	0.217099	-0.614910	0.675057
O21	O	0.550432	-0.281576	1.008391
O22	O	-0.189078	-0.871041	0.162364
O23	O	0.144255	-0.537708	0.495697
O24	O	0.477588	-0.204374	0.829030
O25	O	-0.189097	-1.050304	0.341700
O26	O	0.144236	-0.716970	0.675033
O27	O	0.477569	-0.383637	1.008367
O28	O	-0.244285	-0.948371	0.162346
O29	O	0.089048	-0.615037	0.495679
O30	O	0.422381	-0.281704	0.829012
O31	O	-0.116226	-0.870968	0.264417
O32	O	0.217107	-0.537635	0.597751
O33	O	0.550441	-0.204302	0.931084
O34	O	-0.189024	-0.768929	0.264434
O35	O	0.144309	-0.435595	0.597768
O36	O	0.477642	-0.102262	0.931101
O37	O	-0.317053	-0.870950	0.341730
O38	O	0.016280	-0.537617	0.675063
O39	O	0.349613	-0.204284	1.008396
O40	O	-0.244190	-0.768890	0.341753
O41	O	0.089143	-0.435556	0.675087
O42	O	0.422476	-0.102223	1.008420
O43	O	-0.317094	-0.948319	0.264392
O44	O	0.016239	-0.614986	0.597726
O45	O	0.349572	-0.281653	0.931059
O46	O	-0.189043	-0.948191	0.443770
O47	O	0.144290	-0.614858	0.777104
O48	O	0.477623	-0.281525	1.110437
O49	O	-0.244201	-0.870878	0.443783
O50	O	0.089132	-0.537544	0.777117
O51	O	0.422465	-0.204211	1.110450
C52	C	-0.216600	-0.746069	0.303099
C53	C	0.116733	-0.412735	0.636432
C54	C	0.450066	-0.079402	0.969766
C55	C	-0.216589	-0.676100	0.303128
C56	C	0.116744	-0.342767	0.636462
C57	C	0.450078	-0.009434	0.969795
C58	C	-0.333830	-0.909637	0.303060
C59	C	-0.000497	-0.576304	0.636393
C60	C	0.332836	-0.242971	0.969727
C61	C	-0.383765	-0.909644	0.303058
C62	C	-0.050432	-0.576311	0.636391
C63	C	0.282902	-0.242978	0.969724
C64	C	-0.216627	-0.909538	0.466617
C65	C	0.116706	-0.576204	0.799951
C66	C	0.450039	-0.242871	1.133284
C67	C	-0.216632	-0.909560	0.536586
C68	C	0.116702	-0.576227	0.869919
C69	C	0.450035	-0.242893	1.203252
C70	C	-0.693433	-0.949973	0.262683
C71	C	-0.360099	-0.616640	0.596016
C72	C	-0.026766	-0.283306	0.929349
C73	C	-0.881106	-0.950004	0.262629
C74	C	-0.547773	-0.616671	0.595962
C75	C	-0.214439	-0.283337	0.929296
O76	O	-0.905391	-0.984246	0.228360
O77	O	-0.572058	-0.650913	0.561694
O78	O	-0.238725	-0.317579	0.895027
N79	N	-0.904550	-0.909728	0.302889
N80	N	-0.571217	-0.576395	0.636222
N81	N	-0.237884	-0.243061	0.969556
C82	C	-0.881073	-0.869438	0.343163
C83	C	-0.547740	-0.536105	0.676496
C84	C	-0.214407	-0.202772	1.009829
O85	O	-0.905320	-0.835177	0.377400
O86	O	-0.571987	-0.501844	0.710734
O87	O	-0.238654	-0.168510	1.044067
C88	C	-0.693401	-0.869404	0.343213
C89	C	-0.360068	-0.536071	0.676546
C90	C	-0.026734	-0.202738	1.009879
C91	C	-0.669959	-0.909688	0.302954
C92	C	-0.336626	-0.576354	0.636288
C93	C	-0.003293	-0.243021	0.969621
C94	C	-0.669991	-0.990252	0.222427
C95	C	-0.336657	-0.656919	0.555761
C96	C	-0.003324	-0.323586	0.889094
C97	C	-0.623075	-0.990247	0.222444
C98	C	-0.289742	-0.656913	0.555777
C99	C	0.043591	-0.323580	0.889110
C100	C	-0.599602	-0.949961	0.262715
C101	C	-0.266268	-0.616628	0.596049
C102	C	0.067065	-0.283295	0.929382
C103	C	-0.623044	-0.909682	0.302971
C104	C	-0.289710	-0.576348	0.636304
C105	C	0.043623	-0.243015	0.969637
C106	C	-0.669925	-0.829112	0.383482
C107	C	-0.336592	-0.495779	0.716816
C108	C	-0.003258	-0.162445	1.050149
C109	C	-0.623004	-0.829106	0.383490
C110	C	-0.289671	-0.495773	0.716823
C111	C	0.043663	-0.162439	1.050157
C112	C	-0.599562	-0.869389	0.343232
C113	C	-0.266229	-0.536056	0.676565
C114	C	0.067104	-0.202722	1.009899
C115	C	-0.552655	-0.869391	0.343259
C116	C	-0.219321	-0.536057	0.676592
C117	C	0.114012	-0.202724	1.009925
N118	N	-0.529210	-0.909667	0.302998
N119	N	-0.195877	-0.576334	0.636332
N120	N	0.137456	-0.243000	0.969665
C121	C	-0.552684	-0.949952	0.262727
C122	C	-0.219351	-0.616619	0.596060
C123	C	0.113983	-0.283285	0.929394
C124	C	-0.979604	-0.869460	0.343134
C125	C	-0.646271	-0.536126	0.676468
C126	C	-0.312937	-0.202793	1.009801
C127	C	-1.026522	-0.869469	0.343123
C128	C	-0.693189	-0.536136	0.676456
C129	C	-0.359855	-0.202802	1.009789
C130	C	-1.026551	-0.950034	0.262588
C131	C	-0.693218	-0.616701	0.595922
C132	C	-0.359885	-0.283367	0.929255
C133	C	-0.979632	-0.950028	0.262603
C134	C	-0.646299	-0.616694	0.595937
C135	C	-0.312966	-0.283361	0.929270
C136	C	-0.956160	-0.909736	0.302874
C137	C	-0.622826	-0.576403	0.636208
C138	C	-0.289493	-0.243069	0.969541
C139	C	-0.454158	-0.949937	0.262764
C140	C	-0.120825	-0.616604	0.596098
C141	C	0.212509	-0.283271	0.929431
C142	C	-0.407238	-0.949930	0.262786
C143	C	-0.073905	-0.616596	0.596119
C144	C	0.259428	-0.283263	0.929453
C145	C	-0.407213	-0.869363	0.343318
C146	C	-0.073880	-0.536029	0.676651
C147	C	0.259453	-0.202696	1.009985
C148	C	-0.454129	-0.869372	0.343299
C149	C	-0.120795	-0.536039	0.676632
C150	C	0.212538	-0.202705	1.009966
C151	C	-0.477600	-0.909662	0.303017
C152	C	-0.144267	-0.576328	0.636350
C153	C	0.189067	-0.242995	0.969684
O154	O	-0.528340	-0.835162	0.377504
O155	O	-0.195007	-0.501829	0.710838
O156	O	0.138326	-0.168495	1.044171
O157	O	-0.528429	-0.984198	0.228484
O158	O	-0.195095	-0.650865	0.561818
O159	O	0.138238	-0.317532	0.895151
C160	C	-0.740348	-0.949979	0.262667
C161	C	-0.407015	-0.616645	0.596000
C162	C	-0.073682	-0.283312	0.929333
C163	C	-0.763790	-0.909699	0.302922
C164	C	-0.430457	-0.576366	0.636255
C165	C	-0.097123	-0.243033	0.969589
C166	C	-0.740317	-0.869414	0.343194
C167	C	-0.406983	-0.536081	0.676527
C168	C	-0.073650	-0.202747	1.009860
C169	C	-0.810708	-0.909708	0.302910
C170	C	-0.477375	-0.576375	0.636244
C171	C	-0.144041	-0.243042	0.969577
C172	C	-0.834182	-0.949994	0.262639
C173	C	-0.500848	-0.616660	0.595972
C174	C	-0.167515	-0.283327	0.929305
C175	C	-0.810737	-0.990270	0.222379
C176	C	-0.477404	-0.656936	0.555712
C177	C	-0.144071	-0.323603	0.889045
C178	C	-0.763822	-0.990264	0.222395
C179	C	-0.430488	-0.656931	0.555728
C180	C	-0.097155	-0.323597	0.889062
C181	C	-0.763761	-0.829138	0.383454
C182	C	-0.430428	-0.495804	0.716787
C183	C	-0.097094	-0.162471	1.050120
C184	C	-0.810676	-0.829147	0.383435
C185	C	-0.477343	-0.495814	0.716768
C186	C	-0.144010	-0.162481	1.050101
C187	C	-0.834150	-0.869433	0.343163
C188	C	-0.500817	-0.536099	0.676496
C189	C	-0.167483	-0.202766	1.009830
C190	C	-0.099930	-0.909639	0.303026
C191	C	0.233404	-0.576306	0.636359
C192	C	0.566737	-0.242973	0.969693
C193	C	-0.049995	-0.909754	0.302851
C194	C	0.283338	-0.576421	0.636184
C195	C	0.616671	-0.243088	0.969518
C196	C	-0.216704	-1.073811	0.303033
C197	C	0.116629	-0.740477	0.636366
C198	C	0.449962	-0.407144	0.969700
C199	C	-0.216726	-1.143779	0.303019
C200	C	0.116607	-0.810445	0.636352
C201	C	0.449940	-0.477112	0.969686
C202	C	-0.245271	-0.643230	0.343442
C203	C	0.088062	-0.309897	0.676775
C204	C	0.421396	0.023437	1.010108
C205	C	-0.245291	-0.577487	0.343426
C206	C	0.088042	-0.244154	0.676759
C207	C	0.421376	0.089179	1.010093
C208	C	-0.216621	-0.544618	0.303104
C209	C	0.116712	-0.211285	0.636437
C210	C	0.450045	0.122049	0.969770
C211	C	-0.187937	-0.577496	0.262783
C212	C	0.145396	-0.244163	0.596116
C213	C	0.478730	0.089170	0.929449
C214	C	-0.187921	-0.643238	0.262795
C215	C	0.145412	-0.309904	0.596128
C216	C	0.478746	0.023429	0.929461
N217	N	-0.177328	-0.441354	0.298174
N218	N	0.156005	-0.108020	0.631508
N219	N	0.489339	0.225313	0.964841
N220	N	-0.177345	-0.378902	0.298166
N221	N	0.155989	-0.045569	0.631500
N222	N	0.489322	0.287764	0.964833
C223	C	-0.216669	-0.346543	0.303064
C224	C	0.116664	-0.013210	0.636397
C225	C	0.449998	0.320123	0.969730
N226	N	-0.255977	-0.378995	0.307982
N227	N	0.077357	-0.045662	0.641315
N228	N	0.410690	0.287672	0.974648
N229	N	-0.255960	-0.441452	0.307993
N230	N	0.077374	-0.108119	0.641326
N231	N	0.410707	0.225215	0.974659
C232	C	-0.216636	-0.473333	0.303086
C233	C	0.116698	-0.139999	0.636419
C234	C	0.450031	0.193334	0.969752
C235	C	-0.245375	-0.242387	0.343362
C236	C	0.087958	0.090946	0.676696
C237	C	0.421291	0.424279	1.010029
C238	C	-0.245396	-0.176644	0.343342
C239	C	0.087937	0.156690	0.676676
C240	C	0.421270	0.490023	1.010009
C241	C	-0.188038	-0.176654	0.262702
C242	C	0.145295	0.156680	0.596036
C243	C	0.478629	0.490013	0.929369
C244	C	-0.188021	-0.242396	0.262719
C245	C	0.145312	0.090937	0.596052
C246	C	0.478645	0.424270	0.929386
C247	C	-0.216689	-0.275259	0.303052
C248	C	0.116644	0.058074	0.636386
C249	C	0.449978	0.391408	0.969719
C250	C	-0.216687	-0.909720	0.138875
C251	C	0.116646	-0.576387	0.472209
C252	C	0.449980	-0.243054	0.805542
C253	C	-0.216702	-0.909763	0.068907
C254	C	0.116632	-0.576429	0.402241
C255	C	0.449965	-0.243096	0.735574
C256	C	-0.187940	-0.949853	0.569425
C257	C	0.145393	-0.616520	0.902758
C258	C	0.478726	-0.283186	1.236091
C259	C	-0.187950	-0.949883	0.635167
C260	C	0.145383	-0.616549	0.968500
C261	C	0.478716	-0.283216	1.301834
C262	C	-0.216647	-0.909608	0.668068
C263	C	0.116686	-0.576274	1.001401
C264	C	0.450020	-0.242941	1.334735
C265	C	-0.245344	-0.869312	0.635221
C266	C	0.087989	-0.535979	0.968554
C267	C	0.421323	-0.202645	1.301888
C268	C	-0.245336	-0.869288	0.569480
C269	C	0.087997	-0.535955	0.902813
C270	C	0.421330	-0.202621	1.236146
N271	N	-0.220055	-0.854540	0.771350
N272	N	0.113279	-0.521206	1.104683
N273	N	0.446612	-0.187873	1.438017
N274	N	-0.220059	-0.854564	0.833801
N275	N	0.113274	-0.521231	1.167135
N276	N	0.446607	-0.187897	1.500468
C277	C	-0.216673	-0.909678	0.866143
C278	C	0.116661	-0.576345	1.199476
C279	C	0.449994	-0.243012	1.532809
N280	N	-0.213273	-0.964768	0.833673
N281	N	0.120061	-0.631435	1.167007
N282	N	0.453394	-0.298102	1.500340
N283	N	-0.213266	-0.964743	0.771216
N284	N	0.120068	-0.631410	1.104549
N285	N	0.453401	-0.298076	1.437883
C286	C	-0.216659	-0.909629	0.739353
C287	C	0.116674	-0.576296	1.072687
C288	C	0.450008	-0.242963	1.406020
C289	C	-0.187991	-0.950007	0.970267
C290	C	0.145342	-0.616673	1.303601
C291	C	0.478676	-0.283340	1.636934
C292	C	-0.188004	-0.950037	1.036011
C293	C	0.145329	-0.616704	1.369344
C294	C	0.478662	-0.283371	1.702678
C295	C	-0.245395	-0.869461	1.036064
C296	C	0.087938	-0.536128	1.369397
C297	C	0.421271	-0.202794	1.702730
C298	C	-0.245385	-0.869436	0.970321
C299	C	0.087949	-0.536103	1.303654
C300	C	0.421282	-0.202769	1.636988
C301	C	-0.216680	-0.909708	0.937427
C302	C	0.116653	-0.576375	1.270760
C303	C	0.449987	-0.243041	1.604094
H304	H	-0.388154	-0.982736	0.230002
H305	H	-0.054821	-0.649402	0.563336
H306	H	0.278513	-0.316069	0.896669
C307	C	-0.276808	-0.679375	0.387808
C308	C	0.056525	-0.346042	0.721141
C309	C	0.389858	-0.012708	1.054474
N310	N	-0.300563	-0.706601	0.421224
N311	N	0.032771	-0.373267	0.754557
N312	N	0.366104	-0.039934	1.087891
H313	H	-0.164587	-0.982696	0.661910
H314	H	0.168747	-0.649363	0.995243
H315	H	0.502080	-0.316030	1.328577
H316	H	-0.744654	-0.796333	0.416249
H317	H	-0.411320	-0.462999	0.749582
H318	H	-0.077987	-0.129666	1.082916
H319	H	-0.164568	-0.982646	0.542644
H320	H	0.168765	-0.649313	0.875977
H321	H	0.502098	-0.315980	1.209311
C322	C	-0.276843	-0.541323	0.387778
C323	C	0.056490	-0.207989	0.721111
C324	C	0.389823	0.125344	1.054444
N325	N	-0.300608	-0.514085	0.421185
N326	N	0.032725	-0.180752	0.754518
N327	N	0.366059	0.152582	1.087851
H328	H	-0.268710	-0.836521	0.662013
H329	H	0.064624	-0.503188	0.995346
H330	H	0.397957	-0.169854	1.328680
C331	C	-0.479916	-0.825063	0.387588
C332	C	-0.146582	-0.491729	0.720922
C333	C	0.186751	-0.158396	1.054255
N334	N	-0.499335	-0.791684	0.420944
N335	N	-0.166002	-0.458350	0.754277
N336	N	0.167332	-0.125017	1.087611
H337	H	-1.045671	-0.982836	0.229798
H338	H	-0.712338	-0.649503	0.563131
H339	H	-0.379005	-0.316170	0.896465
C340	C	-0.156501	-0.140501	0.218347
C341	C	0.176832	0.192832	0.551680
C342	C	0.510166	0.526165	0.885013
N343	N	-0.132747	-0.113268	0.184936
N344	N	0.200586	0.220066	0.518269
N345	N	0.533920	0.553399	0.851603
H346	H	-0.268701	-0.836476	0.542742
H347	H	0.064633	-0.503143	0.876075
H348	H	0.397966	-0.169809	1.209408
H349	H	-0.603993	-1.023048	0.189660
H350	H	-0.270660	-0.689715	0.522993
H351	H	0.062674	-0.356382	0.856327
C352	C	-0.953790	-0.825133	0.387439
C353	C	-0.620457	-0.491800	0.720772
C354	C	-0.287123	-0.158467	1.054106
N355	N	-0.934349	-0.791748	0.420811
N356	N	-0.601015	-0.458414	0.754144
N357	N	-0.267682	-0.125081	1.087478
H358	H	-0.164619	-0.982801	0.943484
H359	H	0.168714	-0.649467	1.276817
H360	H	0.502047	-0.316134	1.610150
H361	H	-0.164595	-0.550730	0.229951
H362	H	0.168739	-0.217397	0.563284
H363	H	0.502072	0.115937	0.896617
C364	C	-0.156365	-0.679396	0.218448
C365	C	0.176969	-0.346063	0.551782
C366	C	0.510302	-0.012730	0.885115
N367	N	-0.132595	-0.706632	0.185047
N368	N	0.200739	-0.373299	0.518381
N369	N	0.534072	-0.039965	0.851714
H370	H	-0.164641	-0.982853	1.062747
H371	H	0.168692	-0.649519	1.396081
H372	H	0.502026	-0.316186	1.729414
C373	C	-0.836457	-0.784829	0.427724
C374	C	-0.503124	-0.451495	0.761058
C375	C	-0.169791	-0.118162	1.094391
N376	N	-0.855874	-0.751444	0.461078
N377	N	-0.522540	-0.418111	0.794411
N378	N	-0.189207	-0.084777	1.127744
H379	H	-0.268763	-0.836671	1.062851
H380	H	0.064570	-0.503338	1.396184
H381	H	0.397904	-0.170005	1.729518
C382	C	-0.276947	-0.140486	0.387698
C383	C	0.056387	0.192847	0.721031
C384	C	0.389720	0.526181	1.054365
N385	N	-0.300709	-0.113252	0.421111
N386	N	0.032624	0.220081	0.754444
N387	N	0.365958	0.553415	1.087777
C388	C	-0.479970	-0.994261	0.218456
C389	C	-0.146636	-0.660928	0.551789
C390	C	0.186697	-0.327595	0.885122
N391	N	-0.499411	-1.027650	0.185086
N392	N	-0.166077	-0.694316	0.518419
N393	N	0.167256	-0.360983	0.851753
C394	C	-0.695804	-1.034576	0.178124
C395	C	-0.362471	-0.701242	0.511457
C396	C	-0.029138	-0.367909	0.844790
N397	N	-0.715244	-1.067967	0.144755
N398	N	-0.381911	-0.734633	0.478088
N399	N	-0.048577	-0.401300	0.811422
H400	H	-0.960549	-0.982829	0.229821
H401	H	-0.627216	-0.649495	0.563154
H402	H	-0.293882	-0.316162	0.896487
H403	H	-0.268746	-0.836623	0.943582
H404	H	0.064587	-0.503290	1.276915
H405	H	0.397921	-0.169956	1.610248
H406	H	-0.689003	-0.796309	0.416265
H407	H	-0.355670	-0.462975	0.749598
H408	H	-0.022337	-0.129642	1.082931
C409	C	-1.052303	-0.825159	0.387414
C410	C	-0.718969	-0.491826	0.720748
C411	C	-0.385636	-0.158492	1.054081
N412	N	-1.071719	-0.791780	0.420773
N413	N	-0.738386	-0.458446	0.754107
N414	N	-0.405052	-0.125113	1.087440
H415	H	-0.603895	-0.796288	0.416277
H416	H	-0.270562	-0.462955	0.749611
H417	H	0.062772	-0.129621	1.082944
C418	C	-0.381383	-0.825048	0.387611
C419	C	-0.048050	-0.491714	0.720945
C420	C	0.285283	-0.158381	1.054278
N421	N	-0.361927	-0.791665	0.420969
N422	N	-0.028594	-0.458332	0.754303
N423	N	0.304740	-0.124998	1.087636
H424	H	-0.164663	-0.269160	0.229894
H425	H	0.168670	0.064174	0.563228
H426	H	0.502004	0.397507	0.896561
C427	C	-0.836567	-1.034581	0.178077
C428	C	-0.503234	-0.701247	0.511410
C429	C	-0.169901	-0.367914	0.844743
N430	N	-0.856025	-1.067950	0.144706
N431	N	-0.522691	-0.734616	0.478040
N432	N	-0.189358	-0.401283	0.811373
H433	H	-0.744740	-1.023066	0.189612
H434	H	-0.411406	-0.689733	0.522946
H435	H	-0.078073	-0.356400	0.856279
C436	C	-0.276915	-0.278539	0.387722
C437	C	0.056418	0.054795	0.721056
C438	C	0.389751	0.388128	1.054389
N439	N	-0.300673	-0.305766	0.421133
N440	N	0.032661	0.027567	0.754467
N441	N	0.365994	0.360901	1.087800
