data_functionalizedCrystal
_audit_creation_method	'MofGen! by Chris Wilmer'
_symmetry_space_group_name_H-M	'P1'
_symmetry_Int_Tables_number	1
_symmetry_cell_setting	triclinic
loop_
_symmetry_equiv_pos_as_xyz
  x,y,z
_cell_length_a	27.354012
_cell_length_b	27.353283
_cell_length_c	27.349551
_cell_angle_alpha	60.005606
_cell_angle_beta	60.011434
_cell_angle_gamma	59.993282
loop_
_atom_site_label
_atom_site_type_symbol
_atom_site_fract_x
_atom_site_fract_y
_atom_site_fract_z
O1	O	0.067635	-0.714267	0.597330
O2	O	0.025429	-0.556105	0.481282
O3	O	0.125575	-0.656186	0.481214
O4	O	-0.032512	-0.614186	0.597397
O5	O	0.158797	-0.622968	0.514367
O6	O	0.058650	-0.522887	0.514434
O7	O	0.100856	-0.681048	0.630482
Zn8	Zn	0.085028	-0.596693	0.577722
Zn9	Zn	0.041257	-0.640460	0.534042
O10	O	0.000709	-0.580967	0.630549
N11	N	0.114901	-0.566828	0.607534
N12	N	0.011389	-0.670331	0.504229
C13	C	0.179404	-0.338196	0.672015
C14	C	0.179501	-0.502386	0.836160
C15	C	0.179415	-0.502363	0.671996
C16	C	0.343611	-0.502373	0.671960
C17	C	0.197478	-0.392371	0.690061
C18	C	0.197534	-0.484321	0.781984
C19	C	0.289434	-0.484312	0.690032
C20	C	0.197486	-0.484308	0.690051
C21	C	0.156398	-0.269238	0.649045
C22	C	0.156418	-0.525342	0.649015
C23	C	0.220484	-0.461329	0.713032
C24	C	0.443889	-0.485097	0.619172
C25	C	0.506571	-0.505993	0.598266
C26	C	0.506589	-0.607412	0.636940
C27	C	0.443909	-0.586515	0.657848
C28	C	0.171510	-0.237888	0.587422
C29	C	0.150593	-0.175201	0.566543
C30	C	0.099458	-0.175218	0.668913
C31	C	0.120375	-0.237905	0.689792
C32	C	0.094789	-0.510201	0.664176
C33	C	0.073888	-0.531091	0.643278
C34	C	0.176239	-0.582263	0.592072
C35	C	0.197142	-0.561373	0.612963
C36	C	0.094933	-0.510244	0.936476
C37	C	0.074073	-0.531151	0.999161
C38	C	0.176453	-0.582335	0.999126
C39	C	0.197312	-0.561429	0.936439
C40	C	0.156551	-0.525382	0.905116
C41	C	0.412561	-0.525357	0.648961
C42	C	-0.098513	-0.688235	0.485867
C43	C	-0.006461	-0.688368	0.394066
C44	C	-0.006645	-0.780264	0.486040
C45	C	-0.006630	-0.688361	0.486097
C46	C	-0.029562	-0.711308	0.463018
N47	N	0.537030	-0.566846	0.607436
O48	O	0.741877	-0.576849	0.459995
O49	O	0.742050	-0.693241	0.618010
O50	O	0.741986	-0.692977	0.517791
O51	O	0.741941	-0.577114	0.560214
O52	O	0.642405	-0.659839	0.551046
O53	O	0.642469	-0.660104	0.651265
O54	O	0.642296	-0.543712	0.493251
Zn55	Zn	0.626572	-0.596646	0.577538
Zn56	Zn	0.757774	-0.640307	0.533723
O57	O	0.642360	-0.543976	0.593469
N58	N	0.847316	-0.670107	0.503818
N59	N	0.114877	-0.144758	0.607577
O60	O	-0.032498	0.060193	0.597441
O61	O	0.125523	0.060193	0.481067
O62	O	0.025289	0.060179	0.481345
O63	O	0.067736	0.060207	0.597163
O64	O	0.058511	-0.039410	0.514543
O65	O	0.158745	-0.039397	0.514265
O66	O	0.000724	-0.039396	0.630638
Zn67	Zn	0.085009	-0.055208	0.577722
Zn68	Zn	0.041238	0.076005	0.533983
O69	O	0.100958	-0.039382	0.630360
N70	N	0.011362	0.165555	0.504130
N71	N	0.115121	-0.566884	1.029592
O72	O	0.104990	-0.714248	1.234528
O73	O	-0.011371	-0.556177	1.234539
O74	O	-0.011103	-0.656395	1.234497
O75	O	0.104722	-0.614030	1.234569
O76	O	0.022090	-0.623190	1.134913
O77	O	0.021822	-0.522972	1.134954
O78	O	0.138182	-0.681044	1.134943
Zn79	Zn	0.085272	-0.596736	1.119137
Zn80	Zn	0.041539	-0.640484	1.250344
O81	O	0.137914	-0.580826	1.134984
N82	N	0.011689	-0.670343	1.339890
C83	C	0.038085	-0.519567	0.481870
C84	C	0.162104	-0.643505	0.481786
C85	C	0.088200	-0.717587	0.629893
C86	C	-0.035819	-0.593649	0.629977
C87	C	0.692280	-0.692701	0.654545
C88	C	0.692203	-0.692374	0.530435
C89	C	0.692063	-0.544251	0.456717
C90	C	0.692144	-0.544580	0.580825
C91	C	0.162000	0.010521	0.481600
C92	C	0.037914	0.010381	0.481984
C93	C	-0.035795	0.010399	0.630065
C94	C	0.088333	0.010415	0.629722
C95	C	-0.010799	-0.519660	1.184747
C96	C	-0.010461	-0.643761	1.184677
C97	C	0.137610	-0.717561	1.184734
C98	C	0.137280	-0.593452	1.184783
H99	H	0.023897	-0.518815	1.024687
H100	H	0.692005	-0.507708	0.411338
O101	O	0.216052	0.010880	0.437957
C102	C	0.314538	0.011343	0.409962
C103	C	0.253348	0.010951	0.459435
H104	H	0.344714	0.011388	0.427312
H105	H	0.308033	0.053120	0.369253
H106	H	0.336182	-0.030235	0.396705
H107	H	0.231672	0.052500	0.472742
H108	H	0.259893	-0.030854	0.500111
O109	O	0.098954	-0.771743	0.673431
C110	C	0.104425	-0.825349	0.773202
C111	C	0.092244	-0.763982	0.723943
H112	H	0.098992	-0.819093	0.814058
H113	H	0.152000	-0.855463	0.755765
H114	H	0.071256	-0.846920	0.786263
H115	H	0.125375	-0.742359	0.710860
H116	H	0.044653	-0.733909	0.741407
O117	O	-0.089963	-0.583081	0.673562
C118	C	-0.151393	-0.622482	0.774514
C119	C	-0.090055	-0.634534	0.725202
H120	H	-0.151484	-0.664068	0.816281
H121	H	-0.187961	-0.611144	0.758053
H122	H	-0.160132	-0.583287	0.785725
H123	H	-0.081259	-0.673736	0.713969
H124	H	-0.053521	-0.645836	0.741689
H125	H	0.207509	-0.652460	0.445301
H126	H	-0.046832	-0.652809	1.184615
H127	H	0.028825	0.010378	0.445599
H128	H	0.097420	0.010424	0.666105
H129	H	0.418403	-0.619300	0.682106
O130	O	0.180767	-0.582688	1.184719
C131	C	0.280454	-0.577064	1.133129
C132	C	0.231262	-0.589284	1.133134
H133	H	0.321286	-0.582380	1.091420
H134	H	0.293595	-0.610230	1.174778
H135	H	0.262876	-0.529490	1.133167
H136	H	0.248798	-0.636841	1.133074
H137	H	0.218127	-0.556081	1.091488
H138	H	-0.047330	-0.474261	1.184750
O139	O	-0.089892	0.010376	0.673728
C140	C	-0.151225	0.010427	0.774659
C141	C	-0.089930	0.010440	0.725269
H142	H	-0.151280	0.010491	0.816337
H143	H	-0.160005	-0.031264	0.786024
H144	H	-0.187788	0.052092	0.758160
H145	H	-0.053329	-0.031197	0.741727
H146	H	-0.081202	0.052159	0.713912
O147	O	0.692101	-0.501213	0.591758
C148	C	0.692172	-0.473835	0.662883
C149	C	0.692207	-0.522995	0.650586
H150	H	0.692270	-0.491432	0.710440
H151	H	0.650459	-0.432978	0.657599
H152	H	0.733808	-0.460710	0.629692
H153	H	0.650599	-0.536170	0.683766
H154	H	0.733947	-0.563820	0.655850
O155	O	0.181122	-0.771760	1.184755
C156	C	0.208972	-0.870387	1.184682
C157	C	0.159638	-0.809039	1.184674
H158	H	0.191625	-0.900539	1.184604
H159	H	0.222025	-0.891941	1.226376
H160	H	0.249809	-0.864079	1.143024
H161	H	0.118768	-0.815295	1.226304
H162	H	0.146635	-0.787505	1.142952
H163	H	0.209648	-0.611676	1.024626
O164	O	0.055254	-0.475253	0.906144
C165	C	-0.048496	-0.426660	0.912800
C166	C	-0.003627	-0.466299	0.947226
H167	H	-0.096111	-0.419398	0.946000
H168	H	-0.041336	-0.449612	0.883466
H169	H	-0.041254	-0.381584	0.883442
H170	H	-0.010842	-0.511382	0.976616
H171	H	-0.010798	-0.443300	0.976522
H172	H	0.692323	-0.729239	0.699929
O173	O	0.105765	-0.268314	0.749662
C174	C	0.110555	-0.287426	0.843526
C175	C	0.127154	-0.252972	0.775724
H176	H	0.127829	-0.275026	0.864619
H177	H	0.131701	-0.337625	0.851513
H178	H	0.059801	-0.275105	0.864646
H179	H	0.177899	-0.265243	0.754559
H180	H	0.105965	-0.202782	0.767780
O181	O	0.257185	-0.576240	0.906044
C182	C	0.351071	-0.655709	0.886806
C183	C	0.283277	-0.639021	0.921273
H184	H	0.372184	-0.706467	0.899096
H185	H	0.372242	-0.638456	0.899140
H186	H	0.358967	-0.634549	0.836626
H187	H	0.275327	-0.660176	0.971461
H188	H	0.262140	-0.656263	0.908889
O189	O	0.055148	-0.475181	0.699163
C190	C	-0.048579	-0.426651	0.747772
C191	C	-0.003751	-0.466304	0.708131
H192	H	-0.096208	-0.419473	0.755045
H193	H	-0.041412	-0.381538	0.724816
H194	H	-0.041298	-0.449626	0.792840
H195	H	-0.011004	-0.443382	0.663056
H196	H	-0.010928	-0.511416	0.731133
O197	O	0.014037	-0.516493	0.658025
C198	C	-0.068937	-0.552521	0.706292
C199	C	-0.001148	-0.569136	0.689618
H200	H	-0.081236	-0.595072	0.731848
H201	H	-0.081322	-0.527019	0.663780
H202	H	-0.094445	-0.523162	0.735628
H203	H	0.024408	-0.598514	0.660297
H204	H	0.011192	-0.594608	0.732155
H205	H	0.209407	-0.611608	0.562721
O206	O	0.027227	-0.465343	0.438442
C207	C	-0.043805	-0.366752	0.410897
C208	C	-0.031593	-0.428137	0.460127
H209	H	-0.091356	-0.336649	0.428416
H210	H	-0.038477	-0.372945	0.370051
H211	H	-0.010599	-0.345204	0.397791
H212	H	-0.064788	-0.449718	0.473285
H213	H	-0.036901	-0.421904	0.500941
H214	H	0.692221	-0.728771	0.521355
H215	H	0.247325	-0.573698	0.600612
H216	H	0.162897	-0.149674	0.516363
O217	O	0.536976	-0.666823	0.645534
C218	C	0.556181	-0.753286	0.627123
C219	C	0.521717	-0.686005	0.617359
H220	H	0.543867	-0.768813	0.604339
H221	H	0.543869	-0.779552	0.677140
H222	H	0.606359	-0.761294	0.607083
H223	H	0.471531	-0.677941	0.637364
H224	H	0.534079	-0.659774	0.567335
O225	O	0.536981	-0.466848	0.569236
C226	C	0.556096	-0.379940	0.484764
C227	C	0.521630	-0.424237	0.517577
H228	H	0.543688	-0.345470	0.442998
H229	H	0.606288	-0.405347	0.471298
H230	H	0.543796	-0.356184	0.515734
H231	H	0.533880	-0.448005	0.486640
H232	H	0.471447	-0.398797	0.531053
O233	O	0.413343	-0.425703	0.610570
C234	C	0.316773	-0.348562	0.625666
C235	C	0.351288	-0.415838	0.635438
H236	H	0.266595	-0.340566	0.645777
H237	H	0.329033	-0.322307	0.575646
H238	H	0.329146	-0.333012	0.648378
H239	H	0.338933	-0.431443	0.612762
H240	H	0.339025	-0.442053	0.685467
O241	O	0.206473	-0.268230	0.547758
C242	C	0.255007	-0.261597	0.444015
C243	C	0.215395	-0.227158	0.488866
H244	H	0.262243	-0.228405	0.396392
H245	H	0.232051	-0.290931	0.451198
H246	H	0.300092	-0.290960	0.451257
H247	H	0.170303	-0.197762	0.481651
H248	H	0.238398	-0.197862	0.481672
H249	H	0.070133	-0.149706	0.702094
