data_functionalizedCrystal
_audit_creation_method	'MofGen! by Chris Wilmer'
_symmetry_space_group_name_H-M	'P1'
_symmetry_Int_Tables_number	1
_symmetry_cell_setting	triclinic
loop_
_symmetry_equiv_pos_as_xyz
  x,y,z
_cell_length_a	14.853567
_cell_length_b	8.634740
_cell_length_c	7.088929
_cell_angle_alpha	97.174675
_cell_angle_beta	83.771294
_cell_angle_gamma	92.102619
loop_
_atom_site_label
_atom_site_type_symbol
_atom_site_fract_x
_atom_site_fract_y
_atom_site_fract_z
O1	O	0.301882	2.030881	-0.158957
O2	O	0.277230	1.581876	-0.158962
O3	O	0.159360	1.818371	-0.158965
O4	O	0.419752	1.794385	-0.158954
O5	O	0.143566	1.849976	0.159010
O6	O	0.261436	1.613481	0.159013
O7	O	0.286088	2.062486	0.159018
Cu8	Cu	0.272320	1.840869	0.188049
Cu9	Cu	0.290998	1.803492	-0.187993
O10	O	0.403958	1.825990	0.159021
C11	C	0.263748	1.540216	0.000025
C12	C	0.247097	1.368997	0.000022
C13	C	0.117781	1.833086	0.000017
C14	C	0.017417	1.829828	0.000000
C15	C	-0.408404	1.675579	0.000035
C16	C	-0.405486	1.956542	0.000038
C17	C	-0.311188	1.959604	0.000027
C18	C	-0.265494	1.820651	0.000023
C19	C	-0.314098	1.678637	0.000030
C20	C	-0.262577	2.101617	0.000039
C21	C	-0.168274	2.104684	0.000030
C22	C	-0.122577	1.965729	0.000012
C23	C	-0.171187	1.823709	0.000017
C24	C	-0.125494	1.684756	0.000013
C25	C	-0.174101	1.542733	0.000004
C26	C	-0.268402	1.539682	0.000012
C27	C	-0.028277	1.968780	0.000005
C28	C	-0.031187	1.687814	0.000007
C29	C	0.445538	1.811275	0.000035
C30	C	0.545902	1.814532	0.000039
C31	C	0.299570	2.104145	0.000027
C32	C	0.316222	2.275363	0.000017
N33	N	0.259183	1.867169	0.452537
N34	N	0.304129	1.777205	-0.452480
H35	H	0.175176	1.318160	-0.000036
Br36	Br	0.181561	2.022606	0.588620
H37	H	-0.447984	1.559947	0.000020
Br38	Br	-0.334373	1.346953	-0.000013
H39	H	0.011295	2.084414	0.000024
H40	H	-0.442696	2.069673	0.000057
Br41	Br	-0.112078	1.354165	0.000023
Br42	Br	0.436094	1.360070	0.000056
H43	H	0.006010	1.574659	-0.000004
H44	H	-0.299789	2.214746	0.000060
H45	H	-0.128705	2.220327	0.000035
Br46	Br	0.381764	1.621799	0.411443
