data_functionalizedCrystal
_audit_creation_method	'MofGen! by Chris Wilmer'
_symmetry_space_group_name_H-M	'P1'
_symmetry_Int_Tables_number	1
_symmetry_cell_setting	triclinic
loop_
_symmetry_equiv_pos_as_xyz
  x,y,z
_cell_length_a	10.654558
_cell_length_b	10.654550
_cell_length_c	9.482900
_cell_angle_alpha	99.426343
_cell_angle_beta	80.619667
_cell_angle_gamma	84.486610
loop_
_atom_site_label
_atom_site_type_symbol
_atom_site_fract_x
_atom_site_fract_y
_atom_site_fract_z
O1	O	1.687235	0.156959	-0.120871
O2	O	1.321759	0.173753	-0.120878
O3	O	1.512899	-0.017382	-0.120869
O4	O	1.496094	0.348094	-0.120880
O5	O	1.474075	0.021599	0.120922
O6	O	1.282935	0.212734	0.120913
O7	O	1.648411	0.195940	0.120920
Cu8	Cu	1.462128	0.207896	0.142994
Cu9	Cu	1.508041	0.161797	-0.142952
O10	O	1.457271	0.387075	0.120911
C11	C	1.255549	0.192008	0.000016
C12	C	1.116107	0.188311	0.000014
C13	C	0.940731	0.161867	-0.131786
C14	C	1.071754	0.165329	-0.131788
C15	C	1.029430	0.207821	0.131826
C16	C	0.898411	0.204351	0.131825
C17	C	0.896385	0.138896	-0.263597
C18	C	0.983053	0.119384	-0.395409
C19	C	1.114076	0.122845	-0.395411
C20	C	1.158431	0.145819	-0.263600
C21	C	1.492253	-0.044690	0.000025
C22	C	1.488562	-0.184134	0.000019
C23	C	1.601102	-0.263615	0.000026
C24	C	1.597627	-0.394638	0.000016
C25	C	1.369062	-0.366684	-0.000001
C26	C	1.372539	-0.235666	-0.000002
C27	C	1.717125	-0.212084	0.000047
C28	C	1.829674	-0.291566	0.000055
C29	C	1.826199	-0.422589	0.000045
C30	C	1.710175	-0.474129	0.000027
C31	C	1.714621	0.177684	0.000022
C32	C	1.854065	0.181379	0.000015
C33	C	1.477917	0.414382	0.000014
C34	C	1.481609	0.553825	0.000009
N35	N	1.429844	0.240320	0.344112
N36	N	1.540335	0.129364	-0.344070
C37	C	1.498510	0.171353	0.416315
C38	C	1.471659	0.198340	0.583731
H39	H	1.184639	0.106945	-0.502738
O40	O	1.072305	0.230106	0.259988
C41	C	1.016494	0.271971	0.521456
C42	C	0.967772	0.246712	0.376417
H43	H	0.932001	0.285430	0.615627
H44	H	1.087455	0.186917	0.528148
H45	H	1.066098	0.362363	0.527961
H46	H	0.918108	0.156362	0.369815
H47	H	0.896873	0.331835	0.369786
H48	H	0.827841	0.220263	0.239150
H49	H	1.719967	-0.105399	0.000060
O50	O	1.942257	-0.241288	0.000131
C51	C	2.048927	-0.051850	0.000060
C52	C	1.921333	-0.108611	0.000012
H53	H	2.032059	0.055422	-0.000067
H54	H	2.088366	-0.068102	0.101273
H55	H	2.120842	-0.100882	-0.101105
H56	H	1.849327	-0.059617	0.101108
H57	H	1.882000	-0.092376	-0.101268
H58	H	1.619002	0.050330	0.593809
H59	H	1.265121	0.148629	-0.263612
O60	O	1.377716	0.292630	0.657604
C61	C	1.212754	0.458426	0.641909
C62	C	1.319083	0.351666	0.558066
H63	H	1.165337	0.506205	0.561469
H64	H	1.137924	0.415294	0.713143
H65	H	1.256355	0.532879	0.713202
H66	H	1.275598	0.277178	0.486694
H67	H	1.393899	0.394891	0.486924
H68	H	1.280899	-0.170949	-0.000005
O69	O	1.335907	0.334605	0.417991
C70	C	1.170945	0.500400	0.402296
C71	C	1.277274	0.393641	0.318453
H72	H	1.123528	0.548179	0.321856
H73	H	1.096114	0.457269	0.473530
H74	H	1.214545	0.574853	0.473589
H75	H	1.233788	0.319152	0.247081
H76	H	1.352090	0.436866	0.247311
H77	H	1.917844	-0.487303	0.000037
H78	H	1.707358	-0.580820	0.000003
H79	H	1.577173	0.092325	0.354190
O80	O	0.940193	0.096997	-0.523573
C81	C	0.995992	0.055300	-0.785041
C82	C	1.044702	0.080609	-0.639998
H83	H	1.080459	0.042070	-0.879209
H84	H	0.946481	-0.035155	-0.791736
H85	H	0.924946	0.140349	-0.791548
H86	H	1.115793	-0.004363	-0.633394
H87	H	1.094137	0.171110	-0.633365
H88	H	0.789701	0.136079	-0.263610
H89	H	1.274600	-0.408659	-0.000014
