data_functionalizedCrystal
_audit_creation_method	'MofGen! by Chris Wilmer'
_symmetry_space_group_name_H-M	'P1'
_symmetry_Int_Tables_number	1
_symmetry_cell_setting	triclinic
loop_
_symmetry_equiv_pos_as_xyz
  x,y,z
_cell_length_a	19.805405
_cell_length_b	19.805407
_cell_length_c	12.759393
_cell_angle_alpha	90.024579
_cell_angle_beta	89.963489
_cell_angle_gamma	89.972362
loop_
_atom_site_label
_atom_site_type_symbol
_atom_site_fract_x
_atom_site_fract_y
_atom_site_fract_z
Zn1	Zn	-0.269408	-1.034755	-0.594113
Zn2	Zn	-0.382611	-1.034664	-0.418415
Zn3	Zn	-0.269444	-0.921564	-0.418433
Zn4	Zn	-0.382563	-0.921533	-0.594037
O5	O	-0.326007	-0.978129	-0.506250
O6	O	-0.284430	-1.129459	-0.570831
O7	O	-0.367634	-1.019636	-0.271396
O8	O	-0.174723	-0.936630	-0.441777
O9	O	-0.367600	-1.129393	-0.441746
O10	O	-0.174697	-1.019791	-0.570849
O11	O	-0.284491	-0.936542	-0.271410
O12	O	-0.284444	-0.826843	-0.441703
O13	O	-0.367518	-0.936577	-0.741068
O14	O	-0.367553	-0.826820	-0.570719
O15	O	-0.284384	-1.019761	-0.741124
O16	O	-0.477321	-1.019606	-0.441672
O17	O	-0.477286	-0.936489	-0.570701
C18	C	-0.325998	-0.802273	-0.506205
C19	C	-0.326010	-0.727041	-0.506211
C20	C	-0.282772	-0.265288	-0.573582
C21	C	-0.282775	-0.335977	-0.573577
C22	C	-0.326009	-0.371279	-0.506262
C23	C	-0.369250	-0.335890	-0.438955
C24	C	-0.369251	-0.265203	-0.438966
C25	C	-0.369248	-0.620963	-0.438909
C26	C	-0.369243	-0.691655	-0.438901
C27	C	-0.282772	-0.691737	-0.573521
C28	C	-0.282773	-0.621050	-0.573532
C29	C	-0.326016	-0.585667	-0.506229
C30	C	-0.326014	-0.509018	-0.506237
C31	C	-0.326008	-0.447926	-0.506248
C32	C	-0.501863	-0.978053	-0.506199
C33	C	-0.577095	-0.978082	-0.506212
C34	C	-0.612435	-1.021403	-0.439097
C35	C	-0.683123	-1.021432	-0.439120
C36	C	-0.718470	-0.978136	-0.506254
C37	C	-0.683125	-0.934813	-0.573377
C38	C	-0.612438	-0.934788	-0.573358
C39	C	-0.968199	-0.934913	-0.573454
C40	C	-1.038891	-0.934939	-0.573466
C41	C	-1.038883	-1.021556	-0.439217
C42	C	-0.968196	-1.021532	-0.439198
C43	C	-0.932858	-0.978212	-0.506324
C44	C	-0.856209	-0.978182	-0.506300
C45	C	-0.795117	-0.978161	-0.506274
C46	C	-0.149464	-0.978224	-0.506324
C47	C	-0.074232	-0.978264	-0.506355
C48	C	-0.325942	-0.978176	-0.780283
C49	C	-0.325914	-0.978196	-0.897060
C50	C	-0.326013	-0.154672	-0.506286
C51	C	-0.326008	-0.229904	-0.506278
C52	C	-0.369191	-1.021465	-0.951912
C53	C	-0.369162	-1.021485	-1.061636
C54	C	-0.282578	-0.934961	-1.061646
C55	C	-0.282604	-0.934945	-0.951924
C56	C	-0.419181	-1.071417	-0.951907
C57	C	-0.419152	-1.071437	-1.061632
C58	C	-0.326022	-0.978121	-0.233282
C59	C	-0.325859	-0.978232	-0.116506
H60	H	-0.247561	-0.236550	-0.628392
F61	F	-0.720746	-0.888737	-0.644832
H62	H	-0.711894	-1.056708	-0.384468
F63	F	-0.574822	-1.067481	-0.367637
F64	F	-0.236752	-0.729400	-0.645155
F65	F	-0.930581	-1.067613	-0.367745
F66	F	-0.574827	-0.888682	-0.644794
F67	F	-1.076499	-1.067665	-0.367780
F68	F	-0.236535	-0.888900	-0.893550
F69	F	-0.236487	-0.888934	-1.120046
H70	H	-0.404453	-0.720397	-0.384083
F71	F	-1.076508	-0.888856	-0.644924
F72	F	-0.236755	-0.583482	-0.645175
F73	F	-0.394627	-1.136554	-1.106146
H74	H	-0.404457	-0.592162	-0.384104
F75	F	-0.487658	-1.053051	-1.100526
F76	F	-0.400847	-1.139939	-0.913011
H77	H	-0.468985	-1.052613	-0.917848
F78	F	-0.930597	-0.888807	-0.644895
H79	H	-0.404459	-0.236393	-0.384162
F80	F	-0.415267	-0.373463	-0.367317
F81	F	-0.236760	-0.373632	-0.645216
