data_functionalizedCrystal
_audit_creation_method	'MofGen! by Chris Wilmer'
_symmetry_space_group_name_H-M	'P1'
_symmetry_Int_Tables_number	1
_symmetry_cell_setting	triclinic
loop_
_symmetry_equiv_pos_as_xyz
  x,y,z
_cell_length_a	21.883469
_cell_length_b	21.882911
_cell_length_c	21.879399
_cell_angle_alpha	60.006540
_cell_angle_beta	60.013207
_cell_angle_gamma	59.992231
loop_
_atom_site_label
_atom_site_type_symbol
_atom_site_fract_x
_atom_site_fract_y
_atom_site_fract_z
O1	O	0.084645	-0.892842	0.746620
O2	O	0.031867	-0.695139	0.601571
O3	O	0.157054	-0.820237	0.601476
O4	O	-0.040542	-0.767744	0.746716
O5	O	0.198586	-0.778715	0.642912
O6	O	0.073399	-0.653617	0.643007
O7	O	0.126177	-0.851320	0.788056
Cu8	Cu	0.103580	-0.748677	0.719315
Cu9	Cu	0.054464	-0.797782	0.670313
O10	O	0.000990	-0.726222	0.788151
N11	N	0.138128	-0.714145	0.753785
N12	N	0.019923	-0.832320	0.635843
C13	C	0.190018	-0.547369	0.805644
C14	C	0.190029	-0.662289	0.805630
C15	C	0.218780	-0.633565	0.834353
C16	C	0.344122	-0.611968	0.768360
C17	C	0.422474	-0.638085	0.742222
C18	C	0.422504	-0.764859	0.790561
C19	C	0.344154	-0.738739	0.816702
C20	C	0.208899	-0.508180	0.728617
C21	C	0.182748	-0.429822	0.702522
C22	C	0.118843	-0.429847	0.830485
C23	C	0.144993	-0.508205	0.856580
C24	C	0.112994	-0.643364	0.824587
C25	C	0.086865	-0.669476	0.798467
C26	C	0.214799	-0.733437	0.734451
C27	C	0.240932	-0.707325	0.760562
C28	C	0.113084	-0.643389	0.959747
C29	C	0.087018	-0.669524	1.038102
C30	C	0.214996	-0.733501	1.038048
C31	C	0.241061	-0.707367	0.959690
C32	C	0.190103	-0.662308	0.920542
C33	C	0.304966	-0.662293	0.805598
C34	C	-0.117460	-0.854702	0.612901
C35	C	-0.002405	-0.854864	0.498145
C36	C	-0.002621	-0.969735	0.613108
C37	C	-0.002603	-0.854858	0.613180
C38	C	-0.031272	-0.883541	0.584334
N39	N	0.460550	-0.714150	0.753681
O40	O	0.699805	-0.721060	0.574973
O41	O	0.700047	-0.866553	0.772482
O42	O	0.699952	-0.866219	0.647213
O43	O	0.699900	-0.721394	0.700242
O44	O	0.575478	-0.824800	0.688791
O45	O	0.575573	-0.825134	0.814060
O46	O	0.575331	-0.679641	0.616551
Cu47	Cu	0.564087	-0.748606	0.719102
Cu48	Cu	0.711292	-0.797588	0.669931
O49	O	0.575426	-0.679975	0.741820
N50	N	0.814828	-0.832044	0.635345
N51	N	0.138106	-0.391772	0.753815
O52	O	-0.040520	-0.152377	0.746758
O53	O	0.156993	-0.152371	0.601281
O54	O	0.031698	-0.152390	0.601639
O55	O	0.084775	-0.152358	0.746401
O56	O	0.073234	-0.276876	0.643130
O57	O	0.198529	-0.276856	0.642772
O58	O	0.001015	-0.276863	0.788249
Cu59	Cu	0.103564	-0.288226	0.719299
Cu60	Cu	0.054444	-0.141007	0.670231
O61	O	0.126310	-0.276844	0.787892
N62	N	0.019892	-0.037461	0.635717
N63	N	0.138332	-0.714192	1.076133
O64	O	0.131293	-0.892804	1.315506
O65	O	-0.014162	-0.695219	1.315533
O66	O	-0.013826	-0.820490	1.315480
O67	O	0.130957	-0.767533	1.315559
O68	O	0.027651	-0.778981	1.191001
O69	O	0.027314	-0.653710	1.191054
O70	O	0.172770	-0.851295	1.191026
Cu71	Cu	0.103829	-0.748713	1.179674
Cu72	Cu	0.054778	-0.797802	1.326885
O73	O	0.172434	-0.726024	1.191079
N74	N	0.020275	-0.832331	1.430426
C75	C	0.047687	-0.649466	0.602306
C76	C	0.202716	-0.804385	0.602188
C77	C	0.110357	-0.896993	0.787321
C78	C	-0.044672	-0.742074	0.787439
C79	C	0.637839	-0.865879	0.818154
C80	C	0.637724	-0.865466	0.663023
C81	C	0.637536	-0.680313	0.570880
C82	C	0.637655	-0.680728	0.726010
C83	C	0.202592	-0.214459	0.601942
C84	C	0.047481	-0.214636	0.602435
C85	C	-0.044635	-0.214620	0.787537
C86	C	0.110528	-0.214598	0.787096
C87	C	-0.013455	-0.649572	1.253296
C88	C	-0.013030	-0.804697	1.253206
C89	C	0.172063	-0.896942	1.253263
C90	C	0.171648	-0.741808	1.253325
H91	H	0.024299	-0.654107	1.070013
H92	H	-0.059121	-0.592825	1.253304
O93	O	-0.112346	-0.728867	0.841925
C94	C	-0.112402	-0.793231	0.906421
H95	H	-0.068111	-0.844602	0.889924
H96	H	-0.099338	-0.787221	0.947090
C97	C	-0.244338	-0.739168	0.964483
C98	C	-0.189943	-0.802263	0.944220
H99	H	-0.292169	-0.744739	0.987802
H100	H	-0.244300	-0.695803	0.921032
H101	H	-0.233441	-0.734166	0.998370
H102	H	-0.200835	-0.807259	0.910326
H103	H	-0.189984	-0.845629	0.987666
H104	H	0.637745	-0.910963	0.651673
O105	O	0.270151	-0.214008	0.547386
C106	C	0.316707	-0.213874	0.574274
H107	H	0.280707	-0.190549	0.622493
H108	H	0.354787	-0.273516	0.594793
C109	C	0.408965	-0.193313	0.451567
C110	C	0.364750	-0.164660	0.510787
H111	H	0.438603	-0.162959	0.412405
H112	H	0.377601	-0.193406	0.433451
H113	H	0.440693	-0.243015	0.468676
H114	H	0.333017	-0.114963	0.493679
H115	H	0.396109	-0.164557	0.528898
H116	H	-0.058496	-0.816008	1.253133
H117	H	0.454413	-0.827107	0.799589
H118	H	-0.101359	-0.214623	0.833209
O119	O	0.315778	-0.725652	0.742013
C120	C	0.348254	-0.698807	0.663532
H121	H	0.311087	-0.691143	0.636130
H122	H	0.354036	-0.642797	0.645822
C123	C	0.471775	-0.764912	0.672396
C124	C	0.426128	-0.755504	0.638741
H125	H	0.519812	-0.799882	0.657103
H126	H	0.449896	-0.782995	0.725271
H127	H	0.476584	-0.718232	0.657635
H128	H	0.421311	-0.802181	0.653509
H129	H	0.448008	-0.737429	0.585867
O130	O	0.637950	-0.920303	0.885856
C131	C	0.637945	-0.893347	0.932444
H132	H	0.661457	-0.845277	0.896461
H133	H	0.578239	-0.872595	0.970272
C134	C	0.657953	-1.015914	1.025040
C135	C	0.686837	-0.956876	0.980844
H136	H	0.688108	-1.055101	1.054898
H137	H	0.657953	-1.034074	0.993654
H138	H	0.608199	-0.998610	1.056556
H139	H	0.736586	-0.974178	0.949322
H140	H	0.686846	-0.938720	1.012226
O141	O	0.124218	-0.214635	0.841287
C142	C	0.197784	-0.214615	0.814011
H143	H	0.233173	-0.238174	0.765959
H144	H	0.196671	-0.154893	0.793140
C145	C	0.188374	-0.234505	0.936338
C146	C	0.231841	-0.263448	0.877323
H147	H	0.209382	-0.264625	0.975392
H148	H	0.138810	-0.234516	0.954714
H149	H	0.187451	-0.184738	0.918936
H150	H	0.232756	-0.313211	0.894724
H151	H	0.281406	-0.263446	0.858951
H152	H	0.036114	-0.214639	0.556956
O153	O	0.226454	-0.964690	1.253284
C154	C	0.199523	-1.011250	1.253231
H155	H	0.135771	-0.990970	1.276791
H156	H	0.218542	-1.009216	1.193502
C157	C	0.308831	-1.117161	1.273095
C158	C	0.230531	-1.092257	1.302038
H159	H	0.327961	-1.167131	1.303198
H160	H	0.326977	-1.085793	1.273128
H161	H	0.324670	-1.115460	1.223321
H162	H	0.214693	-1.093950	1.351806
H163	H	0.212383	-1.123628	1.302014
O164	O	0.034107	-0.581687	0.548025
C165	C	-0.039440	-0.535250	0.575182
H166	H	-0.074908	-0.571363	0.623247
H167	H	-0.038311	-0.497470	0.596000
C168	C	-0.029833	-0.442418	0.452765
C169	C	-0.073396	-0.486774	0.511794
H170	H	-0.050778	-0.412514	0.413664
H171	H	0.019719	-0.473702	0.434468
H172	H	-0.028895	-0.410942	0.470123
H173	H	-0.074325	-0.518256	0.494438
H174	H	-0.122948	-0.455494	0.530086
O175	O	0.225844	-0.728163	1.253309
C176	C	0.198577	-0.654593	1.253347
H177	H	0.150526	-0.619169	1.229777
H178	H	0.177709	-0.655697	1.313072
C179	C	0.320904	-0.664096	1.233496
C180	C	0.261892	-0.620586	1.204541
H181	H	0.359959	-0.643119	1.203393
H182	H	0.339274	-0.713663	1.233473
H183	H	0.303504	-0.665013	1.283267
H184	H	0.279289	-0.619677	1.154775
H185	H	0.243525	-0.571018	1.204554
O186	O	0.637770	-0.626471	0.739463
C187	C	0.702180	-0.606276	0.688116
H188	H	0.747249	-0.654210	0.666143
H189	H	0.687534	-0.554149	0.639417
C190	C	0.676085	-0.531007	0.754483
C191	C	0.731442	-0.589883	0.727500
H192	H	0.694135	-0.520891	0.778775
H193	H	0.632689	-0.544610	0.789075
H194	H	0.663886	-0.487575	0.713895
H195	H	0.743634	-0.633315	0.768089
H196	H	0.774841	-0.576286	0.692916
O197	O	0.063478	-0.599653	0.921835
C198	C	-0.010092	-0.588539	0.973240
H199	H	-0.009913	-0.635786	1.029084
H200	H	-0.032539	-0.532723	0.981585
C201	C	-0.060593	-0.529946	0.874094
C202	C	-0.060374	-0.587979	0.942681
H203	H	-0.091611	-0.529597	0.855244
H204	H	-0.011028	-0.537431	0.839461
H205	H	-0.079297	-0.483439	0.881058
H206	H	-0.041661	-0.634485	0.935715
H207	H	-0.109937	-0.580502	0.977313
O208	O	0.264600	-0.777276	1.075955
C209	C	0.338167	-0.788347	1.024545
H210	H	0.337989	-0.779587	0.968699
H211	H	0.360603	-0.746635	1.016206
C212	C	0.388682	-0.879379	1.123681
C213	C	0.388463	-0.868626	1.055092
H214	H	0.419708	-0.928897	1.142525
H215	H	0.339118	-0.871919	1.158318
H216	H	0.407376	-0.844614	1.116723
H217	H	0.369761	-0.903384	1.062053
H218	H	0.438025	-0.876094	1.020458
H219	H	0.303780	-0.722782	0.927774
O220	O	0.637476	-0.625907	0.503161
C221	C	0.637434	-0.652847	0.456588
H222	H	0.661061	-0.716603	0.476826
H223	H	0.577702	-0.633858	0.458657
C224	C	0.657142	-0.543496	0.350727
C225	C	0.686167	-0.621802	0.375579
H226	H	0.687199	-0.524344	0.300755
H227	H	0.657167	-0.525344	0.382104
H228	H	0.607366	-0.527681	0.352457
H229	H	0.735938	-0.637615	0.373857
H230	H	0.686151	-0.639956	0.344200
H231	H	0.071542	-0.606694	0.861281
H232	H	0.256252	-0.770113	0.697763
O233	O	0.306232	-0.787724	0.852829
C234	C	0.357625	-0.860800	0.857033
H235	H	0.413458	-0.857818	0.810744
H236	H	0.365996	-0.890715	0.913809
C237	C	0.258459	-0.907902	0.904312
C238	C	0.327033	-0.904240	0.847455
H239	H	0.239588	-0.934700	0.898408
H240	H	0.223834	-0.858671	0.901483
H241	H	0.265444	-0.932830	0.951620
H242	H	0.320045	-0.879304	0.800150
H243	H	0.361656	-0.953469	0.850276
O244	O	0.012039	-0.651007	0.816751
C245	C	-0.006944	-0.611563	0.750934
H246	H	0.037202	-0.585041	0.703855
H247	H	-0.009556	-0.651847	0.734439
C248	C	-0.138009	-0.582462	0.822740
C249	C	-0.083791	-0.549881	0.764918
H250	H	-0.185413	-0.544416	0.831366
H251	H	-0.125220	-0.609039	0.867082
H252	H	-0.140176	-0.616031	0.808986
H253	H	-0.081618	-0.516320	0.778676
H254	H	-0.096581	-0.523298	0.720578
H255	H	0.454353	-0.597104	0.711898
H256	H	0.259468	-0.815577	0.556577
H257	H	0.312222	-0.549720	0.759316
H258	H	0.121632	-0.953785	0.832877
H259	H	0.245557	-0.540066	0.687141
H260	H	0.082193	-0.397958	0.871963
O261	O	0.201181	-0.391864	0.627669
C262	C	0.246512	-0.443234	0.588308
H263	H	0.275030	-0.499095	0.625659
H264	H	0.210349	-0.451564	0.571426
C265	C	0.271328	-0.344029	0.471786
C266	C	0.306360	-0.412636	0.517659
H267	H	0.308244	-0.325154	0.428204
H268	H	0.240786	-0.309419	0.498303
H269	H	0.241194	-0.350979	0.457726
H270	H	0.336486	-0.405683	0.531726
H271	H	0.336909	-0.447244	0.491142
O272	O	0.126612	-0.546163	0.931434
C273	C	0.081246	-0.494793	0.970795
H274	H	0.091218	-0.438931	0.933432
H275	H	0.019875	-0.486465	0.987704
C276	C	0.088877	-0.593998	1.087308
C277	C	0.101129	-0.525390	1.041421
H278	H	0.101139	-0.612872	1.130875
H279	H	0.119439	-0.628607	1.060790
H280	H	0.037735	-0.587049	1.101391
H281	H	0.152273	-0.532341	1.027330
H282	H	0.070577	-0.490782	1.067938
