data_functionalizedCrystal
_audit_creation_method	'MofGen! by Chris Wilmer'
_symmetry_space_group_name_H-M	'P1'
_symmetry_Int_Tables_number	1
_symmetry_cell_setting	triclinic
loop_
_symmetry_equiv_pos_as_xyz
  x,y,z
_cell_length_a	21.395362
_cell_length_b	16.959453
_cell_length_c	21.395364
_cell_angle_alpha	90.010943
_cell_angle_beta	90.027061
_cell_angle_gamma	90.035866
loop_
_atom_site_label
_atom_site_type_symbol
_atom_site_fract_x
_atom_site_fract_y
_atom_site_fract_z
Zn1	Zn	0.957802	-0.314488	0.354591
Zn2	Zn	0.957755	-0.446634	0.249815
Zn3	Zn	0.853047	-0.314510	0.249792
Zn4	Zn	0.853005	-0.446665	0.354520
O5	O	0.905402	-0.380574	0.302179
O6	O	1.045473	-0.331995	0.340731
O7	O	0.943863	-0.429104	0.162134
O8	O	0.866981	-0.203896	0.263713
O9	O	1.045439	-0.429082	0.263753
O10	O	0.943943	-0.203880	0.340709
O11	O	0.866935	-0.332033	0.162117
O12	O	0.765364	-0.332063	0.263645
O13	O	0.866909	-0.429135	0.442207
O14	O	0.765333	-0.429157	0.340588
O15	O	0.943902	-0.332025	0.442259
O16	O	0.943822	-0.557249	0.263685
O17	O	0.866863	-0.557272	0.340611
C18	C	0.742615	-0.380616	0.302107
C19	C	0.672973	-0.380653	0.302091
C20	C	0.640261	-0.431277	0.342095
C21	C	0.574825	-0.431257	0.342123
C22	C	0.542105	-0.380623	0.302135
C23	C	0.574826	-0.329989	0.262128
C24	C	0.640260	-0.330004	0.262106
C25	C	0.438396	-0.374247	0.245730
C26	C	0.372963	-0.374237	0.245751
C27	C	0.340284	-0.380571	0.302204
C28	C	0.373047	-0.386931	0.358638
C29	C	0.438481	-0.386946	0.358616
C30	C	0.471153	-0.380600	0.302155
C31	C	0.236619	-0.431176	0.342242
C32	C	0.171182	-0.431151	0.342271
C33	C	0.171184	-0.329887	0.262271
C34	C	0.236620	-0.329908	0.262248
C35	C	0.269333	-0.380557	0.302232
C36	C	0.905350	-0.585941	0.302156
C37	C	0.905385	-0.673797	0.302168
C38	C	0.945528	-1.045206	0.342346
C39	C	0.865452	-1.045340	0.262106
C40	C	0.865428	-0.962794	0.262091
C41	C	0.905455	-0.921450	0.302206
C42	C	0.945505	-0.962652	0.342335
C43	C	0.825375	-0.921585	0.221967
C44	C	0.825350	-0.839034	0.221952
C45	C	0.865380	-0.797689	0.262064
C46	C	0.905432	-0.838897	0.302194
C47	C	0.945458	-0.797553	0.342308
C48	C	0.985514	-0.838759	0.382436
C49	C	0.985535	-0.921307	0.382447
C50	C	0.865359	-0.715141	0.262053
C51	C	0.945435	-0.714999	0.342297
C52	C	1.068826	-0.380533	0.302253
C53	C	1.138467	-0.380515	0.302284
C54	C	0.905406	-0.380581	0.465603
C55	C	0.905408	-0.380584	0.535244
C56	C	0.905472	-0.174406	0.302216
C57	C	0.905501	-0.086549	0.302232
C58	C	0.945458	-0.431112	1.037050
C59	C	0.945457	-0.431118	0.971614
C60	C	0.905406	-0.380579	0.938882
C61	C	0.865342	-0.330044	0.971591
C62	C	0.865340	-0.330046	1.037025
C63	C	0.900486	-0.309364	0.835224
C64	C	0.900492	-0.309361	0.769791
C65	C	0.905409	-0.380575	0.737062
C66	C	0.910332	-0.451794	0.769773
C67	C	0.910330	-0.451795	0.835207
C68	C	0.905404	-0.380572	0.867930
C69	C	0.945465	-0.431116	0.633408
C70	C	0.945460	-0.431123	0.567971
C71	C	0.865348	-0.330042	0.567950
C72	C	0.865351	-0.330043	0.633385
C73	C	0.905413	-0.380578	0.666110
C74	C	0.905396	-0.380585	1.139392
C75	C	0.905402	-0.380582	1.069751
H76	H	0.144544	-0.288656	0.229715
H77	H	0.832735	-0.288892	0.660010
H78	H	0.832861	-1.079006	0.229449
H79	H	0.263255	-0.288689	0.229668
H80	H	0.896523	-0.251364	0.861868
H81	H	1.018101	-0.805087	0.415100
H82	H	0.832732	-0.288896	0.944937
H83	H	0.346293	-0.369063	0.199799
O84	O	0.822145	-0.275529	1.072300
H85	H	0.790254	-0.310910	1.102093
O86	O	0.782212	-0.966187	0.178705
H87	H	0.733021	-0.950417	0.189389
O88	O	1.028724	-0.965747	0.425735
H89	H	1.022007	-1.030094	0.419011
H90	H	0.978078	-0.472265	1.063690
H91	H	0.263256	-0.472413	0.374804
O92	O	0.988724	-1.089640	0.385632
H93	H	0.982015	-1.153988	0.378908
O94	O	0.473636	-0.367413	0.184835
H95	H	0.524640	-0.368483	0.194299
H96	H	0.144549	-0.472374	0.374852
O97	O	0.539532	-0.275394	0.218989
H98	H	0.509757	-0.235234	0.247091
H99	H	0.896487	-0.251370	0.743163
H100	H	0.666894	-0.288778	0.229529
H101	H	0.792735	-0.805490	0.189278
O102	O	0.915633	-0.528603	0.870490
H103	H	0.873658	-0.536672	0.900282
O104	O	0.675546	-0.485891	0.385228
H105	H	0.641801	-0.521084	0.413055
O106	O	0.822165	-0.670694	0.218776
H107	H	0.794338	-0.713312	0.190883
O108	O	0.988609	-0.670409	0.385562
H109	H	1.020497	-0.632777	0.357549
O110	O	0.988668	-0.485612	0.936331
H111	H	1.016528	-0.520747	0.970080
O112	O	0.915630	-0.528613	0.734483
H113	H	0.914795	-0.516652	0.683488
O114	O	0.988662	-0.485631	0.668712
H115	H	1.016508	-0.520781	0.634977
H116	H	0.832737	-0.288894	0.541300
O117	O	0.539529	-0.485891	0.385247
H118	H	0.573270	-0.521124	0.413036
O119	O	0.473820	-0.393789	0.419478
H120	H	0.440109	-0.398183	0.458741
O121	O	0.988672	-0.485617	0.532696
H122	H	1.016534	-0.520746	0.566448
H123	H	0.346441	-0.392087	0.404608
