data_functionalizedCrystal
_audit_creation_method	'MofGen! by Chris Wilmer'
_symmetry_space_group_name_H-M	'P1'
_symmetry_Int_Tables_number	1
_symmetry_cell_setting	triclinic
loop_
_symmetry_equiv_pos_as_xyz
  x,y,z
_cell_length_a	8.559649
_cell_length_b	10.654550
_cell_length_c	9.730223
_cell_angle_alpha	90.004298
_cell_angle_beta	90.003049
_cell_angle_gamma	77.131784
loop_
_atom_site_label
_atom_site_type_symbol
_atom_site_fract_x
_atom_site_fract_y
_atom_site_fract_z
O1	O	2.119653	-0.042556	0.114268
O2	O	1.655167	0.022231	0.114274
O3	O	1.898090	-0.194005	0.114266
O4	O	1.876731	0.173680	0.114276
O5	O	1.898075	-0.194013	-0.114314
O6	O	1.655152	0.022223	-0.114306
O7	O	2.119638	-0.042564	-0.114312
Zn8	Zn	1.887393	-0.010171	-0.150601
Zn9	Zn	1.887412	-0.010161	0.150563
O10	O	1.876716	0.173672	-0.114304
C11	C	1.595684	0.027137	-0.000015
C12	C	1.418466	0.041751	-0.000013
C13	C	1.896514	-0.240645	-0.000023
C14	C	1.891822	-0.379603	-0.000018
C15	C	2.034851	-0.473864	-0.000024
C16	C	2.030432	-0.604428	-0.000014
C17	C	1.739944	-0.546458	0.000002
C18	C	1.744364	-0.415896	0.000002
C19	C	2.182309	-0.437571	-0.000044
C20	C	2.325349	-0.531834	-0.000052
C21	C	2.320931	-0.662398	-0.000042
C22	C	2.173472	-0.698700	-0.000025
C23	C	2.179121	-0.047469	-0.000020
C24	C	2.356339	-0.062084	-0.000014
C25	C	1.878292	0.220312	-0.000013
C26	C	1.882984	0.359271	-0.000008
N27	N	1.887392	-0.010180	-0.356138
C28	C	1.789776	-0.076960	-0.571992
C29	C	1.789762	-0.076972	-0.428109
C30	C	1.985053	0.056618	-0.428057
C31	C	1.985075	0.056622	-0.571937
C32	C	1.692128	-0.143745	-0.643956
C33	C	1.594468	-0.210545	-0.572047
C34	C	1.594454	-0.210558	-0.428164
C35	C	1.692100	-0.143770	-0.356190
N36	N	1.887427	-0.010164	0.356099
H37	H	2.185923	-0.331262	-0.000056
C38	C	2.092477	0.130105	-0.651042
H39	H	2.150610	0.169897	-0.587579
H40	H	2.165371	0.071651	-0.707170
H41	H	2.027698	0.194125	-0.707167
H42	H	2.445405	-0.502267	-0.000031
C43	C	1.692074	-0.143767	-0.197922
H44	H	1.764208	-0.094423	-0.165360
H45	H	1.587175	-0.107201	-0.165395
H46	H	1.724846	-0.229677	-0.165371
H47	H	1.336069	0.141836	-0.000002
H48	H	2.437402	-0.739145	-0.000034
C49	C	2.168605	-0.842316	-0.000005
H50	H	2.060303	-0.850433	0.000010
H51	H	2.221243	-0.882570	-0.079713
H52	H	2.221249	-0.882543	0.079719
C53	C	1.467622	-0.197287	-0.000013
H54	H	1.404885	-0.260469	-0.000002
H55	H	1.533315	-0.207413	-0.079721
H56	H	1.533312	-0.207397	0.079711
C57	C	1.487069	-0.284007	-0.651211
H58	H	1.501049	-0.274425	-0.747200
H59	H	1.515770	-0.372691	-0.627646
H60	H	1.378113	-0.250205	-0.627637
H61	H	1.619890	-0.576026	0.000014
H62	H	1.514946	-0.264960	-0.369619
H63	H	2.064550	0.110995	-0.369444
H64	H	1.627897	-0.339145	0.000005
H65	H	1.692125	-0.143740	-0.761112
