data_functionalizedCrystal
_audit_creation_method	'MofGen! by Chris Wilmer'
_symmetry_space_group_name_H-M	'P1'
_symmetry_Int_Tables_number	1
_symmetry_cell_setting	triclinic
loop_
_symmetry_equiv_pos_as_xyz
  x,y,z
_cell_length_a	11.026607
_cell_length_b	13.596369
_cell_length_c	10.908878
_cell_angle_alpha	90.000591
_cell_angle_beta	84.335404
_cell_angle_gamma	90.006133
loop_
_atom_site_label
_atom_site_type_symbol
_atom_site_fract_x
_atom_site_fract_y
_atom_site_fract_z
O1	O	1.506488	0.081790	0.513753
O2	O	1.164988	0.081792	0.455251
O3	O	1.381008	0.081787	0.308035
O4	O	1.290468	0.081795	0.660970
O5	O	1.380984	-0.081796	0.308040
O6	O	1.164964	-0.081791	0.455257
O7	O	1.506464	-0.081793	0.513758
Zn8	Zn	1.335710	-0.107764	0.484508
Zn9	Zn	1.335742	0.107763	0.484501
O10	O	1.290444	-0.081788	0.660975
C11	C	1.121943	0.000000	0.444461
C12	C	0.993722	0.000001	0.412288
N13	N	1.335697	-0.254856	0.484514
C14	C	0.901989	0.000004	0.501123
C15	C	0.769465	0.000004	0.467873
C16	C	1.335703	-0.343854	0.484519
C17	C	1.335716	-0.455505	0.484513
C18	C	1.335734	-0.544496	0.484502
C19	C	1.335748	-0.656154	0.484498
C20	C	1.549509	0.000001	0.524548
C21	C	1.677730	0.000007	0.556721
C22	C	1.389458	-0.000003	0.262152
C23	C	1.414656	0.000000	0.125424
N24	N	1.335766	0.254855	0.484488
C25	C	1.322712	0.000002	0.055162
C26	C	1.348753	0.000006	-0.086154
C27	C	1.281995	0.000004	0.706858
C28	C	1.256796	0.000008	0.843586
H29	H	0.921564	0.000000	0.601794
N30	N	1.544471	0.000005	0.066546
H31	H	1.587847	-0.060636	0.093124
H32	H	1.544574	0.000044	-0.026045
H33	H	1.224716	-0.000003	0.099627
N34	N	0.743548	-0.000008	0.334516
H35	H	0.695162	0.060631	0.317195
H36	H	0.823020	-0.000048	0.279882
H37	H	1.446756	0.000002	-0.130614
N38	N	1.126976	-0.000002	-0.097540
H39	H	1.126770	-0.000006	-0.004935
H40	H	1.083669	0.060641	-0.124208
H41	H	0.697297	0.000002	0.657399
H42	H	0.974146	0.000024	0.311618
