data_functionalizedCrystal
_audit_creation_method	'MofGen! by Chris Wilmer'
_symmetry_space_group_name_H-M	'P1'
_symmetry_Int_Tables_number	1
_symmetry_cell_setting	triclinic
loop_
_symmetry_equiv_pos_as_xyz
  x,y,z
_cell_length_a	19.188930
_cell_length_b	19.188930
_cell_length_c	13.596369
_cell_angle_alpha	89.988893
_cell_angle_beta	89.980792
_cell_angle_gamma	83.144779
loop_
_atom_site_label
_atom_site_type_symbol
_atom_site_fract_x
_atom_site_fract_y
_atom_site_fract_z
O1	O	0.926146	0.087169	-0.082119
O2	O	0.722834	0.098903	-0.082053
O3	O	0.830357	-0.008620	-0.082068
O4	O	0.818623	0.194692	-0.082103
O5	O	0.830346	-0.008625	0.081515
O6	O	0.722824	0.098897	0.081530
O7	O	0.926135	0.087163	0.081464
Zn8	Zn	0.824478	0.093029	0.107470
Zn9	Zn	0.824492	0.093037	-0.108058
O10	O	0.818612	0.194686	0.081480
C11	C	0.696818	0.098520	-0.000252
C12	C	0.619313	0.097380	-0.000226
C13	C	0.574389	0.160470	-0.000253
C14	C	0.501566	0.159399	-0.000263
C15	C	0.473669	0.095233	-0.000267
C16	C	0.518603	0.032133	-0.000236
C17	C	0.591425	0.033207	-0.000215
N18	N	0.365693	0.046188	-0.055973
N19	N	0.296514	0.045172	-0.055995
C20	C	0.254260	0.091994	-0.000327
N21	N	0.283798	0.139881	0.055351
N22	N	0.352982	0.140899	0.055368
C23	C	0.394707	0.094062	-0.000289
C24	C	0.130372	0.153928	-0.000363
C25	C	0.057547	0.152853	-0.000368
C26	C	0.074586	0.025586	-0.000350
C27	C	0.147409	0.026662	-0.000336
C28	C	0.175298	0.090835	-0.000347
C29	C	0.829972	-0.034634	-0.000274
C30	C	0.828831	-0.112138	-0.000265
C31	C	0.891922	-0.157062	-0.000281
C32	C	0.890850	-0.229886	-0.000296
C33	C	0.826684	-0.257782	-0.000276
C34	C	0.763585	-0.212849	-0.000266
C35	C	0.764658	-0.140026	-0.000260
N36	N	0.777633	-0.365789	0.055410
N37	N	0.776618	-0.434968	0.055407
C38	C	0.823446	-0.477191	-0.000295
N39	N	0.871339	-0.447624	-0.055981
N40	N	0.872356	-0.378439	-0.055974
C41	C	0.825513	-0.336745	-0.000283
C42	C	0.885379	-0.601079	-0.000329
C43	C	0.884305	-0.673904	-0.000350
C44	C	0.757038	-0.656865	-0.000310
C45	C	0.758114	-0.584042	-0.000298
C46	C	0.822286	-0.556154	-0.000303
C47	C	0.952151	0.087546	-0.000338
C48	C	1.029656	0.088687	-0.000370
C49	C	0.818997	0.220700	-0.000317
C50	C	0.820138	0.298204	-0.000332
N51	N	0.824473	0.093024	0.254561
N52	N	0.824502	0.093037	-0.255150
C53	C	0.824491	0.093038	0.655852
C54	C	0.824484	0.093036	0.544201
C55	C	0.824482	0.093031	0.455211
C56	C	0.824475	0.093029	0.343552
H57	H	0.464982	0.210776	-0.000282
H58	H	0.706738	-0.547464	-0.000280
H59	H	0.597091	0.212725	-0.000264
H60	H	0.495885	-0.020111	-0.000253
N61	N	0.158853	0.219481	-0.000369
N62	N	0.118730	0.275810	-0.000380
H63	H	0.138843	0.322108	-0.000382
N64	N	0.955292	-0.275795	-0.000295
N65	N	0.954322	-0.340813	-0.000293
H66	H	0.999833	-0.373236	-0.000291
H67	H	0.020970	0.204232	-0.000384
H68	H	0.628003	-0.018171	-0.000194
H69	H	0.935683	-0.710481	-0.000369
H70	H	0.944176	-0.134360	-0.000288
H71	H	0.183988	-0.024713	-0.000320
H72	H	0.051874	-0.026659	-0.000415
N73	N	0.698047	-0.241352	-0.000254
N74	N	0.697096	-0.306372	-0.000258
H75	H	0.650808	-0.326504	-0.000255
N76	N	0.700203	-0.094143	-0.000249
N77	N	0.642915	-0.119055	-0.000241
H78	H	0.597391	-0.086650	-0.000233
H79	H	0.704792	-0.679578	-0.000299
H80	H	0.937632	-0.578372	-0.000337
