data_functionalizedCrystal
_audit_creation_method	'MofGen! by Chris Wilmer'
_symmetry_space_group_name_H-M	'P1'
_symmetry_Int_Tables_number	1
_symmetry_cell_setting	triclinic
loop_
_symmetry_equiv_pos_as_xyz
  x,y,z
_cell_length_a	15.995343
_cell_length_b	15.995350
_cell_length_c	16.776229
_cell_angle_alpha	89.995580
_cell_angle_beta	89.997180
_cell_angle_gamma	83.490779
loop_
_atom_site_label
_atom_site_type_symbol
_atom_site_fract_x
_atom_site_fract_y
_atom_site_fract_z
O1	O	1.110993	0.107897	-0.066204
O2	O	0.867216	0.121232	-0.066223
O3	O	0.995768	-0.007323	-0.066212
O4	O	0.982441	0.236452	-0.066215
O5	O	0.995751	-0.007331	0.066364
O6	O	0.867199	0.121224	0.066354
O7	O	1.110976	0.107890	0.066372
Zn8	Zn	0.989085	0.114555	0.087412
Zn9	Zn	0.989107	0.114566	-0.087263
O10	O	0.982424	0.236445	0.066362
C11	C	0.836013	0.120678	0.000063
C12	C	0.743062	0.119028	0.000056
C13	C	0.572876	0.116035	0.000066
C14	C	0.549530	0.023238	0.000067
C15	C	0.452852	0.021492	0.000373
C16	C	0.405316	0.113086	0.000076
C17	C	0.434398	0.159742	0.075633
C18	C	0.531190	0.160842	0.075691
C19	C	0.531120	0.162210	-0.075078
C20	C	0.434625	0.158784	-0.076067
C21	C	0.310618	0.111425	0.000084
C22	C	0.667574	0.117699	0.000064
C23	C	0.995209	-0.038522	0.000074
C24	C	0.993557	-0.131472	0.000070
C25	C	0.987625	-0.469220	0.000072
C26	C	0.896072	-0.421783	-0.000232
C27	C	0.897725	-0.325093	0.000067
C28	C	0.990567	-0.301659	0.000070
C29	C	1.035714	-0.342742	0.075780
C30	C	1.033414	-0.439378	0.075843
C31	C	1.035325	-0.439727	-0.074921
C32	C	1.035303	-0.342782	-0.075921
C33	C	0.992235	-0.206962	0.000072
C34	C	0.985960	-0.563917	0.000076
C35	C	1.142179	0.108444	0.000085
C36	C	1.235130	0.110093	0.000087
C37	C	0.982983	0.267643	0.000073
C38	C	0.984635	0.360594	0.000073
N39	N	0.989076	0.114548	0.206624
N40	N	0.989123	0.114567	-0.206474
C41	C	1.046016	0.057647	0.248345
C42	C	1.046020	0.057646	0.331798
C43	C	0.989088	0.114551	0.373526
C44	C	0.932142	0.171455	0.331799
C45	C	0.932134	0.171451	0.248348
C46	C	0.932172	0.171471	0.668346
C47	C	0.932186	0.171472	0.751803
C48	C	1.046059	0.057667	0.751795
C49	C	1.046051	0.057663	0.668345
C50	C	0.989102	0.114563	0.626624
C51	C	0.989096	0.114562	0.536136
C52	C	0.989097	0.114557	0.464013
H53	H	0.559398	0.132936	-0.132366
H54	H	0.885822	0.217813	0.785777
C55	C	0.846856	-0.448230	0.072716
N56	N	0.809792	-0.468143	0.127668
C57	C	1.127856	-0.323646	0.079601
N58	N	1.197255	-0.309255	0.082480
C59	C	0.390126	0.249085	-0.082533
N60	N	0.356611	0.317104	-0.087397
H61	H	0.885804	0.217803	0.634384
H62	H	0.557969	0.128903	0.132387
C63	C	0.994894	-0.467465	-0.152443
N64	N	0.964432	-0.488356	-0.210830
C65	C	1.108678	-0.004938	0.622448
N66	N	1.155848	-0.052094	0.587879
C67	C	1.108639	-0.004969	0.377688
N68	N	1.155798	-0.052142	0.412252
H69	H	1.092427	0.011333	0.785773
C70	C	0.427930	-0.027608	0.073983
N71	N	0.409158	-0.064586	0.129433
C72	C	0.988910	-0.464107	0.152291
N73	N	0.955385	-0.482727	0.209871
C74	C	0.869508	0.234043	0.377704
N75	N	0.822331	0.281185	0.412278
C76	C	1.108646	-0.004954	0.202451
N77	N	1.155819	-0.052110	0.167886
H78	H	0.414299	0.127724	0.132076
H79	H	0.433840	-0.015030	-0.053778
C80	C	0.587392	-0.025359	-0.073111
N81	N	0.615921	-0.061964	-0.128228
C82	C	0.409557	0.112890	-0.151584
N83	N	0.390670	0.078322	-0.208463
H84	H	1.103009	-0.327421	-0.080490
H85	H	1.004343	-0.314363	0.132118
C86	C	0.588668	-0.024567	0.073162
N87	N	0.618144	-0.060570	0.128221
C88	C	0.550881	0.252774	0.080047
N89	N	0.565708	0.322016	0.083334
C90	C	0.550060	0.254483	-0.076069
N91	N	0.564332	0.323980	-0.076810
H92	H	0.885767	0.217784	0.214379
H93	H	0.862235	-0.296667	-0.054205
H94	H	0.861983	-0.297230	0.054426
H95	H	0.402551	0.227152	0.078230
H96	H	1.102826	-0.471490	-0.075427
H97	H	1.100630	-0.471628	0.079281
C98	C	0.846640	-0.446821	-0.073574
N99	N	0.809405	-0.465689	-0.128816
C100	C	0.990753	-0.305916	-0.151589
N101	N	0.957189	-0.278152	-0.208580
