data_functionalizedCrystal
_audit_creation_method	'MofGen! by Chris Wilmer'
_symmetry_space_group_name_H-M	'P1'
_symmetry_Int_Tables_number	1
_symmetry_cell_setting	triclinic
loop_
_symmetry_equiv_pos_as_xyz
  x,y,z
_cell_length_a	13.897441
_cell_length_b	12.827893
_cell_length_c	12.827892
_cell_angle_alpha	89.984638
_cell_angle_beta	89.971891
_cell_angle_gamma	90.019906
loop_
_atom_site_label
_atom_site_type_symbol
_atom_site_fract_x
_atom_site_fract_y
_atom_site_fract_z
Zn1	Zn	-0.545377	-1.597676	-0.416001
Zn2	Zn	-0.045377	-1.097676	0.083999
Zn3	Zn	-0.384085	-1.597568	-0.590773
Zn4	Zn	0.115915	-1.097568	-0.090773
Zn5	Zn	-0.384097	-1.422916	-0.416046
Zn6	Zn	0.115903	-0.922916	0.083954
Zn7	Zn	-0.545340	-1.422903	-0.590700
Zn8	Zn	-0.045340	-0.922903	-0.090700
O9	O	-0.464725	-1.510266	-0.503380
O10	O	0.035275	-1.010266	-0.003380
O11	O	-0.523991	-1.743898	-0.439196
O12	O	-0.023991	-1.243898	0.060804
O13	O	-0.249105	-1.574360	-0.567645
O14	O	0.250895	-1.074360	-0.067645
O15	O	-0.405512	-1.446148	-0.269804
O16	O	0.094488	-0.946148	0.230196
O17	O	-0.405491	-1.743819	-0.567600
O18	O	0.094509	-1.243819	-0.067600
O19	O	-0.524003	-1.574544	-0.269771
O20	O	-0.024003	-1.074544	0.230229
O21	O	-0.249114	-1.446044	-0.439274
O22	O	0.250886	-0.946044	0.060726
O23	O	-0.405476	-1.276678	-0.439203
O24	O	0.094524	-0.776678	0.060797
O25	O	-0.680326	-1.446127	-0.567476
O26	O	-0.180326	-0.946127	-0.067476
O27	O	-0.523941	-1.276668	-0.567521
O28	O	-0.023941	-0.776668	-0.067521
O29	O	-0.680353	-1.574532	-0.439125
O30	O	-0.180353	-1.074532	0.060875
O31	O	-0.405455	-1.574348	-0.736999
O32	O	0.094545	-1.074348	-0.236999
O33	O	-0.523929	-1.446022	-0.736946
O34	O	-0.023929	-0.946022	-0.236946
C35	C	-0.464706	-1.238756	-0.503360
C36	C	0.035294	-0.738756	-0.003360
C37	C	-0.464721	-1.122603	-0.503376
C38	C	0.035279	-0.622603	-0.003376
C39	C	-0.716318	-1.510340	-0.503288
C40	C	-0.216318	-1.010340	-0.003288
C41	C	-0.823532	-1.510371	-0.503248
C42	C	-0.323532	-1.010371	-0.003248
C43	C	-0.464708	-1.510200	-0.774890
C44	C	0.035292	-1.010200	-0.274890
C45	C	-0.464733	-1.510268	-0.891043
C46	C	0.035267	-1.010268	-0.391043
C47	C	-1.019827	-1.510400	-0.503178
C48	C	-0.519827	-1.010400	-0.003178
C49	C	-0.910594	-1.510381	-0.503220
C50	C	-0.410594	-1.010381	-0.003220
C51	C	-0.214110	-1.510252	-0.503397
C52	C	0.285890	-1.010252	-0.003397
C53	C	-0.106897	-1.510423	-0.503142
C54	C	0.393103	-1.010423	-0.003142
C55	C	-0.464744	-1.782836	-0.503401
C56	C	0.035256	-1.282836	-0.003401
C57	C	-0.464752	-1.898989	-0.503410
C58	C	0.035248	-1.398989	-0.003410
C59	C	-0.523251	-1.070841	-0.566971
C60	C	-0.023251	-0.570841	-0.066971
C61	C	-0.523268	-0.950791	-0.566990
C62	C	-0.023268	-0.450791	-0.066990
C63	C	-0.406173	-1.573843	-0.942820
C64	C	0.093827	-1.073843	-0.442820
C65	C	-0.406198	-1.573915	-1.062870
C66	C	0.093802	-1.073915	-0.562870
C67	C	-0.464763	-1.510360	-0.230810
C68	C	0.035237	-1.010360	0.269190
C69	C	-0.464779	-1.510400	-0.114657
C70	C	0.035221	-1.010400	0.385343
H71	H	-0.573351	-1.115402	-0.621399
H72	H	-0.073351	-0.615402	-0.121399
H73	H	-0.573374	-0.906277	-0.621438
H74	H	-0.073374	-0.406277	-0.121438
H75	H	-0.414637	-0.943496	-0.448965
H76	H	0.085363	-0.443496	0.051035
H77	H	-0.356060	-1.628341	-1.107396
H78	H	0.143940	-1.128341	-0.607396
H79	H	-0.414629	-1.078041	-0.448940
H80	H	0.085371	-0.578041	0.051060
H81	H	-0.514889	-1.455896	-0.935592
H82	H	-0.014889	-0.955896	-0.435592
H83	H	-0.356023	-1.628224	-0.898273
H84	H	0.143977	-1.128224	-0.398273
H85	H	-0.514913	-1.455964	-1.070138
H86	H	-0.014913	-0.955964	-0.570138
