data_functionalizedCrystal
_audit_creation_method	'MofGen! by Chris Wilmer'
_symmetry_space_group_name_H-M	'P1'
_symmetry_Int_Tables_number	1
_symmetry_cell_setting	triclinic
loop_
_symmetry_equiv_pos_as_xyz
  x,y,z
_cell_length_a	16.625548
_cell_length_b	12.759400
_cell_length_c	12.759393
_cell_angle_alpha	89.968436
_cell_angle_beta	90.021668
_cell_angle_gamma	89.984247
loop_
_atom_site_label
_atom_site_type_symbol
_atom_site_fract_x
_atom_site_fract_y
_atom_site_fract_z
Zn1	Zn	1.232733	0.418174	0.594070
Zn2	Zn	1.732733	0.918174	1.094070
Zn3	Zn	1.232652	0.593893	0.418390
Zn4	Zn	1.732652	1.093893	0.918390
Zn5	Zn	1.097892	0.418232	0.418400
Zn6	Zn	1.597892	0.918232	0.918400
Zn7	Zn	1.097883	0.593815	0.594022
Zn8	Zn	1.597883	1.093815	1.094022
O9	O	1.165290	0.506029	0.506221
O10	O	1.665290	1.006029	1.006221
O11	O	1.345554	0.441492	0.570782
O12	O	1.845554	0.941492	1.070782
O13	O	1.214745	0.570648	0.271371
O14	O	1.714745	1.070648	0.771371
O15	O	1.115817	0.271203	0.441727
O16	O	1.615817	0.771203	0.941727
O17	O	1.345495	0.570592	0.441711
O18	O	1.845495	1.070592	0.941711
O19	O	1.214883	0.271161	0.570791
O20	O	1.714883	0.771161	1.070791
O21	O	1.115738	0.441591	0.271378
O22	O	1.615738	0.941591	0.771378
O23	O	0.985059	0.441515	0.441680
O24	O	1.485059	0.941515	0.941680
O25	O	1.115802	0.570459	0.741050
O26	O	1.615802	1.070459	1.241050
O27	O	0.985052	0.570515	0.570709
O28	O	1.485052	1.070515	1.070709
O29	O	1.214875	0.441417	0.741085
O30	O	1.714875	0.941417	1.241085
O31	O	1.214737	0.740904	0.441664
O32	O	1.714737	1.240904	0.941664
O33	O	1.115723	0.740847	0.570700
O34	O	1.615723	1.240847	1.070700
C35	C	1.165242	0.778996	0.506199
C36	C	1.665242	1.278996	1.006199
C37	C	1.165295	0.895773	0.506225
C38	C	1.665295	1.395773	1.006225
C39	C	0.955799	0.506014	0.506191
C40	C	1.455799	1.006014	1.006191
C41	C	0.866178	0.506033	0.506204
C42	C	1.366178	1.006033	1.006204
C43	C	1.165346	0.505923	0.780254
C44	C	1.665346	1.005923	1.280254
C45	C	1.165371	0.505878	0.897031
C46	C	1.665371	1.005878	1.397031
C47	C	0.538002	0.506039	0.506249
C48	C	1.038002	1.006039	1.006249
C49	C	0.629311	0.506035	0.506233
C50	C	1.129311	1.006035	1.006233
C51	C	0.702087	0.506037	0.506225
C52	C	1.202087	1.006037	1.006225
C53	C	0.793402	0.506031	0.506211
C54	C	1.293402	1.006031	1.006211
C55	C	1.375599	0.506045	0.506251
C56	C	1.875599	1.006045	1.006251
C57	C	1.465220	0.506051	0.506264
C58	C	1.965220	1.006051	1.006264
C59	C	1.165360	0.231995	0.506266
C60	C	1.665360	0.731995	1.006266
C61	C	1.165390	0.115219	0.506285
C62	C	1.665390	0.615219	1.006285
C63	C	1.216909	0.950630	0.439110
C64	C	1.716909	1.450630	0.939110
C65	C	1.216959	1.060354	0.439142
C66	C	1.716959	1.560354	0.939142
C67	C	1.113774	1.060354	0.573407
C68	C	1.613774	1.560354	1.073407
C69	C	1.113729	0.950632	0.573379
C70	C	1.613729	1.450632	1.073379
C71	C	1.276480	0.950630	0.361590
C72	C	1.776480	1.450630	0.861590
C73	C	1.276529	1.060354	0.361622
C74	C	1.776529	1.560354	0.861622
C75	C	1.165280	0.506058	0.233253
C76	C	1.665280	1.006058	0.733253
C77	C	1.165412	0.505808	0.116477
C78	C	1.665412	1.005808	0.616477
C79	C	1.216965	0.438679	0.951913
C80	C	1.716965	0.938679	1.451913
C81	C	1.216984	0.438641	1.061637
C82	C	1.716984	0.938641	1.561637
C83	C	1.113812	0.573010	1.061587
C84	C	1.613812	1.073010	1.561587
C85	C	1.113789	0.573041	0.951865
C86	C	1.613789	1.073041	1.451865
C87	C	1.276533	0.361105	0.951943
C88	C	1.776533	0.861105	1.451943
C89	C	1.276552	0.361067	1.061667
C90	C	1.776552	0.861067	1.561667
H91	H	1.071709	0.905968	0.628039
H92	H	1.571709	1.405968	1.128039
C93	C	1.356656	0.400479	0.905962
C94	C	1.856656	0.900479	1.405962
N95	N	1.417007	0.430129	0.871329
N96	N	1.917007	0.930129	1.371329
H97	H	1.259827	0.279741	0.922186
H98	H	1.759827	0.779741	1.422186
H99	H	1.335857	1.094298	0.390838
H100	H	1.835857	1.594298	0.890838
C101	C	1.253987	1.100702	0.251684
C102	C	1.753987	1.600702	0.751684
N103	N	1.237007	1.131092	0.168882
N104	N	1.737007	1.631092	0.668882
H105	H	1.254209	0.283758	1.095713
H106	H	1.754209	0.783758	1.595713
C107	C	1.246266	0.904765	0.257134
C108	C	1.746266	1.404765	0.757134
N109	N	1.223500	0.870218	0.178460
N110	N	1.723500	1.370218	0.678460
H111	H	1.071791	1.105034	0.628083
H112	H	1.571791	1.605034	1.128083
C113	C	1.360814	0.910287	0.391118
C114	C	1.860814	1.410287	0.891118
N115	N	1.424333	0.879901	0.413360
N116	N	1.924333	1.379901	0.913360
C117	C	1.057075	0.646884	1.121915
C118	C	1.557075	1.146884	1.621915
N119	N	1.014339	0.702528	1.167353
N120	N	1.514339	1.202528	1.667353
C121	C	1.057019	0.646949	0.891499
C122	C	1.557019	1.146949	1.391499
N123	N	1.014256	0.702618	0.846031
N124	N	1.514256	1.202618	1.346031
C125	C	1.360913	0.390516	1.101907
C126	C	1.860913	0.890516	1.601907
N127	N	1.424451	0.412700	1.132215
N128	N	1.924451	0.912700	1.632215
