data_functionalizedCrystal
_audit_creation_method	'MofGen! by Chris Wilmer'
_symmetry_space_group_name_H-M	'P1'
_symmetry_Int_Tables_number	1
_symmetry_cell_setting	triclinic
loop_
_symmetry_equiv_pos_as_xyz
  x,y,z
_cell_length_a	17.638574
_cell_length_b	10.685382
_cell_length_c	10.686551
_cell_angle_alpha	81.588426
_cell_angle_beta	73.640872
_cell_angle_gamma	82.249478
loop_
_atom_site_label
_atom_site_type_symbol
_atom_site_fract_x
_atom_site_fract_y
_atom_site_fract_z
Zn1	Zn	-1.219487	0.816549	1.043972
Zn2	Zn	-0.719487	1.316549	1.543972
Zn3	Zn	-1.197418	1.038530	0.808839
Zn4	Zn	-0.697418	1.538530	1.308839
Zn5	Zn	-1.076303	0.789893	0.788874
Zn6	Zn	-0.576303	1.289893	1.288874
Zn7	Zn	-1.076291	0.985759	0.984789
Zn8	Zn	-0.576291	1.485759	1.484789
O9	O	-1.142375	0.907683	0.906619
O10	O	-0.642375	1.407683	1.406619
O11	O	-1.327174	0.879235	1.045904
O12	O	-0.827174	1.379235	1.545904
O13	O	-1.172121	1.016477	0.625796
O14	O	-0.672121	1.516477	1.125796
O15	O	-1.104538	0.618559	0.839127
O16	O	-0.604538	1.118559	1.339127
O17	O	-1.310960	1.042324	0.873153
O18	O	-0.810960	1.542324	1.373153
O19	O	-1.209734	0.638142	1.026545
O20	O	-0.709734	1.138142	1.526545
O21	O	-1.083139	0.833805	0.611128
O22	O	-0.583139	1.333805	1.111128
O23	O	-0.965687	0.782636	0.781740
O24	O	-0.465687	1.282636	1.281740
O25	O	-1.104517	0.952384	1.173034
O26	O	-0.604517	1.452384	1.673034
O27	O	-0.965679	0.926538	0.925677
O28	O	-0.465679	1.426538	1.425677
O29	O	-1.209722	0.828065	1.216516
O30	O	-0.709722	1.328065	1.716516
O31	O	-1.172109	1.206400	0.815766
O32	O	-0.672109	1.706400	1.315766
O33	O	-1.083118	1.167630	0.945036
O34	O	-0.583118	1.667630	1.445036
C35	C	-0.937002	0.845969	0.845121
C36	C	-0.437002	1.345969	1.345121
C37	C	-0.849142	0.819595	0.818839
C38	C	-0.349142	1.319595	1.318839
C39	C	-0.725303	0.707371	0.706995
C40	C	-0.225303	1.207371	1.206995
C41	C	-0.807860	0.732161	0.731699
C42	C	-0.307860	1.232161	1.231699
C43	C	-0.807876	0.882279	0.881304
C44	C	-0.307876	1.382279	1.381304
C45	C	-0.725317	0.857506	0.856608
C46	C	-0.225317	1.357506	1.356608
C47	C	-0.684036	0.770050	0.769453
C48	C	-0.184036	1.270050	1.269453
C49	C	-0.684050	0.920185	0.919065
C50	C	-0.184050	1.420185	1.419065
C51	C	-0.601499	0.895409	0.894375
C52	C	-0.101499	1.395409	1.394375
C53	C	-0.560213	0.807954	0.807228
C54	C	-0.060213	1.307954	1.307228
C55	C	-0.601485	0.745274	0.744763
C56	C	-0.101485	1.245274	1.244763
C57	C	-0.725333	1.007635	1.006227
C58	C	-0.225333	1.507635	1.506227
C59	C	-0.684067	1.070313	1.068685
C60	C	-0.184067	1.570313	1.568685
C61	C	-0.601513	1.045544	1.043988
C62	C	-0.101513	1.545544	1.543988
C63	C	-0.560227	0.958089	0.956840
C64	C	-0.060227	1.458089	1.456840
C65	C	-0.560241	1.108224	1.106453
C66	C	-0.060241	1.608224	1.606453
C67	C	-0.477689	1.083448	1.081763
C68	C	0.022311	1.583448	1.581763
C69	C	-0.477675	0.933313	0.932150
C70	C	0.022325	1.433313	1.432150
C71	C	-1.125241	1.232362	0.876180
C72	C	-0.625241	1.732362	1.376180
C73	C	-1.117985	1.371280	0.863223
C74	C	-0.617985	1.871280	1.363223
C75	C	-0.348550	0.969627	0.968343
C76	C	0.151450	1.469627	1.468343
C77	C	-0.436409	0.995992	0.994608
C78	C	0.063591	1.495992	1.494608
C79	C	-1.159580	0.887312	1.242857
C80	C	-0.659580	1.387312	1.742857
C81	C	-1.166912	0.878631	1.386142
C82	C	-0.666912	1.378631	1.886142
C83	C	-1.159556	1.581727	0.937209
C84	C	-0.659556	2.081727	1.437209
C85	C	-1.166768	1.442789	0.950240
C86	C	-0.666768	1.942789	1.450240
C87	C	-1.125287	0.927898	0.571710
C88	C	-0.625287	1.427898	1.071710
C89	C	-1.118126	0.936273	0.428505
C90	C	-0.618126	1.436273	0.928505
H91	H	-0.444062	0.862097	0.861180
H92	H	0.055938	1.362097	1.361180
H93	H	-1.070659	1.416338	0.778809
H94	H	-0.570659	1.916338	1.278809
H95	H	-0.593865	1.179422	1.177423
H96	H	-0.093865	1.679422	1.677423
Br97	Br	-1.039164	1.029611	1.306255
Br98	Br	-0.539164	1.529611	1.806255
H99	H	-0.841457	0.681102	0.680845
H100	H	-0.341457	1.181102	1.180845
Br101	Br	-0.545451	0.626606	0.626453
Br102	Br	-0.045451	1.126606	1.126453
Br103	Br	-0.448177	0.774316	0.773725
Br104	Br	0.051823	1.274316	1.273725
Br105	Br	-0.669269	0.588704	0.588685
Br106	Br	-0.169269	1.088704	1.088685
H107	H	-0.717689	1.141517	1.139649
H108	H	-0.217689	1.641517	1.639649
Br109	Br	-1.245891	0.785314	1.508399
Br110	Br	-0.745891	1.285314	2.008399
H111	H	-0.444090	1.134484	1.132627
H112	H	0.055910	1.634484	1.632627
H113	H	-0.841498	0.953483	0.952269
H114	H	-0.341498	1.453483	1.452269
Br115	Br	-0.837369	1.041262	1.039734
Br116	Br	-0.337369	1.541262	1.539734
H117	H	-1.214085	1.397735	1.034658
H118	H	-0.714085	1.897735	1.534658
