data_functionalizedCrystal
_audit_creation_method	'MofGen! by Chris Wilmer'
_symmetry_space_group_name_H-M	'P1'
_symmetry_Int_Tables_number	1
_symmetry_cell_setting	triclinic
loop_
_symmetry_equiv_pos_as_xyz
  x,y,z
_cell_length_a	19.121424
_cell_length_b	19.121063
_cell_length_c	21.395355
_cell_angle_alpha	87.579260
_cell_angle_beta	87.591614
_cell_angle_gamma	94.804615
loop_
_atom_site_label
_atom_site_type_symbol
_atom_site_fract_x
_atom_site_fract_y
_atom_site_fract_z
Zn1	Zn	1.063738	-0.234270	0.322825
Zn2	Zn	1.563738	0.265730	0.822825
Zn3	Zn	1.058616	-0.351923	0.222715
Zn4	Zn	1.558616	0.148077	0.722715
Zn5	Zn	0.946064	-0.239295	0.222716
Zn6	Zn	1.446064	0.260705	0.722716
Zn7	Zn	0.941019	-0.356927	0.332105
Zn8	Zn	1.441019	0.143073	0.832105
O9	O	1.002359	-0.295604	0.275090
O10	O	1.502359	0.204396	0.775090
O11	O	1.161520	-0.245679	0.305661
O12	O	1.661520	0.254321	0.805661
O13	O	1.043654	-0.336991	0.135039
O14	O	1.543654	0.163009	0.635039
O15	O	0.965929	-0.140162	0.232112
O16	O	1.465929	0.359838	0.732112
O17	O	1.157758	-0.332118	0.232111
O18	O	1.657758	0.167882	0.732111
O19	O	1.052383	-0.136469	0.305662
O20	O	1.552383	0.363531	0.805662
O21	O	0.960963	-0.254245	0.135039
O22	O	1.460963	0.245755	0.635039
O23	O	0.846933	-0.259097	0.241111
O24	O	1.346933	0.240903	0.741111
O25	O	0.957329	-0.340647	0.418551
O26	O	1.457329	0.159353	0.918551
O27	O	0.843226	-0.345520	0.321479
O28	O	1.343226	0.154480	0.821479
O29	O	1.047491	-0.250532	0.411733
O30	O	1.547491	0.249468	0.911733
O31	O	1.038762	-0.451054	0.241109
O32	O	1.538762	0.048946	0.741109
O33	O	0.952363	-0.454730	0.321478
O34	O	1.452363	0.045270	0.821478
C35	C	0.819549	-0.303397	0.282302
C36	C	1.319549	0.196603	0.782302
C37	C	0.741342	-0.306748	0.285403
C38	C	1.241342	0.193252	0.785403
C39	C	0.298920	-0.327939	0.305085
C40	C	0.798920	0.172061	0.805085
C41	C	0.372405	-0.324795	0.302160
C42	C	0.872405	0.175205	0.802160
C43	C	0.411057	-0.278156	0.258918
C44	C	0.911057	0.221844	0.758918
C45	C	0.376221	-0.234661	0.218594
C46	C	0.876221	0.265339	0.718594
C47	C	0.302738	-0.237809	0.221516
C48	C	0.802738	0.262191	0.721516
C49	C	0.633023	-0.266401	0.248001
C50	C	1.133023	0.233599	0.748001
C51	C	0.706511	-0.263256	0.245083
C52	C	1.206511	0.236744	0.745083
C53	C	0.702690	-0.353391	0.328649
C54	C	1.202690	0.146609	0.828649
C55	C	0.629205	-0.356532	0.331570
C56	C	1.129205	0.143468	0.831570
C57	C	0.594376	-0.313040	0.291244
C58	C	1.094376	0.186960	0.791244
C59	C	0.486170	-0.274940	0.255929
C60	C	0.986170	0.225060	0.755929
C61	C	0.519265	-0.316260	0.294231
C62	C	1.019265	0.183740	0.794231
C63	C	0.994478	-0.478422	0.282314
C64	C	1.494478	0.021578	0.782314
C65	C	0.991171	-0.556630	0.285422
C66	C	1.491171	-0.056630	0.785422
C67	C	1.034635	-0.591434	0.245071
C68	C	1.534635	-0.091434	0.745071
C69	C	1.031529	-0.664918	0.247998
C70	C	1.531529	-0.164918	0.747998
C71	C	0.984954	-0.703598	0.291274
C72	C	1.484954	-0.203598	0.791274
C73	C	0.941488	-0.668790	0.331630
C74	C	1.441488	-0.168790	0.831630
C75	C	0.944598	-0.595306	0.328705
C76	C	1.444598	-0.095306	0.828705
C77	C	0.973314	-0.925567	0.302199
C78	C	1.473314	-0.425567	0.802199
C79	C	0.970206	-0.999056	0.305119
C80	C	1.470206	-0.499056	0.805119
C81	C	1.060248	-0.995179	0.221487
C82	C	1.560248	-0.495179	0.721487
C83	C	1.063351	-0.921695	0.218564
C84	C	1.563351	-0.421695	0.718564
C85	C	1.019888	-0.886892	0.258922
C86	C	1.519888	-0.386892	0.758922
C87	C	0.981777	-0.778711	0.294265
C88	C	1.481777	-0.278711	0.794265
C89	C	1.023069	-0.811780	0.255933
C90	C	1.523069	-0.311780	0.755933
C91	C	1.185883	-0.287780	0.267851
C92	C	1.685883	0.212220	0.767851
C93	C	1.264090	-0.284446	0.264766
C94	C	1.764090	0.215554	0.764766
C95	C	1.002418	-0.295587	0.438511
C96	C	1.502418	0.204413	0.938511
C97	C	1.002443	-0.295580	0.508151
C98	C	1.502443	0.204420	1.008151
C99	C	1.010290	-0.112070	0.267852
C100	C	1.510290	0.387930	0.767852
C101	C	1.013670	-0.033859	0.264767
C102	C	1.513670	0.466141	0.764767
C103	C	1.002343	-0.295568	0.112302
C104	C	1.502343	0.204432	0.612302
C105	C	1.002463	-0.295371	0.042649
C106	C	1.502463	0.204629	0.542649
C107	C	1.049389	-0.248655	0.537315
C108	C	1.549389	0.251345	1.037315
C109	C	1.049389	-0.248625	0.602749
C110	C	1.549389	0.251375	1.102749
C111	C	1.002451	-0.295532	0.639017
C112	C	1.502451	0.204468	1.139017
C113	C	0.955497	-0.342460	0.609846
C114	C	1.455497	0.157540	1.109846
C115	C	0.955493	-0.342484	0.544413
C116	C	1.455493	0.157516	1.044413
C117	C	0.994164	-0.359126	0.745415
C118	C	1.494164	0.140874	1.245415
C119	C	0.994173	-0.359103	0.810847
C120	C	1.494173	0.140897	1.310847
C121	C	1.002459	-0.295457	0.840835
C122	C	1.502459	0.204543	1.340835
C123	C	1.010751	-0.231832	0.805383
C124	C	1.510751	0.268168	1.305383
C125	C	1.010747	-0.231856	0.739950
C126	C	1.510747	0.268144	1.239950
C127	C	1.002450	-0.295510	0.709969
C128	C	1.502450	0.204490	1.209969
C129	C	1.049407	-0.248496	0.940950
C130	C	1.549407	0.251504	1.440950
C131	C	1.049402	-0.248464	1.006386
C132	C	1.549402	0.251536	1.506386
C133	C	0.955513	-0.342306	1.013481
C134	C	1.455513	0.157694	1.513481
C135	C	0.955515	-0.342331	0.948047
C136	C	1.455515	0.157669	1.448047
C137	C	1.002465	-0.295427	0.911785
C138	C	1.502465	0.204573	1.411785
H139	H	0.737981	-0.225267	0.209875
H140	H	1.237981	0.274733	0.709875
Br141	Br	0.878285	-0.721283	0.390367
Br142	Br	1.378285	-0.221283	0.890367
H143	H	1.087619	-0.210461	0.507794
H144	H	1.587619	0.289539	1.007794
H145	H	0.400760	-0.360213	0.334992
H146	H	0.900760	0.139787	0.834992
Br147	Br	0.585764	-0.207370	0.193278
Br148	Br	1.085764	0.292630	0.693278
Br149	Br	0.255467	-0.178786	0.166790
Br150	Br	0.755467	0.321214	0.666790
Br151	Br	0.428677	-0.171367	0.159904
Br152	Br	0.928677	0.328633	0.659904
Br153	Br	1.113088	-0.184920	0.642338
Br154	Br	1.613088	0.315080	1.142338
Br155	Br	1.113130	-0.184785	1.045966
Br156	Br	1.613130	0.315215	1.545966
H157	H	0.909206	-0.566970	0.361564
H158	H	1.409206	-0.066970	0.861564
Br159	Br	0.466807	-0.379561	0.352909
Br160	Br	0.966807	0.120439	0.852909
Br161	Br	1.097841	-0.538946	0.186331
Br162	Br	1.597841	-0.038946	0.686331
Br163	Br	1.090524	-0.712149	0.193236
Br164	Br	1.590524	-0.212149	0.693236
H165	H	0.987229	-0.410949	0.721011
H166	H	1.487229	0.089051	1.221011
H167	H	1.060993	-0.780285	0.220700
H168	H	1.560993	-0.280285	0.720700
Br169	Br	0.918571	-0.831211	0.352997
Br170	Br	1.418571	-0.331211	0.852997
H171	H	0.917289	-0.380491	1.043010
H172	H	1.417289	0.119509	1.543010
Br173	Br	1.021996	-0.145512	0.691838
Br174	Br	1.521996	0.354488	1.191838
Br175	Br	1.126571	-0.869204	0.159838
Br176	Br	1.626571	-0.369204	0.659838
Br177	Br	1.022003	-0.145449	0.846072
Br178	Br	1.522003	0.354551	1.346072
H179	H	1.095634	-1.023523	0.188631
H180	H	1.595634	-0.523523	0.688631
Br181	Br	0.891790	-0.406115	0.659065
Br182	Br	1.391790	0.093885	1.159065
Br183	Br	0.906981	-1.051551	0.363844
Br184	Br	1.406981	-0.551551	0.863844
H185	H	1.087633	-0.210299	0.911424
H186	H	1.587633	0.289701	1.411424
Br187	Br	0.246471	-0.391234	0.363779
Br188	Br	0.746471	0.108766	0.863779
Br189	Br	0.891801	-0.406019	0.908464
Br190	Br	1.391801	0.093981	1.408464
H191	H	0.987425	-0.410911	0.839707
H192	H	1.487425	0.089089	1.339707
H193	H	0.597739	-0.394512	0.366781
H194	H	1.097739	0.105488	0.866781
Br195	Br	0.749961	-0.412418	0.383370
Br196	Br	1.249961	0.087582	0.883370
Br197	Br	0.891776	-0.406172	0.504830
Br198	Br	1.391776	0.093828	1.004830
H199	H	0.517648	-0.236965	0.220722
H200	H	1.017648	0.263035	0.720722
H201	H	0.937923	-0.897237	0.335058
H202	H	1.437923	-0.397237	0.835058
