data_functionalizedCrystal
_audit_creation_method	'MofGen! by Chris Wilmer'
_symmetry_space_group_name_H-M	'P1'
_symmetry_Int_Tables_number	1
_symmetry_cell_setting	triclinic
loop_
_symmetry_equiv_pos_as_xyz
  x,y,z
_cell_length_a	27.732048
_cell_length_b	15.944551
_cell_length_c	15.021413
_cell_angle_alpha	89.996935
_cell_angle_beta	90.001749
_cell_angle_gamma	83.070697
loop_
_atom_site_label
_atom_site_type_symbol
_atom_site_fract_x
_atom_site_fract_y
_atom_site_fract_z
O1	O	-0.641363	-0.099933	-0.073919
O2	O	-0.308029	0.233400	0.259414
O3	O	0.025304	0.566733	0.592747
O4	O	-0.500635	-0.115130	-0.073947
O5	O	-0.167302	0.218203	0.259387
O6	O	0.166032	0.551537	0.592720
O7	O	-0.574842	0.014793	-0.073924
O8	O	-0.241508	0.348127	0.259409
O9	O	0.091825	0.681460	0.592742
O10	O	-0.567156	-0.229857	-0.073942
O11	O	-0.233823	0.103477	0.259392
O12	O	0.099511	0.436810	0.592725
O13	O	-0.574830	0.014775	0.074140
O14	O	-0.241497	0.348108	0.407473
O15	O	0.091837	0.681442	0.740807
O16	O	-0.500623	-0.115149	0.074118
O17	O	-0.167290	0.218185	0.407451
O18	O	0.166043	0.551518	0.740784
O19	O	-0.641351	-0.099952	0.074145
O20	O	-0.308018	0.233381	0.407478
O21	O	0.025316	0.566715	0.740811
Zn22	Zn	-0.570985	-0.107553	0.097640
Zn23	Zn	-0.237652	0.225780	0.430973
Zn24	Zn	0.095682	0.559114	0.764306
Zn25	Zn	-0.571001	-0.107529	-0.097441
Zn26	Zn	-0.237667	0.225805	0.235892
Zn27	Zn	0.095666	0.559138	0.569225
O28	O	-0.567144	-0.229875	0.074122
O29	O	-0.233811	0.103458	0.407456
O30	O	0.099523	0.436791	0.740789
C31	C	-0.574517	0.046074	0.000108
C32	C	-0.241183	0.379407	0.333441
C33	C	0.092150	0.712741	0.666775
C34	C	-0.573560	0.139307	0.000108
C35	C	-0.240227	0.472641	0.333442
C36	C	0.093106	0.805974	0.666775
C37	C	-0.482621	-0.114820	0.000082
C38	C	-0.149287	0.218513	0.333415
C39	C	0.184046	0.551846	0.666749
C40	C	-0.428962	-0.113860	0.000072
C41	C	-0.095628	0.219474	0.333405
C42	C	0.237705	0.552807	0.666739
C43	C	-0.659365	-0.100262	0.000114
C44	C	-0.326032	0.233072	0.333447
C45	C	0.007302	0.566405	0.666781
C46	C	-0.713024	-0.101222	0.000118
C47	C	-0.379691	0.232111	0.333452
C48	C	-0.046357	0.565445	0.666785
C49	C	-0.090453	-0.184589	0.000106
C50	C	0.242880	0.148745	0.333439
C51	C	0.576214	0.482078	0.666772
C52	C	0.111222	-0.181025	0.000114
C53	C	0.444555	0.152309	0.333447
C54	C	0.777889	0.485642	0.666780
O55	O	0.142198	-0.245701	0.000148
O56	O	0.475531	0.087632	0.333481
O57	O	0.808864	0.420965	0.666814
N58	N	0.130679	-0.103986	0.000118
N59	N	0.464013	0.229348	0.333451
N60	N	0.797346	0.562681	0.666784
C61	C	0.099715	-0.027832	0.000125
C62	C	0.433048	0.305501	0.333459
C63	C	0.766381	0.638835	0.666792
O64	O	0.120892	0.037776	0.000138
O65	O	0.454225	0.371110	0.333471
O66	O	0.787558	0.704443	0.666805
C67	C	-0.101959	-0.031397	0.000124
C68	C	0.231374	0.301937	0.333457
C69	C	0.564707	0.635270	0.666790
C70	C	-0.121414	-0.108441	0.000111
C71	C	0.211919	0.224892	0.333444
C72	C	0.545253	0.558226	0.666777
C73	C	-0.109908	-0.261627	0.000094
C74	C	0.223425	0.071707	0.333427
C75	C	0.556759	0.405040	0.666760
C76	C	-0.160324	-0.262517	0.000087
C77	C	0.173010	0.070817	0.333420
C78	C	0.506343	0.404150	0.666753
C79	C	-0.191285	-0.186369	0.000092
C80	C	0.142049	0.146964	0.333425
C81	C	0.475382	0.480298	0.666758
C82	C	-0.171830	-0.109331	0.000104
C83	C	0.161504	0.224002	0.333437
C84	C	0.494837	0.557336	0.666770
C85	C	-0.132923	0.044756	0.000138
C86	C	0.200410	0.378089	0.333471
C87	C	0.533743	0.711423	0.666804
C88	C	-0.183345	0.043858	0.000139
C89	C	0.149989	0.377191	0.333473
C90	C	0.483322	0.710525	0.666806
C91	C	-0.202799	-0.033186	0.000126
C92	C	0.130534	0.300147	0.333460
C93	C	0.463868	0.633480	0.666793
C94	C	-0.253206	-0.034073	0.000102
C95	C	0.080127	0.299260	0.333435
C96	C	0.413460	0.632593	0.666768
N97	N	-0.272664	-0.111113	0.000098
N98	N	0.060670	0.222221	0.333431
N99	N	0.394003	0.555554	0.666765
C100	C	-0.241703	-0.187260	0.000093
C101	C	0.091630	0.146073	0.333426
C102	C	0.424964	0.479406	0.666760
C103	C	0.205597	-0.025966	0.000125
C104	C	0.538930	0.307368	0.333458
C105	C	0.872263	0.640701	0.666791
C106	C	0.256015	-0.025074	0.000123
C107	C	0.589348	0.308259	0.333457
C108	C	0.922682	0.641592	0.666790
C109	C	0.267519	-0.178268	0.000113
C110	C	0.600852	0.155066	0.333447
C111	C	0.934186	0.488399	0.666780
C112	C	0.217100	-0.179158	0.000108
C113	C	0.550433	0.154175	0.333442
C114	C	0.883766	0.487509	0.666775
C115	C	0.186139	-0.103005	0.000121
C116	C	0.519473	0.230328	0.333454
C117	C	0.852806	0.563662	0.666787
C118	C	-0.347580	-0.189124	0.000078
C119	C	-0.014247	0.144209	0.333411
C120	C	0.319087	0.477543	0.666744
C121	C	-0.398001	-0.190007	0.000067
C122	C	-0.064668	0.143326	0.333400
C123	C	0.268666	0.476659	0.666734
C124	C	-0.409500	-0.036815	0.000082
C125	C	-0.076167	0.296519	0.333415
C126	C	0.257166	0.629852	0.666748
C127	C	-0.359084	-0.035931	0.000088
C128	C	-0.025751	0.297402	0.333421
C129	C	0.307583	0.630736	0.666754
C130	C	-0.328125	-0.112092	0.000089
C131	C	0.005209	0.221241	0.333422
C132	C	0.338542	0.554574	0.666755
O133	O	-0.284210	0.030569	0.000078
O134	O	0.049123	0.363902	0.333411
O135	O	0.382456	0.697235	0.666745
O136	O	-0.262890	-0.252859	0.000100
O137	O	0.070444	0.080474	0.333433
O138	O	0.403777	0.413807	0.666767
C139	C	-0.040037	-0.183699	0.000112
C140	C	0.293296	0.149635	0.333446
C141	C	0.626629	0.482968	0.666779
C142	C	-0.020582	-0.106661	0.000124
C143	C	0.312751	0.226673	0.333458
C144	C	0.646084	0.560006	0.666791
C145	C	-0.051543	-0.030513	0.000129
C146	C	0.281790	0.302820	0.333463
C147	C	0.615123	0.636154	0.666796
C148	C	0.029836	-0.105769	0.000123
C149	C	0.363169	0.227564	0.333457
C150	C	0.696503	0.560897	0.666790
C151	C	0.060797	-0.181917	0.000118
C152	C	0.394130	0.151416	0.333452
C153	C	0.727464	0.484750	0.666785
C154	C	0.041339	-0.258956	0.000114
C155	C	0.374673	0.074377	0.333448
C156	C	0.708006	0.407710	0.666781
C157	C	-0.009076	-0.259846	0.000107
C158	C	0.324257	0.073487	0.333441
C159	C	0.657590	0.406820	0.666774
C160	C	-0.032086	0.046526	0.000133
C161	C	0.301248	0.379860	0.333467
C162	C	0.634581	0.713193	0.666800
C163	C	0.018331	0.047410	0.000139
C164	C	0.351664	0.380744	0.333473
C165	C	0.684997	0.714077	0.666806
C166	C	0.049291	-0.028738	0.000134
C167	C	0.382625	0.304596	0.333468
C168	C	0.715958	0.637929	0.666801
C169	C	-0.567469	-0.261156	0.000088
C170	C	-0.234136	0.072178	0.333422
C171	C	0.099198	0.405511	0.666755
C172	C	-0.568426	-0.354389	0.000082
C173	C	-0.235092	-0.021056	0.333415
C174	C	0.098241	0.312277	0.666749
N175	N	-0.570978	-0.107569	0.230777
N176	N	-0.237645	0.225764	0.564111
N177	N	0.095689	0.559097	0.897444
C178	C	-0.525277	0.353533	0.000087
C179	C	-0.191944	0.686866	0.333420
C180	C	0.141390	1.020199	0.666753
C181	C	-0.547692	0.414834	0.073096
C182	C	-0.214359	0.748167	0.406429
C183	C	0.118974	1.081501	0.739762
C184	C	-0.571830	0.310011	0.000101
C185	C	-0.238496	0.643344	0.333434
C186	C	0.094837	0.976677	0.666768
C187	C	-0.547715	0.414836	-0.072884
C188	C	-0.214382	0.748169	0.260449
C189	C	0.118952	1.081503	0.593783
C190	C	-0.570155	0.474902	0.000090
C191	C	-0.236821	0.808235	0.333424
C192	C	0.096512	1.141568	0.666757
C193	C	-0.594258	0.370084	0.073170
C194	C	-0.260924	0.703417	0.406504
C195	C	0.072409	1.036751	0.739837
C196	C	-0.594274	0.370079	-0.072875
C197	C	-0.260941	0.703413	0.260458
C198	C	0.072393	1.036746	0.593792
C199	C	-0.616723	0.431364	0.000152
C200	C	-0.283390	0.764697	0.333485
C201	C	0.049944	1.098030	0.666818
C202	C	-0.572793	0.215021	0.000108
C203	C	-0.239460	0.548354	0.333441
C204	C	0.093873	0.881688	0.666775
C205	C	-0.569195	0.569890	0.000090
C206	C	-0.235861	0.903223	0.333423
C207	C	0.097472	1.236557	0.666756
N208	N	-0.571012	-0.107506	-0.230579
N209	N	-0.237678	0.225827	0.102754
N210	N	0.095655	0.559161	0.436088
C211	C	-0.536660	-0.167618	0.470450
C212	C	-0.203326	0.165715	0.803783
C213	C	0.130007	0.499049	1.137117
C214	C	-0.580337	-0.183354	0.529792
C215	C	-0.247004	0.149980	0.863125
C216	C	0.086330	0.483313	1.196458
C217	C	-0.570990	-0.107548	0.412384
C218	C	-0.237657	0.225785	0.745717
C219	C	0.095676	0.559119	1.079051
C220	C	-0.527325	-0.091831	0.529784
C221	C	-0.193992	0.241502	0.863118
C222	C	0.139342	0.574836	1.196451
C223	C	-0.570998	-0.107530	0.587808
C224	C	-0.237665	0.225804	0.921142
C225	C	0.095668	0.559137	1.254475
C226	C	-0.614690	-0.123321	0.470419
C227	C	-0.281357	0.210012	0.803753
C228	C	0.051977	0.543345	1.137086
C229	C	-0.561649	-0.031766	0.470407
C230	C	-0.228316	0.301567	0.803740
C231	C	0.105018	0.634901	1.137073
C232	C	-0.605358	-0.047469	0.529721
C233	C	-0.272025	0.285864	0.863055
C234	C	0.061309	0.619197	1.196388
C235	C	-0.570985	-0.107561	0.311327
C236	C	-0.237652	0.225772	0.644660
C237	C	0.095682	0.559106	0.977993
C238	C	-0.571009	-0.107516	0.688863
C239	C	-0.237675	0.225817	1.022197
C240	C	0.095658	0.559151	1.355530
H241	H	-0.413838	-0.252749	0.000056
H242	H	-0.080504	0.080585	0.333389
H243	H	0.252829	0.413918	0.666723
H244	H	-0.507656	-0.218457	0.444426
H245	H	-0.174323	0.114876	0.777759
H246	H	0.159010	0.448209	1.111093
Cl247	Cl	-0.517310	0.445469	-0.168173
Cl248	Cl	-0.183977	0.778802	0.165160
Cl249	Cl	0.149356	1.112136	0.498494
H250	H	-0.024911	-0.322584	0.000098
H251	H	0.308422	0.010750	0.333431
H252	H	0.641756	0.344083	0.666765
H253	H	-0.588245	-0.247433	0.555876
H254	H	-0.254912	0.085901	0.889209
H255	H	0.078421	0.419234	1.222543
H256	H	-0.486636	0.319720	0.000152
H257	H	-0.153303	0.653053	0.333485
H258	H	0.180031	0.986386	0.666819
Cl259	Cl	-0.517286	0.445472	0.168381
Cl260	Cl	-0.183953	0.778805	0.501714
Cl261	Cl	0.149380	1.112138	0.835047
Cl262	Cl	-0.071001	0.142265	0.000140
Cl263	Cl	0.262332	0.475599	0.333473
Cl264	Cl	0.595666	0.808932	0.666807
Cl265	Cl	-0.671721	-0.143950	0.430334
Cl266	Cl	-0.338388	0.189383	0.763667
Cl267	Cl	-0.005055	0.522717	1.097001
H268	H	-0.553727	0.032292	0.444301
H269	H	-0.220394	0.365626	0.777635
H270	H	0.112940	0.698959	1.110968
Cl271	Cl	-0.650234	0.030977	0.569657
Cl272	Cl	-0.316901	0.364310	0.902990
Cl273	Cl	0.016432	0.697643	1.236324
H274	H	-0.208551	0.105873	0.000150
H275	H	0.124783	0.439206	0.333484
H276	H	0.458116	0.772539	0.666817
H277	H	-0.655398	0.465028	0.000201
H278	H	-0.322065	0.798361	0.333534
H279	H	0.011269	1.131695	0.666867
H280	H	-0.490394	-0.078546	0.555863
H281	H	-0.157061	0.254788	0.889197
H282	H	0.176272	0.588121	1.222530
H283	H	-0.176158	-0.325254	0.000076
H284	H	0.157175	0.008079	0.333409
H285	H	0.490508	0.341413	0.666742
Cl286	Cl	-0.308667	-0.284871	0.000078
Cl287	Cl	0.024666	0.048462	0.333411
Cl288	Cl	0.357999	0.381795	0.666744
H289	H	-0.434718	0.025183	0.000082
H290	H	-0.101384	0.358516	0.333416
H291	H	0.231949	0.691849	0.666749
Cl292	Cl	-0.070994	-0.357369	0.000085
Cl293	Cl	0.262340	-0.024036	0.333418
Cl294	Cl	0.595673	0.309298	0.666752
H295	H	0.201264	-0.241894	0.000103
H296	H	0.534597	0.091439	0.333436
H297	H	0.867930	0.424772	0.666769
Cl298	Cl	0.280465	0.071785	0.000118
Cl299	Cl	0.613799	0.405119	0.333451
Cl300	Cl	0.947132	0.738452	0.666784
Cl301	Cl	0.306450	-0.273996	0.000110
Cl302	Cl	0.639784	0.059338	0.333444
Cl303	Cl	0.973117	0.392671	0.666777
Cl304	Cl	-0.624656	0.339405	-0.168165
Cl305	Cl	-0.291322	0.672738	0.165168
Cl306	Cl	0.042011	1.006072	0.498502
H307	H	-0.343244	0.026805	0.000085
H308	H	-0.009910	0.360138	0.333418
H309	H	0.323423	0.693471	0.666752
H310	H	0.066557	-0.320958	0.000107
H311	H	0.399890	0.012375	0.333440
H312	H	0.733223	0.345708	0.666773
Cl313	Cl	-0.108479	0.141618	0.000139
Cl314	Cl	0.224854	0.474951	0.333472
Cl315	Cl	0.558187	0.808285	0.666806
Cl316	Cl	0.042780	0.144276	0.000144
Cl317	Cl	0.376114	0.477609	0.333477
Cl318	Cl	0.709447	0.810943	0.666811
Cl319	Cl	0.166681	0.069780	0.000138
Cl320	Cl	0.500015	0.403113	0.333471
Cl321	Cl	0.833348	0.736447	0.666804
H322	H	-0.613926	0.350343	0.134961
H323	H	-0.280593	0.683676	0.468295
H324	H	0.052740	1.017010	0.801628
