data_functionalizedCrystal
_audit_creation_method	'MofGen! by Chris Wilmer'
_symmetry_space_group_name_H-M	'P1'
_symmetry_Int_Tables_number	1
_symmetry_cell_setting	triclinic
loop_
_symmetry_equiv_pos_as_xyz
  x,y,z
_cell_length_a	16.992694
_cell_length_b	14.853567
_cell_length_c	15.455313
_cell_angle_alpha	92.672621
_cell_angle_beta	87.142206
_cell_angle_gamma	87.151577
loop_
_atom_site_label
_atom_site_type_symbol
_atom_site_fract_x
_atom_site_fract_y
_atom_site_fract_z
O1	O	1.044027	0.187488	-0.072010
O2	O	1.544027	0.687488	0.427990
O3	O	0.815740	0.185390	-0.072036
O4	O	1.315740	0.685390	0.427964
O5	O	0.935981	0.055640	-0.072025
O6	O	1.435981	0.555640	0.427975
O7	O	0.923785	0.317238	-0.072021
O8	O	1.423785	0.817238	0.427979
O9	O	0.929105	0.063027	0.072237
O10	O	1.429105	0.563027	0.572237
O11	O	0.808864	0.192777	0.072226
O12	O	1.308864	0.692777	0.572226
O13	O	1.037151	0.194875	0.072251
O14	O	1.537151	0.694875	0.572251
Cu15	Cu	0.922380	0.194501	0.085411
Cu16	Cu	1.422380	0.694501	0.585411
Cu17	Cu	0.930511	0.185764	-0.085195
Cu18	Cu	1.430511	0.685764	0.414805
O19	O	0.916909	0.324625	0.072241
O20	O	1.416909	0.824625	0.572241
C21	C	0.783087	0.186385	0.000092
C22	C	1.283087	0.686385	0.500092
C23	C	0.696034	0.178334	0.000081
C24	C	1.196034	0.678334	0.500081
C25	C	0.645878	0.256009	0.000083
C26	C	1.145878	0.756009	0.500083
C27	C	0.564083	0.248440	0.000095
C28	C	1.064083	0.748440	0.500095
C29	C	0.532445	0.163195	0.000099
C30	C	1.032445	0.663195	0.500099
C31	C	0.582608	0.085514	0.000100
C32	C	1.082608	0.585514	0.500100
C33	C	0.664401	0.093084	0.000094
C34	C	1.164401	0.593084	0.500094
C35	C	0.288813	0.131820	0.000122
C36	C	0.788813	0.631820	0.500122
C37	C	0.207013	0.124255	0.000125
C38	C	0.707013	0.624255	0.500125
C39	C	0.188493	0.287183	0.000122
C40	C	0.688493	0.787183	0.500122
C41	C	0.270290	0.294745	0.000111
C42	C	0.770290	0.794745	0.500111
C43	C	0.320445	0.217064	0.000116
C44	C	0.820445	0.717064	0.500116
N45	N	0.448838	0.155456	0.000108
N46	N	0.948838	0.655456	0.500108
N47	N	0.404050	0.224804	0.000113
N48	N	0.904050	0.724804	0.500113
C49	C	0.931991	0.025705	0.000103
C50	C	1.431991	0.525705	0.500103
C51	C	0.930335	-0.074496	0.000096
C52	C	1.430335	0.425504	0.500096
C53	C	0.851909	-0.492567	0.000103
C54	C	1.351909	0.007433	0.500103
C55	C	0.994758	-0.503760	0.000119
C56	C	1.494758	-0.003760	0.500119
C57	C	0.996315	-0.409617	0.000114
C58	C	1.496315	0.090383	0.500114
C59	C	0.925668	-0.356944	0.000105
C60	C	1.425668	0.143056	0.500105
C61	C	0.853464	-0.398414	0.000101
C62	C	1.353464	0.101586	0.500101
C63	C	1.068518	-0.368139	0.000127
C64	C	1.568518	0.131861	0.500127
C65	C	1.070078	-0.273990	0.000123
C66	C	1.570078	0.226010	0.500123
C67	C	0.999430	-0.221316	0.000108
C68	C	1.499430	0.278684	0.500108
C69	C	0.927223	-0.262791	0.000103
C70	C	1.427223	0.237209	0.500103
C71	C	0.856576	-0.210118	0.000094
C72	C	1.356576	0.289882	0.500094
C73	C	0.784368	-0.251593	0.000082
C74	C	1.284368	0.248407	0.500082
C75	C	0.782816	-0.345740	0.000086
C76	C	1.282816	0.154260	0.500086
C77	C	1.000982	-0.127169	0.000105
C78	C	1.500982	0.372831	0.500105
C79	C	0.858131	-0.115966	0.000091
C80	C	1.358131	0.384034	0.500091
C81	C	1.069804	0.193880	0.000122
C82	C	1.569804	0.693880	0.500122
C83	C	1.156857	0.201931	0.000127
C84	C	1.656857	0.701931	0.500127
C85	C	0.920900	0.354560	0.000110
C86	C	1.420900	0.854560	0.500110
C87	C	0.922556	0.454760	0.000112
C88	C	1.422556	0.954760	0.500112
N89	N	0.916666	0.200645	0.205406
N90	N	1.416666	0.700645	0.705406
N91	N	0.936231	0.179613	-0.205190
N92	N	1.436231	0.679613	0.294810
C93	C	0.967766	0.145545	0.250805
C94	C	1.467766	0.645545	0.750805
C95	C	0.963453	0.150201	0.341612
C96	C	1.463453	0.650201	0.841612
C97	C	0.908042	0.209961	0.387019
C98	C	1.408042	0.709961	0.887019
C99	C	0.856936	0.265063	0.341614
C100	C	1.356936	0.765063	0.841614
C101	C	0.861246	0.260402	0.250808
C102	C	1.361246	0.760402	0.750808
C103	C	0.889436	0.230054	0.658599
C104	C	1.389436	0.730054	1.158599
C105	C	0.885131	0.234713	0.749411
C106	C	1.385131	0.734713	1.249411
C107	C	0.991647	0.119849	0.749403
C108	C	1.491647	0.619849	1.249403
C109	C	0.995956	0.115198	0.658595
C110	C	1.495956	0.615198	1.158595
C111	C	0.944847	0.170296	0.613198
C112	C	1.444847	0.670296	1.113198
N113	N	0.903633	0.214723	0.479839
N114	N	1.403633	0.714723	0.979839
N115	N	0.949253	0.165529	0.520380
N116	N	1.449253	0.665529	1.020380
H117	H	0.181257	0.054835	0.000127
H118	H	0.681257	0.554835	0.500127
H119	H	0.671631	0.325425	0.000080
H120	H	1.171631	0.825425	0.500080
H121	H	1.012891	0.096886	0.213840
H122	H	1.512891	0.596886	0.713840
C123	C	0.772486	-0.538183	0.000094
C124	C	1.272486	-0.038183	0.500094
H125	H	0.781674	-0.601797	0.000102
H126	H	1.281674	-0.101797	0.500102
H127	H	0.745790	-0.523027	-0.050214
H128	H	1.245790	-0.023027	0.449786
H129	H	0.741000	-0.517874	0.050406
H130	H	1.241000	-0.017874	0.550406
C131	C	0.703397	-0.391362	0.000085
C132	C	1.203397	0.108638	0.500085
H133	H	0.712590	-0.454976	0.000100
H134	H	1.212590	0.045024	0.500100
H135	H	0.676696	-0.376218	-0.050223
H136	H	1.176696	0.123782	0.449777
H137	H	0.671912	-0.371051	0.050397
H138	H	1.171912	0.128949	0.550397
H139	H	1.052275	-0.546652	0.000134
H140	H	1.552275	-0.046652	0.500134
H141	H	1.033256	0.074990	0.786374
H142	H	1.533256	0.574990	1.286374
H143	H	1.126034	-0.411032	0.000143
H144	H	1.626034	0.088968	0.500143
C145	C	0.305089	0.388513	0.000103
C146	C	0.805089	0.888513	0.500103
H147	H	0.360987	0.381896	0.000089
H148	H	0.860987	0.881896	0.500089
H149	H	0.285492	0.423329	0.050408
H150	H	0.785492	0.923329	0.550408
H151	H	0.290268	0.418159	-0.050213
H152	H	0.790268	0.918159	0.449787
C153	C	0.706662	-0.193647	0.000071
C154	C	1.206662	0.306353	0.500071
H155	H	0.717935	-0.131638	0.000068
H156	H	1.217935	0.368362	0.500068
H157	H	0.674656	-0.204196	0.050371
H158	H	1.174656	0.295804	0.550371
H159	H	0.679461	-0.209347	-0.050249
H160	H	1.179461	0.290653	0.449751
C161	C	0.824134	0.300401	0.799358
C162	C	1.324134	0.800401	1.299358
H163	H	0.794296	0.332528	0.759316
H164	H	1.294296	0.832528	1.259316
H165	H	0.850657	0.341820	0.834796
H166	H	1.350657	0.841820	1.334796
H167	H	0.789798	0.267356	0.834766
H168	H	1.289798	0.767356	1.334766
H169	H	0.523249	0.311692	0.000096
H170	H	1.023249	0.811692	0.500096
C171	C	1.149502	-0.228377	0.000124
C172	C	1.649502	0.271623	0.500124
H173	H	1.191353	-0.273232	0.000124
H174	H	1.691353	0.226768	0.500124
H175	H	1.150685	-0.189298	0.050426
H176	H	1.650685	0.310702	0.550426
H177	H	1.155472	-0.194469	-0.050194
H178	H	1.655472	0.305531	0.449806
H179	H	0.556842	0.016105	0.000115
H180	H	1.056842	0.516105	0.500115
C181	C	0.133322	0.372624	0.000127
C182	C	0.633322	0.872624	0.500127
H183	H	0.080077	0.355911	0.000139
H184	H	0.580077	0.855911	0.500139
H185	H	0.145311	0.404763	-0.050178
H186	H	0.645311	0.904763	0.449822
H187	H	0.140534	0.409908	0.050442
H188	H	0.640534	0.909908	0.550442
H189	H	1.059772	-0.093404	0.000120
H190	H	1.559772	0.406596	0.500120
H191	H	0.847822	0.274919	0.621644
H192	H	1.347822	0.774919	1.121644
H193	H	1.005062	0.105334	0.378575
H194	H	1.505062	0.605334	0.878575
H195	H	1.041076	0.066536	0.621627
H196	H	1.541076	0.566536	1.121627
H197	H	0.329639	0.068566	0.000127
H198	H	0.829639	0.568566	0.500127
H199	H	0.811815	0.313718	0.378590
H200	H	1.311815	0.813718	0.878590
H201	H	0.819634	0.305269	0.213845
H202	H	1.319634	0.805269	0.713845
H203	H	0.800601	-0.073085	0.000080
H204	H	1.300601	0.426915	0.500080
C205	C	0.719573	0.007640	0.000083
C206	C	1.219573	0.507640	0.500083
H207	H	0.689018	-0.044214	0.000077
H208	H	1.189018	0.455786	0.500077
H209	H	0.749478	0.009781	0.050387
H210	H	1.249478	0.509781	0.550387
H211	H	0.754254	0.004633	-0.050234
H212	H	1.254254	0.504633	0.449766
