data_functionalizedCrystal
_audit_creation_method	'MofGen! by Chris Wilmer'
_symmetry_space_group_name_H-M	'P1'
_symmetry_Int_Tables_number	1
_symmetry_cell_setting	triclinic
loop_
_symmetry_equiv_pos_as_xyz
  x,y,z
_cell_length_a	14.044220
_cell_length_b	14.044191
_cell_length_c	13.101039
_cell_angle_alpha	86.337551
_cell_angle_beta	86.330374
_cell_angle_gamma	86.809673
loop_
_atom_site_label
_atom_site_type_symbol
_atom_site_fract_x
_atom_site_fract_y
_atom_site_fract_z
O1	O	-0.225378	1.281976	-0.085160
O2	O	0.024622	1.531976	0.164840
O3	O	0.274622	1.781976	0.414840
O4	O	0.524622	2.031976	0.664840
O5	O	-0.217064	1.005304	-0.085173
O6	O	0.032936	1.255304	0.164827
O7	O	0.282936	1.505304	0.414827
O8	O	0.532936	1.755304	0.664827
O9	O	-0.082886	1.139487	-0.085162
O10	O	0.167114	1.389487	0.164838
O11	O	0.417114	1.639487	0.414838
O12	O	0.667114	1.889487	0.664838
O13	O	-0.359557	1.147793	-0.085171
O14	O	-0.109557	1.397793	0.164829
O15	O	0.140443	1.647793	0.414829
O16	O	0.390443	1.897793	0.664829
O17	O	-0.092530	1.129861	0.085267
O18	O	0.157470	1.379861	0.335267
O19	O	0.407470	1.629861	0.585267
O20	O	0.657470	1.879861	0.835267
O21	O	-0.226709	0.995678	0.085256
O22	O	0.023291	1.245678	0.335256
O23	O	0.273291	1.495678	0.585256
O24	O	0.523291	1.745678	0.835256
O25	O	-0.235022	1.272350	0.085269
O26	O	0.014978	1.522350	0.335269
O27	O	0.264978	1.772350	0.585269
O28	O	0.514978	2.022350	0.835269
Zn29	Zn	-0.232397	1.132486	0.112322
Zn30	Zn	0.017603	1.382486	0.362322
Zn31	Zn	0.267603	1.632486	0.612322
Zn32	Zn	0.517603	1.882486	0.862322
Zn33	Zn	-0.219690	1.145168	-0.112226
Zn34	Zn	0.030310	1.395168	0.137774
Zn35	Zn	0.280310	1.645168	0.387774
Zn36	Zn	0.530310	1.895168	0.637774
O37	O	-0.369201	1.138167	0.085258
O38	O	-0.119201	1.388167	0.335258
O39	O	0.130799	1.638167	0.585258
O40	O	0.380799	1.888167	0.835258
C41	C	-0.218250	0.964869	0.000040
C42	C	0.031750	1.214869	0.250040
C43	C	0.281750	1.464869	0.500040
C44	C	0.531750	1.714869	0.750040
C45	C	-0.207402	0.858726	0.000035
C46	C	0.042598	1.108726	0.250035
C47	C	0.292598	1.358726	0.500035
C48	C	0.542598	1.608726	0.750035
C49	C	-0.264503	0.613268	0.000043
C50	C	-0.014503	0.863268	0.250043
C51	C	0.235497	1.113268	0.500043
C52	C	0.485497	1.363268	0.750043
C53	C	-0.187587	0.664393	0.000044
C54	C	0.062413	0.914393	0.250044
C55	C	0.312413	1.164393	0.500044
C56	C	0.562413	1.414393	0.750044
C57	C	-0.198615	0.772530	0.000039
C58	C	0.051385	1.022530	0.250039
C59	C	0.301385	1.272530	0.500039
C60	C	0.551385	1.522530	0.750039
C61	C	-0.253477	0.505121	0.000048
C62	C	-0.003477	0.755121	0.250048
C63	C	0.246523	1.005121	0.500048
C64	C	0.496523	1.255121	0.750048
C65	C	-0.400001	1.146616	0.000042
C66	C	-0.150001	1.396616	0.250042
C67	C	0.099999	1.646616	0.500042
C68	C	0.349999	1.896616	0.750042
C69	C	-0.506144	1.157461	0.000039
C70	C	-0.256144	1.407461	0.250039
C71	C	-0.006144	1.657461	0.500039
C72	C	0.243856	1.907461	0.750039
C73	C	-0.700482	1.177287	0.000045
C74	C	-0.450482	1.427287	0.250045
C75	C	-0.200482	1.677287	0.500045
C76	C	0.049518	1.927287	0.750045
C77	C	-0.751610	1.100372	0.000042
C78	C	-0.501610	1.350372	0.250042
C79	C	-0.251610	1.600372	0.500042
C80	C	-0.001610	1.850372	0.750042
C81	C	-0.859747	1.111404	0.000045
C82	C	-0.609747	1.361404	0.250045
C83	C	-0.359747	1.611404	0.500045
C84	C	-0.109747	1.861404	0.750045
C85	C	-0.592336	1.166257	0.000042
C86	C	-0.342336	1.416257	0.250042
C87	C	-0.092336	1.666257	0.500042
C88	C	0.157664	1.916257	0.750042
C89	C	-0.052086	1.131038	0.000051
C90	C	0.197914	1.381038	0.250051
C91	C	0.447914	1.631038	0.500051
C92	C	0.697914	1.881038	0.750051
C93	C	0.054057	1.120194	0.000047
C94	C	0.304057	1.370194	0.250047
C95	C	0.554057	1.620194	0.500047
C96	C	0.804057	1.870194	0.750047
C97	C	-0.233837	1.312785	0.000054
C98	C	0.016163	1.562785	0.250054
C99	C	0.266163	1.812785	0.500054
C100	C	0.516163	2.062785	0.750054
C101	C	-0.244684	1.418928	0.000052
C102	C	0.005316	1.668928	0.250052
C103	C	0.255316	1.918928	0.500052
C104	C	0.505316	2.168928	0.750052
N105	N	-0.241069	1.123837	0.265569
N106	N	0.008931	1.373837	0.515569
N107	N	0.258931	1.623837	0.765569
N108	N	0.508931	1.873837	1.015569
N109	N	-0.211011	1.153824	-0.265474
N110	N	0.038989	1.403824	-0.015474
N111	N	0.288989	1.653824	0.234526
N112	N	0.538989	1.903824	0.484526
C113	C	-0.252877	1.112071	0.474611
C114	C	-0.002877	1.362071	0.724611
C115	C	0.247123	1.612071	0.974611
C116	C	0.497123	1.862071	1.224611
C117	C	-0.199206	1.165587	0.525491
C118	C	0.050794	1.415587	0.775491
C119	C	0.300794	1.665587	1.025491
C120	C	0.550794	1.915587	1.275491
C121	C	-0.205776	1.159040	0.641809
C122	C	0.044224	1.409040	0.891809
C123	C	0.294224	1.659040	1.141809
C124	C	0.544224	1.909040	1.391809
C125	C	-0.246308	1.118617	0.358283
C126	C	0.003692	1.368617	0.608283
C127	C	0.253692	1.618617	0.858283
C128	C	0.503692	1.868617	1.108283
H129	H	-0.714169	1.026239	0.000039
H130	H	-0.464169	1.276239	0.250039
H131	H	-0.214169	1.526239	0.500039
H132	H	0.035831	1.776239	0.750039
H133	H	-0.737922	1.251414	0.000052
H134	H	-0.487922	1.501414	0.250052
H135	H	-0.237922	1.751414	0.500052
H136	H	0.012078	2.001414	0.750052
N137	N	-0.131803	1.232793	0.467487
N138	N	0.118197	1.482793	0.717487
N139	N	0.368197	1.732793	0.967487
N140	N	0.618197	1.982793	1.217487
H141	H	-0.136604	1.228006	0.391411
H142	H	0.113396	1.478006	0.641411
H143	H	0.363396	1.728006	0.891411
H144	H	0.613396	1.978006	1.141411
H145	H	-0.149529	1.300437	0.486172
H146	H	0.100471	1.550437	0.736172
H147	H	0.350471	1.800437	0.986172
H148	H	0.600471	2.050437	1.236172
H149	H	-0.113451	0.626953	-0.000026
H150	H	0.136549	0.876953	0.249974
H151	H	0.386549	1.126953	0.499974
H152	H	0.636549	1.376953	0.749974
H153	H	-0.338630	0.650709	0.000038
H154	H	-0.088630	0.900709	0.250038
H155	H	0.161370	1.150709	0.500038
H156	H	0.411370	1.400709	0.750038
H157	H	-0.303758	1.061341	0.518404
H158	H	-0.053758	1.311341	0.768404
H159	H	0.196242	1.561341	1.018404
H160	H	0.446242	1.811341	1.268404
