data_functionalizedCrystal
_audit_creation_method	'MofGen! by Chris Wilmer'
_symmetry_space_group_name_H-M	'P1'
_symmetry_Int_Tables_number	1
_symmetry_cell_setting	triclinic
loop_
_symmetry_equiv_pos_as_xyz
  x,y,z
_cell_length_a	12.594517
_cell_length_b	12.594516
_cell_length_c	17.077396
_cell_angle_alpha	89.976506
_cell_angle_beta	90.010060
_cell_angle_gamma	89.977383
loop_
_atom_site_label
_atom_site_type_symbol
_atom_site_fract_x
_atom_site_fract_y
_atom_site_fract_z
Zn1	Zn	1.627173	0.423859	0.443672
Zn2	Zn	2.127173	0.923859	0.943672
Zn3	Zn	1.627035	0.601860	0.312418
Zn4	Zn	2.127035	1.101860	0.812418
Zn5	Zn	1.449181	0.423883	0.312442
Zn6	Zn	1.949181	0.923883	0.812442
Zn7	Zn	1.449126	0.601783	0.443663
Zn8	Zn	1.949126	1.101783	0.943663
O9	O	1.538129	0.512846	0.378049
O10	O	2.038129	1.012846	0.878049
O11	O	1.776100	0.447493	0.426255
O12	O	2.276100	0.947493	0.926255
O13	O	1.603408	0.578293	0.202574
O14	O	2.103408	1.078293	0.702574
O15	O	1.472873	0.274934	0.329864
O16	O	1.972873	0.774934	0.829864
O17	O	1.775999	0.578270	0.329823
O18	O	2.275999	1.078270	0.829823
O19	O	1.603643	0.274916	0.426278
O20	O	2.103643	0.774916	0.926278
O21	O	1.472739	0.447534	0.202592
O22	O	1.972739	0.947534	0.702592
O23	O	1.300228	0.447460	0.329855
O24	O	1.800228	0.947460	0.829855
O25	O	1.472779	0.578139	0.553511
O26	O	1.972779	1.078139	1.053511
O27	O	1.300188	0.578162	0.426262
O28	O	1.800188	1.078162	0.926262
O29	O	1.603589	0.447419	0.553518
O30	O	2.103589	0.947419	1.053518
O31	O	1.603354	0.750795	0.329814
O32	O	2.103354	1.250795	0.829814
O33	O	1.472645	0.750739	0.426239
O34	O	1.972645	1.250739	0.926239
C35	C	1.261588	0.512806	0.378060
C36	C	1.761588	1.012806	0.878060
C37	C	1.143282	0.512814	0.378084
C38	C	1.643282	1.012814	0.878084
C39	C	1.074038	0.584043	0.430419
C40	C	1.574038	1.084043	0.930419
C41	C	1.003247	0.486998	0.449723
C42	C	1.503247	0.986998	0.949723
C43	C	1.003275	0.609939	0.358763
C44	C	1.503275	1.109939	0.858763
C45	C	1.074050	0.415718	0.397426
C46	C	1.574050	0.915718	0.897426
C47	C	1.074083	0.538725	0.306432
C48	C	1.574083	1.038725	0.806432
C49	C	1.003324	0.441613	0.325709
C50	C	1.503324	0.941613	0.825709
C51	C	1.538008	0.789387	0.378040
C52	C	2.038008	1.289387	0.878040
C53	C	1.538053	0.907693	0.378062
C54	C	2.038053	1.407693	0.878062
C55	C	1.466941	0.976954	0.430471
C56	C	1.966941	1.476954	0.930471
C57	C	1.440996	1.047812	0.358846
C58	C	1.940996	1.547812	0.858846
C59	C	1.564055	1.047633	0.449698
C60	C	2.064055	1.547633	0.949698
C61	C	1.512058	0.976993	0.306399
C62	C	2.012058	1.476993	0.806399
C63	C	1.635161	0.976808	0.397300
C64	C	2.135161	1.476808	0.897300
C65	C	1.609254	1.047634	0.325626
C66	C	2.109254	1.547634	0.825626
C67	C	1.815750	0.512887	0.378037
C68	C	2.315750	1.012887	0.878037
C69	C	1.934055	0.512905	0.378032
C70	C	2.434055	1.012905	0.878032
C71	C	1.538193	0.512768	0.582793
C72	C	2.038193	1.012768	1.082793
C73	C	1.538221	0.512734	0.670043
C74	C	2.038221	1.012734	1.170043
C75	C	1.538233	1.235225	0.378074
C76	C	2.038233	1.735225	0.878074
C77	C	1.538157	1.116920	0.378081
C78	C	2.038157	1.616920	0.878081
C79	C	1.538126	0.512848	0.174101
C80	C	2.038126	1.012848	0.674101
C81	C	1.538305	0.512581	0.086851
C82	C	2.038305	1.012581	0.586851
C83	C	1.606336	0.444663	0.711038
C84	C	2.106336	0.944663	1.211038
C85	C	1.606349	0.444627	0.793018
C86	C	2.106349	0.944627	1.293018
C87	C	1.538251	0.512670	0.834002
C88	C	2.038251	1.012670	1.334002
C89	C	1.470128	0.580744	0.793002
C90	C	1.970128	1.080744	1.293002
C91	C	1.470111	0.580774	0.711023
C92	C	1.970111	1.080774	1.211023
C93	C	1.470171	0.580680	0.963872
C94	C	1.970171	1.080680	1.463872
C95	C	1.470189	0.580653	1.045856
C96	C	1.970189	1.080653	1.545856
C97	C	1.606409	0.444534	1.045867
C98	C	2.106409	0.944534	1.545867
C99	C	1.606392	0.444563	0.963888
C100	C	2.106392	0.944563	1.463888
C101	C	1.538270	0.512640	0.922893
C102	C	2.038270	1.012640	1.422893
H103	H	1.105008	0.333595	0.413815
H104	H	1.605008	0.833595	0.913815
Cl105	Cl	1.384529	0.666262	0.912336
Cl106	Cl	1.884529	1.166262	1.412336
Cl107	Cl	1.384514	0.666280	0.844524
Cl108	Cl	1.884514	1.166280	1.344524
Cl109	Cl	1.478022	0.929290	0.212850
Cl110	Cl	1.978022	1.429290	0.712850
Cl111	Cl	1.373958	0.929033	0.498800
Cl112	Cl	1.873958	1.429033	0.998800
H113	H	1.358924	1.079024	0.342590
H114	H	1.858924	1.579024	0.842590
H115	H	1.661793	0.389258	0.677674
H116	H	2.161793	0.889258	1.177674
H117	H	1.414736	0.636056	1.079223
H118	H	1.914736	1.136056	1.579223
H119	H	1.669436	1.078473	0.281263
H120	H	2.169436	1.578473	0.781263
H121	H	1.414633	0.636194	0.677645
H122	H	1.914633	1.136194	1.177645
H123	H	1.661818	0.389199	0.826393
H124	H	2.161818	0.889199	1.326393
H125	H	1.105090	0.644162	0.474734
H126	H	1.605090	1.144162	0.974734
H127	H	1.717216	0.945599	0.413590
H128	H	2.217216	1.445599	0.913590
H129	H	1.661849	0.389163	0.930521
H130	H	2.161849	0.889163	1.430521
Cl131	Cl	1.597945	1.095546	0.543218
Cl132	Cl	2.097945	1.595546	1.043218
Cl133	Cl	1.692049	0.358954	1.097403
Cl134	Cl	2.192049	0.858954	1.597403
Cl135	Cl	0.955682	0.348572	0.257344
Cl136	Cl	1.455682	0.848572	0.757344
Cl137	Cl	1.122124	0.572536	0.212924
Cl138	Cl	1.622124	1.072536	0.712924
Cl139	Cl	0.955206	0.453210	0.543241
Cl140	Cl	1.455206	0.953210	1.043241
Cl141	Cl	0.955274	0.736692	0.333563
Cl142	Cl	1.455274	1.236692	0.833563
