data_functionalizedCrystal
_audit_creation_method	'MofGen! by Chris Wilmer'
_symmetry_space_group_name_H-M	'P1'
_symmetry_Int_Tables_number	1
_symmetry_cell_setting	triclinic
loop_
_symmetry_equiv_pos_as_xyz
  x,y,z
_cell_length_a	16.109318
_cell_length_b	16.109304
_cell_length_c	7.540329
_cell_angle_alpha	89.999220
_cell_angle_beta	90.000622
_cell_angle_gamma	83.465600
loop_
_atom_site_label
_atom_site_type_symbol
_atom_site_fract_x
_atom_site_fract_y
_atom_site_fract_z
O1	O	1.103122	0.106934	-0.147324
O2	O	0.861062	0.120219	-0.147358
O3	O	0.988741	-0.007454	-0.147341
O4	O	0.975444	0.234607	-0.147341
O5	O	0.988733	-0.007455	0.147624
O6	O	0.861055	0.120217	0.147607
O7	O	1.103115	0.106933	0.147641
Cu8	Cu	0.982084	0.113575	0.174557
Cu9	Cu	0.982093	0.113577	-0.174274
O10	O	0.975436	0.234605	0.147624
C11	C	0.830084	0.119677	0.000120
C12	C	0.737789	0.118056	0.000106
C13	C	0.438720	0.112822	-0.160648
C14	C	0.525441	0.114340	-0.160659
C15	C	0.525452	0.114327	0.160928
C16	C	0.438733	0.112803	0.160937
C17	C	0.395368	0.112055	0.000144
C18	C	0.568809	0.115096	0.000124
C19	C	0.662836	0.116741	0.000113
C20	C	0.301336	0.110408	0.000154
C21	C	0.988198	-0.038430	0.000137
C22	C	0.986582	-0.130725	0.000125
C23	C	0.982852	-0.343062	-0.160654
C24	C	0.981326	-0.429782	-0.160653
C25	C	0.981322	-0.429781	0.160934
C26	C	0.982842	-0.343061	0.160931
C27	C	0.983612	-0.299704	0.000131
C28	C	0.980565	-0.473144	0.000136
C29	C	0.978911	-0.567170	0.000139
C30	C	0.985265	-0.205672	0.000128
C31	C	1.134093	0.107474	0.000160
C32	C	1.226388	0.109095	0.000162
C33	C	0.975979	0.265581	0.000142
C34	C	0.977595	0.357876	0.000142
N35	N	0.982084	0.113573	0.419905
N36	N	0.982100	0.113572	-0.419622
H37	H	0.560734	0.114963	-0.291592
C38	C	0.985165	-0.210122	0.303714
C39	C	0.983675	-0.295395	0.337680
H40	H	0.985671	-0.180696	0.412827
H41	H	1.033866	-0.202266	0.237666
H42	H	0.936958	-0.189572	0.237637
H43	H	1.031886	-0.315947	0.403746
H44	H	0.934969	-0.303256	0.403756
H45	H	0.560769	0.114937	0.291840
C46	C	0.421410	0.040899	0.435045
C47	C	0.391078	0.111960	0.337699
H48	H	0.391994	0.040380	0.544169
H49	H	0.413545	-0.007793	0.368972
H50	H	0.479263	0.041925	0.458037
H51	H	0.333226	0.110931	0.314695
H52	H	0.398937	0.160664	0.403785
C53	C	0.331831	0.182547	-0.347202
C54	C	0.391053	0.111994	-0.337389
H55	H	0.302410	0.182035	-0.456323
H56	H	0.293603	0.181868	-0.251453
H57	H	0.359319	0.231589	-0.340515
H58	H	0.363564	0.062952	-0.344062
H59	H	0.429287	0.112666	-0.433165
C60	C	0.913114	-0.236188	-0.347209
C61	C	0.983673	-0.295405	-0.337409
H62	H	0.913619	-0.206768	-0.456333
H63	H	0.864081	-0.263675	-0.340498
H64	H	0.913800	-0.197952	-0.251455
H65	H	0.982984	-0.333645	-0.433156
H66	H	1.032719	-0.267917	-0.344137
C67	C	0.909440	-0.447111	-0.434766
C68	C	0.980494	-0.477439	-0.337395
H69	H	0.908930	-0.476530	-0.543888
H70	H	0.860744	-0.454976	-0.368709
H71	H	0.910467	-0.389258	-0.457762
H72	H	0.979464	-0.535291	-0.314388
H73	H	1.029203	-0.469582	-0.403467
C74	C	0.908194	-0.517954	0.347496
C75	C	0.980490	-0.477446	0.337675
H76	H	0.907688	-0.547384	0.456607
H77	H	0.860340	-0.477777	0.340828
H78	H	0.907533	-0.556185	0.251726
H79	H	0.981148	-0.439211	0.433439
H80	H	1.028357	-0.517629	0.344361
