data_functionalizedCrystal
_audit_creation_method	'MofGen! by Chris Wilmer'
_symmetry_space_group_name_H-M	'P1'
_symmetry_Int_Tables_number	1
_symmetry_cell_setting	triclinic
loop_
_symmetry_equiv_pos_as_xyz
  x,y,z
_cell_length_a	17.917603
_cell_length_b	14.628931
_cell_length_c	14.628931
_cell_angle_alpha	60.000000
_cell_angle_beta	90.000192
_cell_angle_gamma	57.011537
loop_
_atom_site_label
_atom_site_type_symbol
_atom_site_fract_x
_atom_site_fract_y
_atom_site_fract_z
Zr1	Zr	0.754908	0.916420	-0.077880
O2	O	0.629784	1.121074	-0.230816
O3	O	0.793265	0.721438	-0.030997
O4	O	0.793265	0.912143	-0.221702
O5	O	0.629783	0.930370	0.110321
O6	O	0.922222	0.897767	-0.214514
O7	O	0.629783	0.930369	-0.040110
O8	O	0.922221	0.556631	0.126624
O9	O	0.629784	1.271506	-0.230816
O10	O	0.905863	0.787326	-0.005637
O11	O	0.809623	0.798055	0.101264
O12	O	0.809624	1.022586	-0.123268
O13	O	0.713385	1.033315	-0.016367
Zr14	Zr	0.960579	0.893492	0.173506
Zr15	Zr	0.960579	0.893491	-0.066415
Zr16	Zr	0.754907	0.916421	0.162041
Zr17	Zr	0.754908	1.156342	-0.077880
Zr18	Zr	0.960579	0.653571	0.173507
O19	O	0.922222	1.088474	0.126623
O20	O	0.922222	1.088473	-0.214514
O21	O	0.629783	1.121075	0.110321
O22	O	1.085703	0.688838	0.326442
O23	O	1.085703	0.688837	-0.014695
O24	O	0.793264	0.721439	0.310140
O25	O	1.085704	0.879543	-0.014695
O26	O	0.922222	0.897769	0.317329
O27	O	0.793264	0.912145	0.310140
O28	O	1.085703	0.879543	0.135737
O29	O	0.793265	1.253281	-0.221703
O30	O	0.922221	0.556631	0.317329
O31	O	1.085703	0.538406	0.326442
O32	O	1.085703	0.538406	0.135737
O33	O	0.629784	1.271507	-0.040111
O34	O	0.793265	1.253281	-0.030997
O35	O	0.905863	0.787327	0.218894
O36	O	1.002102	0.776597	0.111993
O37	O	0.905863	1.011857	-0.005637
O38	O	0.809624	1.022586	0.101263
C39	C	0.857743	0.604851	0.047814
C40	C	0.857743	0.502998	0.047814
C41	C	0.905484	0.452266	-0.005216
C42	C	0.905485	0.346996	-0.005217
C43	C	0.600479	0.933636	0.033472
C44	C	0.513166	0.943370	0.028605
C45	C	0.353322	0.961150	0.019716
C46	C	0.362157	0.848768	0.075908
C47	C	0.273215	0.858661	0.070962
C48	C	0.442271	0.951260	0.024660
C49	C	1.115007	0.876276	0.062154
C50	C	1.202320	0.866542	0.067022
C51	C	0.857744	0.904955	-0.252292
C52	C	0.857744	0.904955	-0.354144
C53	C	0.857744	1.205061	0.047813
C54	C	0.857744	1.306914	0.047813
C55	C	0.810003	1.021660	-0.457906
C56	C	0.810002	1.021662	-0.563178
C57	C	0.857743	0.904957	0.347918
C58	C	0.857743	0.904957	0.449771
C59	C	1.115007	0.576171	0.062155
C60	C	1.202320	0.464584	0.067022
C61	C	0.857743	0.604852	0.347918
C62	C	0.857742	0.502999	0.449771
C63	C	1.115007	0.576172	0.362260
C64	C	1.202319	0.464585	0.468980
C65	C	0.600480	1.233741	-0.266633
C66	C	0.513167	1.345327	-0.373353
C67	C	0.600480	1.233741	0.033472
C68	C	0.513167	1.345328	0.028604
C69	C	0.857744	1.205060	-0.252292
C70	C	0.857744	1.306913	-0.354145
C71	C	1.193087	0.417782	0.007896
C72	C	1.275119	0.312948	0.012447
C73	C	1.366383	0.254912	0.076130
C74	C	1.375614	0.301724	0.135258
C75	C	1.293583	0.406562	0.130700
C76	C	1.293567	0.406582	0.463296
C77	C	1.375615	0.301747	0.563562
C78	C	1.366412	0.254911	0.669511
C79	C	1.275155	0.312925	0.675192
C80	C	1.193110	0.417765	0.574927
C81	C	0.421920	1.403342	-0.367670
C82	C	0.339872	1.508207	-0.467936
C83	C	0.349074	1.555048	-0.573885
C84	C	0.440331	1.497027	-0.579565
C85	C	0.522377	1.392171	-0.479300
C86	C	0.522399	1.392140	0.087720
C87	C	0.440367	1.497000	0.083143
C88	C	0.349104	1.555040	0.019456
C89	C	0.339873	1.508223	-0.039667
C90	C	0.421904	1.403372	-0.035096
C91	C	0.905483	0.452268	0.553533
C92	C	0.905484	0.346998	0.658805
H93	H	0.816873	0.468493	0.093217
H94	H	1.449913	0.254522	0.558917
H95	H	1.433227	0.169543	0.751145
C96	C	0.802522	0.456407	0.435031
H97	H	0.772563	0.501893	0.356280
H98	H	0.845909	0.361214	0.472386
H99	H	0.755006	0.477399	0.467314
H100	H	0.265555	1.555495	-0.091520
C101	C	1.303708	0.458086	0.346766
H102	H	1.369808	0.408525	0.357758
H103	H	1.273800	0.445732	0.305326
H104	H	1.273790	0.551778	0.305333
C105	C	1.476004	0.237859	0.205327
H106	H	1.469764	0.280742	0.239893
H107	H	1.510077	0.143709	0.262667
H108	H	1.510102	0.249742	0.156645
C109	C	0.252876	1.101157	-0.050292
H110	H	0.259025	1.170374	-0.084896
H111	H	0.218818	1.109736	-0.107599
H112	H	0.218818	1.109742	-0.001558
H113	H	0.447902	1.535100	0.131294
C114	C	0.258822	1.670381	-0.684170
H115	H	0.277364	1.689982	-0.748089
H116	H	0.221709	1.643146	-0.686233
H117	H	0.221717	1.749183	-0.686230
H118	H	0.946361	0.486760	-0.050612
H119	H	0.265575	1.555430	-0.463288
C120	C	0.462607	0.708751	0.145908
H121	H	0.456453	0.639540	0.180517
H122	H	0.496664	0.700171	0.097178
H123	H	0.496671	0.700157	0.203229
H124	H	1.267584	0.274848	-0.035703
H125	H	0.816873	0.350511	0.556851
H126	H	0.447813	1.535179	-0.665841
H127	H	0.769135	1.121572	-0.468805
H128	H	0.282317	1.640416	0.015744
C129	C	0.960702	0.498865	0.568268
H130	H	0.953464	0.563498	0.495581
H131	H	0.935911	0.539006	0.606621
H132	H	1.026811	0.422829	0.611683
C133	C	1.092708	0.481610	-0.062167
H134	H	1.098972	0.438720	-0.096734
H135	H	1.058610	0.469726	-0.013494
H136	H	1.058621	0.575767	-0.119525
H137	H	0.414373	1.365262	-0.083233
H138	H	1.433170	0.169546	0.079833
C139	C	1.303745	0.458037	0.195743
H140	H	1.241825	0.528796	0.183908
H141	H	1.337841	0.385524	0.274737
H142	H	1.337833	0.491574	0.168689
C143	C	0.622744	1.328349	-0.485566
H144	H	0.616465	1.371261	-0.563028
H145	H	0.656856	1.340214	-0.448772
H146	H	0.656825	1.234197	-0.448784
C147	C	1.265045	0.261384	0.791739
H148	H	1.326982	0.190627	0.850630
H149	H	1.230959	0.333867	0.798258
H150	H	1.230970	0.227826	0.798238
C151	C	0.960699	0.288099	0.779043
H152	H	0.953450	0.225081	0.834023
H153	H	1.026803	0.243354	0.791184
H154	H	0.935892	0.359534	0.786109
H155	H	0.414408	1.365212	-0.281411
C156	C	0.960709	0.288085	-0.066545
H157	H	0.953473	0.225051	-0.058491
H158	H	0.935920	0.359503	-0.145040
H159	H	1.026817	0.243329	-0.033919
C160	C	0.802520	0.365810	0.109149
H161	H	0.772563	0.327014	0.142412
H162	H	0.845907	0.345297	0.166988
H163	H	0.755004	0.461468	0.055875
H164	H	0.898613	0.805038	-0.461224
C165	C	0.754780	1.156648	-0.683414
H166	H	0.724822	1.229866	-0.677881
H167	H	0.798166	1.156620	-0.720740
H168	H	0.707264	1.166747	-0.725797
C169	C	0.912956	0.769972	-0.339404
H170	H	0.942912	0.696752	-0.260653
H171	H	0.869562	0.770012	-0.376760
H172	H	0.960473	0.759865	-0.371687
C173	C	1.092742	0.481543	0.581193
H174	H	1.099022	0.438617	0.658655
H175	H	1.058632	0.575698	0.544400
H176	H	1.058659	0.469632	0.544409
H177	H	0.596704	1.344892	0.139589
