data_functionalizedCrystal
_audit_creation_method	'MofGen! by Chris Wilmer'
_symmetry_space_group_name_H-M	'P1'
_symmetry_Int_Tables_number	1
_symmetry_cell_setting	triclinic
loop_
_symmetry_equiv_pos_as_xyz
  x,y,z
_cell_length_a	12.759401
_cell_length_b	12.759400
_cell_length_c	19.077569
_cell_angle_alpha	87.678929
_cell_angle_beta	92.311676
_cell_angle_gamma	89.986272
loop_
_atom_site_label
_atom_site_type_symbol
_atom_site_fract_x
_atom_site_fract_y
_atom_site_fract_z
Zn1	Zn	1.630066	0.394457	0.397916
Zn2	Zn	1.622918	0.577208	0.280226
Zn3	Zn	1.447327	0.401540	0.280239
Zn4	Zn	1.454356	0.570094	0.397891
O5	O	1.538667	0.485825	0.339068
O6	O	1.776140	0.418713	0.382310
O7	O	1.593693	0.559846	0.181737
O8	O	1.471617	0.253578	0.295866
O9	O	1.770888	0.552979	0.295844
O10	O	1.605876	0.248375	0.382323
O11	O	1.464686	0.430784	0.181746
O12	O	1.301238	0.423885	0.295840
O13	O	1.483597	0.540854	0.496385
O14	O	1.306402	0.547721	0.382278
O15	O	1.612691	0.411815	0.496404
O16	O	1.600508	0.723286	0.295819
O17	O	1.476666	0.718059	0.382266
C18	C	1.265699	0.485800	0.339058
C19	C	1.148923	0.485814	0.339071
C20	C	1.096793	0.416025	0.384164
C21	C	0.987069	0.416045	0.384168
C22	C	0.981615	0.555653	0.293985
C23	C	1.091337	0.555627	0.293978
C24	C	1.099941	0.335426	0.436232
C25	C	0.990217	0.335446	0.436237
C26	C	1.538604	0.758793	0.339054
C27	C	1.538674	0.875568	0.339071
C28	C	1.538760	0.211789	0.339098
C29	C	1.538799	0.095012	0.339111
C30	C	1.812701	0.485849	0.339078
C31	C	1.929478	0.485860	0.339083
C32	C	1.549726	0.474751	0.522646
C33	C	1.554438	0.470032	0.600877
C34	C	1.603236	0.933114	0.294107
C35	C	1.603302	1.042837	0.294129
C36	C	1.474235	1.037458	0.384080
C37	C	1.474175	0.927737	0.384061
C38	C	1.677749	0.936220	0.242173
C39	C	1.677815	1.045943	0.242195
C40	C	1.527712	0.496780	0.156204
C41	C	1.523203	0.501203	0.077974
C42	C	1.489441	0.534993	0.637620
C43	C	1.493878	0.530559	0.711126
C44	C	1.563307	0.461157	0.747886
C45	C	1.628311	0.396193	0.711137
C46	C	1.623879	0.400633	0.637633
C47	C	1.583774	0.440679	0.967721
C48	C	1.588199	0.436241	1.041230
C49	C	1.453767	0.570609	1.041214
C50	C	1.449337	0.575039	0.967709
C51	C	1.514345	0.510078	0.930966
N52	N	1.567841	0.456621	0.823021
N53	N	1.509815	0.514621	0.855833
H54	H	1.137102	0.361567	0.487975
Br55	Br	0.931529	0.208505	0.403853
Br56	Br	1.712100	0.312475	0.587765
H57	H	1.400842	0.623496	1.071138
H58	H	1.128839	0.254890	0.421726
H59	H	1.756290	1.078720	0.261764
Br60	Br	1.636153	1.101154	0.151332
H61	H	0.963732	0.354086	0.490725
H62	H	0.934715	0.612492	0.257272
H63	H	1.421613	0.880884	0.420680
Br64	Br	1.386708	1.108266	0.445137
H65	H	1.644733	0.379716	1.071159
H66	H	1.759968	0.905490	0.256812
H67	H	1.636709	0.387784	0.937814
H68	H	1.645524	0.905368	0.190371
Br69	Br	1.395204	0.629179	0.587739
H70	H	1.440952	0.583459	0.741040
H71	H	1.392817	0.631570	0.937783
Br72	Br	1.722546	0.302012	0.761025
H73	H	1.133776	0.612447	0.257252
