data_functionalizedCrystal
_audit_creation_method	'MofGen! by Chris Wilmer'
_symmetry_space_group_name_H-M	'P1'
_symmetry_Int_Tables_number	1
_symmetry_cell_setting	triclinic
loop_
_symmetry_equiv_pos_as_xyz
  x,y,z
_cell_length_a	19.805407
_cell_length_b	13.897448
_cell_length_c	13.897441
_cell_angle_alpha	89.969401
_cell_angle_beta	89.977165
_cell_angle_gamma	90.017692
loop_
_atom_site_label
_atom_site_type_symbol
_atom_site_fract_x
_atom_site_fract_y
_atom_site_fract_z
Zn1	Zn	1.034798	-0.383984	-0.545435
Zn2	Zn	1.534798	0.116016	-0.045435
Zn3	Zn	1.034724	-0.545306	-0.384137
Zn4	Zn	1.534724	-0.045306	0.115863
Zn5	Zn	0.921607	-0.384026	-0.384148
Zn6	Zn	1.421607	0.115974	0.115852
Zn7	Zn	0.921594	-0.545239	-0.545383
Zn8	Zn	1.421594	-0.045239	-0.045383
O9	O	0.978181	-0.464639	-0.464776
O10	O	1.478181	0.035361	0.035224
O11	O	1.129505	-0.405394	-0.524056
O12	O	1.629505	0.094606	-0.024056
O13	O	1.019693	-0.523957	-0.249156
O14	O	1.519693	-0.023957	0.250844
O15	O	0.936658	-0.249039	-0.405569
O16	O	1.436658	0.250961	0.094431
O17	O	1.129451	-0.523916	-0.405550
O18	O	1.629451	-0.023916	0.094450
O19	O	1.019820	-0.249008	-0.524066
O20	O	1.519820	0.250992	-0.024066
O21	O	0.936586	-0.405466	-0.249165
O22	O	1.436586	0.094534	0.250835
O23	O	0.826888	-0.405401	-0.405519
O24	O	1.326888	0.094599	0.094481
O25	O	0.936636	-0.523802	-0.680372
O26	O	1.436636	-0.023802	-0.180372
O27	O	0.826879	-0.523843	-0.523978
O28	O	1.326879	-0.023843	-0.023978
O29	O	1.019807	-0.405329	-0.680410
O30	O	1.519807	0.094671	-0.180410
O31	O	1.019681	-0.680279	-0.405500
O32	O	1.519681	-0.180279	0.094500
O33	O	0.936564	-0.680229	-0.523967
O34	O	1.436564	-0.180229	-0.023967
C35	C	0.802325	-0.464620	-0.464745
C36	C	1.302325	0.035380	0.035255
C37	C	0.727093	-0.464636	-0.464754
C38	C	1.227093	0.035364	0.035246
C39	C	0.691761	-0.526401	-0.526336
C40	C	1.191761	-0.026401	-0.026336
C41	C	0.621073	-0.526403	-0.526350
C42	C	1.121073	-0.026403	-0.026350
C43	C	0.585717	-0.464643	-0.464776
C44	C	1.085717	0.035357	0.035224
C45	C	0.621053	-0.402871	-0.403191
C46	C	1.121053	0.097129	0.096809
C47	C	0.691741	-0.402865	-0.403183
C48	C	1.191741	0.097135	0.096817
C49	C	0.335980	-0.402892	-0.403223
C50	C	0.835980	0.097108	0.096777
C51	C	0.265288	-0.402905	-0.403234
C52	C	0.765288	0.097095	0.096766
C53	C	0.265313	-0.526430	-0.526389
C54	C	0.765313	-0.026430	-0.026389
C55	C	0.336000	-0.526424	-0.526381
C56	C	0.836000	-0.026424	-0.026381
C57	C	0.371330	-0.464649	-0.464801
C58	C	0.871330	0.035351	0.035199
C59	C	0.447978	-0.464646	-0.464788
C60	C	0.947978	0.035354	0.035212
C61	C	0.509070	-0.464650	-0.464783
C62	C	1.009070	0.035350	0.035217
C63	C	0.978131	-0.715253	-0.464748
C64	C	1.478131	-0.215253	0.035252
C65	C	0.978172	-0.822467	-0.464768
C66	C	1.478172	-0.322467	0.035232
C67	C	0.978243	-1.018762	-0.464829
C68	C	1.478243	-0.518762	0.035171
C69	C	0.978202	-0.909530	-0.464798
C70	C	1.478202	-0.409530	0.035202
C71	C	1.154723	-0.464658	-0.464808
C72	C	1.654723	0.035342	0.035192
C73	C	1.229955	-0.464666	-0.464821
C74	C	1.729955	0.035334	0.035179
C75	C	0.978229	-0.464554	-0.716369
C76	C	1.478229	0.035446	-0.216369
C77	C	0.978249	-0.464517	-0.823583
C78	C	1.478249	0.035483	-0.323583
C79	C	0.978249	-0.213046	-0.464825
C80	C	1.478249	0.286954	0.035175
C81	C	0.978278	-0.105832	-0.464846
C82	C	1.478278	0.394168	0.035154
C83	C	0.978268	-0.464452	-1.019878
C84	C	1.478268	0.035548	-0.519878
C85	C	0.978255	-0.464491	-0.910646
C86	C	1.478255	0.035509	-0.410646
C87	C	0.978172	-0.464654	-0.214161
C88	C	1.478172	0.035346	0.285839
C89	C	0.978283	-0.464419	-0.106948
C90	C	1.478283	0.035581	0.393052
H91	H	0.236503	-0.352606	-0.353093
H92	H	0.736503	0.147394	0.146907
O93	O	0.586679	-0.343012	-0.343279
O94	O	1.086679	0.156988	0.156721
C95	C	0.545747	-0.397852	-0.280902
C96	C	1.045747	0.102148	0.219098
H97	H	0.567035	-0.473813	-0.274801
H98	H	1.067035	0.026187	0.225199
H99	H	0.492184	-0.401220	-0.310728
H100	H	0.992184	0.098780	0.189272
C101	C	0.518486	-0.257303	-0.188205
C102	C	1.018486	0.242697	0.311795
C103	C	0.544635	-0.350597	-0.180706
C104	C	1.044635	0.149403	0.319294
H105	H	0.517797	-0.228152	-0.126401
H106	H	1.017797	0.271848	0.373599
H107	H	0.546060	-0.220354	-0.230232
H108	H	1.046060	0.279646	0.269768
H109	H	0.473853	-0.260122	-0.213064
H110	H	0.973853	0.239878	0.286936
H111	H	0.589270	-0.347776	-0.155859
H112	H	1.089270	0.152224	0.344141
H113	H	0.517068	-0.387544	-0.138673
H114	H	1.017068	0.112456	0.361327
H115	H	0.236538	-0.576727	-0.576535
H116	H	0.736538	-0.076727	-0.076535
O117	O	0.370375	-0.586517	-0.586058
O118	O	0.870375	-0.086517	-0.086058
C119	C	0.411249	-0.648732	-0.531034
C120	C	0.911249	-0.148732	-0.031034
H121	H	0.389920	-0.654608	-0.455056
H122	H	0.889920	-0.154608	0.044944
H123	H	0.464824	-0.618895	-0.527754
H124	H	0.964824	-0.118895	-0.027754
C125	C	0.438534	-0.741843	-0.671309
C126	C	0.938534	-0.241843	-0.171309
C127	C	0.412335	-0.749067	-0.577993
C128	C	0.912335	-0.249067	-0.077993
H129	H	0.439207	-0.803733	-0.700277
H130	H	0.939207	-0.303733	-0.200277
H131	H	0.410999	-0.699926	-0.708381
H132	H	0.910999	-0.199926	-0.208381
H133	H	0.483178	-0.716975	-0.668563
H134	H	0.983178	-0.216975	-0.168563
H135	H	0.367689	-0.773923	-0.580741
H136	H	0.867689	-0.273923	-0.080741
H137	H	0.439863	-0.790991	-0.540922
H138	H	0.939863	-0.290991	-0.040922
H139	H	0.720543	-0.576697	-0.576473
H140	H	1.220543	-0.076697	-0.076473
H141	H	0.364737	-0.352598	-0.353073
H142	H	0.864737	0.147402	0.146927
H143	H	0.720507	-0.352564	-0.353042
H144	H	1.220507	0.147436	0.146958
H145	H	0.592309	-0.576700	-0.576495
H146	H	1.092309	-0.076700	-0.076495
