data_functionalizedCrystal
_audit_creation_method	'MofGen! by Chris Wilmer'
_symmetry_space_group_name_H-M	'P1'
_symmetry_Int_Tables_number	1
_symmetry_cell_setting	triclinic
loop_
_symmetry_equiv_pos_as_xyz
  x,y,z
_cell_length_a	13.032831
_cell_length_b	12.759400
_cell_length_c	13.032268
_cell_angle_alpha	97.150187
_cell_angle_beta	90.886977
_cell_angle_gamma	82.819639
loop_
_atom_site_label
_atom_site_type_symbol
_atom_site_fract_x
_atom_site_fract_y
_atom_site_fract_z
Zn1	Zn	1.498516	-0.709532	-0.780845
Zn2	Zn	1.520267	-0.866067	-0.608867
Zn3	Zn	1.348373	-0.665643	-0.587085
Zn4	Zn	1.326515	-0.860387	-0.758992
O5	O	1.423418	-0.775407	-0.683947
O6	O	1.645323	-0.751042	-0.776293
O7	O	1.515715	-0.823490	-0.462060
O8	O	1.368334	-0.524453	-0.612817
O9	O	1.661303	-0.866048	-0.649941
O10	O	1.478644	-0.556699	-0.755172
O11	O	1.389425	-0.676239	-0.446057
O12	O	1.201551	-0.670731	-0.591628
O13	O	1.331081	-0.856366	-0.905808
O14	O	1.185493	-0.813808	-0.717927
O15	O	1.457450	-0.745534	-0.921863
O16	O	1.494520	-1.012325	-0.628751
O17	O	1.352172	-1.008152	-0.739048
C18	C	1.156205	-0.736891	-0.650043
C19	C	1.041887	-0.720442	-0.635563
C20	C	0.983014	-0.783992	-0.691504
C21	C	0.864860	-0.766993	-0.676540
C22	C	1.423359	-1.048363	-0.683918
C23	C	1.423424	-1.165153	-0.683952
C24	C	1.497609	-1.222171	-0.626602
C25	C	1.497668	-1.331908	-0.626642
C26	C	1.349348	-1.327596	-0.741382
C27	C	1.349295	-1.217863	-0.741348
C28	C	1.571738	-1.169461	-0.569206
C29	C	1.645929	-1.226480	-0.511852
C30	C	1.645988	-1.336216	-0.511891
C31	C	1.571857	-1.388934	-0.569286
C32	C	1.691674	-0.814074	-0.717984
C33	C	1.805989	-0.830552	-0.732489
C34	C	1.389401	-0.805212	-0.952195
C35	C	1.374905	-0.817913	-1.066506
C36	C	1.423501	-0.501392	-0.684002
C37	C	1.423537	-0.384623	-0.684026
C38	C	1.430967	-0.768738	-1.125413
C39	C	1.415986	-0.781864	-1.243560
C40	C	1.457361	-0.745651	-0.416751
C41	C	1.472056	-0.732683	-0.302465
H42	H	1.004816	-0.653445	-0.576595
O43	O	1.345349	-0.843551	-1.287665
C44	C	1.246149	-0.802950	-1.248470
H45	H	1.244704	-0.715011	-1.218226
H46	H	1.186437	-0.812473	-1.312720
H47	H	1.227087	-0.848534	-1.182774
O48	O	0.850091	-0.910605	-0.802784
C49	C	0.826795	-1.009027	-0.776824
H50	H	0.753769	-0.995604	-0.727472
H51	H	0.813838	-1.063985	-0.850522
H52	H	0.893937	-1.047078	-0.731489
H53	H	1.490051	-0.716916	-1.088378
O54	O	1.571858	-1.062877	-0.569091
C55	C	1.653174	-1.028572	-0.506115
H56	H	1.715129	-1.098826	-0.499403
H57	H	1.688199	-0.964180	-0.542098
H58	H	1.621949	-0.994969	-0.425920
O59	O	1.277383	-1.378958	-0.797032
C60	C	1.293354	-1.488043	-0.784784
H61	H	1.337171	-1.499080	-0.709730
H62	H	1.215455	-1.519476	-0.781933
H63	H	1.340347	-1.533781	-0.852782
O64	O	1.304477	-0.879876	-1.110569
C65	C	1.330235	-0.984940	-1.087246
H66	H	1.379594	-0.984209	-1.014237
H67	H	1.256445	-1.020957	-1.074251
H68	H	1.375492	-1.034611	-1.154389
H69	H	1.706289	-1.183553	-0.465129
H70	H	1.706403	-1.382640	-0.465198
O71	O	1.572036	-1.495530	-0.569182
C72	C	1.653432	-1.534563	-0.506284
H73	H	1.675467	-1.466749	-0.448017
H74	H	1.627421	-1.599218	-0.463328
H75	H	1.723223	-1.569284	-0.556643
O76	O	1.542415	-0.670755	-1.258177
C77	C	1.491685	-0.587590	-1.188652
H78	H	1.415755	-0.611659	-1.162758
H79	H	1.543094	-0.571184	-1.118387
H80	H	1.475184	-0.512680	-1.228589
O81	O	1.277270	-1.162603	-0.797207
C82	C	1.286704	-1.203955	-0.902579
H83	H	1.325991	-1.289536	-0.909781
H84	H	1.206607	-1.202156	-0.939224
H85	H	1.335140	-1.153613	-0.943939
O86	O	1.027335	-0.863793	-0.761924
C87	C	1.081043	-0.820351	-0.836281
H88	H	1.101612	-0.738941	-0.802154
H89	H	1.154896	-0.875485	-0.859494
H90	H	1.030052	-0.811499	-0.907319
H91	H	0.827794	-0.699991	-0.617568
