data_functionalizedCrystal
_audit_creation_method	'MofGen! by Chris Wilmer'
_symmetry_space_group_name_H-M	'P1'
_symmetry_Int_Tables_number	1
_symmetry_cell_setting	triclinic
loop_
_symmetry_equiv_pos_as_xyz
  x,y,z
_cell_length_a	8.559649
_cell_length_b	11.026607
_cell_length_c	7.088929
_cell_angle_alpha	82.408099
_cell_angle_beta	95.325015
_cell_angle_gamma	89.182341
loop_
_atom_site_label
_atom_site_type_symbol
_atom_site_fract_x
_atom_site_fract_y
_atom_site_fract_z
O1	O	2.096118	-0.026458	-0.158957
O2	O	2.596118	0.473542	0.341043
O3	O	1.648469	0.034577	-0.158966
O4	O	2.148469	0.534577	0.341034
O5	O	1.835194	-0.169136	-0.158955
O6	O	2.335194	0.330864	0.341045
O7	O	1.909394	0.177256	-0.158968
O8	O	2.409394	0.677256	0.341032
O9	O	1.860132	-0.196415	0.159021
O10	O	2.360132	0.303585	0.659021
O11	O	1.673407	0.007298	0.159011
O12	O	2.173407	0.507298	0.659011
O13	O	2.121056	-0.053737	0.159019
O14	O	2.621056	0.446263	0.659019
Cu15	Cu	1.899509	-0.025710	0.188049
Cu16	Cu	2.399509	0.474290	0.688049
Cu17	Cu	1.870017	0.006551	-0.187995
Cu18	Cu	2.370017	0.506551	0.312005
O19	O	1.934332	0.149977	0.159009
O20	O	2.434332	0.649977	0.659009
C21	C	1.602739	0.025563	0.000021
C22	C	2.102739	0.525563	0.500021
C23	C	1.429319	0.039332	0.000018
C24	C	1.929319	0.539332	0.500018
C25	C	1.833974	-0.226711	0.000030
C26	C	2.333974	0.273289	0.500030
C27	C	1.793166	-0.357621	0.000023
C28	C	2.293166	0.142379	0.500023
C29	C	1.905841	-0.441927	0.000022
C30	C	2.405841	0.058073	0.500022
C31	C	1.863667	-0.577231	0.000014
C32	C	2.363667	-0.077231	0.500014
C33	C	2.166786	-0.044723	0.000028
C34	C	2.666786	0.455277	0.500028
C35	C	2.340205	-0.058490	0.000019
C36	C	2.840205	0.441510	0.500019
C37	C	1.935551	0.207551	0.000019
C38	C	2.435551	0.707551	0.500019
C39	C	1.976358	0.338463	0.000014
C40	C	2.476358	0.838463	0.500014
N41	N	1.920263	-0.048402	0.452538
N42	N	2.420263	0.451598	0.952538
N43	N	1.849272	0.029232	-0.452485
N44	N	2.349272	0.529232	0.047515
H45	H	1.396583	-0.152772	0.000013
H46	H	1.896583	0.347228	0.500013
H47	H	1.372932	0.133621	0.000004
H48	H	1.872932	0.633621	0.500004
F49	F	1.753101	0.134392	0.440794
F50	F	2.253101	0.634392	0.940794
H51	H	2.033528	-0.413937	0.000036
H52	H	2.533528	0.086063	0.500036
H53	H	1.735971	-0.605215	-0.000001
H54	H	2.235971	-0.105215	0.499999
F55	F	2.143267	-0.624966	0.000008
F56	F	2.643267	-0.124966	0.500008
F57	F	1.626265	-0.394199	0.000002
F58	F	2.126265	0.105801	0.500002
H59	H	1.993858	-0.128853	0.534198
H60	H	2.493858	0.371147	1.034198
