data_functionalizedCrystal
_audit_creation_method	'MofGen! by Chris Wilmer'
_symmetry_space_group_name_H-M	'P1'
_symmetry_Int_Tables_number	1
_symmetry_cell_setting	triclinic
loop_
_symmetry_equiv_pos_as_xyz
  x,y,z
_cell_length_a	27.440280
_cell_length_b	19.902436
_cell_length_c	27.440280
_cell_angle_alpha	59.996489
_cell_angle_beta	60.004534
_cell_angle_gamma	90.007174
loop_
_atom_site_label
_atom_site_type_symbol
_atom_site_fract_x
_atom_site_fract_y
_atom_site_fract_z
Zr1	Zr	0.469563	-0.088090	0.533342
O2	O	0.391748	-0.195394	0.635022
O3	O	0.493408	-0.055197	0.431675
O4	O	0.493409	-0.195379	0.533349
O5	O	0.391756	0.055366	0.533339
O6	O	0.573612	-0.195365	0.533339
O7	O	0.391746	-0.055213	0.533349
O8	O	0.573610	0.055394	0.351464
O9	O	0.391758	-0.195393	0.715215
O10	O	0.563443	-0.041157	0.473481
O11	O	0.503596	0.041357	0.473480
O12	O	0.503597	-0.123689	0.593188
O13	O	0.443750	-0.041176	0.593188
Zr14	Zr	0.597492	0.088292	0.533312
Zr15	Zr	0.597477	-0.088068	0.533327
Zr16	Zr	0.469578	0.088270	0.533327
Zr17	Zr	0.469579	-0.088088	0.661240
Zr18	Zr	0.597475	0.088290	0.405414
O19	O	0.573647	0.055399	0.634979
O20	O	0.573625	-0.195363	0.635001
O21	O	0.391769	0.055367	0.635001
O22	O	0.675307	0.195596	0.431632
O23	O	0.675286	-0.055166	0.431654
O24	O	0.493429	0.195565	0.431654
O25	O	0.675299	-0.055164	0.533315
O26	O	0.573645	0.195580	0.533306
O27	O	0.493443	0.195566	0.533315
O28	O	0.675308	0.055415	0.533306
O29	O	0.493433	-0.195376	0.715203
O30	O	0.573622	0.195577	0.351452
O31	O	0.675297	0.195595	0.351440
O32	O	0.675285	0.055412	0.351452
O33	O	0.391770	-0.055210	0.715203
O34	O	0.493445	-0.055193	0.715191
O35	O	0.563457	0.123891	0.473466
O36	O	0.623305	0.041377	0.473466
O37	O	0.563459	-0.041155	0.593174
O38	O	0.503611	0.041358	0.593174
C39	C	0.373526	0.000073	0.533346
C40	C	0.319223	0.000064	0.533352
C41	C	0.533507	0.000098	0.373347
C42	C	0.533500	0.000097	0.319051
C43	C	0.533546	0.220701	0.533308
C44	C	0.533552	0.295570	0.533302
C45	C	0.013765	0.043204	0.470830
C46	C	-0.037254	0.043212	0.470826
O47	O	-0.037074	0.079875	0.417684
N48	N	-0.094010	0.000130	0.533311
C49	C	-0.099746	-0.042955	0.595805
O50	O	-0.152706	-0.079598	0.648953
C51	C	-0.048728	-0.042957	0.595808
C52	C	0.008027	0.000121	0.533318
C53	C	0.070517	0.086279	0.408345
C54	C	0.121532	0.086271	0.408349
C55	C	0.115794	0.043187	0.470838
C56	C	0.059042	0.000112	0.533322
C57	C	-0.054466	-0.086037	0.658300
C58	C	-0.003441	-0.086034	0.658298
C59	C	0.053314	-0.042957	0.595808
C60	C	0.104319	-0.042980	0.595815
N61	N	0.161074	0.000101	0.533329
C62	C	0.166812	0.043185	0.470841
C63	C	-0.206885	-0.042946	0.595793
C64	C	-0.257902	-0.042950	0.595791
C65	C	-0.195406	0.043218	0.470812
C66	C	-0.144388	0.043216	0.470815
C67	C	-0.150129	0.000135	0.533308
C68	C	0.273944	0.043163	0.470854
C69	C	0.324961	0.043147	0.470864
C70	C	0.262461	-0.043017	0.595842
C71	C	0.211449	-0.043005	0.595833
C72	C	0.217194	0.000091	0.533334
O73	O	0.104185	-0.079623	0.648930
O74	O	0.219774	0.079831	0.417702
C75	C	0.693528	0.000128	0.533308
C76	C	0.747831	0.000138	0.533302
C77	C	0.533509	-0.220499	0.533346
C78	C	0.533502	-0.295369	0.533352
C79	C	0.533519	0.567572	0.533336
C80	C	0.571091	0.591145	0.457822
C81	C	0.571303	0.513307	0.457775
C82	C	0.533536	0.432629	0.533319
C83	C	0.561073	0.435052	0.570815
C84	C	0.561348	0.513279	0.570332
C85	C	0.468394	0.512265	0.571894
C86	C	0.468497	0.435343	0.570475
C87	C	0.533545	0.356363	0.533313
C88	C	0.533512	0.643838	0.533344
C89	C	0.564784	-0.042963	-0.017691
C90	C	0.564789	-0.042961	-0.068715
O91	O	0.591375	-0.079566	-0.095121
N92	N	0.533549	0.000109	-0.094231
C93	C	0.502306	0.043185	-0.068726
O94	O	0.475735	0.079820	-0.095115
C95	C	0.502304	0.043188	-0.017706
C96	C	0.533542	0.000108	0.007812
C97	C	0.596019	-0.086038	0.007827
C98	C	0.596013	-0.086041	0.058848
C99	C	0.564771	-0.042970	0.084351
C100	C	0.533535	0.000105	0.058833
C101	C	0.471066	0.086269	0.007795
C102	C	0.471067	0.086268	0.058817
C103	C	0.502304	0.043188	0.084336
C104	C	0.502287	0.043173	0.135358
N105	N	0.533527	0.000104	0.160874
C106	C	0.564769	-0.042968	0.135371
C107	C	0.502313	0.043179	-0.175871
C108	C	0.502310	0.043173	-0.226886
C109	C	0.564794	-0.042973	-0.226873
C110	C	0.564793	-0.042971	-0.175853
C111	C	0.533553	0.000110	-0.150355
C112	C	0.564753	-0.042972	0.242520
C113	C	0.564741	-0.042974	0.293547
C114	C	0.502260	0.043174	0.293527
C115	C	0.502269	0.043173	0.242506
C116	C	0.533519	0.000099	0.217002
O117	O	0.475716	0.079763	0.161795
O118	O	0.591342	-0.079587	0.161760
C119	C	0.533548	0.000103	0.693308
C120	C	0.533555	0.000104	0.747604
C121	C	0.693508	0.000126	0.373328
C122	C	0.747804	0.000134	0.319026
C123	C	0.533525	0.220698	0.373328
C124	C	0.533525	0.295567	0.319026
C125	C	0.693527	0.220726	0.373309
C126	C	0.747829	0.295604	0.319000
C127	C	0.373528	-0.220524	0.693345
C128	C	0.319226	-0.295402	0.747654
C129	C	0.373547	0.000076	0.693326
C130	C	0.319251	0.000067	0.747629
C131	C	0.533529	-0.220497	0.693327
C132	C	0.533530	-0.295365	0.747629
C133	C	0.742055	-0.042951	0.293532
C134	C	0.793066	-0.042959	0.242516
C135	C	0.849827	0.000123	0.216992
C136	C	0.855575	0.043209	0.242490
C137	C	0.804564	0.043212	0.293509
C138	C	0.564772	0.373815	0.293517
C139	C	0.564769	0.444169	0.242502
C140	C	0.533522	0.436273	0.216992
C141	C	0.502272	0.358016	0.242505
C142	C	0.502271	0.287664	0.293523
C143	C	0.804575	0.287696	0.293497
C144	C	0.855603	0.358046	0.242475
C145	C	0.849883	0.436302	0.216955
C146	C	0.793131	0.444208	0.242463
C147	C	0.742105	0.373859	0.293488
C148	C	0.262480	-0.287495	0.773164
C149	C	0.211452	-0.357844	0.824202
C150	C	0.217172	-0.436100	0.849725
C151	C	0.273924	-0.444006	0.824212
C152	C	0.324950	-0.373658	0.773179
C153	C	0.325000	0.043145	0.773128
C154	C	0.273988	0.043134	0.824157
C155	C	0.217228	0.000050	0.849684
C156	C	0.211480	-0.043034	0.824183
C157	C	0.262491	-0.043027	0.773157
C158	C	0.564782	-0.287443	0.773123
C159	C	0.564795	-0.357783	0.824139
C160	C	0.533550	-0.436045	0.849663
C161	C	0.502297	-0.443966	0.824165
C162	C	0.502288	-0.373627	0.773146
H163	H	0.278632	0.078256	0.419961
H164	H	0.165259	-0.078112	0.844974
H165	H	0.590216	0.380261	0.314282
C166	C	0.939994	0.513602	0.185529
C167	C	0.905979	0.513622	0.160864
H168	H	0.974628	0.561331	0.150898
H169	H	0.916920	0.513612	0.225322
H170	H	0.951511	0.465854	0.197083
H171	H	0.894458	0.561367	0.149315
H172	H	0.929057	0.513620	0.121059
C173	C	0.531093	0.586093	0.394110
C174	C	0.546361	0.514869	0.418070
H175	H	0.515695	0.587060	0.369596
H176	H	0.501681	0.586304	0.432126
H177	H	0.565553	0.633220	0.364348
H178	H	0.511900	0.467742	0.447837
H179	H	0.575775	0.514651	0.380049
H180	H	0.476832	0.351599	0.221727
C181	C	0.474856	0.513608	0.185569
C182	C	0.533529	0.513611	0.160909
H183	H	0.474865	0.561359	0.150945
H184	H	0.451779	0.465885	0.197101
H185	H	0.458137	0.513592	0.225380
H186	H	0.550247	0.513621	0.121101
H187	H	0.556615	0.561347	0.149367
C188	C	0.675039	0.605741	0.396296
C189	C	0.635557	0.645032	0.417996
H190	H	0.714837	0.639012	0.371706
H191	H	0.666169	0.554049	0.435331
H192	H	0.670892	0.597527	0.367124
H193	H	0.639701	0.653240	0.447172
H194	H	0.644430	0.696739	0.378955
C195	C	0.440512	0.209591	0.288376
C196	C	0.467930	0.201654	0.321550
H197	H	0.419313	0.156492	0.305675
H198	H	0.413547	0.238808	0.296750
H199	H	0.470082	0.238845	0.240206
H200	H	0.438359	0.172405	0.369720
H201	H	0.494897	0.172423	0.313182
C202	C	0.195571	-0.128179	0.778306
C203	C	0.256165	-0.090371	0.745124
H204	H	0.191664	-0.157404	0.760997
H205	H	0.176980	-0.165363	0.826468
H206	H	0.176977	-0.087407	0.769945
H207	H	0.274758	-0.131144	0.753488
H208	H	0.274764	-0.053184	0.696951
H209	H	0.535748	0.493928	0.625736
C210	C	0.478943	0.307820	0.659275
C211	C	0.525916	0.358349	0.645797
H212	H	0.457242	0.260464	0.705564
H213	H	0.453146	0.337317	0.652549
H214	H	0.494587	0.291398	0.628856
H215	H	0.510272	0.374776	0.676212
H216	H	0.551717	0.328847	0.652529
C217	C	0.871461	0.209615	0.288292
C218	C	0.810873	0.201683	0.321484
H219	H	0.875352	0.156515	0.305556
H220	H	0.890055	0.238913	0.240125
H221	H	0.890065	0.238787	0.296696
H222	H	0.792270	0.172516	0.313076
H223	H	0.792271	0.172372	0.369663
H224	H	0.476866	0.078241	-0.247651
C225	C	0.178164	0.171450	0.284817
C226	C	0.183914	0.133633	0.339658
H227	H	0.216676	0.200697	0.242408
H228	H	0.156962	0.130687	0.287420
H229	H	0.156963	0.208624	0.287425
H230	H	0.205112	0.096454	0.337053
H231	H	0.205126	0.174401	0.337054
H232	H	0.371154	-0.380106	0.752409
H233	H	-0.304111	-0.078039	0.646676
C234	C	0.223429	-0.590098	0.902440
C235	C	0.280204	-0.530030	0.852266
H236	H	0.227307	-0.643205	0.919754
H237	H	0.202248	-0.583923	0.939059
H238	H	0.202233	-0.583908	0.882530
H239	H	0.301400	-0.536216	0.872177
H240	H	0.301395	-0.536207	0.815641
C241	C	0.949236	0.387184	0.143435
C242	C	0.917983	0.349354	0.214441
H243	H	0.987747	0.381823	0.126131
H244	H	0.928037	0.361534	0.135073
H245	H	0.953126	0.443857	0.120944
H246	H	0.914089	0.292680	0.236932
H247	H	0.939187	0.375002	0.222808
H248	H	-0.211568	-0.078032	0.646686
C249	C	-0.245873	0.081496	0.415322
C250	C	-0.189105	0.090589	0.402122
H251	H	-0.241983	0.110744	0.372918
H252	H	-0.267070	0.024828	0.440992
H253	H	-0.267060	0.102762	0.441001
H254	H	-0.167919	0.069317	0.376447
H255	H	-0.167898	0.147269	0.376441
H256	H	0.590244	-0.351317	0.844894
H257	H	0.445629	0.121349	-0.012975
C258	C	0.843625	0.590299	0.164225
C259	C	0.786850	0.530232	0.214400
H260	H	0.839748	0.643407	0.146894
H261	H	0.864815	0.584127	0.184134
H262	H	0.864814	0.584107	0.127612
H263	H	0.765663	0.536420	0.251016
H264	H	0.765652	0.536406	0.194491
H265	H	0.590219	0.507882	0.221735
C266	C	-0.050754	0.150657	0.398305
C267	C	-0.082004	0.090574	0.402127
H268	H	-0.012240	0.179891	0.355900
H269	H	-0.071952	0.187831	0.400898
H270	H	-0.046868	0.124991	0.435522
H271	H	-0.085894	0.116240	0.364913
H272	H	-0.060801	0.053395	0.399527
C273	C	0.685493	0.466106	0.288326
C274	C	0.679729	0.382560	0.321510
H275	H	0.646985	0.471480	0.305622
H276	H	0.706691	0.491746	0.296694
H277	H	0.706703	0.491748	0.240157
H278	H	0.658523	0.356919	0.369679
H279	H	0.658522	0.356910	0.313147
H280	H	0.371213	0.078235	0.752348
C281	C	0.567589	-0.489867	0.922732
C282	C	0.533560	-0.513359	0.905748
H283	H	0.567592	-0.537597	0.957360
H284	H	0.607386	-0.458042	0.882919
H285	H	0.550860	-0.458042	0.939447
H286	H	0.550291	-0.545180	0.889028
H287	H	0.493755	-0.545198	0.945569
H288	H	0.590178	-0.078057	0.314324
C289	C	0.626567	-0.209339	0.778224
C290	C	0.599133	-0.201422	0.745069
H291	H	0.647780	-0.156234	0.760901
H292	H	0.597009	-0.238569	0.826388
H293	H	0.653527	-0.238573	0.769856
H294	H	0.572170	-0.172193	0.753442
H295	H	0.628695	-0.172179	0.696894
H296	H	0.257811	-0.223781	0.752386
C297	C	0.154837	-0.265595	0.819038
C298	C	0.149075	-0.349140	0.852231
H299	H	0.116329	-0.260222	0.836339
H300	H	0.176042	-0.239944	0.827394
H301	H	0.176040	-0.239963	0.770871
H302	H	0.127876	-0.374771	0.900398
H303	H	0.127861	-0.374802	0.843881
H304	H	0.476859	-0.507697	0.844955
H305	H	0.476836	-0.380089	0.752395
H306	H	0.590229	-0.078049	-0.155079
H307	H	0.175618	-0.493375	0.891279
C308	C	0.340910	0.128332	0.818980
C309	C	0.280316	0.090505	0.852174
H310	H	0.344816	0.157580	0.836272
H311	H	0.359509	0.087574	0.827343
H312	H	0.359497	0.165506	0.770812
H313	H	0.261730	0.053326	0.900342
H314	H	0.261709	0.131267	0.843816
H315	H	0.695842	-0.078044	0.314314
H316	H	0.075199	0.121368	0.357457
C317	C	-0.148074	-0.078553	0.730793
C318	C	-0.116845	-0.133381	0.726989
H319	H	-0.186587	-0.107785	0.773200
H320	H	-0.126861	-0.037796	0.728186
H321	H	-0.151961	-0.052906	0.693577
H322	H	-0.112954	-0.159025	0.764202
H323	H	-0.138064	-0.174153	0.729603
C324	C	0.726145	-0.128111	0.247661
C325	C	0.786739	-0.090314	0.214488
H326	H	0.722239	-0.157340	0.230354
H327	H	0.707546	-0.165290	0.295825
H328	H	0.707557	-0.087332	0.239290
H329	H	0.805325	-0.131093	0.222864
H330	H	0.805345	-0.053131	0.166313
C331	C	0.178199	0.046973	0.922749
C332	C	0.161158	0.000055	0.905767
H333	H	0.143585	0.046983	0.957367
H334	H	0.201276	0.023907	0.939469
H335	H	0.201285	0.101853	0.882927
H336	H	0.138076	-0.054827	0.945588
H337	H	0.138071	0.023119	0.889049
H338	H	0.371174	0.078229	0.419975
H339	H	-0.008123	-0.121106	0.709188
H340	H	0.165235	-0.078093	0.646717
H341	H	0.552715	0.630308	0.428185
C342	C	0.312930	-0.081268	0.651327
C343	C	0.256162	-0.090369	0.664528
H344	H	0.309040	-0.110495	0.693732
H345	H	0.334114	-0.102546	0.625664
H346	H	0.334130	-0.024590	0.625642
H347	H	0.234962	-0.147048	0.690209
H348	H	0.234969	-0.069095	0.690202
H349	H	0.619344	0.515097	0.428165
H350	H	0.590201	-0.078046	0.221759
C351	C	0.664804	0.504074	0.511344
C352	C	0.625157	0.432983	0.535651
H353	H	0.704366	0.502796	0.489637
H354	H	0.662230	0.551224	0.479035
H355	H	0.654707	0.506408	0.548882
H356	H	0.635250	0.430652	0.498113
H357	H	0.627732	0.385821	0.567963
H358	H	0.609271	0.549835	0.543678
H359	H	0.445391	0.548567	0.547731
H360	H	0.590234	-0.078043	-0.247648
H361	H	0.447926	0.435716	0.543133
H362	H	0.476867	0.078255	-0.155108
H363	H	0.438148	0.377880	0.625589
H364	H	0.440269	0.492336	0.627523
H365	H	0.621451	-0.121117	0.079620
H366	H	0.901796	0.078285	0.221701
H367	H	0.445626	0.121348	0.079576
C368	C	0.657770	-0.171197	0.012987
C369	C	0.630360	-0.133394	-0.020196
H370	H	0.678966	-0.200442	-0.004306
H371	H	0.684736	-0.130427	0.004615
H372	H	0.628194	-0.208370	0.061157
H373	H	0.659936	-0.096215	-0.068366
H374	H	0.603392	-0.174169	-0.011830
H375	H	0.476825	0.078241	0.221736
H376	H	0.891359	0.000114	0.175449
C377	C	0.407334	0.059146	0.350907
C378	C	0.467920	0.090516	0.321569
H379	H	0.386137	0.088374	0.368221
H380	H	0.402866	0.065322	0.316870
H381	H	0.391909	0.002470	0.387535
H382	H	0.483347	0.147191	0.284937
H383	H	0.472392	0.084348	0.355609
H384	H	0.809253	0.078303	0.314259
