data_functionalizedCrystal
_audit_creation_method	'MofGen! by Chris Wilmer'
_symmetry_space_group_name_H-M	'P1'
_symmetry_Int_Tables_number	1
_symmetry_cell_setting	triclinic
loop_
_symmetry_equiv_pos_as_xyz
  x,y,z
_cell_length_a	15.944551
_cell_length_b	16.992695
_cell_length_c	15.455313
_cell_angle_alpha	87.152573
_cell_angle_beta	87.323015
_cell_angle_gamma	92.916519
loop_
_atom_site_label
_atom_site_type_symbol
_atom_site_fract_x
_atom_site_fract_y
_atom_site_fract_z
O1	O	1.124754	-0.097702	-0.072040
O2	O	1.458087	0.235631	0.261293
O3	O	1.791420	0.568965	0.594626
O4	O	0.881041	-0.110169	-0.072062
O5	O	1.214374	0.223164	0.261271
O6	O	1.547708	0.556498	0.594605
O7	O	1.001920	0.010207	-0.072045
O8	O	1.335253	0.343540	0.261289
O9	O	1.668587	0.676874	0.594622
O10	O	1.003875	-0.218078	-0.072058
O11	O	1.337208	0.115255	0.261275
O12	O	1.670541	0.448589	0.594609
O13	O	0.995006	0.003352	0.072217
O14	O	1.328339	0.336685	0.405550
O15	O	1.661672	0.670018	0.738883
O16	O	0.874127	-0.117024	0.072199
O17	O	1.207460	0.216309	0.405532
O18	O	1.540793	0.549642	0.738866
O19	O	1.117839	-0.104557	0.072221
O20	O	1.451173	0.228776	0.405554
O21	O	1.784506	0.562109	0.738887
Cu22	Cu	0.995352	-0.111417	0.085382
Cu23	Cu	1.328685	0.221917	0.418715
Cu24	Cu	1.662018	0.555250	0.752049
Cu25	Cu	1.003529	-0.103310	-0.085223
Cu26	Cu	1.336862	0.230024	0.248110
Cu27	Cu	1.670195	0.563357	0.581443
O28	O	0.996960	-0.224933	0.072203
O29	O	1.330294	0.108400	0.405536
O30	O	1.663627	0.441734	0.738870
C31	C	0.846255	-0.113079	0.000066
C32	C	1.179589	0.220255	0.333399
C33	C	1.512922	0.553588	0.666732
C34	C	0.752906	-0.111527	0.000058
C35	C	1.086239	0.221807	0.333391
C36	C	1.419572	0.555140	0.666724
C37	C	0.995949	0.035992	0.000086
C38	C	1.329283	0.369325	0.333419
C39	C	1.662616	0.702659	0.666752
C40	C	0.988449	0.123037	0.000085
C41	C	1.321783	0.456370	0.333418
C42	C	1.655116	0.789703	0.666751
C43	C	1.002931	-0.250718	0.000071
C44	C	1.336265	0.082615	0.333404
C45	C	1.669598	0.415949	0.666738
C46	C	1.010431	-0.337762	0.000066
C47	C	1.343765	-0.004429	0.333399
C48	C	1.677098	0.328904	0.666733
C49	C	0.532795	-0.033204	0.000079
C50	C	0.866128	0.300130	0.333412
C51	C	1.199462	0.633463	0.666746
C52	C	0.477623	-0.066195	-0.071051
C53	C	0.810957	0.267139	0.262282
C54	C	1.144290	0.600472	0.595615
C55	C	0.581991	-0.108720	0.000068
C56	C	0.915324	0.224613	0.333401
C57	C	1.248658	0.557947	0.666735
C58	C	0.470830	-0.072971	0.071179
C59	C	0.804163	0.260362	0.404512
C60	C	1.137497	0.593695	0.737845
C61	C	0.416895	-0.106003	0.000082
C62	C	0.750229	0.227330	0.333415
C63	C	1.083562	0.560663	0.666749
C64	C	0.528052	-0.141729	-0.071121
C65	C	0.861385	0.191604	0.262212
C66	C	1.194718	0.524938	0.595545
C67	C	0.521261	-0.148498	0.071173
C68	C	0.854594	0.184835	0.404506
C69	C	1.187928	0.518169	0.737839
C70	C	0.466111	-0.181543	0.000025
C71	C	0.799445	0.151790	0.333358
C72	C	1.132778	0.485124	0.666692
C73	C	0.677099	-0.110283	0.000059
C74	C	1.010432	0.223051	0.333393
C75	C	1.343765	0.556384	0.666726
C76	C	0.321790	-0.104446	0.000084
C77	C	0.655123	0.228887	0.333418
C78	C	0.988456	0.562220	0.666751
C79	C	1.152625	-0.101647	0.000091
C80	C	1.485958	0.231686	0.333424
C81	C	1.819292	0.565019	0.666758
C82	C	1.245975	-0.103199	0.000093
C83	C	1.579308	0.230134	0.333427
C84	C	1.912642	0.563468	0.666760
N85	N	0.989607	-0.117118	0.205377
N86	N	1.322940	0.216215	0.538710
N87	N	1.656273	0.549548	0.872043
C88	C	1.060814	0.173273	0.000092
C89	C	1.394147	0.506606	0.333425
C90	C	1.727480	0.839940	0.666759
C91	C	1.053762	0.255060	0.000083
C92	C	1.387095	0.588394	0.333417
C93	C	1.720429	0.921727	0.666750
C94	C	0.974345	0.286609	0.000073
C95	C	1.307678	0.619943	0.333407
C96	C	1.641012	0.953276	0.666740
C97	C	0.901975	0.236367	0.000063
C98	C	1.235308	0.569700	0.333397
C99	C	1.568642	0.903033	0.666730
C100	C	0.909028	0.154581	0.000066
C101	C	1.242361	0.487915	0.333399
C102	C	1.575694	0.821248	0.666733
C103	C	0.945114	0.530209	0.000059
C104	C	1.278448	0.863543	0.333392
C105	C	1.611781	1.196876	0.666725
C106	C	0.938067	0.612001	0.000059
C107	C	1.271400	0.945335	0.333392
C108	C	1.604734	1.278668	0.666725
C109	C	1.089855	0.630689	0.000077
C110	C	1.423188	0.964023	0.333410
C111	C	1.756522	1.297356	0.666744
C112	C	1.096900	0.548901	0.000085
C113	C	1.430234	0.882234	0.333418
C114	C	1.763567	1.215568	0.666752
C115	C	1.024531	0.498666	0.000070
C116	C	1.357864	0.831999	0.333404
C117	C	1.691197	1.165332	0.666737
N118	N	0.967135	0.370209	0.000067
N119	N	1.300468	0.703542	0.333400
N120	N	1.633802	1.036876	0.666734
N121	N	1.031742	0.415068	0.000070
N122	N	1.365075	0.748402	0.333404
N123	N	1.698408	1.081735	0.666737
N124	N	1.009280	-0.097602	-0.205218
N125	N	1.342613	0.235732	0.128115
N126	N	1.675947	0.569065	0.461448
C127	C	1.040980	-0.065997	0.250778
C128	C	1.374314	0.267336	0.584112
C129	C	1.707647	0.600669	0.917445
C130	C	1.036644	-0.070316	0.341586
C131	C	1.369977	0.263017	0.674919
C132	C	1.703311	0.596350	1.008252
C133	C	0.980937	-0.125761	0.386990
C134	C	1.314270	0.207572	0.720323
C135	C	1.647604	0.540906	1.053656
C136	C	0.929558	-0.176884	0.341582
C137	C	1.262891	0.156449	0.674915
C138	C	1.596224	0.489782	1.008248
C139	C	0.933890	-0.172561	0.250776
C140	C	1.267224	0.160773	0.584109
C141	C	1.600557	0.494106	0.917443
C142	C	0.962233	-0.144402	0.658568
C143	C	1.295567	0.188932	0.991902
C144	C	1.628900	0.522265	1.325235
C145	C	0.957906	-0.148723	0.749380
C146	C	1.291239	0.184611	1.082714
C147	C	1.624573	0.517944	1.416047
C148	C	1.064992	-0.042153	0.749378
C149	C	1.398325	0.291180	1.082711
C150	C	1.731658	0.624513	1.416045
C151	C	1.069323	-0.037838	0.658571
C152	C	1.402657	0.295495	0.991904
C153	C	1.735990	0.628829	1.325237
C154	C	1.017941	-0.088958	0.613171
C155	C	1.351274	0.244375	0.946504
C156	C	1.684607	0.577708	1.279837
N157	N	0.976505	-0.130179	0.479809
N158	N	1.309838	0.203155	0.813142
N159	N	1.643172	0.536488	1.146476
N160	N	1.022369	-0.084536	0.520353
N161	N	1.355702	0.248797	0.853686
N162	N	1.689036	0.582130	1.187019
H163	H	0.561929	0.029473	-0.000005
H164	H	0.895262	0.362807	0.333328
H165	H	1.228595	0.696140	0.666661
F166	F	1.100276	-0.006989	0.202465
F167	F	1.433609	0.326345	0.535798
F168	F	1.766943	0.659678	0.869131
F169	F	0.560743	-0.179707	-0.149809
F170	F	0.894076	0.153626	0.183524
F171	F	1.227410	0.486960	0.516858
F172	F	0.452306	-0.020713	-0.149650
F173	F	0.785640	0.312620	0.183683
F174	F	1.118973	0.645953	0.517016
F175	F	0.898613	-0.207740	0.797697
F176	F	1.231946	0.125594	1.131030
F177	F	1.565279	0.458927	1.464364
F178	F	0.428270	-0.263542	-0.000030
F179	F	0.761603	0.069792	0.333304
F180	F	1.094937	0.403125	0.666637
F181	F	0.546607	-0.193948	0.149774
F182	F	0.879940	0.139386	0.483107
F183	F	1.213274	0.472719	0.816440
F184	F	0.438009	-0.034942	0.149779
F185	F	0.771342	0.298392	0.483112
F186	F	1.104675	0.631725	0.816445
H187	H	1.125484	0.147592	0.000106
H188	H	1.458817	0.480926	0.333439
H189	H	1.792150	0.814259	0.666772
F190	F	1.119671	0.012251	0.797701
F191	F	1.453005	0.345584	1.131035
F192	F	1.786338	0.678918	1.464368
H193	H	1.112689	0.295960	0.000091
H194	H	1.446023	0.629293	0.333424
H195	H	1.779356	0.962627	0.666758
F196	F	1.181428	0.515332	0.000074
F197	F	1.514761	0.848665	0.333407
F198	F	1.848095	1.181998	0.666740
H199	H	1.148774	0.671599	0.000087
H200	H	1.482107	1.004932	0.333421
H201	H	1.815441	1.338266	0.666754
H202	H	0.873392	0.637684	0.000065
H203	H	1.206725	0.971017	0.333398
H204	H	1.540059	1.304351	0.666731
H205	H	0.920397	-0.186027	0.621611
H206	H	1.253730	0.147306	0.954944
H207	H	1.587064	0.480639	1.288277
F208	F	0.868091	0.476756	0.000041
F209	F	1.201424	0.810089	0.333374
F210	F	1.534758	1.143422	0.666708
H211	H	0.837312	0.262061	0.000050
H212	H	1.170645	0.595394	0.333383
H213	H	1.503979	0.928727	0.666716
H214	H	0.850101	0.113679	0.000060
H215	H	1.183434	0.447012	0.333393
H216	H	1.516767	0.780346	0.666727
F217	F	1.091321	-0.015907	0.389906
F218	F	1.424654	0.317426	0.723239
F219	F	1.757987	0.650760	1.056572
F220	F	1.128613	0.021171	0.610249
F221	F	1.461947	0.354504	0.943583
F222	F	1.795280	0.687838	1.276916
H223	H	0.884195	-0.222026	0.378555
H224	H	1.217529	0.111307	0.711888
H225	H	1.550862	0.444641	1.045221
F226	F	0.879208	-0.226969	0.202457
F227	F	1.212542	0.106364	0.535791
F228	F	1.545875	0.439697	0.869124
