data_functionalizedCrystal
_audit_creation_method	'MofGen! by Chris Wilmer'
_symmetry_space_group_name_H-M	'P1'
_symmetry_Int_Tables_number	1
_symmetry_cell_setting	triclinic
loop_
_symmetry_equiv_pos_as_xyz
  x,y,z
_cell_length_a	12.645331
_cell_length_b	21.295417
_cell_length_c	12.645323
_cell_angle_alpha	90.033992
_cell_angle_beta	90.022676
_cell_angle_gamma	90.029485
loop_
_atom_site_label
_atom_site_type_symbol
_atom_site_fract_x
_atom_site_fract_y
_atom_site_fract_z
Zn1	Zn	1.620637	-0.250621	0.599379
Zn2	Zn	1.620479	-0.355896	0.422091
Zn3	Zn	1.443351	-0.250643	0.422123
Zn4	Zn	1.443294	-0.355855	0.599306
O5	O	1.531940	-0.303254	0.510725
O6	O	1.768963	-0.264595	0.575878
O7	O	1.596941	-0.341960	0.273748
O8	O	1.466959	-0.162550	0.445681
O9	O	1.768847	-0.341939	0.445625
O10	O	1.597210	-0.162535	0.575910
O11	O	1.466806	-0.264631	0.273772
O12	O	1.294996	-0.264591	0.445610
O13	O	1.466860	-0.341869	0.747663
O14	O	1.294954	-0.341890	0.575786
O15	O	1.597154	-0.264555	0.747717
O16	O	1.596884	-0.443980	0.445555
O17	O	1.466707	-0.443950	0.575754
C18	C	1.256510	-0.303239	0.510694
C19	C	1.138680	-0.303247	0.510706
C20	C	1.531801	-0.466805	0.510666
C21	C	1.531839	-0.536773	0.510677
C22	C	0.971108	-0.254395	0.429265
C23	C	1.093667	-0.254521	0.428906
C24	C	1.094135	-0.369560	0.480174
C25	C	0.971537	-0.369293	0.479618
C26	C	0.971537	-0.286418	0.622995
C27	C	1.094144	-0.284937	0.622372
C28	C	1.599682	-0.569635	0.442951
C29	C	1.599732	-0.635377	0.442975
C30	C	1.531919	-0.668256	0.510713
C31	C	1.464071	-0.635386	0.578452
C32	C	1.464031	-0.569645	0.578433
N33	N	1.439183	-0.771521	0.518784
N34	N	1.439224	-0.833972	0.518796
C35	C	1.532038	-0.866331	0.510774
N36	N	1.624811	-0.833879	0.502720
N37	N	1.624768	-0.771421	0.502703
C38	C	1.531956	-0.739541	0.510741
C39	C	1.599941	-0.970478	0.443071
C40	C	1.599993	-1.036221	0.443102
C41	C	1.464322	-1.036229	0.578573
C42	C	1.464280	-0.970487	0.578547
C43	C	1.532088	-0.937615	0.510791
C44	C	1.808445	-0.303269	0.510756
C45	C	1.926275	-0.303276	0.510770
C46	C	1.532018	-0.303205	0.787230
C47	C	1.532052	-0.303184	0.905061
C48	C	1.532109	-0.139063	0.510807
C49	C	1.532180	-0.069095	0.510842
C50	C	1.531923	-0.303257	0.235295
C51	C	1.532096	-0.303100	0.117466
C52	C	1.449831	-0.351594	1.072591
C53	C	1.450046	-0.351833	0.950031
C54	C	1.643744	-0.321189	0.949576
C55	C	1.643293	-0.321492	1.072174
C56	C	1.503635	-0.236500	1.072276
C57	C	1.501143	-0.236899	0.949670
H58	H	1.123787	-0.205348	0.448045
N59	N	1.722816	-0.279126	1.109420
N60	N	1.796625	-0.298961	1.166042
H61	H	1.852795	-0.269044	1.192341
N62	N	1.130384	-0.268499	0.324575
N63	N	1.065464	-0.278197	0.251802
H64	H	1.091392	-0.288071	0.178113
N65	N	0.935605	-0.387216	0.376688
N66	N	0.960877	-0.355220	0.297796
H67	H	0.935507	-0.367877	0.225097
N68	N	1.130657	-0.223714	0.651246
N69	N	1.108294	-0.177441	0.594745
H70	H	1.134087	-0.134201	0.615131
H71	H	1.655158	-0.943712	0.387902
H72	H	1.563553	-0.200370	1.101300
H73	H	0.940256	-0.265413	0.346591
N74	N	1.722690	-0.278278	0.913036
N75	N	1.697453	-0.233842	0.853636
H76	H	1.753206	-0.203535	0.827828
H77	H	1.655246	-1.062976	0.387954
H78	H	0.941662	-0.205074	0.448199
N79	N	0.934339	-0.416532	0.550836
N80	N	0.998926	-0.449595	0.600785
H81	H	0.972660	-0.482960	0.651078
H82	H	1.123290	-0.406953	0.537674
N83	N	1.674525	-0.381624	0.911052
N84	N	1.614395	-0.411538	0.850826
H85	H	1.636128	-0.454222	0.823618
N86	N	1.403243	-0.215917	1.111058
N87	N	1.351447	-0.250088	1.172483
H88	H	1.280542	-0.235558	1.199876
N89	N	0.935205	-0.331087	0.699185
N90	N	0.957232	-0.387950	0.688471
H91	H	0.931576	-0.419500	0.742275
H92	H	1.408859	-0.662160	0.633606
H93	H	1.654982	-0.662138	0.387825
H94	H	1.408783	-0.542889	0.633585
N95	N	1.395038	-1.069796	0.647767
N96	N	1.334459	-1.040443	0.708226
H97	H	1.285526	-1.064151	0.757100
H98	H	1.409031	-0.943729	0.633691
H99	H	1.367222	-0.340567	0.919932
H100	H	1.124785	-0.384101	0.399012
N101	N	1.345614	-0.337590	1.109547
N102	N	1.304336	-0.285745	1.088591
H103	H	1.230730	-0.275853	1.114699
N104	N	1.668951	-0.536068	0.373736
N105	N	1.729524	-0.565422	0.313271
H106	H	1.778447	-0.541715	0.264387
N107	N	0.932787	-0.226819	0.657820
N108	N	0.871332	-0.196041	0.600341
H109	H	0.843962	-0.153946	0.624926
H110	H	1.468434	-0.400659	1.103397
N111	N	1.473650	-0.413769	0.913248
N112	N	1.490024	-0.456952	0.978121
H113	H	1.506697	-0.500697	0.952145
H114	H	1.667420	-0.370178	1.100771
H115	H	1.418947	-0.223321	0.920574
N116	N	1.570810	-0.189179	0.911244
N117	N	1.578332	-0.179392	0.814082
H118	H	1.627542	-0.145693	0.786937
H119	H	1.124789	-0.317942	0.686348
