data_functionalizedCrystal
_audit_creation_method	'MofGen! by Chris Wilmer'
_symmetry_space_group_name_H-M	'P1'
_symmetry_Int_Tables_number	1
_symmetry_cell_setting	triclinic
loop_
_symmetry_equiv_pos_as_xyz
  x,y,z
_cell_length_a	23.532407
_cell_length_b	23.532357
_cell_length_c	22.010155
_cell_angle_alpha	89.998697
_cell_angle_beta	89.994271
_cell_angle_gamma	82.838519
loop_
_atom_site_label
_atom_site_type_symbol
_atom_site_fract_x
_atom_site_fract_y
_atom_site_fract_z
O1	O	0.755251	0.069129	-0.050494
O2	O	1.255251	0.569129	0.449506
O3	O	0.589386	0.079132	-0.050505
O4	O	1.089386	0.579132	0.449495
O5	O	0.677335	-0.008803	-0.050487
O6	O	1.177335	0.491197	0.449513
O7	O	0.667302	0.157064	-0.050512
O8	O	1.167302	0.657064	0.449488
O9	O	0.677319	-0.008790	0.050564
O10	O	1.177319	0.491210	0.550564
O11	O	0.589370	0.079146	0.050546
O12	O	1.089370	0.579146	0.550546
O13	O	0.755235	0.069142	0.050556
O14	O	1.255235	0.569142	0.550556
Cu15	Cu	0.672301	0.074145	0.059778
Cu16	Cu	1.172301	0.574145	0.559778
Cu17	Cu	0.672320	0.074129	-0.059726
Cu18	Cu	1.172320	0.574129	0.440274
O19	O	0.667286	0.157078	0.050538
O20	O	1.167286	0.657078	0.550538
C21	C	0.568162	0.078884	0.000019
C22	C	1.068162	0.578884	0.500019
C23	C	0.504945	0.078118	0.000016
C24	C	1.004945	0.578118	0.500016
C25	C	0.238788	0.022922	0.000041
C26	C	0.738788	0.522922	0.500041
C27	C	0.298188	0.023633	0.000041
C28	C	0.798188	0.523633	0.500041
O29	O	0.334940	-0.020154	0.000068
O30	O	0.834940	0.479846	0.500068
N31	N	0.320805	0.075911	0.000028
N32	N	0.820805	0.575911	0.500028
C33	C	0.284018	0.127480	0.000023
C34	C	0.784018	0.627480	0.500023
O35	O	0.308710	0.172012	0.000013
O36	O	0.808710	0.672012	0.500013
C37	C	0.224619	0.126768	0.000027
C38	C	0.724619	0.626768	0.500027
C39	C	0.202006	0.074487	0.000033
C40	C	0.702006	0.574487	0.500033
C41	C	0.216174	-0.029355	0.000048
C42	C	0.716174	0.470645	0.500048
C43	C	0.156778	-0.030066	0.000047
C44	C	0.656778	0.469934	0.500047
C45	C	0.119996	0.021499	0.000039
C46	C	0.619996	0.521499	0.500039
C47	C	0.142610	0.073776	0.000032
C48	C	0.642610	0.573776	0.500032
C49	C	0.187833	0.178337	0.000026
C50	C	0.687833	0.678337	0.500026
C51	C	0.128431	0.177620	0.000031
C52	C	0.628431	0.677620	0.500031
C53	C	0.105818	0.125339	0.000037
C54	C	0.605818	0.625339	0.500037
C55	C	0.046431	0.124630	0.000024
C56	C	0.546431	0.624630	0.500024
N57	N	0.023815	0.072353	0.000036
N58	N	0.523815	0.572353	0.500036
C59	C	0.060597	0.020787	0.000044
C60	C	0.560597	0.520787	0.500044
C61	C	0.408760	0.128971	0.000014
C62	C	0.908760	0.628971	0.500014
C63	C	0.468158	0.129684	0.000005
C64	C	0.968158	0.629684	0.500005
C65	C	0.482324	0.025837	0.000024
C66	C	0.982324	0.525837	0.500024
C67	C	0.422925	0.025125	0.000029
C68	C	0.922925	0.525125	0.500029
C69	C	0.386143	0.076694	0.000026
C70	C	0.886143	0.576694	0.500026
C71	C	-0.064140	0.019297	0.000041
C72	C	0.435860	0.519297	0.500041
C73	C	-0.123542	0.018591	0.000038
C74	C	0.376458	0.518591	0.500038
C75	C	-0.137702	0.122438	0.000022
C76	C	0.362298	0.622438	0.500022
C77	C	-0.078306	0.123145	0.000022
C78	C	0.421694	0.623145	0.500022
C79	C	-0.041525	0.071570	0.000034
C80	C	0.458475	0.571570	0.500034
O81	O	0.009644	0.168394	-0.000001
O82	O	0.509644	0.668394	0.499999
O83	O	0.035897	-0.023737	0.000062
O84	O	0.535897	0.476263	0.500062
C85	C	0.677076	-0.030013	0.000041
C86	C	1.177076	0.469987	0.500041
C87	C	0.676322	-0.093232	0.000046
C88	C	1.176322	0.406768	0.500046
C89	C	0.671594	-0.485250	-0.055069
C90	C	1.171594	0.014750	0.444931
C91	C	0.670876	-0.544650	-0.055073
C92	C	1.170876	-0.044650	0.444927
O93	O	0.670494	-0.575372	-0.101919
O94	O	1.170494	-0.075372	0.398081
N95	N	0.670512	-0.574354	0.000009
N96	N	1.170512	-0.074354	0.500009
C97	C	0.670859	-0.544654	0.055098
C98	C	1.170859	-0.044654	0.555098
O99	O	0.670483	-0.575374	0.101949
O100	O	1.170483	-0.075374	0.601949
C101	C	0.671572	-0.485255	0.055101
C102	C	1.171572	0.014745	0.555101
C103	C	0.671942	-0.455555	0.000015
C104	C	1.171942	0.044445	0.500015
C105	C	0.671963	-0.455550	-0.110150
C106	C	1.171963	0.044450	0.389850
C107	C	0.672681	-0.396155	-0.110147
C108	C	1.172681	0.103845	0.389853
C109	C	0.673030	-0.366460	-0.055062
C110	C	1.173030	0.133540	0.444938
C111	C	0.672661	-0.396160	0.000019
C112	C	1.172661	0.103840	0.500019
C113	C	0.671915	-0.455556	0.110189
C114	C	1.171915	0.044444	0.610189
C115	C	0.672628	-0.396153	0.110187
C116	C	1.172628	0.103847	0.610187
C117	C	0.672998	-0.366453	0.055102
C118	C	1.172998	0.133547	0.555102
C119	C	0.673728	-0.307070	0.055107
C120	C	1.173728	0.192930	0.555107
N121	N	0.674092	-0.277366	0.000025
N122	N	1.174092	0.222634	0.500025
C123	C	0.673743	-0.307061	-0.055059
C124	C	1.173743	0.192939	0.444941
C125	C	0.669361	-0.669396	0.055087
C126	C	1.169361	-0.169396	0.555087
C127	C	0.668652	-0.728794	0.055085
C128	C	1.168652	-0.228794	0.555085
C129	C	0.668668	-0.728785	-0.055086
C130	C	1.168668	-0.228785	0.444914
C131	C	0.669381	-0.669386	-0.055083
C132	C	1.169381	-0.169386	0.444917
C133	C	0.669725	-0.639692	0.000006
C134	C	1.169725	-0.139692	0.500006
C135	C	0.675252	-0.182327	-0.055047
C136	C	1.175252	0.317673	0.444953
C137	C	0.675973	-0.122926	-0.055038
C138	C	1.175973	0.377074	0.444962
C139	C	0.675954	-0.122940	0.055132
C140	C	1.175954	0.377060	0.555132
C141	C	0.675236	-0.182336	0.055124
C142	C	1.175236	0.317664	0.555124
C143	C	0.674883	-0.212027	0.000029
C144	C	1.174883	0.287973	0.500029
O145	O	0.674109	-0.276309	0.101929
O146	O	1.174109	0.223691	0.601929
O147	O	0.674112	-0.276333	-0.101902
O148	O	1.174112	0.223667	0.398098
C149	C	0.776459	0.069390	0.000031
C150	C	1.276459	0.569390	0.500031
C151	C	0.839676	0.070156	0.000030
C152	C	1.339676	0.570156	0.500030
C153	C	0.667545	0.178288	0.000010
C154	C	1.167545	0.678288	0.500010
C155	C	0.668300	0.241506	0.000000
C156	C	1.168300	0.741506	0.500000
N157	N	0.672292	0.074156	0.143830
N158	N	1.172292	0.574156	0.643830
N159	N	0.672334	0.074114	-0.143779
N160	N	1.172334	0.574114	0.356221
C161	C	0.711266	0.035197	0.563618
C162	C	1.211266	0.535197	1.063618
C163	C	0.711269	0.035193	0.627225
C164	C	1.211269	0.535193	1.127225
O165	O	0.744383	0.002077	0.660123
O166	O	1.244383	0.502077	1.160123
N167	N	0.672320	0.074118	0.659037
N168	N	1.172320	0.574118	1.159037
C169	C	0.633362	0.113044	0.627238
C170	C	1.133362	0.613044	1.127238
O171	O	0.600233	0.146152	0.660138
O172	O	1.100233	0.646152	1.160138
C173	C	0.633357	0.113045	0.563632
C174	C	1.133357	0.613045	1.063632
C175	C	0.672312	0.074122	0.531823
C176	C	1.172312	0.574122	1.031823
C177	C	0.750218	-0.003723	0.531809
C178	C	1.250218	0.496277	1.031809
C179	C	0.750216	-0.003718	0.468205
C180	C	1.250216	0.496282	0.968205
C181	C	0.711262	0.035207	0.436411
C182	C	1.211262	0.535207	0.936411
C183	C	0.672310	0.074127	0.468220
C184	C	1.172310	0.574127	0.968220
C185	C	0.594397	0.151969	0.531834
C186	C	1.094397	0.651969	1.031834
C187	C	0.594395	0.151966	0.468224
C188	C	1.094395	0.651966	0.968224
C189	C	0.633350	0.113043	0.436415
C190	C	1.133350	0.613043	0.936415
C191	C	0.633354	0.113057	0.372822
C192	C	1.133354	0.613057	0.872822
N193	N	0.672303	0.074133	0.341010
N194	N	1.172303	0.574133	0.841010
C195	C	0.711257	0.035207	0.372805
C196	C	1.211257	0.535207	0.872805
C197	C	0.633374	0.113039	0.760816
C198	C	1.133374	0.613039	1.260816
C199	C	0.633382	0.113042	0.824422
C200	C	1.133382	0.613042	1.324422
C201	C	0.711288	0.035190	0.824404
C202	C	1.211288	0.535190	1.324404
C203	C	0.711283	0.035190	0.760797
C204	C	1.211283	0.535190	1.260797
C205	C	0.672323	0.074115	0.729004
C206	C	1.172323	0.574115	1.229004
C207	C	0.711250	0.035221	0.239233
C208	C	1.211250	0.535221	0.739233
C209	C	0.711246	0.035231	0.175625
C210	C	1.211246	0.535231	0.675625
C211	C	0.633338	0.113080	0.175648
C212	C	1.133338	0.613080	0.675648
C213	C	0.633344	0.113073	0.239251
C214	C	1.133344	0.613073	0.739251
C215	C	0.672302	0.074138	0.271042
C216	C	1.172302	0.574138	0.771042
O217	O	0.600255	0.146155	0.339884
O218	O	1.100255	0.646155	0.839884
O219	O	0.744376	0.002101	0.339898
O220	O	1.244376	0.502101	0.839898
H221	H	-0.141950	-0.023984	0.000041
H222	H	0.358050	0.476016	0.500041
H223	H	0.601666	0.144742	0.850316
H224	H	1.101666	0.644742	1.350316
H225	H	0.742973	0.003516	0.265111
H226	H	1.242973	0.503516	0.765111
Br227	Br	-0.014233	-0.050698	0.000057
Br228	Br	0.485767	0.449302	0.500057
Br229	Br	0.498840	0.200640	-0.000019
Br230	Br	0.998840	0.700640	0.499981
H231	H	0.743006	0.003494	0.850302
H232	H	1.243006	0.503494	1.350302
H233	H	0.669642	-0.645222	0.099950
H234	H	1.169642	-0.145222	0.599950
Br235	Br	0.668163	-0.769096	0.129847
Br236	Br	1.168163	-0.269096	0.629847
Br237	Br	0.674773	-0.222613	-0.129819
Br238	Br	1.174773	0.277387	0.370181
Br239	Br	0.803083	-0.056547	0.425043
Br240	Br	1.303083	0.443453	0.925043
H241	H	0.138372	-0.072639	0.000054
H242	H	0.638372	0.427361	0.500054
Br243	Br	0.580499	0.165874	0.717674
Br244	Br	1.080499	0.665874	1.217674
H245	H	0.378815	0.170968	0.000007
H246	H	0.878815	0.670968	0.500007
Br247	Br	0.676429	-0.082629	0.129886
Br248	Br	1.176429	0.417371	0.629886
Br249	Br	0.764120	-0.017595	0.132458
Br250	Br	1.264120	0.482405	0.632458
Br251	Br	0.541526	0.204795	0.574990
Br252	Br	1.041526	0.704795	1.074990
Br253	Br	0.580475	0.165907	0.132488
Br254	Br	1.080475	0.665907	0.632488
Br255	Br	0.541515	0.204794	0.425080
Br256	Br	1.041515	0.704794	0.925080
H257	H	0.601628	0.144773	0.265150
H258	H	1.101628	0.644773	0.765150
H259	H	0.246117	-0.071348	0.000056
H260	H	0.746117	0.428652	0.500056
H261	H	0.671615	-0.479728	0.155045
H262	H	1.171615	0.020272	0.655045
Br263	Br	0.532254	-0.044146	0.000032
Br264	Br	1.032254	0.455854	0.500032
Br265	Br	0.673094	-0.355857	0.184954
Br266	Br	1.173094	0.144143	0.684954
Br267	Br	0.674747	-0.222646	0.129883
Br268	Br	1.174747	0.277354	0.629883
H269	H	0.404518	-0.017447	0.000034
H270	H	0.904518	0.482553	0.500034
H271	H	0.098485	0.219615	0.000032
H272	H	0.598485	0.719615	0.500032
Br273	Br	0.218507	0.249294	0.000016
Br274	Br	0.718507	0.749294	0.500016
Br275	Br	0.764153	-0.017636	0.717635
Br276	Br	1.264153	0.482364	1.217635
Br277	Br	-0.047615	0.194098	0.000004
Br278	Br	0.452385	0.694098	0.500004
Br279	Br	0.676479	-0.082623	-0.129802
Br280	Br	1.176479	0.417377	0.370198
Br281	Br	-0.187632	0.192416	0.000007
Br282	Br	0.312368	0.692416	0.500007
H283	H	0.672981	-0.371978	-0.155003
H284	H	1.172981	0.128022	0.344997
H285	H	0.669681	-0.645208	-0.099938
H286	H	1.169681	-0.145208	0.400062
Br287	Br	0.668191	-0.769096	-0.129844
Br288	Br	1.168191	-0.269096	0.370156
Br289	Br	0.671489	-0.495839	-0.184918
Br290	Br	1.171489	0.004161	0.315082
Br291	Br	0.803090	-0.056558	0.574947
Br292	Br	1.303090	0.443442	1.074947
