data_functionalizedCrystal
_audit_creation_method	'MofGen! by Chris Wilmer'
_symmetry_space_group_name_H-M	'P1'
_symmetry_Int_Tables_number	1
_symmetry_cell_setting	triclinic
loop_
_symmetry_equiv_pos_as_xyz
  x,y,z
_cell_length_a	19.805407
_cell_length_b	17.640280
_cell_length_c	19.805399
_cell_angle_alpha	78.776890
_cell_angle_beta	89.980427
_cell_angle_gamma	78.800112
loop_
_atom_site_label
_atom_site_type_symbol
_atom_site_fract_x
_atom_site_fract_y
_atom_site_fract_z
Zn1	Zn	1.089281	-0.314680	-0.328317
Zn2	Zn	1.112106	-0.446853	-0.192279
Zn3	Zn	0.976099	-0.314701	-0.215138
Zn4	Zn	0.998962	-0.446811	-0.305433
O5	O	1.044112	-0.380761	-0.260292
O6	O	1.187026	-0.332221	-0.310282
O7	O	1.094048	-0.429350	-0.100590
O8	O	0.971992	-0.204095	-0.249296
O9	O	1.203796	-0.429329	-0.210335
O10	O	1.055146	-0.204079	-0.332448
O11	O	0.994125	-0.332258	-0.117385
O12	O	0.884414	-0.332218	-0.227105
O13	O	1.010958	-0.429257	-0.403190
O14	O	0.901211	-0.429278	-0.293444
O15	O	1.077315	-0.332180	-0.420003
O16	O	1.116217	-0.557452	-0.188145
O17	O	1.033091	-0.557421	-0.271278
C18	C	0.868253	-0.380746	-0.260272
C19	C	0.793023	-0.380759	-0.260277
C20	C	0.766456	-0.431374	-0.294736
C21	C	0.695768	-0.431376	-0.294746
C22	C	0.651649	-0.380765	-0.260291
C23	C	0.678220	-0.330144	-0.225831
C24	C	0.748906	-0.330139	-0.225826
C25	C	0.393149	-0.330161	-0.225850
C26	C	0.322459	-0.330172	-0.225856
C27	C	0.340012	-0.431398	-0.294770
C28	C	0.410698	-0.431393	-0.294765
C29	C	0.437262	-0.380770	-0.260308
C30	C	0.513910	-0.380768	-0.260299
C31	C	0.575003	-0.380770	-0.260295
C32	C	1.079630	-0.586114	-0.224762
C33	C	1.094887	-0.673965	-0.209586
C34	C	0.928484	-0.962953	-0.375835
C35	C	0.942822	-1.045502	-0.361553
C36	C	1.029435	-1.045469	-0.275073
C37	C	1.015107	-0.962918	-0.289351
C38	C	0.964630	-0.921667	-0.339732
C39	C	1.051253	-0.921632	-0.253247
C40	C	1.036924	-0.839088	-0.267522
C41	C	0.986448	-0.797831	-0.317899
C42	C	0.950301	-0.839123	-0.354006
C43	C	1.101726	-0.962885	-0.202863
C44	C	1.137872	-0.921598	-0.166760
C45	C	1.123546	-0.839053	-0.181037
C46	C	1.073071	-0.797796	-0.231415
C47	C	1.159693	-0.797761	-0.144930
C48	C	1.145364	-0.715217	-0.159204
C49	C	1.058741	-0.715252	-0.245689
C50	C	1.220657	-0.380777	-0.260311
C51	C	1.295890	-0.380784	-0.260320
C52	C	1.044141	-0.380712	-0.436843
C53	C	1.044154	-0.380690	-0.512079
C54	C	1.008473	-0.174606	-0.295974
C55	C	0.993286	-0.086756	-0.311180
C56	C	1.078706	-0.330140	-0.556179
C57	C	1.078709	-0.330117	-0.626872
C58	C	1.044163	-0.380649	-0.653462
C59	C	1.009606	-0.431202	-0.609356
C60	C	1.009600	-0.431220	-0.538666
C61	C	1.009632	-0.431128	-0.894442
C62	C	1.009643	-0.431107	-0.965138
C63	C	1.078741	-0.330025	-0.982648
C64	C	1.078735	-0.330043	-0.911958
C65	C	1.044175	-0.380593	-0.867859
C66	C	1.044171	-0.380616	-0.791206
C67	C	1.044171	-0.380631	-0.730112
C68	C	1.044112	-0.380754	-0.084437
C69	C	1.044192	-0.380553	-0.009240
H70	H	0.286537	-0.288953	-0.197799
O71	O	1.004297	-0.670752	-0.300029
H72	H	1.018614	-0.686559	-0.350429
O73	O	1.117176	-1.051915	-0.187462
H74	H	1.158338	-1.073664	-0.146356
O75	O	1.115973	-0.275639	-0.527506
H76	H	1.110172	-0.284149	-0.470940
H77	H	0.802375	-0.472590	-0.322791
O78	O	1.115981	-0.275600	-0.674439
H79	H	1.140010	-0.240474	-0.644072
H80	H	1.178968	-0.955196	-0.125737
H81	H	0.318374	-0.472615	-0.322830
O82	O	0.970967	-0.708800	-0.333291
H83	H	0.980814	-0.686988	-0.388128
H84	H	0.446618	-0.472609	-0.322819
O85	O	0.777560	-0.275544	-0.188658
H86	H	0.834123	-0.284037	-0.194449
O87	O	1.214148	-0.842255	-0.090605
H88	H	1.218045	-0.906589	-0.086751
H89	H	0.909202	-0.805534	-0.395037
H90	H	1.174797	-0.681601	-0.129804
O91	O	0.421793	-0.275563	-0.188682
H92	H	0.478356	-0.284051	-0.194472
O93	O	0.667137	-0.486119	-0.331756
H94	H	0.709702	-0.521372	-0.355650
H95	H	0.642291	-0.288932	-0.197781
O96	O	1.115996	-0.275539	-0.883282
H97	H	1.156548	-0.310928	-0.844963
H98	H	0.887386	-0.929364	-0.416866
H99	H	0.913391	-1.079115	-0.390964
O100	O	1.115995	-0.275478	-1.030215
H101	H	1.110186	-0.283939	-1.083841
O102	O	0.972372	-0.485603	-0.993823
H103	H	0.948332	-0.520750	-0.951284
H104	H	1.070531	-1.079067	-0.234051
O105	O	0.972317	-0.485606	-0.846889
H106	H	0.948288	-0.520729	-0.877259
H107	H	0.981475	-0.472343	-0.631011
H108	H	0.981455	-0.472375	-0.502760
