data_functionalizedCrystal
_audit_creation_method	'MofGen! by Chris Wilmer'
_symmetry_space_group_name_H-M	'P1'
_symmetry_Int_Tables_number	1
_symmetry_cell_setting	triclinic
loop_
_symmetry_equiv_pos_as_xyz
  x,y,z
_cell_length_a	10.686220
_cell_length_b	19.121063
_cell_length_c	10.686551
_cell_angle_alpha	88.212799
_cell_angle_beta	90.308082
_cell_angle_gamma	96.652836
loop_
_atom_site_label
_atom_site_type_symbol
_atom_site_fract_x
_atom_site_fract_y
_atom_site_fract_z
Zn1	Zn	1.960178	-0.171149	-0.576393
Zn2	Zn	2.460178	0.328851	-0.076393
Zn3	Zn	1.934959	-0.298212	-0.377034
Zn4	Zn	2.434959	0.201788	0.122966
Zn5	Zn	1.733026	-0.189107	-0.384180
Zn6	Zn	2.233026	0.310893	0.115820
Zn7	Zn	1.741490	-0.296789	-0.602695
Zn8	Zn	2.241490	0.203211	-0.102695
O9	O	1.842413	-0.238814	-0.485075
O10	O	2.342413	0.261186	0.014925
O11	O	2.132864	-0.181084	-0.535949
O12	O	2.632864	0.318916	-0.035949
O13	O	1.894076	-0.291850	-0.203100
O14	O	2.394076	0.208150	0.296900
O15	O	1.770171	-0.088483	-0.401661
O16	O	2.270171	0.411517	0.098339
O17	O	2.114336	-0.274436	-0.389481
O18	O	2.614336	0.225564	0.110519
O19	O	1.937058	-0.075289	-0.542879
O20	O	2.437058	0.424711	-0.042879
O21	O	1.745717	-0.211691	-0.208351
O22	O	2.245717	0.288309	0.291649
O23	O	1.558117	-0.210311	-0.427165
O24	O	2.058117	0.289689	0.072835
O25	O	1.784596	-0.272012	-0.774087
O26	O	2.284596	0.227988	-0.274087
O27	O	1.564336	-0.289425	-0.587707
O28	O	2.064336	0.210575	-0.087707
O29	O	1.945265	-0.179704	-0.754764
O30	O	2.445265	0.320296	-0.254764
O31	O	1.902282	-0.396264	-0.414984
O32	O	2.402282	0.103736	0.085016
O33	O	1.760141	-0.395219	-0.580777
O34	O	2.260141	0.104781	-0.080777
C35	C	1.515583	-0.251663	-0.511066
C36	C	2.015583	0.248337	-0.011066
C37	C	1.375765	-0.257175	-0.522216
C38	C	1.875765	0.242825	-0.022216
C39	C	1.829430	-0.421212	-0.499984
C40	C	2.329430	0.078788	0.000016
C41	C	1.823994	-0.499236	-0.506394
C42	C	2.323994	0.000764	-0.006394
C43	C	1.895514	-0.536407	-0.423148
C44	C	2.395514	-0.036407	0.076852
C45	C	1.890409	-0.609719	-0.429183
C46	C	2.390409	-0.109719	0.070817
C47	C	1.813778	-0.645858	-0.518461
C48	C	2.313778	-0.145858	-0.018461
C49	C	1.742256	-0.608681	-0.601716
C50	C	2.242256	-0.108681	-0.101716
C51	C	1.747368	-0.535371	-0.595685
C52	C	2.247368	-0.035371	-0.095685
C53	C	1.794644	-0.867182	-0.540991
C54	C	2.294644	-0.367182	-0.040991
C55	C	1.789534	-0.940498	-0.547013
C56	C	2.289534	-0.440498	-0.047013
C57	C	1.937690	-0.941530	-0.374481
C58	C	2.437690	-0.441530	0.125519
C59	C	1.942789	-0.868219	-0.368454
C60	C	2.442789	-0.368219	0.131546
C61	C	1.871272	-0.831048	-0.451713
C62	C	2.371272	-0.331048	0.048287
C63	C	1.808556	-0.720794	-0.524630
C64	C	2.308556	-0.220794	-0.024630
C65	C	1.876502	-0.756113	-0.445549
C66	C	2.376502	-0.256113	0.054451
C67	C	2.170519	-0.225915	-0.458984
C68	C	2.670519	0.274085	0.041016
C69	C	2.310339	-0.220419	-0.447865
C70	C	2.810339	0.279581	0.052135
C71	C	1.868688	-0.223696	-0.811038
C72	C	2.368688	0.276304	-0.311038
C73	C	1.879884	-0.217254	-0.949944
C74	C	2.379884	0.282746	-0.449944
C75	C	1.855484	-0.055701	-0.470134
C76	C	2.355484	0.444299	0.029866
C77	C	1.861053	0.022331	-0.463766
C78	C	2.361053	0.522331	0.036234
C79	C	1.816317	-0.253820	-0.160371
C80	C	2.316317	0.246180	0.339629
C81	C	1.805378	-0.260055	-0.021430
C82	C	2.305378	0.239945	0.478570
H83	H	1.324808	-0.292868	-0.594399
H84	H	1.824808	0.207132	-0.094399
H85	H	1.938901	-0.726686	-0.372863
H86	H	2.438901	-0.226686	0.127137
H87	H	1.361289	-0.184734	-0.375679
H88	H	1.861289	0.315266	0.124321
H89	H	1.679867	-0.638111	-0.674412
H90	H	2.179867	-0.138111	-0.174412
O91	O	1.709512	-0.315120	-0.961762
O92	O	2.209512	0.184880	-0.461762
H93	H	1.758505	-0.351355	-0.900712
H94	H	2.258505	0.148645	-0.400712
O95	O	1.967539	-0.649814	-0.339391
O96	O	2.467539	-0.149814	0.160609
H97	H	2.021669	-0.612369	-0.276286
H98	H	2.521669	-0.112369	0.223714
O99	O	1.725895	-0.759771	-0.620918
O100	O	2.225895	-0.259771	-0.120918
H101	H	1.626431	-0.750630	-0.606099
H102	H	2.126431	-0.250630	-0.106099
H103	H	1.995916	-0.971802	-0.306698
H104	H	2.495916	-0.471802	0.193302
O105	O	1.975717	-0.162168	-1.009629
O106	O	2.475717	0.337832	-0.509629
H107	H	1.969757	-0.165572	-1.113025
H108	H	2.469757	0.334428	-0.613025
H109	H	1.736409	-0.836924	-0.608781
H110	H	2.236409	-0.336924	-0.108781
H111	H	1.957909	-0.506988	-0.350444
H112	H	2.457909	-0.006988	0.149556
O113	O	2.025456	-0.829247	-0.272165
O114	O	2.525456	-0.329247	0.227835
H115	H	1.995076	-0.848755	-0.176937
H116	H	2.495076	-0.348755	0.323063
O117	O	1.706889	-0.979481	-0.643317
O118	O	2.206889	-0.479481	-0.143317
H119	H	1.658027	-0.941317	-0.700209
H120	H	2.158027	-0.441317	-0.200209
O121	O	1.670215	-0.495274	-0.685457
O122	O	2.170215	0.004726	-0.185457
H123	H	1.616056	-0.532720	-0.748540
H124	H	2.116056	-0.032720	-0.248540
