data_functionalizedCrystal
_audit_creation_method	'MofGen! by Chris Wilmer'
_symmetry_space_group_name_H-M	'P1'
_symmetry_Int_Tables_number	1
_symmetry_cell_setting	triclinic
loop_
_symmetry_equiv_pos_as_xyz
  x,y,z
_cell_length_a	25.639242
_cell_length_b	18.050589
_cell_length_c	18.050582
_cell_angle_alpha	90.018712
_cell_angle_beta	89.975426
_cell_angle_gamma	89.969774
loop_
_atom_site_label
_atom_site_type_symbol
_atom_site_fract_x
_atom_site_fract_y
_atom_site_fract_z
Zn1	Zn	0.799252	0.295790	-0.420110
Zn2	Zn	1.132585	0.629123	-0.086776
Zn3	Zn	1.465919	0.962457	0.246557
Zn4	Zn	0.799178	0.419975	-0.295929
Zn5	Zn	1.132511	0.753308	0.037404
Zn6	Zn	1.465845	1.086642	0.370737
Zn7	Zn	0.711825	0.295793	-0.295915
Zn8	Zn	1.045158	0.629127	0.037419
Zn9	Zn	1.378491	0.962460	0.370752
Zn10	Zn	0.711779	0.419933	-0.420059
Zn11	Zn	1.045113	0.753266	-0.086726
Zn12	Zn	1.378446	1.086600	0.246608
O13	O	0.755509	0.357873	-0.358003
O14	O	1.088842	0.691206	-0.024670
O15	O	1.422175	1.024540	0.308663
O16	O	0.872407	0.312279	-0.403664
O17	O	1.205741	0.645613	-0.070331
O18	O	1.539074	0.978946	0.263002
O19	O	0.787578	0.403521	-0.192003
O20	O	1.120911	0.736854	0.141330
O21	O	1.454245	1.070188	0.474664
O22	O	0.723472	0.191868	-0.312404
O23	O	1.056805	0.525202	0.020929
O24	O	1.390139	0.858535	0.354262
O25	O	0.872353	0.403518	-0.312430
O26	O	1.205686	0.736851	0.020904
O27	O	1.539020	1.070184	0.354237
O28	O	0.787704	0.191866	-0.403650
O29	O	1.121038	0.525199	-0.070317
O30	O	1.454371	0.858533	0.263017
O31	O	0.723400	0.312285	-0.191992
O32	O	1.056733	0.645619	0.141341
O33	O	1.390067	0.978952	0.474675
O34	O	0.638653	0.312245	-0.312355
O35	O	0.971987	0.645578	0.020978
O36	O	1.305320	0.978911	0.354311
O37	O	0.723395	0.403446	-0.523990
O38	O	1.056728	0.736780	-0.190657
O39	O	1.390062	1.070113	0.142676
O40	O	0.638620	0.403450	-0.403564
O41	O	0.971954	0.736783	-0.070230
O42	O	1.305287	1.070116	0.263103
O43	O	0.787661	0.312239	-0.524028
O44	O	1.120994	0.645572	-0.190694
O45	O	1.454327	0.978906	0.142639
O46	O	0.787534	0.523894	-0.312380
O47	O	1.120868	0.857227	0.020953
O48	O	1.454201	1.190561	0.354286
O49	O	0.723323	0.523863	-0.403578
O50	O	1.056657	0.857197	-0.070245
O51	O	1.389990	1.190530	0.263089
C52	C	0.619666	0.357844	-0.357953
C53	C	0.952999	0.691177	-0.024620
C54	C	1.286333	1.024510	0.308714
C55	C	0.561552	0.357849	-0.357949
C56	C	0.894885	0.691182	-0.024616
C57	C	1.228219	1.024516	0.308718
C58	C	0.201180	0.405443	-0.405450
C59	C	0.534514	0.738776	-0.072117
C60	C	0.867847	1.072109	0.261216
C61	C	0.146576	0.405447	-0.405462
C62	C	0.479909	0.738780	-0.072129
C63	C	0.813243	1.072114	0.261205
O64	O	0.118332	0.445877	-0.445807
O65	O	0.451666	0.779210	-0.112473
O66	O	0.784999	1.112543	0.220860
N67	N	0.119269	0.357893	-0.358052
N68	N	0.452603	0.691227	-0.024718
N69	N	0.785936	1.024560	0.308615
C70	C	0.146570	0.310327	-0.310632
C71	C	0.479903	0.643660	0.022702
C72	C	0.813237	0.976993	0.356035
O73	O	0.118329	0.269878	-0.270307
O74	O	0.451663	0.603212	0.063026
O75	O	0.784996	0.936545	0.396360
C76	C	0.201173	0.310319	-0.310624
C77	C	0.534507	0.643652	0.022709
C78	C	0.867840	0.976985	0.356042
C79	C	0.228477	0.357881	-0.358033
C80	C	0.561810	0.691214	-0.024699
C81	C	0.895144	1.024548	0.308634
C82	C	0.228484	0.453000	-0.452855
C83	C	0.561818	0.786334	-0.119522
C84	C	0.895151	1.119667	0.213811
C85	C	0.283085	0.452997	-0.452842
C86	C	0.616418	0.786330	-0.119509
C87	C	0.949752	1.119663	0.213824
C88	C	0.310382	0.405435	-0.405425
C89	C	0.643715	0.738768	-0.072091
C90	C	0.977048	1.072102	0.261242
C91	C	0.283078	0.357877	-0.358020
C92	C	0.616411	0.691211	-0.024686
C93	C	0.949744	1.024544	0.308647
C94	C	0.228473	0.262749	-0.263209
C95	C	0.561806	0.596082	0.070125
C96	C	0.895139	0.929416	0.403458
C97	C	0.283080	0.262745	-0.263206
C98	C	0.616413	0.596078	0.070128
C99	C	0.949746	0.929411	0.403461
C100	C	0.310384	0.310307	-0.310614
C101	C	0.643717	0.643640	0.022719
C102	C	0.977050	0.976974	0.356053
C103	C	0.364975	0.310312	-0.310589
C104	C	0.698308	0.643645	0.022744
C105	C	1.031641	0.976979	0.356078
N106	N	0.392281	0.357866	-0.357999
N107	N	0.725615	0.691199	-0.024666
N108	N	1.058948	1.024532	0.308667
C109	C	0.364985	0.405427	-0.405417
C110	C	0.698318	0.738761	-0.072084
C111	C	1.031652	1.072094	0.261250
C112	C	0.031899	0.310345	-0.310652
C113	C	0.365233	0.643679	0.022681
C114	C	0.698566	0.977012	0.356015
C115	C	-0.022703	0.310356	-0.310655
C116	C	0.310630	0.643690	0.022678
C117	C	0.643964	0.977023	0.356012
C118	C	-0.022693	0.405476	-0.405486
C119	C	0.310640	0.738810	-0.072153
C120	C	0.643974	1.072143	0.261180
C121	C	0.031910	0.405468	-0.405479
C122	C	0.365244	0.738802	-0.072146
C123	C	0.698577	1.072135	0.261188
C124	C	0.059206	0.357899	-0.358062
C125	C	0.392539	0.691233	-0.024729
C126	C	0.725873	1.024566	0.308604
C127	C	0.479650	0.405416	-0.405386
C128	C	0.812983	0.738750	-0.072053
C129	C	1.146317	1.072083	0.261281
C130	C	0.534255	0.405410	-0.405367
C131	C	0.867589	0.738744	-0.072033
C132	C	1.200922	1.072077	0.261300
C133	C	0.534240	0.310288	-0.310538
C134	C	0.867574	0.643622	0.022795
C135	C	1.200907	0.976955	0.356128
C136	C	0.479640	0.310297	-0.310555
C137	C	0.812973	0.643630	0.022779
C138	C	1.146307	0.976963	0.356112
C139	C	0.452346	0.357863	-0.357984
C140	C	0.785679	0.691196	-0.024651
C141	C	1.119013	1.024530	0.308682
O142	O	0.393253	0.269901	-0.270267
O143	O	0.726587	0.603234	0.063066
O144	O	1.059920	0.936568	0.396400
O145	O	0.393232	0.445862	-0.445742
O146	O	0.726565	0.779195	-0.112409
O147	O	1.059899	1.112529	0.220925
C148	C	0.755430	0.550825	-0.357992
C149	C	1.088763	0.884158	-0.024658
C150	C	1.422097	1.217492	0.308675
C151	C	0.755444	0.633371	-0.358011
C152	C	1.088778	0.966704	-0.024678
C153	C	1.422111	1.300037	0.308655
C154	C	0.720545	0.832832	-0.407588
C155	C	1.053878	1.166165	-0.074255
C156	C	1.387211	1.499498	0.259079
C157	C	0.707799	0.882265	-0.339818
C158	C	1.041132	1.215598	-0.006485
C159	C	1.374465	1.548932	0.326849
C160	C	0.755484	0.784501	-0.358022
C161	C	1.088817	1.117834	-0.024688
C162	C	1.422150	1.451168	0.308645
C163	C	0.768244	0.882149	-0.425800
C164	C	1.101577	1.215483	-0.092466
C165	C	1.434910	1.548816	0.240867
C166	C	0.755521	0.930486	-0.358037
C167	C	1.088854	1.263820	-0.024704
C168	C	1.422187	1.597153	0.308629
C169	C	0.742713	0.832847	-0.290216
C170	C	1.076046	1.166181	0.043118
C171	C	1.409379	1.499514	0.376451
C172	C	0.803180	0.832727	-0.376243
C173	C	1.136513	1.166061	-0.042910
C174	C	1.469846	1.499394	0.290423
C175	C	0.790452	0.882138	-0.308427
C176	C	1.123785	1.215472	0.024907
C177	C	1.457119	1.548805	0.358240
C178	C	0.755461	0.700403	-0.358013
C179	C	1.088794	1.033736	-0.024680
C180	C	1.422128	1.367070	0.308653
C181	C	0.755543	1.014583	-0.358038
C182	C	1.088877	1.347916	-0.024705
C183	C	1.422210	1.681249	0.308629
C184	C	0.891881	0.357903	-0.358054
C185	C	1.225215	0.691236	-0.024721
C186	C	1.558548	1.024569	0.308613
C187	C	0.949996	0.357916	-0.358076
C188	C	1.283329	0.691249	-0.024743
C189	C	1.616662	1.024582	0.308591
C190	C	0.755531	0.357838	-0.551709
C191	C	1.088864	0.691171	-0.218376
C192	C	1.422198	1.024504	0.114958
C193	C	0.755541	0.357822	-0.634255
C194	C	1.088874	0.691156	-0.300921
C195	C	1.422207	1.024489	0.032412
C196	C	0.755582	1.164167	-0.358032
C197	C	1.088915	1.497501	-0.024699
C198	C	1.422248	1.830834	0.308635
C199	C	0.755562	1.081621	-0.358047
C200	C	1.088895	1.414955	-0.024713
C201	C	1.422228	1.748288	0.308620
C202	C	0.720626	0.407340	-0.883060
C203	C	1.053959	0.740674	-0.549727
C204	C	1.387292	1.074007	-0.216394
C205	C	0.707860	0.339601	-0.833664
C206	C	1.041193	0.672935	-0.500331
C207	C	1.374527	1.006268	-0.166998
C208	C	0.755585	0.357713	-0.931375
C209	C	1.088918	0.691047	-0.598042
C210	C	1.422252	1.024380	-0.264709
C211	C	0.768304	0.425502	-0.833689
C212	C	1.101637	0.758835	-0.500356
C213	C	1.434971	1.092169	-0.167023
C214	C	0.755562	0.357771	-0.785390
C215	C	1.088895	0.691104	-0.452057
C216	C	1.422229	1.024437	-0.118723
C217	C	0.742795	0.289938	-0.883067
C218	C	1.076128	0.623272	-0.549733
C219	C	1.409461	0.956605	-0.216400
C220	C	0.803261	0.375885	-0.883096
C221	C	1.136594	0.709218	-0.549763
C222	C	1.469928	1.042551	-0.216429
C223	C	0.790513	0.308099	-0.833722
C224	C	1.123847	0.641433	-0.500389
C225	C	1.457180	0.974766	-0.167056
C226	C	0.755597	0.357681	-1.015474
C227	C	1.088930	0.691015	-0.682140
C228	C	1.422264	1.024348	-0.348807
C229	C	0.755550	0.357795	-0.701293
C230	C	1.088883	0.691128	-0.367960
C231	C	1.422217	1.024462	-0.034627
C232	C	0.755516	0.357854	-0.165051
C233	C	1.088849	0.691188	0.168282
C234	C	1.422183	1.024521	0.501616
C235	C	0.755608	0.357660	-0.082506
C236	C	1.088941	0.690994	0.250828
C237	C	1.422274	1.024327	0.584161
H238	H	0.206265	0.491731	-0.491473
H239	H	0.539599	0.825064	-0.158139
H240	H	0.872932	1.158398	0.175194
N241	N	-0.052150	0.259064	-0.259516
N242	N	0.281184	0.592398	0.073817
N243	N	0.614517	0.925731	0.407151
H244	H	-0.074827	0.289199	-0.225052
H245	H	0.258506	0.622533	0.108282
H246	H	0.591840	0.955866	0.441615
H247	H	-0.026534	0.228948	-0.229527
H248	H	0.306799	0.562281	0.103807
H249	H	0.640133	0.895615	0.437140
N250	N	0.563704	0.456715	-0.456498
N251	N	0.897038	0.790048	-0.123165
N252	N	1.230371	1.123381	0.210168
H253	H	0.538123	0.486843	-0.486539
H254	H	0.871457	0.820176	-0.153206
H255	H	1.204790	1.153509	0.180128
H256	H	0.586385	0.426533	-0.490914
H257	H	0.919718	0.759867	-0.157581
H258	H	1.253052	1.093200	0.175752
H259	H	0.305301	0.224003	-0.224597
H260	H	0.638634	0.557336	0.108736
H261	H	0.971968	0.890670	0.442070
H262	H	0.305311	0.491725	-0.491449
H263	H	0.638644	0.825058	-0.158115
H264	H	0.971978	1.158392	0.175218
H265	H	0.457434	0.444148	-0.444010
H266	H	0.790767	0.777481	-0.110676
H267	H	1.124100	1.110814	0.222657
N268	N	0.654391	0.911088	-0.319412
N269	N	0.987724	1.244421	0.013922
N270	N	1.321058	1.577755	0.347255
H271	H	0.654886	0.967036	-0.319097
H272	H	0.988220	1.300369	0.014236
H273	H	1.321553	1.633703	0.347569
H274	H	0.644523	0.892329	-0.268599
H275	H	0.977856	1.225662	0.064734
H276	H	1.311189	1.558996	0.398068
H277	H	0.731888	0.811280	-0.232887
H278	H	1.065221	1.144614	0.100446
H279	H	1.398555	1.477947	0.433780
N280	N	0.450187	0.259008	-0.259414
N281	N	0.783520	0.592342	0.073919
N282	N	1.116853	0.925675	0.407252
H283	H	0.475767	0.228881	-0.229371
H284	H	0.809100	0.562214	0.103962
H285	H	1.142434	0.895547	0.437295
H286	H	0.427558	0.224680	-0.289708
H287	H	0.760891	0.558014	0.043625
H288	H	1.094225	0.891347	0.376958
N289	N	0.563687	0.258993	-0.259395
N290	N	0.897020	0.592326	0.073938
N291	N	1.230354	0.925660	0.407272
H292	H	0.602420	0.266209	-0.266588
H293	H	0.935754	0.599543	0.066745
H294	H	1.269087	0.932876	0.400079
H295	H	0.554166	0.205971	-0.271050
H296	H	0.887499	0.539304	0.062283
H297	H	1.220833	0.872638	0.395616
N298	N	0.654444	0.319272	-0.804892
N299	N	0.987777	0.652605	-0.471558
N300	N	1.321110	0.985938	-0.138225
H301	H	0.656960	0.272698	-0.774101
H302	H	0.990293	0.606031	-0.440768
H303	H	1.323626	0.939364	-0.107435
H304	H	0.630137	0.310531	-0.848028
H305	H	0.963470	0.643865	-0.514695
H306	H	1.296803	0.977198	-0.181362
H307	H	0.820014	0.903652	-0.266468
H308	H	1.153348	1.236985	0.066865
H309	H	1.486681	1.570319	0.400198
H310	H	0.054138	0.444197	-0.444084
H311	H	0.387471	0.777530	-0.110751
H312	H	0.720804	1.110863	0.222583
H313	H	0.779072	0.482807	-0.812001
H314	H	1.112406	0.816140	-0.478668
H315	H	1.445739	1.149473	-0.145334
N316	N	0.856573	0.803882	-0.396676
N317	N	1.189906	1.137216	-0.063342
N318	N	1.523240	1.470549	0.269991
H319	H	0.866167	0.821783	-0.447905
H320	H	1.199501	1.155116	-0.114571
H321	H	1.532834	1.488450	0.218762
H322	H	0.856206	0.747938	-0.395995
H323	H	1.189539	1.081271	-0.062662
H324	H	1.522872	1.414605	0.270672
H325	H	0.779021	0.903806	-0.483113
H326	H	1.112355	1.237139	-0.149779
H327	H	1.445688	1.570472	0.183554
N328	N	-0.052140	0.456777	-0.456632
N329	N	0.281194	0.790110	-0.123299
N330	N	0.614527	1.123443	0.210035
H331	H	-0.090873	0.449559	-0.449441
H332	H	0.242460	0.782892	-0.116108
H333	H	0.575794	1.116225	0.217226
H334	H	-0.042573	0.445289	-0.509690
H335	H	0.290760	0.778622	-0.176357
H336	H	0.624094	1.111955	0.156977
H337	H	0.206251	0.224021	-0.224602
H338	H	0.539584	0.557354	0.108732
H339	H	0.872918	0.890687	0.442065
N340	N	0.061331	0.259041	-0.259493
N341	N	0.394665	0.592374	0.073840
N342	N	0.727998	0.925708	0.407173
H343	H	0.083963	0.289169	-0.225020
H344	H	0.417297	0.622502	0.108313
H345	H	0.750630	0.955835	0.441647
H346	H	0.083978	0.224666	-0.289774
H347	H	0.417311	0.557999	0.043560
H348	H	0.750644	0.891333	0.376893
N349	N	0.728469	0.214009	-0.911667
N350	N	1.061802	0.547342	-0.578334
N351	N	1.395136	0.880676	-0.245000
H352	H	0.728550	0.214461	-0.967619
H353	H	1.061884	0.547794	-0.634285
H354	H	1.395217	0.881128	-0.300952
H355	H	0.692573	0.200240	-0.893194
H356	H	1.025906	0.533573	-0.559861
H357	H	1.359240	0.866907	-0.226528
H358	H	0.691049	0.449231	-0.904724
H359	H	1.024382	0.782564	-0.571391
H360	H	1.357716	1.115897	-0.238058
N361	N	0.829666	0.252485	-0.805208
N362	N	1.162999	0.585818	-0.471875
N363	N	1.496333	0.919151	-0.138542
H364	H	0.819984	0.201346	-0.823269
H365	H	1.153317	0.534680	-0.489936
H366	H	1.486650	0.868013	-0.156603
H367	H	0.829646	0.253174	-0.749261
H368	H	1.162980	0.586507	-0.415927
H369	H	1.496313	0.919841	-0.082594
H370	H	0.843578	0.391255	-0.904825
H371	H	1.176911	0.724588	-0.571492
H372	H	1.510245	1.057921	-0.238158
H373	H	0.690959	0.811181	-0.449445
H374	H	1.024293	1.144514	-0.116112
H375	H	1.357626	1.477848	0.217222
