data_functionalizedCrystal
_audit_creation_method	'MofGen! by Chris Wilmer'
_symmetry_space_group_name_H-M	'P1'
_symmetry_Int_Tables_number	1
_symmetry_cell_setting	triclinic
loop_
_symmetry_equiv_pos_as_xyz
  x,y,z
_cell_length_a	12.759401
_cell_length_b	19.120904
_cell_length_c	12.759393
_cell_angle_alpha	87.522353
_cell_angle_beta	90.019676
_cell_angle_gamma	87.527679
loop_
_atom_site_label
_atom_site_type_symbol
_atom_site_fract_x
_atom_site_fract_y
_atom_site_fract_z
Zn1	Zn	1.588297	0.279590	0.576089
Zn2	Zn	2.088297	0.779590	1.076089
Zn3	Zn	1.580638	0.397064	0.392889
Zn4	Zn	2.080638	0.897064	0.892889
Zn5	Zn	1.412593	0.279625	0.400425
Zn6	Zn	1.912593	0.779625	0.900425
Zn7	Zn	1.405041	0.397013	0.568534
Zn8	Zn	1.905041	0.897013	1.068534
O9	O	1.496642	0.338323	0.484484
O10	O	1.996642	0.838323	0.984484
O11	O	1.734302	0.295180	0.551795
O12	O	2.234302	0.795180	1.051795
O13	O	1.558302	0.381522	0.246865
O14	O	2.058302	0.881522	0.746865
O15	O	1.442267	0.181329	0.430043
O16	O	1.942267	0.681329	0.930043
O17	O	1.728674	0.381488	0.417199
O18	O	2.228674	0.881488	0.917199
O19	O	1.571356	0.181303	0.559102
O20	O	2.071356	0.681303	1.059102
O21	O	1.434840	0.295240	0.252402
O22	O	1.934840	0.795240	0.752402
O23	O	1.264571	0.295190	0.422717
O24	O	1.764571	0.795190	0.922717
O25	O	1.429395	0.381400	0.716559
O26	O	1.929395	0.881400	1.216559
O27	O	1.259022	0.381434	0.546226
O28	O	1.759022	0.881434	1.046226
O29	O	1.564032	0.295130	0.722110
O30	O	2.064032	0.795130	1.222110
O31	O	1.550978	0.495348	0.409873
O32	O	2.050978	0.995348	0.909873
O33	O	1.421968	0.495310	0.538918
O34	O	1.921968	0.995310	1.038918
C35	C	1.223676	0.338311	0.484470
C36	C	1.723676	0.838311	0.984470
C37	C	1.106898	0.338322	0.484488
C38	C	1.606898	0.838322	0.984488
C39	C	1.054962	0.293463	0.554670
C40	C	1.554962	0.793463	1.054670
C41	C	0.945237	0.293470	0.554677
C42	C	1.445237	0.793470	1.054677
C43	C	0.939395	0.383202	0.414315
C44	C	1.439395	0.883202	0.914315
C45	C	1.049118	0.383191	0.414304
C46	C	1.549118	0.883191	0.914304
C47	C	1.484851	0.520815	0.472781
C48	C	1.984851	1.020815	0.972781
C49	C	1.479903	0.598886	0.467810
C50	C	1.979903	1.098886	0.967810
C51	C	1.544737	0.635490	0.532723
C52	C	2.044737	1.135490	1.032723
C53	C	1.540084	0.708846	0.528053
C54	C	2.040084	1.208846	1.028053
C55	C	1.470600	0.745596	0.458465
C56	C	1.970600	1.245596	0.958465
C57	C	1.405758	0.708987	0.393549
C58	C	1.905758	1.208987	0.893549
C59	C	1.410407	0.635633	0.398225
C60	C	1.910407	1.135633	0.898225
C61	C	1.453198	0.967083	0.440989
C62	C	1.953198	1.467083	0.940989
C63	C	1.448556	1.040443	0.436316
C64	C	1.948556	1.540443	0.936316
C65	C	1.582881	1.040297	0.570822
C66	C	2.082881	1.540297	1.070822
C67	C	1.587528	0.966941	0.575487
C68	C	2.087528	1.466941	1.075487
C69	C	1.522683	0.930338	0.510575
C70	C	2.022683	1.430338	1.010575
C71	C	1.465844	0.820578	0.453688
C72	C	1.965844	1.320578	0.953688
C73	C	1.527434	0.855358	0.515358
C74	C	2.027434	1.355358	1.015358
C75	C	1.770675	0.338335	0.484499
C76	C	2.270675	0.838335	0.984499
C77	C	1.887451	0.338341	0.484505
C78	C	2.387451	0.838341	0.984505
C79	C	1.496725	0.338255	0.758522
C80	C	1.996725	0.838255	1.258522
C81	C	1.496761	0.338227	0.875301
C82	C	1.996761	0.838227	1.375301
C83	C	1.508464	1.155118	0.496245
C84	C	2.008464	1.655118	0.996245
C85	C	1.513391	1.077047	0.501229
C86	C	2.013391	1.577047	1.001229
C87	C	1.496623	0.338339	0.211516
C88	C	1.996623	0.838339	0.711516
C89	C	1.496804	0.338170	0.094750
C90	C	1.996804	0.838170	0.594750
C91	C	1.566872	0.293299	0.933055
C92	C	2.066872	0.793299	1.433055
C93	C	1.566891	0.293268	1.042781
C94	C	2.066891	0.793268	1.542781
C95	C	1.426685	0.383100	1.036988
C96	C	1.926685	0.883100	1.536988
C97	C	1.426661	0.383127	0.927265
C98	C	1.926661	0.883127	1.427265
H99	H	0.902956	0.256940	0.611825
H100	H	1.402956	0.756940	1.111825
C101	C	1.372111	1.080867	0.359764
C102	C	1.872111	1.580867	0.859764
N103	N	1.314535	1.111315	0.302108
N104	N	1.814535	1.611315	0.802108
C105	C	0.875826	0.432559	0.337124
C106	C	1.375826	0.932559	0.837124
N107	N	0.827947	0.469738	0.278984
N108	N	1.327947	0.969738	0.778984
H109	H	1.623981	0.256682	1.089800
H110	H	2.123981	0.756682	1.589800
H111	H	1.644107	0.937020	0.632151
H112	H	2.144107	1.437020	1.132151
C113	C	1.349579	0.432486	1.094159
C114	C	1.849579	0.932486	1.594159
N115	N	1.291500	0.469684	1.137219
N116	N	1.791500	0.969684	1.637219
H117	H	1.623948	0.256736	0.890749
H118	H	2.123948	0.756736	1.390749
C119	C	1.329389	0.749415	0.316937
C120	C	1.829389	1.249415	0.816937
N121	N	1.271892	0.779865	0.259205
N122	N	1.771892	1.279865	0.759205
H123	H	1.091405	0.419722	0.357148
H124	H	1.591405	0.919722	0.857148
C125	C	1.118517	0.244100	0.631865
C126	C	1.618517	0.744100	1.131865
N127	N	1.166384	0.206916	0.690008
N128	N	1.666384	0.706916	1.190008
H129	H	1.369561	0.419712	0.880239
H130	H	1.869561	0.919712	1.380239
C131	C	1.621178	0.595071	0.609275
C132	C	2.121178	1.095071	1.109275
N133	N	1.678752	0.564630	0.666938
N134	N	2.178752	1.064630	1.166938
C135	C	1.611422	0.749107	0.599450
C136	C	2.111422	1.249107	1.099450
N137	N	1.665161	0.779431	0.653224
N138	N	2.165161	1.279431	1.153224
H139	H	1.635673	1.070107	0.623671
H140	H	2.135673	1.570107	1.123671
H141	H	1.357610	0.605830	0.345367
H142	H	1.857610	1.105830	0.845367
C143	C	1.381841	0.926830	0.369607
C144	C	1.881841	1.426830	0.869607
N145	N	1.328082	0.896509	0.315848
N146	N	1.828082	1.396509	0.815848
H147	H	1.584004	0.825433	0.572021
H148	H	2.084004	1.325433	1.072021
H149	H	1.409273	0.850508	0.397026
H150	H	1.909273	1.350508	0.897026
