data_functionalizedCrystal
_audit_creation_method	'MofGen! by Chris Wilmer'
_symmetry_space_group_name_H-M	'P1'
_symmetry_Int_Tables_number	1
_symmetry_cell_setting	triclinic
loop_
_symmetry_equiv_pos_as_xyz
  x,y,z
_cell_length_a	17.699083
_cell_length_b	14.519709
_cell_length_c	16.176319
_cell_angle_alpha	89.992256
_cell_angle_beta	89.998611
_cell_angle_gamma	83.481580
loop_
_atom_site_label
_atom_site_type_symbol
_atom_site_fract_x
_atom_site_fract_y
_atom_site_fract_z
O1	O	1.004413	0.116624	-0.068632
O2	O	1.337746	0.449958	0.264701
O3	O	1.671079	0.783291	0.598034
O4	O	0.784078	0.131798	-0.068660
O5	O	1.117411	0.465131	0.264674
O6	O	1.450744	0.798464	0.598007
O7	O	0.900087	-0.010052	-0.068638
O8	O	1.233420	0.323281	0.264695
O9	O	1.566754	0.656614	0.598029
O10	O	0.888403	0.258474	-0.068654
O11	O	1.221737	0.591808	0.264679
O12	O	1.555070	0.925141	0.598012
O13	O	0.900071	-0.010061	0.068855
O14	O	1.233404	0.323272	0.402189
O15	O	1.566738	0.656605	0.735522
O16	O	0.784062	0.131789	0.068833
O17	O	1.117395	0.465122	0.402167
O18	O	1.450728	0.798455	0.735500
O19	O	1.004397	0.116615	0.068861
O20	O	1.337730	0.449949	0.402194
O21	O	1.671063	0.783282	0.735527
Cu22	Cu	0.894228	0.124201	0.081401
Cu23	Cu	1.227561	0.457535	0.414735
Cu24	Cu	1.560894	0.790868	0.748068
Cu25	Cu	0.894247	0.124212	-0.081200
Cu26	Cu	1.227580	0.457545	0.252133
Cu27	Cu	1.560913	0.790878	0.585466
O28	O	0.888387	0.258465	0.068839
O29	O	1.221721	0.591799	0.402172
O30	O	1.555054	0.925132	0.735506
C31	C	0.755871	0.131249	0.000083
C32	C	1.089204	0.464583	0.333417
C33	C	1.422538	0.797916	0.666750
C34	C	0.671848	0.129618	0.000073
C35	C	1.005182	0.462952	0.333407
C36	C	1.338515	0.796285	0.666740
C37	C	0.899534	-0.044414	0.000109
C38	C	1.232868	0.288919	0.333442
C39	C	1.566201	0.622252	0.666775
C40	C	0.897903	-0.146789	0.000109
C41	C	1.231236	0.186545	0.333442
C42	C	1.564569	0.519878	0.666776
C43	C	0.623466	0.212881	0.000068
C44	C	0.956799	0.546214	0.333402
C45	C	1.290132	0.879548	0.666735
C46	C	0.544518	0.211343	0.000079
C47	C	0.877851	0.544676	0.333413
C48	C	1.211185	0.878010	0.666746
C49	C	0.513954	0.126541	0.000089
C50	C	0.847288	0.459875	0.333422
C51	C	1.180621	0.793208	0.666756
C52	C	0.562343	0.043272	0.000096
C53	C	0.895677	0.376605	0.333430
C54	C	1.229010	0.709939	0.666763
C55	C	0.641289	0.044811	0.000091
C56	C	0.974623	0.378144	0.333425
C57	C	1.307956	0.711478	0.666758
C58	C	0.243962	0.037064	0.000117
C59	C	0.577296	0.370397	0.333450
C60	C	0.910629	0.703730	0.666784
C61	C	0.165010	0.035531	0.000119
C62	C	0.498343	0.368864	0.333453
C63	C	0.831677	0.702198	0.666786
C64	C	0.147191	0.203596	0.000105
C65	C	0.480524	0.536929	0.333438
C66	C	0.813858	0.870262	0.666772
C67	C	0.226137	0.205135	0.000100
C68	C	0.559471	0.538468	0.333433
C69	C	0.892804	0.871801	0.666767
C70	C	0.274519	0.121866	0.000112
C71	C	0.607852	0.455199	0.333445
C72	C	0.941186	0.788533	0.666778
C73	C	0.360123	0.123535	0.000102
C74	C	0.693456	0.456868	0.333435
C75	C	1.026790	0.790201	0.666768
C76	C	0.428352	0.124872	0.000093
C77	C	0.761685	0.458205	0.333427
C78	C	1.095019	0.791538	0.666760
C79	C	0.891896	-0.521659	0.000087
C80	C	1.225229	-0.188326	0.333420
C81	C	1.558563	0.145008	0.666754
C82	C	0.893564	-0.417358	0.000093
C83	C	1.226897	-0.084025	0.333427
C84	C	1.560231	0.249309	0.666760
C85	C	0.894899	-0.334227	0.000099
C86	C	1.228232	-0.000894	0.333432
C87	C	1.561566	0.332440	0.666765
C88	C	0.896568	-0.229920	0.000104
C89	C	1.229901	0.103414	0.333437
C90	C	1.563234	0.436747	0.666770
C91	C	1.032603	0.117164	0.000116
C92	C	1.365937	0.450497	0.333449
C93	C	1.699270	0.783830	0.666782
C94	C	1.116626	0.118795	0.000121
C95	C	1.449959	0.452128	0.333454
C96	C	1.783293	0.785461	0.666787
C97	C	0.888940	0.292827	0.000090
C98	C	1.222273	0.626161	0.333424
C99	C	1.555607	0.959494	0.666757
C100	C	0.890572	0.395202	0.000085
C101	C	1.223905	0.728535	0.333418
C102	C	1.557238	1.061868	0.666751
N103	N	0.894220	0.124193	0.195767
N104	N	1.227553	0.457526	0.529100
N105	N	1.560887	0.790860	0.862433
N106	N	0.894260	0.124213	-0.195565
N107	N	1.227594	0.457546	0.137768
N108	N	1.560927	0.790879	0.471101
C109	C	0.945604	0.061408	0.239040
C110	C	1.278938	0.394741	0.572374
C111	C	1.612271	0.728074	0.905707
C112	C	0.945608	0.061407	0.325588
C113	C	1.278942	0.394740	0.658921
C114	C	1.612275	0.728073	0.992254
C115	C	0.894231	0.124196	0.368859
C116	C	1.227564	0.457530	0.702193
C117	C	1.560897	0.790863	1.035526
C118	C	0.842841	0.186985	0.325579
C119	C	1.176174	0.520318	0.658913
C120	C	1.509507	0.853651	0.992246
C121	C	0.842834	0.186981	0.239034
C122	C	1.176167	0.520314	0.572367
C123	C	1.509500	0.853647	0.905700
C124	C	0.842867	0.187002	0.674608
C125	C	1.176200	0.520335	1.007941
C126	C	1.509533	0.853669	1.341274
C127	C	0.842879	0.187003	0.761159
C128	C	1.176212	0.520337	1.094492
C129	C	1.509546	0.853670	1.427826
C130	C	0.945641	0.061428	0.761161
C131	C	1.278974	0.394761	1.094495
C132	C	1.612308	0.728095	1.427828
C133	C	0.945634	0.061424	0.674616
C134	C	1.278968	0.394757	1.007949
C135	C	1.612301	0.728091	1.341282
C136	C	0.894242	0.124209	0.631343
C137	C	1.227575	0.457542	0.964677
C138	C	1.560909	0.790875	1.298010
C139	C	0.894237	0.124208	0.537499
C140	C	1.227571	0.457541	0.870833
C141	C	1.560904	0.790874	1.204166
C142	C	0.894238	0.124202	0.462702
C143	C	1.227572	0.457536	0.796035
C144	C	1.560905	0.790869	1.129368
H145	H	0.648344	0.281937	0.000060
H146	H	0.981677	0.615270	0.333393
H147	H	1.315011	0.948603	0.666727
H148	H	0.505128	0.279144	0.000074
H149	H	0.838461	0.612478	0.333408
H150	H	1.171794	0.945811	0.666741
N151	N	1.001073	-0.006294	0.807833
N152	N	1.334406	0.327039	1.141167
N153	N	1.667739	0.660372	1.474500
H154	H	0.993282	0.003230	0.869226
H155	H	1.326616	0.336563	1.202559
H156	H	1.659949	0.669897	1.535892
H157	H	0.992247	-0.071707	0.792715
H158	H	1.325581	0.261627	1.126048
H159	H	1.658914	0.594960	1.459381
H160	H	0.107789	0.271397	0.000100
H161	H	0.441122	0.604730	0.333433
H162	H	0.774455	0.938064	0.666767
N163	N	0.787453	0.254718	0.807835
N164	N	1.120787	0.588051	1.141168
N165	N	1.454120	0.921385	1.474501
H166	H	0.816426	0.295515	0.843731
H167	H	1.149759	0.628848	1.177064
H168	H	1.483093	0.962181	1.510398
H169	H	0.754906	0.294426	0.767238
H170	H	1.088239	0.627759	1.100571
H171	H	1.421572	0.961092	1.433905
N172	N	1.001048	-0.006303	0.372249
N173	N	1.334381	0.327031	0.705582
N174	N	1.667715	0.660364	1.038915
H175	H	0.972096	-0.047109	0.408168
H176	H	1.305429	0.286224	0.741502
H177	H	1.638762	0.619557	1.074835
H178	H	1.033579	-0.046000	0.331639
H179	H	1.366913	0.287333	0.664973
H180	H	1.700246	0.620666	0.998306
H181	H	0.251017	0.274189	0.000088
H182	H	0.584351	0.607522	0.333422
H183	H	0.917684	0.940856	0.666755
N184	N	0.132043	-0.055938	0.000131
N185	N	0.465376	0.277395	0.333464
N186	N	0.798709	0.610729	0.666798
H187	H	0.174671	-0.108456	0.000140
H188	H	0.508004	0.224878	0.333473
H189	H	0.841338	0.558211	0.666807
H190	H	0.099674	-0.060231	0.051102
H191	H	0.433007	0.273103	0.384436
H192	H	0.766341	0.606436	0.717769
H193	H	0.283346	-0.030739	0.000127
H194	H	0.616679	0.302594	0.333461
H195	H	0.950013	0.635927	0.666794
N196	N	0.787435	0.254712	0.627941
N197	N	1.120769	0.588045	0.961275
N198	N	1.454102	0.921378	1.294608
H199	H	0.754891	0.294488	0.668489
H200	H	1.088225	0.627821	1.001822
H201	H	1.421558	0.961154	1.335155
H202	H	0.816452	0.295441	0.592017
H203	H	1.149785	0.628774	0.925351
H204	H	1.483118	0.962108	1.258684
N205	N	0.787407	0.254698	0.192361
N206	N	1.120741	0.588032	0.525695
N207	N	1.454074	0.921365	0.859028
H208	H	0.796207	0.320142	0.207408
H209	H	1.129541	0.653475	0.540741
H210	H	1.462874	0.986809	0.874075
H211	H	0.795222	0.245087	0.130984
H212	H	1.128555	0.578420	0.464318
H213	H	1.461889	0.911754	0.797651
H214	H	0.537452	-0.025775	0.000116
H215	H	0.870786	0.307558	0.333449
H216	H	1.204119	0.640891	0.666783
N217	N	0.693478	-0.044993	0.000103
N218	N	1.026811	0.288340	0.333436
N219	N	1.360144	0.621673	0.666769
H220	H	0.662138	-0.098949	0.000109
H221	H	0.995471	0.234384	0.333443
H222	H	1.328805	0.567717	0.666776
H223	H	0.726622	-0.048016	-0.050867
H224	H	1.059956	0.285317	0.282466
H225	H	1.393289	0.618650	0.615800
H226	H	0.801004	0.238106	0.360816
H227	H	1.134338	0.571440	0.694149
H228	H	1.467671	0.904773	1.027483
H229	H	0.987445	0.010281	0.203814
H230	H	1.320778	0.343614	0.537148
H231	H	1.654112	0.676948	0.870481
N232	N	1.001051	-0.006295	0.627944
N233	N	1.334385	0.327039	0.961277
N234	N	1.667718	0.660372	1.294611
H235	H	1.033604	-0.046072	0.668491
H236	H	1.366937	0.287262	1.001825
H237	H	1.700270	0.620595	1.335158
H238	H	0.972019	-0.047022	0.592046
H239	H	1.305353	0.286312	0.925380
H240	H	1.638686	0.619645	1.258713
