data_functionalizedCrystal
_audit_creation_method	'MofGen! by Chris Wilmer'
_symmetry_space_group_name_H-M	'P1'
_symmetry_Int_Tables_number	1
_symmetry_cell_setting	triclinic
loop_
_symmetry_equiv_pos_as_xyz
  x,y,z
_cell_length_a	14.971482
_cell_length_b	14.971486
_cell_length_c	13.448316
_cell_angle_alpha	89.993189
_cell_angle_beta	89.993798
_cell_angle_gamma	83.613368
loop_
_atom_site_label
_atom_site_type_symbol
_atom_site_fract_x
_atom_site_fract_y
_atom_site_fract_z
O1	O	1.186949	0.116549	-0.082679
O2	O	0.926549	0.130511	-0.082684
O3	O	1.063729	-0.006670	-0.082675
O4	O	1.049770	0.253730	-0.082689
O5	O	1.063711	-0.006679	0.082709
O6	O	0.926532	0.130503	0.082699
O7	O	1.186932	0.116540	0.082704
Cu8	Cu	1.056730	0.123521	0.097803
Cu9	Cu	1.056751	0.123531	-0.097783
O10	O	1.049752	0.253722	0.082695
C11	C	0.893215	0.129883	0.000007
C12	C	0.793918	0.128014	0.000005
C13	C	0.747264	0.127129	0.090157
C14	C	0.653966	0.125358	0.090158
C15	C	0.607322	0.124479	0.000007
C16	C	0.653983	0.125361	-0.090152
C17	C	0.747281	0.127125	-0.090152
C18	C	0.459521	0.121686	-0.090146
C19	C	0.366217	0.119923	-0.090146
C20	C	0.366206	0.119918	0.090165
C21	C	0.459504	0.121683	0.090165
C22	C	0.506158	0.122567	0.000006
C23	C	1.063096	-0.039999	0.000017
C24	C	1.061225	-0.139296	0.000016
C25	C	1.141814	-0.196522	0.000018
C26	C	1.140051	-0.289822	0.000008
C27	C	1.057698	-0.325893	0.000003
C28	C	0.977102	-0.268659	-0.000002
C29	C	0.978866	-0.175362	0.000001
C30	C	0.973431	-0.463122	-0.000006
C31	C	0.971667	-0.556426	-0.000007
C32	C	1.134616	-0.577582	0.000002
C33	C	1.136380	-0.484284	0.000004
C34	C	1.055784	-0.427057	0.000001
C35	C	1.220266	0.117168	0.000011
C36	C	1.319563	0.119038	0.000006
C37	C	1.050385	0.287051	0.000001
C38	C	1.052256	0.386348	-0.000005
N39	N	1.056722	0.123513	0.235367
N40	N	1.056766	0.123531	-0.235347
C41	C	1.117485	0.062794	0.287412
C42	C	1.117490	0.062794	0.391515
C43	C	1.056737	0.123517	0.443572
C44	C	0.995969	0.184239	0.391520
C45	C	0.995960	0.184234	0.287418
C46	C	0.995994	0.184245	0.608500
C47	C	0.996004	0.184250	0.712608
C48	C	1.117524	0.062804	0.712596
C49	C	1.117515	0.062800	0.608495
C50	C	1.056747	0.123523	0.556450
H51	H	0.497504	0.122406	-0.163563
O52	O	0.603686	0.124409	-0.187394
H53	H	0.553275	0.184527	-0.191721
O54	O	0.797564	0.128082	0.187398
H55	H	0.870277	0.129468	0.172256
H56	H	0.328242	0.119208	-0.163555
H57	H	0.785265	0.127848	-0.163563
H58	H	0.904607	-0.585792	0.000005
H59	H	0.946498	0.233678	0.433910
O60	O	0.930478	0.249737	0.768766
H61	H	0.886992	0.212001	0.816221
O62	O	1.183045	-0.002686	0.447641
H63	H	1.171596	-0.072438	0.427667
O64	O	1.183065	-0.002686	0.768736
H65	H	1.252797	0.008843	0.748745
O66	O	0.930428	0.249727	0.231276
H67	H	0.888190	0.291960	0.284962
H68	H	0.615986	0.124622	0.163569
H69	H	0.913242	-0.128768	-0.000001
H70	H	1.200240	-0.624181	0.000001
H71	H	1.166989	0.013359	0.566111
O72	O	0.886505	-0.401393	-0.000000
H73	H	0.828943	-0.442147	0.000010
H74	H	0.328216	0.119199	0.163576
H75	H	0.910049	-0.298036	-0.000013
H76	H	0.946507	0.233689	0.566128
O77	O	1.225201	-0.445373	-0.000002
H78	H	1.280948	-0.500838	-0.000015
H79	H	1.208876	-0.167161	0.000029
H80	H	0.497478	0.122404	0.163574
H81	H	1.205675	-0.336413	0.000012
H82	H	1.166960	0.013350	0.245034
