data_functionalizedCrystal
_audit_creation_method	'MofGen! by Chris Wilmer'
_symmetry_space_group_name_H-M	'P1'
_symmetry_Int_Tables_number	1
_symmetry_cell_setting	triclinic
loop_
_symmetry_equiv_pos_as_xyz
  x,y,z
_cell_length_a	14.908520
_cell_length_b	18.215407
_cell_length_c	18.215398
_cell_angle_alpha	90.017408
_cell_angle_beta	93.271864
_cell_angle_gamma	86.683764
loop_
_atom_site_label
_atom_site_type_symbol
_atom_site_fract_x
_atom_site_fract_y
_atom_site_fract_z
Zn1	Zn	-0.359296	-1.108168	-0.432984
Zn2	Zn	0.140704	-0.608168	0.067016
Zn3	Zn	-0.510158	-1.100981	-0.317017
Zn4	Zn	-0.010158	-0.600981	0.182983
Zn5	Zn	-0.359306	-0.985101	-0.309936
Zn6	Zn	0.140694	-0.485101	0.190064
Zn7	Zn	-0.510102	-0.977973	-0.440044
Zn8	Zn	-0.010102	-0.477973	0.059956
O9	O	-0.434716	-1.043056	-0.374995
O10	O	0.065284	-0.543056	0.125005
O11	O	-0.379328	-1.210198	-0.417610
O12	O	0.120672	-0.710198	0.082390
O13	O	-0.490175	-1.085585	-0.213095
O14	O	0.009825	-0.585585	0.286905
O15	O	-0.233060	-1.007417	-0.320341
O16	O	0.266940	-0.507417	0.179659
O17	O	-0.490165	-1.204918	-0.332409
O18	O	0.009835	-0.704918	0.167591
O19	O	-0.233053	-1.097834	-0.410743
O20	O	0.266947	-0.597834	0.089257
O21	O	-0.379345	-1.000448	-0.207893
O22	O	0.120655	-0.500448	0.292107
O23	O	-0.379290	-0.881172	-0.327186
O24	O	0.120710	-0.381172	0.172814
O25	O	-0.490070	-0.995268	-0.542090
O26	O	0.009930	-0.495268	-0.042090
O27	O	-0.490079	-0.875935	-0.422776
O28	O	0.009921	-0.375935	0.077224
O29	O	-0.379273	-1.090922	-0.536903
O30	O	0.120727	-0.590922	-0.036903
O31	O	-0.636396	-1.078673	-0.339255
O32	O	-0.136396	-0.578673	0.160745
O33	O	-0.636354	-0.988299	-0.429642
O34	O	-0.136354	-0.488299	0.070358
C35	C	-0.434681	-0.851851	-0.374979
C36	C	0.065319	-0.351851	0.125021
C37	C	-0.434687	-0.770052	-0.374991
C38	C	0.065313	-0.270052	0.125009
C39	C	-0.377086	-0.584601	-0.419433
C40	C	0.122914	-0.084601	0.080567
C41	C	-0.377090	-0.507742	-0.419435
C42	C	0.122910	-0.007742	0.080565
C43	C	-0.492332	-0.502263	-0.330563
C44	C	0.007668	-0.002263	0.169437
C45	C	-0.492322	-0.579121	-0.330557
C46	C	0.007678	-0.079121	0.169443
C47	C	-0.434700	-0.620288	-0.374997
C48	C	0.065300	-0.120288	0.125003
C49	C	-0.434715	-0.466571	-0.375004
C50	C	0.065285	0.033429	0.124996
C51	C	-0.434721	-0.383237	-0.375006
C52	C	0.065279	0.116763	0.124994
C53	C	-0.434693	-0.703627	-0.374994
C54	C	0.065307	-0.203627	0.125006
C55	C	-0.669109	-1.031953	-0.385999
C56	C	-0.169109	-0.531953	0.114001
C57	C	-0.769383	-1.027270	-0.390731
C58	C	-0.269383	-0.527270	0.109269
C59	C	-0.957791	-1.112673	-0.305579
C60	C	-0.457791	-0.612673	0.194421
C61	C	-1.052008	-1.108276	-0.310023
C62	C	-0.552008	-0.608276	0.189977
C63	C	-1.052035	-1.014082	-0.404066
C64	C	-0.552035	-0.514082	0.095934
C65	C	-0.957818	-1.018479	-0.399622
C66	C	-0.457818	-0.518479	0.100378
C67	C	-0.910700	-1.067776	-0.350376
C68	C	-0.410700	-0.567776	0.149624
C69	C	-0.816481	-1.072169	-0.345929
C70	C	-0.316481	-0.572169	0.154071
C71	C	-0.816510	-0.977979	-0.439976
C72	C	-0.316510	-0.477979	0.060024
C73	C	-0.910727	-0.973582	-0.444419
C74	C	-0.410727	-0.473582	0.055581
C75	C	-0.199407	-1.054223	-0.363965
C76	C	0.300593	-0.554223	0.136035
C77	C	-0.099133	-1.058981	-0.359264
C78	C	0.400867	-0.558981	0.140736
C79	C	-0.434664	-1.043102	-0.566946
C80	C	0.065336	-0.543102	-0.066946
C81	C	-0.434642	-1.043122	-0.648744
C82	C	0.065358	-0.543122	-0.148744
C83	C	-0.434742	-0.235008	-0.375010
C84	C	0.065258	0.264992	0.124990
C85	C	-0.434728	-0.316807	-0.375010
C86	C	0.065272	0.183193	0.124990
C87	C	-0.492240	-1.087491	-0.916510
C88	C	0.007760	-0.587491	-0.416510
C89	C	-0.492271	-1.087478	-0.839652
C90	C	0.007729	-0.587478	-0.339652
C91	C	-0.376870	-0.998816	-0.834219
C92	C	0.123130	-0.498816	-0.334219
C93	C	-0.376844	-0.998825	-0.911075
C94	C	0.123156	-0.498825	-0.411075
C95	C	-0.434527	-1.043167	-0.952218
C96	C	0.065473	-0.543167	-0.452218
C97	C	-0.434585	-1.043145	-0.798505
C98	C	0.065415	-0.543145	-0.298505
C99	C	-0.434618	-1.043131	-0.715173
C100	C	0.065382	-0.543131	-0.215173
C101	C	-0.434495	-1.043180	-1.035556
C102	C	0.065505	-0.543180	-0.535556
C103	C	-0.434702	-1.043055	-0.183788
C104	C	0.065298	-0.543055	0.316212
C105	C	-0.434470	-1.043190	-0.101979
C106	C	0.065530	-0.543190	0.398021
H107	H	-0.539247	-0.468735	-0.294382
H108	H	-0.039247	0.031265	0.205618
H109	H	-0.778157	-0.941419	-0.476450
H110	H	-0.278157	-0.441419	0.023550
O111	O	-0.320868	-0.955782	-0.945885
O112	O	0.179132	-0.455782	-0.445885
C113	C	-0.333205	-0.965309	-1.022541
C114	C	0.166795	-0.465309	-0.522541
H115	H	-0.402824	-0.986120	-1.036305
H116	H	0.097176	-0.486120	-0.536305
H117	H	-0.327083	-0.910477	-1.051453
H118	H	0.172917	-0.410477	-0.551453
H119	H	-0.279687	-1.007032	-1.041854
H120	H	0.220313	-0.507032	-0.541854
H121	H	-0.539266	-1.123571	-0.810582
H122	H	-0.039266	-0.623571	-0.310582
O123	O	-0.320862	-0.955818	-0.794138
O124	O	0.179138	-0.455818	-0.294138
C125	C	-0.333272	-0.965301	-0.718645
C126	C	0.166728	-0.465301	-0.218645
H127	H	-0.362830	-1.020693	-0.709547
H128	H	0.137170	-0.520693	-0.209547
H129	H	-0.265705	-0.963511	-0.686265
H130	H	0.234295	-0.463511	-0.186265
H131	H	-0.381315	-0.919369	-0.699078
H132	H	0.118685	-0.419369	-0.199078
H133	H	-0.778118	-1.112307	-0.305829
H134	H	-0.278118	-0.612307	0.194171
H135	H	-0.539211	-1.123596	-0.950007
H136	H	-0.039211	-0.623596	-0.450007
O137	O	-0.912113	-1.160511	-0.257643
O138	O	-0.412113	-0.660511	0.242357
C139	C	-0.935185	-1.143377	-0.185369
C140	C	-0.435185	-0.643377	0.314631
H141	H	-1.003623	-1.111897	-0.187047
H142	H	-0.503623	-0.611897	0.312953
H143	H	-0.938373	-1.196359	-0.152564
H144	H	-0.438373	-0.696359	0.347436
H145	H	-0.882215	-1.108024	-0.158054
H146	H	-0.382215	-0.608024	0.341946
O147	O	-0.321154	-0.624510	-0.462700
O148	O	0.178846	-0.124510	0.037300
C149	C	-0.341002	-0.604831	-0.536956
C150	C	0.158998	-0.104831	-0.036956
H151	H	-0.375691	-0.547389	-0.540068
H152	H	0.124309	-0.047389	-0.040068
H153	H	-0.275945	-0.605287	-0.566985
H154	H	0.224055	-0.105287	-0.066985
H155	H	-0.387418	-0.645903	-0.563860
H156	H	0.112582	-0.145903	-0.063860
O157	O	-0.321252	-0.472990	-0.462646
O158	O	0.178748	0.027010	0.037354
C159	C	-0.372697	-0.426132	-0.512540
C160	C	0.127303	0.073868	-0.012540
H161	H	-0.441023	-0.411377	-0.489700
H162	H	0.058977	0.088623	0.010300
H163	H	-0.335971	-0.373826	-0.520732
H164	H	0.164029	0.126174	-0.020732
H165	H	-0.382698	-0.455300	-0.567531
H166	H	0.117302	0.044700	-0.067531
O167	O	-1.097777	-1.151988	-0.266625
O168	O	-0.597777	-0.651988	0.233375
C169	C	-1.152195	-1.196940	-0.311155
C170	C	-0.652195	-0.696940	0.188845
H171	H	-1.123758	-1.202739	-0.367783
H172	H	-0.623758	-0.702739	0.132217
H173	H	-1.153196	-1.253559	-0.284665
H174	H	-0.653196	-0.753559	0.215335
H175	H	-1.223632	-1.170872	-0.317024
H176	H	-0.723632	-0.670872	0.182976
O177	O	-0.548379	-0.613674	-0.287370
O178	O	-0.048379	-0.113674	0.212630
C179	C	-0.599229	-0.560860	-0.248139
C180	C	-0.099229	-0.060860	0.251861
H181	H	-0.602413	-0.505933	-0.278429
H182	H	-0.102413	-0.005933	0.221571
H183	H	-0.670292	-0.579710	-0.243530
H184	H	-0.170292	-0.079710	0.256470
H185	H	-0.566104	-0.554230	-0.190735
H186	H	-0.066104	-0.054230	0.309265
H187	H	-1.090415	-0.973952	-0.444164
H188	H	-0.590415	-0.473952	0.055836
H189	H	-0.949103	-0.933448	-0.484516
H190	H	-0.449103	-0.433448	0.015484
