data_functionalizedCrystal
_audit_creation_method	'MofGen! by Chris Wilmer'
_symmetry_space_group_name_H-M	'P1'
_symmetry_Int_Tables_number	1
_symmetry_cell_setting	triclinic
loop_
_symmetry_equiv_pos_as_xyz
  x,y,z
_cell_length_a	12.759401
_cell_length_b	19.120786
_cell_length_c	12.759393
_cell_angle_alpha	87.524000
_cell_angle_beta	89.980324
_cell_angle_gamma	92.465677
loop_
_atom_site_label
_atom_site_type_symbol
_atom_site_fract_x
_atom_site_fract_y
_atom_site_fract_z
Zn1	Zn	1.588346	-0.279590	-0.576101
Zn2	Zn	1.580707	-0.397064	-0.392907
Zn3	Zn	1.412642	-0.279625	-0.400437
Zn4	Zn	1.405110	-0.397013	-0.568551
O5	O	1.496701	-0.338323	-0.484499
O6	O	1.734353	-0.295180	-0.551807
O7	O	1.558368	-0.381522	-0.246882
O8	O	1.442299	-0.181329	-0.430051
O9	O	1.728741	-0.381488	-0.417216
O10	O	1.571387	-0.181303	-0.559110
O11	O	1.434892	-0.295240	-0.252415
O12	O	1.264622	-0.295190	-0.422730
O13	O	1.429461	-0.381400	-0.716576
O14	O	1.259088	-0.381434	-0.546242
O15	O	1.564083	-0.295130	-0.722123
O16	O	1.551065	-0.495348	-0.409895
O17	O	1.422054	-0.495310	-0.538940
C18	C	1.223735	-0.338311	-0.484485
C19	C	1.106957	-0.338322	-0.484503
C20	C	1.055013	-0.293463	-0.554683
C21	C	0.945288	-0.293470	-0.554690
C22	C	0.939462	-0.383202	-0.414332
C23	C	1.049184	-0.383191	-0.414321
C24	C	1.484942	-0.520815	-0.472804
C25	C	1.480007	-0.598886	-0.467836
C26	C	1.544848	-0.635490	-0.532750
C27	C	1.540207	-0.708846	-0.528084
C28	C	1.470730	-0.745596	-0.458497
C29	C	1.405881	-0.708987	-0.393580
C30	C	1.410518	-0.635633	-0.398252
C31	C	1.453366	-0.967083	-0.441031
C32	C	1.448737	-1.040443	-0.436361
C33	C	1.583062	-1.040297	-0.570867
C34	C	1.587697	-0.966941	-0.575529
C35	C	1.522844	-0.930338	-0.510615
C36	C	1.465987	-0.820578	-0.453724
C37	C	1.527583	-0.855358	-0.515395
C38	C	1.770734	-0.338335	-0.484514
C39	C	1.887510	-0.338341	-0.484520
C40	C	1.496784	-0.338255	-0.758537
C41	C	1.496819	-0.338227	-0.875315
C42	C	1.508535	-0.155118	-0.496263
C43	C	1.513578	-0.077047	-0.501276
C44	C	1.566923	-0.293299	-0.933068
C45	C	1.566943	-0.293268	-1.042794
C46	C	1.426752	-0.383100	-1.037005
C47	C	1.426728	-0.383126	-0.927281
C48	C	1.496682	-0.338339	-0.211530
C49	C	1.496863	-0.338170	-0.094765
H50	H	0.903000	-0.256940	-0.611836
H51	H	0.892410	-0.419733	-0.357194
O52	O	1.603317	-0.744294	-0.591166
C53	C	1.665628	-0.696127	-0.653591
H54	H	1.672570	-0.643854	-0.613894
H55	H	1.627631	-0.688316	-0.733862
C56	C	1.767115	-0.788881	-0.715730
C57	C	1.775649	-0.724679	-0.666969
H58	H	1.834980	-0.806493	-0.723986
H59	H	1.725133	-0.821332	-0.673676
H60	H	1.735447	-0.782362	-0.782616
H61	H	1.807305	-0.731200	-0.600078
H62	H	1.817639	-0.692229	-0.709012
O63	O	1.645891	-1.075888	-0.634037
C64	C	1.583350	-1.118332	-0.699116
H65	H	1.501995	-1.096268	-0.706933
H66	H	1.576231	-1.173944	-0.663085
C67	C	1.734466	-1.146481	-0.798716
C68	C	1.634548	-1.119377	-0.808324
H69	H	1.766048	-1.147128	-0.866080
H70	H	1.776602	-1.117887	-0.754869
H71	H	1.728519	-1.192821	-0.768687
H72	H	1.640496	-1.073035	-0.838340
H73	H	1.592413	-1.147963	-0.852179
H74	H	1.091478	-0.419722	-0.357166
H75	H	1.369688	-0.419658	-1.079329
H76	H	1.584148	-0.825433	-0.572057
H77	H	1.623993	-0.256736	-0.890760
H78	H	1.601428	-0.605572	-0.589411
O79	O	1.347682	-0.599997	-0.335145
C80	C	1.410209	-0.557575	-0.270022
H81	H	1.490509	-0.546520	-0.307846
H82	H	1.420003	-0.585875	-0.190370
C83	C	1.258183	-0.501517	-0.208933
C84	C	1.356806	-0.487934	-0.255393
H85	H	1.225241	-0.458561	-0.199903
H86	H	1.216056	-0.530100	-0.252804
H87	H	1.266358	-0.525102	-0.142561
H88	H	1.348629	-0.464358	-0.321768
H89	H	1.398931	-0.459346	-0.211532
H90	H	1.624026	-0.256682	-1.089811
H91	H	1.369634	-0.419712	-0.880258
O92	O	1.110976	-0.249811	-0.622888
C93	C	1.041593	-0.210231	-0.684850
H94	H	0.963520	-0.207772	-0.641985
H95	H	1.028299	-0.236019	-0.762926
C96	C	1.185116	-0.138504	-0.757612
C97	C	1.089228	-0.135479	-0.704962
H98	H	1.214500	-0.092394	-0.770024
H99	H	1.231862	-0.165171	-0.715871
H100	H	1.174025	-0.159997	-0.822671
H101	H	1.100322	-0.113995	-0.639900
H102	H	1.042485	-0.108807	-0.746693
O103	O	1.655218	-0.931352	-0.643214
C104	C	1.711478	-0.979390	-0.699488
H105	H	1.665134	-1.031702	-0.699770
H106	H	1.790793	-0.987169	-0.660578
C107	C	1.785315	-0.886444	-0.812795
C108	C	1.728390	-0.950692	-0.813148
H109	H	1.795752	-0.868741	-0.882905
H110	H	1.747415	-0.854079	-0.774880
H111	H	1.851404	-0.892935	-0.780364
H112	H	1.662297	-0.944199	-0.845567
H113	H	1.766279	-0.983056	-0.851071
O114	O	1.381145	-1.076035	-0.368738
C115	C	1.324915	-1.028000	-0.312428
H116	H	1.324558	-0.975691	-0.358788
H117	H	1.363914	-1.020214	-0.233161
C118	C	1.211733	-1.120954	-0.238433
C119	C	1.211286	-1.056709	-0.295376
H120	H	1.141642	-1.138664	-0.227909
H121	H	1.249618	-1.153317	-0.276366
H122	H	1.244237	-1.114457	-0.172383
H123	H	1.178795	-1.063209	-0.361429
H124	H	1.173393	-1.024348	-0.257453
O125	O	1.390531	-0.931453	-0.377925
C126	C	1.453066	-0.889032	-0.312806
H127	H	1.533363	-0.877978	-0.350637
H128	H	1.462865	-0.917332	-0.233156
C129	C	1.301048	-0.832972	-0.251704
C130	C	1.399667	-0.819391	-0.298173
H131	H	1.268108	-0.790015	-0.242673
H132	H	1.258916	-0.861553	-0.295572
H133	H	1.309227	-0.856557	-0.185333
H134	H	1.391485	-0.795814	-0.364547
H135	H	1.441796	-0.790803	-0.254315
O136	O	1.338446	-0.744606	-0.325842
C137	C	1.362608	-0.726729	-0.222288
H138	H	1.406364	-0.673446	-0.223542
H139	H	1.414033	-0.767999	-0.184317
C140	C	1.206684	-0.788870	-0.157231
C141	C	1.260419	-0.723425	-0.158770
H142	H	1.143651	-0.786835	-0.118047
H143	H	1.190407	-0.800917	-0.226996
H144	H	1.249550	-0.823255	-0.125591
H145	H	1.217559	-0.689043	-0.190421
H146	H	1.276686	-0.711372	-0.089008
O147	O	1.398357	-0.856249	-0.386236
C148	C	1.294760	-0.838365	-0.410216
H149	H	1.290679	-0.818156	-0.495426
H150	H	1.270013	-0.795836	-0.356563
C151	C	1.225550	-0.928402	-0.289126
C152	C	1.220536	-0.903586	-0.393786
H153	H	1.179764	-0.968631	-0.278987
H154	H	1.295345	-0.940449	-0.272967
H155	H	1.204930	-0.892954	-0.244427
H156	H	1.241169	-0.939030	-0.438481
H157	H	1.150742	-0.891546	-0.409952
