data_functionalizedCrystal
_audit_creation_method	'MofGen! by Chris Wilmer'
_symmetry_space_group_name_H-M	'P1'
_symmetry_Int_Tables_number	1
_symmetry_cell_setting	triclinic
loop_
_symmetry_equiv_pos_as_xyz
  x,y,z
_cell_length_a	12.645330
_cell_length_b	12.645331
_cell_length_c	12.645323
_cell_angle_alpha	89.977324
_cell_angle_beta	90.024870
_cell_angle_gamma	89.983329
loop_
_atom_site_label
_atom_site_type_symbol
_atom_site_fract_x
_atom_site_fract_y
_atom_site_fract_z
Zn1	Zn	-0.422060	-1.620731	0.599446
Zn2	Zn	-0.599348	-1.620613	0.422186
Zn3	Zn	-0.422096	-1.443446	0.422191
Zn4	Zn	-0.599279	-1.443428	0.599402
O5	O	-0.510695	-1.532054	0.510806
O6	O	-0.445591	-1.769063	0.575949
O7	O	-0.575879	-1.597069	0.273840
O8	O	-0.273744	-1.467020	0.445724
O9	O	-0.575844	-1.768976	0.445717
O10	O	-0.273717	-1.597271	0.575953
O11	O	-0.445653	-1.466906	0.273843
O12	O	-0.445585	-1.295096	0.445681
O13	O	-0.575726	-1.466989	0.747755
O14	O	-0.575761	-1.295083	0.575877
O15	O	-0.445524	-1.597253	0.747788
O16	O	-0.747686	-1.597052	0.445674
O17	O	-0.747635	-1.466874	0.575873
C18	C	-0.510670	-1.256625	0.510776
C19	C	-0.510685	-1.138795	0.510788
C20	C	-0.510614	-1.532132	0.787312
C21	C	-0.510579	-1.532166	0.905142
C22	C	-0.786125	-1.531977	0.510791
C23	C	-0.903955	-1.532041	0.510821
C24	C	-1.071531	-1.450484	0.592982
C25	C	-0.948972	-1.450067	0.592717
C26	C	-0.948549	-1.501796	0.399099
C27	C	-1.071147	-1.501298	0.399597
C28	C	-1.071047	-1.644342	0.539475
C29	C	-0.948440	-1.643654	0.541918
C30	C	-0.234190	-1.532161	0.510844
C31	C	-0.116360	-1.532206	0.510861
C32	C	-0.510722	-1.808560	0.510838
C33	C	-0.510733	-1.926390	0.510851
C34	C	-0.428415	-0.971204	0.429333
C35	C	-0.428628	-1.093763	0.428974
C36	C	-0.622359	-1.094274	0.480273
C37	C	-0.621910	-0.971676	0.479717
C38	C	-0.482344	-0.971645	0.623072
C39	C	-0.479849	-1.094251	0.622448
C40	C	-0.510701	-1.532038	0.235377
C41	C	-0.510437	-1.532210	0.117547
C42	C	-0.592103	-1.449964	1.072685
C43	C	-0.592506	-1.450179	0.950125
C44	C	-0.540899	-1.643865	0.949662
C45	C	-0.541410	-1.643414	1.072260
C46	C	-0.398278	-1.503724	1.072340
C47	C	-0.398951	-1.501232	0.949733
H48	H	-1.100944	-1.469234	0.676094
H49	H	-0.918818	-1.468990	0.675558
H50	H	-0.337434	-1.563628	1.101353
O51	O	-0.464607	-1.727218	0.911067
H52	H	-0.487781	-1.805362	0.943645
O53	O	-0.370996	-1.132806	0.652935
H54	H	-0.349788	-1.100982	0.731935
H55	H	-1.101891	-1.671932	0.619558
O56	O	-0.466006	-1.727280	1.111627
H57	H	-0.509981	-1.785589	1.160306
O58	O	-0.553495	-1.134818	0.707208
H59	H	-0.613495	-1.187595	0.670911
H60	H	-0.919290	-1.666463	0.624140
H61	H	-0.345817	-1.123864	0.448100
O62	O	-1.112451	-1.341048	0.568202
H63	H	-1.044779	-1.287573	0.551987
O64	O	-0.368646	-1.392350	0.911193
H65	H	-0.294361	-1.397476	0.864750
O66	O	-0.908014	-1.394343	0.366400
H67	H	-0.856123	-1.362308	0.429532
O68	O	-0.910242	-1.339954	0.567580
H69	H	-0.939810	-1.284019	0.628392
H70	H	-0.447391	-1.123041	0.345814
H71	H	-0.573311	-1.366889	1.102159
O72	O	-1.109151	-1.392716	0.367491
H73	H	-1.158059	-1.399144	0.294871
H74	H	-0.573532	-1.367350	0.920023
H75	H	-0.674731	-1.468585	1.103504
O76	O	-1.110447	-1.576700	0.315774
H77	H	-1.041883	-1.613352	0.275056
O78	O	-0.561749	-0.933256	0.703537
H79	H	-0.621149	-0.882192	0.663865
O80	O	-0.648366	-1.676412	0.909024
H81	H	-0.708352	-1.617790	0.934890
H82	H	-0.919391	-1.559431	0.336240
H83	H	-1.100036	-1.705227	0.479663
O84	O	-0.907891	-1.728556	0.468434
H85	H	-0.855165	-1.692366	0.408330
H86	H	-0.370640	-1.423691	1.103244
O87	O	-0.702671	-1.475089	0.911363
H88	H	-0.700719	-1.548178	0.862826
O89	O	-0.318399	-0.932110	0.454331
H90	H	-0.321208	-0.880324	0.525125
H91	H	-0.446970	-0.940356	0.346662
O92	O	-0.650019	-1.675377	1.110166
H93	H	-0.668761	-1.755839	1.080554
O94	O	-0.653782	-0.933717	0.371047
H95	H	-0.669367	-1.002926	0.319385
O96	O	-0.314084	-1.574786	0.909190
H97	H	-0.350304	-1.634812	0.856394
H98	H	-0.685331	-1.123444	0.537783
O99	O	-0.705892	-0.932394	0.554938
H100	H	-0.746654	-1.000966	0.591541
O101	O	-0.654803	-1.134861	0.372764
H102	H	-0.591578	-1.186728	0.340894
H103	H	-0.402333	-0.940749	0.650823
