data_functionalizedCrystal
_audit_creation_method	'MofGen! by Chris Wilmer'
_symmetry_space_group_name_H-M	'P1'
_symmetry_Int_Tables_number	1
_symmetry_cell_setting	triclinic
loop_
_symmetry_equiv_pos_as_xyz
  x,y,z
_cell_length_a	21.395362
_cell_length_b	12.827892
_cell_length_c	21.395355
_cell_angle_alpha	89.986862
_cell_angle_beta	89.956060
_cell_angle_gamma	90.031272
loop_
_atom_site_label
_atom_site_type_symbol
_atom_site_fract_x
_atom_site_fract_y
_atom_site_fract_z
Zn1	Zn	0.957926	-0.415711	-0.354609
Zn2	Zn	0.957857	-0.590438	-0.249841
Zn3	Zn	0.853141	-0.415760	-0.249810
Zn4	Zn	0.853138	-0.590459	-0.354546
O5	O	0.905516	-0.503092	-0.302202
O6	O	1.045595	-0.438860	-0.340751
O7	O	0.943938	-0.567278	-0.162159
O8	O	0.867071	-0.269517	-0.263725
O9	O	1.045544	-0.567231	-0.263778
O10	O	0.944056	-0.269482	-0.340721
O11	O	0.867004	-0.438943	-0.162137
O12	O	0.765463	-0.438963	-0.263664
O13	O	0.867067	-0.567267	-0.442232
O14	O	0.765461	-0.567314	-0.340613
O15	O	0.944054	-0.438881	-0.442279
O16	O	0.943935	-0.736677	-0.263717
O17	O	0.866999	-0.736692	-0.340643
C18	C	0.742728	-0.503147	-0.302129
C19	C	0.673087	-0.503196	-0.302113
C20	C	0.905476	-0.774602	-0.302191
C21	C	0.905517	-0.890755	-0.302207
C22	C	0.640389	-0.570117	-0.342120
C23	C	0.574953	-0.570091	-0.342148
C24	C	0.542218	-0.503156	-0.302157
C25	C	0.574924	-0.436222	-0.262147
C26	C	0.640358	-0.436242	-0.262125
C27	C	0.438492	-0.494737	-0.245752
C28	C	0.373059	-0.494724	-0.245773
C29	C	0.340398	-0.503088	-0.302227
C30	C	0.373177	-0.511486	-0.358661
C31	C	0.438611	-0.511506	-0.358638
C32	C	0.471266	-0.503126	-0.302177
C33	C	0.236747	-0.569984	-0.342268
C34	C	0.171311	-0.569951	-0.342297
C35	C	0.171283	-0.436087	-0.262290
C36	C	0.236718	-0.436115	-0.262267
C37	C	0.269446	-0.503069	-0.302255
C38	C	0.943633	-0.942497	-0.264184
C39	C	0.943675	-1.062548	-0.264200
C40	C	1.068939	-0.503037	-0.302275
C41	C	1.138580	-0.503014	-0.302306
C42	C	0.905568	-0.503071	-0.465625
C43	C	0.905590	-0.503062	-0.535266
C44	C	0.905572	-0.230522	-0.302227
C45	C	0.905596	-0.114369	-0.302237
C46	C	0.945675	-0.436208	-0.568005
C47	C	0.945674	-0.436163	-0.633440
C48	C	0.905595	-0.502991	-0.666135
C49	C	0.865501	-0.569849	-0.633389
C50	C	0.865499	-0.569885	-0.567954
C51	C	0.900634	-0.597087	-0.769804
C52	C	0.900641	-0.597053	-0.835237
C53	C	0.905598	-0.502880	-0.867956
C54	C	0.910563	-0.408738	-0.835233
C55	C	0.910560	-0.408774	-0.769799
C56	C	0.905592	-0.502959	-0.737087
C57	C	0.945685	-0.435972	-0.971646
C58	C	0.945680	-0.435925	-1.037083
C59	C	0.865510	-0.569621	-1.037030
C60	C	0.865512	-0.569658	-0.971595
C61	C	0.905603	-0.502835	-0.938907
C62	C	0.905500	-0.503038	-0.139414
C63	C	0.905599	-0.502752	-0.069773
H64	H	0.548326	-0.624586	-0.374729
N65	N	0.862368	-1.055436	-0.345360
H66	H	0.872073	-1.074322	-0.390152
H67	H	0.817620	-1.074491	-0.335532
H68	H	0.978320	-0.381794	-0.541394
N69	N	0.136043	-0.642140	-0.385448
H70	H	0.108843	-0.690486	-0.359940
H71	H	0.108982	-0.599666	-0.414532
N72	N	0.895288	-0.698589	-0.870524
H73	H	0.856682	-0.697175	-0.897647
H74	H	0.933486	-0.708310	-0.897662
N75	N	0.862329	-0.949784	-0.345347
H76	H	0.887817	-0.995000	-0.374397
H77	H	0.833355	-0.995084	-0.319786
N78	N	0.988920	-0.363807	-1.072387
H79	H	1.017946	-0.406248	-1.099563
H80	H	0.963428	-0.315376	-1.099475
N81	N	0.915905	-0.307163	-0.870520
H82	H	0.879685	-0.260417	-0.859100
H83	H	0.956483	-0.271679	-0.859152
H84	H	0.978326	-0.381555	-0.945030
N85	N	0.822278	-0.641935	-0.668650
H86	H	0.796882	-0.684295	-0.637978
H87	H	0.793293	-0.599394	-0.695778
H88	H	0.978315	-0.381717	-0.660101
N89	N	0.915916	-0.307246	-0.734504
H90	H	0.919059	-0.247578	-0.765156
H91	H	0.877742	-0.297570	-0.707326
H92	H	0.832854	-0.624324	-0.541299
H93	H	0.346375	-0.487893	-0.199821
H94	H	0.976236	-0.897922	-0.231621
H95	H	0.346585	-0.518294	-0.404631
N96	N	0.822275	-0.641692	-1.072284
H97	H	0.828357	-0.631524	-1.118705
H98	H	0.832009	-0.716330	-1.060860
H99	H	0.465297	-0.518341	-0.404589
H100	H	0.976306	-1.107045	-0.231645
H101	H	0.667032	-0.624635	-0.374682
H102	H	0.832874	-0.624104	-0.944939
N103	N	0.895294	-0.698666	-0.734517
H104	H	0.892160	-0.758297	-0.765174
H105	H	0.933472	-0.708357	-0.707401
H106	H	0.144630	-0.381582	-0.229732
N107	N	0.272053	-0.642191	-0.385396
H108	H	0.241407	-0.684577	-0.410750
H109	H	0.299256	-0.599734	-0.414424
N110	N	0.271982	-0.363928	-0.219114
H111	H	0.260538	-0.380039	-0.174333
H112	H	0.318390	-0.374120	-0.225218
N113	N	0.473715	-0.485712	-0.184857
H114	H	0.462271	-0.546068	-0.156762
H115	H	0.520129	-0.486964	-0.193459
N116	N	0.539620	-0.364040	-0.219007
H117	H	0.512514	-0.315669	-0.244522
H118	H	0.512462	-0.406520	-0.189948
N119	N	0.675630	-0.364053	-0.218977
H120	H	0.644966	-0.321638	-0.193649
H121	H	0.702729	-0.406521	-0.189927
