data_functionalizedCrystal
_audit_creation_method	'MofGen! by Chris Wilmer'
_symmetry_space_group_name_H-M	'P1'
_symmetry_Int_Tables_number	1
_symmetry_cell_setting	triclinic
loop_
_symmetry_equiv_pos_as_xyz
  x,y,z
_cell_length_a	19.805406
_cell_length_b	19.805407
_cell_length_c	19.805399
_cell_angle_alpha	90.021725
_cell_angle_beta	89.982961
_cell_angle_gamma	89.998138
loop_
_atom_site_label
_atom_site_type_symbol
_atom_site_fract_x
_atom_site_fract_y
_atom_site_fract_z
Zn1	Zn	-0.269457	-1.034857	-0.382808
Zn2	Zn	-0.382645	-1.034823	-0.269641
Zn3	Zn	-0.269478	-0.921672	-0.269628
Zn4	Zn	-0.382611	-0.921686	-0.382783
O5	O	-0.326048	-0.978259	-0.326215
O6	O	-0.284476	-1.129569	-0.367812
O7	O	-0.367656	-1.019793	-0.174922
O8	O	-0.174758	-0.936694	-0.284647
O9	O	-0.367635	-1.129544	-0.284668
O10	O	-0.174743	-1.019851	-0.367800
O11	O	-0.284512	-0.936661	-0.174913
O12	O	-0.284480	-0.826957	-0.284623
O13	O	-0.367578	-0.936719	-0.477503
O14	O	-0.367599	-0.826968	-0.367757
O15	O	-0.284444	-1.019865	-0.477521
O16	O	-0.477357	-1.019807	-0.284644
O17	O	-0.477332	-0.936686	-0.367769
C18	C	-0.326038	-0.802403	-0.326187
C19	C	-0.326051	-0.727171	-0.326191
C20	C	-0.149505	-0.978275	-0.326225
C21	C	-0.074273	-0.978281	-0.326229
C22	C	-0.282819	-0.265397	-0.369584
C23	C	-0.282821	-0.336085	-0.369581
C24	C	-0.326050	-0.371410	-0.326223
C25	C	-0.369285	-0.336042	-0.282871
C26	C	-0.369286	-0.265355	-0.282878
C27	C	-0.369284	-0.621115	-0.282841
C28	C	-0.369278	-0.691807	-0.282836
C29	C	-0.282819	-0.691846	-0.369544
C30	C	-0.282819	-0.621159	-0.369552
C31	C	-0.326057	-0.585797	-0.326202
C32	C	-0.326055	-0.509149	-0.326207
C33	C	-0.326049	-0.448057	-0.326214
C34	C	-0.501904	-0.978262	-0.326220
C35	C	-0.577136	-0.978325	-0.326245
C36	C	-0.038918	-0.935007	-0.369507
C37	C	0.031771	-0.935015	-0.369512
C38	C	0.067103	-0.978295	-0.326235
C39	C	0.031743	-1.021574	-0.282955
C40	C	-0.038945	-1.021569	-0.282954
C41	C	0.316816	-1.021597	-0.282960
C42	C	0.387508	-1.021597	-0.282963
C43	C	0.387531	-0.935043	-0.369518
C44	C	0.316844	-0.935038	-0.369517
C45	C	0.281490	-0.978319	-0.326240
C46	C	0.204842	-0.978311	-0.326235
C47	C	0.143750	-0.978300	-0.326236
C48	C	-0.326005	-0.978297	-0.502758
C49	C	-0.325987	-0.978313	-0.577990
C50	C	-0.326054	-0.154802	-0.326238
C51	C	-0.326049	-0.230034	-0.326234
C52	C	-0.282697	-1.021609	-0.613345
C53	C	-0.282677	-1.021616	-0.684033
C54	C	-0.325952	-0.978330	-0.719366
C55	C	-0.369244	-0.935030	-0.684006
C56	C	-0.369259	-0.935020	-0.613319
C57	C	-0.369181	-0.935068	-0.969079
C58	C	-0.369163	-0.935083	-1.039771
C59	C	-0.282598	-1.021664	-1.039794
C60	C	-0.282614	-1.021654	-0.969107
C61	C	-0.325903	-0.978352	-0.933753
C62	C	-0.325923	-0.978344	-0.857105
C63	C	-0.325936	-0.978341	-0.796013
C64	C	-0.326041	-0.978260	-0.150359
C65	C	-0.325869	-0.978375	-0.075128
H66	H	-0.247612	-0.236641	-0.404887
H67	H	-0.404439	-0.899819	-0.940303
F68	F	-0.236641	-1.067683	-0.575748
H69	H	-0.404504	-0.899758	-0.584534
H70	H	-0.247615	-0.720646	-0.404844
F71	F	0.425163	-0.888981	-0.415581
H72	H	-0.247427	-1.056872	-0.712816
F73	F	-0.236812	-0.373718	-0.415724
F74	F	-0.415291	-0.729400	-0.236686
H75	H	0.288039	-1.056837	-0.247718
F76	F	-0.415285	-0.583489	-0.236689
H77	H	0.060514	-1.056817	-0.247721
H78	H	-0.067730	-1.056809	-0.247714
H79	H	-0.404476	-0.899784	-0.712779
F80	F	-0.415297	-0.373638	-0.236729
H81	H	-0.247615	-0.592401	-0.404856
F82	F	-0.236523	-1.067748	-1.077425
H83	H	-0.404404	-0.899832	-1.068537
H84	H	-0.247378	-1.056903	-0.940342
H85	H	-0.404490	-0.236563	-0.247578
F86	F	0.069395	-0.888958	-0.415577
F87	F	-0.076515	-0.888938	-0.415565
F88	F	0.279245	-0.888973	-0.415577
H89	H	0.416274	-1.056843	-0.247720
