data_functionalizedCrystal
_audit_creation_method	'MofGen! by Chris Wilmer'
_symmetry_space_group_name_H-M	'P1'
_symmetry_Int_Tables_number	1
_symmetry_cell_setting	triclinic
loop_
_symmetry_equiv_pos_as_xyz
  x,y,z
_cell_length_a	14.519709
_cell_length_b	8.140239
_cell_length_c	9.065215
_cell_angle_alpha	90.000105
_cell_angle_beta	95.652545
_cell_angle_gamma	90.002892
loop_
_atom_site_label
_atom_site_type_symbol
_atom_site_fract_x
_atom_site_fract_y
_atom_site_fract_z
O1	O	1.225280	-0.136387	-0.193392
O2	O	1.725280	0.363613	0.306608
O3	O	0.956970	-0.136435	-0.216167
O4	O	1.456970	0.363565	0.283833
O5	O	1.096672	-0.136413	0.009967
O6	O	1.596672	0.363587	0.509967
O7	O	1.085578	-0.136409	-0.419526
O8	O	1.585578	0.363591	0.080474
O9	O	1.096664	0.136814	0.009970
O10	O	1.596664	0.636814	0.509970
O11	O	0.956962	0.136792	-0.216164
O12	O	1.456962	0.636792	0.283836
O13	O	1.225272	0.136841	-0.193390
O14	O	1.725272	0.636841	0.306610
Zn15	Zn	1.091116	0.180197	-0.204777
Zn16	Zn	1.591116	0.680197	0.295223
Zn17	Zn	1.091126	-0.179792	-0.204780
Zn18	Zn	1.591126	0.320208	0.295220
O19	O	1.085570	0.136818	-0.419524
O20	O	1.585570	0.636818	0.080476
C21	C	0.922598	0.000172	-0.215104
C22	C	1.422598	0.500172	0.284896
C23	C	0.820194	0.000153	-0.211924
C24	C	1.320194	0.500153	0.288076
C25	C	1.095603	0.000196	0.064935
C26	C	1.595603	0.500196	0.564935
C27	C	1.092416	0.000182	0.228718
C28	C	1.592416	0.500182	0.728718
C29	C	0.445212	0.000227	-0.200214
C30	C	0.945212	0.500227	0.299786
C31	C	0.549544	0.000206	-0.203466
C32	C	1.049544	0.500206	0.296534
C33	C	0.632700	0.000188	-0.206069
C34	C	1.132700	0.500188	0.293931
C35	C	0.737038	0.000170	-0.209321
C36	C	1.237038	0.500170	0.290679
C37	C	1.259644	0.000230	-0.194452
C38	C	1.759644	0.500230	0.305548
C39	C	1.362048	0.000238	-0.197633
C40	C	1.862048	0.500238	0.302367
N41	N	1.091116	0.425879	-0.204773
N42	N	1.591116	0.925879	0.295227
N43	N	1.091134	-0.425474	-0.204772
N44	N	1.591134	0.074526	0.295228
C45	C	1.086639	0.000194	0.525508
C46	C	1.586639	0.500194	1.025508
C47	C	1.089825	0.000161	0.361725
C48	C	1.589825	0.500161	0.861725
