data_functionalizedCrystal
_audit_creation_method	'MofGen! by Chris Wilmer'
_symmetry_space_group_name_H-M	'P1'
_symmetry_Int_Tables_number	1
_symmetry_cell_setting	triclinic
loop_
_symmetry_equiv_pos_as_xyz
  x,y,z
_cell_length_a	17.699083
_cell_length_b	15.944551
_cell_length_c	16.176319
_cell_angle_alpha	89.992246
_cell_angle_beta	89.998611
_cell_angle_gamma	83.390877
loop_
_atom_site_label
_atom_site_type_symbol
_atom_site_fract_x
_atom_site_fract_y
_atom_site_fract_z
O1	O	1.004260	0.106222	-0.068632
O2	O	1.504260	0.606222	0.431368
O3	O	0.783905	0.120042	-0.068660
O4	O	1.283905	0.620042	0.431340
O5	O	0.900100	-0.009156	-0.068638
O6	O	1.400100	0.490844	0.431362
O7	O	0.888065	0.235419	-0.068654
O8	O	1.388065	0.735419	0.431346
O9	O	0.900084	-0.009164	0.068855
O10	O	1.400084	0.490836	0.568855
O11	O	0.783889	0.120033	0.068833
O12	O	1.283889	0.620033	0.568833
O13	O	1.004244	0.106214	0.068861
O14	O	1.504244	0.606214	0.568861
Cu15	Cu	0.894065	0.113123	0.081401
Cu16	Cu	1.394065	0.613123	0.581401
Cu17	Cu	0.894084	0.113133	-0.081200
Cu18	Cu	1.394084	0.613133	0.418800
O19	O	0.888049	0.235411	0.068839
O20	O	1.388049	0.735411	0.568839
C21	C	0.755700	0.119542	0.000083
C22	C	1.255700	0.619542	0.500083
C23	C	0.671679	0.118057	0.000073
C24	C	1.171679	0.618057	0.500073
C25	C	0.623187	0.193893	0.000068
C26	C	1.123187	0.693893	0.500068
C27	C	0.544242	0.192492	0.000079
C28	C	1.044242	0.692492	0.500079
C29	C	0.513789	0.115254	0.000089
C30	C	1.013789	0.615254	0.500089
C31	C	0.562287	0.039412	0.000096
C32	C	1.062287	0.539412	0.500096
C33	C	0.641231	0.040814	0.000091
C34	C	1.141231	0.540814	0.500091
C35	C	0.243914	0.033758	0.000117
C36	C	0.743914	0.533758	0.500117
C37	C	0.164964	0.032362	0.000119
C38	C	0.664964	0.532362	0.500119
C39	C	0.146925	0.185436	0.000105
C40	C	0.646925	0.685436	0.500105
C41	C	0.225869	0.186837	0.000100
C42	C	0.725869	0.686837	0.500100
C43	C	0.274360	0.110996	0.000112
C44	C	0.774360	0.610996	0.500112
C45	C	0.359962	0.112516	0.000102
C46	C	0.859962	0.612516	0.500102
C47	C	0.428189	0.113733	0.000093
C48	C	0.928189	0.613733	0.500093
C49	C	0.899593	-0.040453	0.000109
C50	C	1.399593	0.459547	0.500109
C51	C	0.898095	-0.133696	0.000109
C52	C	1.398095	0.366304	0.500109
C53	C	0.822492	-0.348393	0.000088
C54	C	1.322492	0.151607	0.500088
C55	C	0.857591	-0.409488	0.067885
C56	C	1.357591	0.090512	0.567885
C57	C	0.895385	-0.304416	0.000102
C58	C	1.395385	0.195584	0.500102
C59	C	0.857624	-0.409464	-0.067672
C60	C	1.357624	0.090536	0.432328
C61	C	0.892762	-0.469323	0.000092
C62	C	1.392762	0.030677	0.500092
C63	C	0.930505	-0.364283	0.067955
C64	C	1.430505	0.135717	0.567955
C65	C	0.930527	-0.364252	-0.067663
C66	C	1.430527	0.135748	0.432337
C67	C	0.965680	-0.425329	0.000150
C68	C	1.465680	0.074671	0.500150
C69	C	0.896894	-0.209417	0.000109
C70	C	1.396894	0.290583	0.500109
C71	C	0.891259	-0.564321	0.000092
C72	C	1.391259	-0.064321	0.500092
C73	C	1.032450	0.106713	0.000116
C74	C	1.532450	0.606713	0.500116
C75	C	1.116471	0.108199	0.000121
C76	C	1.616471	0.608199	0.500121
C77	C	0.888557	0.266708	0.000090
C78	C	1.388557	0.766708	0.500090
C79	C	0.890055	0.359951	0.000085
C80	C	1.390055	0.859951	0.500085
N81	N	0.894058	0.113116	0.195767
N82	N	1.394058	0.613116	0.695767
N83	N	0.894098	0.113133	-0.195565
N84	N	1.394098	0.613133	0.304435
C85	C	0.945524	0.055930	0.239040
C86	C	1.445524	0.555930	0.739040
C87	C	0.945528	0.055929	0.325588
C88	C	1.445528	0.555929	0.825588
C89	C	0.894068	0.113118	0.368859
C90	C	1.394068	0.613118	0.868859
C91	C	0.842596	0.170306	0.325579
C92	C	1.342596	0.670306	0.825579
C93	C	0.842589	0.170303	0.239034
C94	C	1.342589	0.670303	0.739034
C95	C	0.842622	0.170322	0.674608
C96	C	1.342622	0.670322	1.174608
C97	C	0.842634	0.170323	0.761159
C98	C	1.342634	0.670323	1.261159
C99	C	0.945561	0.055949	0.761161
C100	C	1.445561	0.555949	1.261161
C101	C	0.945554	0.055945	0.674616
C102	C	1.445554	0.555945	1.174616
C103	C	0.894080	0.113130	0.631343
C104	C	1.394080	0.613130	1.131343
C105	C	0.894075	0.113129	0.537499
C106	C	1.394075	0.613129	1.037499
C107	C	0.894076	0.113124	0.462702
C108	C	1.394076	0.613124	0.962702
H109	H	0.107434	0.247189	0.000100
H110	H	0.607434	0.747189	0.500100
C111	C	0.632102	0.324809	-0.070623
C112	C	1.132102	0.824809	0.429377
C113	C	0.656654	0.278798	0.000057
C114	C	1.156654	0.778798	0.500057
H115	H	0.652758	0.377229	-0.070623
H116	H	1.152758	0.877229	0.429377
H117	H	0.648750	0.293595	-0.118559
H118	H	1.148750	0.793595	0.381441
H119	H	0.578145	0.334817	-0.070610
H120	H	1.078145	0.834817	0.429390
H121	H	0.710611	0.268785	0.000042
H122	H	1.210611	0.768785	0.500042
H123	H	0.640010	0.310019	0.048006
H124	H	1.140010	0.810019	0.548006
H125	H	0.537486	-0.023476	0.000116
H126	H	1.037486	0.476524	0.500116
H127	H	0.961303	-0.344360	0.125335
H128	H	1.461303	0.155640	0.625335
C129	C	1.085870	-0.446368	-0.070102
C130	C	1.585870	0.053632	0.429898
C131	C	1.047438	-0.470243	0.000209
C132	C	1.547438	0.029757	0.500209
H133	H	1.136348	-0.474086	-0.070058
H134	H	1.636348	0.025914	0.429942
H135	H	1.060114	-0.461843	-0.118285
H136	H	1.560114	0.038157	0.381715
H137	H	1.087224	-0.386984	-0.069637
H138	H	1.587224	0.113016	0.430363
H139	H	1.046080	-0.529628	-0.000259
H140	H	1.546080	-0.029628	0.499741
H141	H	1.073201	-0.454775	0.048405
H142	H	1.573201	0.045225	0.548405
C143	C	0.200106	0.338010	0.000097
C144	C	0.700106	0.838010	0.500097
C145	C	0.259341	0.271739	0.000094
C146	C	0.759341	0.771739	0.500094
H147	H	0.220772	0.390424	0.000100
H148	H	0.720772	0.890424	0.500100
H149	H	0.169692	0.334286	-0.047847
H150	H	0.669692	0.834286	0.452153
H151	H	0.169690	0.334268	0.048048
H152	H	0.669690	0.834268	0.548048
H153	H	0.289755	0.275477	-0.047861
H154	H	0.789755	0.775477	0.452139
H155	H	0.289769	0.275465	0.048042
H156	H	0.789769	0.775465	0.548042
H157	H	0.987432	0.009364	0.203814
H158	H	1.487432	0.509364	0.703814
C159	C	0.796909	0.221105	0.458245
C160	C	1.296909	0.721105	0.958245
C161	C	0.786032	0.233172	0.373142
C162	C	1.286032	0.733172	0.873142
H163	H	0.761991	0.259923	0.487604
H164	H	1.261991	0.759923	0.987604
H165	H	0.788688	0.165065	0.472437
H166	H	1.288688	0.665065	0.972437
H167	H	0.847423	0.230159	0.472409
H168	H	1.347423	0.730159	0.972409
H169	H	0.735519	0.224112	0.358976
H170	H	1.235519	0.724112	0.858976
H171	H	0.794247	0.289226	0.358944
H172	H	1.294247	0.789226	0.858944
C173	C	0.740855	0.283368	0.247719
C174	C	1.240855	0.783368	0.747719
C175	C	0.786019	0.233166	0.191464
C176	C	1.286019	0.733166	0.691464
H177	H	0.705932	0.322180	0.218350
H178	H	1.205932	0.822180	0.718350
H179	H	0.713635	0.248443	0.281483
H180	H	1.213635	0.748443	0.781483
H181	H	0.772369	0.313538	0.281467
H182	H	1.272369	0.813538	0.781467
H183	H	0.754505	0.202991	0.157720
H184	H	1.254505	0.702991	0.657720
H185	H	0.813241	0.268096	0.157686
H186	H	1.313241	0.768096	0.657686
C187	C	0.933847	-0.359685	-0.215960
C188	C	1.433847	0.140315	0.284040
C189	C	0.972120	-0.337147	-0.145030
C190	C	1.472120	0.162853	0.354970
H191	H	0.959519	-0.342944	-0.263726
H192	H	1.459519	0.157056	0.236274
H193	H	0.932801	-0.419104	-0.216791
H194	H	1.432801	0.080896	0.283209
H195	H	0.883267	-0.332278	-0.215470
H196	H	1.383267	0.167722	0.284530
H197	H	1.022699	-0.364560	-0.145517
H198	H	1.522699	0.135440	0.354483
H199	H	0.973175	-0.277717	-0.144199
H200	H	1.473175	0.222283	0.355801
H201	H	0.987435	0.009364	0.360821
H202	H	1.487435	0.509364	0.860821
C203	C	0.444995	0.279719	-0.070611
C204	C	0.944995	0.779719	0.429389
C205	C	0.490941	0.275855	0.000065
C206	C	0.990941	0.775855	0.500065
H207	H	0.412088	0.331185	-0.070617
H208	H	0.912088	0.831185	0.429383
H209	H	0.476167	0.277081	-0.118550
H210	H	0.976167	0.777081	0.381450
H211	H	0.415562	0.233518	-0.070590
H212	H	0.915562	0.733518	0.429410
H213	H	0.520379	0.322053	0.000041
H214	H	1.020379	0.822053	0.500041
H215	H	0.459766	0.278501	0.048016
H216	H	0.959766	0.778501	0.548016
C217	C	0.741039	-0.397248	-0.144919
C218	C	1.241039	0.102752	0.355081
C219	C	0.816002	-0.436486	-0.145050
C220	C	1.316002	0.063514	0.354950
H221	H	0.715343	-0.413924	-0.192690
H222	H	1.215343	0.086076	0.307310
H223	H	0.715639	-0.413502	-0.096790
H224	H	1.215639	0.086498	0.403210
H225	H	0.741299	-0.337704	-0.145203
H226	H	1.241299	0.162296	0.354797
H227	H	0.815742	-0.496030	-0.144760
H228	H	1.315742	0.003970	0.355240
H229	H	0.841408	-0.420236	-0.193192
H230	H	1.341408	0.079764	0.306808
H231	H	0.987460	0.009379	0.639387
H232	H	1.487460	0.509379	1.139387
C233	C	0.990009	-0.089532	0.787818
C234	C	1.490009	0.410468	1.287818
C235	C	1.002135	-0.006922	0.808729
C236	C	1.502135	0.493078	1.308729
H237	H	1.024939	-0.128342	0.817181
H238	H	1.524939	0.371658	1.317181
H239	H	0.939506	-0.098578	0.802012
H240	H	1.439506	0.401422	1.302012
H241	H	0.997373	-0.097704	0.730081
H242	H	1.497373	0.402296	1.230081
H243	H	0.994766	0.001252	0.866466
H244	H	1.494766	0.501252	1.366466
H245	H	1.052650	0.002128	0.794541
H246	H	1.552650	0.502128	1.294541
C247	C	0.156036	-0.098558	-0.070533
C248	C	0.656036	0.401442	0.429467
C249	C	0.131491	-0.052546	0.000137
C250	C	0.631491	0.447454	0.500137
H251	H	0.135373	-0.150975	-0.070519
H252	H	0.635373	0.349025	0.429481
H253	H	0.139389	-0.067342	-0.118477
H254	H	0.639389	0.432658	0.381523
H255	H	0.209993	-0.108574	-0.070523
H256	H	0.709993	0.391426	0.429477
H257	H	0.077534	-0.042524	0.000123
H258	H	0.577534	0.457476	0.500123
H259	H	0.148133	-0.083769	0.048092
H260	H	0.648133	0.416231	0.548092
H261	H	0.283386	-0.027997	0.000127
H262	H	0.783386	0.472003	0.500127
C263	C	0.740871	0.283371	0.752468
C264	C	1.240871	0.783371	1.252468
C265	C	0.786058	0.233182	0.808725
C266	C	1.286058	0.733182	1.308725
H267	H	0.705944	0.322170	0.781836
H268	H	1.205944	0.822170	1.281836
H269	H	0.772365	0.313547	0.718705
H270	H	1.272365	0.813547	1.218705
H271	H	0.713651	0.248429	0.718721
H272	H	1.213651	0.748429	1.218721
H273	H	0.813283	0.268123	0.842469
H274	H	1.313283	0.768123	1.342469
H275	H	0.754561	0.203004	0.842503
H276	H	1.254561	0.703004	1.342503
C277	C	0.651138	-0.110639	0.000093
C278	C	1.151138	0.389361	0.500093
C279	C	0.694536	-0.042547	0.000089
C280	C	1.194536	0.457453	0.500089
H281	H	0.684047	-0.162103	0.000088
H282	H	1.184047	0.337897	0.500088
H283	H	0.619976	-0.108006	0.048039
H284	H	1.119976	0.391994	0.548039
H285	H	0.619967	-0.107991	-0.047855
H286	H	1.119967	0.392009	0.452145
H287	H	0.725703	-0.045191	0.048041
H288	H	1.225703	0.454809	0.548041
H289	H	0.725711	-0.045181	-0.047862
H290	H	1.225711	0.454819	0.452138
H291	H	0.826754	-0.429535	0.125194
H292	H	1.326754	0.070465	0.625194
C293	C	0.702818	-0.325913	0.071243
C294	C	1.202818	0.174087	0.571243
C295	C	0.740816	-0.303249	0.000166
C296	C	1.240816	0.196751	0.500166
H297	H	0.652398	-0.298037	0.071295
H298	H	1.152398	0.201963	0.571295
H299	H	0.701307	-0.385265	0.071729
H300	H	1.201307	0.114735	0.571729
H301	H	0.728973	-0.309794	0.118911
H302	H	1.228973	0.190206	0.618911
H303	H	0.714664	-0.319374	-0.047502
H304	H	1.214664	0.180626	0.452498
H305	H	0.742323	-0.243884	-0.000327
H306	H	1.242323	0.256116	0.499673
C307	C	0.826196	0.284664	0.577278
C308	C	1.326196	0.784664	1.077278
C309	C	0.786052	0.233192	0.627053
C310	C	1.286052	0.733192	1.127053
H311	H	0.791270	0.323478	0.547916
H312	H	1.291270	0.823478	1.047916
H313	H	0.857701	0.314824	0.611034
H314	H	1.357701	0.814824	1.111034
H315	H	0.856832	0.250595	0.539119
H316	H	1.356832	0.750595	1.039119
H317	H	0.755420	0.267261	0.665217
H318	H	1.255420	0.767261	1.165217
H319	H	0.754533	0.203030	0.593295
H320	H	1.254533	0.703030	1.093295
