data_functionalizedCrystal
_audit_creation_method	'MofGen! by Chris Wilmer'
_symmetry_space_group_name_H-M	'P1'
_symmetry_Int_Tables_number	1
_symmetry_cell_setting	triclinic
loop_
_symmetry_equiv_pos_as_xyz
  x,y,z
_cell_length_a	10.686285
_cell_length_b	10.685972
_cell_length_c	10.685986
_cell_angle_alpha	89.694199
_cell_angle_beta	81.587410
_cell_angle_gamma	90.336301
loop_
_atom_site_label
_atom_site_type_symbol
_atom_site_fract_x
_atom_site_fract_y
_atom_site_fract_z
Zn1	Zn	-0.293512	-1.887760	-0.835976
Zn2	Zn	-0.519232	-1.922267	-0.610345
Zn3	Zn	-0.325724	-1.696685	-0.607851
Zn4	Zn	-0.521563	-1.696709	-0.803791
O5	O	-0.415008	-1.800855	-0.714491
O6	O	-0.308999	-2.066699	-0.820559
O7	O	-0.506068	-1.906774	-0.433585
O8	O	-0.145027	-1.707580	-0.650538
O9	O	-0.474834	-2.092052	-0.654789
O10	O	-0.121362	-1.847962	-0.818141
O11	O	-0.363899	-1.741040	-0.431753
O12	O	-0.366159	-1.522326	-0.619330
O13	O	-0.478806	-1.707620	-0.984490
O14	O	-0.510040	-1.522343	-0.763286
O15	O	-0.311258	-1.847985	-1.008136
O16	O	-0.695965	-1.906797	-0.623580
O17	O	-0.697677	-1.741081	-0.765704
C18	C	-0.441849	-1.477124	-0.687545
C19	C	-0.453359	-1.338631	-0.676046
C20	C	-0.742561	-1.827718	-0.691451
C21	C	-0.882677	-1.839320	-0.681645
C22	C	-0.086171	-1.773919	-0.737652
C23	C	0.053960	-1.762441	-0.747522
C24	C	-0.391699	-1.773956	-1.043338
C25	C	-0.381766	-1.762493	-1.183473
C26	C	-0.388055	-1.125850	-0.741537
C27	C	-0.376549	-1.264342	-0.753049
C28	C	-0.438129	-1.827714	-0.386936
C29	C	-0.447687	-1.839388	-0.246846
H30	H	-0.301975	-1.306692	-0.827771
H31	H	-0.511711	-1.913994	-1.193897
Cl32	Cl	-0.568492	-1.273246	-0.560657
H33	H	-0.893096	-1.687745	-0.811424
H34	H	-0.935631	-1.914012	-0.617730
Cl35	Cl	-0.282893	-1.647311	-1.265226
