data_functionalizedCrystal
_audit_creation_method	'MofGen! by Chris Wilmer'
_symmetry_space_group_name_H-M	'P1'
_symmetry_Int_Tables_number	1
_symmetry_cell_setting	triclinic
loop_
_symmetry_equiv_pos_as_xyz
  x,y,z
_cell_length_a	22.010155
_cell_length_b	15.944551
_cell_length_c	15.944551
_cell_angle_alpha	96.501262
_cell_angle_beta	89.996699
_cell_angle_gamma	89.996027
loop_
_atom_site_label
_atom_site_type_symbol
_atom_site_fract_x
_atom_site_fract_y
_atom_site_fract_z
O1	O	0.050463	-1.114530	0.108320
O2	O	0.550463	-0.614530	0.608320
O3	O	0.050478	-0.869981	0.121677
O4	O	0.550478	-0.369981	0.621677
O5	O	0.050465	-0.998934	-0.007276
O6	O	0.550465	-0.498934	0.492724
O7	O	0.050477	-0.985577	0.237273
O8	O	0.550477	-0.485577	0.737273
O9	O	-0.050585	-0.998910	-0.007257
O10	O	0.449415	-0.498910	0.492743
O11	O	-0.050572	-0.869957	0.121696
O12	O	0.449428	-0.369957	0.621696
O13	O	-0.050587	-1.114507	0.108340
O14	O	0.449413	-0.614507	0.608340
Cu15	Cu	-0.059806	-0.992230	0.115020
Cu16	Cu	0.440194	-0.492230	0.615020
Cu17	Cu	0.059697	-0.992258	0.114997
Cu18	Cu	0.559697	-0.492258	0.614997
O19	O	-0.050574	-0.985554	0.237293
O20	O	0.449426	-0.485554	0.737293
C21	C	-0.000045	-0.838675	0.121132
C22	C	0.499955	-0.338675	0.621132
C23	C	-0.000039	-0.745429	0.119470
C24	C	0.499961	-0.245429	0.619470
N25	N	-0.143859	-0.992217	0.115035
N26	N	0.356141	-0.492217	0.615035
C27	C	-0.000060	-0.998367	-0.038561
C28	C	0.499940	-0.498367	0.461439
C29	C	-0.000061	-0.996705	-0.131807
C30	C	0.499939	-0.496705	0.368193
C31	C	-0.563644	-1.049361	0.057905
C32	C	-0.063644	-0.549361	0.557905
C33	C	-0.627252	-1.049365	0.057899
C34	C	-0.127252	-0.549365	0.557899
O35	O	-0.660148	-1.097918	0.009335
O36	O	-0.160148	-0.597918	0.509335
N37	N	-0.659066	-0.992257	0.114979
N38	N	-0.159066	-0.492257	0.614979
C39	C	-0.627269	-0.935136	0.172063
C40	C	-0.127269	-0.435136	0.672063
O41	O	-0.660170	-0.886561	0.220614
O42	O	-0.160170	-0.386561	0.720614
C43	C	-0.563663	-0.935128	0.172064
C44	C	-0.063663	-0.435128	0.672064
C45	C	-0.531852	-0.992246	0.114986
C46	C	-0.031852	-0.492246	0.614986
C47	C	-0.531833	-1.106474	0.000830
C48	C	-0.031833	-0.606474	0.500830
C49	C	-0.468230	-1.106471	0.000837
C50	C	0.031770	-0.606471	0.500837
C51	C	-0.436438	-1.049355	0.057919
C52	C	0.063562	-0.549355	0.557919
C53	C	-0.468249	-0.992243	0.114993
C54	C	0.031751	-0.492243	0.614993
C55	C	-0.531867	-0.878004	0.229144
C56	C	-0.031867	-0.378004	0.729144
C57	C	-0.468256	-0.878001	0.229140
C58	C	0.031744	-0.378001	0.729140
C59	C	-0.436445	-0.935118	0.172061
C60	C	0.063555	-0.435118	0.672061
C61	C	-0.372853	-0.935125	0.172082
C62	C	0.127147	-0.435125	0.672082
N63	N	-0.341039	-0.992233	0.115001
N64	N	0.158961	-0.492233	0.615001
C65	C	-0.372831	-1.049348	0.057920
C66	C	0.127169	-0.549348	0.557920
C67	C	-0.760847	-0.935154	0.172056
C68	C	-0.260847	-0.435154	0.672056
C69	C	-0.824452	-0.935165	0.172059
C70	C	-0.324452	-0.435165	0.672059
C71	C	-0.824430	-1.049394	0.057893
C72	C	-0.324430	-0.549394	0.557893
C73	C	-0.760824	-1.049386	0.057895
C74	C	-0.260824	-0.549386	0.557895
C75	C	-0.729033	-0.992262	0.114975
C76	C	-0.229033	-0.492262	0.614975
C77	C	-0.239260	-1.049338	0.057939
C78	C	0.260740	-0.549338	0.557939
C79	C	-0.175651	-1.049332	0.057954
C80	C	0.324349	-0.549332	0.557954
C81	C	-0.175678	-0.935101	0.172116
C82	C	0.324322	-0.435101	0.672116
C83	C	-0.239282	-0.935109	0.172105
C84	C	0.260718	-0.435109	0.672105
C85	C	-0.271071	-0.992231	0.115010
C86	C	0.228929	-0.492231	0.615010
O87	O	-0.339916	-0.886594	0.220618
O88	O	0.160084	-0.386594	0.720618
O89	O	-0.339922	-1.097907	0.009370
O90	O	0.160078	-0.597907	0.509370
N91	N	0.143750	-0.992278	0.114975
N92	N	0.643750	-0.492278	0.614975
C93	C	-0.000063	-1.145813	0.108885
C94	C	0.499937	-0.645813	0.608885
C95	C	-0.000064	-1.239059	0.110547
C96	C	0.499936	-0.739059	0.610547
C97	C	-0.000055	-0.530572	0.035565
C98	C	0.499945	-0.030572	0.535565
C99	C	0.049770	-0.469564	0.074518
C100	C	0.549770	0.030436	0.574518
C101	C	-0.000047	-0.574703	0.116462
C102	C	0.499953	-0.074703	0.616462
C103	C	-0.049858	-0.469563	0.074556
C104	C	0.450142	0.030437	0.574556
C105	C	-0.000056	-0.409790	0.113551
C106	C	0.499944	0.090210	0.613551
C107	C	0.049820	-0.514923	0.155437
C108	C	0.549820	-0.014923	0.655437
C109	C	-0.049853	-0.514928	0.155464
C110	C	0.450147	-0.014928	0.655464
C111	C	-0.000016	-0.453937	0.194476
C112	C	0.499984	0.046063	0.694476
C113	C	-0.000040	-0.669705	0.118137
C114	C	0.499960	-0.169705	0.618137
C115	C	-0.000058	-0.314789	0.111883
C116	C	0.499942	0.185211	0.611883
C117	C	-0.000047	-0.912801	-0.346663
C118	C	0.499953	-0.412801	0.153337
C119	C	-0.049873	-0.951752	-0.407671
C120	C	0.450127	-0.451752	0.092329
C121	C	-0.000056	-0.993698	-0.302533
C122	C	0.499944	-0.493698	0.197467
C123	C	0.049754	-0.951794	-0.407674
C124	C	0.549754	-0.451794	0.092326
C125	C	-0.000048	-0.990787	-0.467445
C126	C	0.499952	-0.490787	0.032555
C127	C	-0.049923	-1.032671	-0.362312
C128	C	0.450077	-0.532671	0.137688
C129	C	0.049749	-1.032702	-0.362308
C130	C	0.549749	-0.532702	0.137692
C131	C	-0.000089	-1.071711	-0.423298
C132	C	0.499911	-0.571711	0.076702
C133	C	-0.000061	-0.995372	-0.207530
C134	C	0.499939	-0.495372	0.292470
C135	C	-0.000048	-0.989119	-0.562446
C136	C	0.499952	-0.489119	-0.062446
C137	C	-0.000047	-0.986120	0.268577
C138	C	0.499953	-0.486120	0.768577
C139	C	-0.000043	-0.987782	0.361823
C140	C	0.499957	-0.487782	0.861823
H141	H	-0.149753	-1.095847	0.011474
H142	H	0.350247	-0.595847	0.511474
H143	H	-0.265183	-0.888607	0.218592
H144	H	0.234817	-0.388607	0.718592
H145	H	-0.092094	-1.066849	-0.342314
H146	H	0.407906	-0.566849	0.157686
F147	F	0.000003	-0.574108	-0.052202
F148	F	0.500003	-0.074108	0.447798
F149	F	-0.000130	-1.159555	-0.466641
F150	F	0.499870	-0.659555	0.033359
H151	H	0.091890	-0.449463	0.040294
H152	H	0.591890	0.050537	0.540294
H153	H	-0.557759	-0.831493	0.275622
H154	H	-0.057759	-0.331493	0.775622
H155	H	0.091871	-1.066898	-0.342186
H156	H	0.591871	-0.566898	0.157814
F157	F	0.104810	-0.907065	-0.433944
F158	F	0.604810	-0.407065	0.066056
H159	H	-0.265136	-1.095850	0.011446
H160	H	0.234864	-0.595850	0.511446
F161	F	-0.104928	-0.907018	-0.433944
F162	F	0.395072	-0.407018	0.066056
F163	F	0.104938	-0.541057	0.200116
F164	F	0.604938	-0.041057	0.700116
H165	H	0.000015	-0.420779	0.261683
H166	H	0.500015	0.079221	0.761683
F167	F	-0.104910	-0.541231	0.200161
F168	F	0.395090	-0.041231	0.700161
F169	F	-0.727017	-0.874357	0.232819
F170	F	-0.227017	-0.374357	0.732819
H171	H	-0.850348	-0.888663	0.218547
H172	H	-0.350348	-0.388663	0.718547
H173	H	-0.000093	-0.845652	-0.313356
H174	H	0.499907	-0.345652	0.186644
H175	H	-0.850327	-1.095899	0.011413
H176	H	-0.350327	-0.595899	0.511413
F177	F	-0.434380	-1.167258	-0.059917
F178	F	0.065620	-0.667258	0.440083
H179	H	-0.557713	-1.152984	-0.045656
H180	H	-0.057713	-0.652984	0.454344
H181	H	-0.091979	-0.449467	0.040333
H182	H	0.408021	0.050533	0.540333
F183	F	-0.141833	-0.874318	0.232866
F184	F	0.358167	-0.374318	0.732866
H185	H	-0.442375	-0.831481	0.275621
H186	H	0.057625	-0.331481	0.775621
F187	F	-0.726974	-1.110177	-0.002857
F188	F	-0.226974	-0.610177	0.497143
