data_functionalizedCrystal
_audit_creation_method	'MofGen! by Chris Wilmer'
_symmetry_space_group_name_H-M	'P1'
_symmetry_Int_Tables_number	1
_symmetry_cell_setting	triclinic
loop_
_symmetry_equiv_pos_as_xyz
  x,y,z
_cell_length_a	16.120490
_cell_length_b	16.120484
_cell_length_c	12.759387
_cell_angle_alpha	87.136424
_cell_angle_beta	92.918784
_cell_angle_gamma	90.164100
loop_
_atom_site_label
_atom_site_type_symbol
_atom_site_fract_x
_atom_site_fract_y
_atom_site_fract_z
Zn1	Zn	1.254508	-0.395623	0.699333
Zn2	Zn	1.754508	0.104377	1.199333
Zn3	Zn	1.247343	-0.534695	0.532065
Zn4	Zn	1.747343	-0.034695	1.032065
Zn5	Zn	1.115439	-0.388596	0.514343
Zn6	Zn	1.615439	0.111404	1.014343
Zn7	Zn	1.108360	-0.527568	0.698376
Zn8	Zn	1.608360	-0.027568	1.198376
O9	O	1.181412	-0.461621	0.611029
O10	O	1.681412	0.038379	1.111029
O11	O	1.369924	-0.419994	0.684962
O12	O	1.869924	0.080006	1.184962
O13	O	1.229810	-0.515357	0.382694
O14	O	1.729810	-0.015357	0.882694
O15	O	1.139847	-0.273166	0.531866
O16	O	1.639847	0.226834	1.031866
O17	O	1.364660	-0.522170	0.562071
O18	O	1.864660	-0.022170	1.062071
O19	O	1.242021	-0.278329	0.667778
O20	O	1.742021	0.221671	1.167778
O21	O	1.132900	-0.408019	0.369673
O22	O	1.632900	0.091981	0.869673
O23	O	0.998134	-0.401108	0.530937
O24	O	1.498134	0.098892	1.030937
O25	O	1.127783	-0.510023	0.845524
O26	O	1.627783	-0.010023	1.345524
O27	O	0.992933	-0.503210	0.666146
O28	O	1.492933	-0.003210	1.166146
O29	O	1.235157	-0.413084	0.846227
O30	O	1.735157	0.086916	1.346227
O31	O	1.222946	-0.650112	0.561143
O32	O	1.722946	-0.150112	1.061143
O33	O	1.120835	-0.644876	0.683331
O34	O	1.620835	-0.144876	1.183331
C35	C	0.965361	-0.450624	0.596515
C36	C	1.465361	0.049376	1.096515
C37	C	0.872932	-0.445939	0.590332
C38	C	1.372932	0.054061	1.090332
C39	C	0.659965	-0.485913	0.643103
C40	C	1.159965	0.014087	1.143103
C41	C	0.703708	-0.437394	0.579043
C42	C	1.203708	0.062606	1.079043
C43	C	0.797873	-0.442150	0.585326
C44	C	1.297873	0.057850	1.085326
C45	C	0.565791	-0.481159	0.636821
C46	C	1.065791	0.018841	1.136821
C47	C	1.170368	-0.677666	0.624081
C48	C	1.670368	-0.177666	1.124081
C49	C	1.165719	-0.770096	0.629704
C50	C	1.665719	-0.270096	1.129704
C51	C	1.157236	-0.939325	0.639993
C52	C	1.657236	-0.439325	1.139993
C53	C	1.205738	-0.983083	0.582092
C54	C	1.705738	-0.483083	1.082092
C55	C	1.201018	-1.077248	0.587817
C56	C	1.701018	-0.577248	1.087817
C57	C	1.161955	-0.845152	0.634270
C58	C	1.661955	-0.345152	1.134270
C59	C	1.398308	-0.472661	0.625601
C60	C	1.898308	0.027339	1.125601
C61	C	1.490735	-0.477366	0.631810
C62	C	1.990735	0.022634	1.131810
C63	C	1.181479	-0.461542	0.885062
C64	C	1.681479	0.038458	1.385062
C65	C	1.181508	-0.461509	1.001839
C66	C	1.681508	0.038491	1.501839
C67	C	1.192523	-0.244732	0.597952
C68	C	1.692523	0.255268	1.097952
C69	C	1.197258	-0.152307	0.592379
C70	C	1.697258	0.347693	1.092379
C71	C	1.181397	-0.461641	0.338062
C72	C	1.681397	0.038359	0.838062
C73	C	1.181541	-0.461448	0.221283
C74	C	1.681541	0.038552	0.721283
C75	C	1.293324	-0.360573	1.002592
C76	C	1.793324	0.139427	1.502592
C77	C	1.349244	-0.310093	1.057829
C78	C	1.849244	0.189907	1.557829
C79	C	1.349266	-0.310064	1.167550
C80	C	1.849266	0.189936	1.667550
C81	C	1.293359	-0.360518	1.222036
C82	C	1.793359	0.139482	1.722036
C83	C	1.237439	-0.410998	1.166799
C84	C	1.737439	0.089002	1.666799
C85	C	1.237425	-0.411024	1.057076
C86	C	1.737425	0.088976	1.557076
C87	C	1.125621	-0.511928	1.166045
C88	C	1.625621	-0.011928	1.666045
C89	C	1.125602	-0.511963	1.056325
C90	C	1.625602	-0.011963	1.556325
C91	C	1.069715	-0.562382	1.220532
C92	C	1.569715	-0.062382	1.720532
C93	C	1.013798	-0.612868	1.165295
C94	C	1.513798	-0.112868	1.665295
C95	C	1.013779	-0.612895	1.055567
C96	C	1.513779	-0.112895	1.555567
C97	C	1.069682	-0.562443	1.001087
C98	C	1.569682	-0.062443	1.501087
H99	H	0.693233	-0.531021	0.702660
H100	H	1.193233	-0.031021	1.202660
H101	H	1.250806	-0.949824	0.528222
H102	H	1.750806	-0.449824	1.028222
H103	H	0.670438	-0.392284	0.519480
H104	H	1.170438	0.107716	1.019480
H105	H	1.112170	-0.972582	0.693858
H106	H	1.612170	-0.472582	1.193858
H107	H	0.968233	-0.653993	1.010598
H108	H	1.468233	-0.153993	1.510598
H109	H	1.293319	-0.360600	0.913252
H110	H	1.793319	0.139400	1.413252
H111	H	1.394760	-0.269013	1.013454
H112	H	1.894760	0.230987	1.513454
H113	H	1.394796	-0.268954	1.212524
H114	H	1.894796	0.231046	1.712524
H115	H	1.293376	-0.360482	1.311376
H116	H	1.793376	0.139518	1.811376
H117	H	1.069734	-0.562351	1.309872
H118	H	1.569734	-0.062351	1.809872
H119	H	0.968279	-0.653938	1.209665
H120	H	1.468279	-0.153938	1.709665
H121	H	1.069675	-0.562464	0.911747
H122	H	1.569675	-0.062464	1.411747
