data_functionalizedCrystal
_audit_creation_method	'MofGen! by Chris Wilmer'
_symmetry_space_group_name_H-M	'P1'
_symmetry_Int_Tables_number	1
_symmetry_cell_setting	triclinic
loop_
_symmetry_equiv_pos_as_xyz
  x,y,z
_cell_length_a	19.288864
_cell_length_b	12.837942
_cell_length_c	18.366186
_cell_angle_alpha	89.994829
_cell_angle_beta	89.977106
_cell_angle_gamma	88.982593
loop_
_atom_site_label
_atom_site_type_symbol
_atom_site_fract_x
_atom_site_fract_y
_atom_site_fract_z
O1	O	0.930180	0.129276	-0.060785
O2	O	0.729110	0.146715	-0.060736
O3	O	0.825187	-0.012886	-0.060755
O4	O	0.834104	0.288877	-0.060766
O5	O	0.825168	-0.012894	0.060345
O6	O	0.729092	0.146707	0.060364
O7	O	0.930162	0.129268	0.060314
Zn8	Zn	0.829624	0.137986	0.079566
Zn9	Zn	0.829648	0.137997	-0.079987
O10	O	0.834085	0.288870	0.060334
C11	C	0.703186	0.146150	-0.000179
C12	C	0.625968	0.144466	-0.000160
C13	C	0.587666	0.238113	-0.000175
C14	C	0.515111	0.236530	-0.000183
C15	C	0.480860	0.141295	-0.000191
C16	C	0.519171	0.047636	-0.000172
C17	C	0.591725	0.049221	-0.000157
C18	C	0.367493	0.066433	-0.042639
C19	C	0.294940	0.064852	-0.042659
C20	C	0.257081	0.136402	-0.000235
C21	C	0.291782	0.209552	0.042200
C22	C	0.364336	0.211137	0.042215
C23	C	0.402188	0.139566	-0.000207
C24	C	0.140106	0.228340	-0.000257
C25	C	0.067550	0.226753	-0.000261
C26	C	0.071611	0.037857	-0.000257
C27	C	0.144166	0.039446	-0.000246
C28	C	0.178409	0.134690	-0.000250
C29	C	0.822165	-0.051497	-0.000205
C30	C	0.813181	-0.166532	-0.000204
C31	C	0.921187	-0.407995	-0.000245
C32	C	0.912748	-0.516081	-0.000245
C33	C	0.787867	-0.490793	-0.000206
C34	C	0.796305	-0.382707	-0.000207
C35	C	0.862967	-0.341312	-0.000226
C36	C	0.871405	-0.233223	-0.000221
C37	C	0.746524	-0.207938	-0.000188
C38	C	0.738086	-0.316024	-0.000187
C39	C	0.956086	0.129833	-0.000243
C40	C	1.033304	0.131518	-0.000267
C41	C	0.837107	0.327480	-0.000218
C42	C	0.846091	0.442515	-0.000224
N43	N	0.829612	0.137979	0.188457
N44	N	0.829665	0.137996	-0.188879
C45	C	0.872172	0.067342	0.226549
C46	C	0.872177	0.067337	0.302777
C47	C	0.829628	0.137987	0.340910
C48	C	0.787059	0.208630	0.302809
C49	C	0.787051	0.208625	0.226583
C50	C	0.826777	0.232410	0.461668
C51	C	0.826790	0.232416	0.537893
C52	C	0.829649	0.138000	0.576018
C53	C	0.832508	0.043575	0.537908
C54	C	0.832500	0.043571	0.461681
C55	C	0.829632	0.137999	0.423565
C56	C	0.872216	0.067352	0.696764
C57	C	0.872215	0.067346	0.772994
C58	C	0.787101	0.208648	0.773024
C59	C	0.787098	0.208645	0.696796
C60	C	0.829659	0.137998	0.658671
H61	H	0.167988	0.305893	-0.000250
H62	H	0.960157	-0.570371	-0.000263
H63	H	0.733594	-0.524517	-0.000199
C64	C	0.835637	-0.060295	0.419763
N65	N	0.837995	-0.138528	0.388191
C66	C	0.409131	-0.012280	-0.089315
N67	N	0.440492	-0.071563	-0.124472
C68	C	0.919024	-0.010382	0.814895
N69	N	0.954279	-0.068933	0.846455
C70	C	0.664762	-0.361572	-0.000159
N71	N	0.609532	-0.395877	-0.000131
H72	H	0.906869	0.009824	0.665722
H73	H	0.752414	0.266153	0.333861
H74	H	0.834836	-0.033307	0.568947
H75	H	0.699118	-0.153632	-0.000166
H76	H	0.622910	-0.027040	-0.000145
C77	C	0.481494	-0.057123	-0.000181
N78	N	0.453116	-0.136030	-0.000186
H79	H	0.752445	0.266168	0.665780
H80	H	0.925684	-0.199522	-0.000234
H81	H	0.906826	0.009815	0.195510
C82	C	0.994514	-0.362458	-0.000262
N83	N	1.049746	-0.328161	-0.000275
C84	C	0.625329	0.342884	-0.000165
N85	N	0.653698	0.421800	-0.000152
C86	C	0.256776	-0.015619	-0.089332
N87	N	0.228032	-0.076236	-0.124485
H88	H	0.906835	0.009814	0.333797
C89	C	0.740298	0.286365	0.814966
N90	N	0.705044	0.344903	0.846560
C91	C	0.823638	0.336284	0.579807
N92	N	0.821259	0.414521	0.611375
H93	H	0.175352	-0.036812	-0.000238
H94	H	0.752392	0.266147	0.195568
C95	C	0.472971	0.339553	-0.000208
N96	N	0.441233	0.417150	-0.000231
C97	C	0.402505	0.291590	0.088900
N98	N	0.431253	0.352184	0.124067
C99	C	0.823633	0.336281	0.419739
N100	N	0.821265	0.414515	0.388159
C101	C	0.033940	-0.066903	-0.000264
N102	N	0.005562	-0.145811	-0.000269
H103	H	0.036366	0.303015	-0.000269
C104	C	0.250142	0.288261	0.088873
N105	N	0.218775	0.347543	0.124025
