data_functionalizedCrystal
_audit_creation_method	'MofGen! by Chris Wilmer'
_symmetry_space_group_name_H-M	'P1'
_symmetry_Int_Tables_number	1
_symmetry_cell_setting	triclinic
loop_
_symmetry_equiv_pos_as_xyz
  x,y,z
_cell_length_a	14.908520
_cell_length_b	12.759401
_cell_length_c	12.759393
_cell_angle_alpha	90.019465
_cell_angle_beta	93.262420
_cell_angle_gamma	86.681195
loop_
_atom_site_label
_atom_site_type_symbol
_atom_site_fract_x
_atom_site_fract_y
_atom_site_fract_z
Zn1	Zn	-0.359146	-1.582064	-0.618114
Zn2	Zn	-0.510032	-1.571795	-0.452560
Zn3	Zn	-0.359188	-1.406363	-0.442453
Zn4	Zn	-0.509958	-1.396196	-0.628194
O5	O	-0.434581	-1.489104	-0.535330
O6	O	-0.379175	-1.727722	-0.596164
O7	O	-0.490071	-1.549807	-0.304202
O8	O	-0.232939	-1.438223	-0.457306
O9	O	-0.490030	-1.720177	-0.474533
O10	O	-0.232908	-1.567309	-0.586363
O11	O	-0.379247	-1.428265	-0.296776
O12	O	-0.379175	-1.257994	-0.467080
O13	O	-0.489903	-1.420895	-0.773874
O14	O	-0.489944	-1.250525	-0.603543
O15	O	-0.379103	-1.557451	-0.766469
O16	O	-0.636266	-1.539949	-0.484307
O17	O	-0.636211	-1.410937	-0.613344
C18	C	-0.434556	-1.216139	-0.535309
C19	C	-0.434568	-1.099361	-0.535327
C20	C	-0.376948	-1.048422	-0.598770
C21	C	-0.376953	-0.938697	-0.598776
C22	C	-0.492206	-0.930861	-0.471893
C23	C	-0.492196	-1.040584	-0.471882
C24	C	-0.668972	-1.473254	-0.551039
C25	C	-0.769246	-1.466569	-0.557795
C26	C	-0.957667	-1.588486	-0.436231
C27	C	-1.051883	-1.582209	-0.442575
C28	C	-1.051896	-1.447743	-0.576832
C29	C	-0.957680	-1.454021	-0.570487
C30	C	-0.910569	-1.524393	-0.500184
C31	C	-0.816351	-1.530665	-0.493835
C32	C	-0.816365	-1.396205	-0.628096
C33	C	-0.910581	-1.389928	-0.634440
C34	C	-0.199274	-1.505045	-0.519583
C35	C	-0.099001	-1.511838	-0.512872
C36	C	-0.434490	-1.489184	-0.809357
C37	C	-0.434451	-1.489218	-0.926132
C38	C	-0.434598	-0.763137	-0.535347
C39	C	-0.434584	-0.879914	-0.535343
C40	C	-0.376734	-1.425956	-0.977126
C41	C	-0.376706	-1.425982	-1.086848
C42	C	-0.492115	-1.552542	-1.094573
C43	C	-0.492146	-1.552509	-0.984853
C44	C	-0.434607	-1.489090	-0.262364
C45	C	-0.434392	-1.489277	-0.145574
H46	H	-0.539126	-0.882992	-0.420239
O47	O	-0.554342	-1.620803	-1.157907
H48	H	-0.538892	-1.704301	-1.135811
H49	H	-0.777994	-1.587963	-0.436588
H50	H	-0.539118	-1.082060	-0.420214
O51	O	-0.906844	-1.664381	-0.360409
H52	H	-0.955424	-1.707899	-0.317006
O53	O	-0.314801	-0.883760	-0.667203
H54	H	-0.324479	-0.797588	-0.656545
O55	O	-0.961393	-1.314027	-0.710266
H56	H	-0.943373	-1.232785	-0.690952
H57	H	-0.330020	-1.096275	-0.650427
O58	O	-1.102686	-1.651330	-0.373593
H59	H	-1.054095	-1.701309	-0.323638
H60	H	-1.090270	-1.390456	-0.634076
O61	O	-0.314449	-1.357758	-1.141853
H62	H	-0.274332	-1.313753	-1.082583
O63	O	-0.554401	-1.620755	-0.929853
H64	H	-0.600316	-1.570607	-0.882938
O65	O	-0.765569	-1.327072	-0.697085
H66	H	-0.692140	-1.343261	-0.680869
H67	H	-0.329755	-1.374420	-0.929318
