data_functionalizedCrystal
_audit_creation_method	'MofGen! by Chris Wilmer'
_symmetry_space_group_name_H-M	'P1'
_symmetry_Int_Tables_number	1
_symmetry_cell_setting	triclinic
loop_
_symmetry_equiv_pos_as_xyz
  x,y,z
_cell_length_a	14.446369
_cell_length_b	12.970454
_cell_length_c	12.970454
_cell_angle_alpha	120.000093
_cell_angle_beta	90.002619
_cell_angle_gamma	60.000990
loop_
_atom_site_label
_atom_site_type_symbol
_atom_site_fract_x
_atom_site_fract_y
_atom_site_fract_z
Zr1	Zr	0.891728	1.128565	0.135343
O2	O	0.743931	1.343644	0.299956
O3	O	0.937035	0.913479	0.084881
O4	O	0.937041	1.128567	0.299969
O5	O	0.743922	1.128557	-0.084799
O6	O	1.089369	1.128576	0.299978
O7	O	0.743926	1.128556	0.084868
O8	O	1.089360	0.743823	-0.084775
O9	O	0.743931	1.513310	0.299954
O10	O	1.070040	1.001957	0.063365
O11	O	0.956357	1.001950	-0.063262
O12	O	0.956362	1.255188	0.189977
O13	O	0.842679	1.255182	0.063350
Zr14	Zr	1.134669	1.128581	-0.135241
Zr15	Zr	1.134675	1.128580	0.135357
Zr16	Zr	0.891723	1.128567	-0.135256
Zr17	Zr	0.891729	1.399163	0.135340
Zr18	Zr	1.134669	0.857984	-0.135239
O19	O	1.089362	1.343667	-0.084780
O20	O	1.089370	1.343665	0.299976
O21	O	0.743923	1.343646	-0.084800
O22	O	1.282467	0.913502	-0.299854
O23	O	1.282475	0.913500	0.084902
O24	O	0.937028	0.913481	-0.299875
O25	O	1.282475	1.128589	0.084900
O26	O	1.089357	1.128580	-0.299868
O27	O	0.937028	1.128570	-0.299877
O28	O	1.282472	1.128590	-0.084766
O29	O	0.937042	1.513322	0.299966
O30	O	1.089356	0.743825	-0.299864
O31	O	1.282466	0.743836	-0.299853
O32	O	1.282471	0.743835	-0.084763
O33	O	0.743927	1.513311	0.084865
O34	O	0.937037	1.513323	0.084876
O35	O	1.070035	1.001958	-0.189875
O36	O	1.183719	1.001964	-0.063248
O37	O	1.070041	1.255196	0.063363
O38	O	0.956357	1.255190	-0.063264
C39	C	1.013198	0.790097	0.000054
C40	C	1.013197	0.675221	0.000055
C41	C	0.709309	1.128555	0.000033
C42	C	0.606172	1.128548	0.000026
C43	C	0.531188	0.968852	-0.079413
C44	C	0.638516	0.968744	-0.079868
C45	C	0.531611	1.207880	-0.058225
C46	C	0.424753	1.206866	-0.058799
C47	C	0.423183	1.210154	0.137846
C48	C	0.531855	1.207144	0.137620
C49	C	1.317088	1.128592	0.000069
C50	C	1.420226	1.128598	0.000075
C51	C	1.013206	1.128571	0.338528
C52	C	1.013208	1.128571	0.453404
C53	C	1.013200	1.467050	0.000048
C54	C	1.013200	1.581925	0.000047
C55	C	1.013195	1.128575	0.661573
C56	C	1.013204	1.128575	0.546697
C57	C	1.317087	0.790115	0.000072
C58	C	1.420224	0.675246	0.000079
C59	C	1.013191	0.790099	-0.338424
C60	C	1.013188	0.675224	-0.453299
C61	C	1.317080	0.790117	-0.338406
C62	C	1.420215	0.675249	-0.453275
C63	C	0.709317	1.467029	0.338507
C64	C	0.606183	1.581898	0.453376
C65	C	0.709311	1.467031	0.000030
C66	C	0.606174	1.581901	0.000023
C67	C	1.013207	1.467048	0.338525
C68	C	1.013209	1.581923	0.453400
C69	C	1.468657	0.527818	-0.093393
C70	C	1.565555	0.419871	-0.093390
C71	C	1.614024	0.459355	0.000080
C72	C	1.565582	0.606798	0.093561
C73	C	1.468681	0.714742	0.093562
C74	C	1.468655	0.527821	-0.507217
C75	C	1.565572	0.419873	-0.615136
C76	C	1.614042	0.459355	-0.669117
C77	C	1.565597	0.606798	-0.615165
C78	C	1.468686	0.714743	-0.507243
C79	C	0.557750	1.729326	0.507328
C80	C	0.460855	1.837274	0.615271
C81	C	0.412389	1.797790	0.669256
C82	C	0.460831	1.650348	0.615299
C83	C	0.557729	1.542403	0.507363
C84	C	0.557736	1.542371	-0.093464
C85	C	0.460838	1.650288	-0.093496
C86	C	0.412374	1.797734	-0.000036
C87	C	0.460820	1.837263	0.093456
C88	C	0.557721	1.729347	0.093482
H89	H	0.533523	0.906151	-0.040542
N90	N	1.416408	0.485198	-0.449010
H91	H	1.416556	0.525824	-0.359278
H92	H	1.335875	0.525790	-0.449273
H93	H	1.604998	0.299826	-0.659053
N94	N	0.498025	1.361590	0.222664
H95	H	0.450396	1.409274	0.310328
H96	H	0.568349	1.360422	0.226395
H97	H	0.532218	0.906465	-0.180431
N98	N	1.718544	0.342906	0.000048
H99	H	1.782253	0.353587	-0.008207
H100	H	1.701446	0.353642	0.081695
N101	N	0.319583	1.366033	0.216664
H102	H	0.274585	1.384483	0.290857
H103	H	0.343898	1.434148	0.248387
N104	N	0.320661	1.362106	0.012930
H105	H	0.344330	1.430894	0.044776
H106	H	0.276203	1.374787	-0.044908
H107	H	1.429207	0.495641	-0.169511
H108	H	1.604984	0.299824	-0.169518
N109	N	0.709766	0.885793	-0.214484
H110	H	0.786977	0.800278	-0.234063
H111	H	0.671406	0.849248	-0.273684
N112	N	0.425096	1.132190	-0.193085
H113	H	0.494525	1.100237	-0.251351
H114	H	0.426213	1.044194	-0.218015
H115	H	0.597149	1.761554	0.169615
N116	N	0.495536	1.363522	0.014755
H117	H	0.527256	1.384153	0.086451
H118	H	0.525138	1.378614	-0.043330
H119	H	0.421354	1.618220	0.659269
H120	H	1.692952	0.371445	-0.756996
H121	H	0.597150	1.422362	0.463438
N122	N	1.617882	0.649372	-0.673392
H123	H	1.686621	0.558608	-0.749946
H124	H	1.560598	0.709039	-0.699497
H125	H	1.429250	0.834784	-0.463335
H126	H	0.583212	1.152779	-0.158649
H127	H	0.419064	1.159036	0.186510
H128	H	0.597196	1.761502	0.463384
H129	H	0.333470	1.885592	-0.000071
H130	H	0.692781	0.906524	-0.040777
H131	H	0.421426	1.957320	0.659186
H132	H	0.333489	1.885701	0.757145
H133	H	0.597179	1.422320	-0.169570
N134	N	1.416448	0.873758	0.194368
H135	H	1.392961	0.895844	0.280184
H136	H	1.473732	0.895708	0.190162
N137	N	0.408597	1.607630	-0.194335
H138	H	0.339861	1.698357	-0.180188
H139	H	0.465908	1.547930	-0.280093
N140	N	0.408540	1.996307	0.194216
H141	H	0.327972	2.045258	0.243309
H142	H	0.453995	2.004902	0.253375
N143	N	0.599978	1.130554	0.195281
H144	H	0.624973	1.025999	0.142394
H145	H	0.668817	1.132862	0.198302
H146	H	1.605059	0.638926	0.169661
