data_functionalizedCrystal
_audit_creation_method	'MofGen! by Chris Wilmer'
_symmetry_space_group_name_H-M	'P1'
_symmetry_Int_Tables_number	1
_symmetry_cell_setting	triclinic
loop_
_symmetry_equiv_pos_as_xyz
  x,y,z
_cell_length_a	13.635800
_cell_length_b	17.253917
_cell_length_c	17.078481
_cell_angle_alpha	80.048189
_cell_angle_beta	80.693839
_cell_angle_gamma	102.659311
loop_
_atom_site_label
_atom_site_type_symbol
_atom_site_fract_x
_atom_site_fract_y
_atom_site_fract_z
V1	V	-1.989580	-0.111101	0.254878
O2	O	-1.984034	0.005532	0.242279
O3	O	-1.965266	-0.220480	0.260587
O4	O	-1.955107	-0.109307	0.362640
O5	O	-1.994264	-0.106410	0.139519
V6	V	-2.232740	-0.097160	0.240175
O7	O	-2.117141	-0.141680	0.287131
O8	O	-2.330277	-0.066580	0.207923
O9	O	-2.145451	0.012219	0.234467
O10	O	-2.296984	-0.213793	0.252775
O11	O	-2.286754	-0.101850	0.355535
O12	O	-2.155610	-0.098954	0.132414
C13	C	-1.888071	-0.247147	0.258489
C14	C	-1.908766	-0.336565	0.263875
V15	V	-1.489580	-0.111101	0.254878
O16	O	-1.484034	0.005532	0.242279
O17	O	-1.465266	-0.220480	0.260587
O18	O	-1.455107	-0.109307	0.362640
O19	O	-1.494264	-0.106410	0.139519
V20	V	-1.732740	-0.097160	0.240175
O21	O	-1.617141	-0.141680	0.287131
O22	O	-1.830277	-0.066580	0.207923
O23	O	-1.645451	0.012219	0.234467
O24	O	-1.796984	-0.213793	0.252775
O25	O	-1.786754	-0.101850	0.355535
O26	O	-1.655610	-0.098954	0.132414
C27	C	-1.905310	-0.367142	0.192979
C28	C	-1.924765	-0.451160	0.198042
C29	C	-1.947668	-0.504600	0.274002
C30	C	-1.951127	-0.474019	0.344903
C31	C	-1.931679	-0.390002	0.339839
C32	C	-2.007251	-0.757102	0.297020
C33	C	-2.026696	-0.841124	0.302078
C34	C	-2.000335	-0.818260	0.155217
C35	C	-1.980882	-0.734242	0.150159
C36	C	-1.984347	-0.703668	0.221061
N37	N	-1.967552	-0.590481	0.279179
N38	N	-1.964471	-0.617789	0.215883
C39	C	-1.875111	-0.105334	0.388667
C40	C	-1.887567	-0.104591	0.476811
C41	C	-2.054317	0.038882	0.236563
C42	C	-2.023240	0.128299	0.231182
C43	C	-2.067276	-0.102930	0.106383
C44	C	-2.044440	-0.103668	0.018237
C45	C	-1.388071	-0.247147	0.258489
C46	C	-1.408766	-0.336565	0.263875
C47	C	-1.375111	-0.105334	0.388667
C48	C	-1.387567	-0.104591	0.476811
C49	C	-1.984080	-0.108257	0.522535
C50	C	-1.995777	-0.107559	0.605356
C51	C	-1.910961	-0.103200	0.642453
C52	C	-1.814439	-0.099531	0.596722
C53	C	-1.802742	-0.100223	0.513902
C54	C	-1.936221	-0.100692	0.889686
C55	C	-1.947927	-0.100002	0.972514
C56	C	-2.129264	-0.108029	0.981141
C57	C	-2.117559	-0.108726	0.898320
C58	C	-2.021038	-0.105053	0.852596
N59	N	-1.922916	-0.102488	0.727109
N60	N	-2.009083	-0.105758	0.767939
C61	C	-1.554317	0.038882	0.236563
C62	C	-1.523240	0.128299	0.231182
C63	C	-1.567276	-0.102930	0.106383
C64	C	-1.544440	-0.103668	0.018237
C65	C	-1.509164	-0.382655	0.270645
C66	C	-1.528626	-0.466675	0.275718
C67	C	-1.447686	-0.504603	0.274014
C68	C	-1.347280	-0.458507	0.267246
C69	C	-1.327821	-0.374489	0.262179
C70	C	-1.484086	-0.108249	0.522520
C71	C	-1.495800	-0.107541	0.605339
C72	C	-1.410996	-0.103179	0.642450
C73	C	-1.314468	-0.099518	0.596735
C74	C	-1.302753	-0.100221	0.513915
C75	C	-1.595335	0.174389	0.224414
C76	C	-1.566145	0.258409	0.219345
C77	C	-1.464862	0.296336	0.221050
C78	C	-1.392761	0.250241	0.227817
C79	C	-1.421950	0.166223	0.232880
C80	C	-1.447013	-0.108020	-0.018853
C81	C	-1.425539	-0.108705	-0.101677
C82	C	-1.501495	-0.105043	-0.147407
C83	C	-1.598930	-0.100689	-0.110312
C84	C	-1.620401	-0.099998	-0.027491
H85	H	-1.886653	-0.323635	0.131124
Cl86	Cl	-2.090715	-0.113743	0.475909
Cl87	Cl	-1.428183	0.401960	0.214685
H88	H	-1.385152	-0.111002	0.018370
H89	H	-1.677811	0.143519	0.223025
Cl90	Cl	-2.250598	-0.112642	1.038626
H91	H	-2.074366	-0.110539	0.642580
Cl92	Cl	-1.920430	-0.489597	0.108912
Cl93	Cl	-1.201594	-0.316556	0.253660
H94	H	-2.186628	-0.112275	0.868121
H95	H	-1.575081	-0.351785	0.272028
H96	H	-1.962239	-0.690736	0.088305
Cl97	Cl	-1.995987	-0.856702	0.066089
H98	H	-1.281385	-0.489401	0.265860
H99	H	-2.045343	-0.884634	0.363937
H100	H	-1.245425	-0.095968	0.626963
Cl101	Cl	-2.011600	-0.718676	0.386154
Cl102	Cl	-1.654855	-0.524606	0.284221
Cl103	Cl	-1.472167	-0.610228	0.280383
Cl104	Cl	-1.181406	-0.095633	0.456465
H105	H	-1.624867	0.295928	0.213837
H106	H	-1.553150	-0.111803	0.492316
Cl107	Cl	-1.265435	0.297935	0.229956
H108	H	-1.346197	-0.112251	-0.131868
Cl109	Cl	-1.841292	-0.094522	1.019148
Cl110	Cl	-1.694412	-0.096096	-0.167811
H111	H	-1.745380	-0.095977	0.626932
Cl112	Cl	-1.331302	0.108292	0.241392
H113	H	-1.484003	-0.105616	-0.214843
Cl114	Cl	-1.742896	-0.094540	0.019130
Cl115	Cl	-1.617158	-0.112150	0.662795
H116	H	-1.934505	-0.365108	0.397571
H117	H	-1.420549	-0.102608	0.709887
Cl118	Cl	-1.681404	-0.095606	0.456418
Cl119	Cl	-1.979927	-0.541201	0.440396
Cl120	Cl	-1.814887	-0.096096	0.832220
