data_functionalizedCrystal
_audit_creation_method	'MofGen! by Chris Wilmer'
_symmetry_space_group_name_H-M	'P1'
_symmetry_Int_Tables_number	1
_symmetry_cell_setting	triclinic
loop_
_symmetry_equiv_pos_as_xyz
  x,y,z
_cell_length_a	14.853567
_cell_length_b	10.723024
_cell_length_c	9.798715
_cell_angle_alpha	90.002215
_cell_angle_beta	90.000481
_cell_angle_gamma	84.051400
loop_
_atom_site_label
_atom_site_type_symbol
_atom_site_fract_x
_atom_site_fract_y
_atom_site_fract_z
O1	O	-1.197224	-0.162914	-0.113393
O2	O	-0.934867	-0.182321	-0.113416
O3	O	-1.072097	0.009020	-0.113399
O4	O	-1.059994	-0.354255	-0.113410
O5	O	-1.072087	0.009021	0.113583
O6	O	-0.934857	-0.182320	0.113566
O7	O	-1.197214	-0.162913	0.113589
Zn8	Zn	-1.066034	-0.172616	0.149616
Zn9	Zn	-1.066047	-0.172618	-0.149443
O10	O	-1.059984	-0.354254	0.113572
C11	C	-0.901269	-0.181441	0.000072
C12	C	-0.801171	-0.178806	0.000063
C13	C	-1.071211	0.055511	0.000090
C14	C	-1.068576	0.194039	0.000085
C15	C	-1.230812	-0.163793	0.000098
C16	C	-1.330910	-0.166428	0.000098
C17	C	-0.387978	-0.054006	0.000097
C18	C	-0.367897	-0.281324	0.000089
C19	C	-0.461944	-0.283802	0.000085
C20	C	-0.519013	-0.171380	0.000085
C21	C	-0.482034	-0.056481	0.000089
C22	C	-0.498930	-0.398699	0.000067
C23	C	-0.592982	-0.401181	0.000061
C24	C	-0.650052	-0.288758	0.000070
C25	C	-0.613068	-0.173854	0.000076
C26	C	-0.670137	-0.061433	0.000076
C27	C	-0.633155	0.053473	0.000092
C28	C	-0.539104	0.055942	0.000099
C29	C	-0.744103	-0.291228	0.000063
C30	C	-0.764192	-0.063907	0.000067
C31	C	-1.060870	-0.400745	0.000079
C32	C	-1.063505	-0.539273	0.000075
N33	N	-1.066032	-0.172614	0.353715
C34	C	-1.145363	0.269798	0.000090
C35	C	-1.142641	0.412974	0.000085
N36	N	-1.066056	-0.172610	-0.353543
C37	C	-1.123794	-0.092101	0.578654
C38	C	-1.123782	-0.092103	0.421492
H39	H	-0.810652	0.027642	0.000073
H40	H	-1.000821	0.235175	0.000070
H41	H	-1.016618	-0.241543	0.588155
H42	H	-1.173210	-0.023171	0.363184
H43	H	-0.452459	-0.490226	0.000053
H44	H	-0.679632	0.145006	0.000082
Cl45	Cl	-0.492606	0.200381	0.000110
Cl46	Cl	-0.341489	0.090438	0.000124
H47	H	-1.016594	-0.241540	0.412014
H48	H	-1.208376	0.478071	0.000095
H49	H	-1.173239	-0.023177	0.636955
H50	H	-0.321427	-0.372852	0.000078
H51	H	-0.997766	0.395637	0.000081
Cl52	Cl	-0.639466	-0.545630	0.000045
Cl53	Cl	-1.249977	0.206298	0.000091
Cl54	Cl	-0.790591	-0.435668	0.000033
