data_functionalizedCrystal
_audit_creation_method	'MofGen! by Chris Wilmer'
_symmetry_space_group_name_H-M	'P1'
_symmetry_Int_Tables_number	1
_symmetry_cell_setting	triclinic
loop_
_symmetry_equiv_pos_as_xyz
  x,y,z
_cell_length_a	17.699077
_cell_length_b	17.699092
_cell_length_c	16.176319
_cell_angle_alpha	89.994879
_cell_angle_beta	89.993140
_cell_angle_gamma	83.283472
loop_
_atom_site_label
_atom_site_type_symbol
_atom_site_fract_x
_atom_site_fract_y
_atom_site_fract_z
O1	O	1.004084	0.095691	-0.068732
O2	O	0.783706	0.108148	-0.068736
O3	O	0.900118	-0.008269	-0.068732
O4	O	0.887672	0.212109	-0.068736
O5	O	0.900102	-0.008276	0.068761
O6	O	0.783690	0.108141	0.068757
O7	O	1.004068	0.095684	0.068761
Cu8	Cu	0.893878	0.101912	0.081313
Cu9	Cu	0.893897	0.101920	-0.081289
O10	O	0.887656	0.212101	0.068757
C11	C	0.755501	0.107699	0.000010
C12	C	0.671482	0.106362	0.000008
C13	C	0.632006	0.105728	0.074957
C14	C	0.553064	0.104460	0.074958
C15	C	0.513598	0.103831	0.000009
C16	C	0.553080	0.104463	-0.074945
C17	C	0.632022	0.105726	-0.074945
C18	C	0.234716	0.099370	-0.074946
C19	C	0.155769	0.098109	-0.074940
C20	C	0.155758	0.098104	0.074956
C21	C	0.234700	0.099367	0.074956
C22	C	0.274176	0.099994	0.000003
C23	C	0.359774	0.101368	0.000003
C24	C	0.428000	0.102463	0.000009
C25	C	0.899663	-0.036470	0.000013
C26	C	0.898322	-0.120487	0.000009
C27	C	0.897702	-0.159951	-0.074939
C28	C	0.896438	-0.238894	-0.074940
C29	C	0.895798	-0.278373	0.000008
C30	C	0.896415	-0.238903	0.074962
C31	C	0.897674	-0.159961	0.074962
C32	C	0.891335	-0.557268	0.074963
C33	C	0.890077	-0.636216	0.074958
C34	C	0.890098	-0.636201	-0.074939
C35	C	0.891357	-0.557259	-0.074939
C36	C	0.891970	-0.517796	0.000014
C37	C	0.893341	-0.432197	0.000015
C38	C	0.894433	-0.363971	0.000009
C39	C	1.032274	0.096133	0.000013
C40	C	1.116292	0.097470	0.000009
C41	C	0.888111	0.240302	0.000010
C42	C	0.889452	0.324320	0.000008
N43	N	0.893870	0.101905	0.195678
N44	N	0.893910	0.101921	-0.195654
C45	C	0.945433	0.050376	0.238944
C46	C	0.945437	0.050376	0.325491
C47	C	0.893881	0.101908	0.368771
C48	C	0.842312	0.153439	0.325499
C49	C	0.842305	0.153435	0.238953
C50	C	0.842338	0.153453	0.674527
C51	C	0.842351	0.153454	0.761079
C52	C	0.945469	0.050393	0.761065
C53	C	0.945463	0.050390	0.674520
C54	C	0.893892	0.101918	0.631255
C55	C	0.893887	0.101917	0.537411
C56	C	0.893888	0.101913	0.462613
H57	H	0.664133	0.106247	0.135989
H58	H	0.898228	-0.127813	-0.135971
F59	F	1.000310	-0.004469	0.192891
H60	H	0.889594	-0.668340	-0.135970
H61	H	0.520927	0.103931	0.135988
F62	F	0.787438	0.208280	0.371561
F63	F	0.898333	-0.117962	0.154733
F64	F	0.787456	0.208294	0.628489
H65	H	0.266829	0.099883	0.135987
H66	H	0.987447	0.008430	0.639284
H67	H	0.987422	0.008417	0.360718
F68	F	0.113740	0.097433	0.154730
H69	H	0.895889	-0.271053	0.135987
F70	F	1.000354	-0.004451	0.807116
F71	F	0.787474	0.208303	0.807139
H72	H	0.891882	-0.525119	-0.135970
H73	H	0.123638	0.097597	-0.135976
F74	F	0.276719	0.100038	-0.154719
H75	H	0.891849	-0.525149	0.135995
F76	F	0.889395	-0.678231	0.154732
H77	H	0.520941	0.103946	-0.135969
F78	F	0.674035	0.106398	-0.154715
H79	H	0.895936	-0.271022	-0.135971
F80	F	0.787423	0.208277	0.192908
