data_functionalizedCrystal
_audit_creation_method	'MofGen! by Chris Wilmer'
_symmetry_space_group_name_H-M	'P1'
_symmetry_Int_Tables_number	1
_symmetry_cell_setting	triclinic
loop_
_symmetry_equiv_pos_as_xyz
  x,y,z
_cell_length_a	14.519731
_cell_length_b	10.654550
_cell_length_c	12.996460
_cell_angle_alpha	89.990231
_cell_angle_beta	90.001271
_cell_angle_gamma	95.913122
loop_
_atom_site_label
_atom_site_type_symbol
_atom_site_fract_x
_atom_site_fract_y
_atom_site_fract_z
O1	O	0.129525	-1.666613	0.085654
O2	O	0.462858	-1.333280	0.418987
O3	O	0.796191	-0.999947	0.752321
O4	O	0.141866	-1.301017	0.085638
O5	O	0.475199	-0.967684	0.418971
O6	O	0.808532	-0.634351	0.752304
O7	O	0.001508	-1.493495	0.085637
O8	O	0.334842	-1.160161	0.418970
O9	O	0.668175	-0.826828	0.752304
O10	O	0.269882	-1.474136	0.085655
O11	O	0.603215	-1.140803	0.418988
O12	O	0.936549	-0.807469	0.752321
O13	O	0.001516	-1.493470	-0.085497
O14	O	0.334850	-1.160137	0.247836
O15	O	0.668183	-0.826803	0.581170
O16	O	0.141874	-1.300993	-0.085496
O17	O	0.475207	-0.967659	0.247837
O18	O	0.808540	-0.634326	0.581171
O19	O	0.129533	-1.666589	-0.085480
O20	O	0.462866	-1.333255	0.247854
O21	O	0.796199	-0.999922	0.581187
Cu22	Cu	0.135704	-1.483788	-0.101114
Cu23	Cu	0.469037	-1.150455	0.232220
Cu24	Cu	0.802371	-0.817122	0.565553
Cu25	Cu	0.135694	-1.483818	0.101272
Cu26	Cu	0.469028	-1.150484	0.434605
Cu27	Cu	0.802361	-0.817151	0.767938
O28	O	0.269890	-1.474111	-0.085479
O29	O	0.603223	-1.140778	0.247854
O30	O	0.936557	-0.807445	0.581188
C31	C	0.140964	-1.254216	0.000069
C32	C	0.474297	-0.920882	0.333402
C33	C	0.807630	-0.587549	0.666735
C34	C	0.138253	-1.114798	0.000062
C35	C	0.471586	-0.781465	0.333395
C36	C	0.804919	-0.448132	0.666729
C37	C	-0.032852	-1.492575	0.000070
C38	C	0.300481	-1.159242	0.333403
C39	C	0.633815	-0.825909	0.666736
C40	C	-0.135246	-1.489857	0.000069
C41	C	0.198087	-1.156524	0.333402
C42	C	0.531420	-0.823190	0.666736
C43	C	0.130435	-1.713390	0.000092
C44	C	0.463768	-1.380057	0.333425
C45	C	0.797102	-1.046724	0.666758
C46	C	0.133146	-1.852808	0.000105
C47	C	0.466479	-1.519474	0.333438
C48	C	0.799813	-1.186141	0.666771
C49	C	-0.218402	-1.487649	0.000071
C50	C	0.114931	-1.154315	0.333405
C51	C	0.448265	-0.820982	0.666738
C52	C	-0.322725	-1.484889	0.000079
C53	C	0.010608	-1.151555	0.333412
C54	C	0.343942	-0.818222	0.666746
C55	C	-0.405875	-1.482699	0.000086
C56	C	-0.072542	-1.149365	0.333419
C57	C	0.260791	-0.816032	0.666752
C58	C	-0.510205	-1.479939	0.000091
C59	C	-0.176872	-1.146606	0.333425
C60	C	0.156462	-0.813272	0.666758
C61	C	0.304250	-1.475031	0.000090
C62	C	0.637584	-1.141697	0.333424
C63	C	0.970917	-0.808364	0.666757
C64	C	0.406645	-1.477749	0.000098
C65	C	0.739978	-1.144416	0.333431
C66	C	1.073311	-0.811082	0.666765
N67	N	0.135710	-1.483777	-0.243461
N68	N	0.469043	-1.150444	0.089872
N69	N	0.802377	-0.817110	0.423206
C70	C	0.220893	-1.034527	0.000083
C71	C	0.554226	-0.701193	0.333416
C72	C	0.887559	-0.367860	0.666749
C73	C	0.218340	-0.903530	0.000100
C74	C	0.551673	-0.570197	0.333434
C75	C	0.885006	-0.236863	0.666767
C76	C	0.050499	-0.933090	0.000081
C77	C	0.383833	-0.599756	0.333415
C78	C	0.717166	-0.266423	0.666748
C79	C	0.053053	-1.064084	0.000056
C80	C	0.386387	-0.730750	0.333390
C81	C	0.719720	-0.397417	0.666723
C82	C	0.317794	-1.017459	0.000098
C83	C	0.651127	-0.684126	0.333431
C84	C	0.984461	-0.350793	0.666765
C85	C	0.315241	-0.886463	0.000116
C86	C	0.648575	-0.553129	0.333449
C87	C	0.981908	-0.219796	0.666782
C88	C	0.135712	-1.483783	-0.336567
C89	C	0.469046	-1.150449	-0.003234
C90	C	0.802379	-0.817116	0.330100
C91	C	0.135706	-1.483794	-0.453372
C92	C	0.469040	-1.150461	-0.120039
C93	C	0.802373	-0.817127	0.213295
C94	C	0.135696	-1.483810	-0.546470
C95	C	0.469030	-1.150477	-0.213137
C96	C	0.802363	-0.817143	0.120196
C97	C	0.135691	-1.483823	-0.663283
C98	C	0.469024	-1.150490	-0.329950
C99	C	0.802358	-0.817157	0.003384
N100	N	0.135681	-1.483839	0.243619
N101	N	0.469014	-1.150506	0.576952
N102	N	0.802348	-0.817172	0.910286
H103	H	-0.018867	-0.891782	0.000092
H104	H	0.314466	-0.558448	0.333425
H105	H	0.647799	-0.225115	0.666759
H106	H	0.355696	-1.046420	-0.071523
H107	H	0.689029	-0.713086	0.261811
H108	H	1.022362	-0.379753	0.595144
C109	C	0.361960	-0.698640	0.096809
C110	C	0.695294	-0.365307	0.430142
C111	C	1.028627	-0.031974	0.763475
C112	C	0.364516	-0.829657	0.096809
C113	C	0.697849	-0.496324	0.430142
C114	C	1.031182	-0.162991	0.763475
H115	H	0.392383	-0.663574	0.156498
H116	H	0.725717	-0.330240	0.489832
H117	H	1.059050	0.003093	0.823165
H118	H	0.299398	-0.679942	0.096805
H119	H	0.632731	-0.346608	0.430138
H120	H	0.966064	-0.013275	0.763472
H121	H	0.392383	-0.663551	0.037128
H122	H	0.725716	-0.330217	0.370461
H123	H	1.059049	0.003116	0.703795
H124	H	0.334087	-0.864748	0.156486
H125	H	0.667421	-0.531415	0.489819
H126	H	1.000754	-0.198082	0.823153
H127	H	0.427090	-0.848366	0.096822
H128	H	0.760423	-0.515033	0.430155
H129	H	1.093757	-0.181700	0.763489
H130	H	0.348646	-1.052832	0.073986
H131	H	0.681979	-0.719499	0.407319
H132	H	1.015312	-0.386165	0.740652
H133	H	-0.014241	-1.129437	0.000025
H134	H	0.319093	-0.796104	0.333358
H135	H	0.652426	-0.462771	0.666691
C136	C	0.383352	-0.917253	-0.165132
C137	C	0.716686	-0.583920	0.168201
C138	C	1.050019	-0.250586	0.501534
C139	C	0.354781	-0.824404	-0.099614
C140	C	0.688114	-0.491071	0.233719
C141	C	1.021447	-0.157737	0.567052
H142	H	0.407765	-0.878935	-0.226697
H143	H	0.741098	-0.545602	0.106636
H144	H	1.074431	-0.212269	0.439970
H145	H	0.331934	-0.976489	-0.181179
H146	H	0.665267	-0.643155	0.152155
H147	H	0.998600	-0.309822	0.485488
H148	H	0.429749	-0.959290	-0.131958
H149	H	0.763082	-0.625956	0.201375
H150	H	1.096415	-0.292623	0.534708
H151	H	0.308379	-0.782373	-0.132786
H152	H	0.641712	-0.449040	0.200547
H153	H	0.975046	-0.115707	0.533881
H154	H	0.406205	-0.765146	-0.083570
H155	H	0.739539	-0.431813	0.249764
H156	H	1.072872	-0.098479	0.583097
