data_functionalizedCrystal
_audit_creation_method	'MofGen! by Chris Wilmer'
_symmetry_space_group_name_H-M	'P1'
_symmetry_Int_Tables_number	1
_symmetry_cell_setting	triclinic
loop_
_symmetry_equiv_pos_as_xyz
  x,y,z
_cell_length_a	17.077404
_cell_length_b	19.805405
_cell_length_c	17.077396
_cell_angle_alpha	90.028963
_cell_angle_beta	90.018362
_cell_angle_gamma	90.024696
loop_
_atom_site_label
_atom_site_type_symbol
_atom_site_fract_x
_atom_site_fract_y
_atom_site_fract_z
Zn1	Zn	1.200034	-0.269500	0.443816
Zn2	Zn	1.700034	0.230500	0.943816
Zn3	Zn	1.199932	-0.382693	0.312549
Zn4	Zn	1.699932	0.117307	0.812549
Zn5	Zn	1.068765	-0.269519	0.312567
Zn6	Zn	1.568765	0.230481	0.812567
Zn7	Zn	1.068725	-0.382648	0.443775
Zn8	Zn	1.568725	0.117352	0.943775
O9	O	1.134364	-0.326090	0.378177
O10	O	1.634364	0.173910	0.878177
O11	O	1.309867	-0.284526	0.426413
O12	O	1.809867	0.215474	0.926413
O13	O	1.182507	-0.367707	0.202704
O14	O	1.682507	0.132293	0.702704
O15	O	1.086238	-0.174800	0.330002
O16	O	1.586238	0.325200	0.830002
O17	O	1.309792	-0.367688	0.329972
O18	O	1.809792	0.132312	0.829972
O19	O	1.182680	-0.174786	0.426430
O20	O	1.682680	0.325214	0.926430
O21	O	1.086139	-0.284559	0.202717
O22	O	1.586139	0.215441	0.702717
O23	O	0.958913	-0.284515	0.329962
O24	O	1.458913	0.215485	0.829962
O25	O	1.086169	-0.367612	0.553628
O26	O	1.586169	0.132388	1.053628
O27	O	0.958883	-0.367631	0.426360
O28	O	1.458883	0.132369	0.926360
O29	O	1.182641	-0.284482	0.553658
O30	O	1.682641	0.215518	1.053658
O31	O	1.182467	-0.477404	0.329932
O32	O	1.682467	0.022596	0.829932
O33	O	1.086070	-0.477371	0.426343
O34	O	1.586070	0.022629	0.926343
C35	C	0.930416	-0.326071	0.378159
C36	C	1.430416	0.173929	0.878159
C37	C	0.843166	-0.326079	0.378170
C38	C	1.343166	0.173921	0.878170
C39	C	0.802216	-0.282853	0.428464
C40	C	1.302216	0.217147	0.928464
C41	C	0.720235	-0.282858	0.428468
C42	C	1.220235	0.217142	0.928468
C43	C	0.679207	-0.326092	0.378181
C44	C	1.179207	0.173908	0.878181
C45	C	0.720163	-0.369319	0.327882
C46	C	1.220163	0.130681	0.827882
C47	C	0.802142	-0.369311	0.327875
C48	C	1.302142	0.130689	0.827875
C49	C	0.549293	-0.369335	0.327901
C50	C	1.049293	0.130665	0.827901
C51	C	0.467308	-0.369344	0.327909
C52	C	0.967308	0.130656	0.827909
C53	C	0.467386	-0.282881	0.428494
C54	C	0.967386	0.217119	0.928494
C55	C	0.549365	-0.282873	0.428487
C56	C	1.049365	0.217127	0.928487
C57	C	0.590316	-0.326102	0.378189
C58	C	1.090316	0.173898	0.878189
C59	C	1.134274	-0.501946	0.378148
C60	C	1.634274	-0.001946	0.878148
C61	C	1.134308	-0.577178	0.378163
C62	C	1.634308	-0.077178	0.878163
C63	C	1.184496	-0.612457	0.428412
C64	C	1.684496	-0.112457	0.928412
C65	C	1.184524	-0.683145	0.428427
C66	C	1.684524	-0.183145	0.928427
C67	C	1.134368	-0.718554	0.378187
C68	C	1.634368	-0.218554	0.878187
C69	C	1.084175	-0.683270	0.327935
C70	C	1.584175	-0.183270	0.827935
C71	C	1.084143	-0.612583	0.327925
C72	C	1.584143	-0.112583	0.827925
C73	C	1.084301	-0.968343	0.327976
C74	C	1.584301	-0.468343	0.827976
C75	C	1.084338	-1.039035	0.327988
C76	C	1.584338	-0.539035	0.827988
C77	C	1.184682	-1.038905	0.428477
C78	C	1.684682	-0.538905	0.928477
C79	C	1.184650	-0.968218	0.428467
C80	C	1.684650	-0.468218	0.928467
C81	C	1.134454	-0.932941	0.378218
C82	C	1.634454	-0.432941	0.878218
C83	C	1.134423	-0.856293	0.378204
C84	C	1.634423	-0.356293	0.878204
C85	C	1.134403	-0.795201	0.378197
C86	C	1.634403	-0.295201	0.878197
C87	C	1.339108	-0.326110	0.378195
C88	C	1.839108	0.173890	0.878195
C89	C	1.426358	-0.326118	0.378203
C90	C	1.926358	0.173882	0.878203
C91	C	1.134411	-0.326040	0.582921
C92	C	1.634411	0.173960	1.082921
C93	C	1.134432	-0.326019	0.670171
C94	C	1.634432	0.173981	1.170171
C95	C	1.134475	-0.149547	0.378223
C96	C	1.634475	0.350453	0.878223
C97	C	1.134522	-0.074315	0.378242
C98	C	1.634522	0.425685	0.878242
C99	C	1.134362	-0.326091	0.174229
C100	C	1.634362	0.173909	0.674229
C101	C	1.134494	-0.325921	0.086980
C102	C	1.634494	0.174079	0.586980
C103	C	1.184667	-0.282730	0.711178
C104	C	1.684667	0.217270	1.211178
C105	C	1.184676	-0.282707	0.793159
C106	C	1.684676	0.217293	1.293159
C107	C	1.134454	-0.325978	0.834131
C108	C	1.634454	0.174022	1.334131
C109	C	1.084214	-0.369269	0.793118
C110	C	1.584214	0.130731	1.293118
C111	C	1.084201	-0.369287	0.711139
C112	C	1.584201	0.130713	1.211139
C113	C	1.084245	-0.369228	0.963988
C114	C	1.584245	0.130772	1.463988
C115	C	1.084259	-0.369211	1.045973
C116	C	1.584259	0.130789	1.545973
C117	C	1.184720	-0.282648	1.046008
C118	C	1.684720	0.217352	1.546008
C119	C	1.184708	-0.282666	0.964029
C120	C	1.684708	0.217334	1.464029
C121	C	1.134468	-0.325959	0.923022
C122	C	1.634468	0.174041	1.423022
H123	H	0.686751	-0.404518	0.286934
H124	H	1.186751	0.095482	0.786934
H125	H	0.835483	-0.404509	0.286920
H126	H	1.335483	0.095491	0.786920
H127	H	1.225551	-1.067637	0.469395
H128	H	1.725551	-0.567637	0.969395
H129	H	1.225342	-0.583632	0.469320
H130	H	1.725342	-0.083632	0.969320
F131	F	1.030726	-0.575037	0.274444
F132	F	1.530726	-0.075037	0.774444
F133	F	1.238125	-0.236678	0.667580
F134	F	1.738125	0.263322	1.167580
F135	F	1.237932	-0.720688	0.481918
F136	F	1.737932	-0.220688	0.981918
F137	F	1.238035	-0.930538	0.481936
F138	F	1.738035	-0.430538	0.981936
F139	F	1.030732	-0.415360	0.667496
F140	F	1.530732	0.084640	1.167496
H141	H	1.043431	-0.939626	0.287060
H142	H	1.543431	-0.439626	0.787060
H143	H	0.582768	-0.247672	0.469440
H144	H	1.082768	0.252328	0.969440
F145	F	1.238170	-0.236656	0.836798
F146	F	1.738170	0.263344	1.336798
F147	F	0.423644	-0.415371	0.274403
F148	F	0.923644	0.084629	0.774403
H149	H	1.043334	-0.712105	0.287033
H150	H	1.543334	-0.212105	0.787033
H151	H	0.835615	-0.247649	0.469415
H152	H	1.335615	0.252351	0.969415
H153	H	0.686897	-0.247660	0.469423
H154	H	1.186897	0.252340	0.969423
F155	F	1.238164	-0.236617	0.920425
F156	F	1.738164	0.263383	1.420425
H157	H	1.225626	-0.247397	1.079400
H158	H	1.725626	0.252603	1.579400
H159	H	1.043491	-1.067863	0.287075
H160	H	1.543491	-0.567863	0.787075
H161	H	1.043362	-0.404444	1.079330
H162	H	1.543362	0.095556	1.579330
F163	F	1.030772	-0.415303	0.920347
F164	F	1.530772	0.084697	1.420347
H165	H	0.434040	-0.247682	0.469447
H166	H	0.934040	0.252318	0.969447
F167	F	0.592874	-0.415346	0.274371
F168	F	1.092874	0.084654	0.774371
F169	F	1.030760	-0.415318	0.836725
F170	F	1.530760	0.084682	1.336725
