data_functionalizedCrystal
_audit_creation_method	'MofGen! by Chris Wilmer'
_symmetry_space_group_name_H-M	'P1'
_symmetry_Int_Tables_number	1
_symmetry_cell_setting	triclinic
loop_
_symmetry_equiv_pos_as_xyz
  x,y,z
_cell_length_a	15.944551
_cell_length_b	19.288864
_cell_length_c	17.766277
_cell_angle_alpha	90.023209
_cell_angle_beta	89.992686
_cell_angle_gamma	96.682508
loop_
_atom_site_label
_atom_site_type_symbol
_atom_site_fract_x
_atom_site_fract_y
_atom_site_fract_z
O1	O	0.104784	-0.921629	-0.062837
O2	O	0.604784	-0.421629	0.437163
O3	O	0.118919	-0.719406	-0.062786
O4	O	0.618919	-0.219406	0.437214
O5	O	-0.010445	-0.826040	-0.062806
O6	O	0.489555	-0.326040	0.437194
O7	O	0.234147	-0.814995	-0.062817
O8	O	0.734147	-0.314995	0.437183
O9	O	-0.010451	-0.826021	0.062382
O10	O	0.489549	-0.326021	0.562382
O11	O	0.118912	-0.719387	0.062403
O12	O	0.618912	-0.219387	0.562403
O13	O	0.104777	-0.921610	0.062351
O14	O	0.604777	-0.421610	0.562351
Cu15	Cu	0.111844	-0.820497	0.073808
Cu16	Cu	0.611844	-0.320497	0.573808
Cu17	Cu	0.111852	-0.820519	-0.074242
Cu18	Cu	0.611852	-0.320519	0.425758
O19	O	0.234141	-0.814976	0.062372
O20	O	0.734141	-0.314976	0.562372
C21	C	0.118461	-0.693519	-0.000185
C22	C	0.618461	-0.193519	0.499815
C23	C	0.117095	-0.616411	-0.000165
C24	C	0.617095	-0.116411	0.499835
C25	C	-0.041740	-0.825572	-0.000212
C26	C	0.458260	-0.325572	0.499788
C27	C	-0.134981	-0.824197	-0.000211
C28	C	0.365019	-0.324197	0.499789
N29	N	0.111838	-0.820486	0.177938
N30	N	0.611838	-0.320486	0.677938
C31	C	-0.349571	-0.754815	-0.000204
C32	C	0.150429	-0.254815	0.499796
C33	C	-0.410715	-0.787024	0.061514
C34	C	0.089285	-0.287024	0.561514
C35	C	-0.305697	-0.821710	-0.000216
C36	C	0.194303	-0.321710	0.499784
C37	C	-0.410692	-0.787059	-0.061912
C38	C	0.089308	-0.287059	0.438088
C39	C	-0.470601	-0.819303	-0.000224
C40	C	0.029399	-0.319303	0.499776
C41	C	-0.365614	-0.853938	0.061552
C42	C	0.134386	-0.353938	0.561552
C43	C	-0.365585	-0.853963	-0.061929
C44	C	0.134415	-0.353963	0.438071
C45	C	-0.426712	-0.886222	-0.000197
C46	C	0.073288	-0.386222	0.499803
C47	C	-0.210700	-0.823095	-0.000211
C48	C	0.289300	-0.323095	0.499789
C49	C	-0.565597	-0.817924	-0.000224
C50	C	-0.065597	-0.317924	0.499776
C51	C	0.265436	-0.815444	-0.000225
C52	C	0.765436	-0.315444	0.499775
C53	C	0.358677	-0.816819	-0.000230
C54	C	0.858677	-0.316819	0.499770
C55	C	0.105235	-0.947497	-0.000251
C56	C	0.605235	-0.447497	0.499749
C57	C	0.106600	-1.024605	-0.000276
C58	C	0.606600	-0.524605	0.499724
C59	C	0.193000	-0.571915	-0.000181
C60	C	0.693000	-0.071915	0.499819
C61	C	0.191717	-0.499465	-0.000189
C62	C	0.691717	0.000535	0.499811
C63	C	0.114526	-0.471514	-0.000197
C64	C	0.614526	0.028486	0.499803
C65	C	0.038611	-0.516020	-0.000178
C66	C	0.538611	-0.016020	0.499822
C67	C	0.039896	-0.588469	-0.000162
C68	C	0.539896	-0.088469	0.499838
C69	C	0.053847	-0.363099	-0.044079
C70	C	0.553847	0.136901	0.455921
C71	C	0.052565	-0.290651	-0.044099
C72	C	0.552565	0.209349	0.455901
C73	C	0.110560	-0.248058	-0.000242
C74	C	0.610560	0.251942	0.499758
C75	C	0.169850	-0.277920	0.043625
C76	C	0.669850	0.222080	0.543625
C77	C	0.171135	-0.350369	0.043641
C78	C	0.671135	0.149631	0.543641
C79	C	0.113124	-0.392956	-0.000214
C80	C	0.613124	0.107044	0.499786
C81	C	0.185079	-0.125002	-0.000265
C82	C	0.685079	0.374998	0.499735
C83	C	0.183793	-0.052550	-0.000269
C84	C	0.683793	0.447450	0.499731
C85	C	0.030684	-0.069107	-0.000265
C86	C	0.530684	0.430893	0.499735
C87	C	0.031972	-0.141557	-0.000254
C88	C	0.531972	0.358443	0.499746
C89	C	0.109172	-0.169500	-0.000258
C90	C	0.609172	0.330500	0.499742
N91	N	0.111851	-0.820535	-0.178373
N92	N	0.611851	-0.320535	0.321627
C93	C	0.054584	-0.867719	0.217316
C94	C	0.554584	-0.367719	0.717316
C95	C	0.054580	-0.867723	0.296118
C96	C	0.554580	-0.367723	0.796118
C97	C	0.111845	-0.820501	0.335539
C98	C	0.611845	-0.320501	0.835539
C99	C	0.169103	-0.773259	0.296151
C100	C	0.669103	-0.273259	0.796151
C101	C	0.169100	-0.773252	0.217351
C102	C	0.669100	-0.273252	0.717351
C103	C	0.188378	-0.811404	0.460375
C104	C	0.688378	-0.311404	0.960375
C105	C	0.188382	-0.811416	0.539173
C106	C	0.688382	-0.311416	1.039173
C107	C	0.111855	-0.820520	0.578585
C108	C	0.611855	-0.320520	1.078585
C109	C	0.035319	-0.829626	0.539188
C110	C	0.535319	-0.329626	1.039188
C111	C	0.035316	-0.829618	0.460387
C112	C	0.535316	-0.329618	0.960387
C113	C	0.111854	-0.820503	0.420984
C114	C	0.611854	-0.320503	0.920984
C115	C	0.054592	-0.867759	0.703409
C116	C	0.554592	-0.367759	1.203409
C117	C	0.054587	-0.867759	0.782212
C118	C	0.554587	-0.367759	1.282212
C119	C	0.169117	-0.773298	0.782244
C120	C	0.669117	-0.273298	1.282244
C121	C	0.169115	-0.773295	0.703442
C122	C	0.669115	-0.273295	1.203442
C123	C	0.111853	-0.820530	0.664029
C124	C	0.611853	-0.320530	1.164029
H125	H	-0.316049	-0.699288	-0.000128
H126	H	0.183951	-0.199288	0.499872
C127	C	-0.338471	-0.892138	-0.132433
C128	C	0.161529	-0.392138	0.367567
H129	H	-0.312077	-0.931665	-0.117619
H130	H	0.187923	-0.431665	0.382381
H131	H	-0.299860	-0.861405	-0.160951
H132	H	0.200140	-0.361405	0.339049
H133	H	-0.386741	-0.906895	-0.162224
H134	H	0.113259	-0.406895	0.337776
C135	C	0.232088	-0.721299	0.174033
C136	C	0.732088	-0.221299	0.674033
H137	H	0.266197	-0.693176	0.208794
H138	H	0.766197	-0.193176	0.708794
H139	H	0.201962	-0.692386	0.143309
H140	H	0.701962	-0.192386	0.643309
H141	H	0.266980	-0.746288	0.143279
H142	H	0.766980	-0.246288	0.643279
H143	H	0.245606	-0.016321	-0.000277
H144	H	0.745606	0.483679	0.499723
H145	H	-0.430717	-0.758722	0.113705
H146	H	0.069283	-0.258722	0.613705
H147	H	-0.027001	-0.837031	0.428314
H148	H	0.472999	-0.337031	0.928314
H149	H	-0.029838	-0.177787	-0.000246
H150	H	0.470162	0.322213	0.499754
C151	C	-0.338765	-0.892113	0.132120
C152	C	0.161235	-0.392113	0.632120
H153	H	-0.279275	-0.892728	0.131706
H154	H	0.220725	-0.392728	0.631706
H155	H	-0.365874	-0.938652	0.132290
H156	H	0.134126	-0.438652	0.632290
H157	H	-0.354571	-0.868495	0.175903
H158	H	0.145429	-0.368495	0.675903
C159	C	-0.471884	-0.961267	-0.000129
C160	C	0.028116	-0.461267	0.499871
H161	H	-0.505871	-0.968489	-0.043984
H162	H	-0.005871	-0.468489	0.456016
H163	H	-0.506557	-0.968136	0.043333
H164	H	-0.006557	-0.468136	0.543333
H165	H	-0.431109	-0.993468	0.000306
H166	H	0.068891	-0.493468	0.500306
C167	C	-0.437674	-0.748836	-0.132398
C168	C	0.062326	-0.248836	0.367602
H169	H	-0.410977	-0.702161	-0.132306
H170	H	0.089023	-0.202161	0.367694
H171	H	-0.497217	-0.748606	-0.132141
H172	H	0.002783	-0.248606	0.367859
H173	H	-0.421453	-0.772154	-0.176236
H174	H	0.078547	-0.272154	0.323764
C175	C	0.232095	-0.721318	0.339510
C176	C	0.732095	-0.221318	0.839510
H177	H	0.223904	-0.728092	0.392081
H178	H	0.723904	-0.228092	0.892081
H179	H	0.223116	-0.674963	0.326626
H180	H	0.723116	-0.174963	0.826626
H181	H	0.288134	-0.728865	0.326581
H182	H	0.788134	-0.228865	0.826581
H183	H	0.255862	-0.594661	-0.000185
H184	H	0.755862	-0.094661	0.499815
H185	H	0.253530	-0.463229	-0.000199
H186	H	0.753530	0.036771	0.499801
H187	H	0.007955	-0.906187	0.328185
H188	H	0.507955	-0.406187	0.828185
H189	H	0.219409	-0.374680	0.079362
H190	H	0.719409	0.125320	0.579362
H191	H	0.217075	-0.243242	0.079338
H192	H	0.717075	0.256758	0.579338
C193	C	0.269993	-0.155742	-0.000262
C194	C	0.769993	0.344258	0.499738
H195	H	0.315017	-0.118862	-0.000261
H196	H	0.815017	0.381138	0.499739
H197	H	0.273680	-0.183682	-0.043913
H198	H	0.773680	0.316318	0.456087
H199	H	0.273673	-0.183638	0.043404
H200	H	0.773673	0.316362	0.543404
C201	C	0.272566	-0.801405	0.582503
C202	C	0.772566	-0.301405	1.082503
H203	H	0.318142	-0.795970	0.547747
H204	H	0.818142	-0.295970	1.047747
H205	H	0.277110	-0.841094	0.613218
H206	H	0.777110	-0.341094	1.113218
H207	H	0.274389	-0.760962	0.613267
H208	H	0.774389	-0.260962	1.113267
C209	C	-0.054225	-0.038370	-0.000279
C210	C	0.445775	0.461630	0.499721
H211	H	-0.044121	0.011151	-0.000296
H212	H	0.455879	0.511151	0.499704
H213	H	-0.085476	-0.053620	0.043378
H214	H	0.414524	0.446380	0.543378
H215	H	-0.085460	-0.053669	-0.043940
H216	H	0.414540	0.446331	0.456060
C217	C	-0.012653	-0.257809	-0.092347
C218	C	0.487347	0.242191	0.407653
H219	H	-0.047020	-0.293551	-0.118453
H220	H	0.452980	0.206449	0.381547
H221	H	0.015878	-0.226426	-0.127626
H222	H	0.515878	0.273574	0.372374
H223	H	-0.047069	-0.233197	-0.060722
H224	H	0.452931	0.266803	0.439278
H225	H	0.006619	-0.397773	-0.079797
H226	H	0.506619	0.102227	0.420203
C227	C	-0.046297	-0.485277	-0.000191
C228	C	0.453703	0.014723	0.499809
H229	H	-0.036192	-0.435756	-0.000211
H230	H	0.463808	0.064244	0.499789
H231	H	-0.077546	-0.500525	0.043468
H232	H	0.422454	-0.000525	0.543468
H233	H	-0.077535	-0.500578	-0.043849
H234	H	0.422465	-0.000578	0.456151
H235	H	-0.021917	-0.624699	-0.000150
H236	H	0.478083	-0.124699	0.499850
H237	H	0.215740	-0.734837	0.671378
H238	H	0.715740	-0.234837	1.171378
C239	C	0.272561	-0.801385	0.417026
C240	C	0.772561	-0.301385	0.917026
H241	H	0.261599	-0.802676	0.364454
H242	H	0.761599	-0.302676	0.864454
H243	H	0.305368	-0.837708	0.429913
H244	H	0.805368	-0.337708	0.929913
H245	H	0.302645	-0.757576	0.429961
H246	H	0.802645	-0.257576	0.929961
C247	C	-0.008410	-0.919667	0.173966
C248	C	0.491590	-0.419667	0.673966
H249	H	-0.042515	-0.947794	0.208709
H250	H	0.457485	-0.447794	0.708709
H251	H	0.021711	-0.948577	0.143202
H252	H	0.521711	-0.448577	0.643202
H253	H	-0.043306	-0.894674	0.143250
H254	H	0.456694	-0.394674	0.643250
C255	C	-0.048866	-0.839635	0.582529
C256	C	0.451134	-0.339635	1.082529
H257	H	-0.037906	-0.838326	0.635102
H258	H	0.462094	-0.338326	1.135102
H259	H	-0.078958	-0.883437	0.569600
H260	H	0.421042	-0.383437	1.069600
H261	H	-0.081663	-0.803303	0.569635
H262	H	0.418337	-0.303303	1.069635
C263	C	-0.008401	-0.919707	0.660051
C264	C	0.491599	-0.419707	1.160051
H265	H	-0.042510	-0.947831	0.694793
H266	H	0.457490	-0.447831	1.194793
H267	H	0.021723	-0.948618	0.629292
H268	H	0.521723	-0.448618	1.129292
H269	H	-0.043292	-0.894713	0.629330
H270	H	0.456708	-0.394713	1.129330
H271	H	0.007959	-0.906219	0.814274
H272	H	0.507959	-0.406219	1.314274
C273	C	0.232108	-0.721354	0.825597
C274	C	0.732108	-0.221354	1.325597
H275	H	0.223913	-0.728125	0.878168
H276	H	0.723913	-0.228125	1.378168
H277	H	0.223129	-0.674999	0.812709
H278	H	0.723129	-0.174999	1.312709
H279	H	0.288147	-0.728901	0.812671
H280	H	0.788147	-0.228901	1.312671
