data_functionalizedCrystal
_audit_creation_method	'MofGen! by Chris Wilmer'
_symmetry_space_group_name_H-M	'P1'
_symmetry_Int_Tables_number	1
_symmetry_cell_setting	triclinic
loop_
_symmetry_equiv_pos_as_xyz
  x,y,z
_cell_length_a	14.446369
_cell_length_b	14.446369
_cell_length_c	20.875625
_cell_angle_alpha	61.742712
_cell_angle_beta	92.971911
_cell_angle_gamma	60.000221
loop_
_atom_site_label
_atom_site_type_symbol
_atom_site_fract_x
_atom_site_fract_y
_atom_site_fract_z
Zr1	Zr	0.885499	1.013162	-0.084159
O2	O	0.730022	1.206287	-0.186587
O3	O	0.933157	0.820046	-0.052759
O4	O	0.923137	1.013163	-0.186581
O5	O	0.747950	1.013166	0.052796
O6	O	1.075474	1.013155	-0.186578
O7	O	0.740042	1.013170	-0.052765
O8	O	1.093398	0.667704	0.052806
O9	O	0.730027	1.358617	-0.186588
O10	O	1.067175	0.899469	-0.039365
O11	O	0.959390	0.899472	0.039411
O12	O	0.947593	1.126843	-0.118148
O13	O	0.839807	1.126847	-0.039372
Zr14	Zr	1.141073	1.013144	0.084204
Zr15	Zr	1.128459	1.013149	-0.084153
Zr16	Zr	0.898113	1.013157	0.084198
Zr17	Zr	0.885507	1.256113	-0.084160
Zr18	Zr	1.141065	0.770194	0.084205
O19	O	1.093415	1.206260	0.052804
O20	O	1.075480	1.206268	-0.186578
O21	O	0.747957	1.206279	0.052795
O22	O	1.296550	0.820020	0.186632
O23	O	1.278615	0.820027	-0.052751
O24	O	0.951091	0.820039	0.186623
O25	O	1.278622	1.013140	-0.052751
O26	O	1.103435	1.013143	0.186626
O27	O	0.951098	1.013152	0.186622
O28	O	1.286530	1.013137	0.052809
O29	O	0.923148	1.358607	-0.186583
O30	O	1.103424	0.667700	0.186627
O31	O	1.296545	0.667689	0.186632
O32	O	1.286519	0.667693	0.052811
O33	O	0.740053	1.358613	-0.052766
O34	O	0.933174	1.358603	-0.052761
O35	O	1.078979	0.899464	0.118192
O36	O	1.186765	0.899460	0.039416
O37	O	1.067182	1.126834	-0.039366
O38	O	0.959397	1.126838	0.039410
C39	C	1.013276	0.709260	0.000023
C40	C	1.013273	0.606121	0.000024
C41	C	0.945288	0.566835	0.049714
C42	C	0.945637	0.459200	0.049978
C43	C	1.139556	0.371396	0.036004
C44	C	1.139176	0.478642	0.036382
C45	C	0.955999	0.653847	-0.085679
C46	C	0.953529	0.547673	-0.085552
C47	C	0.709379	1.013170	0.000014
C48	C	0.606236	1.013176	0.000012
C49	C	0.384168	1.156565	-0.049426
C50	C	0.491379	1.156662	-0.049704
C51	C	0.600195	0.941947	-0.036230
C52	C	0.492399	0.942858	-0.036592
C53	C	0.502929	0.939901	0.085754
C54	C	0.608888	0.942603	0.085619
C55	C	1.317193	1.013137	0.000030
C56	C	1.420336	1.013131	0.000033
C57	C	0.997508	1.013160	-0.210567
C58	C	0.992153	1.013162	-0.282039
C59	C	1.013296	1.317047	0.000021
C60	C	1.013299	1.420185	0.000021
C61	C	1.073561	1.013159	-0.315614
C62	C	1.068533	1.013150	-0.382766
C63	C	0.982091	1.013152	-0.416344
C64	C	0.900679	1.013150	-0.382762
C65	C	0.905714	1.013151	-0.315609
C66	C	0.958041	1.013143	-0.617182
C67	C	0.953011	1.013147	-0.684341
C68	C	1.120866	1.013144	-0.684339
C69	C	1.125888	1.013152	-0.617187
C70	C	1.044481	1.013144	-0.583609
N71	N	0.976947	1.013146	-0.484985
N72	N	1.049630	1.013140	-0.514966
C73	C	1.029064	1.013147	0.210611
C74	C	1.034419	1.013145	0.282083
C75	C	1.317183	0.709243	0.000031
C76	C	1.420322	0.606099	0.000034
C77	C	1.029054	0.709253	0.210612
C78	C	1.034405	0.606113	0.282085
C79	C	1.332960	0.709237	0.210620
C80	C	1.441455	0.606090	0.282095
C81	C	0.693612	1.317070	-0.210576
C82	C	0.585117	1.420216	-0.282051
C83	C	0.709389	1.317063	0.000013
C84	C	0.606250	1.420208	0.000010
C85	C	0.997518	1.317053	-0.210568
C86	C	0.992167	1.420194	-0.282040
C87	C	1.099343	0.557672	0.356779
C88	C	1.104368	0.460774	0.423941
C89	C	1.044460	0.412311	0.416408
C90	C	0.979514	0.460761	0.341705
C91	C	0.974483	0.557664	0.274545
C92	C	1.548678	0.557650	0.274540
C93	C	1.650629	0.460746	0.341692
C94	C	1.645354	0.412278	0.416398
C95	C	1.538120	0.460729	0.423951
C96	C	1.436171	0.557637	0.356800
C97	C	0.477894	1.468669	-0.274496
C98	C	0.375943	1.565602	-0.341648
C99	C	0.381218	1.614075	-0.416354
C100	C	0.488452	1.565619	-0.423907
C101	C	0.590401	1.468693	-0.356756
C102	C	1.052088	1.468626	-0.274481
C103	C	1.047083	1.565525	-0.341631
C104	C	0.982148	1.613996	-0.416338
C105	C	0.922225	1.565555	-0.423896
C106	C	0.927238	1.468651	-0.356747
C107	C	1.642390	0.459777	0.049466
C108	C	1.535183	0.566702	0.049748
C109	C	1.426362	0.479243	0.036275
C110	C	1.534154	0.371863	0.036634
C111	C	1.523620	0.546840	-0.085713
C112	C	1.417665	0.655315	-0.085574
H113	H	0.985677	0.370249	0.113197
F114	F	0.704513	1.417129	-0.364808
F115	F	0.272704	1.717232	-0.487816
F116	F	0.494048	1.617218	-0.503421
H117	H	0.921607	0.597092	0.213728
H118	H	1.005185	0.680111	-0.122873
H119	H	1.335514	0.687445	-0.125524
F120	F	1.322059	0.609175	0.364853
H121	H	0.860481	0.587129	-0.112435
H122	H	0.869357	1.605036	-0.484732
F123	F	0.491653	1.229705	-0.017931
H124	H	0.473577	1.429207	-0.213673
H125	H	0.288638	1.605039	-0.335482
F126	F	0.997140	0.519948	0.131858
F127	F	1.010730	0.519928	-0.137991
F128	F	0.705848	0.804048	0.008587
F129	F	1.753868	0.309137	0.487860
F130	F	1.415686	0.773596	-0.120965
H131	H	1.157258	0.421337	0.484761
F132	F	0.824365	0.506963	0.018464
F133	F	1.198492	0.425306	0.118805
H134	H	0.852274	0.655549	0.025731
H135	H	1.048565	0.333407	0.471100
F136	F	0.530527	0.805311	0.007440
F137	F	0.915761	0.409170	0.333699
H138	H	1.193000	0.500891	0.002511
H139	H	1.694536	0.497015	0.025280
H140	H	0.533138	0.834240	0.122779
H141	H	1.104965	1.429175	-0.213656
H142	H	1.095879	1.604955	-0.335462
F143	F	0.610886	1.010468	0.121015
H144	H	0.597651	0.991423	-0.098710
F145	F	0.440509	0.999875	0.125330
F146	F	1.209091	0.334132	-0.009050
H147	H	1.187146	1.013149	-0.711684
H148	H	0.691036	0.837921	0.125570
H149	H	1.143947	1.013166	-0.288282
H150	H	1.185214	0.278952	0.098451
F151	F	1.155177	1.013145	-0.418499
H152	H	1.552995	0.597098	0.213717
F153	F	1.217888	1.013152	-0.581452
F154	F	0.861000	1.013152	-0.720074
F155	F	1.764744	0.409195	0.333637
F156	F	1.720399	0.342578	0.131622
F157	F	0.835884	0.776176	-0.125003
F158	F	0.316010	1.230149	-0.017815
F159	F	0.976822	1.717134	-0.487798
F160	F	1.532524	0.409132	0.503465
H161	H	0.878437	1.429229	-0.362913
H162	H	1.534978	0.656050	0.025442
F163	F	1.544583	0.517734	0.132401
F164	F	1.429694	0.428837	0.117943
F165	F	1.586030	0.598569	-0.125282
H166	H	1.589225	0.281106	0.099712
H167	H	0.324476	1.212587	-0.112278
F168	F	0.871399	1.013139	-0.581452
H169	H	1.504975	0.341913	0.002935
F170	F	1.320704	0.508321	-0.008539
F171	F	1.484116	0.514445	-0.134106
H172	H	0.830300	1.013144	-0.410103
F173	F	0.481987	1.230177	-0.132356
H174	H	0.437330	0.993479	-0.099671
H175	H	1.148129	0.597120	0.362928
F176	F	0.819071	1.013147	-0.279874
