data_functionalizedCrystal
_audit_creation_method	'MofGen! by Chris Wilmer'
_symmetry_space_group_name_H-M	'P1'
_symmetry_Int_Tables_number	1
_symmetry_cell_setting	triclinic
loop_
_symmetry_equiv_pos_as_xyz
  x,y,z
_cell_length_a	10.654550
_cell_length_b	13.339070
_cell_length_c	9.130313
_cell_angle_alpha	89.997998
_cell_angle_beta	89.999724
_cell_angle_gamma	100.057112
loop_
_atom_site_label
_atom_site_type_symbol
_atom_site_fract_x
_atom_site_fract_y
_atom_site_fract_z
O1	O	1.715933	0.142435	-0.121681
O2	O	1.355037	0.156005	-0.121708
O3	O	1.494066	0.001665	-0.121693
O4	O	1.576904	0.296774	-0.121696
O5	O	1.494051	0.001661	0.121906
O6	O	1.355022	0.156000	0.121891
O7	O	1.715918	0.142430	0.121917
Cu8	Cu	1.535469	0.149215	0.144147
Cu9	Cu	1.535486	0.149220	-0.143937
O10	O	1.576889	0.296769	0.121903
C11	C	1.307895	0.155006	0.000088
C12	C	1.167445	0.152025	0.000078
C13	C	1.118643	0.242897	0.000082
C14	C	0.986674	0.240090	0.000107
C15	C	0.952320	0.055530	0.000120
C16	C	1.084286	0.058338	0.000105
C17	C	1.480065	-0.036124	0.000103
C18	C	1.438355	-0.148719	0.000094
C19	C	1.762670	-0.511236	0.000119
C20	C	1.801862	-0.405448	0.000135
C21	C	1.710989	-0.341261	0.000124
C22	C	1.580916	-0.382871	0.000098
C23	C	1.541720	-0.488669	0.000093
C24	C	1.490039	-0.318694	0.000099
C25	C	1.359966	-0.360304	0.000073
C26	C	1.320776	-0.466092	0.000066
C27	C	1.411650	-0.530280	0.000077
C28	C	1.529235	-0.212896	0.000104
C29	C	1.308285	-0.190329	0.000078
C30	C	1.269093	-0.296117	0.000062
C31	C	1.763060	0.143429	0.000118
C32	C	1.903510	0.146410	0.000119
C33	C	1.590890	0.334559	0.000103
C34	C	1.632600	0.447153	0.000103
N35	N	1.535465	0.149210	0.346770
N36	N	1.535497	0.149216	-0.346560
C37	C	1.597066	0.080898	0.423428
C38	C	1.597078	0.080898	0.576765
C39	C	1.473888	0.217532	0.576771
C40	C	1.473869	0.217526	0.423437
H41	H	1.635141	-0.179028	0.000126
C42	C	1.295383	-0.675670	-0.125189
C43	C	1.368575	-0.646568	0.000050
H44	H	1.268803	-0.747464	-0.125209
H45	H	1.222649	-0.643412	-0.125175
H46	H	1.345070	-0.655884	-0.210118
H47	H	1.318885	-0.666348	0.084980
H48	H	1.441320	-0.678838	0.000050
C49	C	1.887424	-0.202008	0.000141
C50	C	1.754067	-0.224977	0.000125
H51	H	1.914019	-0.130216	0.000127
H52	H	1.919335	-0.230103	0.085094
H53	H	1.919355	-0.230116	-0.084803
H54	H	1.722136	-0.196875	0.085075
H55	H	1.722142	-0.196870	-0.084837
H56	H	1.214863	-0.499968	0.000056
H57	H	1.647237	0.025271	0.639175
C58	C	1.276671	0.275437	0.624025
C59	C	1.406189	0.292623	0.661056
H60	H	1.234878	0.321793	0.676066
H61	H	1.267850	0.285217	0.521747
H62	H	1.239444	0.207649	0.649172
H63	H	1.443418	0.360409	0.635899
H64	H	1.415017	0.282852	0.763357
C65	C	1.461087	0.392537	0.376197
C66	C	1.406157	0.292624	0.339162
H67	H	1.419287	0.438893	0.324161
H68	H	1.452277	0.402314	0.478476
H69	H	1.548948	0.404166	0.351046
H70	H	1.318298	0.280993	0.364324
H71	H	1.414956	0.282843	0.236861
C72	C	1.110916	-0.448273	0.000048
C73	C	1.126119	-0.341863	0.000048
H74	H	1.022650	-0.476513	0.000049
H75	H	1.149887	-0.470234	-0.084892
H76	H	1.149885	-0.470238	0.085006
H77	H	1.087158	-0.319897	-0.084915
H78	H	1.087131	-0.319894	0.084997
H79	H	1.186348	0.319183	0.000071
C80	C	1.270255	-0.018140	0.000052
C81	C	1.208385	-0.119784	0.000055
H82	H	1.208584	0.025413	0.000031
H83	H	1.322049	-0.005447	0.085002
H84	H	1.322076	-0.005451	-0.084895
H85	H	1.156571	-0.132475	0.085009
H86	H	1.156569	-0.132482	-0.084903
C87	C	1.037082	-0.124381	0.000102
C88	C	1.137938	-0.041557	0.000095
H89	H	1.070209	-0.186047	0.000091
H90	H	0.986334	-0.121641	0.085050
H91	H	0.986317	-0.121633	-0.084847
H92	H	1.188698	-0.044301	0.085050
H93	H	1.188708	-0.044298	-0.084862
C94	C	1.846768	-0.643304	-0.125091
C95	C	1.862547	-0.581790	0.000134
H96	H	1.908439	-0.686858	-0.125080
H97	H	1.763702	-0.683217	-0.125089
H98	H	1.857484	-0.601553	-0.210030
H99	H	1.851821	-0.623542	0.085074
H100	H	1.945633	-0.541874	0.000146
C101	C	0.975312	0.396525	-0.125140
C102	C	0.933030	0.339980	0.000100
H103	H	0.942188	0.458193	-0.125145
H104	H	1.065797	0.411600	-0.125144
H105	H	0.946607	0.358135	-0.210069
H106	H	0.961744	0.378368	0.085029
H107	H	0.842527	0.324908	0.000117
C108	C	0.734769	-0.030724	0.000133
C109	C	0.860908	-0.047447	0.000130
H110	H	0.678340	-0.094300	0.000127
H111	H	0.720209	0.006722	0.085078
H112	H	0.720210	0.006734	-0.084820
H113	H	0.875470	-0.084899	0.085089
H114	H	0.875474	-0.084909	-0.084823
C115	C	1.718821	-0.054167	0.438828
C116	C	1.664757	0.005797	0.339153
H117	H	1.760601	-0.100537	0.386800
H118	H	1.778822	-0.011612	0.498615
H119	H	1.653697	-0.091030	0.498652
H120	H	1.729882	0.042666	0.279336
H121	H	1.604750	-0.036763	0.279341
H122	H	1.907767	-0.371577	0.000159
