data_functionalizedCrystal
_audit_creation_method	'MofGen! by Chris Wilmer'
_symmetry_space_group_name_H-M	'P1'
_symmetry_Int_Tables_number	1
_symmetry_cell_setting	triclinic
loop_
_symmetry_equiv_pos_as_xyz
  x,y,z
_cell_length_a	10.489716
_cell_length_b	19.188930
_cell_length_c	18.266242
_cell_angle_alpha	89.988608
_cell_angle_beta	89.991031
_cell_angle_gamma	83.836959
loop_
_atom_site_label
_atom_site_type_symbol
_atom_site_fract_x
_atom_site_fract_y
_atom_site_fract_z
O1	O	1.691880	0.098422	-0.060884
O2	O	2.191880	0.598422	0.439116
O3	O	1.320473	0.107686	-0.060888
O4	O	1.820473	0.607686	0.439112
O5	O	1.516894	0.001470	-0.060872
O6	O	2.016894	0.501470	0.439128
O7	O	1.495458	0.204638	-0.060901
O8	O	1.995458	0.704638	0.439099
O9	O	1.516860	0.001464	0.060890
O10	O	2.016860	0.501464	0.560890
O11	O	1.320439	0.107680	0.060874
O12	O	1.820439	0.607680	0.560874
O13	O	1.691845	0.098416	0.060878
O14	O	2.191845	0.598416	0.560878
Zn15	Zn	1.506137	0.103048	0.080208
Zn16	Zn	2.006137	0.603048	0.580208
Zn17	Zn	1.506182	0.103055	-0.080218
Zn18	Zn	2.006182	0.603055	0.419782
O19	O	1.495424	0.204633	0.060861
O20	O	1.995424	0.704633	0.560861
C21	C	1.272939	0.106987	-0.000007
C22	C	1.772939	0.606987	0.499993
C23	C	1.131355	0.104905	-0.000008
C24	C	1.631355	0.604905	0.499992
C25	C	1.516183	-0.024549	0.000011
C26	C	2.016183	0.475451	0.500011
C27	C	1.514099	-0.102067	0.000018
C28	C	2.014099	0.397933	0.500018
C29	C	1.032224	0.170040	-0.000019
C30	C	1.532224	0.670040	0.499981
C31	C	0.955631	0.135618	0.060024
C32	C	1.455631	0.635618	0.560024
C33	C	0.955672	0.135608	-0.060023
C34	C	1.455672	0.635608	0.439977
C35	C	1.056626	0.070510	0.060085
C36	C	1.556626	0.570510	0.560085
C37	C	1.056672	0.070510	-0.060017
C38	C	1.556672	0.570510	0.439983
C39	C	0.980129	0.036041	0.000041
C40	C	1.480129	0.536041	0.500041
C41	C	1.629353	-0.146225	0.000022
C42	C	2.129353	0.353775	0.500022
C43	C	1.627395	-0.219061	0.000011
C44	C	2.127395	0.280939	0.500011
C45	C	1.510177	-0.247738	0.000009
C46	C	2.010177	0.252262	0.500009
C47	C	1.394908	-0.203571	0.000000
C48	C	1.894908	0.296429	0.500000
C49	C	1.396869	-0.130735	0.000005
C50	C	1.896869	0.369265	0.500005
N51	N	1.420566	-0.356340	0.041446
N52	N	1.920566	0.143660	0.541446
N53	N	1.418711	-0.425531	0.041443
N54	N	1.918711	0.074469	0.541443
C55	C	1.504262	-0.467186	-0.000006
C56	C	2.004262	0.032814	0.499994
N57	N	1.591757	-0.437036	-0.041443
N58	N	2.091757	0.062964	0.458557
N59	N	1.593616	-0.367839	-0.041438
N60	N	2.093616	0.132161	0.458562
C61	C	1.508038	-0.326714	0.000004
C62	C	2.008038	0.173286	0.500004
C63	C	1.617401	-0.590321	-0.000015
C64	C	2.117401	-0.090321	0.499985
C65	C	1.615438	-0.663159	-0.000031
C66	C	2.115438	-0.163159	0.499969
C67	C	1.382948	-0.647667	-0.000035
C68	C	1.882948	-0.147667	0.499965
C69	C	1.384914	-0.574831	-0.000026
C70	C	1.884914	-0.074831	0.499974
C71	C	1.502144	-0.546163	-0.000012
C72	C	2.002144	-0.046163	0.499988
C73	C	1.739379	0.099115	-0.000005
C74	C	2.239379	0.599115	0.499995
C75	C	1.880964	0.101198	-0.000009
C76	C	2.380964	0.601198	0.499991
C77	C	1.496135	0.230651	-0.000023
C78	C	1.996135	0.730651	0.499977
C79	C	1.498219	0.308170	-0.000034
C80	C	1.998219	0.808170	0.499966
N81	N	1.506115	0.103042	0.189695
N82	N	2.006115	0.603042	0.689695
C83	C	1.593118	0.056033	0.228011
C84	C	2.093118	0.556033	0.728011
C85	C	1.593126	0.056030	0.304656
C86	C	2.093126	0.556030	0.804656
C87	C	1.506142	0.103048	0.342982
C88	C	2.006142	0.603048	0.842982
C89	C	1.419122	0.150061	0.304657
C90	C	1.919122	0.650061	0.804657
C91	C	1.419109	0.150058	0.228013
C92	C	1.919109	0.650058	0.728013
N93	N	1.489561	0.164746	0.463306
N94	N	1.989561	0.664746	0.963306
N95	N	1.489582	0.164746	0.536114
N96	N	1.989582	0.664746	1.036114
C97	C	1.506175	0.103059	0.573904
C98	C	2.006175	0.603059	1.073904
N99	N	1.522773	0.041369	0.536137
N100	N	2.022773	0.541369	1.036137
N101	N	1.522759	0.041369	0.463322
N102	N	2.022759	0.541369	0.963322
C103	C	1.506146	0.103056	0.426089
C104	C	2.006146	0.603056	0.926089
C105	C	1.593191	0.056043	0.695328
C106	C	2.093191	0.556043	1.195328
C107	C	1.593190	0.056039	0.771974
C108	C	2.093190	0.556039	1.271974
C109	C	1.419192	0.150076	0.771973
C110	C	1.919192	0.650076	1.271973
C111	C	1.419188	0.150073	0.695328
C112	C	1.919188	0.650073	1.195328
C113	C	1.506194	0.103058	0.657010
C114	C	2.006194	0.603058	1.157010
N115	N	1.506204	0.103057	0.810295
N116	N	2.006204	0.603057	1.310295
H117	H	1.055627	0.226697	0.000029
H118	H	1.555627	0.726697	0.500029
H119	H	1.100543	0.043028	0.110897
H120	H	1.600543	0.543028	0.610897
C121	C	1.754188	-0.267643	0.000020
C122	C	2.254188	0.232357	0.500020
N123	N	1.849689	-0.304233	0.000030
N124	N	2.349689	0.195767	0.500030
H125	H	1.724810	-0.122888	0.000030
H126	H	2.224810	0.377112	0.500030
H127	H	0.911588	0.163120	-0.110778
H128	H	1.411588	0.663120	0.389222
H129	H	0.911519	0.163112	0.110777
H130	H	1.411519	0.663112	0.610777
H131	H	1.664035	0.017755	0.803171
H132	H	2.164035	0.517755	1.303171
H133	H	1.348346	0.188356	0.664129
H134	H	1.848346	0.688356	1.164129
H135	H	1.712856	-0.566979	-0.000008
H136	H	2.212856	-0.066979	0.499992
H137	H	1.303013	-0.094782	0.000001
H138	H	1.803013	0.405218	0.500001
H139	H	1.663961	0.017749	0.196815
H140	H	2.163961	0.517749	0.696815
C141	C	1.265968	-0.235116	0.000004
C142	C	1.765968	0.264884	0.500004
N143	N	1.168847	-0.258875	0.000006
N144	N	1.668847	0.241125	0.500006
H145	H	1.663976	0.017748	0.335859
H146	H	2.163976	0.517748	0.835859
C147	C	1.116285	0.033394	-0.128586
C148	C	1.616285	0.533394	0.371414
N149	N	1.161180	0.005441	-0.180239
N150	N	1.661180	0.505441	0.319761
C151	C	0.948823	-0.040555	0.000101
C152	C	1.448823	0.459445	0.500101
N153	N	0.925237	-0.098245	0.000150
N154	N	1.425237	0.401755	0.500150
H155	H	1.348296	0.188343	0.335866
H156	H	1.848296	0.688343	0.835866
C157	C	1.742234	-0.711733	-0.000022
C158	C	2.242234	-0.211733	0.499978
N159	N	1.837738	-0.748320	-0.000012
N160	N	2.337738	-0.248320	0.499988
C161	C	1.254006	-0.679206	-0.000039
C162	C	1.754006	-0.179206	0.499961
N163	N	1.156884	-0.702965	-0.000044
N164	N	1.656884	-0.202965	0.499956
H165	H	1.291062	-0.538877	-0.000025
H166	H	1.791062	-0.038877	0.499975
H167	H	1.348363	0.188356	0.803178
H168	H	1.848363	0.688356	1.303178
H169	H	1.348258	0.188339	0.196816
H170	H	1.848258	0.688339	0.696816
H171	H	1.664033	0.017758	0.664128
H172	H	2.164033	0.517758	1.164128
