data_functionalizedCrystal
_audit_creation_method	'MofGen! by Chris Wilmer'
_symmetry_space_group_name_H-M	'P1'
_symmetry_Int_Tables_number	1
_symmetry_cell_setting	triclinic
loop_
_symmetry_equiv_pos_as_xyz
  x,y,z
_cell_length_a	12.645331
_cell_length_b	29.839131
_cell_length_c	12.645323
_cell_angle_alpha	90.032712
_cell_angle_beta	90.022676
_cell_angle_gamma	90.040399
loop_
_atom_site_label
_atom_site_type_symbol
_atom_site_fract_x
_atom_site_fract_y
_atom_site_fract_z
Zn1	Zn	1.620556	-0.178862	0.599388
Zn2	Zn	2.120556	0.321138	1.099388
Zn3	Zn	1.620365	-0.253994	0.422104
Zn4	Zn	2.120365	0.246006	0.922104
Zn5	Zn	1.443271	-0.178877	0.422133
Zn6	Zn	1.943271	0.321123	0.922133
Zn7	Zn	1.443179	-0.253964	0.599320
Zn8	Zn	1.943179	0.246036	1.099320
O9	O	1.531843	-0.216424	0.510736
O10	O	2.031843	0.283576	1.010736
O11	O	1.768878	-0.188834	0.575888
O12	O	2.268878	0.311166	1.075888
O13	O	1.596831	-0.244048	0.273761
O14	O	2.096831	0.255952	0.773761
O15	O	1.466907	-0.116008	0.445687
O16	O	1.966907	0.383992	0.945687
O17	O	1.768737	-0.244033	0.445638
O18	O	2.268737	0.255967	0.945638
O19	O	1.597158	-0.115997	0.575916
O20	O	2.097158	0.384003	1.075916
O21	O	1.466721	-0.188860	0.273782
O22	O	1.966721	0.311140	0.773782
O23	O	1.294912	-0.188832	0.445620
O24	O	1.794912	0.311168	0.945620
O25	O	1.466751	-0.243983	0.747676
O26	O	1.966751	0.256017	1.247676
O27	O	1.294844	-0.243998	0.575799
O28	O	1.794844	0.256002	1.075799
O29	O	1.597069	-0.188806	0.747727
O30	O	2.097069	0.311194	1.247727
O31	O	1.596742	-0.316857	0.445571
O32	O	2.096742	0.183143	0.945571
O33	O	1.466565	-0.316835	0.575771
O34	O	1.966565	0.183165	1.075771
C35	C	1.256413	-0.216414	0.510706
C36	C	1.756413	0.283586	1.010706
C37	C	1.138583	-0.216420	0.510718
C38	C	1.638583	0.283580	1.010718
C39	C	0.971026	-0.181555	0.429274
C40	C	1.471026	0.318445	0.929274
C41	C	1.093586	-0.181645	0.428915
C42	C	1.593586	0.318355	0.928915
C43	C	1.094017	-0.263746	0.480188
C44	C	1.594017	0.236254	0.980188
C45	C	0.971418	-0.263555	0.479632
C46	C	1.471418	0.236445	0.979632
C47	C	0.971445	-0.204409	0.623006
C48	C	1.471445	0.295591	1.123006
C49	C	1.094052	-0.203352	0.622382
C50	C	1.594052	0.296648	1.122382
C51	C	1.531651	-0.333147	0.510684
C52	C	2.031651	0.166853	1.010684
C53	C	1.531667	-0.383081	0.510697
C54	C	2.031667	0.116919	1.010697
C55	C	1.599749	-0.692723	0.443041
C56	C	2.099749	-0.192723	0.943041
C57	C	1.599880	-0.880396	0.443082
C58	C	2.099880	-0.380396	0.943082
O59	O	1.657615	-0.904660	0.385518
O60	O	2.157615	-0.404660	0.885518
N61	N	1.532063	-0.903866	0.510816
N62	N	2.032063	-0.403866	1.010816
C63	C	1.464212	-0.880415	0.578550
C64	C	1.964212	-0.380415	1.078550
O65	O	1.406540	-0.904684	0.636171
O66	O	1.906540	-0.404684	1.136171
C67	C	1.464088	-0.692743	0.578514
C68	C	1.964088	-0.192743	1.078514
C69	C	1.531902	-0.669275	0.510767
C70	C	2.031902	-0.169275	1.010767
C71	C	1.667559	-0.669256	0.375300
C72	C	2.167559	-0.169256	0.875300
C73	C	1.667522	-0.622340	0.375287
C74	C	2.167522	-0.122340	0.875287
C75	C	1.599674	-0.598892	0.443013
C76	C	2.099674	-0.098892	0.943013
C77	C	1.531865	-0.622360	0.510753
C78	C	2.031865	-0.122360	1.010753
C79	C	1.396244	-0.669293	0.646252
C80	C	1.896244	-0.169293	1.146252
C81	C	1.396220	-0.622372	0.646239
C82	C	1.896220	-0.122372	1.146239
C83	C	1.464035	-0.598904	0.578492
C84	C	1.964035	-0.098904	1.078492
C85	C	1.463980	-0.551997	0.578466
C86	C	1.963980	-0.051997	1.078466
N87	N	1.531798	-0.528527	0.510732
N88	N	2.031798	-0.028527	1.010732
C89	C	1.599645	-0.551975	0.443005
C90	C	2.099645	-0.051975	0.943005
C91	C	1.464281	-0.978946	0.578563
C92	C	1.964281	-0.478946	1.078563
C93	C	1.464311	-1.025864	0.578571
C94	C	1.964311	-0.525864	1.078571
C95	C	1.599980	-1.025842	0.443104
C96	C	2.099980	-0.525842	0.943104
C97	C	1.599945	-0.978923	0.443091
C98	C	2.099945	-0.478923	0.943091
C99	C	1.532099	-0.955476	0.510829
C100	C	2.032099	-0.455476	1.010829
C101	C	1.599560	-0.453449	0.442981
C102	C	2.099560	0.046551	0.942981
C103	C	1.599514	-0.406529	0.442970
C104	C	2.099514	0.093471	0.942970
C105	C	1.463849	-0.406555	0.578441
C106	C	1.963849	0.093445	1.078441
C107	C	1.463891	-0.453471	0.578448
C108	C	1.963891	0.046529	1.078448
C109	C	1.531755	-0.476916	0.510715
C110	C	2.031755	0.023084	1.010715
O111	O	1.406284	-0.527704	0.636009
O112	O	1.906284	-0.027704	1.136009
O113	O	1.657325	-0.527697	0.385409
O114	O	2.157325	-0.027697	0.885409
C115	C	1.599787	-0.739639	0.443054
C116	C	2.099787	-0.239639	0.943054
C117	C	1.531977	-0.763106	0.510794
C118	C	2.031977	-0.263106	1.010794
C119	C	1.464130	-0.739659	0.578521
C120	C	1.964130	-0.239659	1.078521
C121	C	1.532007	-0.810024	0.510802
C122	C	2.032007	-0.310024	1.010802
C123	C	1.599854	-0.833472	0.443076
C124	C	2.099854	-0.333472	0.943076
C125	C	1.667672	-0.810002	0.375341
C126	C	2.167672	-0.310002	0.875341
C127	C	1.667634	-0.763087	0.375328
C128	C	2.167634	-0.263087	0.875328
C129	C	1.396312	-0.763129	0.646256
C130	C	1.896312	-0.263129	1.146256
C131	C	1.396354	-0.810044	0.646263
C132	C	1.896354	-0.310044	1.146263
C133	C	1.464202	-0.833492	0.578536
C134	C	1.964202	-0.333492	1.078536
C135	C	1.808348	-0.216435	0.510768
C136	C	2.308348	0.283565	1.010768
C137	C	1.926178	-0.216440	0.510781
C138	C	2.426178	0.283560	1.010781
C139	C	1.531921	-0.216390	0.787242
C140	C	2.031921	0.283610	1.287242
C141	C	1.531954	-0.216375	0.905072
C142	C	2.031954	0.283625	1.405072
C143	C	1.532064	-0.099246	0.510812
C144	C	2.032064	0.400754	1.010812
C145	C	1.532158	-0.049312	0.510845
C146	C	2.032158	0.450688	1.010845
C147	C	1.531826	-0.216427	0.235307
C148	C	2.031826	0.283573	0.735307
C149	C	1.531998	-0.216315	0.117477
C150	C	2.031998	0.283685	0.617477
C151	C	1.449718	-0.250923	1.072604
C152	C	1.949718	0.249077	1.572604
C153	C	1.449934	-0.251094	0.950044
C154	C	1.949934	0.248906	1.450044
C155	C	1.643641	-0.229224	0.949588
C156	C	2.143641	0.270776	1.449588
C157	C	1.643190	-0.229441	1.072186
C158	C	2.143190	0.270559	1.572186
C159	C	1.503559	-0.168784	1.072285
C160	C	2.003559	0.331216	1.572285
C161	C	1.501067	-0.169069	0.949679
C162	C	2.001067	0.330931	1.449679
H163	H	1.122856	-0.189597	0.345753
H164	H	1.622856	0.310403	0.845753
H165	H	1.366652	-0.242960	1.102080
H166	H	1.866652	0.257040	1.602080
Br167	Br	0.920009	-0.147894	0.669278
Br168	Br	1.420009	0.352106	1.169278
Br169	Br	0.923107	-0.246758	0.724227
Br170	Br	1.423107	0.253242	1.224227
Br171	Br	1.311894	-0.237689	0.899870
Br172	Br	1.811894	0.262311	1.399870
Br173	Br	1.142635	-0.145310	0.660769
Br174	Br	1.642635	0.354690	1.160769
Br175	Br	1.759653	-0.701069	0.283375
Br176	Br	2.259653	-0.201069	0.783375
H177	H	1.722855	-0.743983	0.320162
H178	H	2.222855	-0.243983	0.820162
H179	H	1.556621	-0.141920	0.919066
H180	H	2.056621	0.358080	1.419066
H181	H	1.706571	-0.205328	1.101872
H182	H	2.206571	0.294672	1.601872
H183	H	1.124662	-0.274123	0.399026
H184	H	1.624662	0.225877	0.899026
H185	H	1.468306	-0.285940	1.103412
H186	H	1.968306	0.214060	1.603412
H187	H	1.654736	-0.387423	0.387799
H188	H	2.154736	0.112577	0.887799
H189	H	1.654824	-0.472533	0.387828
H190	H	2.154824	0.027467	0.887828
Br191	Br	1.691981	-0.947079	0.351146
Br192	Br	2.191981	-0.447079	0.851146
H193	H	1.706588	-0.204814	0.920460
H194	H	2.206588	0.295186	1.420460
H195	H	1.124687	-0.226907	0.686360
H196	H	1.624687	0.273093	1.186360
Br197	Br	1.304308	-0.841887	0.738211
Br198	Br	1.804308	-0.341887	1.238211
Br199	Br	1.759576	-0.590499	0.283355
Br200	Br	2.259576	-0.090499	0.783355
Br201	Br	1.142570	-0.308226	0.576035
Br202	Br	1.642570	0.191774	1.076035
H203	H	1.341017	-0.688392	0.701414
H204	H	1.841017	-0.188392	1.201414
Br205	Br	0.923651	-0.280559	0.342890
Br206	Br	1.423651	0.219441	0.842890
H207	H	1.563489	-0.142999	1.101307
H208	H	2.063489	0.357001	1.601307
Br209	Br	1.481281	-0.309819	0.901156
Br210	Br	1.981281	0.190181	1.401156
Br211	Br	1.683376	-0.287353	1.119860
Br212	Br	2.183376	0.212647	1.619860
H213	H	0.940171	-0.189419	0.346601
H214	H	1.440171	0.310581	0.846601
Br215	Br	1.692055	-1.057672	0.351186
Br216	Br	2.192055	-0.557672	0.851186
Br217	Br	1.684525	-0.286529	0.898422
Br218	Br	2.184525	0.213471	1.398422
Br219	Br	1.143819	-0.123153	0.460812
Br220	Br	1.643819	0.376847	0.960812
H221	H	1.409030	-0.959858	0.633725
H222	H	1.909030	-0.459858	1.133725
Br223	Br	0.921979	-0.122884	0.460825
Br224	Br	1.421979	0.377116	0.960825
Br225	Br	1.372258	-1.057707	0.670501
Br226	Br	1.872258	-0.557707	1.170501
Br227	Br	1.304143	-0.590554	0.738178
Br228	Br	1.804143	-0.090554	1.238178
H229	H	1.423538	-0.157071	1.103193
H230	H	1.923538	0.342929	1.603193
H231	H	1.408605	-0.387457	0.633580
H232	H	1.908605	0.112543	1.133580
Br233	Br	1.364067	-0.152919	0.901202
Br234	Br	1.864067	0.347081	1.401202
H235	H	0.941747	-0.290427	0.536408
H236	H	1.441747	0.209573	1.036408
Br237	Br	1.371831	-0.485321	0.670365
Br238	Br	1.871831	0.014679	1.170365
Br239	Br	1.759745	-0.841833	0.283423
Br240	Br	2.259745	-0.341833	0.783423
H241	H	1.341064	-0.744041	0.701408
H242	H	1.841064	-0.244041	1.201408
