data_functionalizedCrystal
_audit_creation_method	'MofGen! by Chris Wilmer'
_symmetry_space_group_name_H-M	'P1'
_symmetry_Int_Tables_number	1
_symmetry_cell_setting	triclinic
loop_
_symmetry_equiv_pos_as_xyz
  x,y,z
_cell_length_a	6.394989
_cell_length_b	16.992694
_cell_length_c	16.053802
_cell_angle_alpha	92.759244
_cell_angle_beta	87.353643
_cell_angle_gamma	88.582967
loop_
_atom_site_label
_atom_site_type_symbol
_atom_site_fract_x
_atom_site_fract_y
_atom_site_fract_z
O1	O	-0.451875	-1.041547	0.069316
O2	O	-0.447011	-0.813213	0.069341
O3	O	-0.145920	-0.930621	0.069329
O4	O	-0.752967	-0.924139	0.069328
O5	O	-0.129399	-0.937077	-0.069531
O6	O	-0.430491	-0.819669	-0.069519
O7	O	-0.435355	-1.048003	-0.069544
Zn8	Zn	-0.430300	-0.934861	-0.091578
Zn9	Zn	-0.452066	-0.926355	0.091375
O10	O	-0.736446	-0.930595	-0.069531
C11	C	-0.432490	-0.787166	-0.000086
C12	C	-0.413810	-0.699937	-0.000076
N13	N	-0.466906	-0.920551	0.216236
C14	C	-0.449876	-1.074050	-0.000115
C15	C	-0.468557	-1.161279	-0.000119
C16	C	-0.059625	-0.932567	-0.000098
C17	C	0.177264	-0.928650	-0.000097
N18	N	-0.415444	-0.940671	-0.216439
C19	C	-0.594058	-0.651478	-0.000077
C20	C	-0.576491	-0.569518	-0.000089
C21	C	-0.378675	-0.536019	-0.000093
C22	C	-0.198414	-0.584485	-0.000095
C23	C	-0.215982	-0.666443	-0.000089
C24	C	-0.305863	-0.291703	-0.000116
C25	C	-0.288309	-0.209738	-0.000119
C26	C	-0.666388	-0.194777	-0.000114
C27	C	-0.683939	-0.276737	-0.000103
C28	C	-0.503677	-0.325196	-0.000109
N29	N	-0.360715	-0.452243	-0.000102
N30	N	-0.521639	-0.408971	-0.000106
C31	C	-0.339069	-0.970609	0.259925
C32	C	-0.349446	-0.966547	0.347332
C33	C	-0.487649	-0.912422	0.391049
C34	C	-0.615500	-0.862361	0.347354
C35	C	-0.605134	-0.866428	0.259948
C36	C	-0.532928	-0.894677	0.652460
C37	C	-0.543281	-0.890613	0.739872
C38	C	-0.277228	-0.994800	0.739844
C39	C	-0.266864	-0.998858	0.652437
C40	C	-0.394723	-0.948801	0.608750
N41	N	-0.498254	-0.908267	0.480393
N42	N	-0.384127	-0.952960	0.519407
H43	H	-0.723269	-0.530065	-0.000088
H44	H	-0.755141	-0.678746	-0.000073
H45	H	-0.637032	-0.853917	0.616897
N46	N	-0.897300	-0.312867	-0.000082
H47	H	-1.008825	-0.269730	-0.000081
H48	H	-0.906727	-0.348952	-0.051552
H49	H	-0.069204	-0.705898	-0.000088
H50	H	-0.173133	-1.035555	0.775422
N51	N	-0.860819	-0.142521	-0.000117
H52	H	-0.868102	-0.105780	0.051354
H53	H	-0.855725	-0.110638	-0.051631
H54	H	-0.127216	-0.182466	-0.000122
H55	H	-0.159080	-0.331148	-0.000121
N56	N	-0.764549	-0.803979	0.394504
H57	H	-0.843962	-0.772885	0.353562
H58	H	-0.866571	-0.833197	0.430776
H59	H	-0.037346	-0.557204	-0.000111
H60	H	-0.709235	-0.825666	0.224378
N61	N	-0.190009	-1.028988	0.212776
H62	H	-0.110609	-1.060086	0.253720
H63	H	-0.271853	-1.066120	0.176516
N64	N	-0.692349	-0.832233	0.787027
H65	H	-0.771779	-0.801139	0.746089
H66	H	-0.794355	-0.861457	0.823299
N67	N	-0.211565	-1.020539	0.394453
H68	H	-0.243523	-1.077197	0.379232
H69	H	-0.059739	-1.010774	0.379216
N70	N	-0.117893	-1.057269	0.605287
H71	H	-0.038514	-1.088377	0.646227
H72	H	-0.199823	-1.094387	0.569045
