data_functionalizedCrystal
_audit_creation_method	'MofGen! by Chris Wilmer'
_symmetry_space_group_name_H-M	'P1'
_symmetry_Int_Tables_number	1
_symmetry_cell_setting	triclinic
loop_
_symmetry_equiv_pos_as_xyz
  x,y,z
_cell_length_a	11.792241
_cell_length_b	12.503572
_cell_length_c	11.792254
_cell_angle_alpha	86.452607
_cell_angle_beta	84.196007
_cell_angle_gamma	93.538276
loop_
_atom_site_label
_atom_site_type_symbol
_atom_site_fract_x
_atom_site_fract_y
_atom_site_fract_z
O1	O	1.513413	0.089216	0.149049
O2	O	2.013413	0.589216	0.649049
O3	O	1.183074	0.089241	0.165080
O4	O	1.683074	0.589241	0.665080
O5	O	1.356252	0.089221	-0.008105
O6	O	1.856252	0.589221	0.491895
O7	O	1.340235	0.089237	0.322233
O8	O	1.840235	0.589237	0.822233
O9	O	1.343228	-0.089420	0.004941
O10	O	1.843228	0.410580	0.504941
O11	O	1.170050	-0.089399	0.178126
O12	O	1.670050	0.410601	0.678126
O13	O	1.500389	-0.089424	0.162095
O14	O	2.000389	0.410576	0.662095
Cu15	Cu	1.334030	-0.105723	0.171302
Cu16	Cu	1.834030	0.394277	0.671302
Cu17	Cu	1.349433	0.105540	0.155873
Cu18	Cu	1.849433	0.605540	0.655873
O19	O	1.327211	-0.089403	0.335279
O20	O	1.827211	0.410597	0.835279
C21	C	1.134271	-0.000076	0.170595
C22	C	1.634271	0.499924	0.670595
C23	C	1.008258	-0.000066	0.167580
C24	C	1.508258	0.499934	0.667580
N25	N	1.323206	-0.254314	0.182153
N26	N	1.823206	0.245686	0.682153
C27	C	0.777544	-0.000097	0.162040
C28	C	1.277544	0.499903	0.662040
C29	C	0.905930	-0.000080	0.165118
C30	C	1.405930	0.499920	0.665118
C31	C	1.307282	-0.473427	0.198124
C32	C	1.807282	0.026573	0.698124
C33	C	1.376186	-0.526762	0.129045
C34	C	1.876186	-0.026762	0.629045
C35	C	1.367326	-0.648685	0.137932
C36	C	1.867326	-0.148685	0.637932
C37	C	1.316141	-0.351494	0.189239
C38	C	1.816141	0.148506	0.689239
C39	C	1.549192	-0.000105	0.156579
C40	C	2.049192	0.499895	0.656579
C41	C	1.675205	-0.000107	0.159594
C42	C	2.175205	0.499893	0.659594
C43	C	1.348731	-0.000099	-0.043872
C44	C	1.848731	0.499901	0.456128
C45	C	1.345711	-0.000098	-0.169886
C46	C	1.845711	0.499902	0.330114
N47	N	1.360266	0.254131	0.145013
N48	N	1.860266	0.754131	0.645013
C49	C	1.343257	-0.000094	-0.272222
C50	C	1.843257	0.499906	0.227778
C51	C	1.340189	-0.000084	-0.400610
C52	C	1.840189	0.499916	0.099390
C53	C	1.334732	-0.000081	0.371047
C54	C	1.834732	0.499919	0.871047
C55	C	1.337753	-0.000075	0.497059
C56	C	1.837753	0.499925	0.997059
H57	H	1.441832	-0.480857	0.063230
H58	H	1.941832	0.019143	0.563230
C59	C	1.218602	-0.535440	0.287031
C60	C	1.718602	-0.035440	0.787031
N61	N	1.151809	-0.582160	0.353995
N62	N	1.651809	-0.082160	0.853995
