data_functionalizedCrystal
_audit_creation_method	'MofGen! by Chris Wilmer'
_symmetry_space_group_name_H-M	'P1'
_symmetry_Int_Tables_number	1
_symmetry_cell_setting	triclinic
loop_
_symmetry_equiv_pos_as_xyz
  x,y,z
_cell_length_a	10.654550
_cell_length_b	19.188924
_cell_length_c	9.130313
_cell_angle_alpha	89.996698
_cell_angle_beta	89.996220
_cell_angle_gamma	83.813433
loop_
_atom_site_label
_atom_site_type_symbol
_atom_site_fract_x
_atom_site_fract_y
_atom_site_fract_z
O1	O	1.665755	0.098059	-0.121927
O2	O	1.300078	0.107402	-0.121904
O3	O	1.493474	0.001143	-0.121899
O4	O	1.472359	0.204317	-0.121932
O5	O	1.493471	0.001146	0.121700
O6	O	1.300076	0.107405	0.121694
O7	O	1.665752	0.098062	0.121672
Cu8	Cu	1.482914	0.102733	0.143926
Cu9	Cu	1.482917	0.102730	-0.144158
O10	O	1.472357	0.204320	0.121666
C11	C	1.253294	0.106717	-0.000102
C12	C	1.113894	0.104665	-0.000093
C13	C	1.033081	0.167228	-0.000124
C14	C	0.902102	0.165295	-0.000149
C15	C	0.932759	0.038231	-0.000117
C16	C	1.063737	0.040164	-0.000082
C17	C	1.083239	0.231729	-0.000135
C18	C	1.002425	0.294297	-0.000168
C19	C	0.871445	0.292364	-0.000193
C20	C	0.821279	0.227863	-0.000185
C21	C	1.492790	-0.024871	-0.000098
C22	C	1.490742	-0.102389	-0.000094
C23	C	1.489787	-0.138796	-0.132880
C24	C	1.487845	-0.211631	-0.132891
C25	C	1.486883	-0.248059	-0.000109
C26	C	1.487830	-0.211643	0.132695
C27	C	1.489760	-0.138808	0.132702
N28	N	1.555314	-0.367273	0.098714
N29	N	1.553484	-0.436463	0.098698
C30	C	1.481066	-0.467506	-0.000123
N31	N	1.410563	-0.426745	-0.098949
N32	N	1.412399	-0.357549	-0.098937
C33	C	1.484789	-0.327036	-0.000102
C34	C	1.478003	-0.582889	-0.132930
C35	C	1.476053	-0.655725	-0.132935
C36	C	1.476051	-0.655736	0.132655
C37	C	1.477989	-0.582901	0.132656
C38	C	1.478971	-0.546482	-0.000140
C39	C	1.712537	0.098746	-0.000134
C40	C	1.851937	0.100799	-0.000153
C41	C	1.473040	0.230334	-0.000138
C42	C	1.475089	0.307852	-0.000151
N43	N	1.482921	0.102735	0.346548
N44	N	1.482920	0.102723	-0.346781
C45	C	1.568578	0.055700	0.423202
C46	C	1.568575	0.055692	0.576539
C47	C	1.397253	0.149760	0.576554
C48	C	1.397252	0.149764	0.423220
C49	C	1.654248	0.008672	0.346531
C50	C	1.739913	-0.038367	0.423185
C51	C	1.739909	-0.038375	0.576522
C52	C	1.654241	0.008655	0.653204
H53	H	0.891903	-0.014283	-0.000135
H54	H	1.478776	-0.553259	0.240785
H55	H	1.809652	-0.076680	0.638932
H56	H	1.327501	0.188064	0.360808
C57	C	1.490845	-0.098737	-0.278950
H58	H	1.489986	-0.130855	-0.358035
H59	H	1.564807	-0.075291	-0.284479
H60	H	1.418370	-0.065356	-0.284459
C61	C	1.227311	0.233857	-0.000101
H62	H	1.245611	0.281230	-0.000101
H63	H	1.262623	0.210825	-0.085032
H64	H	1.262578	0.210837	0.084875
C65	C	1.152640	-0.028651	-0.000048
H66	H	1.237828	-0.018261	-0.000012
H67	H	1.137502	-0.055078	-0.084993
H68	H	1.137451	-0.055068	0.084914
C69	C	1.486801	-0.251691	-0.278957
H70	H	1.485505	-0.300284	-0.259939
H71	H	1.560336	-0.244723	-0.333515
H72	H	1.413898	-0.234783	-0.333521
C73	C	1.057603	0.365242	-0.000176
H74	H	1.147183	0.357434	-0.000170
H75	H	1.029823	0.391033	0.084760
H76	H	1.029856	0.391024	-0.085147
C77	C	1.303039	0.201494	0.660901
H78	H	1.315317	0.194759	0.763200
H79	H	1.219273	0.193481	0.635785
H80	H	1.316424	0.248164	0.635769
C81	C	0.782554	0.361185	-0.000228
H82	H	0.831189	0.399873	-0.000241
H83	H	0.730800	0.363078	0.084706
H84	H	0.730847	0.363066	-0.085202
C85	C	0.677204	0.225738	-0.000217
H86	H	0.636256	0.272237	-0.000245
H87	H	0.653209	0.201837	0.084724
H88	H	0.653261	0.201838	-0.085183
C89	C	1.486775	-0.251710	0.278751
H90	H	1.485502	-0.300304	0.259730
H91	H	1.413876	-0.234807	0.333319
H92	H	1.560313	-0.244746	0.333308
C93	C	1.475000	-0.695776	-0.279004
H94	H	1.473694	-0.744369	-0.259992
H95	H	1.548535	-0.688811	-0.333562
H96	H	1.402098	-0.678862	-0.333563
C97	C	1.490822	-0.098760	0.278773
H98	H	1.489976	-0.130884	0.357856
H99	H	1.418366	-0.065372	0.284301
H100	H	1.564803	-0.075323	0.284287
H101	H	1.654260	0.008675	0.221676
C102	C	1.479069	-0.542824	-0.278996
H103	H	1.478203	-0.574940	-0.358083
H104	H	1.553038	-0.519384	-0.284521
H105	H	1.406600	-0.509438	-0.284506
C106	C	1.474982	-0.695797	0.278714
H107	H	1.473700	-0.744390	0.259694
H108	H	1.402083	-0.678889	0.333275
H109	H	1.548520	-0.688838	0.333275
C110	C	1.834144	-0.090092	0.338842
H111	H	1.821890	-0.083347	0.236542
H112	H	1.820783	-0.136764	0.363960
H113	H	1.917907	-0.082066	0.363975
C114	C	1.654229	0.008645	0.821872
H115	H	1.590940	0.043388	0.856557
H116	H	1.734430	0.018612	0.856562
H117	H	1.637285	-0.036073	0.856550
