data_functionalizedCrystal
_audit_creation_method	'MofGen! by Chris Wilmer'
_symmetry_space_group_name_H-M	'P1'
_symmetry_Int_Tables_number	1
_symmetry_cell_setting	triclinic
loop_
_symmetry_equiv_pos_as_xyz
  x,y,z
_cell_length_a	18.426585
_cell_length_b	17.052862
_cell_length_c	17.052832
_cell_angle_alpha	45.842616
_cell_angle_beta	77.684430
_cell_angle_gamma	70.265468
loop_
_atom_site_label
_atom_site_type_symbol
_atom_site_fract_x
_atom_site_fract_y
_atom_site_fract_z
Zr1	Zr	0.869304	0.878619	-0.240997
O2	O	0.807197	1.046070	-0.395009
O3	O	0.868598	0.711166	-0.175857
O4	O	0.930124	0.878623	-0.369163
O5	O	0.719598	0.878610	-0.069613
O6	O	1.049552	0.878628	-0.369167
O7	O	0.745671	0.878613	-0.201703
O8	O	0.939492	0.579078	-0.023378
O9	O	0.829657	1.178160	-0.415401
O10	O	0.981279	0.780047	-0.169737
O11	O	0.872694	0.780041	-0.071156
O12	O	0.945133	0.977200	-0.298749
O13	O	0.836548	0.977194	-0.200168
Zr14	Zr	1.018194	0.878624	-0.030334
Zr15	Zr	1.059777	0.878628	-0.241003
Zr16	Zr	0.827721	0.878615	-0.030328
Zr17	Zr	0.905125	1.089288	-0.273520
Zr18	Zr	0.982372	0.667955	0.002189
O19	O	1.018899	1.046077	-0.095474
O20	O	1.078025	1.046082	-0.395019
O21	O	0.748071	1.046065	-0.095465
O22	O	1.080300	0.711173	0.123678
O23	O	1.139426	0.711178	-0.175866
O24	O	0.809472	0.711161	0.123688
O25	O	1.167899	0.878632	-0.201718
O26	O	0.957373	0.878620	0.097832
O27	O	0.837946	0.878615	0.097836
O28	O	1.141827	0.878630	-0.069628
O29	O	0.981058	1.178167	-0.415407
O30	O	0.906439	0.579076	0.144076
O31	O	1.057840	0.579083	0.144070
O32	O	1.090893	0.579085	-0.023383
O33	O	0.796604	1.178157	-0.247948
O34	O	0.948005	1.178165	-0.247953
O35	O	0.942364	0.780043	0.027418
O36	O	1.050949	0.780049	-0.071163
O37	O	1.014803	0.977202	-0.200175
O38	O	0.906218	0.977196	-0.101594
C39	C	0.898941	0.615106	-0.094984
C40	C	0.883734	0.525671	-0.081176
C41	C	0.705496	0.878610	-0.135657
C42	C	0.624635	0.878607	-0.135654
C43	C	1.067590	0.273591	-0.248104
C44	C	1.081877	0.357624	-0.261084
C45	C	1.032343	0.399639	-0.216108
C46	C	0.968518	0.357615	-0.158150
C47	C	0.954226	0.273580	-0.145177
C48	C	0.918979	0.399628	-0.113181
C49	C	0.855154	0.357604	-0.055223
C50	C	0.840865	0.273576	-0.042251
C51	C	0.890399	0.231560	-0.087227
C52	C	0.933271	0.483663	-0.126154
C53	C	0.819908	0.483652	-0.023227
C54	C	0.805620	0.399619	-0.010247
C55	C	0.328529	0.878641	-0.135677
C56	C	0.410914	0.878636	-0.135674
C57	C	0.476580	0.878624	-0.135666
C58	C	0.558970	0.878619	-0.135662
C59	C	1.182001	0.878633	-0.135674
C60	C	1.262862	0.878636	-0.135677
C61	C	0.995763	0.878626	-0.399180
C62	C	1.013416	0.878627	-0.488615
C63	C	0.988556	1.142137	-0.176347
C64	C	1.003763	1.231571	-0.190155
C65	C	0.799992	0.878609	-0.740697
C66	C	0.783406	0.878600	-0.656664
C67	C	0.840906	0.878607	-0.614648
C68	C	0.914997	0.878622	-0.656672
C69	C	0.931586	0.878622	-0.740708
C70	C	0.972501	0.878621	-0.614659
C71	C	1.046591	0.878636	-0.656683
C72	C	1.063177	0.878636	-0.740711
C73	C	1.005676	0.878629	-0.782727
C74	C	0.955911	0.878621	-0.530623
C75	C	1.087506	0.878634	-0.530634
C76	C	1.104092	0.878643	-0.614667
C77	C	0.891735	0.878617	0.127849
C78	C	0.874082	0.878616	0.217284
C79	C	1.137194	0.615117	-0.094992
C80	C	1.202848	0.525686	-0.081188
C81	C	0.846927	0.615102	0.168531
C82	C	0.814067	0.525666	0.271773
C83	C	1.085180	0.615113	0.168523
C84	C	1.133181	0.525681	0.271762
C85	C	0.802317	1.142130	-0.439854
C86	C	0.754317	1.231562	-0.543093
C87	C	0.750303	1.142126	-0.176339
C88	C	0.684650	1.231556	-0.190143
C89	C	1.040570	1.142141	-0.439862
C90	C	1.073430	1.231577	-0.543104
C91	C	1.197314	0.483687	-0.126169
C92	C	1.259001	0.399669	-0.113220
C93	C	1.326219	0.357646	-0.055283
C94	C	1.331752	0.399653	-0.010301
C95	C	1.270068	0.483676	-0.023257
C96	C	0.835001	0.483667	0.371720
C97	C	0.804122	0.399644	0.468733
C98	C	0.752314	0.357615	0.465797
C99	C	0.731378	0.399622	0.365839
C100	C	0.762252	0.483650	0.268828
C101	C	1.212411	0.483685	0.268786
C102	C	1.257523	0.399666	0.365780
C103	C	1.223403	0.357637	0.465749
C104	C	1.144166	0.399641	0.468722
C105	C	1.099056	0.483665	0.371729
C106	C	0.675088	1.273568	-0.540118
C107	C	0.629980	1.357614	-0.637116
C108	C	0.664101	1.399646	-0.737087
C109	C	0.743337	1.357637	-0.740059
C110	C	0.788445	1.273599	-0.643063
C111	C	0.690186	1.273564	-0.145172
C112	C	0.628508	1.357606	-0.158148
C113	C	0.561291	1.399632	-0.216089
C114	C	0.555757	1.357621	-0.261065
C115	C	0.617437	1.273587	-0.248096
C116	C	1.125236	1.273579	-0.540133
C117	C	1.156126	1.357603	-0.637129
C118	C	1.135204	1.399629	-0.737097
C119	C	1.083395	1.357619	-0.740066
C120	C	1.052510	1.273591	-0.643069
H121	H	0.985238	0.517873	-0.173344
C122	C	1.344673	0.353440	0.362501
H123	H	1.366659	0.297380	0.434579
H124	H	1.352627	0.320658	0.332652
H125	H	1.368498	0.413763	0.318258
H126	H	1.034542	0.517846	0.374168
H127	H	0.821179	0.365451	0.550113
H128	H	0.744910	1.239353	-0.097985
C129	C	0.765408	0.529878	0.026230
H130	H	0.783062	0.585939	0.010206
H131	H	0.714795	0.562660	-0.004252
H132	H	0.764757	0.469558	0.103247
H133	H	1.198308	1.391798	-0.634692
C134	C	0.995510	1.227413	-0.646348
H135	H	0.980109	1.171347	-0.574268
H136	H	0.951462	1.287757	-0.690585
H137	H	1.019802	1.194628	-0.676205
H138	H	0.727180	0.289195	0.544798
C139	C	1.273030	0.265204	0.572435
H140	H	1.325101	0.246210	0.556336
H141	H	1.270223	0.292734	0.606208
H142	H	1.254388	0.199628	0.620570
H143	H	0.647292	1.239349	-0.458726
H144	H	0.633027	1.391797	-0.121516
H145	H	1.160358	1.468050	-0.816070
C146	C	0.542825	1.403806	-0.633832
H147	H	0.520842	1.459887	-0.705914
H148	H	0.519016	1.343474	-0.589607
H149	H	0.534851	1.436575	-0.603962
H150	H	0.878773	0.163128	-0.076656
H151	H	0.771112	1.391871	-0.821466
H152	H	0.627363	1.468075	-0.816059
C153	C	1.060334	1.403921	-0.850042
H154	H	1.025044	1.366892	-0.837933
H155	H	1.036697	1.483251	-0.897146
H156	H	1.105022	1.390186	-0.882891
H157	H	1.133842	0.391838	-0.308274
H158	H	1.116394	0.365409	0.550131
H159	H	0.852956	1.239399	-0.645497
C160	C	0.739226	0.529832	0.158894
H161	H	0.703955	0.492754	0.171051
H162	H	0.715581	0.609166	0.111712
H163	H	0.783936	0.516043	0.126105
C164	C	1.148259	1.227358	-0.430178
H165	H	1.122446	1.171302	-0.372827
H166	H	1.202437	1.194574	-0.417750
H167	H	1.134087	1.287689	-0.432121
C168	C	0.891984	0.529891	0.374965
H169	H	0.907384	0.585945	0.302880
H170	H	0.867687	0.562676	0.404815
H171	H	0.936044	0.469561	0.419197
H172	H	0.511073	1.468058	-0.226641
H173	H	1.386489	0.365425	0.036871
H174	H	0.895586	0.878608	-0.496414
C175	C	1.249956	0.529905	0.158832
H176	H	1.303605	0.492860	0.170965
H177	H	1.226809	0.516129	0.126035
H178	H	1.242632	0.609245	0.111667
H179	H	1.274581	0.517860	0.013380
C180	C	1.150754	0.878674	-0.484446
H181	H	1.130259	0.878692	-0.428396
H182	H	1.192588	0.812848	-0.455133
H183	H	1.168421	0.944530	-0.541320
C184	C	0.481814	1.403849	-0.324787
H185	H	0.445874	1.459902	-0.326052
H186	H	0.494070	1.436638	-0.397550
H187	H	0.459868	1.343520	-0.290048
C188	C	1.122069	0.227380	-0.297576
H189	H	1.162126	0.264444	-0.333954
H190	H	1.143836	0.148045	-0.240918
H191	H	1.093855	0.241166	-0.348400
C192	C	0.701909	0.878615	-0.610460
H193	H	0.700265	0.878613	-0.554395
H194	H	0.665531	0.944457	-0.667322
H195	H	0.689656	0.812775	-0.581141
H196	H	0.753182	0.878594	-0.774906
H197	H	0.612917	1.239386	-0.284715
C198	C	0.770650	0.227370	0.021478
H199	H	0.743197	0.264422	0.046409
H200	H	0.737737	0.241151	-0.025071
H201	H	0.787702	0.148030	0.082425
H202	H	0.753653	0.365392	0.036941
C203	C	0.822660	0.878612	-0.522223
H204	H	0.770298	0.878614	-0.503220
H205	H	0.855280	0.812785	-0.460130
H206	H	0.831130	0.944467	-0.546314
C207	C	1.048063	0.492064	-0.230374
H208	H	1.093173	0.511068	-0.271323
H209	H	1.005376	0.557628	-0.268035
H210	H	1.055358	0.464503	-0.160555
H211	H	1.019178	0.878641	-0.851157
H212	H	1.164417	0.878654	-0.648894
C213	C	1.144674	0.878649	-0.786934
H214	H	1.176542	0.878665	-0.749886
H215	H	1.165955	0.812815	-0.776636
H216	H	1.141802	0.944497	-0.862801
C217	C	1.123385	0.529904	-0.189909
H218	H	1.128938	0.492858	-0.214849
H219	H	1.080700	0.516129	-0.143373
H220	H	1.114920	0.609244	-0.250852
C221	C	1.252898	0.353464	-0.162690
H222	H	1.204024	0.390515	-0.199031
H223	H	1.292545	0.367243	-0.213525
H224	H	1.258344	0.274124	-0.106021
H225	H	0.689192	0.365390	0.363465
C226	C	1.394062	0.265213	-0.041027
H227	H	1.381130	0.246216	-0.076108
H228	H	1.438560	0.292744	-0.072828
H229	H	1.404338	0.199639	0.034657
