data_functionalizedCrystal
_audit_creation_method	'MofGen! by Chris Wilmer'
_symmetry_space_group_name_H-M	'P1'
_symmetry_Int_Tables_number	1
_symmetry_cell_setting	triclinic
loop_
_symmetry_equiv_pos_as_xyz
  x,y,z
_cell_length_a	11.792241
_cell_length_b	13.596369
_cell_length_c	11.792241
_cell_angle_alpha	89.999475
_cell_angle_beta	95.806584
_cell_angle_gamma	90.001745
loop_
_atom_site_label
_atom_site_type_symbol
_atom_site_fract_x
_atom_site_fract_y
_atom_site_fract_z
O1	O	1.506912	0.081696	-0.155560
O2	O	1.176571	0.081719	-0.171593
O3	O	1.349758	0.081700	0.001594
O4	O	1.333725	0.081715	-0.328747
O5	O	1.349736	-0.081883	0.001584
O6	O	1.176549	-0.081864	-0.171603
O7	O	1.506890	-0.081887	-0.155570
Zn8	Zn	1.341717	-0.107847	-0.163588
Zn9	Zn	1.341745	0.107680	-0.163575
O10	O	1.333704	-0.081868	-0.328757
C11	C	1.134269	-0.000069	-0.170591
C12	C	1.008255	-0.000061	-0.167576
C13	C	0.777543	-0.000089	-0.162034
C14	C	0.905928	-0.000074	-0.165113
N15	N	1.341706	-0.254939	-0.163596
C16	C	1.341711	-0.343937	-0.163598
C17	C	1.341722	-0.455589	-0.163591
C18	C	1.341737	-0.544579	-0.163578
C19	C	1.341750	-0.656238	-0.163571
C20	C	1.549192	-0.000096	-0.156572
C21	C	1.675206	-0.000098	-0.159587
C22	C	1.348740	-0.000091	0.043880
C23	C	1.345726	-0.000090	0.169894
N24	N	1.341765	0.254772	-0.163558
C25	C	1.334721	-0.000074	-0.371043
C26	C	1.337736	-0.000069	-0.497057
C27	C	1.340183	-0.000073	0.400606
C28	C	1.343262	-0.000082	0.272221
