data_functionalizedCrystal
_audit_creation_method	'MofGen! by Chris Wilmer'
_symmetry_space_group_name_H-M	'P1'
_symmetry_Int_Tables_number	1
_symmetry_cell_setting	triclinic
loop_
_symmetry_equiv_pos_as_xyz
  x,y,z
_cell_length_a	16.109301
_cell_length_b	10.268362
_cell_length_c	16.109301
_cell_angle_alpha	89.997230
_cell_angle_beta	96.538519
_cell_angle_gamma	90.001892
loop_
_atom_site_label
_atom_site_type_symbol
_atom_site_fract_x
_atom_site_fract_y
_atom_site_fract_z
O1	O	1.103132	0.108222	-0.106863
O2	O	0.861071	0.108243	-0.120162
O3	O	0.988751	0.108219	0.007518
O4	O	0.975452	0.108247	-0.234544
O5	O	0.988739	-0.108382	0.007514
O6	O	0.861058	-0.108357	-0.120167
O7	O	1.103120	-0.108379	-0.106867
Cu8	Cu	0.982088	-0.128145	-0.113517
Cu9	Cu	0.982103	0.128010	-0.113512
O10	O	0.975440	-0.108354	-0.234548
C11	C	0.830090	-0.000054	-0.119626
C12	C	0.737794	-0.000047	-0.118011
C13	C	0.515522	-0.000054	-0.190018
C14	C	0.428801	-0.000062	-0.188494
C15	C	0.448676	-0.000074	-0.037006
C16	C	0.535394	-0.000075	-0.038530
C17	C	0.568815	-0.000058	-0.115039
C18	C	0.395376	-0.000066	-0.111990
C19	C	0.301350	-0.000075	-0.110337
C20	C	0.662847	-0.000051	-0.116693
N21	N	0.982084	-0.308311	-0.113521
C22	C	0.982090	-0.426154	-0.113521
C23	C	0.982101	-0.573991	-0.113513
C24	C	1.134101	-0.000078	-0.107404
C25	C	1.226397	-0.000077	-0.109019
C26	C	0.988206	-0.000082	0.038491
C27	C	0.986591	-0.000084	0.130786
N28	N	0.982113	0.308176	-0.113502
C29	C	0.975984	-0.000050	-0.265521
C30	C	0.977600	-0.000040	-0.357816
C31	C	1.058599	-0.000070	0.353059
C32	C	1.057075	-0.000059	0.439779
C33	C	0.905586	-0.000050	0.419905
C34	C	0.907111	-0.000052	0.333186
C35	C	0.983620	-0.000068	0.299766
C36	C	0.980571	-0.000056	0.473205
C37	C	0.978918	-0.000044	0.567231
C38	C	0.985273	-0.000077	0.205734
H39	H	0.542730	-0.000050	-0.252317
O40	O	0.376998	-0.000280	-0.261306
C41	C	0.326225	-0.112443	-0.264954
H42	H	0.357996	-0.190858	-0.222435
H43	H	0.263172	-0.087086	-0.243448
C44	C	0.274000	-0.066981	-0.407647
C45	C	0.313024	-0.163296	-0.355430
H46	H	0.265853	-0.098348	-0.463457
H47	H	0.308203	0.008588	-0.405189
H48	H	0.221460	-0.045859	-0.389715
H49	H	0.365567	-0.184404	-0.373355
H50	H	0.278829	-0.238870	-0.357893
H51	H	0.421454	-0.000096	0.025285
H52	H	0.578788	-0.000082	0.022530
O53	O	1.132989	-0.000011	0.320731
C54	C	1.198839	-0.000038	0.386369
H55	H	1.175545	0.040966	0.445271
H56	H	1.221968	-0.103951	0.398651
C57	C	1.299605	0.034550	0.289569
C58	C	1.270996	0.084922	0.361911
H59	H	1.344116	0.086952	0.274482
H60	H	1.255241	0.034563	0.245347
H61	H	1.318873	-0.052043	0.299814
H62	H	1.251719	0.171507	0.351663
H63	H	1.315359	0.084926	0.406132
H64	H	0.843295	-0.000040	0.447127
O65	O	0.834195	-0.000109	0.281530
C66	C	0.766339	-0.000073	0.329621
H67	H	0.787451	-0.041083	0.394351
H68	H	0.742892	0.103843	0.335785
C69	C	0.669442	-0.034640	0.206881
C70	C	0.695370	-0.085020	0.286383
H71	H	0.625662	-0.087033	0.180210
H72	H	0.715156	-0.034659	0.174481
H73	H	0.649908	0.051956	0.212029
H74	H	0.714912	-0.171607	0.281233
H75	H	0.649656	-0.085017	0.318782
H76	H	1.118130	-0.000057	0.483168
