data_functionalizedCrystal
_audit_creation_method	'MofGen! by Chris Wilmer'
_symmetry_space_group_name_H-M	'P1'
_symmetry_Int_Tables_number	1
_symmetry_cell_setting	triclinic
loop_
_symmetry_equiv_pos_as_xyz
  x,y,z
_cell_length_a	14.853567
_cell_length_b	17.699083
_cell_length_c	13.330367
_cell_angle_alpha	89.996702
_cell_angle_beta	89.995281
_cell_angle_gamma	83.458973
loop_
_atom_site_label
_atom_site_type_symbol
_atom_site_fract_x
_atom_site_fract_y
_atom_site_fract_z
O1	O	-1.196005	-0.098812	0.083356
O2	O	-0.933503	-0.110583	0.083374
O3	O	-1.072170	0.005472	0.083356
O4	O	-1.057338	-0.214868	0.083374
O5	O	-1.072149	0.005470	-0.083491
O6	O	-0.933482	-0.110586	-0.083473
O7	O	-1.195984	-0.098814	-0.083491
Cu8	Cu	-1.064731	-0.104700	-0.098717
Cu9	Cu	-1.064756	-0.104697	0.098600
O10	O	-1.057317	-0.214870	-0.083473
C11	C	-0.899905	-0.110051	-0.000048
C12	C	-0.799828	-0.108453	-0.000041
C13	C	-1.071628	0.033670	-0.000068
C14	C	-1.070034	0.117692	-0.000068
C15	C	-1.229582	-0.099347	-0.000067
C16	C	-1.329659	-0.100945	-0.000067
C17	C	-0.387572	-0.032757	-0.000070
C18	C	-0.365784	-0.170634	-0.000057
C19	C	-0.459812	-0.172136	-0.000054
C20	C	-0.517725	-0.103948	-0.000057
C21	C	-0.481610	-0.034258	-0.000064
C22	C	-0.495934	-0.241826	-0.000037
C23	C	-0.589968	-0.243332	-0.000033
C24	C	-0.647883	-0.175143	-0.000043
C25	C	-0.611762	-0.105449	-0.000051
C26	C	-0.669675	-0.037261	-0.000054
C27	C	-0.633556	0.032433	-0.000069
C28	C	-0.539524	0.033931	-0.000074
C29	C	-0.741915	-0.176641	-0.000038
C30	C	-0.763712	-0.038762	-0.000048
C31	C	-1.057859	-0.243067	-0.000047
C32	C	-1.059453	-0.327089	-0.000040
C33	C	-1.151429	0.166101	-0.000075
C34	C	-1.149925	0.245049	-0.000066
C35	C	-1.067026	0.275585	-0.000057
C36	C	-0.985625	0.227169	-0.000048
C37	C	-0.987129	0.148223	-0.000049
C38	C	-0.979555	0.545548	-0.000039
C39	C	-0.978057	0.624499	-0.000040
C40	C	-1.142352	0.642373	-0.000056
C41	C	-1.143856	0.563428	-0.000058
C42	C	-1.062455	0.515019	-0.000042
C43	C	-1.064087	0.429415	-0.000050
C44	C	-1.065394	0.361187	-0.000057
N45	N	-1.064720	-0.104702	-0.237498
C46	C	-1.010149	-0.058713	-0.290023
C47	C	-1.119302	-0.150687	-0.290001
C48	C	-1.119313	-0.150686	-0.395019
C49	C	-1.064742	-0.104698	-0.447544
C50	C	-1.010160	-0.058710	-0.395051
C51	C	-1.173900	-0.196667	-0.447520
C52	C	-1.173914	-0.196668	-0.552545
C53	C	-1.119337	-0.150683	-0.605072
C54	C	-1.064753	-0.104694	-0.552573
C55	C	-1.010181	-0.058705	-0.605098
C56	C	-0.955591	-0.012720	-0.552600
C57	C	-0.955583	-0.012725	-0.447579
C58	C	-1.119345	-0.150678	-0.710094
C59	C	-1.010192	-0.058702	-0.710126
N60	N	-1.064774	-0.104690	0.237381
H61	H	-0.810860	0.016766	-0.000054
F62	F	-1.177383	-0.199623	-0.234097
H63	H	-0.910546	0.649358	-0.000035
H64	H	-1.208632	0.681798	-0.000063
F65	F	-1.232089	0.530934	-0.000066
F66	F	-0.695202	0.105001	-0.000065
H67	H	-0.771318	-0.233385	-0.000028
H68	H	-0.920849	0.108808	-0.000044
F69	F	-1.231980	-0.245603	-0.391614
H70	H	-0.510108	0.090673	-0.000110
H71	H	-0.358160	0.023987	-0.000086
F72	F	-0.892921	0.494037	-0.000020
H73	H	-0.918126	0.252037	-0.000034
H74	H	-1.163795	-0.188116	-0.752832
H75	H	-0.965749	-0.021255	-0.752885
H76	H	-0.911163	0.024727	-0.595380
H77	H	-1.218935	0.141246	-0.000088
F78	F	-1.236557	0.296567	-0.000075
F79	F	-0.897492	0.036213	-0.391701
H80	H	-0.318626	-0.226149	-0.000046
F81	F	-0.434296	-0.314391	-0.000019
H82	H	-1.218364	-0.234113	-0.595279
F83	F	-0.628400	-0.317505	-0.000019
H84	H	-0.965700	-0.021275	-0.247275
