data_functionalizedCrystal
_audit_creation_method	'MofGen! by Chris Wilmer'
_symmetry_space_group_name_H-M	'P1'
_symmetry_Int_Tables_number	1
_symmetry_cell_setting	triclinic
loop_
_symmetry_equiv_pos_as_xyz
  x,y,z
_cell_length_a	16.956993
_cell_length_b	22.010155
_cell_length_c	16.974813
_cell_angle_alpha	93.650313
_cell_angle_beta	100.267672
_cell_angle_gamma	89.987587
loop_
_atom_site_label
_atom_site_type_symbol
_atom_site_fract_x
_atom_site_fract_y
_atom_site_fract_z
O1	O	-1.058007	0.052197	0.032763
O2	O	-0.825819	0.053549	0.060523
O3	O	-0.948385	0.047190	-0.068882
O4	O	-0.935441	0.058556	0.162169
O5	O	-0.948363	-0.053859	-0.068862
O6	O	-0.825797	-0.047500	0.060543
O7	O	-1.057985	-0.048852	0.032783
Cu8	Cu	-0.941889	-0.057403	0.046665
Cu9	Cu	-0.941915	0.062100	0.046641
O10	O	-0.935419	-0.042494	0.162188
C11	C	-0.796099	0.003093	0.061954
C12	C	-0.707574	0.003296	0.066180
N13	N	-0.941876	-0.141455	0.046680
C14	C	-0.208239	0.004864	0.097792
C15	C	-0.291419	0.004670	0.093815
C16	C	-0.342588	0.000994	0.019171
C17	C	-0.310575	-0.002481	-0.051502
C18	C	-0.227396	-0.002282	-0.047525
C19	C	-0.592382	0.000020	-0.000516
C20	C	-0.675565	-0.000181	-0.004488
C21	C	-0.656403	0.006971	0.140830
C22	C	-0.573225	0.007166	0.144801
C23	C	-0.541218	0.003694	0.074128
N24	N	-0.427611	0.000793	0.015104
N25	N	-0.456197	0.003899	0.078196
C26	C	-0.996190	-0.564051	-0.010652
C27	C	-0.996194	-0.627659	-0.010657
O28	O	-1.042342	-0.662945	-0.059391
N29	N	-0.941915	-0.656664	0.046625
C30	C	-0.887623	-0.622059	0.103912
O31	O	-0.841454	-0.652571	0.152634
C32	C	-0.887616	-0.558452	0.103913
C33	C	-0.941904	-0.529450	0.046632
C34	C	-1.050474	-0.535049	-0.067929
C35	C	-1.050471	-0.471445	-0.067922
C36	C	-0.996185	-0.436844	-0.010638
C37	C	-0.941901	-0.465846	0.046639
C38	C	-0.833321	-0.523848	0.161196
C39	C	-0.833318	-0.460237	0.161192
C40	C	-0.887606	-0.431235	0.103911
C41	C	-0.887612	-0.367642	0.103929
N42	N	-0.941891	-0.338636	0.046647
C43	C	-0.996178	-0.373238	-0.010637
C44	C	-0.887640	-0.755637	0.103903
C45	C	-0.887650	-0.819242	0.103906
C46	C	-0.996221	-0.824838	-0.010664
C47	C	-0.996214	-0.761232	-0.010663
C48	C	-0.941920	-0.726631	0.046621
C49	C	-0.996168	-0.239665	-0.010618
C50	C	-0.996162	-0.176056	-0.010604
C51	C	-0.887589	-0.170465	0.103964
C52	C	-0.887597	-0.234069	0.103953
C53	C	-0.941890	-0.268668	0.046655
O54	O	-0.841486	-0.332316	0.152636
O55	O	-1.042332	-0.342718	-0.059357
C56	C	-0.087705	0.001601	0.031351
C57	C	-0.176231	0.001388	0.027124
C58	C	-0.947881	-0.004781	-0.098298
C59	C	-0.946404	-0.009090	-0.185977
N60	N	-0.941934	0.146151	0.046619
C61	C	-0.945724	0.043967	-0.227176
C62	C	-0.944330	0.039916	-0.309559
C63	C	-0.943623	-0.017193	-0.350743
C64	C	-0.944301	-0.070254	-0.309539
C65	C	-0.945688	-0.066202	-0.227156
C66	C	-0.939466	-0.035217	-0.597129
C67	C	-0.938080	-0.039265	-0.679518
C68	C	-0.938109	0.070905	-0.679532
C69	C	-0.939501	0.074952	-0.597149
C70	C	-0.940175	0.021891	-0.555951
N71	N	-0.942201	-0.021335	-0.434952
N72	N	-0.941591	0.026034	-0.471742
C73	C	-0.935923	0.009479	0.191604
C74	C	-0.937400	0.013792	0.279284
H75	H	-0.317475	0.007507	0.151360
N76	N	-1.051651	-0.860193	-0.069200
N77	N	-1.026383	-0.898010	-0.116642
H78	H	-1.065524	-0.922979	-0.157986
N79	N	-0.727824	-0.003944	-0.080746
N80	N	-0.699238	-0.007048	-0.143840
H81	H	-0.736146	-0.009710	-0.197696
N82	N	-0.832196	-0.720296	0.162441
N83	N	-0.857439	-0.682473	0.209894
H84	H	-0.818283	-0.657516	0.251237
N85	N	-0.559682	-0.003546	-0.072695
N86	N	-0.485416	-0.003373	-0.069141
H87	H	-0.462317	-0.005895	-0.120121
N88	N	-0.520970	0.010918	0.221056
N89	N	-0.549560	0.014022	0.284148
H90	H	-0.512656	0.016669	0.338005
N91	N	-0.832156	-0.263704	0.162466
N92	N	-0.857393	-0.296869	0.209910
H93	H	-0.818233	-0.317795	0.251232
H94	H	-0.843452	-0.842850	0.150557
H95	H	-0.352244	-0.005470	-0.112279
N96	N	-0.937421	0.125109	-0.721603
N97	N	-0.993768	0.161909	-0.723363
H98	H	-0.993281	0.200193	-0.753074
H99	H	-0.940030	-0.078423	-0.563599
H100	H	-1.040373	-0.152445	-0.057249
H101	H	-0.946231	-0.109407	-0.193611
H102	H	-1.094680	-0.563216	-0.114579
N103	N	-0.832149	-0.135105	0.162472
N104	N	-0.832158	-0.078315	0.162461
H105	H	-0.793000	-0.053339	0.203780
N106	N	-0.194711	-0.005829	-0.119718
N107	N	-0.240405	-0.009110	-0.186360
H108	H	-0.217322	-0.011613	-0.237350
H109	H	-0.166582	0.007853	0.158576
N110	N	-0.689112	0.010516	0.213008
N111	N	-0.763378	0.010337	0.209451
H112	H	-0.786479	0.012841	0.260430
H113	H	-0.946304	0.090471	-0.193650
N114	N	-0.777865	-0.553452	0.219719
N115	N	-0.729403	-0.522539	0.270854
H116	H	-0.690235	-0.543445	0.312190
N117	N	-1.051628	-0.274992	-0.069152
N118	N	-1.100087	-0.249079	-0.120284
H119	H	-1.139258	-0.274027	-0.161623
N120	N	-0.940207	0.133286	-0.555076
N121	N	-0.884801	0.148373	-0.498147
H122	H	-0.885302	0.189572	-0.468431
H123	H	-0.937500	-0.085772	-0.713047
H124	H	-1.094675	-0.447836	-0.114567
N125	N	-1.051633	-0.731621	-0.069217
N126	N	-1.100071	-0.762531	-0.120379
H127	H	-1.139196	-0.741623	-0.161751
H128	H	-0.789102	-0.432068	0.207838
N129	N	-0.943630	0.094119	-0.351628
N130	N	-0.944264	0.145105	-0.314848
H131	H	-0.943768	0.183389	-0.344558
H132	H	-0.943720	-0.116753	-0.343077
