data_functionalizedCrystal
_audit_creation_method	'MofGen! by Chris Wilmer'
_symmetry_space_group_name_H-M	'P1'
_symmetry_Int_Tables_number	1
_symmetry_cell_setting	triclinic
loop_
_symmetry_equiv_pos_as_xyz
  x,y,z
_cell_length_a	17.699104
_cell_length_b	16.053802
_cell_length_c	17.699104
_cell_angle_alpha	87.440421
_cell_angle_beta	96.708483
_cell_angle_gamma	87.422075
loop_
_atom_site_label
_atom_site_type_symbol
_atom_site_fract_x
_atom_site_fract_y
_atom_site_fract_z
O1	O	-1.007273	0.069464	0.092591
O2	O	-0.507273	0.569464	0.592591
O3	O	-0.786898	0.069459	0.105028
O4	O	-0.286898	0.569459	0.605028
O5	O	-0.903303	0.069454	-0.011378
O6	O	-0.403303	0.569454	0.488622
O7	O	-0.890868	0.069469	0.208997
O8	O	-0.390868	0.569469	0.708997
O9	O	-0.896896	-0.069405	-0.004997
O10	O	-0.396896	0.430595	0.495003
O11	O	-0.780490	-0.069400	0.111408
O12	O	-0.280490	0.430600	0.611408
O13	O	-1.000866	-0.069395	0.098972
O14	O	-0.500866	0.430605	0.598972
Zn15	Zn	-0.889661	-0.091444	0.106204
Zn16	Zn	-0.389661	0.408556	0.606204
Zn17	Zn	-0.898103	0.091508	0.097796
Zn18	Zn	-0.398103	0.591508	0.597796
O19	O	-0.884461	-0.069390	0.215378
O20	O	-0.384461	0.430610	0.715378
C21	C	-0.755497	0.000029	0.107770
C22	C	-0.255497	0.500029	0.607770
C23	C	-0.671480	0.000026	0.106425
C24	C	-0.171480	0.500026	0.606425
N25	N	-0.883905	-0.216304	0.111941
N26	N	-0.383905	0.283696	0.611941
C27	C	-0.146614	0.000031	0.167168
C28	C	0.353386	0.500031	0.667168
C29	C	-0.225558	0.000034	0.168427
C30	C	0.274442	0.500034	0.668427
C31	C	-0.274170	0.000030	0.100093
C32	C	0.225830	0.500030	0.600093
C33	C	-0.243835	0.000031	0.030494
C34	C	0.256165	0.500031	0.530494
C35	C	-0.164893	0.000033	0.029236
C36	C	0.335107	0.500033	0.529236
C37	C	-0.562201	0.000023	0.035568
C38	C	-0.062201	0.500023	0.535568
C39	C	-0.641148	0.000019	0.036832
C40	C	-0.141148	0.500019	0.536832
C41	C	-0.622866	0.000024	0.174759
C42	C	-0.122866	0.500024	0.674759
C43	C	-0.543924	0.000027	0.173500
C44	C	-0.043924	0.500027	0.673500
C45	C	-0.513596	0.000032	0.103903
C46	C	-0.013596	0.500032	0.603903
C47	C	-0.427996	0.000029	0.102538
C48	C	0.072004	0.500029	0.602538
C49	C	-0.359768	0.000027	0.101456
C50	C	0.140232	0.500027	0.601456
C51	C	-0.933454	-0.260000	0.062428
C52	C	-0.433454	0.240000	0.562428
C53	C	-0.929435	-0.347407	0.066448
C54	C	-0.429435	0.152593	0.566448
C55	C	-0.875870	-0.391116	0.119986
C56	C	-0.375870	0.108884	0.619986
C57	C	-0.826316	-0.347414	0.169501
C58	C	-0.326316	0.152586	0.669501
C59	C	-0.830332	-0.260009	0.165476
C60	C	-0.330332	0.239991	0.665476
C61	C	-0.858327	-0.652525	0.137544
C62	C	-0.358327	-0.152525	0.637544
C63	C	-0.854316	-0.739936	0.141566
C64	C	-0.354316	-0.239936	0.641566
C65	C	-0.957434	-0.739923	0.038512
C66	C	-0.457434	-0.239923	0.538512
C67	C	-0.961449	-0.652516	0.034495
C68	C	-0.461449	-0.152516	0.534495
C69	C	-0.911892	-0.608822	0.084008
C70	C	-0.411892	-0.108822	0.584008
N71	N	-0.871762	-0.480459	0.124098
N72	N	-0.371762	0.019541	0.624098
N73	N	-0.915997	-0.519480	0.079891
N74	N	-0.415997	-0.019480	0.579891
C75	C	-0.032266	0.000033	0.096230
C76	C	0.467734	0.500033	0.596230
C77	C	-0.116283	0.000029	0.097575
C78	C	0.383717	0.500029	0.597575
C79	C	-0.899651	0.000025	-0.036384
C80	C	-0.399651	0.500025	0.463616
C81	C	-0.898306	0.000024	-0.120401
C82	C	-0.398306	0.500024	0.379599
N83	N	-0.903865	0.216368	0.092053
N84	N	-0.403865	0.716368	0.592053
C85	C	-0.959051	0.000049	-0.645269
C86	C	-0.459051	0.500049	-0.145269
C87	C	-0.960309	0.000042	-0.566325
C88	C	-0.460309	0.500042	-0.066325
C89	C	-0.891975	0.000038	-0.517712
C90	C	-0.391975	0.500038	-0.017712
C91	C	-0.822376	0.000034	-0.548047
C92	C	-0.322376	0.500034	-0.048047
C93	C	-0.821118	0.000035	-0.626990
C94	C	-0.321118	0.500035	-0.126990
C95	C	-0.827449	0.000027	-0.229680
C96	C	-0.327449	0.500027	0.270320
C97	C	-0.828713	0.000028	-0.150733
C98	C	-0.328713	0.500028	0.349267
C99	C	-0.966640	0.000034	-0.169016
C100	C	-0.466640	0.500034	0.330984
C101	C	-0.965382	0.000035	-0.247958
C102	C	-0.465382	0.500035	0.252042
C103	C	-0.895784	0.000026	-0.278286
C104	C	-0.395784	0.500026	0.221714
C105	C	-0.894420	0.000033	-0.363886
C106	C	-0.394420	0.500033	0.136114
C107	C	-0.893338	0.000038	-0.432114
C108	C	-0.393338	0.500038	0.067886
C109	C	-0.888113	0.000041	0.240384
C110	C	-0.388113	0.500041	0.740384
C111	C	-0.889458	0.000047	0.324401
C112	C	-0.389458	0.500047	0.824401
H113	H	-0.107038	0.000028	0.222814
H114	H	0.392962	0.500028	0.722814
F115	F	-0.257833	0.000040	0.242497
F116	F	0.242167	0.500040	0.742497
H117	H	-0.997780	-0.775507	-0.001800
H118	H	-0.497780	-0.275507	0.498200
H119	H	-1.021028	0.000042	-0.287536
H120	H	-0.521028	0.500042	0.212464
H121	H	-0.504346	0.000026	0.229146
H122	H	-0.004346	0.500026	0.729146
F123	F	-0.132614	0.000032	-0.044834
F124	F	0.367386	0.500032	0.455166
F125	F	-0.755978	0.000023	-0.098996
F126	F	-0.255978	0.500023	0.401004
F127	F	-0.295574	0.000030	-0.042233
F128	F	0.204426	0.500030	0.457767
F129	F	-0.692884	0.000015	-0.035903
F130	F	-0.192884	0.500015	0.464097
F131	F	-0.797302	-0.786449	0.198553
F132	F	-0.297302	-0.286449	0.698553
H133	H	-0.537518	0.000025	-0.021103
H134	H	-0.037518	0.500025	0.478897
F135	F	-1.031784	0.000059	-0.697000
F136	F	-0.531784	0.500059	-0.197000
H137	H	-0.817977	-0.616956	0.177860
H138	H	-0.317977	-0.116956	0.677860
F139	F	-0.990469	-0.213490	0.005448
F140	F	-0.490469	0.286510	0.505448
F141	F	-0.753377	0.000023	-0.261947
F142	F	-0.253377	0.500023	0.238053
F143	F	-0.655149	0.000024	0.248832
F144	F	-0.155149	0.500024	0.748832
F145	F	-0.749649	0.000026	-0.496308
F146	F	-0.249649	0.500026	0.003692
F147	F	-0.982169	-0.393911	0.013750
F148	F	-0.482169	0.106089	0.513750
H149	H	-1.005065	-0.616930	-0.009099
H150	H	-0.505065	-0.116930	0.490901
F151	F	-0.747048	0.000029	-0.659268
F152	F	-0.247048	0.500029	-0.159268
F153	F	-1.040714	0.000040	-0.136733
F154	F	-0.540714	0.500040	0.363267
F155	F	-0.769304	-0.393933	0.226477
F156	F	-0.269304	0.106067	0.726477
F157	F	-1.034380	0.000061	-0.534050
F158	F	-0.534380	0.500061	-0.034050
H159	H	-0.789983	-0.224432	0.205794
H160	H	-0.289983	0.275568	0.705794
