data_functionalizedCrystal
_audit_creation_method	'MofGen! by Chris Wilmer'
_symmetry_space_group_name_H-M	'P1'
_symmetry_Int_Tables_number	1
_symmetry_cell_setting	triclinic
loop_
_symmetry_equiv_pos_as_xyz
  x,y,z
_cell_length_a	16.974829
_cell_length_b	10.540539
_cell_length_c	15.455313
_cell_angle_alpha	92.694186
_cell_angle_beta	83.671566
_cell_angle_gamma	83.960807
loop_
_atom_site_label
_atom_site_type_symbol
_atom_site_fract_x
_atom_site_fract_y
_atom_site_fract_z
O1	O	1.057026	0.150555	-0.146324
O2	O	0.826165	0.172400	-0.130120
O3	O	0.946863	-0.023342	-0.138591
O4	O	0.936329	0.346298	-0.137854
O5	O	0.939960	-0.012195	0.006156
O6	O	0.819263	0.183548	0.014626
O7	O	1.050124	0.161703	-0.001578
Cu8	Cu	0.934063	0.173643	0.019741
Cu9	Cu	0.942226	0.160460	-0.151439
O10	O	0.929426	0.357446	0.006893
C11	C	0.793152	0.177349	-0.055672
C12	C	0.705068	0.175470	-0.049490
C13	C	0.942621	-0.065055	-0.066164
C14	C	0.940258	-0.205952	-0.066003
C15	C	0.208839	0.165592	-0.006219
C16	C	0.291604	0.167356	-0.012030
C17	C	0.336750	0.162152	-0.093838
C18	C	0.299126	0.155196	-0.169841
C19	C	0.216362	0.153441	-0.164029
C20	C	0.584680	0.166759	-0.119680
C21	C	0.667450	0.168511	-0.125486
C22	C	0.659922	0.180673	0.032325
C23	C	0.577158	0.178910	0.038129
C24	C	0.539540	0.171960	-0.037873
N25	N	0.421349	0.163952	-0.099780
N26	N	0.454942	0.170170	-0.031931
C27	C	0.849709	-0.387447	-0.059971
C28	C	0.852089	-0.240855	-0.059813
C29	C	0.978747	-0.262161	0.013677
C30	C	0.975735	-0.408635	0.013957
C31	C	0.985377	-0.421869	-0.150772
C32	C	0.986242	-0.274989	-0.151922
C33	C	1.083137	0.156754	-0.076028
C34	C	1.171221	0.158632	-0.082216
C35	C	0.933668	0.399158	-0.065536
C36	C	0.936031	0.540055	-0.065703
N37	N	0.928328	0.182915	0.140139
N38	N	0.947968	0.151178	-0.271837
C39	C	0.979622	0.099787	0.181933
C40	C	0.975292	0.106810	0.273045
C41	C	0.919671	0.196969	0.322360
C42	C	0.868370	0.280100	0.280560
C43	C	0.872697	0.273070	0.189450
C44	C	0.900994	0.227280	0.595253
C45	C	0.896673	0.234306	0.686368
C46	C	1.003594	0.061014	0.678847
C47	C	1.007919	0.053997	0.587735
C48	C	0.956616	0.137124	0.545943
N49	N	0.915245	0.204152	0.415491
N50	N	0.961039	0.129933	0.452814
H51	H	0.172087	0.169835	0.060398
N52	N	0.803819	-0.178513	0.021934
H53	H	0.758940	-0.116871	0.005586
H54	H	0.780966	-0.246341	0.057971
H55	H	0.830927	0.340760	0.155423
N56	N	0.332178	0.174875	0.069937
H57	H	0.291020	0.177901	0.122643
H58	H	0.372339	0.097192	0.070549
H59	H	0.821528	-0.202094	-0.116722
H60	H	0.690559	0.186334	0.094201
N61	N	0.528463	0.184518	0.126363
H62	H	0.564916	0.188297	0.173623
H63	H	0.488349	0.263211	0.132865
H64	H	0.817707	-0.419859	-0.116801
N65	N	0.800031	-0.420434	0.021330
H66	H	0.796470	-0.515550	0.019553
H67	H	0.825701	-0.394313	0.074354
H68	H	0.946340	-0.214187	0.077256
H69	H	0.704205	0.164284	-0.192108
H70	H	1.050761	-0.252541	-0.161425
N71	N	0.544116	0.159240	-0.201651
H72	H	0.503965	0.236921	-0.202351
H73	H	0.585330	0.156158	-0.254308
N74	N	0.347814	0.149590	-0.258078
H75	H	0.405953	0.151752	-0.250230
H76	H	0.340969	0.067944	-0.291933
N77	N	0.175783	0.145940	-0.245996
H78	H	0.216940	0.142908	-0.298703
H79	H	0.147588	0.066266	-0.247439
N80	N	0.930287	-0.438786	0.098713
H81	H	0.882086	-0.482016	0.086131
H82	H	0.965984	-0.497505	0.131216
H83	H	1.049088	-0.470514	-0.155798
H84	H	1.043350	-0.240969	0.012205
H85	H	1.038966	-0.457685	0.013257
N86	N	0.951543	-0.469238	-0.231109
H87	H	0.903880	-0.515868	-0.213170
H88	H	0.934585	-0.394164	-0.265667
N89	N	1.058922	-0.028639	0.723926
H90	H	1.026497	-0.081739	0.763890
H91	H	1.094804	-0.086737	0.678806
N92	N	0.836686	0.331565	0.739562
H93	H	0.804843	0.383162	0.699262
H94	H	0.799549	0.286111	0.779866
H95	H	0.958111	-0.238168	-0.210891
N96	N	1.039619	0.002551	0.128745
H97	H	1.071456	-0.049045	0.169051
H98	H	1.010729	-0.056294	0.093109
H99	H	1.017060	0.039120	0.307073
N100	N	1.067912	-0.043244	0.534546
H101	H	1.099751	-0.094842	0.574849
H102	H	1.039020	-0.102087	0.498910
H103	H	0.859223	0.294968	0.561233
N104	N	0.808372	0.377336	0.333746
H105	H	0.813414	0.369179	0.397806
H106	H	0.818797	0.466098	0.317130
