data_functionalizedCrystal
_audit_creation_method	'MofGen! by Chris Wilmer'
_symmetry_space_group_name_H-M	'P1'
_symmetry_Int_Tables_number	1
_symmetry_cell_setting	triclinic
loop_
_symmetry_equiv_pos_as_xyz
  x,y,z
_cell_length_a	17.640112
_cell_length_b	13.897448
_cell_length_c	17.637464
_cell_angle_alpha	101.180445
_cell_angle_beta	109.606029
_cell_angle_gamma	101.242525
loop_
_atom_site_label
_atom_site_type_symbol
_atom_site_fract_x
_atom_site_fract_y
_atom_site_fract_z
Zn1	Zn	1.165511	-0.148393	-0.211668
Zn2	Zn	1.193307	-0.268845	-0.073887
Zn3	Zn	1.055591	-0.148439	-0.101696
Zn4	Zn	1.027700	-0.350537	-0.239444
O5	O	1.110527	-0.229053	-0.156674
O6	O	1.284507	-0.130164	-0.170129
O7	O	1.198343	-0.218703	0.037734
O8	O	1.070212	-0.013445	-0.116297
O9	O	1.304929	-0.218659	-0.068902
O10	O	1.150970	-0.013411	-0.197094
O11	O	1.097164	-0.130242	0.017303
O12	O	0.936582	-0.209455	-0.143230
O13	O	1.022676	-0.357891	-0.351070
O14	O	0.916091	-0.357935	-0.244434
O15	O	1.123925	-0.209377	-0.330663
O16	O	1.171299	-0.414669	-0.095835
O17	O	1.049628	-0.474688	-0.217469
C18	C	0.896438	-0.292566	-0.199864
C19	C	0.804846	-0.319766	-0.218361
C20	C	1.110472	-0.479678	-0.156662
C21	C	1.110518	-0.586883	-0.156669
C22	C	0.556757	-0.022404	-0.016165
C23	C	0.470690	-0.047985	-0.033556
C24	C	0.449444	-0.202713	-0.138757
C25	C	0.535510	-0.177143	-0.121378
C26	C	0.589161	-0.086987	-0.060080
C27	C	0.567914	-0.241726	-0.165293
C28	C	0.653973	-0.216160	-0.147911
C29	C	0.707629	-0.126010	-0.086614
C30	C	0.675220	-0.061420	-0.042698
C31	C	0.514262	-0.331885	-0.226586
C32	C	0.546666	-0.396468	-0.270501
C33	C	0.632726	-0.370899	-0.253124
C34	C	0.686382	-0.280749	-0.191827
C35	C	0.665135	-0.435488	-0.297040
C36	C	0.751195	-0.409921	-0.279658
C37	C	0.772442	-0.255182	-0.174446
C38	C	1.110594	-0.783167	-0.156704
C39	C	1.110549	-0.673942	-0.156688
C40	C	1.325452	-0.165294	-0.113316
C41	C	1.417041	-0.138123	-0.094839
C42	C	1.067089	-0.292741	-0.371601
C43	C	1.048578	-0.319881	-0.463190
C44	C	1.110602	0.022552	-0.156699
C45	C	1.110633	0.129771	-0.156710
C46	C	0.969779	-0.435451	-0.602905
C47	C	0.987178	-0.409939	-0.516842
C48	C	1.092607	-0.255301	-0.495585
C49	C	1.075219	-0.280802	-0.581648
C50	C	1.013803	-0.370878	-0.635301
C51	C	1.119243	-0.216229	-0.614044
C52	C	1.101854	-0.241726	-0.700099
C53	C	1.040439	-0.331795	-0.753759
C54	C	0.996414	-0.396374	-0.721357
C55	C	1.180654	-0.126150	-0.560389
C56	C	1.224679	-0.061577	-0.592786
C57	C	1.207293	-0.087077	-0.678842
C58	C	1.145879	-0.177147	-0.732501
C59	C	1.251319	-0.022498	-0.711244
C60	C	1.233929	-0.047995	-0.797299
C61	C	1.128489	-0.202643	-0.818557
C62	C	1.153844	-0.165529	0.057426
C63	C	1.172514	-0.138070	0.149047
H64	H	0.816126	-0.181758	-0.124543
F65	F	0.904418	-0.531324	-0.660012
H66	H	1.142609	-0.181960	-0.451890
H67	H	1.274681	0.011764	-0.549090
H68	H	0.777705	-0.105197	-0.072462
H69	H	0.621442	-0.508897	-0.346943
H70	H	0.718904	0.012004	0.007204
H71	H	0.600441	0.051021	0.033738
H72	H	0.444311	0.004619	0.002204
F73	F	0.785684	-0.478659	-0.326396
F74	F	0.931053	-0.492247	-0.778463
H75	H	1.078484	-0.275997	-0.862244
H76	H	1.194813	-0.105396	-0.490318
H77	H	0.405751	-0.276120	-0.188664
F78	F	0.422671	-0.359101	-0.245075
F79	F	0.489561	-0.492422	-0.335728
H80	H	1.026276	-0.352548	-0.823831
F81	F	0.940316	-0.478674	-0.482368
H82	H	1.301318	0.050846	-0.667547
H83	H	1.269775	0.004591	-0.823677
