data_functionalizedCrystal
_audit_creation_method	'MofGen! by Chris Wilmer'
_symmetry_space_group_name_H-M	'P1'
_symmetry_Int_Tables_number	1
_symmetry_cell_setting	triclinic
loop_
_symmetry_equiv_pos_as_xyz
  x,y,z
_cell_length_a	14.044220
_cell_length_b	10.723024
_cell_length_c	9.198806
_cell_angle_alpha	89.997736
_cell_angle_beta	89.998828
_cell_angle_gamma	91.171626
loop_
_atom_site_label
_atom_site_type_symbol
_atom_site_fract_x
_atom_site_fract_y
_atom_site_fract_z
O1	O	1.259663	-0.301050	0.120731
O2	O	1.759663	0.198950	0.620731
O3	O	0.983623	-0.290187	0.120768
O4	O	1.483623	0.209813	0.620768
O5	O	1.128011	-0.114679	0.120743
O6	O	1.628011	0.385321	0.620743
O7	O	1.115276	-0.476557	0.120756
O8	O	1.615276	0.023443	0.620756
O9	O	1.128000	-0.114677	-0.121042
O10	O	1.628000	0.385323	0.378958
O11	O	0.983613	-0.290184	-0.121017
O12	O	1.483613	0.209816	0.378983
O13	O	1.259653	-0.301047	-0.121054
O14	O	1.759653	0.198953	0.378946
Cu15	Cu	1.121632	-0.295615	-0.143112
Cu16	Cu	1.621632	0.204385	0.356888
Cu17	Cu	1.121644	-0.295619	0.142826
Cu18	Cu	1.621644	0.204381	0.642826
O19	O	1.115265	-0.476555	-0.121029
O20	O	1.615265	0.023445	0.378971
C21	C	0.948273	-0.285430	-0.000120
C22	C	1.448273	0.214570	0.499880
C23	C	0.842955	-0.271245	-0.000106
C24	C	1.342955	0.228755	0.499894
N25	N	1.121630	-0.295613	-0.344226
N26	N	1.621630	0.204387	0.155774
C27	C	1.127079	-0.068086	-0.000147
C28	C	1.627079	0.431914	0.499853
C29	C	1.124306	0.070746	-0.000142
C30	C	1.624306	0.570746	0.499858
C31	C	0.650125	-0.245313	-0.000135
C32	C	1.150125	0.254687	0.499865
C33	C	0.593146	-0.345915	-0.000138
C34	C	1.093146	0.154085	0.499862
C35	C	0.485848	-0.331486	-0.000155
C36	C	0.985848	0.168514	0.499845
C37	C	0.757432	-0.259740	-0.000119
C38	C	1.257432	0.240260	0.499881
C39	C	1.295003	-0.305804	-0.000163
C40	C	1.795003	0.194196	0.499837
C41	C	1.400321	-0.319989	-0.000168
C42	C	1.900321	0.180011	0.499832
C43	C	1.116197	-0.523149	-0.000135
C44	C	1.616197	-0.023149	0.499865
C45	C	1.118970	-0.661980	-0.000131
C46	C	1.618970	-0.161980	0.499869
C47	C	1.205097	0.137646	-0.000151
C48	C	1.705097	0.637646	0.499849
C49	C	1.202234	0.281136	-0.000145
C50	C	1.702234	0.781136	0.499855
C51	C	1.182403	-0.221765	-0.583838
C52	C	1.682403	0.278235	-0.083838
C53	C	1.182391	-0.221765	-0.416425
C54	C	1.682391	0.278235	0.083575
N55	N	1.121654	-0.295612	0.343940
N56	N	1.621654	0.204388	0.843940
H57	H	0.624947	-0.442880	-0.000128
H58	H	1.124947	0.057120	0.499872
F59	F	0.608560	-0.118582	-0.000144
F60	F	1.108560	0.381418	0.499856
F61	F	1.292639	0.356305	-0.000165
F62	F	1.792639	0.856305	0.499835
H63	H	1.053017	0.119700	-0.000123
H64	H	1.553017	0.619700	0.499877
H65	H	1.276386	0.088691	-0.000169
H66	H	1.776386	0.588691	0.499831
F67	F	1.028561	0.262858	-0.000132
F68	F	1.528561	0.762858	0.499868
H69	H	1.234427	-0.158545	-0.645943
H70	H	1.734427	0.341455	-0.145943
F71	F	1.250370	-0.139118	-0.335250
F72	F	1.750370	0.360882	0.164750
H73	H	1.069638	-0.358840	-0.593953
H74	H	1.569638	0.141160	-0.093953
F75	F	1.053639	-0.378251	-0.425393
F76	F	1.553639	0.121749	0.074607
