data_functionalizedCrystal
_audit_creation_method	'MofGen! by Chris Wilmer'
_symmetry_space_group_name_H-M	'P1'
_symmetry_Int_Tables_number	1
_symmetry_cell_setting	triclinic
loop_
_symmetry_equiv_pos_as_xyz
  x,y,z
_cell_length_a	14.971482
_cell_length_b	6.394989
_cell_length_c	13.448316
_cell_angle_alpha	90.003556
_cell_angle_beta	89.993798
_cell_angle_gamma	94.944840
loop_
_atom_site_label
_atom_site_type_symbol
_atom_site_fract_x
_atom_site_fract_y
_atom_site_fract_z
O1	O	1.189893	-0.272176	-0.082672
O2	O	1.689893	0.227824	0.417328
O3	O	0.929845	-0.304782	-0.082676
O4	O	1.429845	0.195218	0.417324
O5	O	1.063560	0.015577	-0.082675
O6	O	1.563560	0.515577	0.417325
O7	O	1.056178	-0.592534	-0.082674
O8	O	1.556178	-0.092534	0.417326
O9	O	1.063543	0.015596	0.082709
O10	O	1.563543	0.515596	0.582709
O11	O	0.929827	-0.304762	0.082707
O12	O	1.429827	0.195238	0.582707
O13	O	1.189875	-0.272156	0.082711
O14	O	1.689875	0.227844	0.582711
Cu15	Cu	1.059850	-0.288457	0.097810
Cu16	Cu	1.559850	0.211543	0.597810
Cu17	Cu	1.059871	-0.288480	-0.097775
Cu18	Cu	1.559871	0.211520	0.402225
O19	O	1.056160	-0.592514	0.082710
O20	O	1.556160	-0.092514	0.582710
C21	C	0.896496	-0.303315	0.000015
C22	C	1.396496	0.196685	0.500015
C23	C	0.797151	-0.298949	0.000013
C24	C	1.297151	0.201051	0.500013
C25	C	0.750475	-0.296882	0.090165
C26	C	1.250475	0.203118	0.590165
C27	C	0.657132	-0.292747	0.090166
C28	C	1.157132	0.207253	0.590166
C29	C	0.610466	-0.290694	0.000014
C30	C	1.110466	0.209306	0.500014
C31	C	0.657149	-0.292754	-0.090145
C32	C	1.157149	0.207246	0.409855
C33	C	0.750491	-0.296875	-0.090145
C34	C	1.250491	0.203125	0.409855
C35	C	0.462594	-0.284172	-0.090138
C36	C	0.962594	0.215828	0.409862
C37	C	0.369246	-0.280055	-0.090139
C38	C	0.869246	0.219945	0.409861
C39	C	0.369235	-0.280044	0.090172
C40	C	0.869235	0.219956	0.590172
C41	C	0.462577	-0.284164	0.090172
C42	C	0.962577	0.215836	0.590172
C43	C	0.509253	-0.286229	0.000013
C44	C	1.009253	0.213771	0.500013
C45	C	1.223225	-0.273622	0.000018
C46	C	1.723225	0.226378	0.500018
C47	C	1.322569	-0.277988	0.000013
C48	C	1.822569	0.222012	0.500013
C49	C	1.062092	0.093412	0.000013
C50	C	1.562092	0.593412	0.500013
C51	C	1.057631	0.329657	0.000012
C52	C	1.557631	0.829657	0.500012
N53	N	1.059842	-0.288439	0.235375
N54	N	1.559842	0.211561	0.735375
N55	N	1.059885	-0.288482	-0.235340
N56	N	1.559885	0.211518	0.264660
C57	C	1.119070	-0.146643	0.287415
C58	C	1.619070	0.353357	0.787415
C59	C	1.119076	-0.146641	0.391519
C60	C	1.619076	0.353359	0.891519
C61	C	1.059857	-0.288447	0.443579
C62	C	1.559857	0.211553	0.943579
C63	C	1.000622	-0.430250	0.391531
C64	C	1.500622	0.069750	0.891531
C65	C	1.000612	-0.430240	0.287429
C66	C	1.500612	0.069760	0.787429
C67	C	1.000647	-0.430265	0.608511
C68	C	1.500647	0.069735	1.108511
C69	C	1.000657	-0.430278	0.712619
C70	C	1.500657	0.069722	1.212619
C71	C	1.119110	-0.146665	0.712600
C72	C	1.619110	0.353335	1.212600
C73	C	1.119101	-0.146655	0.608499
C74	C	1.619101	0.353345	1.108499
C75	C	1.059867	-0.288462	0.556458
C76	C	1.559867	0.211538	1.056458
H77	H	0.788463	-0.298572	0.163577
H78	H	1.288463	0.201428	0.663577
H79	H	1.167304	-0.031179	0.433890
H80	H	1.667304	0.468821	0.933890
Cl81	Cl	1.193576	0.031598	0.778026
Cl82	Cl	1.693576	0.531598	1.278026
H83	H	0.952433	-0.545749	0.755002
H84	H	1.452433	-0.045749	1.255002
H85	H	0.952400	-0.545705	0.433924
H86	H	1.452400	-0.045705	0.933924
H87	H	1.167326	-0.031197	0.566111
H88	H	1.667326	0.468803	1.066111
Cl89	Cl	0.809171	-0.299463	-0.203483
Cl90	Cl	1.309171	0.200537	0.296517
H91	H	0.952381	-0.545703	0.245059
H92	H	1.452381	-0.045703	0.745059
Cl93	Cl	0.598455	-0.290187	0.203505
Cl94	Cl	1.098455	0.209813	0.703505
Cl95	Cl	0.521240	-0.286769	0.203508
Cl96	Cl	1.021240	0.213231	0.703508
H97	H	0.952409	-0.545732	0.566143
H98	H	1.452409	-0.045732	1.066143
H99	H	0.331226	-0.278363	0.163583
H100	H	0.831226	0.221637	0.663583
H101	H	0.331253	-0.278385	-0.163548
H102	H	0.831253	0.221615	0.336452
H103	H	0.500595	-0.285853	-0.163555
H104	H	1.000595	0.214147	0.336445
H105	H	0.619147	-0.291068	-0.163548
H106	H	1.119147	0.208932	0.336452
H107	H	1.167297	-0.031177	0.245035
H108	H	1.667297	0.468823	0.745035
