data_functionalizedCrystal
_audit_creation_method	'MofGen! by Chris Wilmer'
_symmetry_space_group_name_H-M	'P1'
_symmetry_Int_Tables_number	1
_symmetry_cell_setting	triclinic
loop_
_symmetry_equiv_pos_as_xyz
  x,y,z
_cell_length_a	15.995350
_cell_length_b	14.472310
_cell_length_c	15.995350
_cell_angle_alpha	90.001162
_cell_angle_beta	96.507625
_cell_angle_gamma	90.009379
loop_
_atom_site_label
_atom_site_type_symbol
_atom_site_fract_x
_atom_site_fract_y
_atom_site_fract_z
O1	O	-1.110997	-0.076758	0.107921
O2	O	-0.610997	0.423242	0.607921
O3	O	-0.867221	-0.076776	0.121248
O4	O	-0.367221	0.423224	0.621248
O5	O	-0.995773	-0.076766	-0.007303
O6	O	-0.495773	0.423234	0.492697
O7	O	-0.982445	-0.076769	0.236472
O8	O	-0.482445	0.423231	0.736472
O9	O	-0.995740	0.076916	-0.007296
O10	O	-0.495740	0.576916	0.492704
O11	O	-0.867188	0.076906	0.121256
O12	O	-0.367188	0.576906	0.621256
O13	O	-1.110963	0.076924	0.107928
O14	O	-0.610963	0.576924	0.607928
Cu15	Cu	-0.989073	0.090947	0.114593
Cu16	Cu	-0.489073	0.590947	0.614593
Cu17	Cu	-0.989112	-0.090800	0.114584
Cu18	Cu	-0.489112	0.409200	0.614584
O19	O	-0.982412	0.076913	0.236480
O20	O	-0.482412	0.576913	0.736480
C21	C	-0.836010	0.000062	0.120701
C22	C	-0.336010	0.500062	0.620701
C23	C	-0.743060	0.000055	0.119049
C24	C	-0.243060	0.500055	0.619049
C25	C	-0.995205	0.000073	-0.038494
C26	C	-0.495205	0.500073	0.461506
C27	C	-0.993553	0.000068	-0.131444
C28	C	-0.493553	0.500068	0.368556
C29	C	-1.142175	0.000083	0.108476
C30	C	-0.642175	0.500083	0.608476
C31	C	-1.235125	0.000084	0.110127
C32	C	-0.735125	0.500084	0.610127
N33	N	-0.989051	0.218778	0.114598
N34	N	-0.489051	0.718778	0.614598
C35	C	-0.405312	0.000074	0.113117
C36	C	0.094688	0.500074	0.613117
C37	C	-0.452746	0.000418	0.021565
C38	C	0.047254	0.500418	0.521565
C39	C	-0.549436	0.000065	0.023217
C40	C	-0.049436	0.500065	0.523217
C41	C	-0.572873	0.000065	0.116060
C42	C	-0.072873	0.500065	0.616060
C43	C	-0.531804	-0.087692	0.161212
C44	C	-0.031804	0.412308	0.661212
C45	C	-0.435169	-0.087759	0.158912
C46	C	0.064831	0.412241	0.658912
C47	C	-0.434792	0.087007	0.160812
C48	C	0.065208	0.587007	0.660812
C49	C	-0.531737	0.088160	0.160790
C50	C	-0.031737	0.588160	0.660790
C51	C	-0.667570	0.000057	0.117727
C52	C	-0.167570	0.500057	0.617727
C53	C	-0.310614	0.000076	0.111452
C54	C	0.189386	0.500076	0.611452
N55	N	-0.989140	-0.218631	0.114572
N56	N	-0.489140	0.281369	0.614572
C57	C	-0.989111	0.592869	0.114581
C58	C	-0.489111	1.092869	0.614581
C59	C	-0.920095	0.553698	0.183135
C60	C	-0.420095	1.053698	0.683135
C61	C	-0.920254	0.446610	0.183385
C62	C	-0.420254	0.946610	0.683385
C63	C	-0.989081	0.407278	0.114590
C64	C	-0.489081	0.907278	0.614590
C65	C	-1.076445	0.446122	0.133671
C66	C	-0.576445	0.946122	0.633671
C67	C	-1.076057	0.553243	0.134159
C68	C	-0.576057	1.053243	0.634159
C69	C	-0.971542	0.553398	0.026741
C70	C	-0.471542	1.053398	0.526741
C71	C	-0.969538	0.446270	0.027327
C72	C	-0.469538	0.946270	0.527327
C73	C	-0.989069	0.302390	0.114593
C74	C	-0.489069	0.802390	0.614593
C75	C	-0.989128	0.697757	0.114579
C76	C	-0.489128	1.197757	0.614579
C77	C	-0.987621	0.000071	-0.469192
C78	C	-0.487621	0.500071	0.030808
C79	C	-0.896069	-0.000281	-0.421758
C80	C	-0.396069	0.499719	0.078242
C81	C	-0.897721	0.000066	-0.325068
C82	C	-0.397721	0.500066	0.174932
C83	C	-0.990564	0.000069	-0.301631
C84	C	-0.490564	0.500069	0.198369
C85	C	-1.035701	0.087831	-0.342705
C86	C	-0.535701	0.587831	0.157295
C87	C	-1.033401	0.087904	-0.439340
C88	C	-0.533401	0.587904	0.060660
C89	C	-1.035330	-0.086861	-0.439707
C90	C	-0.535330	0.413139	0.060293
C91	C	-1.035309	-0.088021	-0.342762
C92	C	-0.535309	0.411979	0.157238
C93	C	-0.992231	0.000071	-0.206934
C94	C	-0.492231	0.500071	0.293066
C95	C	-0.985956	0.000075	-0.563890
C96	C	-0.485956	0.500075	-0.063890
C97	C	-0.982980	0.000072	0.267671
C98	C	-0.482980	0.500072	0.767671
C99	C	-0.984631	0.000071	0.360621
C100	C	-0.484631	0.500071	0.860621
H101	H	-0.577852	0.062973	-0.012275
H102	H	-0.077852	0.562973	0.487725
H103	H	-1.102831	-0.087449	-0.471468
H104	H	-0.602831	0.412551	0.028532
H105	H	-0.545930	-0.090955	0.229421
H106	H	-0.045930	0.409045	0.729421
H107	H	-0.854945	0.579481	0.171953
H108	H	-0.354945	1.079481	0.671953
H109	H	-0.416874	-0.153359	0.125979
H110	H	0.083126	0.346641	0.625979
H111	H	-1.000459	0.153505	-0.457639
H112	H	-0.500459	0.653505	0.042361
H113	H	-0.560193	-0.153002	0.129845
H114	H	-0.060193	0.346998	0.629845
H115	H	-1.129029	0.420643	0.085068
H116	H	-0.629029	0.920643	0.585068
H117	H	-0.855314	0.420349	0.172016
H118	H	-0.355314	0.920349	0.672016
H119	H	-0.434210	0.063352	-0.015027
H120	H	0.065790	0.563352	0.484973
H121	H	-1.129018	0.579154	0.086196
H122	H	-0.629018	1.079154	0.586196
H123	H	-1.092297	0.419285	0.197002
H124	H	-0.592297	0.919285	0.697002
H125	H	-0.862239	-0.062846	-0.296649
H126	H	-0.362239	0.437154	0.203351
H127	H	-0.433166	-0.062168	-0.014865
H128	H	0.066834	0.437832	0.485135
H129	H	-0.909219	0.580461	0.008392
H130	H	-0.409219	1.080461	0.508392
H131	H	-0.414242	0.153524	0.130885
H132	H	0.085758	0.653524	0.630885
H133	H	-0.403031	0.087600	0.228313
H134	H	0.096969	0.587600	0.728313
H135	H	-0.931159	0.580608	0.247952
H136	H	-0.431159	1.080608	0.747952
H137	H	-0.402921	-0.091741	0.226128
H138	H	0.097079	0.408259	0.726128
H139	H	-1.004324	0.153137	-0.314320
H140	H	-0.504324	0.653137	0.185680
H141	H	-1.091540	0.578220	0.198219
H142	H	-0.591540	1.078220	0.698219
H143	H	-1.002307	-0.152945	-0.315516
H144	H	-0.502307	0.347055	0.184484
H145	H	-0.559040	0.153082	0.127830
H146	H	-0.059040	0.653082	0.627830
H147	H	-1.005412	-0.153379	-0.460250
H148	H	-0.505412	0.346621	0.039750
H149	H	-0.931473	0.420976	0.248569
H150	H	-0.431473	0.920976	0.748569
H151	H	-0.577308	-0.062951	-0.012521
H152	H	-0.077308	0.437049	0.487479
H153	H	-0.905272	0.420883	0.012845
H154	H	-0.405272	0.920883	0.512845
H155	H	-0.859626	0.062299	-0.441349
H156	H	-0.359626	0.562299	0.058651
H157	H	-0.861973	0.063079	-0.297200
H158	H	-0.361973	0.563079	0.202800
H159	H	-1.103014	-0.093317	-0.327400
H160	H	-0.603014	0.406683	0.172600
H161	H	-1.100617	0.091888	-0.471588
H162	H	-0.600617	0.591888	0.028412
H163	H	-1.021872	0.578728	-0.024275
H164	H	-0.521872	1.078728	0.475725
H165	H	-0.547101	0.093461	0.228494
H166	H	-0.047101	0.593461	0.728494
H167	H	-0.859490	-0.063217	-0.440293
H168	H	-0.359490	0.436783	0.059707
H169	H	-1.103909	0.091097	-0.328579
H170	H	-0.603909	0.591097	0.171421
H171	H	-1.016541	0.419500	-0.026079
H172	H	-0.516541	0.919500	0.473921
