data_functionalizedCrystal
_audit_creation_method	'MofGen! by Chris Wilmer'
_symmetry_space_group_name_H-M	'P1'
_symmetry_Int_Tables_number	1
_symmetry_cell_setting	triclinic
loop_
_symmetry_equiv_pos_as_xyz
  x,y,z
_cell_length_a	12.645331
_cell_length_b	29.839131
_cell_length_c	29.839126
_cell_angle_alpha	89.975848
_cell_angle_beta	89.979898
_cell_angle_gamma	90.040399
loop_
_atom_site_label
_atom_site_type_symbol
_atom_site_fract_x
_atom_site_fract_y
_atom_site_fract_z
Zn1	Zn	1.620529	-0.178900	-0.254011
Zn2	Zn	1.620346	-0.254020	-0.178881
Zn3	Zn	1.443252	-0.178904	-0.178893
Zn4	Zn	1.443152	-0.254002	-0.253982
O5	O	1.531820	-0.216457	-0.216441
O6	O	1.768852	-0.188871	-0.244052
O7	O	1.596819	-0.244065	-0.116015
O8	O	1.466887	-0.116036	-0.188875
O9	O	1.768717	-0.244062	-0.188854
O10	O	1.597132	-0.116033	-0.244063
O11	O	1.466709	-0.188878	-0.116024
O12	O	1.294892	-0.188860	-0.188846
O13	O	1.466717	-0.244031	-0.316853
O14	O	1.294818	-0.244034	-0.244014
O15	O	1.597035	-0.188853	-0.316874
O16	O	1.596722	-0.316885	-0.188826
O17	O	1.466539	-0.316872	-0.244002
C18	C	1.256390	-0.216446	-0.216428
C19	C	1.138560	-0.216452	-0.216434
C20	C	1.531628	-0.333179	-0.216419
C21	C	1.531644	-0.383114	-0.216425
C22	C	0.971007	-0.181582	-0.181919
C23	C	1.093567	-0.181673	-0.181767
C24	C	1.093995	-0.263776	-0.203495
C25	C	0.971397	-0.263585	-0.203260
C26	C	0.971417	-0.204449	-0.264019
C27	C	1.094024	-0.203392	-0.263755
C28	C	1.599729	-0.692751	-0.187753
C29	C	1.599860	-0.880424	-0.187771
O30	O	1.657598	-0.904684	-0.163376
N31	N	1.532040	-0.903899	-0.216475
C32	C	1.464186	-0.880452	-0.245180
O33	O	1.406511	-0.904725	-0.269599
C34	C	1.464062	-0.692780	-0.245164
C35	C	1.531879	-0.669308	-0.216455
C36	C	1.667542	-0.669279	-0.159046
C37	C	1.667505	-0.622364	-0.159040
C38	C	1.599655	-0.598920	-0.187742
C39	C	1.531842	-0.622392	-0.216449
C40	C	1.396215	-0.669334	-0.273871
C41	C	1.396191	-0.622413	-0.273865
C42	C	1.464009	-0.598941	-0.245155
C43	C	1.463954	-0.552033	-0.245144
N44	N	1.531775	-0.528559	-0.216440
C45	C	1.599625	-0.552003	-0.187738
C46	C	1.464255	-0.978983	-0.245185
C47	C	1.464285	-1.025900	-0.245189
C48	C	1.599960	-1.025870	-0.187780
C49	C	1.599925	-0.978951	-0.187775
C50	C	1.532076	-0.955508	-0.216481
C51	C	1.599540	-0.453477	-0.187728
C52	C	1.599494	-0.406557	-0.187723
C53	C	1.463823	-0.406592	-0.245134
C54	C	1.463865	-0.453508	-0.245137
C55	C	1.531732	-0.476949	-0.216432
O56	O	1.406255	-0.527745	-0.269530
O57	O	1.657308	-0.527722	-0.163330
C58	C	1.599767	-0.739667	-0.187759
C59	C	1.531954	-0.763139	-0.216466
C60	C	1.464104	-0.739695	-0.245167
C61	C	1.531984	-0.810057	-0.216470
C62	C	1.599834	-0.833500	-0.187768
C63	C	1.667655	-0.810026	-0.159063
C64	C	1.667617	-0.763110	-0.159058
C65	C	1.396283	-0.763170	-0.273872
C66	C	1.396325	-0.810085	-0.273875
C67	C	1.464176	-0.833529	-0.245174
C68	C	1.808325	-0.216468	-0.216455
C69	C	1.926155	-0.216472	-0.216460
C70	C	1.531886	-0.216439	-0.333620
C71	C	1.531914	-0.216432	-0.383554
C72	C	1.532041	-0.099278	-0.216474
C73	C	1.532135	-0.049344	-0.216487
C74	C	1.464186	-0.187651	-0.693205
C75	C	1.464216	-0.187620	-0.880878
O76	O	1.406579	-0.163194	-0.905150
N77	N	1.531964	-0.216348	-0.904340
C78	C	1.599704	-0.245088	-0.880880
O79	O	1.657320	-0.269525	-0.905141
C80	C	1.599667	-0.245121	-0.693207
C81	C	1.531923	-0.216388	-0.669749
C82	C	1.396447	-0.158920	-0.669747
C83	C	1.396444	-0.158927	-0.622831
C84	C	1.464181	-0.187664	-0.599374
C85	C	1.531920	-0.216394	-0.622833
C86	C	1.667401	-0.273863	-0.669748
C87	C	1.667384	-0.273870	-0.622827
C88	C	1.599640	-0.245136	-0.599368
C89	C	1.599654	-0.245137	-0.552461
N90	N	1.531907	-0.216409	-0.529000
C91	C	1.464170	-0.187672	-0.552457
C92	C	1.599719	-0.245068	-0.979410
C93	C	1.599730	-0.245059	-1.026328
C94	C	1.464241	-0.187591	-1.026324
C95	C	1.464237	-0.187598	-0.979405
C96	C	1.531972	-0.216340	-0.955949
C97	C	1.464170	-0.187688	-0.453931
C98	C	1.464177	-0.187695	-0.407011
C99	C	1.599661	-0.245164	-0.407019
C100	C	1.599659	-0.245155	-0.453935
C101	C	1.531905	-0.216415	-0.477389
O102	O	1.657253	-0.269554	-0.528161
O103	O	1.406546	-0.163245	-0.528187
C104	C	1.464189	-0.187645	-0.740121
C105	C	1.531929	-0.216375	-0.763580
C106	C	1.599665	-0.245112	-0.740123
C107	C	1.531939	-0.216366	-0.810497
C108	C	1.464202	-0.187629	-0.833954
C109	C	1.396455	-0.158901	-0.810493
C110	C	1.396452	-0.158908	-0.763578
C111	C	1.667413	-0.273840	-0.763584
C112	C	1.667411	-0.273831	-0.810499
C113	C	1.599674	-0.245094	-0.833956
C114	C	1.531816	-0.216441	-0.099719
C115	C	1.531993	-0.216322	-0.049785
H116	H	1.123701	-0.146580	-0.189877
N117	N	0.933444	-0.277087	-0.157204
H118	H	0.889631	-0.252097	-0.143949
H119	H	0.888970	-0.305111	-0.159593
H120	H	1.408576	-0.387497	-0.268501
H121	H	1.654814	-0.268560	-0.387913
N122	N	1.672796	-0.276048	-1.051629
H123	H	1.721967	-0.257792	-1.071106
H124	H	1.715629	-0.294248	-1.029619
H125	H	0.941723	-0.290461	-0.227321
H126	H	1.408646	-0.472619	-0.268516
N127	N	1.323373	-0.127917	-0.738285
H128	H	1.274202	-0.146172	-0.718808
H129	H	1.366556	-0.107104	-0.718856
H130	H	1.341276	-0.135531	-0.603735
N131	N	1.391175	-0.156606	-0.954105
H132	H	1.348273	-0.138400	-0.976088
H133	H	1.342070	-0.174891	-0.934628
N134	N	1.132577	-0.299123	-0.235785
H135	H	1.212378	-0.300312	-0.235057
H136	H	1.102890	-0.329252	-0.226818
H137	H	1.122840	-0.189619	-0.146524
N138	N	1.134584	-0.277520	-0.157936
H139	H	1.181829	-0.253164	-0.145612
H140	H	1.072861	-0.282344	-0.136989
H141	H	0.940553	-0.170543	-0.275785
N142	N	1.323385	-0.127910	-0.835797
H143	H	1.333670	-0.132271	-0.869078
H144	H	1.247664	-0.134907	-0.827584
H145	H	1.722586	-0.297228	-0.829596
N146	N	1.391176	-0.156598	-1.051628
H147	H	1.401467	-0.160956	-1.084909
H148	H	1.315453	-0.163594	-1.043417
N149	N	1.132601	-0.157260	-0.276680
H150	H	1.178737	-0.144870	-0.251989
H151	H	1.174866	-0.159249	-0.305335
N152	N	1.134584	-0.234598	-0.299673
H153	H	1.214329	-0.233025	-0.300782
H154	H	1.111856	-0.266277	-0.292603
N155	N	0.933003	-0.238109	-0.298112
H156	H	0.886509	-0.261037	-0.282851
H157	H	0.891149	-0.222152	-0.322113
H158	H	1.341282	-0.135519	-0.688840
H159	H	1.654878	-0.268475	-0.960317
N160	N	1.672645	-0.381241	-0.156758
H161	H	1.715636	-0.403215	-0.138579
H162	H	1.721664	-0.361744	-0.175063
N163	N	1.672739	-0.478756	-0.156769
H164	H	1.715685	-0.456761	-0.138585
H165	H	1.629632	-0.498252	-0.135963
N166	N	1.740667	-0.597051	-0.128081
H167	H	1.783655	-0.619028	-0.109905
H168	H	1.789687	-0.577558	-0.146391
N169	N	0.932014	-0.134957	-0.192538
H170	H	0.884894	-0.135997	-0.219842
H171	H	0.890678	-0.122964	-0.166181
N172	N	1.740440	-0.304872	-0.597530
H173	H	1.783350	-0.323070	-0.619514
H174	H	1.789539	-0.286593	-0.578075
N175	N	1.740466	-0.304856	-0.695042
H176	H	1.783362	-0.323061	-0.673057
H177	H	1.697273	-0.325642	-0.714496
H178	H	1.654834	-0.268547	-0.473036
H179	H	0.940155	-0.189441	-0.146884
H180	H	1.340942	-0.603328	-0.297243
H181	H	1.722800	-0.688362	-0.135674
N182	N	1.740770	-0.737797	-0.128095
H183	H	1.783755	-0.759774	-0.109917
H184	H	1.789793	-0.718303	-0.146400
N185	N	1.673073	-0.953636	-0.156811
H186	H	1.716056	-0.975611	-0.138631
H187	H	1.722099	-0.934142	-0.175116
H188	H	1.722569	-0.297243	-0.744490
H189	H	1.409051	-1.045007	-0.268563
N190	N	1.673141	-1.051159	-0.156821
H191	H	1.662862	-1.084442	-0.161183
H192	H	1.748837	-1.042926	-0.163845
N193	N	1.391066	-0.953701	-0.276146
H194	H	1.348109	-0.975695	-0.294327
H195	H	1.342017	-0.934265	-0.257838
N196	N	1.323062	-0.694642	-0.304835
H197	H	1.280085	-0.672665	-0.323014
H198	H	1.366195	-0.714080	-0.325646
N199	N	1.740828	-0.835316	-0.128102
H200	H	1.730551	-0.868599	-0.132465
H201	H	1.816527	-0.827082	-0.135122
N202	N	1.323164	-0.835399	-0.304839
H203	H	1.280180	-0.813424	-0.323019
H204	H	1.366302	-0.854834	-0.325650
N205	N	1.323093	-0.737886	-0.304827
H206	H	1.339512	-0.746028	-0.336934
H207	H	1.247399	-0.746103	-0.297778
N208	N	1.391109	-0.156698	-0.381714
H209	H	1.315353	-0.163671	-0.389868
H210	H	1.401469	-0.161071	-0.348440
N211	N	1.391094	-0.156691	-0.479224
H212	H	1.348187	-0.138493	-0.457238
H213	H	1.434284	-0.135898	-0.498701
