data_functionalizedCrystal
_audit_creation_method	'MofGen! by Chris Wilmer'
_symmetry_space_group_name_H-M	'P1'
_symmetry_Int_Tables_number	1
_symmetry_cell_setting	triclinic
loop_
_symmetry_equiv_pos_as_xyz
  x,y,z
_cell_length_a	18.215407
_cell_length_b	12.759400
_cell_length_c	18.215399
_cell_angle_alpha	89.974163
_cell_angle_beta	89.983176
_cell_angle_gamma	90.013614
loop_
_atom_site_label
_atom_site_type_symbol
_atom_site_fract_x
_atom_site_fract_y
_atom_site_fract_z
Zn1	Zn	1.125110	-0.418240	-0.416139
Zn2	Zn	1.125050	-0.593944	-0.293082
Zn3	Zn	1.002049	-0.418281	-0.293086
Zn4	Zn	1.002034	-0.593878	-0.416107
O5	O	1.063561	-0.506086	-0.354604
O6	O	1.228086	-0.441557	-0.399827
O7	O	1.108715	-0.570687	-0.190099
O8	O	1.018405	-0.271255	-0.309424
O9	O	1.228042	-0.570647	-0.309418
O10	O	1.108817	-0.271224	-0.399831
O11	O	1.018347	-0.441628	-0.190102
O12	O	0.899063	-0.441565	-0.309394
O13	O	1.018379	-0.570534	-0.519096
O14	O	0.899051	-0.570575	-0.399777
O15	O	1.108802	-0.441493	-0.519119
O16	O	1.108700	-0.740957	-0.309387
O17	O	1.018321	-0.740908	-0.399773
C18	C	0.872354	-0.506068	-0.354583
C19	C	0.790556	-0.506085	-0.354591
C20	C	0.602375	-0.573367	-0.401594
C21	C	0.525516	-0.573370	-0.401604
C22	C	0.525498	-0.438824	-0.307629
C23	C	0.602356	-0.438816	-0.307624
C24	C	0.640792	-0.506094	-0.354606
C25	C	0.487076	-0.506105	-0.354620
C26	C	0.403742	-0.506108	-0.354630
C27	C	0.724131	-0.506089	-0.354597
C28	C	1.063522	-0.779053	-0.354592
C29	C	1.063573	-0.895830	-0.354612
C30	C	1.110627	-0.950596	-0.401725
C31	C	1.110661	-1.060320	-0.401743
C32	C	1.016585	-1.060502	-0.307528
C33	C	1.016548	-0.950780	-0.307515
C34	C	1.157652	-0.895646	-0.448822
C35	C	1.204711	-0.950413	-0.495938
C36	C	1.204745	-1.060137	-0.495956
C37	C	1.157721	-1.115094	-0.448858
C38	C	1.255514	-0.506105	-0.354625
C39	C	1.337312	-0.506113	-0.354635
C40	C	1.063595	-0.506002	-0.546557
C41	C	1.063610	-0.505966	-0.628356
C42	C	1.063620	-0.232053	-0.354632
C43	C	1.063645	-0.115276	-0.354643
C44	C	1.016595	-0.438720	-0.816552
C45	C	1.016608	-0.438699	-0.893411
C46	C	1.110713	-0.573087	-0.893397
C47	C	1.110696	-0.573113	-0.816540
C48	C	1.063638	-0.505923	-0.778119
C49	C	1.063668	-0.505876	-0.931835
C50	C	1.063682	-0.505854	-1.015169
C51	C	1.063623	-0.505947	-0.694780
C52	C	1.063568	-0.506094	-0.163398
C53	C	1.063696	-0.505833	-0.081599
H54	H	0.494194	-0.384051	-0.269377
H55	H	1.243056	-1.104725	-0.534326
C56	C	0.923590	-1.049665	-0.214401
C57	C	0.964902	-1.120908	-0.255756
H58	H	0.891681	-1.086959	-0.182441
H59	H	0.955656	-1.006864	-0.186276
H60	H	0.895406	-1.006868	-0.246442
H61	H	0.993090	-1.163700	-0.223716
H62	H	0.932832	-1.163727	-0.283884
H63	H	0.633636	-0.384028	-0.269360
C64	C	0.594670	-0.706348	-0.494492
C65	C	0.644625	-0.647305	-0.453244
H66	H	0.620753	-0.751988	-0.526384
H67	H	0.564680	-0.746485	-0.462385
H68	H	0.564706	-0.660609	-0.522692
H69	H	0.674586	-0.693044	-0.425040
H70	H	0.674628	-0.607165	-0.485355
C71	C	0.439127	-0.588149	-0.500590
C72	C	0.483289	-0.647321	-0.453255
H73	H	0.413062	-0.633806	-0.532482
H74	H	0.405237	-0.548099	-0.472612
H75	H	0.469136	-0.542425	-0.528788
H76	H	0.453280	-0.693040	-0.425053
H77	H	0.517183	-0.687389	-0.481236
C78	C	1.176567	-1.272330	-0.378899
C79	C	1.157755	-1.235706	-0.448882
H80	H	1.176585	-1.346789	-0.378915
H81	H	1.224054	-1.247480	-0.366220
H82	H	1.141811	-1.247573	-0.344102
H83	H	1.192514	-1.260457	-0.483679
H84	H	1.110261	-1.260567	-0.461570
C85	C	1.006372	-0.297416	-0.730145
C86	C	0.964864	-0.364873	-0.774321
H87	H	0.974431	-0.251824	-0.704080
H88	H	1.034379	-0.337441	-0.696256
H89	H	1.038447	-0.257223	-0.760144
H90	H	0.932792	-0.405073	-0.744321
H91	H	0.936844	-0.324845	-0.808214
H92	H	1.149027	-0.627790	-0.924689
H93	H	1.157631	-0.806303	-0.448811
H94	H	0.978231	-0.906189	-0.269151
C95	C	0.923597	-0.305855	-0.885699
C96	C	0.964900	-0.364821	-0.935656
H97	H	0.891677	-0.260241	-0.911781
H98	H	0.895432	-0.351636	-0.855714
H99	H	0.955673	-0.265684	-0.855730
H100	H	0.932824	-0.404998	-0.965622
H101	H	0.993067	-0.319035	-0.965654
H102	H	1.242992	-0.905660	-0.534289
H103	H	1.149006	-0.627842	-0.785247
