data_functionalizedCrystal
_audit_creation_method	'MofGen! by Chris Wilmer'
_symmetry_space_group_name_H-M	'P1'
_symmetry_Int_Tables_number	1
_symmetry_cell_setting	triclinic
loop_
_symmetry_equiv_pos_as_xyz
  x,y,z
_cell_length_a	16.625546
_cell_length_b	12.759395
_cell_length_c	12.759387
_cell_angle_alpha	90.020509
_cell_angle_beta	89.964440
_cell_angle_gamma	89.975995
loop_
_atom_site_label
_atom_site_type_symbol
_atom_site_fract_x
_atom_site_fract_y
_atom_site_fract_z
Zn1	Zn	-0.320926	-1.606212	-0.593970
Zn2	Zn	-0.455781	-1.606079	-0.418276
Zn3	Zn	-0.320970	-1.430510	-0.418307
Zn4	Zn	-0.455724	-1.430479	-0.593915
O5	O	-0.388350	-1.518320	-0.506117
O6	O	-0.338820	-1.753215	-0.570674
O7	O	-0.437941	-1.582747	-0.271259
O8	O	-0.208132	-1.453886	-0.441645
O9	O	-0.437898	-1.753118	-0.441592
O10	O	-0.208099	-1.582974	-0.570704
O11	O	-0.338895	-1.453757	-0.271282
O12	O	-0.338840	-1.283485	-0.441592
O13	O	-0.437800	-1.453833	-0.740944
O14	O	-0.437843	-1.283462	-0.570610
O15	O	-0.338765	-1.582943	-0.740984
O16	O	-0.568606	-1.582716	-0.441539
O17	O	-0.568564	-1.453704	-0.570580
C18	C	-0.597841	-1.518220	-0.506073
C19	C	-0.687462	-1.518274	-0.506090
C20	C	-0.388341	-1.245352	-0.506099
C21	C	-0.388356	-1.128576	-0.506116
C22	C	-0.388271	-1.518399	-0.780151
C23	C	-0.388238	-1.518433	-0.896928
C24	C	-1.015638	-1.518457	-0.506199
C25	C	-0.924329	-1.518403	-0.506171
C26	C	-0.851553	-1.518365	-0.506144
C27	C	-0.760239	-1.518312	-0.506117
C28	C	-0.178041	-1.518448	-0.506184
C29	C	-0.088420	-1.518503	-0.506213
C30	C	-0.388361	-1.792353	-0.506136
C31	C	-0.388365	-1.909130	-0.506144
C32	C	-0.491615	-1.128590	-0.640246
C33	C	-0.543250	-1.073737	-0.707314
C34	C	-0.543260	-0.964015	-0.707327
C35	C	-0.491627	-0.909144	-0.640267
C36	C	-0.439991	-0.963998	-0.573199
C37	C	-0.439989	-1.073722	-0.573191
C38	C	-0.336730	-0.963984	-0.439076
C39	C	-0.336723	-1.073705	-0.439056
C40	C	-0.285096	-0.909113	-0.372016
C41	C	-0.233463	-0.963967	-0.304942
C42	C	-0.233456	-1.073695	-0.304931
C43	C	-0.285087	-1.128559	-0.371989
C44	C	-0.285119	-1.652885	-0.896990
C45	C	-0.233547	-1.720126	-0.951881
C46	C	-0.233518	-1.720151	-1.061603
C47	C	-0.285064	-1.652927	-1.116435
C48	C	-0.336635	-1.585686	-1.061544
C49	C	-0.336661	-1.585670	-0.951819
C50	C	-0.439749	-1.451230	-1.061482
C51	C	-0.439784	-1.451209	-0.951760
C52	C	-0.491295	-1.384006	-1.116314
C53	C	-0.542872	-1.316769	-1.061422
C54	C	-0.542900	-1.316747	-0.951694
C55	C	-0.491355	-1.383968	-0.896868
C56	C	-0.388371	-1.518301	-0.233150
C57	C	-0.388177	-1.518471	-0.116374
H58	H	-0.491618	-1.217931	-0.640234
H59	H	-0.491632	-0.819803	-0.640292
O60	O	-0.285154	-1.652887	-0.778647
H61	H	-0.345981	-1.674083	-0.749711
H62	H	-0.285105	-0.819772	-0.372036
H63	H	-0.191519	-1.774898	-1.106296
H64	H	-0.584832	-1.262035	-1.106076
O65	O	-0.285021	-1.652944	-1.234778
H66	H	-0.329521	-1.594901	-1.263685
H67	H	-0.285088	-1.217900	-0.371983
H68	H	-0.191578	-1.774857	-0.907225
O69	O	-0.491268	-1.384026	-1.234657
H70	H	-0.446754	-1.442082	-1.263618
O71	O	-0.598938	-1.132909	-0.779649
H72	H	-0.585178	-1.111887	-0.862136
H73	H	-0.585302	-0.919353	-0.761944
O74	O	-0.598508	-1.244202	-0.892489
H75	H	-0.634339	-1.197463	-0.949054
H76	H	-0.491376	-1.383961	-0.807527
O77	O	-0.177797	-0.904774	-0.232606
H78	H	-0.136826	-0.854813	-0.279727
O79	O	-0.177772	-1.132859	-0.232581
H80	H	-0.141880	-1.076267	-0.185950
