data_functionalizedCrystal
_audit_creation_method	'MofGen! by Chris Wilmer'
_symmetry_space_group_name_H-M	'P1'
_symmetry_Int_Tables_number	1
_symmetry_cell_setting	triclinic
loop_
_symmetry_equiv_pos_as_xyz
  x,y,z
_cell_length_a	11.169417
_cell_length_b	12.827892
_cell_length_c	11.169409
_cell_angle_alpha	89.966724
_cell_angle_beta	89.980176
_cell_angle_gamma	90.016270
loop_
_atom_site_label
_atom_site_type_symbol
_atom_site_fract_x
_atom_site_fract_y
_atom_site_fract_z
Zn1	Zn	1.834920	-0.415924	-0.678535
Zn2	Zn	2.168254	-0.082591	-0.345202
Zn3	Zn	2.501587	0.250743	-0.011868
Zn4	Zn	1.834792	-0.590711	-0.477849
Zn5	Zn	2.168125	-0.257378	-0.144515
Zn6	Zn	2.501459	0.075955	0.188818
Zn7	Zn	1.634206	-0.415988	-0.477869
Zn8	Zn	1.967539	-0.082654	-0.144536
Zn9	Zn	2.300873	0.250679	0.188797
Zn10	Zn	1.634196	-0.590626	-0.678493
Zn11	Zn	1.967529	-0.257293	-0.345160
Zn12	Zn	2.300863	0.076040	-0.011827
O13	O	1.734528	-0.503312	-0.578187
O14	O	2.067862	-0.169979	-0.244853
O15	O	2.401195	0.163354	0.088480
O16	O	2.002853	-0.439119	-0.651922
O17	O	2.336186	-0.105785	-0.318589
O18	O	2.669520	0.227548	0.014745
O19	O	1.808134	-0.567596	-0.309901
O20	O	2.141468	-0.234263	0.023432
O21	O	2.474801	0.099071	0.356765
O22	O	1.660889	-0.269743	-0.504514
O23	O	1.994223	0.063590	-0.171181
O24	O	2.327556	0.396924	0.162153
O25	O	2.002759	-0.567534	-0.504479
O26	O	2.336092	-0.234201	-0.171145
O27	O	2.669425	0.099132	0.162188
O28	O	1.808353	-0.269696	-0.651942
O29	O	2.141686	0.063637	-0.318609
O30	O	2.475020	0.396970	0.014724
O31	O	1.660765	-0.439227	-0.309917
O32	O	1.994098	-0.105894	0.023417
O33	O	2.327431	0.227439	0.356750
O34	O	1.466255	-0.439145	-0.504474
O35	O	1.799588	-0.105812	-0.171140
O36	O	2.132922	0.227522	0.162193
O37	O	1.660872	-0.567389	-0.846449
O38	O	1.994205	-0.234056	-0.513115
O39	O	2.327538	0.099277	-0.179782
O40	O	1.466248	-0.567451	-0.651871
O41	O	1.799581	-0.234118	-0.318538
O42	O	2.132914	0.099215	0.014795
O43	O	1.808343	-0.439036	-0.846479
O44	O	2.141676	-0.105703	-0.513146
O45	O	2.475010	0.227630	-0.179813
O46	O	1.808124	-0.736936	-0.504438
O47	O	2.141458	-0.403603	-0.171105
O48	O	2.474791	-0.070269	0.162228
O49	O	1.660747	-0.736874	-0.651851
O50	O	1.994081	-0.403540	-0.318518
O51	O	2.327414	-0.070207	0.014815
C52	C	1.422704	-0.503296	-0.578171
C53	C	1.756037	-0.169963	-0.244838
C54	C	2.089370	0.163370	0.088496
C55	C	1.289304	-0.503315	-0.578193
C56	C	1.622637	-0.169982	-0.244860
C57	C	1.955970	0.163352	0.088474
C58	C	1.734453	-0.774822	-0.578164
C59	C	2.067787	-0.441489	-0.244831
C60	C	2.401120	-0.108156	0.088502
C61	C	1.734531	-0.890975	-0.578195
C62	C	2.067864	-0.557642	-0.244862
C63	C	2.401198	-0.224309	0.088472
C64	C	1.807468	-0.942654	-0.651213
C65	C	2.140802	-0.609320	-0.317879
C66	C	2.474135	-0.275987	0.015454
C67	C	1.807550	-1.062704	-0.651246
C68	C	2.140884	-0.729370	-0.317913
C69	C	2.474217	-0.396037	0.015421
C70	C	2.047571	-0.503329	-0.578203
C71	C	2.380904	-0.169996	-0.244869
C72	C	2.714237	0.163338	0.088464
C73	C	2.180971	-0.503336	-0.578210
C74	C	2.514304	-0.170003	-0.244876
C75	C	2.847637	0.163331	0.088457
C76	C	1.734621	-0.503196	-0.891229
C77	C	2.067954	-0.169863	-0.557896
C78	C	2.401287	0.163470	-0.224562
C79	C	1.734660	-0.503147	-1.024629
C80	C	2.067993	-0.169813	-0.691296
C81	C	2.401327	0.163520	-0.357963
C82	C	1.734637	-0.230742	-0.578235
C83	C	2.067970	0.102591	-0.244902
C84	C	2.401303	0.435925	0.088432
C85	C	1.734683	-0.114589	-0.578256
C86	C	2.068016	0.218744	-0.244922
C87	C	2.401349	0.552078	0.088411
C88	C	1.734506	-0.503352	-0.266362
C89	C	2.067839	-0.170019	0.066972
C90	C	2.401172	0.163314	0.400305
C91	C	1.734699	-0.503108	-0.132962
C92	C	2.068032	-0.169774	0.200371
C93	C	2.401366	0.163559	0.533704
H94	H	1.869848	-0.898023	-0.713707
H95	H	2.203182	-0.564690	-0.380373
H96	H	2.536515	-0.231356	-0.047040
H97	H	1.672239	-1.070154	-0.515734
H98	H	2.005572	-0.736821	-0.182401
H99	H	2.338906	-0.403488	0.150932
O100	O	1.890265	-1.121559	-0.734068
O101	O	2.223598	-0.788226	-0.400735
O102	O	2.556931	-0.454892	-0.067401
H103	H	1.877339	-1.206615	-0.721107
H104	H	2.210673	-0.873281	-0.387774
H105	H	2.544006	-0.539948	-0.054440
O106	O	1.651905	-0.950090	-0.495407
O107	O	1.985238	-0.616757	-0.162073
O108	O	2.318572	-0.283423	0.171260
H109	H	1.590906	-0.999836	-0.549130
H110	H	1.924239	-0.666503	-0.215796
H111	H	2.257573	-0.333170	0.117537
