data_functionalizedCrystal
_audit_creation_method	'MofGen! by Chris Wilmer'
_symmetry_space_group_name_H-M	'P1'
_symmetry_Int_Tables_number	1
_symmetry_cell_setting	triclinic
loop_
_symmetry_equiv_pos_as_xyz
  x,y,z
_cell_length_a	14.044220
_cell_length_b	11.792254
_cell_length_c	10.268362
_cell_angle_alpha	89.994545
_cell_angle_beta	90.000433
_cell_angle_gamma	88.693738
loop_
_atom_site_label
_atom_site_type_symbol
_atom_site_fract_x
_atom_site_fract_y
_atom_site_fract_z
O1	O	1.259124	0.273770	-0.108163
O2	O	1.592457	0.607103	0.225170
O3	O	1.925791	0.940437	0.558504
O4	O	0.983104	0.263891	-0.108196
O5	O	1.316437	0.597224	0.225137
O6	O	1.649770	0.930558	0.558471
O7	O	1.127806	0.104289	-0.108169
O8	O	1.461139	0.437623	0.225164
O9	O	1.794473	0.770956	0.558497
O10	O	1.114422	0.433372	-0.108189
O11	O	1.447755	0.766705	0.225144
O12	O	1.781089	1.100039	0.558477
O13	O	1.127793	0.104281	0.108431
O14	O	1.461127	0.437614	0.441765
O15	O	1.794460	0.770948	0.775098
O16	O	0.983091	0.263883	0.108405
O17	O	1.316424	0.597216	0.441738
O18	O	1.649758	0.930549	0.775071
O19	O	1.259111	0.273762	0.108438
O20	O	1.592445	0.607095	0.441771
O21	O	1.925778	0.940428	0.775104
Cu22	Cu	1.121100	0.268821	0.128199
Cu23	Cu	1.454433	0.602155	0.461532
Cu24	Cu	1.787767	0.935488	0.794865
Cu25	Cu	1.121115	0.268831	-0.127957
Cu26	Cu	1.454448	0.602165	0.205377
Cu27	Cu	1.787782	0.935498	0.538710
O28	O	1.114409	0.433364	0.108411
O29	O	1.447743	0.766697	0.441744
O30	O	1.781076	1.100030	0.775078
C31	C	0.947761	0.259563	0.000100
C32	C	1.281094	0.592896	0.333434
C33	C	1.614427	0.926229	0.666767
C34	C	0.842468	0.246664	0.000088
C35	C	1.175801	0.579997	0.333421
C36	C	1.509135	0.913330	0.666755
C37	C	1.126956	0.061915	0.000130
C38	C	1.460290	0.395249	0.333464
C39	C	1.793623	0.728582	0.666797
C40	C	1.124433	-0.064335	0.000129
C41	C	1.457766	0.268999	0.333462
C42	C	1.791100	0.602332	0.666796
C43	C	1.122383	-0.166864	0.000124
C44	C	1.455716	0.166470	0.333457
C45	C	1.789049	0.499803	0.666791
C46	C	1.119819	-0.295491	0.000112
C47	C	1.453152	0.037842	0.333445
C48	C	1.786485	0.371176	0.666778
C49	C	0.649685	0.223082	0.000115
C50	C	0.983018	0.556415	0.333449
C51	C	1.316351	0.889748	0.666782
C52	C	0.592525	0.314566	0.000115
C53	C	0.925858	0.647900	0.333448
C54	C	1.259192	0.981233	0.666782
C55	C	0.485254	0.301445	0.000130
C56	C	0.818587	0.634778	0.333464
C57	C	1.151920	0.968112	0.666797
C58	C	0.756966	0.236201	0.000100
C59	C	1.090299	0.569535	0.333433
C60	C	1.423633	0.902868	0.666767
C61	C	1.294455	0.278090	0.000139
C62	C	1.627788	0.611424	0.333472
C63	C	1.961121	0.944757	0.666805
C64	C	1.399747	0.290989	0.000142
C65	C	1.733080	0.624323	0.333476
C66	C	2.066414	0.957656	0.666809
C67	C	1.115259	0.475738	0.000108
C68	C	1.448592	0.809071	0.333442
C69	C	1.781925	1.142404	0.666775
C70	C	1.117782	0.601988	0.000101
C71	C	1.451116	0.935321	0.333435
C72	C	1.784449	1.268654	0.666768
N73	N	1.121096	0.268814	0.308364
N74	N	1.454430	0.602148	0.641698
N75	N	1.787763	0.935481	0.975031
N76	N	1.121126	0.268830	-0.308123
N77	N	1.454459	0.602164	0.025211
N78	N	1.787793	0.935497	0.358544
C79	C	1.121110	0.268829	0.574035
C80	C	1.454444	0.602162	0.907368
C81	C	1.787777	0.935495	1.240702
C82	C	1.121099	0.268824	0.426197
C83	C	1.454433	0.602157	0.759530
C84	C	1.787766	0.935490	1.092864
H85	H	0.624152	0.402743	0.000103
H86	H	0.957486	0.736077	0.333437
H87	H	1.290819	1.069410	0.666770
C88	C	0.606965	0.103970	0.000114
C89	C	0.940298	0.437303	0.333448
C90	C	1.273631	0.770637	0.666781
H91	H	0.539425	0.110668	0.000109
H92	H	0.872758	0.444001	0.333443
H93	H	1.206091	0.777334	0.666776
H94	H	0.627551	0.063868	0.075641
H95	H	0.960885	0.397202	0.408974
H96	H	1.294218	0.730535	0.742308
H97	H	0.627544	0.063897	-0.075435
H98	H	0.960877	0.397230	0.257898
H99	H	1.294211	0.730564	0.591231
