data_functionalizedCrystal
_audit_creation_method	'MofGen! by Chris Wilmer'
_symmetry_space_group_name_H-M	'P1'
_symmetry_Int_Tables_number	1
_symmetry_cell_setting	triclinic
loop_
_symmetry_equiv_pos_as_xyz
  x,y,z
_cell_length_a	18.050590
_cell_length_b	18.050589
_cell_length_c	18.101389
_cell_angle_alpha	90.014016
_cell_angle_beta	90.003324
_cell_angle_gamma	90.017386
loop_
_atom_site_label
_atom_site_type_symbol
_atom_site_fract_x
_atom_site_fract_y
_atom_site_fract_z
Zn1	Zn	1.135322	-0.295952	0.418446
Zn2	Zn	1.135224	-0.420126	0.294614
Zn3	Zn	1.011133	-0.295931	0.294653
Zn4	Zn	1.011090	-0.420081	0.418448
O5	O	1.073192	-0.358023	0.356540
O6	O	1.239234	-0.312452	0.402003
O7	O	1.118740	-0.403662	0.190987
O8	O	1.027666	-0.192009	0.311090
O9	O	1.239162	-0.403682	0.311024
O10	O	1.118907	-0.192025	0.402040
O11	O	1.027571	-0.312416	0.191015
O12	O	0.907202	-0.312372	0.311092
O13	O	1.027592	-0.403605	0.522081
O14	O	0.907171	-0.403585	0.402044
O15	O	1.118866	-0.312408	0.522080
O16	O	1.118698	-0.524045	0.311026
O17	O	1.027497	-0.524012	0.402006
C18	C	0.880240	-0.357972	0.356572
C19	C	0.797694	-0.357968	0.356604
C20	C	0.598248	-0.407712	0.405946
C21	C	0.548856	-0.339998	0.424165
C22	C	0.646564	-0.358010	0.356567
C23	C	0.548874	-0.425762	0.338348
C24	C	0.500579	-0.358056	0.356534
C25	C	0.598259	-0.290260	0.374821
C26	C	0.598282	-0.376070	0.288973
C27	C	0.548912	-0.308309	0.307167
C28	C	0.730662	-0.357984	0.356589
C29	C	0.416482	-0.358074	0.356513
C30	C	1.073103	-0.550975	0.356528
C31	C	1.073132	-0.633521	0.356548
C32	C	1.023586	-0.832980	0.406005
C33	C	1.005483	-0.882406	0.338433
C34	C	1.073205	-0.784651	0.356557
C35	C	1.091344	-0.882307	0.424137
C36	C	1.073274	-0.930636	0.356573
C37	C	1.055067	-0.832989	0.288949
C38	C	1.140960	-0.832886	0.374699
C39	C	1.122883	-0.882290	0.307080
C40	C	1.073163	-0.700553	0.356550
C41	C	1.073316	-1.014733	0.356573
C42	C	1.266898	-0.358074	0.356509
C43	C	1.349444	-0.358096	0.356495
C44	C	1.073235	-0.358004	0.549702
C45	C	1.073253	-0.357996	0.632017
C46	C	1.073302	-0.164317	0.356569
C47	C	1.073349	-0.081771	0.356581
C48	C	1.073192	-0.357988	0.164130
C49	C	1.073318	-0.357787	0.081816
C50	C	1.073297	-0.357857	0.931108
C51	C	1.015672	-0.415053	0.899783
C52	C	1.015828	-0.415318	0.814165
C53	C	1.073275	-0.357926	0.782725
C54	C	1.151521	-0.379184	0.813804
C55	C	1.151200	-0.379560	0.899449
C56	C	1.053355	-0.279275	0.899533
C57	C	1.051614	-0.279729	0.813883
C58	C	1.073267	-0.357964	0.698866
C59	C	1.073310	-0.357821	1.014967
H60	H	0.948218	-0.904174	0.323103
H61	H	1.028707	-0.472945	0.921309
H62	H	1.095326	-0.236661	0.919791
H63	H	1.195608	-0.338835	0.793439
N64	N	1.034688	-0.804419	0.213233
H65	H	1.025509	-0.847609	0.178947
H66	H	1.076590	-0.773193	0.193286
N67	N	0.520393	-0.252596	0.251840
H68	H	0.464442	-0.253219	0.251822
H69	H	0.539222	-0.265792	0.200973
H70	H	0.619913	-0.449669	0.447750
H71	H	0.620008	-0.391351	0.231841
N72	N	0.520139	-0.501630	0.317946
H73	H	0.538088	-0.539113	0.355293
H74	H	0.538900	-0.515571	0.267252
N75	N	1.178509	-0.910791	0.251642
H76	H	1.164739	-0.892754	0.200645
H77	H	1.178517	-0.966739	0.252315
N78	N	0.520091	-0.319786	0.499861
H79	H	0.464142	-0.319482	0.499161
H80	H	0.538879	-0.269005	0.513954
H81	H	0.994032	-0.263697	0.793571
N82	N	1.210007	-0.326789	0.926904
H83	H	1.236025	-0.303388	0.883369
H84	H	1.247156	-0.354850	0.957836
H85	H	0.619861	-0.232965	0.390282
H86	H	0.981563	-0.811328	0.447763
N87	N	1.173585	-0.455648	0.925930
H88	H	1.224876	-0.467664	0.907132
H89	H	1.137232	-0.493561	0.906673
H90	H	1.168718	-0.436019	0.792360
H91	H	1.198212	-0.811120	0.390062
H92	H	1.106659	-0.903970	0.481283
H93	H	0.997290	-0.259910	0.921138
H94	H	0.957806	-0.402014	0.793153
N95	N	0.938576	-0.397603	0.927056
H96	H	0.940252	-0.352455	0.959985
H97	H	0.918767	-0.441191	0.955925
N98	N	1.033263	-0.492472	0.787024
H99	H	1.040885	-0.526440	0.830697
H100	H	1.079834	-0.491208	0.756128
N101	N	1.103149	-0.220277	0.785540
H102	H	1.141441	-0.243294	0.751952
H103	H	1.128720	-0.195564	0.828627
