data_functionalizedCrystal
_audit_creation_method	'MofGen! by Chris Wilmer'
_symmetry_space_group_name_H-M	'P1'
_symmetry_Int_Tables_number	1
_symmetry_cell_setting	triclinic
loop_
_symmetry_equiv_pos_as_xyz
  x,y,z
_cell_length_a	25.639239
_cell_length_b	16.120490
_cell_length_c	16.120297
_cell_angle_alpha	90.129683
_cell_angle_beta	92.868703
_cell_angle_gamma	87.130891
loop_
_atom_site_label
_atom_site_type_symbol
_atom_site_fract_x
_atom_site_fract_y
_atom_site_fract_z
Zn1	Zn	-0.264925	1.247336	-0.534506
Zn2	Zn	0.235075	1.747336	-0.034506
Zn3	Zn	-0.348157	1.254252	-0.395439
Zn4	Zn	0.151843	1.754252	0.104561
Zn5	Zn	-0.256086	1.115330	-0.388428
Zn6	Zn	0.243914	1.615330	0.111572
Zn7	Zn	-0.347671	1.108208	-0.527412
Zn8	Zn	0.152329	1.608208	-0.027412
O9	O	-0.304210	1.181282	-0.461446
O10	O	0.195790	1.681282	0.038554
O11	O	-0.279869	1.364619	-0.521961
O12	O	0.220131	1.864619	-0.021961
O13	O	-0.332448	1.241699	-0.278144
O14	O	0.167552	1.741699	0.221856
O15	O	-0.184097	1.132927	-0.407840
O16	O	0.315903	1.632927	0.092160
O17	O	-0.341019	1.369700	-0.419789
O18	O	0.158981	1.869700	0.080211
O19	O	-0.190591	1.229911	-0.515163
O20	O	0.309409	1.729911	-0.015163
O21	O	-0.264804	1.139633	-0.272993
O22	O	0.235196	1.639633	0.227007
O23	O	-0.264332	0.998020	-0.400961
O24	O	0.235668	1.498020	0.099039
O25	O	-0.340190	1.120789	-0.644718
O26	O	0.159810	1.620789	-0.144718
O27	O	-0.331619	0.992788	-0.503072
O28	O	0.168381	1.492788	-0.003072
O29	O	-0.279397	1.223006	-0.649930
O30	O	0.220603	1.723006	-0.149930
O31	O	-0.421254	1.234793	-0.412911
O32	O	0.078746	1.734793	0.087089
O33	O	-0.420897	1.127495	-0.509871
O34	O	0.079103	1.627495	-0.009871
C35	C	-0.296964	0.965232	-0.450487
C36	C	0.203036	1.465232	0.049513
C37	C	-0.293877	0.872803	-0.445818
C38	C	0.206123	1.372803	0.054182
C39	C	-0.320217	0.659830	-0.485665
C40	C	0.179783	1.159830	0.014335
C41	C	-0.288246	0.703581	-0.437293
C42	C	0.211754	1.203581	0.062707
C43	C	-0.291380	0.797745	-0.442038
C44	C	0.208620	1.297745	0.057962
C45	C	-0.317084	0.565658	-0.480921
C46	C	0.182916	1.065658	0.019079
C47	C	-0.440046	1.181144	-0.461401
C48	C	0.059954	1.681144	0.038599
C49	C	-0.498161	1.181159	-0.461413
C50	C	0.001839	1.681159	0.038587
C51	C	-0.858710	1.237286	-0.411057
C52	C	-0.358710	1.737286	0.088943
C53	C	-0.913316	1.237318	-0.411069
C54	C	-0.413316	1.737318	0.088931
O55	O	-0.941705	1.284895	-0.368205
O56	O	-0.441705	1.784895	0.131795
N57	N	-0.940455	1.181425	-0.461509
N58	N	-0.440455	1.681425	0.038491
C59	C	-0.912986	1.125503	-0.511945
C60	C	-0.412986	1.625503	-0.011945
O61	O	-0.941085	1.077965	-0.554849
O62	O	-0.441085	1.577965	-0.054849
C63	C	-0.858382	1.125476	-0.511936
C64	C	-0.358382	1.625476	-0.011936
C65	C	-0.831245	1.181366	-0.461487
C66	C	-0.331245	1.681366	0.038513
C67	C	-0.831573	1.293173	-0.360613
C68	C	-0.331573	1.793173	0.139387
C69	C	-0.776971	1.293140	-0.360599
C70	C	-0.276971	1.793140	0.139401
C71	C	-0.749506	1.237220	-0.411029
C72	C	-0.249506	1.737220	0.088971
C73	C	-0.776643	1.181333	-0.461473
C74	C	-0.276643	1.681333	0.038527
C75	C	-0.830914	1.069558	-0.562375
C76	C	-0.330914	1.569558	-0.062375
C77	C	-0.776306	1.069536	-0.562363
C78	C	-0.276306	1.569536	-0.062363
C79	C	-0.749169	1.125427	-0.511914
C80	C	-0.249169	1.625427	-0.011914
C81	C	-0.694576	1.125381	-0.511890
C82	C	-0.194576	1.625381	-0.011890
N83	N	-0.667437	1.181274	-0.461451
N84	N	-0.167437	1.681274	0.038549
C85	C	-0.694902	1.237193	-0.411020
C86	C	-0.194902	1.737193	0.088980
C87	C	-1.027660	1.125565	-0.511960
C88	C	-0.527660	1.625565	-0.011960
C89	C	-1.082263	1.125587	-0.511966
C90	C	-0.582263	1.625587	-0.011966
C91	C	-1.082589	1.237403	-0.411091
C92	C	-0.582589	1.737403	0.088909
C93	C	-1.027984	1.237376	-0.411083
C94	C	-0.527984	1.737376	0.088917
C95	C	-1.000520	1.181457	-0.461521
C96	C	-0.500520	1.681457	0.038479
C97	C	-0.580234	1.237119	-0.410995
C98	C	-0.080234	1.737119	0.089005
C99	C	-0.525627	1.237079	-0.410983
C100	C	-0.025627	1.737079	0.089017
C101	C	-0.525306	1.125266	-0.511860
C102	C	-0.025306	1.625266	-0.011860
C103	C	-0.579908	1.125303	-0.511869
C104	C	-0.079908	1.625303	-0.011869
C105	C	-0.607370	1.181237	-0.461434
C106	C	-0.107370	1.681237	0.038566
O107	O	-0.666153	1.077830	-0.554734
O108	O	-0.166153	1.577830	-0.054734
O109	O	-0.666797	1.284730	-0.368132
O110	O	-0.166797	1.784730	0.131868
C111	C	-0.167844	1.181442	-0.461511
C112	C	0.332156	1.681442	0.038489
C113	C	-0.109733	1.181510	-0.461538
C114	C	0.390267	1.681510	0.038462
C115	C	-0.310725	1.170332	-0.678340
C116	C	0.189275	1.670332	-0.178340
C117	C	-0.313502	1.165666	-0.770767
C118	C	0.186498	1.665666	-0.270767
C119	C	-0.311484	1.398176	-0.472449
C120	C	0.188516	1.898176	0.027551
C121	C	-0.314584	1.490603	-0.477137
C122	C	0.185416	1.990603	0.022863
C123	C	-0.318559	1.157116	-0.939991
C124	C	0.181441	1.657116	-0.439991
C125	C	-0.289709	1.205612	-0.983761
C126	C	0.210291	1.705612	-0.483761
C127	C	-0.292523	1.200854	-1.077923
C128	C	0.207477	1.700854	-0.577923
C129	C	-0.315746	1.161872	-0.845820
C130	C	0.184254	1.661872	-0.345820
C131	C	-0.297683	1.192237	-0.245399
C132	C	0.202317	1.692237	0.254601
C133	C	-0.294765	1.197064	-0.152980
C134	C	0.205235	1.697064	0.347020
H135	H	-0.258522	0.670317	-0.392317
H136	H	0.241478	1.170317	0.107683
F137	F	-0.359070	0.703306	-0.544441
F138	F	0.140930	1.203306	-0.044441
H139	H	-0.602587	1.282667	-0.369928
H140	H	-0.102587	1.782667	0.130072
F141	F	-0.353603	1.098184	-0.983443
F142	F	0.146397	1.598184	-0.483443
F143	F	-0.254673	1.264564	-0.940310
F144	F	0.245327	1.764564	-0.440310
H145	H	-1.104352	1.080068	-0.553038
H146	H	-0.604352	1.580068	-0.053038
H147	H	-0.754880	1.338653	-0.319522
H148	H	-0.254880	1.838653	0.180478
F149	F	-0.496748	1.296568	-0.357286
F150	F	0.003252	1.796568	0.142714
H151	H	-0.853000	1.024042	-0.603452
H152	H	-0.353000	1.524042	-0.103452
F153	F	-0.860796	1.352696	-0.306935
F154	F	-0.360796	1.852696	0.193065
F155	F	-0.747080	1.010020	-0.616050
F156	F	-0.247080	1.510020	-0.116050
F157	F	-0.999108	1.296862	-0.357389
F158	F	-0.499108	1.796862	0.142611
F159	F	-0.998435	1.066039	-0.565642
F160	F	-0.498435	1.566039	-0.065642
F161	F	-1.111828	1.296917	-0.357417
F162	F	-0.611828	1.796917	0.142583
F163	F	-0.608789	1.065804	-0.565546
F164	F	-0.108789	1.565804	-0.065546
H165	H	-0.502935	1.079735	-0.552917
H166	H	-0.002935	1.579735	-0.052917
