data_functionalizedCrystal
_audit_creation_method	'MofGen! by Chris Wilmer'
_symmetry_space_group_name_H-M	'P1'
_symmetry_Int_Tables_number	1
_symmetry_cell_setting	triclinic
loop_
_symmetry_equiv_pos_as_xyz
  x,y,z
_cell_length_a	11.026607
_cell_length_b	11.026607
_cell_length_c	8.140239
_cell_angle_alpha	89.998310
_cell_angle_beta	89.997756
_cell_angle_gamma	108.586017
loop_
_atom_site_label
_atom_site_type_symbol
_atom_site_fract_x
_atom_site_fract_y
_atom_site_fract_z
O1	O	1.726730	0.533621	-0.136609
O2	O	1.360150	0.472857	-0.136612
O3	O	1.513058	0.319949	-0.136605
O4	O	1.573822	0.686529	-0.136616
O5	O	1.513047	0.319945	0.136622
O6	O	1.360139	0.472853	0.136615
O7	O	1.726719	0.533616	0.136618
Zn8	Zn	1.543427	0.503234	0.179997
Zn9	Zn	1.543442	0.503240	-0.179991
O10	O	1.573810	0.686525	0.136611
C11	C	1.312485	0.461645	0.000001
C12	C	1.170471	0.428228	0.000000
C13	C	1.116821	0.520498	-0.000004
C14	C	0.970043	0.485962	-0.000005
C15	C	1.501843	0.272287	0.000007
C16	C	1.468426	0.130273	0.000000
C17	C	1.560695	0.076624	-0.000001
C18	C	1.526160	-0.070155	-0.000008
C19	C	1.774384	0.544828	0.000001
C20	C	1.916398	0.578245	-0.000009
C21	C	1.585026	0.734187	-0.000005
C22	C	1.618443	0.876200	-0.000009
N23	N	1.543426	0.503231	0.425680
N24	N	1.543451	0.503235	-0.425674
H25	H	1.179555	0.625061	0.000002
H26	H	1.723013	-0.061072	-0.000132
H27	H	0.907314	0.381393	-0.000044
H28	H	1.363863	0.067540	-0.000011
H29	H	1.107738	0.323666	-0.000039
H30	H	0.979125	0.682816	-0.000001
H31	H	1.421590	-0.132884	-0.000019
H32	H	1.665258	0.139357	0.000010
