data_functionalizedCrystal
_audit_creation_method	'MofGen! by Chris Wilmer'
_symmetry_space_group_name_H-M	'P1'
_symmetry_Int_Tables_number	1
_symmetry_cell_setting	triclinic
loop_
_symmetry_equiv_pos_as_xyz
  x,y,z
_cell_length_a	25.639242
_cell_length_b	14.908520
_cell_length_c	14.908294
_cell_angle_alpha	83.639163
_cell_angle_beta	93.269878
_cell_angle_gamma	86.683242
loop_
_atom_site_label
_atom_site_type_symbol
_atom_site_fract_x
_atom_site_fract_y
_atom_site_fract_z
Zn1	Zn	0.768445	0.389993	-0.532784
Zn2	Zn	0.768386	0.532638	-0.390154
Zn3	Zn	0.686368	0.381282	-0.381419
Zn4	Zn	0.675641	0.541297	-0.541437
O5	O	0.724710	0.461302	-0.461449
O6	O	0.841600	0.408936	-0.513898
O7	O	0.761971	0.505291	-0.262336
O8	O	0.701769	0.255774	-0.394220
O9	O	0.841557	0.513737	-0.409109
O10	O	0.762071	0.262173	-0.505428
O11	O	0.701712	0.394091	-0.255918
O12	O	0.611782	0.402487	-0.402611
O13	O	0.683487	0.528495	-0.666949
O14	O	0.603901	0.520049	-0.520176
O15	O	0.751669	0.417332	-0.660591
O16	O	0.751569	0.660450	-0.417499
O17	O	0.683430	0.666812	-0.528647
C18	C	0.588871	0.461263	-0.461385
C19	C	0.530757	0.461269	-0.461381
C20	C	0.716343	0.696475	-0.474980
C21	C	0.712810	0.797084	-0.480799
C22	C	0.716388	0.474851	-0.697530
C23	C	0.712842	0.480625	-0.798134
C24	C	0.166294	0.522610	-0.522615
C25	C	0.111689	0.522617	-0.522630
O26	O	0.079970	0.574724	-0.574639
N27	N	0.088468	0.461331	-0.461509
C28	C	0.119855	0.400028	-0.400376
O29	O	0.095089	0.347899	-0.348389
C30	C	0.174459	0.400018	-0.400366
C31	C	0.197677	0.461314	-0.461485
C32	C	0.189512	0.583901	-0.583730
C33	C	0.244114	0.583895	-0.583714
C34	C	0.275496	0.522599	-0.522583
C35	C	0.252278	0.461309	-0.461469
C36	C	0.205845	0.338712	-0.339238
C37	C	0.260452	0.338707	-0.339234
C38	C	0.283670	0.400003	-0.400353
C39	C	0.338262	0.400007	-0.400322
N40	N	0.361483	0.461293	-0.461443
C41	C	0.330100	0.522589	-0.522574
C42	C	0.005182	0.400052	-0.400401
C43	C	-0.049420	0.400066	-0.400406
C44	C	-0.057583	0.522654	-0.522662
C45	C	-0.002979	0.522644	-0.522652
C46	C	0.028404	0.461339	-0.461522
C47	C	0.444767	0.522574	-0.522535
C48	C	0.499374	0.522565	-0.522511
C49	C	0.507531	0.399975	-0.400259
C50	C	0.452929	0.399986	-0.400279
C51	C	0.421549	0.461289	-0.461425
O52	O	0.370014	0.347924	-0.348342
O53	O	0.354873	0.574701	-0.574559
C54	C	0.861079	0.461342	-0.461513
C55	C	0.919192	0.461359	-0.461540
C56	C	0.733123	0.225212	-0.447884
C57	C	0.736709	0.124605	-0.442104
C58	C	0.777190	0.979460	-0.376089
C59	C	0.773873	1.073992	-0.381554
C60	C	0.702860	1.080681	-0.497196
C61	C	0.706178	0.986149	-0.491732
C62	C	0.743343	0.935542	-0.431175
C63	C	0.746658	0.841009	-0.425707
C64	C	0.675649	0.847700	-0.541353
C65	C	0.672331	0.942231	-0.546818
C66	C	0.672347	0.546628	-0.943241
C67	C	0.675677	0.541210	-0.848715
C68	C	0.746677	0.425453	-0.842085
C69	C	0.743347	0.430871	-0.936610
C70	C	0.706181	0.491462	-0.987185
C71	C	0.702853	0.496884	-1.081713
C72	C	0.773850	0.381123	-1.075081
C73	C	0.777181	0.375705	-0.980555
C74	C	0.733031	0.447741	-0.226282
C75	C	0.736688	0.441712	-0.125664
H76	H	0.518275	0.572483	-0.572282
C77	C	0.269218	0.650480	-0.650181
C78	C	0.230039	0.704137	-0.703730
C79	C	0.253141	0.765477	-0.764984
H80	H	0.290332	0.687964	-0.617870
H81	H	0.290348	0.618203	-0.687735
H82	H	0.208918	0.736412	-0.666182
H83	H	0.208922	0.666678	-0.736062
H84	H	0.274270	0.733200	-0.802537
H85	H	0.274254	0.802954	-0.732664
H86	H	0.226561	0.801885	-0.801329
H87	H	0.672605	1.121901	-0.546504
H88	H	0.648123	0.586126	-0.812939
C89	C	0.817549	0.309836	-0.925799
C90	C	0.846459	0.262670	-0.984519
C91	C	0.883649	0.201977	-0.934112
H92	H	0.840443	0.342254	-0.890915
H93	H	0.800268	0.268227	-0.886665
H94	H	0.863740	0.304272	-1.023637
H95	H	0.823580	0.230233	-1.019403
H96	H	0.866367	0.160368	-0.894978
H97	H	0.906539	0.234402	-0.899230
H98	H	0.903265	0.169961	-0.973945
C99	C	0.817588	0.924670	-0.310313
C100	C	0.846525	0.983366	-0.263249
C101	C	0.883748	0.932928	-0.202654
H102	H	0.800348	0.885563	-0.268632
H103	H	0.840455	0.889755	-0.342823
H104	H	0.823661	1.018266	-0.230741
H105	H	0.863777	1.022474	-0.304906
H106	H	0.906615	0.898013	-0.235164
H107	H	0.866504	0.893824	-0.160979
H108	H	0.903390	0.972746	-0.170720
C109	C	0.662473	0.562525	-1.136734
C110	C	0.628886	0.514377	-1.188058
C111	C	0.591685	0.574816	-1.238760
H112	H	0.642745	0.594629	-1.097126
H113	H	0.679753	0.604073	-1.175936
H114	H	0.611608	0.472845	-1.148860
H115	H	0.648599	0.482276	-1.227682
H116	H	0.608965	0.616365	-1.277962
H117	H	0.571961	0.606917	-1.199146
H118	H	0.568895	0.542158	-1.273596
C119	C	0.810697	1.121713	-0.321914
C120	C	0.840480	1.178826	-0.376386
C121	C	0.874424	1.222784	-0.321485
H122	H	0.790891	1.156451	-0.284541
H123	H	0.833334	1.078047	-0.285103
H124	H	0.817846	1.222487	-0.413181
H125	H	0.860297	1.144111	-0.413758
H126	H	0.897060	1.179118	-0.284674
H127	H	0.854614	1.257517	-0.284114
H128	H	0.894639	1.261534	-0.358436
H129	H	0.642073	0.983448	-0.596123
C130	C	0.039316	0.333642	-0.333971
C131	C	0.070892	0.381463	-0.278825
C132	C	0.102344	0.320317	-0.217629
H133	H	0.017726	0.297123	-0.297487
H134	H	0.060832	0.296251	-0.366358
H135	H	0.049379	0.418839	-0.246441
H136	H	0.092492	0.417979	-0.315285
H137	H	0.123860	0.282926	-0.250015
H138	H	0.080750	0.283801	-0.181151
H139	H	0.123775	0.352755	-0.180210
C140	C	0.631947	0.612438	-0.997996
C141	C	0.603023	0.659582	-0.939277
C142	C	0.565797	0.720206	-0.989683
H143	H	0.649184	0.654073	-1.037155
H144	H	0.609072	0.579942	-1.032851
H145	H	0.625895	0.692076	-0.904438
H146	H	0.585774	0.617971	-0.900117
H147	H	0.542922	0.687710	-1.024538
H148	H	0.583039	0.761834	-1.028840
H149	H	0.546164	0.752194	-0.949850
H150	H	0.648087	0.811931	-0.586205
H151	H	0.776934	0.376118	-0.800890
H152	H	0.419223	0.572490	-0.572328
H153	H	0.801401	0.336204	-1.110870
C154	C	0.155419	0.650317	-0.650208
C155	C	0.123858	0.602513	-0.705395
C156	C	0.092454	0.663675	-0.766652
H157	H	0.133890	0.687743	-0.617898
H158	H	0.177058	0.686799	-0.686650
H159	H	0.102222	0.566047	-0.668958
H160	H	0.145373	0.565091	-0.737726
H161	H	0.114093	0.700157	-0.803095
H162	H	0.070929	0.701098	-0.734334
H163	H	0.071040	0.631249	-0.804110
H164	H	-0.083145	0.572562	-0.572440
H165	H	0.015922	0.572555	-0.572422
H166	H	-0.068320	0.350161	-0.350628
H167	H	0.286001	0.288778	-0.289458
C168	C	0.180745	0.272053	-0.272843
C169	C	0.219926	0.218359	-0.219336
C170	C	0.196826	0.156929	-0.158170
H171	H	0.159604	0.304233	-0.235247
H172	H	0.159644	0.234611	-0.305251
H173	H	0.241019	0.255796	-0.186931
H174	H	0.241070	0.186159	-0.256907
H175	H	0.175724	0.119486	-0.190577
H176	H	0.175685	0.189116	-0.120580
H177	H	0.223406	0.120484	-0.121863
H178	H	0.434024	0.350075	-0.350510
H179	H	0.533093	0.350072	-0.350485
C180	C	0.786927	0.786006	-0.359849
C181	C	0.761302	0.728482	-0.298626
C182	C	0.798382	0.677812	-0.237938
H183	H	0.809780	0.750994	-0.392274
H184	H	0.806604	0.825673	-0.327771
H185	H	0.741634	0.688820	-0.330700
H186	H	0.738452	0.763470	-0.266179
H187	H	0.818060	0.717479	-0.205861
H188	H	0.821233	0.642806	-0.270371
H189	H	0.781001	0.638782	-0.196386
