data_functionalizedCrystal
_audit_creation_method	'MofGen! by Chris Wilmer'
_symmetry_space_group_name_H-M	'P1'
_symmetry_Int_Tables_number	1
_symmetry_cell_setting	triclinic
loop_
_symmetry_equiv_pos_as_xyz
  x,y,z
_cell_length_a	19.188925
_cell_length_b	19.188930
_cell_length_c	9.730223
_cell_angle_alpha	89.993564
_cell_angle_beta	89.998856
_cell_angle_gamma	83.143665
loop_
_atom_site_label
_atom_site_type_symbol
_atom_site_fract_x
_atom_site_fract_y
_atom_site_fract_z
O1	O	0.926143	0.087146	-0.114335
O2	O	1.426143	0.587146	0.385665
O3	O	0.722831	0.098885	-0.114333
O4	O	1.222831	0.598885	0.385667
O5	O	0.830354	-0.008640	-0.114307
O6	O	1.330354	0.491360	0.385693
O7	O	0.818620	0.194671	-0.114361
O8	O	1.318620	0.694671	0.385639
O9	O	0.830353	-0.008637	0.114273
O10	O	1.330353	0.491363	0.614273
O11	O	0.722830	0.098887	0.114247
O12	O	1.222830	0.598887	0.614247
O13	O	0.926142	0.087149	0.114245
O14	O	1.426142	0.587149	0.614245
Zn15	Zn	0.824486	0.093019	0.150538
Zn16	Zn	1.324486	0.593019	0.650538
Zn17	Zn	0.824487	0.093015	-0.150626
Zn18	Zn	1.324487	0.593015	0.349374
O19	O	0.818619	0.194674	0.114219
O20	O	1.318619	0.694674	0.614219
C21	C	0.696820	0.098507	-0.000043
C22	C	1.196820	0.598507	0.499957
C23	C	0.619315	0.097367	-0.000041
C24	C	1.119315	0.597367	0.499959
C25	C	0.057545	0.152831	-0.000059
C26	C	0.557545	0.652831	0.499941
C27	C	0.130368	0.153908	-0.000066
C28	C	0.630368	0.653908	0.499934
C29	C	0.175302	0.090816	-0.000047
C30	C	0.675302	0.590816	0.499953
C31	C	0.147408	0.026642	-0.000056
C32	C	0.647408	0.526642	0.499944
C33	C	0.074586	0.025568	-0.000062
C34	C	0.574586	0.525568	0.499938
N35	N	0.295979	0.045140	0.077775
N36	N	0.795979	0.545140	0.577775
N37	N	0.365156	0.046166	0.077784
N38	N	0.865156	0.546166	0.577784
C39	C	0.394712	0.094050	-0.000032
C40	C	0.894712	0.594050	0.499968
N41	N	0.352475	0.140881	-0.077839
N42	N	0.852475	0.640881	0.422161
N43	N	0.283291	0.139857	-0.077842
N44	N	0.783291	0.639857	0.422158
C45	C	0.254267	0.091974	-0.000041
C46	C	0.754267	0.591974	0.499959
C47	C	0.501561	0.159386	-0.000041
C48	C	1.001561	0.659386	0.499959
C49	C	0.574385	0.160460	-0.000058
C50	C	1.074385	0.660460	0.499942
C51	C	0.591425	0.033193	-0.000033
C52	C	1.091425	0.533193	0.499967
C53	C	0.518601	0.032121	-0.000031
C54	C	1.018601	0.532121	0.499969
C55	C	0.473673	0.095220	-0.000028
C56	C	0.973673	0.595220	0.499972
C57	C	0.829974	-0.034650	-0.000013
C58	C	1.329974	0.465350	0.499987
C59	C	0.828833	-0.112154	-0.000001
C60	C	1.328833	0.387846	0.499999
C61	C	0.891924	-0.157079	0.000005
C62	C	1.391924	0.342921	0.500005
C63	C	0.890852	-0.229903	-0.000017
C64	C	1.390852	0.270097	0.499983
C65	C	0.826686	-0.257799	-0.000018
C66	C	1.326686	0.242201	0.499982
C67	C	0.763587	-0.212864	-0.000032
C68	C	1.263587	0.287136	0.499968
C69	C	0.764660	-0.140041	-0.000023
C70	C	1.264660	0.359959	0.499977
N71	N	0.777638	-0.365802	0.077773
N72	N	1.277638	0.134198	0.577773
N73	N	0.776623	-0.434980	0.077768
N74	N	1.276623	0.065020	0.577768
C75	C	0.823448	-0.477207	-0.000046
C76	C	1.323448	0.022793	0.499954
N77	N	0.871338	-0.447644	-0.077837
N78	N	1.371338	0.052356	0.422163
N79	N	0.872355	-0.378459	-0.077826
N80	N	1.372355	0.121541	0.422174
C81	C	0.825515	-0.336761	-0.000028
C82	C	1.325515	0.163239	0.499972
C83	C	0.885381	-0.601097	-0.000065
C84	C	1.385381	-0.101097	0.499935
C85	C	0.884307	-0.673922	-0.000096
C86	C	1.384307	-0.173922	0.499904
C87	C	0.757040	-0.656880	-0.000096
C88	C	1.257040	-0.156880	0.499904
C89	C	0.758116	-0.584057	-0.000080
C90	C	1.258116	-0.084057	0.499920
C91	C	0.822289	-0.556170	-0.000058
C92	C	1.322289	-0.056170	0.499942
C93	C	0.952154	0.087527	-0.000049
C94	C	1.452154	0.587527	0.499951
C95	C	1.029658	0.088666	-0.000059
C96	C	1.529658	0.588666	0.499941
C97	C	0.819000	0.220684	-0.000078
C98	C	1.319000	0.720684	0.499922
C99	C	0.820140	0.298188	-0.000099
C100	C	1.320140	0.798188	0.499901
N101	N	0.824490	0.093021	0.356074
N102	N	1.324490	0.593021	0.856074
N103	N	0.824489	0.093008	-0.356162
N104	N	1.324489	0.593008	0.143838
C105	C	0.872113	0.045425	0.428012
C106	C	1.372113	0.545425	0.928012
C107	C	0.872111	0.045416	0.571895
C108	C	1.372111	0.545416	1.071895
C109	C	0.776861	0.140606	0.571890
C110	C	1.276861	0.640606	1.071890
C111	C	0.776860	0.140611	0.428010
C112	C	1.276860	0.640611	0.928010
C113	C	0.919743	-0.002165	0.356076
C114	C	1.419743	0.497835	0.856076
C115	C	0.967371	-0.049765	0.428014
C116	C	1.467371	0.450235	0.928014
C117	C	0.967369	-0.049773	0.571897
C118	C	1.467369	0.450227	1.071897
C119	C	0.919740	-0.002182	0.643842
C120	C	1.419740	0.497818	1.143842
H121	H	0.495896	-0.020129	-0.000023
H122	H	0.995896	0.479871	0.499977
Cl123	Cl	0.682921	-0.247931	-0.000043
Cl124	Cl	1.182921	0.252069	0.499957
H125	H	0.704794	-0.679592	-0.000104
H126	H	1.204794	-0.179592	0.499896
H127	H	0.713282	-0.103462	-0.000028
H128	H	1.213282	0.396538	0.499972
H129	H	0.937635	-0.578390	-0.000054
H130	H	1.437635	-0.078390	0.499946
H131	H	0.738080	0.179367	0.369438
H132	H	1.238080	0.679367	0.869438
H133	H	0.183999	-0.024728	-0.000044
H134	H	0.683999	0.475272	0.499956
Cl135	Cl	0.716990	0.200433	0.662335
Cl136	Cl	1.216990	0.700433	1.162335
Cl137	Cl	0.001068	0.232156	-0.000074
Cl138	Cl	0.501068	0.732156	0.499926
H139	H	0.628010	-0.018178	-0.000028
H140	H	1.128010	0.481822	0.499972
Cl141	Cl	0.678797	-0.527576	-0.000081
Cl142	Cl	1.178797	-0.027576	0.499919
H143	H	0.935686	-0.710500	-0.000099
H144	H	1.435686	-0.210500	0.499901
Cl145	Cl	0.972598	-0.122025	-0.000007
Cl146	Cl	1.472598	0.377975	0.499993
H147	H	0.919750	-0.002161	0.238920
H148	H	1.419750	0.497839	0.738920
Cl149	Cl	1.027238	-0.109596	0.337573
Cl150	Cl	1.527238	0.390404	0.837573
H151	H	0.942230	-0.266488	-0.000018
H152	H	1.442230	0.233512	0.499982
H153	H	0.919738	-0.002198	0.761002
H154	H	1.419738	0.497802	1.261002
Cl155	Cl	0.165434	0.234579	-0.000061
Cl156	Cl	0.665434	0.734579	0.499939
Cl157	Cl	0.039528	-0.055104	-0.000066
Cl158	Cl	0.539528	0.444896	0.499934
H159	H	1.006144	-0.088535	0.630467
H160	H	1.506144	0.411465	1.130467
Cl161	Cl	0.609442	0.241132	-0.000071
Cl162	Cl	1.109442	0.741132	0.499929
H163	H	0.464978	0.210765	-0.000042
H164	H	0.964978	0.710765	0.499958
