data_functionalizedCrystal
_audit_creation_method	'MofGen! by Chris Wilmer'
_symmetry_space_group_name_H-M	'P1'
_symmetry_Int_Tables_number	1
_symmetry_cell_setting	triclinic
loop_
_symmetry_equiv_pos_as_xyz
  x,y,z
_cell_length_a	17.000371
_cell_length_b	17.019294
_cell_length_c	17.766277
_cell_angle_alpha	86.114664
_cell_angle_beta	89.990110
_cell_angle_gamma	79.505866
loop_
_atom_site_label
_atom_site_type_symbol
_atom_site_fract_x
_atom_site_fract_y
_atom_site_fract_z
O1	O	1.056076	0.028428	-0.064440
O2	O	1.389409	0.361761	0.268894
O3	O	1.722743	0.695095	0.602227
O4	O	0.824311	0.057060	-0.066296
O5	O	1.157644	0.390393	0.267037
O6	O	1.490978	0.723727	0.600371
O7	O	0.946658	-0.072537	-0.057892
O8	O	1.279992	0.260796	0.275441
O9	O	1.613325	0.594129	0.608775
O10	O	0.933729	0.158025	-0.072844
O11	O	1.267062	0.491359	0.260490
O12	O	1.600395	0.824692	0.593823
O13	O	0.946637	-0.072542	0.067297
O14	O	1.279970	0.260791	0.400630
O15	O	1.613303	0.594125	0.733963
O16	O	0.824289	0.057055	0.058893
O17	O	1.157623	0.390389	0.392226
O18	O	1.490956	0.723722	0.725560
O19	O	1.056054	0.028423	0.060749
O20	O	1.389388	0.361757	0.394083
O21	O	1.722721	0.695090	0.727416
Cu22	Cu	0.940170	0.042739	0.071252
Cu23	Cu	1.273503	0.376072	0.404585
Cu24	Cu	1.606837	0.709406	0.737918
Cu25	Cu	0.940195	0.042744	-0.076799
Cu26	Cu	1.273529	0.376078	0.256535
Cu27	Cu	1.606862	0.709411	0.589868
O28	O	0.933707	0.158021	0.052345
O29	O	1.267041	0.491354	0.385679
O30	O	1.600374	0.824687	0.719012
C31	C	0.794645	0.058596	-0.003801
C32	C	1.127978	0.391929	0.329532
C33	C	1.461311	0.725262	0.662865
C34	C	0.706281	0.063169	-0.004098
C35	C	1.039614	0.396502	0.329235
C36	C	1.372948	0.729835	0.662569
C37	C	0.674335	-0.007205	0.000467
C38	C	1.007668	0.326128	0.333800
C39	C	1.341002	0.659462	0.667134
C40	C	0.591307	-0.002903	0.000183
C41	C	0.924640	0.330430	0.333516
C42	C	1.257974	0.663763	0.666849
C43	C	0.540227	0.071773	-0.004661
C44	C	0.873560	0.405106	0.328672
C45	C	1.206893	0.738439	0.662005
C46	C	0.572178	0.142152	-0.009229
C47	C	0.905511	0.475485	0.324105
C48	C	1.238845	0.808818	0.657438
C49	C	0.655204	0.137849	-0.008950
C50	C	0.988538	0.471183	0.324384
C51	C	1.321871	0.804516	0.657717
C52	C	0.289062	0.088391	-0.005744
C53	C	0.622395	0.421725	0.327589
C54	C	0.955729	0.755058	0.660923
C55	C	0.206031	0.092688	-0.006020
C56	C	0.539364	0.426022	0.327313
C57	C	0.872697	0.759355	0.660646
C58	C	0.225165	-0.052367	0.003390
C59	C	0.558499	0.280966	0.336723
C60	C	0.891832	0.614299	0.670056
C61	C	0.308193	-0.056663	0.003673
C62	C	0.641526	0.276670	0.337006
C63	C	0.974859	0.610004	0.670339
C64	C	0.340137	0.013716	-0.000899
C65	C	0.673470	0.347049	0.332435
C66	C	1.006803	0.680382	0.665768
C67	C	0.455359	0.076171	-0.004950
C68	C	0.788692	0.409505	0.328384
C69	C	1.122025	0.742838	0.661717
C70	C	0.425003	0.009316	-0.000616
C71	C	0.758336	0.342650	0.332718
C72	C	1.091670	0.675983	0.666051
C73	C	0.946157	-0.101895	0.006604
C74	C	1.279490	0.231438	0.339938
C75	C	1.612824	0.564772	0.673271
C76	C	0.944685	-0.189363	0.012272
C77	C	1.278019	0.143970	0.345605
C78	C	1.611352	0.477303	0.678938
C79	C	0.944008	-0.230449	-0.053306
C80	C	1.277341	0.102884	0.280028
C81	C	1.610674	0.436217	0.613361
C82	C	0.942620	-0.312634	-0.047978
C83	C	1.275953	0.020699	0.285355
C84	C	1.609287	0.354032	0.618688
C85	C	0.941916	-0.353733	0.022927
C86	C	1.275249	-0.020400	0.356261
C87	C	1.608582	0.312934	0.689594
C88	C	0.942591	-0.312641	0.088510
C89	C	1.275925	0.020693	0.421843
C90	C	1.609258	0.354026	0.755176
C91	C	0.943973	-0.230456	0.083181
C92	C	1.277306	0.102877	0.416515
C93	C	1.610640	0.436211	0.749848
C94	C	0.937737	-0.601877	0.042429
C95	C	1.271071	-0.268543	0.375762
C96	C	1.604404	0.064790	0.709096
C97	C	0.936358	-0.684067	0.047752
C98	C	1.269691	-0.350734	0.381086
C99	C	1.603024	-0.017401	0.714419
C100	C	0.936385	-0.684055	-0.088736
C101	C	1.269718	-0.350722	0.244597
C102	C	1.603052	-0.017388	0.577930
C103	C	0.937772	-0.601870	-0.094058
C104	C	1.271105	-0.268536	0.239275
C105	C	1.604439	0.064797	0.572609
C106	C	0.938443	-0.560784	-0.028476
C107	C	1.271776	-0.227451	0.304857
C108	C	1.605110	0.105883	0.638191
C109	C	0.940500	-0.437740	0.028375
C110	C	1.273833	-0.104406	0.361708
C111	C	1.607167	0.228927	0.695041
C112	C	0.939853	-0.476778	-0.033924
C113	C	1.273186	-0.143444	0.299409
C114	C	1.606520	0.189889	0.632743
C115	C	1.085721	0.026888	-0.001747
C116	C	1.419054	0.360221	0.331586
C117	C	1.752387	0.693554	0.664920
C118	C	1.174084	0.022315	-0.001456
C119	C	1.507418	0.355648	0.331878
C120	C	1.840751	0.688981	0.665211
C121	C	0.934209	0.187378	-0.012153
C122	C	1.267542	0.520712	0.321181
C123	C	1.600875	0.854045	0.654514
C124	C	0.935680	0.274847	-0.017825
C125	C	1.269013	0.608180	0.315508
C126	C	1.602347	0.941513	0.648842
N127	N	0.940158	0.042734	0.175382
N128	N	1.273491	0.376067	0.508716
N129	N	1.606825	0.709401	0.842049
N130	N	0.940214	0.042743	-0.180929
N131	N	1.273547	0.376076	0.152405
N132	N	1.606880	0.709409	0.485738
C133	C	0.994351	-0.014627	0.218489
C134	C	1.327684	0.318707	0.551822
C135	C	1.661018	0.652040	0.885156
C136	C	0.994355	-0.014631	0.297291
C137	C	1.327689	0.318703	0.630624
C138	C	1.661022	0.652036	0.963958
C139	C	0.940175	0.042739	0.332983
C140	C	1.273508	0.376073	0.666316
C141	C	1.606841	0.709406	0.999649
C142	C	0.885972	0.100105	0.289866
C143	C	1.219305	0.433438	0.623200
C144	C	1.552638	0.766771	0.956533
C145	C	0.885963	0.100102	0.211066
C146	C	1.219297	0.433435	0.544400
C147	C	1.552630	0.766769	0.877733
C148	C	0.929664	0.115311	0.453114
C149	C	1.262997	0.448644	0.786448
C150	C	1.596331	0.781978	1.119781
C151	C	0.929678	0.115314	0.531913
C152	C	1.263011	0.448648	0.865246
C153	C	1.596345	0.781981	1.198580
C154	C	0.940196	0.042747	0.576028
C155	C	1.273529	0.376081	0.909362
C156	C	1.606863	0.709414	1.242695
C157	C	0.950717	-0.029827	0.541336
C158	C	1.284050	0.303506	0.874669
C159	C	1.617384	0.636839	1.208002
C160	C	0.950709	-0.029830	0.462536
C161	C	1.284042	0.303504	0.795869
C162	C	1.617375	0.636837	1.129202
C163	C	0.940177	0.042748	0.418428
C164	C	1.273511	0.376081	0.751761
C165	C	1.606844	0.709415	1.085094
C166	C	0.994397	-0.014622	0.704582
C167	C	1.327730	0.318711	1.037915
C168	C	1.661064	0.652044	1.371248
C169	C	0.994396	-0.014627	0.783385
C170	C	1.327729	0.318706	1.116718
C171	C	1.661063	0.652040	1.450052
C172	C	0.886016	0.100115	0.775958
C173	C	1.219349	0.433448	1.109292
C174	C	1.552683	0.766781	1.442625
C175	C	0.886013	0.100113	0.697157
C176	C	1.219346	0.433446	1.030490
C177	C	1.552680	0.766780	1.363823
C178	C	0.940208	0.042745	0.661473
C179	C	1.273541	0.376078	0.994806
C180	C	1.606874	0.709412	1.328140
H181	H	0.565301	-0.060209	0.003899
H182	H	0.898635	0.273124	0.337233
H183	H	1.231968	0.606457	0.670566
Cl184	Cl	0.941696	-0.364306	0.177649
Cl185	Cl	1.275030	-0.030972	0.510982
Cl186	Cl	1.608363	0.302361	0.844315
H187	H	0.841898	0.146824	0.805018
H188	H	1.175231	0.480157	1.138351
H189	H	1.508565	0.813490	1.471685
H190	H	1.038523	-0.061337	0.675527
H191	H	1.371857	0.271996	1.008860
H192	H	1.705190	0.605330	1.342194
H193	H	0.164442	0.153502	-0.009962
H194	H	0.497775	0.486835	0.323372
H195	H	0.831108	0.820169	0.656705
H196	H	0.349778	-0.117472	0.007621
H197	H	0.683111	0.215861	0.340954
H198	H	1.016444	0.549194	0.674287
H199	H	0.530582	0.202955	-0.013178
H200	H	0.863915	0.536288	0.320156
H201	H	1.197248	0.869621	0.653489
H202	H	0.942071	-0.346084	-0.101378
H203	H	1.275405	-0.012750	0.231955
H204	H	1.608738	0.320583	0.565288
H205	H	0.199147	-0.109666	0.007103
H206	H	0.532481	0.223667	0.340436
H207	H	0.865814	0.557001	0.673770
Cl208	Cl	0.935540	-0.735710	-0.171177
Cl209	Cl	1.268873	-0.402377	0.162156
Cl210	Cl	1.602206	-0.069043	0.495490
Cl211	Cl	0.940743	-0.425110	-0.123059
Cl212	Cl	1.274076	-0.091777	0.210274
Cl213	Cl	1.607409	0.241556	0.543608
H214	H	1.038487	-0.061342	0.332395
H215	H	1.371821	0.271991	0.665728
H216	H	1.705154	0.605324	0.999061
H217	H	0.938300	-0.568437	0.095831
H218	H	1.271633	-0.235104	0.429164
H219	H	1.604966	0.098229	0.762498
Cl220	Cl	0.391137	0.170047	-0.011040
Cl221	Cl	0.724470	0.503380	0.322294
Cl222	Cl	1.057804	0.836714	0.655627
H223	H	0.921085	0.174409	0.417201
H224	H	1.254418	0.507742	0.750535
H225	H	1.587752	0.841075	1.083868
Cl226	Cl	0.939611	-0.489412	0.117510
Cl227	Cl	1.272944	-0.156079	0.450844
Cl228	Cl	1.606277	0.177254	0.784177
H229	H	0.938346	-0.568413	-0.151797
H230	H	1.271680	-0.235080	0.181536
H231	H	1.605013	0.098254	0.514870
H232	H	0.959273	-0.088922	0.434292
H233	H	1.292606	0.244411	0.767626
H234	H	1.625940	0.577745	1.100959
Cl235	Cl	0.695365	0.226323	-0.014692
Cl236	Cl	1.028698	0.559657	0.318641
Cl237	Cl	1.362031	0.892990	0.651974
H238	H	0.959281	-0.088918	0.577253
H239	H	1.292615	0.244415	0.910586
H240	H	1.625948	0.577748	1.243920
H241	H	0.315060	0.145699	-0.009471
H242	H	0.648394	0.479032	0.323862
H243	H	0.981727	0.812366	0.657195
H244	H	0.466596	-0.051485	0.003324
H245	H	0.799930	0.281849	0.336657
H246	H	1.133263	0.615182	0.669991
H247	H	0.715920	-0.068015	0.004415
H248	H	1.049253	0.265319	0.337748
H249	H	1.382586	0.598652	0.671081
H250	H	0.944585	-0.196994	-0.111045
H251	H	1.277919	0.136340	0.222289
H252	H	1.611252	0.469673	0.555622
Cl253	Cl	0.935477	-0.735734	0.136898
Cl254	Cl	1.268811	-0.402401	0.470231
Cl255	Cl	1.602144	-0.069068	0.803564
H256	H	0.944514	-0.197003	0.136582
H257	H	1.277847	0.136331	0.469915
H258	H	1.611180	0.469664	0.803248
Cl259	Cl	1.062475	-0.086748	0.173630
Cl260	Cl	1.395809	0.246585	0.506963
Cl261	Cl	1.729142	0.579918	0.840297
H262	H	1.038524	-0.061341	0.818484
H263	H	1.371857	0.271992	1.151817
H264	H	1.705191	0.605326	1.485150
H265	H	0.841887	0.146824	0.662057
H266	H	1.175221	0.480158	0.995390
H267	H	1.508554	0.813491	1.328723
Cl268	Cl	0.916457	0.206549	0.575519
Cl269	Cl	1.249791	0.539882	0.908852
Cl270	Cl	1.583124	0.873216	1.242185
H271	H	0.841856	0.146815	0.318930
H272	H	1.175189	0.480148	0.652264
H273	H	1.508522	0.813482	0.985597
Cl274	Cl	0.817830	0.172219	0.156871
Cl275	Cl	1.151164	0.505553	0.490205
Cl276	Cl	1.484497	0.838886	0.823538
