data_functionalizedCrystal
_audit_creation_method	'MofGen! by Chris Wilmer'
_symmetry_space_group_name_H-M	'P1'
_symmetry_Int_Tables_number	1
_symmetry_cell_setting	triclinic
loop_
_symmetry_equiv_pos_as_xyz
  x,y,z
_cell_length_a	8.597366
_cell_length_b	8.559649
_cell_length_c	14.048226
_cell_angle_alpha	89.995035
_cell_angle_beta	97.695537
_cell_angle_gamma	77.624636
loop_
_atom_site_label
_atom_site_type_symbol
_atom_site_fract_x
_atom_site_fract_y
_atom_site_fract_z
O1	O	2.053702	0.238018	0.089286
O2	O	1.594578	0.256285	0.051628
O3	O	1.864589	0.015181	0.073776
O4	O	1.783691	0.479122	0.067138
O5	O	1.864562	0.015166	0.232095
O6	O	1.594551	0.256270	0.209947
O7	O	2.053675	0.238003	0.247605
Zn8	Zn	1.824109	0.247134	0.253913
Zn9	Zn	1.824144	0.247153	0.045320
O10	O	1.783664	0.479107	0.225457
C11	C	1.536331	0.254317	0.126011
C12	C	1.362815	0.248456	0.111779
C13	C	1.870706	-0.044261	0.153436
C14	C	1.888955	-0.221356	0.154928
C15	C	2.111922	0.239970	0.173220
C16	C	2.285439	0.245831	0.187446
C17	C	1.777547	0.538548	0.145795
C18	C	1.759298	0.715644	0.144297
N19	N	1.824096	0.247120	0.396272
N20	N	1.824171	0.247155	-0.097038
C21	C	1.943685	0.140404	0.455900
C22	C	1.943695	0.140403	0.555558
C23	C	1.824122	0.247127	0.595588
C24	C	1.704521	0.353848	0.535953
C25	C	1.704506	0.353840	0.436296
C26	C	1.704565	0.353860	0.743671
C27	C	1.704582	0.353871	0.843335
C28	C	1.943755	0.140424	0.862933
C29	C	1.943739	0.140416	0.763276
C30	C	1.824140	0.247139	0.703648
H31	H	1.634331	-0.202810	0.134050
O32	O	1.575528	0.468946	0.371976
H33	H	1.492393	0.543172	0.416552
H34	H	1.351946	0.248068	0.263127
O35	O	2.054508	-0.329364	0.168513
H36	H	2.043351	-0.456180	0.167599
H37	H	2.041111	0.053521	0.730685
O38	O	2.072648	0.025288	0.412725
H39	H	2.155796	-0.048930	0.470934
H40	H	1.607212	0.440775	0.875921
H41	H	2.041073	0.053506	0.604107
H42	H	2.041137	0.053526	0.911489
O43	O	1.575579	0.468973	0.679352
H44	H	1.492445	0.543202	0.723929
O45	O	1.575558	0.468975	0.579121
H46	H	1.507539	0.400622	0.618972
H47	H	1.296318	0.246208	0.036103
