data_functionalizedCrystal
_audit_creation_method	'MofGen! by Chris Wilmer'
_symmetry_space_group_name_H-M	'P1'
_symmetry_Int_Tables_number	1
_symmetry_cell_setting	triclinic
loop_
_symmetry_equiv_pos_as_xyz
  x,y,z
_cell_length_a	14.908571
_cell_length_b	12.759400
_cell_length_c	14.908308
_cell_angle_alpha	86.729656
_cell_angle_beta	89.824947
_cell_angle_gamma	86.709538
loop_
_atom_site_label
_atom_site_type_symbol
_atom_site_fract_x
_atom_site_fract_y
_atom_site_fract_z
Zn1	Zn	1.345354	-0.548283	0.587608
Zn2	Zn	1.353952	-0.714464	0.437256
Zn3	Zn	1.203667	-0.528103	0.428605
Zn4	Zn	1.194979	-0.713216	0.578908
O5	O	1.274488	-0.626017	0.508094
O6	O	1.472321	-0.579295	0.574925
O7	O	1.341250	-0.681820	0.310284
O8	O	1.222499	-0.383763	0.449718
O9	O	1.478638	-0.701387	0.464463
O10	O	1.326596	-0.398589	0.566536
O11	O	1.230836	-0.544902	0.303928
O12	O	1.076687	-0.543691	0.441281
O13	O	1.207693	-0.699260	0.705887
O14	O	1.070305	-0.679692	0.551708
O15	O	1.318172	-0.578085	0.712279
O16	O	1.332826	-0.861315	0.456026
O17	O	1.216030	-0.860398	0.560097
C18	C	1.040870	-0.609367	0.494612
C19	C	0.940927	-0.602271	0.488866
C20	C	0.746533	-0.730754	0.592901
C21	C	0.652627	-0.724090	0.587505
C22	C	0.659206	-0.582276	0.472683
C23	C	0.753112	-0.588939	0.478079
C24	C	0.796772	-0.663182	0.538189
C25	C	0.890681	-0.669850	0.543580
C26	C	0.897258	-0.528031	0.428763
C27	C	0.803352	-0.521368	0.423367
C28	C	1.274441	-0.898980	0.508077
C29	C	1.274502	-1.015762	0.508105
C30	C	1.328674	-1.078265	0.568978
C31	C	1.328714	-1.187994	0.569002
C32	C	1.220410	-1.172705	0.447273
C33	C	1.220365	-1.062979	0.447253
C34	C	1.382811	-1.031048	0.629830
C35	C	1.436988	-1.093552	0.690707
C36	C	1.437029	-1.203281	0.690731
C37	C	1.382892	-1.250505	0.629878
C38	C	1.509017	-0.642732	0.521629
C39	C	1.608960	-0.649855	0.527397
C40	C	1.261004	-0.640784	0.742620
C41	C	1.255258	-0.647077	0.842561
C42	C	1.274558	-0.351990	0.508132
C43	C	1.274587	-0.235217	0.508149
C44	C	1.287971	-0.611234	0.274484
C45	C	1.293891	-0.604658	0.174553
C46	C	1.359501	-0.532699	1.037019
C47	C	1.354105	-0.538608	1.130922
C48	C	1.239067	-0.664800	1.124274
C49	C	1.244462	-0.658890	1.030370
C50	C	1.304683	-0.592839	0.986746
C51	C	1.310083	-0.586935	0.892841
C52	C	1.195040	-0.713121	0.886194
C53	C	1.189644	-0.719030	0.980097
H54	H	0.623641	-0.521825	0.423750
H55	H	1.481134	-1.254169	0.740307
C56	C	0.597362	-0.798423	0.647686
C57	C	0.645391	-0.880083	0.713802
C58	C	0.590126	-0.954418	0.773987
C59	C	0.486833	-0.947093	0.768056
C60	C	0.438798	-0.865429	0.701938
C61	C	0.494063	-0.791094	0.641753
H62	H	0.721860	-0.885509	0.718195
H63	H	0.625685	-1.014871	0.822932
H64	H	0.445923	-1.002120	0.812609
H65	H	0.362329	-0.860003	0.697546
H66	H	0.458504	-0.730641	0.592808
C67	C	1.160779	-0.994214	0.380293
C68	C	1.174078	-1.003412	0.278511
C69	C	1.114488	-0.934644	0.211553
C70	C	1.041600	-0.856678	0.246378
C71	C	1.028297	-0.847477	0.348165
C72	C	1.087887	-0.916245	0.415123
H73	H	1.228038	-1.061130	0.252727
H74	H	1.124336	-0.941456	0.136204
H75	H	0.997488	-0.805772	0.196812
H76	H	0.974338	-0.789759	0.373949
H77	H	1.078040	-0.909433	0.490472
H78	H	1.382919	-1.339854	0.629913
C79	C	0.952529	-0.453708	0.368570
C80	C	0.945465	-0.454767	0.265599
C81	C	1.000739	-0.380454	0.205401
C82	C	1.063076	-0.305083	0.248175
C83	C	1.070143	-0.304021	0.351151
C84	C	1.014869	-0.378333	0.411349
H85	H	0.899317	-0.510563	0.233931
H86	H	0.995508	-0.381241	0.129171
H87	H	1.103993	-0.250073	0.203613
H88	H	1.116291	-0.248224	0.382819
H89	H	1.020100	-0.377547	0.487579
C90	C	1.425744	-0.460053	0.989024
C91	C	1.390515	-0.370734	0.922226
C92	C	1.456760	-0.298090	0.874232
C93	C	1.558235	-0.314764	0.893037
C94	C	1.593469	-0.404087	0.959839
C95	C	1.527224	-0.476731	1.007833
H96	H	1.315393	-0.358388	0.908302
H97	H	1.430677	-0.231967	0.824781
H98	H	1.607274	-0.260988	0.857509
H99	H	1.668591	-0.416433	0.973762
H100	H	1.553307	-0.542854	1.057284
C101	C	1.414408	-0.472457	1.186223
C102	C	1.480645	-0.399806	1.138234
C103	C	1.540950	-0.333650	1.193536
C104	C	1.535018	-0.340145	1.296826
C105	C	1.468779	-0.412798	1.344821
C106	C	1.408474	-0.478954	1.289520
H107	H	1.485039	-0.394995	1.061767
H108	H	1.589985	-0.279867	1.158006
H109	H	1.579660	-0.291172	1.337763
H110	H	1.464385	-0.417609	1.421288
H111	H	1.359439	-0.532737	1.325049
H112	H	1.359118	-0.533154	0.857324
C113	C	1.134716	-0.779268	0.830902
C114	C	1.067835	-0.724643	0.762290
C115	C	1.007506	-0.790787	0.707003
C116	C	1.014058	-0.911555	0.720328
C117	C	1.080942	-0.966186	0.788942
C118	C	1.141270	-0.900043	0.844230
H119	H	1.062982	-0.635237	0.752424
H120	H	0.957995	-0.750344	0.656210
H121	H	0.969399	-0.960518	0.679401
H122	H	1.085794	-1.055592	0.798809
H123	H	1.190782	-0.940485	0.895023
H124	H	1.190038	-0.718575	1.159809
H125	H	1.140613	-0.772805	1.015629
H126	H	1.176335	-1.211165	0.397729
C127	C	0.794567	-0.812421	0.659014
C128	C	0.782082	-0.930454	0.650759
C129	C	0.830116	-1.012122	0.716872
C130	C	0.890635	-0.975758	0.791239
C131	C	0.903123	-0.857719	0.799496
C132	C	0.855089	-0.776050	0.733384
H133	H	0.737279	-0.957378	0.595706
H134	H	0.820871	-1.099503	0.710759
H135	H	0.926192	-1.036214	0.840179
H136	H	0.947925	-0.830795	0.854550
H137	H	0.864334	-0.688670	0.739497
H138	H	0.767791	-0.460919	0.374430
H139	H	0.926227	-0.730304	0.592523
H140	H	1.382786	-0.941703	0.629815
H141	H	1.481059	-1.055096	0.740257
