data_functionalizedCrystal
_audit_creation_method	'MofGen! by Chris Wilmer'
_symmetry_space_group_name_H-M	'P1'
_symmetry_Int_Tables_number	1
_symmetry_cell_setting	triclinic
loop_
_symmetry_equiv_pos_as_xyz
  x,y,z
_cell_length_a	19.288862
_cell_length_b	18.366186
_cell_length_c	19.288865
_cell_angle_alpha	89.989632
_cell_angle_beta	83.135763
_cell_angle_gamma	89.974265
loop_
_atom_site_label
_atom_site_type_symbol
_atom_site_fract_x
_atom_site_fract_y
_atom_site_fract_z
O1	O	-0.921354	0.060839	-0.086640
O2	O	-0.421354	0.560839	0.413360
O3	O	-0.719093	0.060780	-0.098330
O4	O	-0.219093	0.560780	0.401670
O5	O	-0.826068	0.060797	0.008645
O6	O	-0.326068	0.560797	0.508645
O7	O	-0.814379	0.060822	-0.193615
O8	O	-0.314379	0.560822	0.306385
O9	O	-0.826049	-0.060303	0.008648
O10	O	-0.326049	0.439697	0.508648
O11	O	-0.719075	-0.060320	-0.098327
O12	O	-0.219075	0.439680	0.401673
O13	O	-0.921336	-0.060261	-0.086637
O14	O	-0.421336	0.439739	0.413363
Zn15	Zn	-0.820202	-0.079517	-0.092482
Zn16	Zn	-0.320202	0.420483	0.407518
Zn17	Zn	-0.820226	0.080036	-0.092485
Zn18	Zn	-0.320226	0.580036	0.407515
O19	O	-0.814361	-0.060277	-0.193612
O20	O	-0.314361	0.439723	0.306388
C21	C	-0.693207	0.000222	-0.097953
C22	C	-0.193207	0.500222	0.402047
C23	C	-0.616104	0.000199	-0.096824
C24	C	-0.116104	0.500199	0.403176
C25	C	-0.571407	0.000216	-0.159593
C26	C	-0.071407	0.500216	0.340407
C27	C	-0.498960	0.000221	-0.158533
C28	C	0.001040	0.500221	0.341467
C29	C	-0.471213	0.000222	-0.094701
C30	C	0.028787	0.500222	0.405299
C31	C	-0.515919	0.000201	-0.031924
C32	C	-0.015919	0.500201	0.468076
C33	C	-0.588364	0.000189	-0.032986
C34	C	-0.088364	0.500189	0.467014
C35	C	-0.362957	0.042661	-0.044524
C36	C	0.137043	0.542661	0.455476
C37	C	-0.290512	0.042677	-0.043464
C38	C	0.209488	0.542677	0.456536
C39	C	-0.247767	0.000254	-0.091423
C40	C	0.252233	0.500254	0.408577
C41	C	-0.277473	-0.042175	-0.140453
C42	C	0.222527	0.457825	0.359547
C43	C	-0.349919	-0.042187	-0.141515
C44	C	0.150081	0.457813	0.358485
C45	C	-0.392659	0.000234	-0.093542
C46	C	0.107341	0.500234	0.406458
C47	C	-0.124514	0.000275	-0.153046
C48	C	0.375486	0.500275	0.346954
C49	C	-0.052066	0.000275	-0.151983
C50	C	0.447934	0.500275	0.348017
C51	C	-0.069027	0.000262	-0.025373
C52	C	0.430973	0.500262	0.474627
C53	C	-0.141473	0.000255	-0.026438
C54	C	0.358527	0.500255	0.473562
C55	C	-0.169212	0.000265	-0.090276
C56	C	0.330788	0.500265	0.409724
N57	N	-0.820191	-0.188408	-0.092478
N58	N	-0.320191	0.311592	0.407522
C59	C	-0.862178	-0.226484	-0.134502
C60	C	-0.362178	0.273516	0.365498
C61	C	-0.862190	-0.302712	-0.134500
C62	C	-0.362190	0.197288	0.365500
C63	C	-0.820200	-0.340861	-0.092483
C64	C	-0.320200	0.159139	0.407517
C65	C	-0.778210	-0.302776	-0.050451
C66	C	-0.278210	0.197224	0.449549
C67	C	-0.778205	-0.226550	-0.050449
C68	C	-0.278205	0.273450	0.449551
C69	C	-0.757589	-0.461661	-0.090726
C70	C	-0.257589	0.038339	0.409274
C71	C	-0.757592	-0.537886	-0.090733
C72	C	-0.257592	-0.037886	0.409267
C73	C	-0.820216	-0.575969	-0.092485
C74	C	-0.320216	-0.075969	0.407515
C75	C	-0.882838	-0.537817	-0.094244
C76	C	-0.382838	-0.037817	0.405756
C77	C	-0.882833	-0.461591	-0.094242
C78	C	-0.382833	0.038409	0.405758
C79	C	-0.820201	-0.423516	-0.092480
C80	C	-0.320201	0.076484	0.407520
C81	C	-0.862220	-0.696699	-0.134509
C82	C	-0.362220	-0.196699	0.365491
C83	C	-0.862232	-0.772928	-0.134502
C84	C	-0.362232	-0.272928	0.365498
C85	C	-0.778246	-0.772991	-0.050456
C86	C	-0.278246	-0.272991	0.449544
C87	C	-0.778240	-0.696764	-0.050459
C88	C	-0.278240	-0.196764	0.449541
C89	C	-0.820225	-0.658622	-0.092489
C90	C	-0.320225	-0.158622	0.407511
C91	C	0.052779	0.000286	-0.087016
C92	C	0.552779	0.500286	0.412984
C93	C	-0.024324	0.000275	-0.088151
C94	C	0.475676	0.500275	0.411849
C95	C	-0.825683	0.000245	0.034523
C96	C	-0.325683	0.500245	0.534523
C97	C	-0.824554	0.000238	0.111627
C98	C	-0.324554	0.500238	0.611627
N99	N	-0.820244	0.188928	-0.092483
N100	N	-0.320244	0.688928	0.407517
C101	C	-0.814746	0.000276	-0.219490
C102	C	-0.314746	0.500276	0.280510
C103	C	-0.815875	0.000288	-0.296594
C104	C	-0.315875	0.500288	0.203406
C105	C	-0.887322	0.000253	0.156324
C106	C	-0.387322	0.500253	0.656324
C107	C	-0.886261	0.000264	0.228771
C108	C	-0.386261	0.500264	0.728771
C109	C	-0.822429	0.000246	0.256518
C110	C	-0.322429	0.500246	0.756518
C111	C	-0.759652	0.000235	0.211811
C112	C	-0.259652	0.500235	0.711811
C113	C	-0.760715	0.000231	0.139366
C114	C	-0.260715	0.500231	0.639366
C115	C	-0.772243	-0.042188	0.364806
C116	C	-0.272243	0.457812	0.864806
C117	C	-0.771183	-0.042188	0.437250
C118	C	-0.271183	0.457812	0.937250
C119	C	-0.819149	0.000261	0.479963
C120	C	-0.319149	0.500261	0.979963
C121	C	-0.868187	0.042701	0.450225
C122	C	-0.368187	0.542701	0.950225
C123	C	-0.869249	0.042697	0.377779
C124	C	-0.369249	0.542697	0.877779
C125	C	-0.821270	0.000250	0.335072
C126	C	-0.321270	0.500250	0.835072
C127	C	-0.880771	0.000289	0.603216
C128	C	-0.380771	0.500289	1.103216
C129	C	-0.879708	0.000305	0.675664
C130	C	-0.379708	0.500305	1.175664
C131	C	-0.753098	0.000268	0.658703
C132	C	-0.253098	0.500268	1.158703
C133	C	-0.754163	0.000260	0.586257
C134	C	-0.254163	0.500260	1.086257
C135	C	-0.818001	0.000267	0.558518
C136	C	-0.318001	0.500267	1.058518
H137	H	-0.624757	0.000176	0.018129
H138	H	-0.124757	0.500176	0.518129
H139	H	-0.896407	-0.665643	-0.168731
H140	H	-0.396407	-0.165643	0.331269
F141	F	-0.687356	0.000241	0.538685
F142	F	-0.187356	0.500241	1.038685
F143	F	-0.906852	-0.185895	-0.179245
F144	F	-0.406852	0.314105	0.320755
H145	H	-0.932752	0.000298	0.580630
H146	H	-0.432752	0.500298	1.080630
F147	F	-0.733565	-0.813588	-0.005731
F148	F	-0.233565	-0.313588	0.494269
H149	H	-0.744046	-0.665762	-0.016242
H150	H	-0.244046	-0.165762	0.483758
H151	H	-0.707680	0.000222	0.234407
H152	H	-0.207680	0.500222	0.734407
F153	F	-0.600925	0.000225	-0.227535
F154	F	-0.100925	0.500225	0.272465
H155	H	-0.909176	0.077255	0.353569
H156	H	-0.409176	0.577255	0.853569
H157	H	-0.706601	-0.568943	-0.089305
H158	H	-0.206601	-0.068943	0.410695
H159	H	-0.930823	0.000321	0.712056
H160	H	-0.430823	0.500321	1.212056
F161	F	-0.685162	0.000253	0.688228
F162	F	-0.185162	0.500253	1.188228
F163	F	-0.039500	0.000257	0.042562
F164	F	0.460500	0.500257	0.542562
H165	H	-0.147101	0.000272	-0.205027
H166	H	0.352899	0.500272	0.294973
H167	H	-0.744012	-0.195549	-0.016227
H168	H	-0.244012	0.304451	0.483773
H169	H	-0.933832	-0.568822	-0.095674
H170	H	-0.433832	-0.068822	0.404326
F171	F	-0.733524	-0.343378	-0.005731
F172	F	-0.233524	0.156622	0.494269
H173	H	-0.896381	-0.333719	-0.168722
H174	H	-0.396381	0.166281	0.331278
H175	H	-0.907245	0.077268	0.485001
H176	H	-0.407245	0.577268	0.985001
H177	H	-0.896429	-0.803928	-0.168720
H178	H	-0.396429	-0.303928	0.331280
F179	F	-0.955265	0.000276	0.126806
F180	F	-0.455265	0.500276	0.626806
H181	H	-0.731250	-0.076741	0.461457
H182	H	-0.231250	0.423259	0.961457
F183	F	-0.690938	-0.421138	-0.088816
F184	F	-0.190938	0.078862	0.411184
F185	F	-0.381532	-0.087344	-0.193692
F186	F	0.118468	0.412656	0.306308
H187	H	-0.242671	-0.076720	-0.179505
H188	H	0.257329	0.423280	0.320495
F189	F	-0.953070	0.000281	0.276349
F190	F	-0.453070	0.500281	0.776349
F191	F	-0.721188	-0.087372	0.319354
F192	F	-0.221188	0.412628	0.819354
F193	F	-0.451382	0.000237	-0.225342
F194	F	0.048618	0.500237	0.274658
H195	H	-0.015674	0.000284	-0.203099
H196	H	0.484326	0.500284	0.296901
F197	F	-0.189044	0.000241	0.040370
F198	F	0.310956	0.500241	0.540370
H199	H	-0.933822	-0.430531	-0.095672
H200	H	-0.433822	0.069469	0.404328
H201	H	-0.266331	0.077228	-0.003544
H202	H	0.233669	0.577228	0.496456
H203	H	-0.397755	0.077211	-0.005468
H204	H	0.102245	0.577211	0.494532
H205	H	-0.493322	0.000212	0.020048
H206	H	0.006678	0.500212	0.520048
F207	F	-0.693906	0.000216	0.091794
F208	F	-0.193906	0.500216	0.591794
