data_functionalizedCrystal
_audit_creation_method	'MofGen! by Chris Wilmer'
_symmetry_space_group_name_H-M	'P1'
_symmetry_Int_Tables_number	1
_symmetry_cell_setting	triclinic
loop_
_symmetry_equiv_pos_as_xyz
  x,y,z
_cell_length_a	11.792254
_cell_length_b	14.044190
_cell_length_c	13.101018
_cell_angle_alpha	93.660631
_cell_angle_beta	86.614495
_cell_angle_gamma	88.695187
loop_
_atom_site_label
_atom_site_type_symbol
_atom_site_fract_x
_atom_site_fract_y
_atom_site_fract_z
O1	O	1.524837	0.124846	-0.085226
O2	O	1.195755	0.138229	-0.085230
O3	O	1.355351	-0.006472	-0.085208
O4	O	1.365241	0.269547	-0.085248
O5	O	1.343887	0.003920	0.085221
O6	O	1.184291	0.148621	0.085199
O7	O	1.513373	0.135237	0.085203
Zn8	Zn	1.347012	0.143579	0.112260
Zn9	Zn	1.362117	0.129888	-0.112287
O10	O	1.353777	0.279938	0.085181
C11	C	1.147653	0.142582	-0.000015
C12	C	1.021403	0.140058	-0.000016
C13	C	0.918874	0.138008	-0.000020
C14	C	0.790247	0.135444	-0.000020
C15	C	1.345294	-0.036613	0.000010
C16	C	1.332391	-0.141905	0.000018
C17	C	1.400311	-0.391842	-0.000021
C18	C	1.308823	-0.334686	-0.000015
C19	C	1.321939	-0.227413	0.000004
C20	C	1.387196	-0.499126	-0.000039
C21	C	1.561475	0.130884	-0.000014
C22	C	1.687726	0.133407	-0.000020
C23	C	1.363835	0.310079	-0.000039
C24	C	1.376738	0.415371	-0.000054
N25	N	1.336711	0.152922	0.265508
N26	N	1.372425	0.120537	-0.265535
C27	C	1.386433	0.107822	0.525424
C28	C	1.322707	0.165634	0.474543
C29	C	1.330501	0.158559	0.358225
C30	C	1.378640	0.114896	0.641752
H31	H	1.220648	-0.366319	-0.000022
C32	C	1.517978	-0.349858	-0.000057
C33	C	1.599817	-0.423672	-0.000089
C34	C	1.708223	-0.385020	-0.000134
H35	H	1.523040	-0.308104	0.059366
H36	H	1.530945	-0.315333	-0.059506
H37	H	1.586855	-0.458180	0.059354
H38	H	1.594792	-0.465431	-0.059508
H39	H	1.721190	-0.350496	-0.059583
H40	H	1.713273	-0.343267	0.059290
H41	H	1.763765	-0.435097	-0.000165
H42	H	1.446840	0.053018	0.481633
C43	C	1.242271	0.238691	0.533117
C44	C	1.250462	0.231302	0.638514
C45	C	1.176399	0.298594	0.692508
H46	H	1.166532	0.227032	0.515731
H47	H	1.262229	0.301019	0.515644
H48	H	1.230497	0.168989	0.655980
H49	H	1.326184	0.242970	0.655930
H50	H	1.196358	0.360921	0.675035
H51	H	1.100665	0.286929	0.675115
H52	H	1.181954	0.293595	0.764026
