data_functionalizedCrystal
_audit_creation_method	'MofGen! by Chris Wilmer'
_symmetry_space_group_name_H-M	'P1'
_symmetry_Int_Tables_number	1
_symmetry_cell_setting	triclinic
loop_
_symmetry_equiv_pos_as_xyz
  x,y,z
_cell_length_a	16.120484
_cell_length_b	13.032831
_cell_length_c	13.032268
_cell_angle_alpha	90.886977
_cell_angle_beta	80.357249
_cell_angle_gamma	93.921479
loop_
_atom_site_label
_atom_site_type_symbol
_atom_site_fract_x
_atom_site_fract_y
_atom_site_fract_z
Zn1	Zn	-0.562103	-1.458766	0.811459
Zn2	Zn	-0.062103	-0.958766	1.311459
Zn3	Zn	-0.686112	-1.471747	0.646236
Zn4	Zn	-0.186112	-0.971747	1.146236
Zn5	Zn	-0.527333	-1.311081	0.615806
Zn6	Zn	-0.027333	-0.811081	1.115806
Zn7	Zn	-0.681612	-1.278313	0.796116
Zn8	Zn	-0.181612	-0.778313	1.296116
O9	O	-0.614290	-1.379976	0.717404
O10	O	-0.114290	-0.879976	1.217404
O11	O	-0.594988	-1.603247	0.808698
O12	O	-0.094988	-1.103247	1.308698
O13	O	-0.652382	-1.469580	0.497592
O14	O	-0.152382	-0.969580	0.997592
O15	O	-0.415480	-1.338953	0.635446
O16	O	0.084520	-0.838953	1.135446
O17	O	-0.686097	-1.612784	0.687309
O18	O	-0.186097	-1.112784	1.187309
O19	O	-0.441026	-1.447456	0.779192
O20	O	0.058974	-0.947456	1.279192
O21	O	-0.535727	-1.351539	0.475236
O22	O	-0.035727	-0.851539	0.975236
O23	O	-0.531364	-1.163974	0.620568
O24	O	-0.031364	-0.663974	1.120568
O25	O	-0.678427	-1.283104	0.942758
O26	O	-0.178427	-0.783104	1.442758
O27	O	-0.644712	-1.139900	0.753041
O28	O	-0.144712	-0.639900	1.253041
O29	O	-0.590624	-1.415682	0.954031
O30	O	-0.090624	-0.915682	1.454031
O31	O	-0.801980	-1.437806	0.672431
O32	O	-0.301980	-0.937806	1.172431
O33	O	-0.798674	-1.295691	0.782547
O34	O	-0.298674	-0.795691	1.282547
C35	C	-0.583777	-1.114921	0.681838
C36	C	-0.083777	-0.614921	1.181838
C37	C	-0.570746	-1.001525	0.666648
C38	C	-0.070746	-0.501525	1.166648
C39	C	-0.830530	-1.364626	0.729153
C40	C	-0.330530	-0.864626	1.229153
C41	C	-0.923053	-1.358148	0.734226
C42	C	-0.423053	-0.858148	1.234226
C43	C	-0.637902	-1.344290	0.986938
C44	C	-0.137902	-0.844290	1.486938
C45	C	-0.647964	-1.329082	1.101797
C46	C	-0.147964	-0.829082	1.601797
C47	C	-1.092455	-1.346324	0.743510
C48	C	-0.592455	-0.846324	1.243510
C49	C	-1.135307	-1.413810	0.691340
C50	C	-0.635307	-0.913810	1.191340
C51	C	-1.229569	-1.407231	0.696506
C52	C	-0.729569	-0.907231	1.196506
C53	C	-0.998185	-1.352901	0.738345
C54	C	-0.498185	-0.852901	1.238345
C55	C	-0.397210	-1.395412	0.705636
C56	C	0.102790	-0.895412	1.205636
C57	C	-0.304704	-1.401989	0.700622
C58	C	0.195296	-0.901989	1.200622
C59	C	-0.644923	-1.646067	0.753110
C60	C	-0.144923	-1.146067	1.253110
C61	C	-0.657977	-1.759458	0.768325
C62	C	-0.157977	-1.259458	1.268325
C63	C	-0.621091	-0.939092	0.725332
C64	C	-0.121091	-0.439092	1.225332
C65	C	-0.607624	-0.821890	0.709634
C66	C	-0.107624	-0.321890	1.209634
C67	C	-0.590717	-1.415587	0.448924
C68	C	-0.090717	-0.915587	0.948924
C69	C	-0.580443	-1.431009	0.334079
C70	C	-0.080443	-0.931009	0.834079
C71	C	-0.609007	-1.387900	1.158582
C72	C	-0.109007	-0.887900	1.658582
C73	C	-0.619405	-1.372183	1.277296
C74	C	-0.119405	-0.872183	1.777296
H75	H	-1.126557	-1.283610	0.792048
H76	H	-0.626557	-0.783610	1.292048
O77	O	-0.526064	-1.513136	1.282084
O78	O	-0.026064	-1.013136	1.782084
H79	H	-0.526434	-1.512602	1.197003
H80	H	-0.026434	-1.012602	1.697003
H81	H	-0.554544	-0.788578	0.647771
H82	H	-0.054544	-0.288578	1.147771
H83	H	-1.101202	-1.476527	0.642796
H84	H	-0.601202	-0.976527	1.142796
O85	O	-0.728281	-0.803575	0.850281
O86	O	-0.228281	-0.303575	1.350281
H87	H	-0.763106	-0.740011	0.890885
H88	H	-0.263106	-0.240011	1.390885
O89	O	-0.691379	-0.983205	0.807305
O90	O	-0.191379	-0.483205	1.307305
H91	H	-0.690920	-1.068336	0.806779
H92	H	-0.190920	-0.568336	1.306779
H93	H	-0.517670	-0.968208	0.604790
H94	H	-0.017670	-0.468208	1.104790
O95	O	-0.554633	-1.470025	1.106581
O96	O	-0.054633	-0.970025	1.606581
H97	H	-0.555006	-1.469489	1.021501
H98	H	-0.055006	-0.969489	1.521501
O99	O	-0.702338	-1.246962	1.153807
O100	O	-0.202338	-0.746962	1.653807
H101	H	-0.729287	-1.206261	1.094152
H102	H	-0.229287	-0.706261	1.594152
O103	O	-0.673786	-1.290058	1.329293
O104	O	-0.173786	-0.790058	1.829293
H105	H	-0.673423	-1.290604	1.414375
H106	H	-0.173423	-0.790604	1.914375
