data_functionalizedCrystal
_audit_creation_method	'MofGen! by Chris Wilmer'
_symmetry_space_group_name_H-M	'P1'
_symmetry_Int_Tables_number	1
_symmetry_cell_setting	triclinic
loop_
_symmetry_equiv_pos_as_xyz
  x,y,z
_cell_length_a	12.784905
_cell_length_b	23.532407
_cell_length_c	11.892052
_cell_angle_alpha	94.397395
_cell_angle_beta	94.703478
_cell_angle_gamma	77.977998
loop_
_atom_site_label
_atom_site_type_symbol
_atom_site_fract_x
_atom_site_fract_y
_atom_site_fract_z
O1	O	1.416308	0.006522	0.094012
O2	O	1.106596	0.030925	0.094017
O3	O	1.270790	-0.064643	0.093994
O4	O	1.252114	0.102090	0.094036
O5	O	1.258715	-0.070550	-0.094017
O6	O	1.094521	0.025018	-0.093993
O7	O	1.404233	0.000616	-0.093998
Zn8	Zn	1.247460	0.011879	-0.123847
Zn9	Zn	1.263369	0.019661	0.123865
O10	O	1.240039	0.096184	-0.093975
C11	C	1.060942	0.029558	0.000012
C12	C	0.942899	0.034280	0.000013
C13	C	1.264277	-0.088790	-0.000014
C14	C	1.262846	-0.151941	-0.000023
C15	C	0.747530	-0.061926	0.000009
C16	C	0.636618	-0.057492	0.000010
C17	C	0.610162	0.047583	0.000024
C18	C	0.721074	0.043148	0.000023
C19	C	0.789754	-0.011608	0.000014
C20	C	0.900667	-0.016042	0.000005
C21	C	0.874210	0.089033	0.000027
C22	C	0.763298	0.093467	0.000028
C23	C	1.351048	-0.555143	0.000038
C24	C	1.349720	-0.614481	0.000046
O25	O	1.431483	-0.655025	0.000087
N26	N	1.252106	-0.632569	0.000047
C27	C	1.155814	-0.591314	0.000051
O28	O	1.072663	-0.612148	0.000053
C29	C	1.157143	-0.531977	0.000050
C30	C	1.254763	-0.513893	0.000038
C31	C	1.448660	-0.537058	0.000027
C32	C	1.449987	-0.477724	0.000016
C33	C	1.353702	-0.436475	0.000016
C34	C	1.256091	-0.454559	0.000027
C35	C	1.060853	-0.490724	0.000062
C36	C	1.062191	-0.431383	0.000062
C37	C	1.159811	-0.413300	0.000050
C38	C	1.161133	-0.353976	0.000017
N39	N	1.258747	-0.335888	0.000016
C40	C	1.355032	-0.377137	0.000016
C41	C	1.153029	-0.715927	0.000054
C42	C	1.151698	-0.775264	0.000046
C43	C	1.345605	-0.798426	0.000044
C44	C	1.346934	-0.739089	0.000043
C45	C	1.250643	-0.697839	0.000053
C46	C	1.357812	-0.252531	-0.000008
C47	C	1.359131	-0.193190	-0.000023
C48	C	1.165225	-0.170033	-0.000015
C49	C	1.163906	-0.229368	-0.000006
C50	C	1.260208	-0.270616	0.000002
O51	O	1.079414	-0.313399	-0.000019
O52	O	1.438170	-0.356294	0.000028
C53	C	1.449887	0.001982	0.000009
C54	C	1.567931	-0.002740	0.000016
C55	C	1.246552	0.120331	0.000036
C56	C	1.247984	0.183482	0.000052
N57	N	1.236610	0.006567	-0.292903
C58	C	1.161121	-0.030388	-0.470459
C59	C	1.168695	-0.026676	-0.352115
C60	C	1.296957	0.036100	-0.352044
C61	C	1.289382	0.032388	-0.470388
C62	C	1.221460	-0.000856	-0.529591
C63	C	1.213881	-0.004564	-0.647937
C64	C	1.342147	0.058208	-0.647864
C65	C	1.349722	0.061920	-0.529520
N66	N	1.274227	0.024968	0.292922
H67	H	0.956586	-0.060627	-0.000004
C68	C	0.762545	-0.165343	-0.000005
C69	C	0.823030	-0.122112	0.000001
H70	H	0.809158	-0.202499	-0.000002
H71	H	0.714531	-0.163491	-0.065566
H72	H	0.722940	-0.159363	0.065561
H73	H	0.862630	-0.128089	-0.065571
H74	H	0.871064	-0.123966	0.065568
C75	C	0.547248	0.135475	-0.096595
C76	C	0.534665	0.107769	0.000046
H77	H	0.500645	0.172634	-0.096573
H78	H	0.530283	0.112558	-0.162150
H79	H	0.619350	0.140031	-0.096589
H80	H	0.462565	0.103209	0.000037
H81	H	0.551623	0.130692	0.065618
H82	H	1.158572	-0.031631	-0.696138
H83	H	1.074612	-0.682344	0.000052
H84	H	1.352265	0.063160	-0.303820
C85	C	1.063542	-0.855931	0.000052
C86	C	1.044391	-0.795138	0.000046
H87	H	0.997292	-0.868198	0.000050
H88	H	1.107361	-0.868346	0.065612
H89	H	1.098947	-0.872478	-0.065515
H90	H	1.008993	-0.778591	0.065618
H91	H	1.000555	-0.782718	-0.065521
H92	H	1.426425	-0.724370	0.000034
H93	H	1.105807	-0.057451	-0.518663
H94	H	0.981361	-0.505436	0.000078
C95	C	0.870388	-0.414453	0.000077
C96	C	0.956342	-0.386043	0.000068
H97	H	0.805043	-0.386461	0.000072
H98	H	0.878120	-0.436011	0.065639
H99	H	0.869699	-0.440147	-0.065488
H100	H	0.957035	-0.360352	0.065637
H101	H	0.948608	-0.364475	-0.065501
H102	H	1.527071	-0.570639	0.000031
C103	C	1.041147	-0.089095	-0.364077
C104	C	1.102362	-0.059135	-0.287115
H105	H	1.000191	-0.109131	-0.323947
H106	H	1.087380	-0.116300	-0.410231
H107	H	0.994343	-0.062169	-0.410236
H108	H	1.149173	-0.086061	-0.240962
H109	H	1.056125	-0.031927	-0.240942
C110	C	0.712800	0.187432	0.096690
C111	C	0.687796	0.153652	0.000039
H112	H	0.666184	0.224587	0.096696
H113	H	0.784888	0.191993	0.096678
H114	H	0.704267	0.168628	0.162245
H115	H	0.696337	0.172453	-0.065517
H116	H	0.615691	0.149093	0.000040
H117	H	0.602245	-0.098467	0.000008
H118	H	1.391273	0.082259	-0.696022
C119	C	1.418283	0.095485	-0.348075
C120	C	1.424375	0.098462	-0.464437
H121	H	1.464366	0.118050	-0.307900
H122	H	1.439703	0.056138	-0.328705
H123	H	1.346648	0.110259	-0.328704
H124	H	1.496009	0.083685	-0.483810
H125	H	1.402960	0.137818	-0.483816
H126	H	0.908599	0.130006	0.000025
C127	C	1.531025	-0.191622	0.096626
C128	C	1.466441	-0.173313	-0.000028
H129	H	1.597268	-0.179347	0.096626
H130	H	1.544007	-0.232859	0.096623
H131	H	1.495604	-0.175066	0.162179
H132	H	1.501858	-0.189872	-0.065581
H133	H	1.453462	-0.132067	-0.000035
C134	C	1.475053	-0.329644	0.096650
C135	C	1.463669	-0.297864	-0.000004
H136	H	1.540407	-0.357629	0.096647
H137	H	1.416745	-0.348913	0.096649
H138	H	1.475747	-0.303943	0.162203
H139	H	1.462967	-0.323566	-0.065558
H140	H	1.521993	-0.278595	-0.000015
C141	C	1.621872	-0.476168	0.096673
C142	C	1.557296	-0.457851	0.000019
H143	H	1.688121	-0.463899	0.096679
H144	H	1.634842	-0.517405	0.096665
H145	H	1.586452	-0.459612	0.162226
H146	H	1.592713	-0.474411	-0.065534
H147	H	1.544329	-0.416606	0.000017
C148	C	0.972372	-0.200510	0.000008
C149	C	1.056602	-0.249249	0.000009
H150	H	0.906129	-0.212781	0.000034
H151	H	0.972705	-0.179920	-0.065563
H152	H	0.981150	-0.175777	0.065564
H153	H	1.047828	-0.273980	-0.065552
H154	H	1.056267	-0.269848	0.065587
C155	C	1.060464	-0.086820	0.096644
C156	C	1.059393	-0.124684	-0.000007
H157	H	0.995125	-0.058825	0.096657
H158	H	1.118789	-0.067564	0.096625
H159	H	1.068188	-0.108392	0.162199
H160	H	1.051676	-0.103112	-0.065562
H161	H	1.001051	-0.143941	0.000002
C162	C	1.462798	-0.875547	0.096719
C163	C	1.451449	-0.843773	0.000061
H164	H	1.528142	-0.903540	0.096732
H165	H	1.404475	-0.894806	0.096710
H166	H	1.463493	-0.849844	0.162270
H167	H	1.450747	-0.869476	-0.065489
H168	H	1.509788	-0.824514	0.000060
