data_functionalizedCrystal
_audit_creation_method	'MofGen! by Chris Wilmer'
_symmetry_space_group_name_H-M	'P1'
_symmetry_Int_Tables_number	1
_symmetry_cell_setting	triclinic
loop_
_symmetry_equiv_pos_as_xyz
  x,y,z
_cell_length_a	9.482900
_cell_length_b	9.065218
_cell_length_c	9.065218
_cell_angle_alpha	85.015885
_cell_angle_beta	99.475219
_cell_angle_gamma	80.570867
loop_
_atom_site_label
_atom_site_type_symbol
_atom_site_fract_x
_atom_site_fract_y
_atom_site_fract_z
O1	O	0.120893	-1.983090	-0.193561
O2	O	0.620893	-1.483090	0.306439
O3	O	0.120895	-1.553806	-0.211307
O4	O	0.620895	-1.053806	0.288693
O5	O	0.120891	-1.777321	0.012208
O6	O	0.620891	-1.277321	0.512208
O7	O	0.120897	-1.759575	-0.417076
O8	O	0.620897	-1.259575	0.082924
O9	O	-0.120901	-1.731922	-0.033378
O10	O	0.379099	-1.231922	0.466622
O11	O	-0.120897	-1.508407	-0.256893
O12	O	0.379103	-1.008407	0.243107
O13	O	-0.120899	-1.937692	-0.239147
O14	O	0.379101	-1.437692	0.260853
Cu15	Cu	-0.142975	-1.718904	-0.252182
Cu16	Cu	0.357025	-1.218904	0.247818
Cu17	Cu	0.142971	-1.772593	-0.198272
Cu18	Cu	0.642971	-1.272593	0.301728
O19	O	-0.120895	-1.714177	-0.462661
O20	O	0.379105	-1.214177	0.037339
C21	C	-0.000001	-1.476120	-0.232394
C22	C	0.499999	-0.976120	0.267606
C23	C	-0.000000	-1.312277	-0.227295
C24	C	0.500000	-0.812277	0.272705
N25	N	-0.344095	-1.681153	-0.290099
N26	N	0.155905	-1.181153	0.209901
C27	C	-0.000003	-1.752916	0.044402
C28	C	0.499997	-1.252916	0.544402
C29	C	0.000004	-1.747818	0.208246
C30	C	0.500004	-1.247818	0.708246
C31	C	-0.416296	-1.761448	-0.209448
C32	C	0.083704	-1.261448	0.290552
C33	C	-0.583712	-1.730049	-0.241007
C34	C	-0.083712	-1.230049	0.258993
N35	N	0.344091	-1.810356	-0.160343
N36	N	0.844091	-1.310356	0.339657
C37	C	0.000000	-2.015378	-0.218059
C38	C	0.500000	-1.515378	0.281941
C39	C	0.000009	-2.179223	-0.223157
C40	C	0.500009	-1.679223	0.276843
C41	C	0.000002	-1.738582	-0.494855
C42	C	0.500002	-1.238582	0.005145
C43	C	0.000004	-1.743682	-0.658698
C44	C	0.500004	-1.243682	-0.158698
H45	H	-0.354169	-1.853432	-0.117029
H46	H	0.145831	-1.353432	0.382971
Br47	Br	-0.447634	-1.527815	-0.444119
Br48	Br	0.052366	-1.027815	0.055881
Br49	Br	-0.687245	-1.576705	-0.395033
Br50	Br	-0.187245	-1.076705	0.104967
H51	H	-0.593786	-1.902346	-0.067919
H52	H	-0.093786	-1.402346	0.432081
