data_functionalizedCrystal
_audit_creation_method	'MofGen! by Chris Wilmer'
_symmetry_space_group_name_H-M	'P1'
_symmetry_Int_Tables_number	1
_symmetry_cell_setting	triclinic
loop_
_symmetry_equiv_pos_as_xyz
  x,y,z
_cell_length_a	18.050591
_cell_length_b	19.121063
_cell_length_c	18.050582
_cell_angle_alpha	92.415032
_cell_angle_beta	89.979078
_cell_angle_gamma	92.465257
loop_
_atom_site_label
_atom_site_type_symbol
_atom_site_fract_x
_atom_site_fract_y
_atom_site_fract_z
Zn1	Zn	1.122676	-0.279734	-0.432630
Zn2	Zn	1.117290	-0.397178	-0.313729
Zn3	Zn	0.998495	-0.279737	-0.308441
Zn4	Zn	0.993148	-0.397141	-0.437863
O5	O	1.057903	-0.338447	-0.373166
O6	O	1.225886	-0.295327	-0.416880
O7	O	1.101515	-0.381616	-0.209104
O8	O	1.019460	-0.181452	-0.320512
O9	O	1.221929	-0.381613	-0.329524
O10	O	1.110695	-0.181449	-0.411753
O11	O	1.014237	-0.295332	-0.205219
O12	O	0.893862	-0.295296	-0.325586
O13	O	1.010347	-0.381550	-0.541093
O14	O	0.889934	-0.381552	-0.420672
O15	O	1.105510	-0.295291	-0.537248
O16	O	1.096331	-0.495458	-0.334599
O17	O	1.005124	-0.495430	-0.425799
C18	C	0.864952	-0.338421	-0.373123
C19	C	0.782406	-0.338427	-0.373124
C20	C	0.585072	-0.291466	-0.321528
C21	C	0.532763	-0.355526	-0.306137
C22	C	0.631274	-0.338448	-0.373158
C23	C	0.536500	-0.274410	-0.388548
C24	C	0.485288	-0.338463	-0.373190
C25	C	0.580051	-0.402542	-0.357733
C26	C	0.583794	-0.321383	-0.440174
C27	C	0.531506	-0.385487	-0.424811
C28	C	0.715373	-0.338439	-0.373138
C29	C	0.401191	-0.338480	-0.373211
C30	C	1.049583	-0.520928	-0.381357
C31	C	1.046092	-0.598994	-0.384886
C32	C	1.091975	-0.635661	-0.339100
C33	C	1.088695	-0.709012	-0.342424
C34	C	1.039529	-0.745696	-0.391530
C35	C	0.993644	-0.709024	-0.437321
C36	C	0.996928	-0.635674	-0.434001
C37	C	1.027241	-0.967166	-0.403932
C38	C	1.023960	-1.040521	-0.407247
C39	C	1.119012	-1.040504	-0.312351
C40	C	1.122288	-0.967153	-0.309032
C41	C	1.076406	-0.930487	-0.354825
C42	C	1.036174	-0.820673	-0.394927
C43	C	1.079765	-0.855512	-0.351432
C44	C	1.251607	-0.338474	-0.373208
C45	C	1.334152	-0.338485	-0.373227
C46	C	1.057933	-0.338416	-0.566870
C47	C	1.057946	-0.338403	-0.649415
C48	C	1.066275	-0.155254	-0.364959
C49	C	1.069843	-0.077188	-0.361461
C50	C	1.006237	-0.385246	-0.850954
C51	C	1.073218	-0.402419	-0.901126
C52	C	1.057985	-0.338349	-0.800543
C53	C	0.991042	-0.321157	-0.897452
C54	C	1.058017	-0.338299	-0.946526
C55	C	1.125000	-0.355556	-0.849629
C56	C	1.042780	-0.274264	-0.845950
C57	C	1.109809	-0.291412	-0.896099
C58	C	1.057966	-0.338380	-0.716446
C59	C	1.058044	-0.338268	-1.030621
C60	C	1.057917	-0.338428	-0.180213
C61	C	1.058057	-0.338243	-0.097659
H62	H	0.517235	-0.220255	-0.401527
H63	H	0.934417	-0.306637	-0.918486
C64	C	1.168926	-1.080347	-0.262769
C65	C	1.214630	-1.122381	-0.306776
C66	C	1.260634	-1.159085	-0.261129
H67	H	1.139348	-1.109059	-0.231662
H68	H	1.198721	-1.048013	-0.233065
H69	H	1.184838	-1.154711	-0.336466
H70	H	1.244223	-1.093686	-0.337882
H71	H	1.290428	-1.126752	-0.231426
H72	H	1.231050	-1.187794	-0.230024
H73	H	1.291653	-1.187605	-0.290981
C74	C	0.500552	-0.438591	-0.483062
C75	C	0.559113	-0.471888	-0.518739
C76	C	0.530625	-0.520820	-0.572393
H77	H	0.472672	-0.415324	-0.518435
H78	H	0.469389	-0.472473	-0.459878
H79	H	0.590264	-0.438011	-0.541923
H80	H	0.586998	-0.495169	-0.483386
H81	H	0.499462	-0.554702	-0.549209
H82	H	0.502746	-0.497547	-0.607760
H83	H	0.570354	-0.543422	-0.596602
H84	H	1.086097	-0.456593	-0.925266
H85	H	0.996142	-0.850549	-0.434907
H86	H	1.181639	-0.370137	-0.828690
H87	H	0.510374	-0.369971	-0.249476
H88	H	1.162323	-0.937286	-0.269045
C89	C	0.970559	-1.080224	-0.460647
C90	C	0.931095	-1.032416	-0.500057
C91	C	0.881907	-1.068964	-0.549259
H92	H	0.936869	-1.108880	-0.433588
H93	H	0.997658	-1.108785	-0.494361
H94	H	0.903998	-1.003867	-0.466348
H95	H	0.964766	-1.003759	-0.527132
H96	H	0.909006	-1.097525	-0.582973
H97	H	0.848221	-1.097619	-0.522194
H98	H	0.855130	-1.036532	-0.576010
C99	C	1.138448	-0.748974	-0.292794
C100	C	1.094628	-0.791232	-0.247074
C101	C	1.140466	-0.828088	-0.201406
H102	H	1.168270	-0.716753	-0.263001
H103	H	1.169439	-0.777543	-0.322626
H104	H	1.063650	-0.762664	-0.217245
H105	H	1.064808	-0.823465	-0.276846
H106	H	1.171457	-0.856658	-0.231238
H107	H	1.170285	-0.795863	-0.171619
H108	H	1.110741	-0.856769	-0.170385
C109	C	1.145430	-0.595963	-0.285759
C110	C	1.184924	-0.643778	-0.246388
C111	C	1.234183	-0.607236	-0.197250
H112	H	1.118405	-0.567386	-0.252012
H113	H	1.179092	-0.567324	-0.312887
H114	H	1.151267	-0.672404	-0.219261
H115	H	1.211965	-0.672356	-0.280115
H116	H	1.267845	-0.578597	-0.224378
H117	H	1.207151	-0.578660	-0.163508
H118	H	1.260990	-0.639672	-0.170536
H119	H	0.599186	-0.456720	-0.344666
H120	H	0.962512	-0.424957	-0.831065
C121	C	1.168352	-0.238595	-0.922410
C122	C	1.238296	-0.256893	-0.898097
C123	C	1.292246	-0.208264	-0.922330
H124	H	1.158045	-0.193198	-0.902718
H125	H	1.167819	-0.238602	-0.975040
H126	H	1.238828	-0.256879	-0.845477
H127	H	1.248627	-0.302282	-0.917786
H128	H	1.291713	-0.208270	-0.974961
H129	H	1.281932	-0.162870	-0.902637
H130	H	1.339710	-0.220676	-0.905844
H131	H	0.989881	-0.937319	-0.441218
C132	C	1.025428	-0.202076	-0.813772
C133	C	0.955224	-0.184372	-0.837930
C134	C	0.939201	-0.117883	-0.808292
H135	H	1.061644	-0.168553	-0.829883
H136	H	1.025953	-0.202509	-0.761163
H137	H	0.954705	-0.183933	-0.890528
H138	H	0.918994	-0.217876	-0.821820
H139	H	0.939725	-0.118316	-0.755684
H140	H	0.975421	-0.084366	-0.824405
H141	H	0.891564	-0.105865	-0.824674
C142	C	0.940285	-0.748976	-0.490561
C143	C	0.947212	-0.821062	-0.483655
C144	C	0.898060	-0.857885	-0.532680
H145	H	0.951608	-0.737005	-0.539960
H146	H	0.890912	-0.737035	-0.479093
H147	H	0.996574	-0.832998	-0.495129
H148	H	0.935882	-0.833053	-0.434268
H149	H	0.848687	-0.845944	-0.521212
H150	H	0.909388	-0.845909	-0.582076
H151	H	0.902749	-0.906799	-0.527996
H152	H	0.959566	-0.605821	-0.471285
H153	H	1.119799	-0.825642	-0.311452
C154	C	0.616298	-0.238637	-0.263142
C155	C	0.590410	-0.256844	-0.193107
C156	C	0.619167	-0.208203	-0.139304
H157	H	0.600746	-0.193229	-0.273498
H158	H	0.668924	-0.238710	-0.263789
H159	H	0.537795	-0.256764	-0.192463
H160	H	0.605961	-0.302244	-0.182728
H161	H	0.671793	-0.208275	-0.139950
H162	H	0.603613	-0.162798	-0.149667
H163	H	0.601612	-0.220553	-0.091779
H164	H	0.606202	-0.306918	-0.496817
