data_functionalizedCrystal
_audit_creation_method	'MofGen! by Chris Wilmer'
_symmetry_space_group_name_H-M	'P1'
_symmetry_Int_Tables_number	1
_symmetry_cell_setting	triclinic
loop_
_symmetry_equiv_pos_as_xyz
  x,y,z
_cell_length_a	25.639239
_cell_length_b	25.639243
_cell_length_c	25.639234
_cell_angle_alpha	90.020836
_cell_angle_beta	89.975416
_cell_angle_gamma	89.958634
loop_
_atom_site_label
_atom_site_type_symbol
_atom_site_fract_x
_atom_site_fract_y
_atom_site_fract_z
Zn1	Zn	-0.208147	-0.799250	-0.295656
Zn2	Zn	-0.295575	-0.799166	-0.208221
Zn3	Zn	-0.208159	-0.711819	-0.208230
Zn4	Zn	-0.295557	-0.711771	-0.295620
O5	O	-0.251859	-0.755502	-0.251932
O6	O	-0.219747	-0.872404	-0.284069
O7	O	-0.283991	-0.787564	-0.135057
O8	O	-0.134992	-0.723472	-0.219846
O9	O	-0.283979	-0.872342	-0.219831
O10	O	-0.134983	-0.787707	-0.284078
O11	O	-0.219767	-0.723391	-0.135063
O12	O	-0.219750	-0.638647	-0.219811
O13	O	-0.283950	-0.723391	-0.368790
O14	O	-0.283961	-0.638613	-0.284016
O15	O	-0.219730	-0.787661	-0.368817
O16	O	-0.368738	-0.787518	-0.219795
O17	O	-0.368725	-0.723310	-0.284007
C18	C	-0.251856	-0.619659	-0.251911
C19	C	-0.251867	-0.561545	-0.251914
C20	C	-0.218466	-0.201208	-0.285436
C21	C	-0.218465	-0.146604	-0.285439
O22	O	-0.190057	-0.118390	-0.313915
N23	N	-0.251857	-0.119263	-0.251946
C24	C	-0.285249	-0.146528	-0.218443
O25	O	-0.313651	-0.118258	-0.189954
C26	C	-0.285246	-0.201131	-0.218437
C27	C	-0.251855	-0.228470	-0.251937
C28	C	-0.185077	-0.228547	-0.318933
C29	C	-0.185078	-0.283148	-0.318930
C30	C	-0.218468	-0.310410	-0.285431
C31	C	-0.251857	-0.283071	-0.251934
C32	C	-0.318634	-0.228396	-0.184932
C33	C	-0.318629	-0.283003	-0.184929
C34	C	-0.285238	-0.310342	-0.218429
C35	C	-0.285248	-0.364933	-0.218433
N36	N	-0.251855	-0.392275	-0.251926
C37	C	-0.218466	-0.365013	-0.285425
C38	C	-0.285251	-0.031857	-0.218456
C39	C	-0.285256	0.022745	-0.218464
C40	C	-0.218472	0.022665	-0.285460
C41	C	-0.218469	-0.031938	-0.285454
C42	C	-0.251858	-0.059199	-0.251950
C43	C	-0.218471	-0.479678	-0.285418
C44	C	-0.218477	-0.534283	-0.285414
C45	C	-0.285259	-0.534199	-0.218416
C46	C	-0.285256	-0.479598	-0.218422
C47	C	-0.251857	-0.452339	-0.251924
O48	O	-0.313640	-0.393182	-0.189970
O49	O	-0.190063	-0.393290	-0.313905
C50	C	-0.387702	-0.755414	-0.251908
C51	C	-0.445816	-0.755424	-0.251915
C52	C	-0.806173	-0.789022	-0.218554
C53	C	-0.860777	-0.789042	-0.218561
O54	O	-0.889009	-0.817518	-0.190169
N55	N	-0.888098	-0.755594	-0.251966
C56	C	-0.860812	-0.722126	-0.285371
O57	O	-0.889065	-0.693677	-0.313786
C58	C	-0.806209	-0.722109	-0.285366
C59	C	-0.778891	-0.755556	-0.251955
C60	C	-0.778855	-0.822467	-0.185145
C61	C	-0.724254	-0.822446	-0.185137
C62	C	-0.696972	-0.788980	-0.218538
C63	C	-0.724290	-0.755535	-0.251947
C64	C	-0.778924	-0.688644	-0.318773
C65	C	-0.724317	-0.688630	-0.318766
C66	C	-0.696999	-0.722077	-0.285354
C67	C	-0.642407	-0.722048	-0.285341
N68	N	-0.615086	-0.755497	-0.251935
C69	C	-0.642369	-0.788963	-0.218534
C70	C	-0.975483	-0.722165	-0.285379
C71	C	-1.030085	-0.722179	-0.285382
C72	C	-1.030047	-0.789097	-0.218572
C73	C	-0.975443	-0.789080	-0.218567
C74	C	-0.948162	-0.755614	-0.251973
C75	C	-0.527704	-0.788916	-0.218520
C76	C	-0.473098	-0.788890	-0.218514
C77	C	-0.473142	-0.721975	-0.285326
C78	C	-0.527742	-0.721998	-0.285330
C79	C	-0.555022	-0.755473	-0.251926
O80	O	-0.614141	-0.693588	-0.313719
O81	O	-0.614109	-0.817412	-0.190128
C82	C	-0.115486	-0.755604	-0.251967
C83	C	-0.057372	-0.755648	-0.251982
C84	C	-0.251836	-0.755530	-0.388305
C85	C	-0.251827	-0.755542	-0.446419
C86	C	-0.251863	0.108125	-0.251953
C87	C	-0.251864	0.050011	-0.251961
C88	C	-0.285225	-0.788971	-0.697601
C89	C	-0.285236	-0.788966	-0.642997
O90	O	-0.313690	-0.817364	-0.614751
N91	N	-0.251801	-0.755553	-0.615693
C92	C	-0.218357	-0.722141	-0.642996
O93	O	-0.189920	-0.693720	-0.614757
C94	C	-0.218349	-0.722144	-0.697599
C95	C	-0.251782	-0.755562	-0.724900
C96	C	-0.318656	-0.822386	-0.724903
C97	C	-0.318644	-0.822392	-0.779503
C98	C	-0.285201	-0.788983	-0.806802
C99	C	-0.251771	-0.755568	-0.779501
C100	C	-0.184908	-0.688729	-0.724901
C101	C	-0.184904	-0.688735	-0.779508
C102	C	-0.218337	-0.722153	-0.806810
C103	C	-0.218316	-0.722165	-0.861401
N104	N	-0.251751	-0.755578	-0.888705
C105	C	-0.285194	-0.788986	-0.861406
C106	C	-0.218377	-0.722136	-0.528325
C107	C	-0.218382	-0.722135	-0.473723
C108	C	-0.285261	-0.788959	-0.473728
C109	C	-0.285253	-0.788962	-0.528331
C110	C	-0.251812	-0.755548	-0.555629
C111	C	-0.285166	-0.788997	-0.976071
C112	C	-0.285150	-0.789002	-1.030676
C113	C	-0.218272	-0.722176	-1.030667
C114	C	-0.218287	-0.722173	-0.976066
C115	C	-0.251738	-0.755585	-0.948769
O116	O	-0.189878	-0.693780	-0.889681
O117	O	-0.313631	-0.817397	-0.889651
C118	C	-0.251845	-0.755503	-0.116089
C119	C	-0.251707	-0.755593	-0.057975
H120	H	-0.312451	-0.457338	-0.191150
H121	H	-0.702015	-0.849683	-0.157932
Cl122	Cl	-0.327233	-0.066123	-0.176335
Cl123	Cl	-0.561990	-0.830998	-0.176524
H124	H	-0.312375	-0.816217	-1.052903
Cl125	Cl	-0.176498	-0.568649	-0.327532
Cl126	Cl	-1.064421	-0.680123	-0.327381
Cl127	Cl	-0.813143	-0.864545	-0.143149
Cl128	Cl	-0.176232	-0.680179	-1.064996
Cl129	Cl	-0.941106	-0.831130	-0.176563
H130	H	-0.157887	-0.305402	-0.346208
Cl131	Cl	-1.064355	-0.831168	-0.176581
Cl132	Cl	-0.438834	-0.679908	-0.327316
Cl133	Cl	-0.176490	-0.066301	-0.327568
H134	H	-0.191274	-0.457490	-0.312697
Cl135	Cl	-0.327286	-0.830974	-0.562647
H136	H	-0.312402	-0.816208	-0.953853
Cl137	Cl	-0.941192	-0.680086	-0.327376
H138	H	-0.801157	-0.661405	-0.345978
H139	H	-0.702107	-0.661379	-0.345971
H140	H	-0.157684	-0.661516	-0.702682
Cl141	Cl	-0.360683	-0.864399	-0.813817
Cl142	Cl	-0.142856	-0.646729	-0.813822
Cl143	Cl	-0.143096	-0.194285	-0.361052
Cl144	Cl	-0.438759	-0.830942	-0.176508
H145	H	-0.191283	0.044871	-0.312735
Cl146	Cl	-0.327240	0.057107	-0.176353
Cl147	Cl	-0.360604	-0.194041	-0.142805
H148	H	-0.549986	-0.694764	-0.312538
H149	H	-0.345818	-0.305196	-0.157645
H150	H	-0.312445	-0.556405	-0.191143
Cl151	Cl	-0.360703	-0.864392	-0.690594
Cl152	Cl	-0.176250	-0.680167	-0.941743
Cl153	Cl	-0.327306	-0.830957	-0.439399
H154	H	-0.191151	-0.694929	-0.451499
H155	H	-0.191139	-0.694928	-0.550548
