data_functionalizedCrystal
_audit_creation_method	'MofGen! by Chris Wilmer'
_symmetry_space_group_name_H-M	'P1'
_symmetry_Int_Tables_number	1
_symmetry_cell_setting	triclinic
loop_
_symmetry_equiv_pos_as_xyz
  x,y,z
_cell_length_a	16.625547
_cell_length_b	16.625546
_cell_length_c	14.908308
_cell_angle_alpha	86.735930
_cell_angle_beta	86.726217
_cell_angle_gamma	90.022405
loop_
_atom_site_label
_atom_site_type_symbol
_atom_site_fract_x
_atom_site_fract_y
_atom_site_fract_z
Zn1	Zn	1.206347	-0.347302	0.510175
Zn2	Zn	1.214037	-0.474368	0.359314
Zn3	Zn	1.079295	-0.339553	0.359323
Zn4	Zn	1.071483	-0.482092	0.510110
O5	O	1.142791	-0.410829	0.434731
O6	O	1.320199	-0.364167	0.490186
O7	O	1.202651	-0.450009	0.233075
O8	O	1.096200	-0.227750	0.379365
O9	O	1.325848	-0.457522	0.379349
O10	O	1.189545	-0.233443	0.490195
O11	O	1.103657	-0.350961	0.233082
O12	O	0.965428	-0.358451	0.379302
O13	O	1.082885	-0.470688	0.636359
O14	O	0.959688	-0.463174	0.490085
O15	O	1.181969	-0.371658	0.636407
O16	O	1.195076	-0.588223	0.379287
O17	O	1.090342	-0.593899	0.490076
C18	C	0.933302	-0.410811	0.434688
C19	C	0.843681	-0.410824	0.434691
C20	C	1.142716	-0.620318	0.434693
C21	C	1.142757	-0.709939	0.434707
C22	C	1.142893	-1.038120	0.434801
C23	C	1.142852	-0.946810	0.434777
C24	C	1.142824	-0.874033	0.434753
C25	C	1.142785	-0.782717	0.434731
C26	C	0.770898	-0.410826	0.434702
C27	C	0.679588	-0.410831	0.434725
C28	C	0.606811	-0.410840	0.434748
C29	C	0.515495	-0.410847	0.434770
C30	C	1.353097	-0.410847	0.434774
C31	C	1.442718	-0.410855	0.434792
C32	C	1.130698	-0.422899	0.670031
C33	C	1.125545	-0.428042	0.770302
C34	C	1.142886	-0.200523	0.434788
C35	C	1.142927	-0.110903	0.434813
C36	C	1.154883	-0.398748	0.200346
C37	C	1.160192	-0.393377	0.100075
C38	C	1.219035	-0.334568	0.958773
C39	C	1.214196	-0.339398	1.052987
C40	C	1.111023	-0.442528	1.052944
C41	C	1.115862	-0.437698	0.958731
C42	C	1.169871	-0.383717	0.911648
C43	C	1.174714	-0.378892	0.817433
C44	C	1.071538	-0.482016	0.817393
C45	C	1.066698	-0.486846	0.911606
H46	H	1.263015	-0.290619	0.920438
H47	H	1.022724	-0.530794	0.949953
C48	C	1.268280	-0.285337	1.104825
C49	C	1.262960	-0.290645	1.208456
C50	C	1.317045	-0.236580	1.260294
C51	C	1.376450	-0.177207	1.208501
C52	C	1.381772	-0.171896	1.104864
C53	C	1.327687	-0.225961	1.053026
H54	H	1.218982	-0.334599	1.246801
H55	H	1.313105	-0.240512	1.337013
H56	H	1.416487	-0.137184	1.246875
H57	H	1.425750	-0.127942	1.066519
H58	H	1.331627	-0.222029	0.976307
H59	H	1.218692	-0.334939	0.779100
H60	H	1.031506	-0.522039	0.779014
H61	H	1.067051	-0.486475	1.091295
