data_functionalizedCrystal
_audit_creation_method	'MofGen! by Chris Wilmer'
_symmetry_space_group_name_H-M	'P1'
_symmetry_Int_Tables_number	1
_symmetry_cell_setting	triclinic
loop_
_symmetry_equiv_pos_as_xyz
  x,y,z
_cell_length_a	11.804499
_cell_length_b	10.723024
_cell_length_c	10.723024
_cell_angle_alpha	84.467869
_cell_angle_beta	103.193305
_cell_angle_gamma	103.186199
loop_
_atom_site_label
_atom_site_type_symbol
_atom_site_fract_x
_atom_site_fract_y
_atom_site_fract_z
O1	O	-0.099016	-1.679859	-0.197714
O2	O	-0.099019	-1.316708	-0.214468
O3	O	-0.099013	-1.506659	-0.024513
O4	O	-0.099022	-1.489908	-0.387668
O5	O	0.099040	-1.461296	0.020870
O6	O	0.099034	-1.271345	-0.169084
O7	O	0.099038	-1.634496	-0.152330
Cu8	Cu	0.117120	-1.448779	-0.156563
Cu9	Cu	-0.117101	-1.502425	-0.210235
O10	O	0.099031	-1.444545	-0.342284
C11	C	0.000007	-1.247527	-0.190557
C12	C	0.000005	-1.108973	-0.186909
N13	N	0.281858	-1.411056	-0.118813
N14	N	-0.281840	-1.540158	-0.247975
C15	C	0.655819	-1.630754	-0.338647
C16	C	0.531158	-1.659286	-0.367223
C17	C	0.468827	-1.597231	-0.305122
C18	C	0.531169	-1.506639	-0.214442
C19	C	0.655841	-1.478098	-0.185871
C20	C	0.468850	-1.444574	-0.152346
C21	C	0.531191	-1.353983	-0.061666
C22	C	0.655851	-1.325447	-0.033098
C23	C	0.718182	-1.387502	-0.095199
C24	C	0.344177	-1.473116	-0.180917
C25	C	0.344200	-1.320459	-0.028141
C26	C	0.468860	-1.291928	0.000435
C27	C	0.000012	-1.482759	0.044678
C28	C	0.000008	-1.479112	0.183231
C29	C	0.000009	-1.703678	-0.176241
C30	C	0.000003	-1.842233	-0.179890
C31	C	0.000002	-1.033991	-0.293198
C32	C	0.000000	-0.890788	-0.289431
C33	C	0.000003	-1.468446	-0.411476
C34	C	-0.000000	-1.472094	-0.550031
C35	C	0.000007	-1.585400	0.258214
C36	C	0.000003	-1.581633	0.401416
H37	H	0.367323	-1.620466	-0.328395
C38	C	0.723756	-1.227076	0.065261
C39	C	0.846271	-1.215342	0.076962
C40	C	0.908860	-1.124724	0.167545
H41	H	0.703471	-1.254104	0.145833
H42	H	0.703403	-1.146524	0.038180
H43	H	0.866615	-1.295878	0.104049
H44	H	0.866591	-1.188298	-0.003586
H45	H	0.888507	-1.044172	0.140464
H46	H	0.888565	-1.151761	0.248110
H47	H	0.991992	-1.116742	0.175488
H48	H	-0.000001	-1.385328	0.225051
H49	H	-0.000023	-1.067157	-0.093130
H50	H	0.293431	-1.546874	-0.254751
H51	H	-0.000002	-0.906660	-0.088896
H52	H	0.000016	-1.679184	0.216393
C53	C	0.000061	-1.703091	0.487124
C54	C	0.000093	-1.804871	0.414574
C55	C	0.000161	-1.916777	0.493490
H56	H	-0.068987	-1.722402	0.522686
H57	H	0.069154	-1.690655	0.554302
H58	H	-0.068993	-1.817307	0.347419
H59	H	0.069135	-1.785603	0.379013
H60	H	0.069254	-1.904341	0.560668
H61	H	-0.068888	-1.936075	0.529049
H62	H	0.000194	-1.985845	0.444280
H63	H	0.480409	-1.733046	-0.441053
H64	H	0.706580	-1.681263	-0.389205
C65	C	0.276610	-1.252840	0.039143
C66	C	0.306926	-1.120448	0.012790
C67	C	0.244670	-1.058117	0.074727
H68	H	0.296990	-1.270468	0.129024
H69	H	0.193423	-1.282726	0.009130
H70	H	0.390095	-1.090572	0.042809
H71	H	0.286543	-1.102782	-0.077079
H72	H	0.161483	-1.088003	0.044714
H73	H	0.265055	-1.075755	0.164604
H74	H	0.265222	-0.968284	0.056845
H75	H	0.000008	-1.381097	0.385546
H76	H	0.819691	-1.364278	-0.071934
H77	H	0.519636	-1.218166	0.074268
C78	C	-0.000055	-1.089995	-0.418147
C79	C	-0.000079	-1.220906	-0.397051
C80	C	-0.000145	-1.272538	-0.512131
H81	H	0.068991	-1.047326	-0.448546
H82	H	-0.069149	-1.078904	-0.480121
H83	H	0.069008	-1.231988	-0.335098
H84	H	-0.069120	-1.263609	-0.366670
H85	H	-0.069239	-1.261448	-0.574105
H86	H	0.068902	-1.229860	-0.542521
H87	H	-0.000173	-1.361369	-0.497835
H88	H	-0.000007	-0.826357	-0.380423
