data_functionalizedCrystal
_audit_creation_method	'MofGen! by Chris Wilmer'
_symmetry_space_group_name_H-M	'P1'
_symmetry_Int_Tables_number	1
_symmetry_cell_setting	triclinic
loop_
_symmetry_equiv_pos_as_xyz
  x,y,z
_cell_length_a	8.965430
_cell_length_b	15.995350
_cell_length_c	15.995350
_cell_angle_alpha	83.492375
_cell_angle_beta	89.994371
_cell_angle_gamma	90.000440
loop_
_atom_site_label
_atom_site_type_symbol
_atom_site_fract_x
_atom_site_fract_y
_atom_site_fract_z
O1	O	0.123905	-1.110984	-0.107931
O2	O	0.123935	-0.867208	-0.121258
O3	O	0.123918	-0.995760	0.007293
O4	O	0.123923	-0.982432	-0.236482
O5	O	-0.124161	-0.995753	0.007305
O6	O	-0.124144	-0.867201	-0.121246
O7	O	-0.124173	-1.110976	-0.107919
Cu8	Cu	-0.146810	-0.989088	-0.114581
Cu9	Cu	0.146572	-0.989097	-0.114595
O10	O	-0.124156	-0.982425	-0.236470
C11	C	-0.000100	-0.836010	-0.120701
C12	C	-0.000089	-0.743060	-0.119049
C13	C	-0.000118	-0.995205	0.038494
C14	C	-0.000110	-0.993553	0.131444
N15	N	-0.353159	-0.989088	-0.114571
C16	C	-0.549837	-1.048082	-0.054660
C17	C	-0.450361	-1.065003	-0.130087
C18	C	-0.450427	-0.972205	-0.039149
C19	C	-0.549792	-1.006062	-0.190065
C20	C	-0.549867	-0.913231	-0.099077
C21	C	-0.450436	-0.930119	-0.174560
N22	N	0.352921	-0.989103	-0.114599
C23	C	-0.000135	-1.142175	-0.108476
C24	C	-0.000136	-1.235125	-0.110127
C25	C	-0.000120	-0.405312	-0.113117
C26	C	-0.000675	-0.452746	-0.021565
C27	C	-0.000105	-0.549436	-0.023217
C28	C	-0.000105	-0.572873	-0.116060
C29	C	0.141555	-0.531790	-0.161223
C30	C	0.141663	-0.435154	-0.158923
C31	C	-0.140449	-0.434807	-0.160801
C32	C	-0.142311	-0.531752	-0.160779
C33	C	-0.000092	-0.667570	-0.117727
C34	C	-0.000123	-0.310614	-0.111452
C35	C	-0.000116	-0.982980	-0.267671
C36	C	-0.000115	-0.984631	-0.360621
C37	C	-0.000114	-0.987621	0.469192
C38	C	0.000454	-0.896069	0.421758
C39	C	-0.000106	-0.897721	0.325068
C40	C	-0.000111	-0.990564	0.301631
C41	C	-0.141779	-1.035716	0.342716
C42	C	-0.141897	-1.033416	0.439351
C43	C	0.140214	-1.035316	0.439696
C44	C	0.142087	-1.035294	0.342751
C45	C	-0.000114	-0.992231	0.206934
C46	C	-0.000121	-0.985956	0.563890
H47	H	-0.593480	-1.097998	-0.004040
Cl48	Cl	0.305153	-0.406888	-0.108088
H49	H	-0.101654	-0.577862	0.012283
Cl50	Cl	-0.151849	-1.137189	0.489144
H51	H	0.102047	-0.859480	0.440285
H52	H	0.101448	-0.862228	0.296641
Cl53	Cl	-0.304114	-0.573818	-0.109794
Cl54	Cl	0.155298	-1.139825	0.319029
H55	H	-0.593257	-1.020417	-0.253875
Cl56	Cl	-0.382837	-1.164051	-0.150335
H57	H	-0.407066	-0.880234	-0.225291
H58	H	-0.150867	-0.547117	-0.228482
H59	H	0.148092	-0.402905	-0.226139
H60	H	-0.247793	-1.000485	0.457658
H61	H	-0.593607	-0.849093	-0.085931
H62	H	-0.100565	-0.859636	0.441357
H63	H	0.246981	-0.560167	-0.129864
H64	H	-0.406778	-0.957918	0.024646
Cl65	Cl	0.149726	-0.553622	-0.266525
Cl66	Cl	-0.141930	-0.385771	-0.265016
H67	H	0.141163	-1.102816	0.471457
Cl68	Cl	-0.157148	-0.842542	0.282048
H69	H	-0.102265	-0.434221	0.015035
Cl70	Cl	0.155295	-0.422496	0.034675
Cl71	Cl	0.157218	-0.592425	0.031706
Cl72	Cl	-0.306230	-0.403104	-0.114579
H73	H	-0.147051	-1.103925	0.328590
Cl74	Cl	-0.304545	-0.987290	0.298910
Cl75	Cl	0.305996	-0.989098	0.471386
Cl76	Cl	0.303920	-0.984744	0.300183
