data_functionalizedCrystal
_audit_creation_method	'MofGen! by Chris Wilmer'
_symmetry_space_group_name_H-M	'P1'
_symmetry_Int_Tables_number	1
_symmetry_cell_setting	triclinic
loop_
_symmetry_equiv_pos_as_xyz
  x,y,z
_cell_length_a	10.968094
_cell_length_b	6.394989
_cell_length_c	10.065875
_cell_angle_alpha	80.951547
_cell_angle_beta	93.118877
_cell_angle_gamma	94.417369
loop_
_atom_site_label
_atom_site_type_symbol
_atom_site_fract_x
_atom_site_fract_y
_atom_site_fract_z
O1	O	1.618389	-0.364614	0.267104
O2	O	1.268441	-0.370598	0.184807
O3	O	1.448382	-0.063929	0.227123
O4	O	1.438448	-0.671284	0.224788
O5	O	1.414074	-0.122652	0.446043
O6	O	1.234132	-0.429322	0.403727
O7	O	1.584080	-0.423337	0.486025
Zn8	Zn	1.403659	-0.435653	0.479634
Zn9	Zn	1.448862	-0.358282	0.191197
O10	O	1.404139	-0.730007	0.443709
C11	C	1.206420	-0.395090	0.283715
C12	C	1.072731	-0.380555	0.252276
C13	C	0.857176	-0.389447	0.319163
C14	C	0.995348	-0.404489	0.351671
C15	C	1.646102	-0.398845	0.387113
C16	C	1.779792	-0.413378	0.418544
C17	C	1.429265	-0.015315	0.336116
C18	C	1.423262	0.221388	0.334703
N19	N	1.372818	-0.488456	0.676487
N20	N	1.479713	-0.305464	-0.005654
C21	C	1.438124	-0.376640	0.759624
C22	C	1.414397	-0.417296	0.911211
H23	H	1.036699	-0.348931	0.143117
N24	N	1.535445	-0.209966	0.705239
H25	H	1.617584	-0.246730	0.749318
H26	H	1.515265	-0.066987	0.725315
N27	N	1.317053	-0.583968	0.965557
H28	H	1.313899	-0.589382	1.066142
H29	H	1.337181	-0.726920	0.945387
N30	N	0.827514	-0.455255	0.563132
H31	H	0.919455	-0.460062	0.565859
H32	H	0.789645	-0.595657	0.608288
N33	N	1.577042	-0.138770	0.939989
H34	H	1.640590	-0.207358	0.895633
H35	H	1.617270	-0.069786	1.016359
N36	N	1.275479	-0.655120	0.730840
H37	H	1.272324	-0.660534	0.831424
H38	H	1.295606	-0.798072	0.710669
H39	H	0.821137	-0.357811	0.210013
H40	H	1.031382	-0.436105	0.460828
