data_functionalizedCrystal
_audit_creation_method	'MofGen! by Chris Wilmer'
_symmetry_space_group_name_H-M	'P1'
_symmetry_Int_Tables_number	1
_symmetry_cell_setting	triclinic
loop_
_symmetry_equiv_pos_as_xyz
  x,y,z
_cell_length_a	9.065218
_cell_length_b	19.188930
_cell_length_c	7.540329
_cell_angle_alpha	89.991297
_cell_angle_beta	89.996962
_cell_angle_gamma	84.080333
loop_
_atom_site_label
_atom_site_type_symbol
_atom_site_fract_x
_atom_site_fract_y
_atom_site_fract_z
O1	O	1.956847	0.102369	-0.147510
O2	O	1.527271	0.110766	-0.147515
O3	O	1.754456	0.005009	-0.147478
O4	O	1.729662	0.208127	-0.147547
O5	O	1.754442	0.005007	0.147487
O6	O	1.527257	0.110765	0.147450
O7	O	1.956833	0.102368	0.147455
Cu8	Cu	1.742044	0.106566	0.174385
Cu9	Cu	1.742060	0.106568	-0.174445
O10	O	1.729649	0.208126	0.147418
C11	C	1.472305	0.109959	-0.000032
C12	C	1.308546	0.107546	-0.000033
C13	C	1.753646	-0.021009	0.000010
C14	C	1.751236	-0.098533	0.000025
C15	C	1.884540	-0.142421	0.000035
C16	C	1.882276	-0.215262	0.000006
C17	C	1.746699	-0.244212	0.000004
C18	C	1.613377	-0.200314	-0.000016
C19	C	1.615646	-0.127474	-0.000006
N20	N	1.643063	-0.353023	0.100385
N21	N	1.640917	-0.422218	0.100379
C22	C	1.739858	-0.463674	-0.000032
N23	N	1.841047	-0.433322	-0.100414
N24	N	1.843197	-0.364120	-0.100400
C25	C	1.744225	-0.323194	-0.000009
C26	C	1.870716	-0.586546	-0.000056
C27	C	1.868446	-0.659388	-0.000095
C28	C	1.599544	-0.644438	-0.000100
C29	C	1.601818	-0.571598	-0.000078
C30	C	1.737408	-0.542656	-0.000048
C31	C	2.011799	0.103176	-0.000032
C32	C	2.175558	0.105589	-0.000043
C33	C	1.730458	0.234144	-0.000074
C34	C	1.732869	0.311667	-0.000101
N35	N	1.742044	0.106565	0.419734
N36	N	1.742072	0.106564	-0.419794
H37	H	1.994948	-0.118862	0.000054
C38	C	2.026903	-0.263006	0.000307
C39	C	2.033410	-0.305281	0.152037
C40	C	2.166608	-0.349274	0.152366
H41	H	2.108099	-0.235423	0.000416
H42	H	2.031633	-0.291767	-0.102501
H43	H	2.028694	-0.276523	0.254818
H44	H	1.952245	-0.332878	0.151960
H45	H	2.171339	-0.378035	0.049559
H46	H	2.247794	-0.321685	0.152470
H47	H	2.171035	-0.377967	0.255304
C48	C	1.470793	-0.079903	-0.000280
C49	C	1.389120	-0.093108	-0.152018
C50	C	1.255666	-0.049304	-0.152316
H51	H	1.491351	-0.032354	-0.000358
H52	H	1.415092	-0.088790	0.102522
H53	H	1.444810	-0.084216	-0.254794
H54	H	1.368523	-0.140648	-0.151973
H55	H	1.199965	-0.058192	-0.049514
H56	H	1.276239	-0.001758	-0.152389
H57	H	1.200228	-0.058263	-0.255259
H58	H	1.502990	-0.223890	-0.000022
H59	H	1.981122	-0.562980	-0.000039
C60	C	2.013346	-0.706925	0.000004
C61	C	2.132566	-0.665984	0.000083
C62	C	2.266071	-0.709751	0.000200
H63	H	2.018276	-0.735655	-0.102835
H64	H	2.018116	-0.735649	0.102900
H65	H	2.127798	-0.637272	-0.102802
H66	H	2.127685	-0.637255	0.102915
H67	H	2.270841	-0.738476	0.103096
H68	H	2.270986	-0.738479	-0.102641
H69	H	2.346977	-0.681979	0.000270
H70	H	1.489155	-0.668009	-0.000111
H71	H	1.493266	-0.535863	-0.000076
