data_functionalizedCrystal
_audit_creation_method	'MofGen! by Chris Wilmer'
_symmetry_space_group_name_H-M	'P1'
_symmetry_Int_Tables_number	1
_symmetry_cell_setting	triclinic
loop_
_symmetry_equiv_pos_as_xyz
  x,y,z
_cell_length_a	12.827892
_cell_length_b	10.685972
_cell_length_c	10.685910
_cell_angle_alpha	81.605763
_cell_angle_beta	94.377708
_cell_angle_gamma	85.619715
loop_
_atom_site_label
_atom_site_type_symbol
_atom_site_fract_x
_atom_site_fract_y
_atom_site_fract_z
Zn1	Zn	-0.234646	-1.995513	0.866733
Zn2	Zn	-0.423870	-1.979157	0.654477
Zn3	Zn	-0.263629	-1.767012	0.638198
Zn4	Zn	-0.423846	-1.783217	0.850378
O5	O	-0.336498	-1.881225	0.752447
O6	O	-0.247628	-2.170973	0.852234
O7	O	-0.414753	-1.937388	0.474690
O8	O	-0.113542	-1.797387	0.668545
O9	O	-0.386650	-2.158956	0.696291
O10	O	-0.092249	-1.965265	0.836449
O11	O	-0.297025	-1.781527	0.462730
O12	O	-0.297001	-1.591532	0.652687
O13	O	-0.386609	-1.825006	1.030175
O14	O	-0.414712	-1.603438	0.808574
O15	O	-0.247605	-1.980979	1.042191
O16	O	-0.570109	-1.953101	0.680432
O17	O	-0.570091	-1.809146	0.824360
C18	C	-0.359000	-1.551428	0.727090
C19	C	-0.368649	-1.410342	0.716273
C20	C	-0.608015	-1.881144	0.752418
C21	C	-0.724160	-1.881228	0.752457
C22	C	-0.775907	-1.952560	0.681330
C23	C	-0.895949	-1.952649	0.681369
C24	C	-0.063916	-1.881343	0.752506
C25	C	0.052242	-1.881393	0.752531
C26	C	-0.313871	-1.906624	1.083528
C27	C	-0.304229	-1.917448	1.224615
C28	C	-0.313902	-1.212309	0.777897
C29	C	-0.304256	-1.353396	0.788727
C30	C	-0.359062	-1.855917	1.422653
C31	C	-0.368709	-1.845100	1.281566
H32	H	-0.431166	-1.351153	0.645955
O33	O	-0.716883	-2.033403	0.600651
H34	H	-0.631858	-2.020656	0.613291
O35	O	-0.954879	-2.033575	0.600724
H36	H	-1.039914	-2.020965	0.613428
H37	H	-0.431293	-1.774882	1.222389
H38	H	-0.241648	-1.987679	1.283799
O39	O	-0.888839	-1.800480	0.833200
H40	H	-0.830765	-1.862206	0.902136
O41	O	-0.221444	-1.431775	0.881868
H42	H	-0.226607	-1.534007	0.876044
O43	O	-0.783193	-1.800415	0.833154
H44	H	-0.753979	-1.829713	0.934479
