data_functionalizedCrystal
_audit_creation_method	'MofGen! by Chris Wilmer'
_symmetry_space_group_name_H-M	'P1'
_symmetry_Int_Tables_number	1
_symmetry_cell_setting	triclinic
loop_
_symmetry_equiv_pos_as_xyz
  x,y,z
_cell_length_a	16.959455
_cell_length_b	16.959453
_cell_length_c	16.959447
_cell_angle_alpha	90.031571
_cell_angle_beta	90.014322
_cell_angle_gamma	90.019673
loop_
_atom_site_label
_atom_site_type_symbol
_atom_site_fract_x
_atom_site_fract_y
_atom_site_fract_z
Zn1	Zn	1.208369	-0.314730	0.446902
Zn2	Zn	1.208286	-0.446923	0.314720
Zn3	Zn	1.076198	-0.314755	0.314739
Zn4	Zn	1.076156	-0.446864	0.446859
O5	O	1.142252	-0.380818	0.380805
O6	O	1.318969	-0.332280	0.429378
O7	O	1.190746	-0.429426	0.204112
O8	O	1.093783	-0.204141	0.332297
O9	O	1.318908	-0.429402	0.332265
O10	O	1.190889	-0.204123	0.429396
O11	O	1.093702	-0.332323	0.204126
O12	O	0.965581	-0.332265	0.332255
O13	O	1.093712	-0.429301	0.557476
O14	O	0.965551	-0.429325	0.429323
O15	O	1.190849	-0.332223	0.557507
O16	O	1.190706	-0.557526	0.332223
O17	O	1.093631	-0.557482	0.429305
C18	C	0.936886	-0.380792	0.380787
C19	C	0.849029	-0.380800	0.380798
C20	C	1.142176	-0.586184	0.380774
C21	C	1.142216	-0.674041	0.380788
C22	C	0.477545	-0.330238	0.330367
C23	C	0.477562	-0.431463	0.431288
C24	C	0.560108	-0.431452	0.431283
C25	C	0.601376	-0.380834	0.380819
C26	C	0.560099	-0.330226	0.330359
C27	C	0.601392	-0.482064	0.481736
C28	C	0.683943	-0.482055	0.481733
C29	C	0.725213	-0.431432	0.431272
C30	C	0.683930	-0.380822	0.380811
C31	C	0.725198	-0.330204	0.330347
C32	C	0.683917	-0.279589	0.279889
C33	C	0.601368	-0.279603	0.279899
C34	C	0.807761	-0.431418	0.431262
C35	C	0.807752	-0.330193	0.330339
C36	C	1.091719	-0.715393	0.330197
C37	C	1.192747	-0.715243	0.431396
C38	C	1.192784	-0.797789	0.431413
C39	C	1.142287	-0.839140	0.380822
C40	C	1.091753	-0.797946	0.330214
C41	C	1.243312	-0.838989	0.482026
C42	C	1.243350	-0.921540	0.482046
C43	C	1.192856	-0.962893	0.431450
C44	C	1.142321	-0.921694	0.380839
C45	C	1.091823	-0.963045	0.330248
C46	C	1.041291	-0.921848	0.279633
C47	C	1.041259	-0.839299	0.279618
C48	C	1.192888	-1.045441	0.431465
C49	C	1.091857	-1.045599	0.330266
C50	C	1.348420	-0.380845	0.380824
C51	C	1.436277	-0.380856	0.380832
C52	C	1.142285	-0.380753	0.586973
C53	C	1.142299	-0.380725	0.674830
C54	C	1.142350	-0.174650	0.380853
C55	C	1.142391	-0.086793	0.380874
C56	C	1.142265	-0.380826	0.175439
C57	C	1.142404	-0.380631	0.087583
C58	C	1.091819	-0.431185	1.046292
C59	C	1.192968	-0.330097	1.046320
C60	C	1.192947	-0.330114	0.963774
C61	C	1.142362	-0.380668	0.922483
C62	C	1.091798	-0.431205	0.963738
C63	C	1.243516	-0.279584	0.922513
C64	C	1.243497	-0.279599	0.839962
C65	C	1.192908	-0.330149	0.798669
C66	C	1.142341	-0.380688	0.839930
C67	C	1.091756	-0.431242	0.798639
C68	C	1.041185	-0.481777	0.839898
C69	C	1.041209	-0.481756	0.922446
C70	C	1.192884	-0.330171	0.716121
C71	C	1.091735	-0.431262	0.716085
H72	H	0.841346	-0.288968	0.289249
H73	H	1.050643	-0.472328	1.079889
H74	H	1.050738	-1.079262	0.289065
H75	H	1.000039	-0.522901	0.956046
N76	N	0.728458	-0.536644	0.536155
H77	H	0.714110	-0.524439	0.592653
H78	H	0.787001	-0.528934	0.528431
H79	H	0.567750	-0.238397	0.238818
N80	N	1.298034	-0.225086	0.795472
H81	H	1.265917	-0.188459	0.761238
H82	H	1.334632	-0.257271	0.761254
H83	H	1.234156	-0.288943	1.079944
H84	H	1.050579	-0.681847	0.288984
H85	H	0.717528	-0.238379	0.238798
H86	H	1.284704	-0.238430	0.956137
H87	H	1.284498	-0.955076	0.523258
N88	N	0.433028	-0.275662	0.275934
H89	H	0.374471	-0.283350	0.283589
H90	H	0.447444	-0.287911	0.219465
N91	N	0.986826	-0.966451	0.225069
H92	H	0.994518	-1.024996	0.232766
H93	H	0.999168	-0.952062	0.168626
H94	H	1.284421	-0.805318	0.523220
N95	N	0.986757	-0.794857	0.225041
H96	H	0.930279	-0.809257	0.237266
H97	H	0.999144	-0.809265	0.168599
H98	H	0.443957	-0.472679	0.472369
H99	H	1.234060	-0.289028	0.682532
H100	H	0.841369	-0.472630	0.472341
N101	N	0.556884	-0.536664	0.536154
H102	H	0.498327	-0.528988	0.528504
H103	H	0.571335	-0.524436	0.592628
H104	H	1.000002	-0.522942	0.806268
H105	H	1.050535	-0.472422	0.682472
H106	H	1.233857	-0.681572	0.472590
N107	N	1.247376	-1.089877	0.486057
H108	H	1.279356	-1.051155	0.518107
H109	H	1.283997	-1.124124	0.453929
