data_functionalizedCrystal
_audit_creation_method	'MofGen! by Chris Wilmer'
_symmetry_space_group_name_H-M	'P1'
_symmetry_Int_Tables_number	1
_symmetry_cell_setting	triclinic
loop_
_symmetry_equiv_pos_as_xyz
  x,y,z
_cell_length_a	14.519709
_cell_length_b	15.021413
_cell_length_c	14.519709
_cell_angle_alpha	89.996924
_cell_angle_beta	96.319855
_cell_angle_gamma	89.998810
loop_
_atom_site_label
_atom_site_type_symbol
_atom_site_fract_x
_atom_site_fract_y
_atom_site_fract_z
O1	O	-1.223873	0.073907	0.120879
O2	O	-0.723873	0.573907	0.620879
O3	O	-0.955396	0.073937	0.135115
O4	O	-0.455396	0.573937	0.635115
O5	O	-1.096752	0.073913	-0.006241
O6	O	-0.596752	0.573913	0.493759
O7	O	-1.082516	0.073931	0.262236
O8	O	-0.582516	0.573931	0.762236
O9	O	-1.096730	-0.074151	-0.006221
O10	O	-0.596730	0.425849	0.493779
O11	O	-0.955373	-0.074127	0.135136
O12	O	-0.455373	0.425873	0.635136
O13	O	-1.223850	-0.074157	0.120899
O14	O	-0.723850	0.425843	0.620899
Zn15	Zn	-1.089608	-0.097650	0.128021
Zn16	Zn	-0.589608	0.402350	0.628021
Zn17	Zn	-1.089638	0.097431	0.127994
Zn18	Zn	-0.589638	0.597431	0.627994
O19	O	-1.082493	-0.074133	0.262256
O20	O	-0.582493	0.425867	0.762256
C21	C	-0.921025	-0.000091	0.134462
C22	C	-0.421025	0.499909	0.634462
C23	C	-0.818643	-0.000080	0.132474
C24	C	-0.318643	0.499920	0.632474
N25	N	-1.089595	-0.230788	0.128038
N26	N	-0.589595	0.269212	0.628038
C27	C	-0.443748	-0.000118	0.125154
C28	C	0.056252	0.499882	0.625154
C29	C	-0.548056	-0.000107	0.127187
C30	C	-0.048056	0.499893	0.627187
C31	C	-0.631192	-0.000098	0.128814
C32	C	-0.131192	0.499902	0.628814
C33	C	-0.735507	-0.000089	0.130847
C34	C	-0.235507	0.499911	0.630847
C35	C	-1.024221	-0.470460	0.193371
C36	C	-0.524221	0.029540	0.693371
C37	C	-1.107584	-0.529803	0.211408
C38	C	-0.607584	-0.029803	0.711408
C39	C	-1.089618	-0.412395	0.128015
C40	C	-0.589618	0.087605	0.628015
C41	C	-1.006278	-0.529794	0.109999
C42	C	-0.506278	-0.029794	0.609999
C43	C	-1.089633	-0.587819	0.127995
C44	C	-0.589633	-0.087819	0.627995
C45	C	-1.173023	-0.470431	0.146094
C46	C	-0.673023	0.029569	0.646094
C47	C	-1.071663	-0.470417	0.044649
C48	C	-0.571663	0.029583	0.544649
C49	C	-1.155085	-0.529733	0.062650
C50	C	-0.655085	-0.029733	0.562650
C51	C	-1.089608	-0.311338	0.128029
C52	C	-0.589608	0.188662	0.628029
C53	C	-1.089653	-0.688874	0.127980
C54	C	-0.589653	-0.188874	0.627980
C55	C	-0.258221	-0.000124	0.121553
C56	C	0.241779	0.499876	0.621553
C57	C	-0.360602	-0.000123	0.123541
C58	C	0.139398	0.499877	0.623541
C59	C	-1.096078	-0.000119	-0.040591
C60	C	-0.596078	0.499881	0.459409
C61	C	-1.094090	-0.000119	-0.142972
C62	C	-0.594090	0.499881	0.357028
N63	N	-1.089659	0.230568	0.127969
N64	N	-0.589659	0.730568	0.627969
C65	C	-1.086770	-0.000095	-0.517868
C66	C	-0.586770	0.499905	-0.017868
C67	C	-1.088803	-0.000102	-0.413560
C68	C	-0.588803	0.499898	0.086440
C69	C	-1.090430	-0.000108	-0.330423
C70	C	-0.590430	0.499892	0.169577
C71	C	-1.092463	-0.000113	-0.226109
C72	C	-0.592463	0.499887	0.273891
C73	C	-1.083168	-0.000099	0.296606
C74	C	-0.583168	0.499901	0.796606
C75	C	-1.085156	-0.000093	0.398987
C76	C	-0.585156	0.499907	0.898987
H77	H	-1.122784	-0.555887	0.281900
H78	H	-0.622784	-0.055887	0.781900
C79	C	-1.268266	-0.435361	0.166786
C80	C	-0.768266	0.064639	0.666786
C81	C	-1.285845	-0.334402	0.170660
C82	C	-0.785845	0.165598	0.670660
C83	C	-1.381085	-0.299330	0.191355
C84	C	-0.881085	0.200670	0.691355
C85	C	-1.458746	-0.365218	0.208176
C86	C	-0.958746	0.134782	0.708176
C87	C	-1.441170	-0.466184	0.204302
C88	C	-0.941170	0.033816	0.704302
C89	C	-1.345930	-0.501255	0.183607
C90	C	-0.845930	-0.001255	0.683607
H91	H	-1.228353	-0.285622	0.158208
H92	H	-0.728353	0.214378	0.658208
H93	H	-1.394096	-0.224589	0.194223
H94	H	-0.894096	0.275411	0.694223
H95	H	-1.529249	-0.339256	0.223496
H96	H	-1.029249	0.160744	0.723496
H97	H	-1.498661	-0.514963	0.216755
H98	H	-0.998661	-0.014963	0.716755
H99	H	-1.332919	-0.575997	0.180739
H100	H	-0.832919	-0.075997	0.680739
C101	C	-0.949587	-0.435290	0.268090
C102	C	-0.449587	0.064710	0.768090
C103	C	-0.847140	-0.460042	0.264386
C104	C	-0.347140	0.039958	0.764386
C105	C	-0.772511	-0.424869	0.339105
C106	C	-0.272511	0.075131	0.839105
C107	C	-0.800329	-0.364945	0.417529
C108	C	-0.300329	0.135055	0.917529
C109	C	-0.902781	-0.340190	0.421237
C110	C	-0.402781	0.159810	0.921237
C111	C	-0.977410	-0.375362	0.346517
C112	C	-0.477410	0.124638	0.846517
H113	H	-0.826542	-0.504404	0.206329
H114	H	-0.326542	-0.004404	0.706329
H115	H	-0.696669	-0.443195	0.336361
H116	H	-0.196669	0.056805	0.836361
H117	H	-0.745085	-0.338908	0.472841
H118	H	-0.245085	0.161092	0.972841
H119	H	-0.923378	-0.295828	0.479293
H120	H	-0.423378	0.204172	0.979293
H121	H	-1.053252	-0.357037	0.349262
H122	H	-0.553252	0.142963	0.849262
H123	H	-1.056436	-0.444312	-0.025821
H124	H	-0.556436	0.055688	0.474179
H125	H	-0.935793	-0.555873	0.094770
H126	H	-0.435793	-0.055873	0.594770
C127	C	-1.229882	-0.564680	-0.012031
C128	C	-0.729882	-0.064680	0.487969
C129	C	-1.332439	-0.541020	-0.007240
C130	C	-0.832439	-0.041020	0.492760
C131	C	-1.407237	-0.575969	-0.081916
C132	C	-0.907237	-0.075969	0.418084
C133	C	-1.379478	-0.634578	-0.161384
C134	C	-0.879478	-0.134578	0.338616
C135	C	-1.276915	-0.658241	-0.166178
C136	C	-0.776915	-0.158241	0.333822
C137	C	-1.202117	-0.623292	-0.091502
C138	C	-0.702117	-0.123292	0.408498
H139	H	-1.352993	-0.497631	0.051589
H140	H	-0.852993	0.002369	0.551589
H141	H	-1.483161	-0.558452	-0.078367
H142	H	-0.983161	-0.058452	0.421633
H143	H	-1.434848	-0.660449	-0.216664
H144	H	-0.934848	-0.160449	0.283336
H145	H	-1.256361	-0.701630	-0.225008
H146	H	-0.756361	-0.201630	0.274992
H147	H	-1.126193	-0.640809	-0.095051
H148	H	-0.626193	-0.140809	0.404949
