data_functionalizedCrystal
_audit_creation_method	'MofGen! by Chris Wilmer'
_symmetry_space_group_name_H-M	'P1'
_symmetry_Int_Tables_number	1
_symmetry_cell_setting	triclinic
loop_
_symmetry_equiv_pos_as_xyz
  x,y,z
_cell_length_a	12.759401
_cell_length_b	12.759400
_cell_length_c	12.759393
_cell_angle_alpha	89.970627
_cell_angle_beta	89.979062
_cell_angle_gamma	90.014690
loop_
_atom_site_label
_atom_site_type_symbol
_atom_site_fract_x
_atom_site_fract_y
_atom_site_fract_z
Zn1	Zn	1.606278	-0.418173	-0.594028
Zn2	Zn	1.606173	-0.593888	-0.418352
Zn3	Zn	1.430576	-0.418229	-0.418363
Zn4	Zn	1.430573	-0.593815	-0.593989
O5	O	1.518400	-0.506026	-0.506183
O6	O	1.753285	-0.441489	-0.570736
O7	O	1.582838	-0.570641	-0.271332
O8	O	1.453928	-0.271200	-0.441687
O9	O	1.753208	-0.570587	-0.441667
O10	O	1.583015	-0.271159	-0.570747
O11	O	1.453827	-0.441584	-0.271341
O12	O	1.283555	-0.441513	-0.441649
O13	O	1.453923	-0.570461	-0.741015
O14	O	1.283552	-0.570516	-0.570680
O15	O	1.583012	-0.441418	-0.741044
O16	O	1.582835	-0.740900	-0.441629
O17	O	1.453822	-0.740846	-0.570669
C18	C	1.245433	-0.506013	-0.506162
C19	C	1.128656	-0.506033	-0.506178
C20	C	1.073820	-0.573307	-0.573259
C21	C	0.964096	-0.573311	-0.573280
C22	C	0.964053	-0.438764	-0.439130
C23	C	1.073775	-0.438756	-0.439115
C24	C	1.518345	-0.778993	-0.506167
C25	C	1.518417	-0.895770	-0.506195
C26	C	1.585599	-0.950531	-0.573451
C27	C	1.585648	-1.060255	-0.573477
C28	C	1.451330	-1.060448	-0.438980
C29	C	1.451277	-0.950726	-0.438961
C30	C	1.652740	-0.895576	-0.640685
C31	C	1.719928	-0.950337	-0.707947
C32	C	1.719977	-1.060061	-0.707972
C33	C	1.652838	-1.115024	-0.640737
C34	C	1.792433	-0.506040	-0.506205
C35	C	1.909210	-0.506046	-0.506214
C36	C	1.518479	-0.505925	-0.780217
C37	C	1.518512	-0.505882	-0.896993
C38	C	1.518484	-0.231993	-0.506223
C39	C	1.518520	-0.115216	-0.506240
C40	C	1.585734	-0.438679	-0.951872
C41	C	1.585752	-0.438633	-1.061596
C42	C	1.451323	-0.573004	-1.061553
C43	C	1.451301	-0.573044	-0.951831
C44	C	1.518382	-0.506051	-0.233216
C45	C	1.518552	-0.505798	-0.116440
H46	H	0.919454	-0.628090	-0.627906
H47	H	1.652710	-0.806233	-0.640670
C48	C	1.377490	-1.120905	-0.365017
C49	C	1.423100	-1.196356	-0.282587
C50	C	1.349262	-1.256812	-0.208620
C51	C	1.229813	-1.241817	-0.217083
C52	C	1.184196	-1.166363	-0.299517
C53	C	1.258035	-1.105907	-0.373484
H54	H	1.511529	-1.207459	-0.276319
H55	H	1.383031	-1.312668	-0.147597
H56	H	1.175153	-1.286570	-0.162328
H57	H	1.095767	-1.155260	-0.305785
H58	H	1.224265	-1.050050	-0.434507
H59	H	1.640459	-0.383989	-0.907226
C60	C	1.377348	-0.646973	-0.891461
C61	C	1.257919	-0.638382	-0.906534
C62	C	1.183965	-0.712305	-0.846166
C63	C	1.229441	-0.794818	-0.770724
C64	C	1.348876	-0.803413	-0.755647
C65	C	1.422830	-0.729490	-0.816015
H66	H	1.224250	-0.577298	-0.962384
H67	H	1.095551	-0.705942	-0.857327
H68	H	1.174696	-0.849540	-0.726035
H69	H	1.382546	-0.864497	-0.699797
H70	H	1.511244	-0.735853	-0.804854
C71	C	0.903682	-0.364771	-0.365355
C72	C	0.782992	-0.364781	-0.365362
C73	C	0.722623	-0.290789	-0.291581
C74	C	0.782945	-0.216787	-0.217795
C75	C	0.903641	-0.216774	-0.217785
C76	C	0.964010	-0.290766	-0.291565
H77	H	0.738332	-0.419565	-0.419986
H78	H	0.633275	-0.290799	-0.291589
H79	H	0.738256	-0.162013	-0.163178
H80	H	0.948301	-0.161990	-0.163161
H81	H	1.053358	-0.290756	-0.291558
H82	H	1.118424	-0.383967	-0.384490
C83	C	1.793775	-0.889883	-0.781906
C84	C	1.793728	-0.769193	-0.781882
C85	C	1.867575	-0.708742	-0.855845
C86	C	1.941470	-0.768981	-0.929832
C87	C	1.941520	-0.889678	-0.929859
C88	C	1.867672	-0.950129	-0.855896
H89	H	1.739024	-0.724594	-0.727110
H90	H	1.867538	-0.619394	-0.855824
H91	H	1.996136	-0.724232	-0.984583
H92	H	1.996223	-0.934276	-0.984631
H93	H	1.867710	-1.039477	-0.855916
H94	H	1.640489	-0.383908	-1.106274
C95	C	1.793878	-1.120298	-0.781959
C96	C	1.913311	-1.105131	-0.773478
C97	C	1.987219	-1.165365	-0.847463
C98	C	1.941695	-1.240767	-0.929931
C99	C	1.822256	-1.255937	-0.938416
C100	C	1.748348	-1.195703	-0.864430
H101	H	1.947016	-1.049311	-0.712427
H102	H	2.075636	-1.154134	-0.841182
H103	H	1.996407	-1.285356	-0.984699
H104	H	1.788551	-1.311757	-0.999466
H105	H	1.659931	-1.206934	-0.870712
H106	H	1.652871	-1.204368	-0.640775
C107	C	1.377381	-0.890476	-0.364978
C108	C	1.386019	-0.905626	-0.245550
C109	C	1.312118	-0.845375	-0.171571
C110	C	1.229578	-0.769974	-0.217020
C111	C	1.220936	-0.754821	-0.336454
C112	C	1.294838	-0.815072	-0.410433
H113	H	1.447123	-0.961445	-0.211901
H114	H	1.318516	-0.856592	-0.083158
H115	H	1.174872	-0.725372	-0.162256
H116	H	1.159833	-0.699002	-0.370103
H117	H	1.288440	-0.803855	-0.498846
H118	H	1.118501	-0.628086	-0.627869
H119	H	1.396604	-0.627687	-1.106216
