data_functionalizedCrystal
_audit_creation_method	'MofGen! by Chris Wilmer'
_symmetry_space_group_name_H-M	'P1'
_symmetry_Int_Tables_number	1
_symmetry_cell_setting	triclinic
loop_
_symmetry_equiv_pos_as_xyz
  x,y,z
_cell_length_a	14.519709
_cell_length_b	14.971486
_cell_length_c	14.048226
_cell_angle_alpha	90.001501
_cell_angle_beta	89.992623
_cell_angle_gamma	96.352863
loop_
_atom_site_label
_atom_site_type_symbol
_atom_site_fract_x
_atom_site_fract_y
_atom_site_fract_z
O1	O	0.120184	-1.187015	-0.079053
O2	O	0.134576	-0.926623	-0.079079
O3	O	-0.006863	-1.063722	-0.079057
O4	O	0.261622	-1.049915	-0.079076
O5	O	-0.006871	-1.063706	0.079264
O6	O	0.134568	-0.926606	0.079242
O7	O	0.120175	-1.186998	0.079268
Zn8	Zn	0.127370	-1.056799	0.104392
Zn9	Zn	0.127381	-1.056821	-0.104203
O10	O	0.261614	-1.049898	0.079246
C11	C	-0.041226	-1.063071	0.000104
C12	C	-0.143606	-1.061142	0.000104
C13	C	0.133928	-0.893289	0.000078
C14	C	0.131999	-0.793991	0.000068
C15	C	0.120823	-1.220331	0.000109
C16	C	0.122752	-1.319630	0.000112
C17	C	-0.518498	-1.054043	0.000079
C18	C	-0.414191	-1.056015	0.000086
C19	C	-0.331055	-1.057593	0.000092
C20	C	-0.226742	-1.059564	0.000098
C21	C	0.295978	-1.050550	0.000083
C22	C	0.398358	-1.052478	0.000076
N23	N	0.127362	-1.056791	0.246753
C24	C	0.215091	-0.736812	0.000064
C25	C	0.213273	-0.643512	0.000078
C26	C	0.128363	-0.607392	0.000090
C27	C	0.045265	-0.664578	0.000097
C28	C	0.047084	-0.757876	0.000090
C29	C	0.041480	-0.470113	0.000111
C30	C	0.039661	-0.376808	0.000116
C31	C	0.207669	-0.355749	0.000099
C32	C	0.209488	-0.449047	0.000092
C33	C	0.126390	-0.506227	0.000097
N34	N	0.127382	-1.056837	-0.246564
C35	C	0.064759	-1.117518	0.296581
C36	C	0.064758	-1.117524	0.396238
C37	C	0.127366	-1.056807	0.446066
C38	C	0.189972	-0.996073	0.396231
C39	C	0.189968	-0.996064	0.296575
C40	C	0.189979	-0.996099	0.603945
C41	C	0.189985	-0.996110	0.703608
C42	C	0.064770	-1.117560	0.703608
C43	C	0.064765	-1.117550	0.603952
C44	C	0.127373	-1.056817	0.554124
H45	H	0.280934	-0.596960	0.000074
O46	O	0.292048	-0.483988	0.000120
C47	C	0.458498	-0.453259	0.000049
C48	C	0.365064	-0.413570	0.000036
H49	H	0.517556	-0.396346	-0.000039
H50	H	0.463607	-0.496384	0.066318
H51	H	0.463498	-0.496442	-0.066196
H52	H	0.360001	-0.370348	0.066236
H53	H	0.359995	-0.370497	-0.066277
O54	O	0.004043	-1.176678	0.751966
C55	C	-0.049748	-1.332121	0.782407
C56	C	0.019080	-1.265267	0.727593
H57	H	-0.037629	-1.403760	0.762707
H58	H	-0.038994	-1.321774	0.862203
H59	H	-0.123630	-1.320312	0.762840
H60	H	0.092989	-1.277035	0.747081
H61	H	0.008244	-1.275631	0.647811
O62	O	0.004078	-1.176554	0.444751
C63	C	-0.015322	-1.298714	0.557215
C64	C	0.053501	-1.231899	0.502349
H65	H	0.024609	-1.343491	0.603782
H66	H	-0.061449	-1.260083	0.603949
H67	H	-0.060087	-1.342076	0.504472
H68	H	0.098327	-1.188520	0.555024
H69	H	0.099563	-1.270585	0.455601
O70	O	0.250872	-0.937042	0.248317
C71	C	0.375032	-0.816546	0.258828
C72	C	0.306124	-0.883358	0.313597
H73	H	0.419708	-0.773113	0.311583
H74	H	0.421232	-0.855180	0.212182
H75	H	0.335116	-0.771840	0.212161
H76	H	0.345965	-0.928081	0.360316
H77	H	0.259925	-0.844669	0.360183
H78	H	0.284234	-0.766213	0.000054
H79	H	0.275331	-0.309188	0.000099
H80	H	-0.029481	-0.347403	0.000127
O81	O	0.003730	-1.176440	0.555700
C82	C	-0.156634	-1.228513	0.525618
C83	C	-0.087551	-1.161758	0.580233
H84	H	-0.230449	-1.216679	0.545447
H85	H	-0.146101	-1.218168	0.445791
H86	H	-0.144486	-1.300163	0.545232
H87	H	-0.099657	-1.090082	0.560698
H88	H	-0.098101	-1.172182	0.660046
H89	H	-0.026188	-0.516667	0.000117
H90	H	0.240958	-0.946641	0.563379
O91	O	-0.037194	-0.629450	-0.000059
C92	C	-0.136722	-0.536291	-0.082039
C93	C	-0.043314	-0.576028	-0.081987
H94	H	-0.141693	-0.493076	-0.148261
H95	H	-0.195837	-0.593151	-0.082097
H96	H	-0.141763	-0.493177	-0.015749
H97	H	-0.038183	-0.619133	-0.148266
H98	H	0.015756	-0.519126	-0.081880
H99	H	0.240946	-0.946632	0.436807
H100	H	0.240966	-0.946666	0.744173
O101	O	-0.033717	-0.813295	0.000047
C102	C	-0.200550	-0.824343	0.000117
C103	C	-0.109110	-0.761480	0.000139
H104	H	-0.261529	-0.782476	0.000212
H105	H	-0.203959	-0.868530	-0.066159
H106	H	-0.203850	-0.868570	0.066356
H107	H	-0.105749	-0.717196	-0.066055
H108	H	-0.105739	-0.717354	0.066459
H109	H	0.013780	-1.166965	0.256017
