data_functionalizedCrystal
_audit_creation_method	'MofGen! by Chris Wilmer'
_symmetry_space_group_name_H-M	'P1'
_symmetry_Int_Tables_number	1
_symmetry_cell_setting	triclinic
loop_
_symmetry_equiv_pos_as_xyz
  x,y,z
_cell_length_a	16.109301
_cell_length_b	10.654551
_cell_length_c	15.186229
_cell_angle_alpha	89.999082
_cell_angle_beta	89.999362
_cell_angle_gamma	83.973421
loop_
_atom_site_label
_atom_site_type_symbol
_atom_site_fract_x
_atom_site_fract_y
_atom_site_fract_z
O1	O	1.104091	0.161419	-0.073167
O2	O	0.862148	0.181507	-0.073181
O3	O	0.988682	-0.011352	-0.073174
O4	O	0.977557	0.354278	-0.073174
O5	O	0.988673	-0.011354	0.073283
O6	O	0.862140	0.181504	0.073277
O7	O	1.104082	0.161416	0.073290
Zn8	Zn	0.983110	0.171460	0.096537
Zn9	Zn	0.983121	0.171463	-0.096427
O10	O	0.977549	0.354275	0.073283
C11	C	0.831164	0.180692	0.000046
C12	C	0.738854	0.178252	0.000041
C13	C	0.517229	0.287018	0.000051
C14	C	0.430495	0.284716	0.000057
C15	C	0.449008	0.055896	0.000053
C16	C	0.535741	0.058199	0.000054
C17	C	0.569849	0.173764	0.000048
C18	C	0.396382	0.169159	0.000053
C19	C	0.302341	0.166662	0.000059
C20	C	0.663895	0.176262	0.000044
C21	C	0.987861	-0.058140	0.000052
C22	C	0.985416	-0.197550	0.000046
C23	C	0.984274	-0.263045	-0.079786
C24	C	0.981970	-0.394034	-0.079782
C25	C	0.981954	-0.394022	0.079894
C26	C	0.984252	-0.263034	0.079889
C27	C	0.985438	-0.197560	-0.159628
C28	C	0.984297	-0.263056	-0.239467
C29	C	0.981993	-0.394045	-0.239463
C30	C	0.980831	-0.459539	-0.159621
C31	C	1.135066	0.162231	0.000061
C32	C	1.227376	0.164671	0.000061
C33	C	0.978370	0.401063	0.000055
C34	C	0.980814	0.540473	0.000055
N35	N	0.983108	0.171457	0.228229
N36	N	0.983129	0.171457	-0.228120
C37	C	1.039156	0.086087	0.453955
C38	C	1.039159	0.086084	0.546145
C39	C	0.927075	0.256830	0.546148
C40	C	0.927069	0.256826	0.453960
C41	C	0.983114	0.171456	0.407866
C42	C	0.983123	0.171457	0.592243
C43	C	0.983125	0.171455	0.692200
C44	C	0.983111	0.171457	0.307903
H45	H	0.421227	-0.038193	0.000063
O46	O	0.985237	-0.199507	0.157488
C47	C	0.912776	-0.217232	0.206030
H48	H	0.887160	-0.307603	0.183339
H49	H	0.863734	-0.133544	0.194932
C50	C	0.965937	-0.116573	0.332567
C51	C	0.934479	-0.227574	0.304703
H52	H	0.979323	-0.122947	0.393433
H53	H	1.014755	-0.104627	0.299863
H54	H	0.925064	-0.046844	0.323311
H55	H	0.975356	-0.297297	0.313948
H56	H	0.885669	-0.239532	0.337411
O57	O	0.980716	-0.457754	0.157392
C58	C	0.907499	-0.519245	0.162176
H59	H	0.883197	-0.534121	0.092858
H60	H	0.858049	-0.458781	0.201569
C61	C	0.956995	-0.629726	0.292965
C62	C	0.927151	-0.648006	0.207826
H63	H	0.969115	-0.709149	0.321127
H64	H	1.006321	-0.588295	0.289744
H65	H	0.915782	-0.579335	0.325780
H66	H	0.968367	-0.698383	0.175009
H67	H	0.877832	-0.689449	0.211043
O68	O	1.093622	0.003034	0.409315
C69	C	1.143099	-0.072294	0.469768
H70	H	1.109009	-0.073721	0.535485
H71	H	1.205095	-0.031494	0.479566
C72	C	1.201321	-0.206014	0.353079
C73	C	1.159447	-0.207775	0.433792
H74	H	1.211409	-0.289584	0.330887
H75	H	1.167990	-0.155262	0.312350
H76	H	1.252979	-0.172008	0.361256
H77	H	1.107785	-0.241766	0.425613
H78	H	1.192770	-0.258537	0.474520
O79	O	0.586742	-0.051939	0.000011
C80	C	0.538041	-0.154433	0.000030
H81	H	0.473502	-0.122540	-0.027699
H82	H	0.531663	-0.189860	0.070292
C83	C	0.659911	-0.300791	-0.023349
C84	C	0.580645	-0.261622	-0.057413
H85	H	0.686192	-0.366913	-0.058778
H86	H	0.692723	-0.231740	-0.023358
H87	H	0.654585	-0.330305	0.035203
H88	H	0.585973	-0.232094	-0.115958
H89	H	0.547835	-0.330671	-0.057414
H90	H	0.387655	0.376940	0.000061
H91	H	0.987317	-0.090903	-0.159641
H92	H	1.084793	0.016568	0.583668
O93	O	0.985271	-0.199475	-0.317048
C94	C	0.912843	-0.217264	-0.365624
H95	H	0.861970	-0.243297	-0.318908
H96	H	0.927759	-0.296531	-0.415395
C97	C	0.944778	-0.062478	-0.471939
C98	C	0.882294	-0.094441	-0.414560
H99	H	0.925935	0.013282	-0.502128
H100	H	0.993576	-0.050496	-0.439215
H101	H	0.957203	-0.128544	-0.513406
H102	H	0.869878	-0.028383	-0.373087
H103	H	0.833492	-0.106409	-0.447279
O104	O	0.980841	-0.457854	-0.316935
C105	C	0.978582	-0.587514	-0.299815
H106	H	0.951983	-0.600190	-0.231206
H107	H	1.044511	-0.637893	-0.303589
C108	C	0.955652	-0.628403	-0.452964
C109	C	0.922977	-0.643971	-0.368699
H110	H	0.921356	-0.663232	-0.495456
H111	H	0.957178	-0.541050	-0.464499
H112	H	1.010593	-0.670385	-0.456096
H113	H	0.868042	-0.601977	-0.365565
H114	H	0.921441	-0.731320	-0.357165
O115	O	0.872596	0.339881	0.409320
C116	C	0.823121	0.415217	0.469769
H117	H	0.857216	0.416660	0.535482
H118	H	0.761128	0.374413	0.479581
C119	C	0.764885	0.548909	0.353071
C120	C	0.806765	0.550690	0.433779
H121	H	0.754792	0.632474	0.330870
H122	H	0.798215	0.498151	0.312344
H123	H	0.713229	0.514900	0.361258
H124	H	0.858424	0.584684	0.425588
H125	H	0.773443	0.601457	0.474504
H126	H	0.978942	-0.566196	-0.159624
H127	H	0.544997	0.381119	0.000053
H128	H	0.881445	0.326338	0.583687
