data_functionalizedCrystal
_audit_creation_method	'MofGen! by Chris Wilmer'
_symmetry_space_group_name_H-M	'P1'
_symmetry_Int_Tables_number	1
_symmetry_cell_setting	triclinic
loop_
_symmetry_equiv_pos_as_xyz
  x,y,z
_cell_length_a	16.959455
_cell_length_b	25.639239
_cell_length_c	16.959447
_cell_angle_alpha	89.968198
_cell_angle_beta	89.982031
_cell_angle_gamma	90.035633
loop_
_atom_site_label
_atom_site_type_symbol
_atom_site_fract_x
_atom_site_fract_y
_atom_site_fract_z
Zn1	Zn	1.208310	-0.208190	-0.446894
Zn2	Zn	1.208181	-0.295628	-0.314709
Zn3	Zn	1.076130	-0.208204	-0.314731
Zn4	Zn	1.076060	-0.295591	-0.446847
O5	O	1.142170	-0.251903	-0.380795
O6	O	1.318904	-0.219798	-0.429369
O7	O	1.190640	-0.284053	-0.204101
O8	O	1.093747	-0.135037	-0.332291
O9	O	1.318809	-0.284039	-0.332253
O10	O	1.190859	-0.135026	-0.429391
O11	O	1.093622	-0.219823	-0.204117
O12	O	0.965510	-0.219787	-0.332247
O13	O	1.093628	-0.283976	-0.557464
O14	O	0.965459	-0.283990	-0.429312
O15	O	1.190791	-0.219762	-0.557498
O16	O	1.190572	-0.368789	-0.332208
O17	O	1.093503	-0.368761	-0.429290
C18	C	0.936804	-0.251886	-0.380777
C19	C	0.848947	-0.251891	-0.380788
C20	C	0.477474	-0.218445	-0.330359
C21	C	0.477470	-0.285404	-0.431277
C22	C	0.560015	-0.285397	-0.431272
C23	C	0.601294	-0.251914	-0.380809
C24	C	0.560028	-0.218438	-0.330351
C25	C	0.601288	-0.318875	-0.481723
C26	C	0.683839	-0.318870	-0.481720
C27	C	0.725120	-0.285384	-0.431260
C28	C	0.683848	-0.251906	-0.380801
C29	C	0.725127	-0.218423	-0.330338
C30	C	0.683857	-0.184943	-0.279882
C31	C	0.601308	-0.184952	-0.279891
C32	C	0.807668	-0.285374	-0.431251
C33	C	0.807681	-0.218416	-0.330330
C34	C	1.142037	-0.387746	-0.380759
C35	C	1.142053	-0.445860	-0.380770
C36	C	1.192846	-0.806225	-0.330331
C37	C	1.192876	-0.860829	-0.330341
O38	O	1.235925	-0.889067	-0.287417
N39	N	1.142309	-0.888142	-0.380847
C40	C	1.091714	-0.860849	-0.431352
O41	O	1.048706	-0.889095	-0.474313
C42	C	1.091688	-0.806245	-0.431345
C43	C	1.142253	-0.778935	-0.380830
C44	C	1.243407	-0.778914	-0.279820
C45	C	1.243375	-0.724313	-0.279809
C46	C	1.192782	-0.697024	-0.330308
C47	C	1.142221	-0.724334	-0.380818
C48	C	1.041097	-0.778953	-0.481853
C49	C	1.041075	-0.724346	-0.481842
C50	C	1.091640	-0.697035	-0.431326
C51	C	1.091595	-0.642444	-0.431306
N52	N	1.142163	-0.615130	-0.380800
C53	C	1.192756	-0.642420	-0.330301
C54	C	1.091773	-0.975519	-0.431364
C55	C	1.091795	-1.030122	-0.431368
C56	C	1.192959	-1.030098	-0.330358
C57	C	1.192933	-0.975495	-0.330351
C58	C	1.142341	-0.948206	-0.380858
C59	C	1.192685	-0.527755	-0.330280
C60	C	1.192646	-0.473150	-0.330271
C61	C	1.091485	-0.473178	-0.431283
C62	C	1.091521	-0.527779	-0.431290
C63	C	1.142127	-0.555066	-0.380786
O64	O	1.048572	-0.614171	-0.474211
O65	O	1.235764	-0.614167	-0.287355
C66	C	1.348338	-0.251921	-0.380814
C67	C	1.436195	-0.251929	-0.380822
C68	C	1.142216	-0.251863	-0.586963
C69	C	1.142236	-0.251846	-0.674820
C70	C	1.142325	-0.115530	-0.380849
C71	C	1.142391	-0.057416	-0.380872
C72	C	1.192758	-0.285279	-0.716087
C73	C	1.091727	-0.218400	-0.716107
C74	C	1.091741	-0.218384	-0.798653
C75	C	1.142263	-0.251817	-0.839920
C76	C	1.192772	-0.285266	-0.798641
C77	C	1.041227	-0.184940	-0.839938
C78	C	1.041238	-0.184924	-0.922489
C79	C	1.091765	-0.218355	-0.963757
C80	C	1.142277	-0.251804	-0.922473
C81	C	1.192799	-0.285237	-0.963740
C82	C	1.243315	-0.318684	-0.922458
C83	C	1.243299	-0.318696	-0.839909
C84	C	1.091781	-0.218343	-1.046306
C85	C	1.192813	-0.285224	-1.046294
C86	C	1.142170	-0.251906	-0.175429
C87	C	1.142304	-0.251776	-0.087573
H88	H	0.567699	-0.157695	-0.238812
F89	F	0.987464	-0.149335	-0.966417
F90	F	1.037645	-0.444125	-0.485027
F91	F	0.987228	-0.695306	-0.535601
H92	H	0.717477	-0.157683	-0.238791
H93	H	1.050650	-0.191111	-1.079914
H94	H	1.050349	-0.550016	-0.472426
F95	F	1.246751	-0.946434	-0.276587
F96	F	1.246591	-0.320806	-1.090207
H97	H	0.443868	-0.191185	-0.289281
F98	F	0.851607	-0.182775	-0.276623
H99	H	1.284426	-0.345928	-0.806290
H100	H	1.284448	-0.345907	-0.956068
F101	F	0.433535	-0.321046	-0.484965
H102	H	0.999917	-0.801180	-0.522984
F103	F	1.246523	-0.320871	-0.672152
F104	F	1.246804	-1.059152	-0.276611
F105	F	0.557353	-0.354521	-0.535405
H106	H	1.050589	-0.191183	-0.682502
H107	H	1.000089	-0.157725	-0.806332
H108	H	0.717435	-0.346131	-0.522805
H109	H	1.050568	-0.953303	-0.472491
F110	F	1.246466	-0.444087	-0.276503
F111	F	0.851588	-0.321007	-0.484941
H112	H	1.284552	-0.702080	-0.238678
F113	F	1.297262	-0.807950	-0.226069
F114	F	1.246545	-0.556789	-0.276528
F115	F	1.037968	-1.059182	-0.485124
