data_functionalizedCrystal
_audit_creation_method	'MofGen! by Chris Wilmer'
_symmetry_space_group_name_H-M	'P1'
_symmetry_Int_Tables_number	1
_symmetry_cell_setting	triclinic
loop_
_symmetry_equiv_pos_as_xyz
  x,y,z
_cell_length_a	12.645331
_cell_length_b	12.645330
_cell_length_c	16.959447
_cell_angle_alpha	89.973930
_cell_angle_beta	89.984361
_cell_angle_gamma	90.016671
loop_
_atom_site_label
_atom_site_type_symbol
_atom_site_fract_x
_atom_site_fract_y
_atom_site_fract_z
Zn1	Zn	1.620658	-0.422047	-0.446960
Zn2	Zn	1.620561	-0.599339	-0.314791
Zn3	Zn	1.443394	-0.422087	-0.314794
Zn4	Zn	1.443354	-0.599266	-0.446927
O5	O	1.531992	-0.510685	-0.380868
O6	O	1.768992	-0.445579	-0.429440
O7	O	1.597036	-0.575873	-0.204181
O8	O	1.466966	-0.273734	-0.332342
O9	O	1.768921	-0.575835	-0.332336
O10	O	1.597200	-0.273705	-0.429443
O11	O	1.466872	-0.445647	-0.204183
O12	O	1.295041	-0.445576	-0.332309
O13	O	1.466897	-0.575711	-0.557542
O14	O	1.295012	-0.575749	-0.429386
O15	O	1.597162	-0.445509	-0.557566
O16	O	1.596997	-0.747677	-0.332304
O17	O	1.466804	-0.747623	-0.429383
C18	C	1.256562	-0.510660	-0.380845
C19	C	1.138732	-0.510674	-0.380854
C20	C	1.531914	-0.786115	-0.380857
C21	C	1.531978	-0.903945	-0.380879
C22	C	0.971151	-0.428406	-0.320120
C23	C	1.093711	-0.428619	-0.319852
C24	C	1.094215	-0.622349	-0.358102
C25	C	0.971617	-0.621900	-0.357687
C26	C	0.971569	-0.482331	-0.464575
C27	C	1.094175	-0.479836	-0.464110
C28	C	1.450411	-1.071519	-0.442140
C29	C	1.449994	-0.948960	-0.441943
C30	C	1.501747	-0.948540	-0.297576
C31	C	1.501249	-1.071139	-0.297948
C32	C	1.644276	-1.071035	-0.402244
C33	C	1.643587	-0.948428	-0.404066
C34	C	1.808497	-0.510711	-0.380891
C35	C	1.926327	-0.510722	-0.380901
C36	C	1.532036	-0.510597	-0.587036
C37	C	1.532055	-0.510560	-0.674893
C38	C	1.532098	-0.234180	-0.380896
C39	C	1.532144	-0.116349	-0.380908
C40	C	1.464359	-0.578238	-1.046358
C41	C	1.600004	-0.442658	-1.046379
C42	C	1.599976	-0.442680	-0.963833
C43	C	1.532139	-0.510484	-0.922546
C44	C	1.464330	-0.578265	-0.963805
C45	C	1.667791	-0.374908	-0.922568
C46	C	1.667766	-0.374929	-0.840017
C47	C	1.599923	-0.442728	-0.798728
C48	C	1.532111	-0.510510	-0.839992
C49	C	1.464274	-0.578314	-0.798705
C50	C	1.396456	-0.646092	-0.839968
C51	C	1.396488	-0.646064	-0.922516
C52	C	1.599891	-0.442756	-0.716180
C53	C	1.464246	-0.578341	-0.716152
C54	C	1.532009	-0.510696	-0.175502
C55	C	1.532195	-0.510434	-0.087646
H56	H	0.941684	-0.345346	-0.334228
C57	C	1.390517	-1.109903	-0.273540
H58	H	1.346258	-1.050724	-0.263494
H59	H	1.395955	-1.151780	-0.227203
H60	H	1.361011	-1.151105	-0.314877
C61	C	1.475623	-1.111379	-0.525840
H62	H	1.536226	-1.155709	-0.524198
H63	H	1.489103	-1.052756	-0.559418
H64	H	1.417064	-1.150326	-0.545533
H65	H	1.655111	-0.387575	-0.682588
C66	C	0.932927	-0.654413	-0.275052
H67	H	0.992136	-0.667765	-0.242050
H68	H	0.891083	-0.716586	-0.278984
H69	H	0.891708	-0.598926	-0.253134
C70	C	0.932409	-0.563317	-0.525757
H71	H	0.888699	-0.614187	-0.500474
H72	H	0.991368	-0.597795	-0.549065
H73	H	0.892975	-0.527930	-0.565468
H74	H	0.940313	-0.446963	-0.258479
H75	H	1.123378	-0.685320	-0.400983
C76	C	1.578169	-1.111218	-0.234216
H77	H	1.578392	-1.186347	-0.234015
H78	H	1.556193	-1.086034	-0.184060
H79	H	1.647385	-1.086008	-0.245264
H80	H	1.123809	-0.345808	-0.334113
H81	H	1.559390	-0.919384	-0.250708
H82	H	1.122999	-0.447384	-0.257846
H83	H	1.367801	-1.102419	-0.428185
H84	H	1.420632	-0.917928	-0.279175
H85	H	1.341277	-0.701248	-0.956120
H86	H	1.722987	-0.319739	-0.806428
C87	C	1.681534	-1.112691	-0.482910
H88	H	1.629044	-1.158113	-0.504333
H89	H	1.745678	-1.150819	-0.476513
H90	H	1.692839	-1.054834	-0.517659
C91	C	1.674401	-0.909034	-0.486878
H92	H	1.619488	-0.865653	-0.507241
H93	H	1.684753	-0.967912	-0.520776
H94	H	1.737969	-0.869208	-0.483699
C95	C	1.337698	-0.909451	-0.422847
H96	H	1.337056	-0.834325	-0.422669
H97	H	1.316973	-0.934925	-0.372456
H98	H	1.289783	-0.934717	-0.461647
H99	H	1.707688	-0.917780	-0.362716
H100	H	1.124881	-0.646839	-0.297588
C101	C	0.929832	-0.374242	-0.492530
H102	H	0.884421	-0.345416	-0.453426
H103	H	0.891677	-0.382976	-0.540328
H104	H	0.987658	-0.327640	-0.501061
H105	H	1.468907	-0.918804	-0.503711
C106	C	1.133487	-0.368822	-0.487293
H107	H	1.176880	-0.341375	-0.446412
H108	H	1.074577	-0.323406	-0.495069
H109	H	1.173284	-0.373204	-0.534698
C110	C	1.726515	-1.110092	-0.341946
H111	H	1.692739	-1.153815	-0.303958
H112	H	1.757751	-1.051072	-0.316304
H113	H	1.779771	-1.149478	-0.368362
C114	C	1.674612	-0.368075	-1.091792
H115	H	1.664912	-0.377762	-1.146865
H116	H	1.745831	-0.383589	-1.078264
H117	H	1.659104	-0.296849	-1.078275
C118	C	1.135557	-0.554932	-0.528561
H119	H	1.180747	-0.606309	-0.505434
H120	H	1.173875	-0.515500	-0.566755
H121	H	1.077567	-0.589344	-0.553247
H122	H	1.408995	-0.633546	-0.682542
C123	C	1.321840	-0.720671	-0.794547
H124	H	1.331539	-0.710972	-0.739475
H125	H	1.337323	-0.791897	-0.808064
H126	H	1.250617	-0.705135	-0.808070
H127	H	1.409140	-0.633418	-1.079958
H128	H	0.941965	-0.685308	-0.400027
C129	C	1.742390	-0.300318	-0.967983
H130	H	1.732678	-0.309998	-1.023055
H131	H	1.813613	-0.315830	-0.954464
H132	H	1.726880	-0.229095	-0.954459
