data_functionalizedCrystal
_audit_creation_method	'MofGen! by Chris Wilmer'
_symmetry_space_group_name_H-M	'P1'
_symmetry_Int_Tables_number	1
_symmetry_cell_setting	triclinic
loop_
_symmetry_equiv_pos_as_xyz
  x,y,z
_cell_length_a	25.639242
_cell_length_b	25.639239
_cell_length_c	17.640968
_cell_angle_alpha	78.768889
_cell_angle_beta	78.765769
_cell_angle_gamma	90.034213
loop_
_atom_site_label
_atom_site_type_symbol
_atom_site_fract_x
_atom_site_fract_y
_atom_site_fract_z
Zn1	Zn	0.859084	-0.148417	-0.447141
Zn2	Zn	0.841310	-0.253533	-0.314945
Zn3	Zn	0.753963	-0.166107	-0.314944
Zn4	Zn	0.771596	-0.235826	-0.447072
O5	O	0.806488	-0.200971	-0.381025
O6	O	0.929895	-0.162368	-0.429634
O7	O	0.814905	-0.256750	-0.204324
O8	O	0.767966	-0.090591	-0.332509
O9	O	0.916837	-0.239597	-0.332510
O10	O	0.845198	-0.077595	-0.429634
O11	O	0.750732	-0.192518	-0.204324
O12	O	0.683133	-0.175348	-0.332442
O13	O	0.798019	-0.209417	-0.557702
O14	O	0.696088	-0.226570	-0.429516
O15	O	0.862296	-0.145198	-0.557752
O16	O	0.832003	-0.324353	-0.332443
O17	O	0.780785	-0.311344	-0.429516
C18	C	0.670638	-0.200957	-0.380972
C19	C	0.612524	-0.200962	-0.380968
C20	C	0.258916	-0.227704	-0.431524
C21	C	0.204314	-0.227706	-0.431536
O22	O	0.181815	-0.250424	-0.474475
N23	N	0.170256	-0.200978	-0.381077
C24	C	0.190804	-0.174243	-0.330608
O25	O	0.156821	-0.151509	-0.287690
C26	C	0.245406	-0.174238	-0.330600
C27	C	0.279461	-0.200972	-0.381057
C28	C	0.292971	-0.254436	-0.481977
C29	C	0.347569	-0.254435	-0.481963
C30	C	0.368114	-0.227703	-0.431496
C31	C	0.334059	-0.200972	-0.381043
C32	C	0.265953	-0.147500	-0.280135
C33	C	0.320560	-0.147498	-0.280132
C34	C	0.354615	-0.174232	-0.330589
C35	C	0.409202	-0.174239	-0.330562
N36	N	0.443260	-0.200966	-0.381021
C37	C	0.422716	-0.227698	-0.431488
C38	C	0.076136	-0.174253	-0.330629
C39	C	0.021534	-0.174260	-0.330632
C40	C	0.035048	-0.227723	-0.431562
C41	C	0.089650	-0.227719	-0.431554
C42	C	0.110194	-0.200981	-0.381088
C43	C	0.537377	-0.227695	-0.431455
C44	C	0.591979	-0.227694	-0.431435
C45	C	0.578461	-0.174229	-0.330508
C46	C	0.523863	-0.174233	-0.330525
C47	C	0.503323	-0.200966	-0.381005
O48	O	0.431739	-0.151530	-0.287647
O49	O	0.456705	-0.250423	-0.474406
C50	C	0.806395	-0.336818	-0.380989
C51	C	0.806407	-0.394931	-0.381000
C52	C	0.833256	-0.762040	-0.330566
C53	C	0.833278	-0.816643	-0.330576
O54	O	0.856010	-0.850622	-0.287655
N55	N	0.806587	-0.837203	-0.381078
C56	C	0.779877	-0.803155	-0.431578
O57	O	0.757176	-0.825657	-0.474535
C58	C	0.779859	-0.748553	-0.431571
C59	C	0.806547	-0.727998	-0.381060
C60	C	0.859943	-0.741484	-0.280060
C61	C	0.859920	-0.686885	-0.280048
C62	C	0.833211	-0.652842	-0.330543
C63	C	0.806524	-0.673399	-0.381049
C64	C	0.753152	-0.714506	-0.482074
C65	C	0.753136	-0.659901	-0.482063
C66	C	0.779825	-0.639345	-0.431553
C67	C	0.779792	-0.584757	-0.431532
N68	N	0.806484	-0.564197	-0.381030
C69	C	0.833193	-0.598240	-0.330535
C70	C	0.779918	-0.917824	-0.431590
C71	C	0.779933	-0.972426	-0.431594
C72	C	0.833335	-0.985910	-0.330593
C73	C	0.833317	-0.931308	-0.330586
C74	C	0.806609	-0.897265	-0.381088
C75	C	0.833143	-0.483578	-0.330515
C76	C	0.833116	-0.428974	-0.330506
C77	C	0.779717	-0.415494	-0.431509
C78	C	0.779741	-0.470094	-0.431516
C79	C	0.806458	-0.504135	-0.381016
O80	O	0.757074	-0.550746	-0.474433
O81	O	0.855895	-0.575730	-0.287593
C82	C	0.942868	-0.200985	-0.381080
C83	C	1.000985	-0.200990	-0.381103
C84	C	0.834107	-0.173359	-0.587212
C85	C	0.845876	-0.161593	-0.675076
C86	C	0.806598	-0.064591	-0.381079
C87	C	0.806644	-0.006473	-0.381102
C88	C	0.717277	-0.290075	-0.963918
C89	C	0.728347	-0.279012	-1.046480
C90	C	0.795273	-0.212147	-1.046523
C91	C	0.784207	-0.223202	-0.963959
C92	C	0.745208	-0.262167	-0.922663
C93	C	0.812138	-0.195295	-0.922704
C94	C	0.801074	-0.206352	-0.840148
C95	C	0.762079	-0.245316	-0.798846
C96	C	0.734145	-0.273224	-0.840107
C97	C	0.851139	-0.156332	-0.964001
C98	C	0.879070	-0.128425	-0.922746
C99	C	0.868004	-0.139479	-0.840189
C100	C	0.829009	-0.178443	-0.798887
C101	C	0.895938	-0.111570	-0.798928
C102	C	0.884875	-0.122627	-0.716372
C103	C	0.817945	-0.189500	-0.716331
C104	C	0.779007	-0.228437	-0.175641
C105	C	0.767339	-0.240056	-0.087778
H106	H	0.337283	-0.125720	-0.239040
O107	O	0.679333	-0.327858	-0.923770
C108	C	0.639190	-0.304490	-0.875999
H109	H	0.639325	-0.259976	-0.900884
H110	H	0.646971	-0.311076	-0.813435
C111	C	0.584481	-0.384873	-0.844153
C112	C	0.584644	-0.330200	-0.874720
H113	H	0.550835	-0.400734	-0.843360
H114	H	0.611527	-0.400618	-0.876335
H115	H	0.590968	-0.390354	-0.792019
H116	H	0.578164	-0.324720	-0.926857
H117	H	0.557596	-0.314456	-0.842547
H118	H	0.731389	-0.632184	-0.523191
O119	O	0.916881	-0.090515	-0.962900
C120	C	0.893540	-0.050354	-1.010676
H121	H	0.849028	-0.050454	-0.985789
H122	H	0.900113	-0.058142	-1.073237
C123	C	0.973965	0.004293	-1.042540
C124	C	0.919295	0.004173	-1.011969
H125	H	0.989853	0.037928	-1.043341
H126	H	0.989691	-0.022765	-1.010355
H127	H	0.979435	-0.002200	-1.094671
H128	H	0.913826	0.010659	-0.959835
H129	H	0.903568	0.031233	-1.044145
O130	O	-0.011467	-0.148250	-0.281587
C131	C	0.018380	-0.124670	-0.237029
H132	H	0.061649	-0.118558	-0.269409
H133	H	0.016113	-0.151803	-0.176940
C134	C	-0.057547	-0.078024	-0.186020
C135	C	-0.004404	-0.070513	-0.225793
H136	H	-0.071602	-0.044618	-0.179085
H137	H	-0.077656	-0.093912	-0.216037
H138	H	-0.059429	-0.100636	-0.135950
H139	H	-0.002523	-0.047907	-0.275866
H140	H	0.015705	-0.054620	-0.195784
O141	O	0.933752	-0.073664	-0.839083
C142	C	0.910416	-0.033502	-0.886864
H143	H	0.865904	-0.033596	-0.861979
H144	H	0.916988	-0.041293	-0.949423
C145	C	0.990846	0.021137	-0.918730
C146	C	0.936176	0.021024	-0.888161
H147	H	1.006738	0.054771	-0.919534
H148	H	1.006569	-0.005922	-0.886541
H149	H	0.996316	0.014642	-0.970859
H150	H	0.930707	0.027512	-0.836029
H151	H	0.920453	0.048085	-0.920341
O152	O	0.753808	-0.489974	-0.480652
C153	C	0.730216	-0.448218	-0.525201
H154	H	0.751981	-0.408902	-0.527955
H155	H	0.686632	-0.446347	-0.496190
C156	C	0.707184	-0.506529	-0.605947
C157	C	0.733920	-0.458242	-0.609336
H158	H	0.709467	-0.512713	-0.657844
H159	H	0.723077	-0.534662	-0.575932
H160	H	0.670867	-0.504964	-0.581768
H161	H	0.770238	-0.459810	-0.633505
H162	H	0.718034	-0.430109	-0.639356
O163	O	0.885891	-0.666847	-0.231098
C164	C	0.925671	-0.629198	-0.276155
H165	H	0.915213	-0.612997	-0.336028
H166	H	0.965589	-0.649035	-0.284914
C167	C	0.942170	-0.603057	-0.159128
C168	C	0.929324	-0.583156	-0.232662
H169	H	0.944425	-0.574657	-0.132298
H170	H	0.915371	-0.628423	-0.128771
H171	H	0.975434	-0.619587	-0.166437
H172	H	0.896057	-0.566632	-0.225351
H173	H	0.956117	-0.557786	-0.263016
H174	H	0.758194	-0.989158	-0.472717
H175	H	0.276251	-0.276204	-0.523078
O176	O	0.753861	-0.382382	-0.480643
C177	C	0.790442	-0.343909	-0.531718
H178	H	0.832284	-0.359669	-0.536664
H179	H	0.788971	-0.305807	-0.507264
C180	C	0.724474	-0.312706	-0.607784
C181	C	0.775865	-0.332065	-0.613865
H182	H	0.715481	-0.305398	-0.658455
H183	H	0.699828	-0.338625	-0.573373
H184	H	0.723255	-0.280957	-0.587403
H185	H	0.777081	-0.363816	-0.634236
H186	H	0.800511	-0.306151	-0.648281
O187	O	0.380576	-0.280407	-0.531058
C188	C	0.350723	-0.304008	-0.575585
H189	H	0.312187	-0.282221	-0.578377
H190	H	0.340995	-0.347579	-0.546532
C191	C	0.430639	-0.327122	-0.656270
C192	C	0.383311	-0.300359	-0.659705
H193	H	0.450741	-0.324874	-0.708158
H194	H	0.450752	-0.311223	-0.626270
H195	H	0.422525	-0.363429	-0.632056
H196	H	0.391425	-0.264052	-0.683909
H197	H	0.363200	-0.316252	-0.689711
H198	H	0.855085	-1.013638	-0.289480
H199	H	0.854900	-0.511288	-0.289395
H200	H	0.827027	-0.180423	-1.080157
H201	H	0.117375	-0.249487	-0.472642
O202	O	0.912038	-0.095452	-0.676414
C203	C	0.948839	-0.058698	-0.730565
H204	H	0.935312	-0.049002	-0.789410
H205	H	0.989711	-0.076673	-0.739347
C206	C	0.968711	-0.019276	-0.626087
C207	C	0.952095	-0.007364	-0.698360
H208	H	0.970723	0.012389	-0.606221
H209	H	0.943919	-0.044039	-0.589603
H210	H	1.002770	-0.034256	-0.633415
H211	H	0.918034	0.007610	-0.691029
H212	H	0.976882	0.017403	-0.734841
O213	O	0.232959	-0.121481	-0.231100
C214	C	0.262811	-0.097897	-0.186552
H215	H	0.306080	-0.091791	-0.218935
H216	H	0.260544	-0.125024	-0.126458
C217	C	0.186892	-0.051238	-0.135552
C218	C	0.240034	-0.043735	-0.175329
H219	H	0.172841	-0.017830	-0.128625
H220	H	0.166779	-0.067129	-0.165562
H221	H	0.185010	-0.073846	-0.085478
H222	H	0.241915	-0.021134	-0.225405
H223	H	0.260147	-0.027840	-0.145327
O224	O	0.753921	-0.884835	-0.480670
C225	C	0.730380	-0.914694	-0.525254
H226	H	0.724267	-0.957961	-0.492872
H227	H	0.757542	-0.912427	-0.585324
C228	C	0.683740	-0.838785	-0.576327
C229	C	0.676228	-0.891925	-0.536551
H230	H	0.650337	-0.824739	-0.583299
H231	H	0.699601	-0.818667	-0.546292
H232	H	0.706376	-0.836903	-0.626380
H233	H	0.653597	-0.893806	-0.486496
H234	H	0.660362	-0.912042	-0.566578
O235	O	0.015003	-0.253642	-0.480568
C236	C	-0.040494	-0.247919	-0.469738
H237	H	-0.051385	-0.210997	-0.443954
H238	H	-0.061668	-0.284538	-0.427562
C239	C	-0.044426	-0.287425	-0.581378
C240	C	-0.057802	-0.242074	-0.549717
H241	H	-0.055103	-0.283822	-0.630712
H242	H	-0.007037	-0.291283	-0.588673
H243	H	-0.062072	-0.317937	-0.546224
H244	H	-0.040151	-0.211565	-0.584866
H245	H	-0.095189	-0.238211	-0.542429
H246	H	0.881696	-0.769197	-0.238941
O247	O	0.490856	-0.148222	-0.281483
C248	C	0.520698	-0.124643	-0.236919
H249	H	0.563968	-0.118532	-0.269290
H250	H	0.518425	-0.151775	-0.176827
C251	C	0.444769	-0.077994	-0.185924
C252	C	0.497914	-0.070484	-0.225687
H253	H	0.430714	-0.044588	-0.178992
H254	H	0.424663	-0.093881	-0.215945
H255	H	0.442882	-0.100606	-0.135852
H256	H	0.499799	-0.047878	-0.275761
H257	H	0.518020	-0.054592	-0.195674
H258	H	0.786176	-0.221217	-0.682705
O259	O	0.517513	-0.253709	-0.480517
C260	C	0.559289	-0.277287	-0.525054
H261	H	0.593860	-0.283397	-0.492654
H262	H	0.573176	-0.250154	-0.585141
C263	C	0.497006	-0.323937	-0.576102
C264	C	0.539465	-0.331446	-0.536303
H265	H	0.484778	-0.357344	-0.583044
H266	H	0.468861	-0.308051	-0.546098
H267	H	0.508584	-0.301325	-0.626170
H268	H	0.527885	-0.354052	-0.486233
H269	H	0.567608	-0.347337	-0.566299
H270	H	0.595198	-0.152467	-0.289417
H271	H	0.855049	-0.914575	-0.289456
O272	O	0.696329	-0.311150	-0.800011
C273	C	0.710420	-0.360558	-0.820184
H274	H	0.755227	-0.360152	-0.842909
H275	H	0.688789	-0.367816	-0.868076
C276	C	0.639469	-0.405773	-0.718913
C277	C	0.694504	-0.405276	-0.746819
H278	H	0.629650	-0.433358	-0.673660
H279	H	0.629975	-0.372486	-0.705324
H280	H	0.621450	-0.411819	-0.758830
H281	H	0.712522	-0.399223	-0.706906
H282	H	0.704001	-0.438563	-0.760399
O283	O	0.859090	-0.409091	-0.281413
C284	C	0.882658	-0.450853	-0.236837
H285	H	0.888803	-0.485427	-0.269230
H286	H	0.855500	-0.464740	-0.176771
C287	C	0.929241	-0.388544	-0.185743
C288	C	0.936792	-0.431007	-0.225532
H289	H	0.962632	-0.376302	-0.178765
H290	H	0.913361	-0.360408	-0.215772
H291	H	0.906607	-0.400122	-0.135692
H292	H	0.959420	-0.419426	-0.275586
H293	H	0.952677	-0.459140	-0.195511
O294	O	0.727222	-0.734374	-0.531219
C295	C	0.703640	-0.692609	-0.575767
H296	H	0.725414	-0.653299	-0.578518
H297	H	0.660057	-0.690730	-0.546760
C298	C	0.680597	-0.750910	-0.656520
C299	C	0.707343	-0.702629	-0.659904
H300	H	0.682879	-0.757092	-0.708419
H301	H	0.696483	-0.779048	-0.626505
H302	H	0.644280	-0.749338	-0.632344
H303	H	0.743660	-0.704205	-0.684071
H304	H	0.691463	-0.674492	-0.689925
H305	H	0.860147	-0.147332	-1.031224
H306	H	0.753074	-0.254320	-0.731624
O307	O	0.701146	-0.306156	-1.086433
C308	C	0.664365	-0.342927	-1.032278
H309	H	0.654683	-0.329392	-0.973436
H310	H	0.682306	-0.383815	-1.023488
C311	C	0.624919	-0.362770	-1.136751
C312	C	0.613025	-0.346143	-1.064483
H313	H	0.593252	-0.364756	-1.156617
H314	H	0.649701	-0.337998	-1.173237
H315	H	0.639871	-0.396842	-1.129416
H316	H	0.598080	-0.312069	-1.071820
H317	H	0.588240	-0.370910	-1.027998
H318	H	0.619705	-0.249466	-0.472523
H319	H	0.092858	-0.152481	-0.289528
