data_functionalizedCrystal
_audit_creation_method	'MofGen! by Chris Wilmer'
_symmetry_space_group_name_H-M	'P1'
_symmetry_Int_Tables_number	1
_symmetry_cell_setting	triclinic
loop_
_symmetry_equiv_pos_as_xyz
  x,y,z
_cell_length_a	10.654550
_cell_length_b	10.654550
_cell_length_c	9.730223
_cell_angle_alpha	90.002059
_cell_angle_beta	90.000656
_cell_angle_gamma	84.484931
loop_
_atom_site_label
_atom_site_type_symbol
_atom_site_fract_x
_atom_site_fract_y
_atom_site_fract_z
O1	O	-1.667841	-0.176394	-0.114187
O2	O	-1.302362	-0.193201	-0.114212
O3	O	-1.493504	-0.002058	-0.114190
O4	O	-1.476698	-0.367537	-0.114209
O5	O	-1.493489	-0.002061	0.114390
O6	O	-1.302347	-0.193204	0.114368
O7	O	-1.667825	-0.176397	0.114393
Zn8	Zn	-1.485083	-0.184801	0.150672
Zn9	Zn	-1.485104	-0.184797	-0.150492
O10	O	-1.476683	-0.367540	0.114371
C11	C	-1.255556	-0.191968	0.000075
C12	C	-1.116113	-0.188276	0.000065
C13	C	-1.492263	0.044738	0.000099
C14	C	-1.488571	0.184181	0.000096
C15	C	-1.714631	-0.177630	0.000103
C16	C	-1.854074	-0.181322	0.000104
N17	N	-1.485079	-0.184803	0.356209
C18	C	-1.036628	-0.300818	0.000064
C19	C	-0.905607	-0.297341	0.000088
C20	C	-0.933570	-0.068772	0.000109
C21	C	-1.064588	-0.072250	0.000095
C22	C	-1.477925	-0.414336	0.000079
C23	C	-1.481616	-0.553779	0.000072
C24	C	-1.601112	0.263667	0.000104
C25	C	-1.597636	0.394688	0.000087
C26	C	-1.369066	0.366725	0.000061
C27	C	-1.372544	0.235706	0.000068
C28	C	-1.561910	-0.261686	0.428131
C29	C	-1.561929	-0.261681	0.572014
C30	C	-1.408276	-0.107906	0.572040
C31	C	-1.408264	-0.107906	0.428159
N32	N	-1.485110	-0.184798	0.643972
H33	H	-1.078574	-0.395294	0.000049
C34	C	-1.646437	-0.346258	0.651123
H35	H	-1.692172	-0.392059	0.587661
H36	H	-1.703800	-0.295336	0.707247
H37	H	-1.595466	-0.403583	0.707253
C38	C	-1.241445	0.423401	0.000034
H39	H	-1.174917	0.357294	0.000016
H40	H	-1.235323	0.473937	0.079740
H41	H	-1.235350	0.473922	-0.079692
H42	H	-1.280893	0.170985	0.000058
C43	C	-0.876887	0.058847	0.000125
H44	H	-0.787473	0.044802	0.000118
H45	H	-0.904107	0.105235	0.079835
H46	H	-0.904101	0.105230	-0.079597
H47	H	-1.689279	0.459401	0.000090
H48	H	-0.840894	-0.388984	0.000089
C49	C	-1.152028	0.051552	0.000091
H50	H	-1.102579	0.121151	0.000090
H51	H	-1.203727	0.054943	0.079795
H52	H	-1.203711	0.054944	-0.079636
C53	C	-1.646418	-0.346252	0.348990
H54	H	-1.692188	-0.392028	0.412437
H55	H	-1.595459	-0.403577	0.292860
H56	H	-1.703770	-0.295308	0.292865
H57	H	-1.345735	-0.045301	0.630639
C58	C	-1.323720	-0.023361	0.349033
H59	H	-1.334718	-0.034374	0.253039
H60	H	-1.238003	-0.045915	0.372631
H61	H	-1.346300	0.062368	0.372598
C62	C	-1.728735	0.206993	0.000119
H63	H	-1.795262	0.273101	0.000109
H64	H	-1.734841	0.156468	0.079832
H65	H	-1.734847	0.156460	-0.079600
