data_functionalizedCrystal
_audit_creation_method	'MofGen! by Chris Wilmer'
_symmetry_space_group_name_H-M	'P1'
_symmetry_Int_Tables_number	1
_symmetry_cell_setting	triclinic
loop_
_symmetry_equiv_pos_as_xyz
  x,y,z
_cell_length_a	14.044220
_cell_length_b	14.044220
_cell_length_c	12.503552
_cell_angle_alpha	86.157908
_cell_angle_beta	86.160109
_cell_angle_gamma	86.811122
loop_
_atom_site_label
_atom_site_type_symbol
_atom_site_fract_x
_atom_site_fract_y
_atom_site_fract_z
O1	O	-1.282206	0.225122	0.089201
O2	O	-0.782206	0.725122	0.589201
O3	O	-1.005536	0.216814	0.089228
O4	O	-0.505536	0.716814	0.589228
O5	O	-1.139718	0.082632	0.089210
O6	O	-0.639718	0.582632	0.589210
O7	O	-1.148024	0.359303	0.089219
O8	O	-0.648024	0.859303	0.589219
O9	O	-1.129615	0.092732	-0.089431
O10	O	-0.629615	0.592732	0.410569
O11	O	-0.995433	0.226914	-0.089413
O12	O	-0.495433	0.726914	0.410587
O13	O	-1.272103	0.235221	-0.089440
O14	O	-0.772103	0.735221	0.410560
Cu15	Cu	-1.132846	0.231990	-0.105738
Cu16	Cu	-0.632846	0.731990	0.394262
Cu17	Cu	-1.144794	0.220046	0.105526
Cu18	Cu	-0.644794	0.720046	0.605526
O19	O	-1.137921	0.369403	-0.089422
O20	O	-0.637921	0.869403	0.410578
C21	C	-0.964863	0.218228	-0.000089
C22	C	-0.464863	0.718228	0.499911
C23	C	-0.858721	0.207383	-0.000078
C24	C	-0.358721	0.707383	0.499922
C25	C	-1.131031	0.052060	-0.000109
C26	C	-0.631031	0.552060	0.499891
C27	C	-1.120187	-0.054083	-0.000105
C28	C	-0.620187	0.445917	0.499895
C29	C	-1.312776	0.233807	-0.000121
C30	C	-0.812776	0.733807	0.499879
C31	C	-1.418919	0.244652	-0.000124
C32	C	-0.918919	0.744652	0.499876
C33	C	-1.146609	0.399975	-0.000101
C34	C	-0.646609	0.899975	0.499899
C35	C	-1.157453	0.506118	-0.000098
C36	C	-0.657453	1.006118	0.499902
C37	C	-0.664382	0.187558	-0.000100
C38	C	-0.164382	0.687558	0.499900
C39	C	-0.613252	0.264473	-0.000102
C40	C	-0.113252	0.764473	0.499898
C41	C	-0.505115	0.253442	-0.000115
C42	C	-0.005115	0.753442	0.499885
C43	C	-0.772529	0.198588	-0.000088
C44	C	-0.272529	0.698588	0.499912
N45	N	-1.124449	0.240391	-0.254330
N46	N	-0.624449	0.740391	0.245670
C47	C	-1.177279	0.700456	-0.000105
C48	C	-0.677279	1.200456	0.499895
C49	C	-1.100365	0.751585	-0.000098
C50	C	-0.600365	1.251585	0.499902
C51	C	-1.111396	0.859722	-0.000102
C52	C	-0.611396	1.359722	0.499898
C53	C	-1.166249	0.592310	-0.000101
C54	C	-0.666249	1.092310	0.499899
C55	C	-1.165544	0.199276	-0.526768
C56	C	-0.665544	0.699276	-0.026768
C57	C	-1.112105	0.252750	-0.473437
C58	C	-0.612105	0.752750	0.026563
C59	C	-1.118975	0.245872	-0.351514
C60	C	-0.618975	0.745872	0.148486
C61	C	-1.158675	0.206153	-0.648702
C62	C	-0.658675	0.706153	-0.148702
N63	N	-1.153197	0.211638	0.254117
N64	N	-0.653197	0.711638	0.754117
H65	H	-0.650692	0.338606	-0.000095
H66	H	-0.150692	0.838606	0.499905
Br67	Br	-1.027252	0.337664	-0.549951
Br68	Br	-0.527252	0.837664	-0.049951
H69	H	-1.026232	0.714146	-0.000091
H70	H	-0.526232	1.214146	0.499909
H71	H	-1.251406	0.737893	-0.000116
H72	H	-0.751406	1.237893	0.499884
Br73	Br	-1.250396	0.114368	-0.450258
Br74	Br	-0.750396	0.614368	0.049742
H75	H	-0.626945	0.113431	-0.000109
H76	H	-0.126945	0.613431	0.499891
