data_functionalizedCrystal
_audit_creation_method	'MofGen! by Chris Wilmer'
_symmetry_space_group_name_H-M	'P1'
_symmetry_Int_Tables_number	1
_symmetry_cell_setting	triclinic
loop_
_symmetry_equiv_pos_as_xyz
  x,y,z
_cell_length_a	12.827893
_cell_length_b	12.827892
_cell_length_c	17.077396
_cell_angle_alpha	89.974288
_cell_angle_beta	89.984834
_cell_angle_gamma	90.015553
loop_
_atom_site_label
_atom_site_type_symbol
_atom_site_fract_x
_atom_site_fract_y
_atom_site_fract_z
Zn1	Zn	1.597629	-0.416020	-0.443819
Zn2	Zn	1.597535	-0.590785	-0.312561
Zn3	Zn	1.422883	-0.416059	-0.312572
Zn4	Zn	1.422856	-0.590720	-0.443789
O5	O	1.510226	-0.503396	-0.378185
O6	O	1.743853	-0.439214	-0.426415
O7	O	1.574339	-0.567651	-0.202716
O8	O	1.446114	-0.269818	-0.329998
O9	O	1.743784	-0.567613	-0.329981
O10	O	1.574499	-0.269789	-0.426425
O11	O	1.446022	-0.439280	-0.202723
O12	O	1.276643	-0.439217	-0.329970
O13	O	1.446068	-0.567502	-0.553640
O14	O	1.276623	-0.567540	-0.426375
O15	O	1.574473	-0.439151	-0.553662
O16	O	1.574313	-0.737012	-0.329952
O17	O	1.445977	-0.736965	-0.426365
C18	C	1.238716	-0.503377	-0.378171
C19	C	1.122563	-0.503394	-0.378184
C20	C	1.070760	-0.439811	-0.330564
C21	C	0.950710	-0.439827	-0.330576
C22	C	1.510160	-0.774906	-0.378171
C23	C	1.510228	-0.891059	-0.378192
C24	C	1.573808	-0.942833	-0.330537
C25	C	1.573880	-1.062883	-0.330556
C26	C	1.782796	-0.503416	-0.378200
C27	C	1.898949	-0.503425	-0.378206
C28	C	1.510278	-0.503315	-0.582930
C29	C	1.510301	-0.503281	-0.670179
C30	C	1.510320	-0.230826	-0.378216
C31	C	1.510360	-0.114673	-0.378230
C32	C	1.443506	-0.436430	-0.711173
C33	C	1.443524	-0.436406	-0.793154
C34	C	1.510341	-0.503229	-0.834139
C35	C	1.577138	-0.570086	-0.793140
C36	C	1.577115	-0.570115	-0.711161
C37	C	1.577183	-0.570021	-0.964010
C38	C	1.577208	-0.569992	-1.045994
C39	C	1.443592	-0.436313	-1.046003
C40	C	1.443569	-0.436341	-0.964024
C41	C	1.510367	-0.503198	-0.923030
C42	C	1.510234	-0.503401	-0.174237
C43	C	1.510414	-0.503141	-0.086988
H44	H	1.078036	-0.557844	-0.418959
C45	C	1.646147	-0.883383	-0.276015
C46	C	1.586921	-0.820836	-0.225684
C47	C	1.653525	-0.766068	-0.175440
H48	H	1.691612	-0.840652	-0.306004
H49	H	1.686029	-0.931397	-0.246071
H50	H	1.547058	-0.772826	-0.255624
H51	H	1.541460	-0.863540	-0.195678
H52	H	1.693406	-0.814083	-0.145496
H53	H	1.698986	-0.723344	-0.205435
H54	H	1.613350	-0.723631	-0.141280
C55	C	1.370886	-0.363788	-1.090400
C56	C	1.267482	-0.386524	-1.070424
C57	C	1.200482	-0.319726	-1.111300
H58	H	1.380314	-0.373271	-1.145106
H59	H	1.386142	-0.293564	-1.076957
H60	H	1.252232	-0.456732	-1.083872
H61	H	1.258022	-0.377035	-1.015725
H62	H	1.215738	-0.249501	-1.097857
H63	H	1.209919	-0.329214	-1.166004
H64	H	1.130316	-0.335136	-1.097747
H65	H	1.631513	-0.624543	-0.677785
C66	C	1.646463	-1.122430	-0.276265
C67	C	1.632153	-1.229663	-0.287115
C68	C	1.699027	-1.284551	-0.237135
H69	H	1.631323	-1.104799	-0.223456
H70	H	1.716682	-1.104564	-0.287821
H71	H	1.561949	-1.247521	-0.275554
H72	H	1.647300	-1.247324	-0.339914
H73	H	1.769247	-1.266685	-0.248691
H74	H	1.683881	-1.266912	-0.184329
H75	H	1.689334	-1.357314	-0.244495
H76	H	1.389165	-0.381924	-0.930656
C77	C	0.891458	-0.367299	-0.276079
C78	C	0.917915	-0.389887	-0.198367
C79	C	0.863366	-0.323084	-0.148140
H80	H	0.818648	-0.376886	-0.283201
H81	H	0.909336	-0.297069	-0.287594
H82	H	0.900030	-0.460100	-0.186855
H83	H	0.990716	-0.380294	-0.191220
H84	H	0.881243	-0.252854	-0.159655
H85	H	0.790558	-0.332676	-0.155269
H86	H	0.881316	-0.338394	-0.095407
H87	H	1.455919	-1.070156	-0.419028
C88	C	1.649817	-0.642653	-0.919642
C89	C	1.708358	-0.701148	-0.973080
C90	C	1.775287	-0.768053	-0.932237
H91	H	1.609930	-0.688285	-0.887653
H92	H	1.695411	-0.602718	-0.887685
H93	H	1.662769	-0.741080	-1.005023
H94	H	1.748266	-0.655544	-1.005071
H95	H	1.820881	-0.728119	-0.900280
H96	H	1.735391	-0.813678	-0.900249
H97	H	1.815021	-0.807744	-0.968488
H98	H	1.455852	-0.935610	-0.419009
C99	C	1.370843	-0.363841	-0.666820
C100	C	1.312330	-0.305313	-0.720271
C101	C	1.245367	-0.238445	-0.679445
H102	H	1.410704	-0.318227	-0.634844
H103	H	1.325232	-0.403803	-0.634850
H104	H	1.357935	-0.265354	-0.752227
H105	H	1.272448	-0.350899	-0.752249
H106	H	1.199756	-0.278408	-0.647475
H107	H	1.285236	-0.192839	-0.647470
H108	H	1.205651	-0.198734	-0.715705
C109	C	1.370858	-0.364005	-0.837694
C110	C	1.303846	-0.423163	-0.884720
C111	C	1.236871	-0.356506	-0.925749
H112	H	1.410719	-0.318437	-0.869753
H113	H	1.331006	-0.324236	-0.801561
H114	H	1.343694	-0.462914	-0.920848
H115	H	1.263962	-0.468728	-0.852680
H116	H	1.197019	-0.316738	-0.889616
H117	H	1.276741	-0.310942	-0.957804
H118	H	1.191389	-0.396635	-0.957655
H119	H	1.115287	-0.385368	-0.289783
H120	H	1.631616	-0.624404	-1.079363
H121	H	0.943491	-0.557858	-0.418981
H122	H	1.631536	-0.624500	-0.826517
