data_functionalizedCrystal
_audit_creation_method	'MofGen! by Chris Wilmer'
_symmetry_space_group_name_H-M	'P1'
_symmetry_Int_Tables_number	1
_symmetry_cell_setting	triclinic
loop_
_symmetry_equiv_pos_as_xyz
  x,y,z
_cell_length_a	15.995292
_cell_length_b	23.532357
_cell_length_c	15.072220
_cell_angle_alpha	89.993295
_cell_angle_beta	89.986330
_cell_angle_gamma	83.148454
loop_
_atom_site_label
_atom_site_type_symbol
_atom_site_fract_x
_atom_site_fract_y
_atom_site_fract_z
O1	O	1.110398	0.073248	-0.073817
O2	O	0.866538	0.082348	-0.073815
O3	O	0.995843	-0.005109	-0.073798
O4	O	0.981092	0.160704	-0.073835
O5	O	0.995811	-0.005104	0.073767
O6	O	0.866506	0.082353	0.073750
O7	O	1.110366	0.073253	0.073748
Zn8	Zn	0.988431	0.077803	0.097178
Zn9	Zn	0.988473	0.077797	-0.097246
O10	O	0.981060	0.160709	0.073731
C11	C	0.835329	0.081980	-0.000032
C12	C	0.742386	0.080869	-0.000031
C13	C	0.404682	0.076788	-0.000040
C14	C	0.427453	0.139911	-0.000383
C15	C	0.524118	0.141111	-0.000047
C16	C	0.572221	0.078813	-0.000036
C17	C	0.543372	0.047257	0.084235
C18	C	0.446588	0.046497	0.084302
C19	C	0.446780	0.045202	-0.083507
C20	C	0.543252	0.047542	-0.084617
C21	C	0.666907	0.079954	-0.000031
C22	C	0.309997	0.075644	-0.000039
C23	C	0.995458	-0.026324	-0.000013
C24	C	0.994349	-0.089547	-0.000005
C25	C	0.987402	-0.481587	-0.080490
C26	C	0.986348	-0.540990	-0.080495
O27	O	0.985789	-0.571711	-0.148904
N28	N	0.985807	-0.570700	-0.000059
C29	C	0.986313	-0.541004	0.080388
O30	O	0.985756	-0.571729	0.148806
C31	C	0.987362	-0.481601	0.080392
C32	C	0.987910	-0.451894	-0.000049
C33	C	0.987950	-0.451880	-0.160926
C34	C	0.989006	-0.392481	-0.160920
C35	C	0.989514	-0.362788	-0.080479
C36	C	0.988966	-0.392495	-0.000044
C37	C	0.987861	-0.451905	0.160839
C38	C	0.988909	-0.392498	0.160836
C39	C	0.989458	-0.362791	0.080394
C40	C	0.990531	-0.303404	0.080402
N41	N	0.991071	-0.273693	-0.000035
C42	C	0.990563	-0.303386	-0.080475
C43	C	0.984110	-0.665753	0.080374
C44	C	0.983067	-0.725156	0.080370
C45	C	0.983100	-0.725138	-0.080514
C46	C	0.984149	-0.665735	-0.080509
C47	C	0.984650	-0.636043	-0.000063
C48	C	0.992781	-0.178643	-0.080458
C49	C	0.993841	-0.119239	-0.080445
C50	C	0.993803	-0.119262	0.080438
C51	C	0.992748	-0.178661	0.080426
C52	C	0.992234	-0.208350	-0.000029
O53	O	0.991087	-0.272645	0.148776
O54	O	0.991109	-0.272652	-0.148881
C55	C	1.141574	0.073621	-0.000037
C56	C	1.234518	0.074731	-0.000045
C57	C	0.981445	0.181925	-0.000057
C58	C	0.982555	0.245147	-0.000071
N59	N	0.988408	0.077807	0.229867
N60	N	0.988502	0.077788	-0.229934
C61	C	0.988471	0.077795	0.589068
C62	C	0.919053	0.124434	0.551452
C63	C	0.919209	0.124604	0.448626
C64	C	0.988439	0.077801	0.410864
C65	C	1.075695	0.090768	0.448151
C66	C	1.075305	0.091099	0.551009
C67	C	0.971414	0.018051	0.551182
C68	C	0.969406	0.018449	0.448318
C69	C	0.988427	0.077804	0.310151
C70	C	0.988489	0.077794	0.689782
H71	H	0.542946	0.165821	-0.060458
C72	C	0.989464	-0.359841	0.249336
N73	N	0.989885	-0.335245	0.315994
C74	C	0.882693	0.005156	0.415403
N75	N	0.817379	-0.004855	0.390608
H76	H	0.853966	0.116838	0.576216
C77	C	0.389363	0.172781	-0.082026
N78	N	0.360667	0.197540	-0.143523
H79	H	1.016721	-0.017882	0.422617
C80	C	0.982532	-0.757810	-0.169001
N81	N	0.982103	-0.782420	-0.235645
H82	H	0.542295	0.165978	0.060454
C83	C	0.933858	0.184499	0.415357
N84	N	0.944896	0.229613	0.390299
C85	C	0.933488	0.183993	0.586344
N86	N	0.944363	0.228853	0.612625
H87	H	0.398214	0.164109	0.059702
C88	C	0.410083	0.076038	0.169384
N89	N	0.382591	0.098293	0.233466
H90	H	1.091178	0.133842	0.422372
H91	H	0.432434	0.000215	0.088138
H92	H	1.090414	0.134670	0.574980
C93	C	1.039807	-0.028838	0.584050
N94	N	1.091322	-0.064151	0.608813
H95	H	0.854334	0.116881	0.423418
C96	C	0.984674	-0.633099	0.168877
N97	N	0.985100	-0.608506	0.235537
C98	C	1.147122	0.046098	0.415102
N99	N	1.200920	0.012453	0.390208
H100	H	1.128548	0.058468	0.575890
H101	H	0.992309	-0.202850	0.145928
H102	H	0.575633	0.001414	0.087377
C103	C	0.887342	0.001214	0.586266
N104	N	0.824014	-0.011460	0.612691
C105	C	0.570188	0.076870	0.168950
N106	N	0.590381	0.099179	0.232755
H107	H	0.987416	-0.476082	0.226343
H108	H	0.992359	-0.202808	-0.145972
H109	H	0.418297	0.064931	-0.147378
H110	H	0.561638	0.070518	-0.146960
C111	C	0.428412	-0.017566	-0.084267
N112	N	0.414572	-0.064842	-0.084834
C113	C	0.994442	-0.086565	-0.168941
N114	N	0.994892	-0.061957	-0.235595
C115	C	0.588313	-0.013892	-0.091477
N116	N	0.622250	-0.060167	-0.096636
H117	H	0.989450	-0.368298	-0.226424
H118	H	0.987533	-0.476049	-0.226434
H119	H	0.984594	-0.641551	-0.146012
C120	C	0.982472	-0.757827	0.168863
N121	N	0.982017	-0.782432	0.235519
H122	H	0.994221	-0.095076	0.145931
