data_functionalizedCrystal
_audit_creation_method	'MofGen! by Chris Wilmer'
_symmetry_space_group_name_H-M	'P1'
_symmetry_Int_Tables_number	1
_symmetry_cell_setting	triclinic
loop_
_symmetry_equiv_pos_as_xyz
  x,y,z
_cell_length_a	21.395364
_cell_length_b	11.169416
_cell_length_c	21.395356
_cell_angle_alpha	89.979412
_cell_angle_beta	89.976411
_cell_angle_gamma	90.025100
loop_
_atom_site_label
_atom_site_type_symbol
_atom_site_fract_x
_atom_site_fract_y
_atom_site_fract_z
Zn1	Zn	0.957943	-0.477359	-0.354292
Zn2	Zn	1.457943	0.022641	0.145708
Zn3	Zn	0.957885	-0.678062	-0.249528
Zn4	Zn	1.457885	-0.178062	0.250472
Zn5	Zn	0.853159	-0.477443	-0.249529
Zn6	Zn	1.353159	0.022557	0.250471
Zn7	Zn	0.853164	-0.678051	-0.354268
Zn8	Zn	1.353164	-0.178051	0.145732
O9	O	0.905538	-0.577729	-0.301904
O10	O	1.405538	-0.077729	0.198096
O11	O	1.045613	-0.503951	-0.340405
O12	O	1.545613	-0.003951	0.159595
O13	O	0.943966	-0.651489	-0.161850
O14	O	1.443966	-0.151489	0.338150
O15	O	0.867081	-0.309482	-0.263437
O16	O	1.367081	0.190518	0.236563
O17	O	1.045570	-0.651407	-0.263435
O18	O	1.545570	-0.151407	0.236565
O19	O	0.944065	-0.309420	-0.340406
O20	O	1.444065	0.190580	0.159594
O21	O	0.867025	-0.504096	-0.161851
O22	O	1.367025	-0.004096	0.338149
O23	O	0.765482	-0.504085	-0.263413
O24	O	1.265482	-0.004085	0.236587
O25	O	0.867090	-0.651389	-0.441949
O26	O	1.367090	-0.151389	0.058051
O27	O	0.765486	-0.651471	-0.340365
O28	O	1.265486	-0.151471	0.159635
O29	O	0.944070	-0.503941	-0.441967
O30	O	1.444070	-0.003941	0.058033
O31	O	0.943971	-0.846010	-0.263411
O32	O	1.443971	-0.346010	0.236589
O33	O	0.867034	-0.846002	-0.340363
O34	O	1.367034	-0.346002	0.159637
C35	C	0.742750	-0.577787	-0.301887
C36	C	1.242750	-0.077787	0.198113
C37	C	0.673109	-0.577841	-0.301894
C38	C	1.173109	-0.077841	0.198106
C39	C	0.640440	-0.501186	-0.342034
C40	C	1.140440	-0.001186	0.157966
C41	C	0.575005	-0.501155	-0.342037
C42	C	1.075005	-0.001155	0.157963
C43	C	0.542241	-0.577799	-0.301906
C44	C	1.042241	-0.077799	0.198094
C45	C	0.574917	-0.654458	-0.261757
C46	C	1.074917	-0.154458	0.238243
C47	C	0.640351	-0.654479	-0.261752
C48	C	1.140351	-0.154479	0.238248
C49	C	0.438537	-0.685883	-0.296875
C50	C	0.938537	-0.185883	0.203125
C51	C	0.373104	-0.685864	-0.296885
C52	C	0.873104	-0.185864	0.203115
C53	C	0.340420	-0.577732	-0.301919
C54	C	0.840420	-0.077732	0.198081
C55	C	0.373177	-0.469617	-0.306957
C56	C	0.873177	0.030383	0.193043
C57	C	0.438611	-0.469638	-0.306951
C58	C	0.938611	0.030362	0.193049
C59	C	0.471288	-0.577784	-0.301907
C60	C	0.971288	-0.077784	0.198093
C61	C	0.236799	-0.501037	-0.342064
C62	C	0.736799	-0.001037	0.157936
C63	C	0.171362	-0.501003	-0.342062
C64	C	0.671362	-0.001003	0.157938
C65	C	0.171275	-0.654317	-0.261786
C66	C	0.671275	-0.154317	0.238214
C67	C	0.236711	-0.654341	-0.261785
C68	C	0.736711	-0.154341	0.238215
C69	C	0.269469	-0.577702	-0.301928
C70	C	0.769469	-0.077702	0.198072
C71	C	0.905514	-0.889553	-0.301898
C72	C	1.405514	-0.389553	0.198102
C73	C	0.905560	-1.022953	-0.301917
C74	C	1.405560	-0.522953	0.198083
C75	C	1.068961	-0.577671	-0.301922
C76	C	1.568961	-0.077671	0.198078
C77	C	1.138602	-0.577646	-0.301930
C78	C	1.638602	-0.077646	0.198070
C79	C	0.905587	-0.577654	-0.465328
C80	C	1.405587	-0.077654	0.034672
C81	C	0.905608	-0.577622	-0.534969
C82	C	1.405608	-0.077622	-0.034969
C83	C	0.905579	-0.264686	-0.301924
C84	C	1.405579	0.235314	0.198076
C85	C	0.905597	-0.131286	-0.301933
C86	C	1.405597	0.368714	0.198067
C87	C	0.865556	-0.500866	-0.567673
C88	C	1.365556	-0.000866	-0.067673
C89	C	0.865553	-0.500844	-0.633108
C90	C	1.365553	-0.000844	-0.133108
C91	C	0.905615	-0.577565	-0.665837
C92	C	1.405615	-0.077565	-0.165837
C93	C	0.945670	-0.654337	-0.633126
C94	C	1.445670	-0.154337	-0.133126
C95	C	0.945667	-0.654365	-0.567692
C96	C	1.445667	-0.154365	-0.067692
C97	C	0.962069	-0.586973	-0.769524
C98	C	1.462069	-0.086973	-0.269524
C99	C	0.962073	-0.586936	-0.834957
C100	C	1.462073	-0.086936	-0.334957
C101	C	0.905625	-0.577484	-0.867658
C102	C	1.405625	-0.077484	-0.367658
C103	C	0.849171	-0.568044	-0.834918
C104	C	1.349171	-0.068044	-0.334918
C105	C	0.849168	-0.568073	-0.769484
C106	C	1.349168	-0.068073	-0.269484
C107	C	0.905623	-0.577544	-0.736790
C108	C	1.405623	-0.077544	-0.236790
C109	C	0.865567	-0.500700	-0.971315
C110	C	1.365567	-0.000700	-0.471315
C111	C	0.865564	-0.500686	-1.036751
C112	C	1.365564	-0.000686	-0.536751
C113	C	0.945686	-0.654172	-1.036768
C114	C	1.445686	-0.154172	-0.536768
C115	C	0.945684	-0.654193	-0.971332
C116	C	1.445684	-0.154193	-0.471332
C117	C	0.905625	-0.577450	-0.938610
C118	C	1.405625	-0.077450	-0.438610
C119	C	0.905525	-0.577716	-0.139117
C120	C	1.405525	-0.077716	0.360883
C121	C	0.905625	-0.577410	-0.069476
C122	C	1.405625	-0.077410	0.430524
H123	H	0.548401	-0.438727	-0.374723
H124	H	1.048401	0.061273	0.125277
N125	N	0.473784	-0.802519	-0.291441
N126	N	0.973784	-0.302519	0.208559
H127	H	0.462400	-0.856316	-0.327625
H128	H	0.962400	-0.356316	0.172375
H129	H	0.520195	-0.786024	-0.292180
H130	H	1.020195	-0.286024	0.207820
N131	N	0.136132	-0.418299	-0.385354
N132	N	0.636132	0.081701	0.114646
H133	H	0.147533	-0.437057	-0.430104
H134	H	0.647533	0.062943	0.069896
H135	H	0.089719	-0.429934	-0.379214
H136	H	0.589719	0.070066	0.120786
N137	N	0.473946	-0.353040	-0.312371
N138	N	0.973946	0.146960	0.187629
H139	H	0.501116	-0.354758	-0.350975
H140	H	1.001116	0.145242	0.149025
H141	H	0.443280	-0.284592	-0.315533
H142	H	0.943280	0.215408	0.184467
H143	H	0.667108	-0.438780	-0.374721
H144	H	1.167108	0.061220	0.125279
N145	N	0.272130	-0.418385	-0.385364
N146	N	0.772130	0.081615	0.114636
H147	H	0.299268	-0.467258	-0.414356
H148	H	0.799268	0.032742	0.085644
H149	H	0.241457	-0.369840	-0.410748
H150	H	0.741457	0.130160	0.089252
N151	N	0.271944	-0.737037	-0.218495
N152	N	0.771944	-0.237037	0.281505
H153	H	0.299088	-0.792728	-0.243907
H154	H	0.799088	-0.292728	0.256093
H155	H	0.299058	-0.688118	-0.189506
H156	H	0.799058	-0.188118	0.310494
N157	N	0.337928	-0.352985	-0.312380
N158	N	0.837928	0.147015	0.187620
H159	H	0.349318	-0.299191	-0.276197
H160	H	0.849318	0.200809	0.223803
H161	H	0.349356	-0.312344	-0.352985
H162	H	0.849356	0.187656	0.147015
H163	H	0.144599	-0.716722	-0.229111
H164	H	0.644599	-0.216722	0.270889
N165	N	0.337774	-0.802465	-0.291450
N166	N	0.837774	-0.302465	0.208550
H167	H	0.349164	-0.856282	-0.327626
H168	H	0.849164	-0.356282	0.172374
H169	H	0.349143	-0.843092	-0.250839
H170	H	0.849143	-0.343092	0.249161
N171	N	0.788279	-0.557914	-0.870177
N172	N	1.288279	-0.057914	-0.370177
H173	H	0.796843	-0.559357	-0.916597
H174	H	1.296843	-0.059357	-0.416597
H175	H	0.760283	-0.627359	-0.858707
H176	H	1.260283	-0.127359	-0.358707
H177	H	0.548236	-0.716861	-0.229082
H178	H	1.048236	-0.216861	0.270918
N179	N	0.675591	-0.737157	-0.218454
N180	N	1.175591	-0.237157	0.281546
H181	H	0.644909	-0.785704	-0.193028
H182	H	1.144909	-0.285704	0.306972
H183	H	0.702734	-0.792774	-0.243907
H184	H	1.202734	-0.292774	0.256093
H185	H	0.832934	-0.438381	-0.541034
H186	H	1.332934	0.061619	-0.041034
H187	H	0.832948	-0.438212	-0.944670
H188	H	1.332948	0.061788	-0.444670
N189	N	0.788287	-0.557911	-0.734164
N190	N	1.288287	-0.057911	-0.234164
H191	H	0.789142	-0.483966	-0.707020
H192	H	1.289142	0.016034	-0.207020
H193	H	0.752554	-0.551968	-0.764839
H194	H	1.252554	-0.051968	-0.264839
H195	H	0.832939	-0.438334	-0.659741
H196	H	1.332939	0.061666	-0.159741
H197	H	1.008039	-0.594659	-0.742905
H198	H	1.508039	-0.094659	-0.242905
N199	N	0.822357	-0.417904	-1.072028
N200	N	1.322357	0.082096	-0.572028
H201	H	0.796982	-0.369295	-1.041367
H202	H	1.296982	0.130705	-0.541367
H203	H	0.847871	-0.362348	-1.099193
H204	H	1.347871	0.137652	-0.599193
H205	H	0.978307	-0.716638	-1.063415
H206	H	1.478307	-0.216638	-0.563415
N207	N	0.988886	-0.736976	-0.936054
N208	N	1.488886	-0.236976	-0.436054
H209	H	1.014265	-0.785577	-0.966715
H210	H	1.514265	-0.285577	-0.466715
H211	H	1.017886	-0.688124	-0.908918
H212	H	1.517886	-0.188124	-0.408918
H213	H	1.008042	-0.594617	-0.861609
H214	H	1.508042	-0.094617	-0.361609
H215	H	0.978289	-0.716804	-0.659778
H216	H	1.478289	-0.216804	-0.159778
H217	H	0.978285	-0.716868	-0.541065
H218	H	1.478285	-0.216868	-0.041065
