data_functionalizedCrystal
_audit_creation_method	'MofGen! by Chris Wilmer'
_symmetry_space_group_name_H-M	'P1'
_symmetry_Int_Tables_number	1
_symmetry_cell_setting	triclinic
loop_
_symmetry_equiv_pos_as_xyz
  x,y,z
_cell_length_a	14.519731
_cell_length_b	11.792241
_cell_length_c	10.868271
_cell_angle_alpha	90.000107
_cell_angle_beta	89.993880
_cell_angle_gamma	96.058865
loop_
_atom_site_label
_atom_site_type_symbol
_atom_site_fract_x
_atom_site_fract_y
_atom_site_fract_z
O1	O	0.126403	-1.506220	-0.102206
O2	O	0.459737	-1.172886	0.231128
O3	O	0.793070	-0.839553	0.564461
O4	O	0.139430	-1.175807	-0.102235
O5	O	0.472764	-0.842474	0.231099
O6	O	0.806097	-0.509141	0.564432
O7	O	-0.001288	-1.349761	-0.102208
O8	O	0.332045	-1.016428	0.231125
O9	O	0.665378	-0.683095	0.564458
O10	O	0.267122	-1.332266	-0.102232
O11	O	0.600455	-0.998932	0.231101
O12	O	0.933789	-0.665599	0.564434
O13	O	-0.001294	-1.349747	0.102436
O14	O	0.332039	-1.016414	0.435770
O15	O	0.665373	-0.683080	0.769103
O16	O	0.139425	-1.175793	0.102410
O17	O	0.472758	-0.842460	0.435743
O18	O	0.806091	-0.509127	0.769077
O19	O	0.126398	-1.506205	0.102439
O20	O	0.459731	-1.172872	0.435772
O21	O	0.793064	-0.839539	0.769106
Zn22	Zn	0.132910	-1.340997	0.134916
Zn23	Zn	0.466244	-1.007664	0.468250
Zn24	Zn	0.799577	-0.674330	0.801583
Zn25	Zn	0.132918	-1.341016	-0.134712
Zn26	Zn	0.466251	-1.007682	0.198621
Zn27	Zn	0.799584	-0.674349	0.531955
O28	O	0.267116	-1.332251	0.102412
O29	O	0.600450	-0.998918	0.435746
O30	O	0.933783	-0.665585	0.769079
C31	C	0.138609	-1.133514	0.000084
C32	C	0.471943	-0.800181	0.333417
C33	C	0.805276	-0.466847	0.666751
C34	C	0.136160	-1.007513	0.000073
C35	C	0.469493	-0.674180	0.333407
C36	C	0.802827	-0.340847	0.666740
C37	C	-0.035654	-1.348934	0.000114
C38	C	0.297680	-1.015601	0.333448
C39	C	0.631013	-0.682268	0.666781
C40	C	-0.138043	-1.346478	0.000115
C41	C	0.195291	-1.013145	0.333448
C42	C	0.528624	-0.679811	0.666781
C43	C	0.127219	-1.548499	0.000117
C44	C	0.460552	-1.215166	0.333451
C45	C	0.793885	-0.881832	0.666784
C46	C	0.129668	-1.674499	0.000120
C47	C	0.463001	-1.341166	0.333453
C48	C	0.796335	-1.007833	0.666787
C49	C	-0.221194	-1.344482	0.000112
C50	C	0.112139	-1.011148	0.333445
C51	C	0.445472	-0.677815	0.666778
C52	C	-0.325512	-1.341988	0.000102
C53	C	0.007821	-1.008654	0.333435
C54	C	0.341155	-0.675321	0.666769
C55	C	-0.408658	-1.340008	0.000094
C56	C	-0.075325	-1.006675	0.333427
C57	C	0.258008	-0.673342	0.666761
C58	C	-0.512983	-1.337514	0.000087
C59	C	-0.179650	-1.004181	0.333420
C60	C	0.153684	-0.670848	0.666753
C61	C	0.301482	-1.333078	0.000087
C62	C	0.634815	-0.999745	0.333421
C63	C	0.968148	-0.666412	0.666754
C64	C	0.403871	-1.335535	0.000079
C65	C	0.737204	-1.002202	0.333412
C66	C	1.070537	-0.668868	0.666745
N67	N	0.132905	-1.340992	0.318930
N68	N	0.466238	-1.007659	0.652264
N69	N	0.799571	-0.674326	0.985597
C70	C	0.131656	-0.776826	0.000109
C71	C	0.464990	-0.443493	0.333442
C72	C	0.798323	-0.110159	0.666776
C73	C	0.134159	-0.905197	0.000089
C74	C	0.467492	-0.571864	0.333423
C75	C	0.800825	-0.238531	0.666756
N76	N	0.132916	-1.341029	-0.318726
N77	N	0.466249	-1.007696	0.014607
N78	N	0.799583	-0.674363	0.347941
C79	C	0.132916	-1.341010	0.569936
C80	C	0.466249	-1.007677	0.903270
C81	C	0.799582	-0.674343	1.236603
C82	C	0.132912	-1.340996	0.430259
C83	C	0.466246	-1.007663	0.763592
C84	C	0.799579	-0.674330	1.096925
