data_functionalizedCrystal
_audit_creation_method	'MofGen! by Chris Wilmer'
_symmetry_space_group_name_H-M	'P1'
_symmetry_Int_Tables_number	1
_symmetry_cell_setting	triclinic
loop_
_symmetry_equiv_pos_as_xyz
  x,y,z
_cell_length_a	11.792241
_cell_length_b	14.519709
_cell_length_c	10.268362
_cell_angle_alpha	89.993769
_cell_angle_beta	89.999626
_cell_angle_gamma	83.936780
loop_
_atom_site_label
_atom_site_type_symbol
_atom_site_fract_x
_atom_site_fract_y
_atom_site_fract_z
O1	O	1.506208	0.126405	-0.108177
O2	O	1.756208	0.376405	0.141823
O3	O	2.006208	0.626405	0.391823
O4	O	2.256208	0.876405	0.641823
O5	O	1.175795	0.139432	-0.108207
O6	O	1.425795	0.389432	0.141793
O7	O	1.675795	0.639432	0.391793
O8	O	1.925795	0.889432	0.641793
O9	O	1.349762	-0.001288	-0.108180
O10	O	1.599762	0.248712	0.141820
O11	O	1.849762	0.498712	0.391820
O12	O	2.099762	0.748712	0.641820
O13	O	1.332241	0.267125	-0.108205
O14	O	1.582241	0.517125	0.141795
O15	O	1.832241	0.767125	0.391795
O16	O	2.082241	1.017125	0.641795
O17	O	1.349747	-0.001294	0.108421
O18	O	1.599747	0.248706	0.358421
O19	O	1.849747	0.498706	0.608421
O20	O	2.099747	0.748706	0.858421
O21	O	1.175780	0.139426	0.108393
O22	O	1.425780	0.389426	0.358393
O23	O	1.675780	0.639426	0.608393
O24	O	1.925780	0.889426	0.858393
O25	O	1.506193	0.126399	0.108424
O26	O	1.756193	0.376399	0.358424
O27	O	2.006193	0.626399	0.608424
O28	O	2.256193	0.876399	0.858424
Cu29	Cu	1.340985	0.132912	0.128186
Cu30	Cu	1.590985	0.382912	0.378186
Cu31	Cu	1.840985	0.632912	0.628186
Cu32	Cu	2.090985	0.882912	0.878186
Cu33	Cu	1.341003	0.132919	-0.127969
Cu34	Cu	1.591003	0.382919	0.122031
Cu35	Cu	1.841003	0.632919	0.372031
Cu36	Cu	2.091003	0.882919	0.622031
O37	O	1.332226	0.267119	0.108396
O38	O	1.582226	0.517119	0.358396
O39	O	1.832226	0.767119	0.608396
O40	O	2.082226	1.017119	0.858396
C41	C	1.133501	0.138611	0.000089
C42	C	1.383501	0.388611	0.250089
C43	C	1.633501	0.638611	0.500089
C44	C	1.883501	0.888611	0.750089
C45	C	1.007501	0.136161	0.000078
C46	C	1.257501	0.386161	0.250078
C47	C	1.507501	0.636161	0.500078
C48	C	1.757501	0.886161	0.750078
C49	C	1.348938	-0.035654	0.000121
C50	C	1.598938	0.214346	0.250121
C51	C	1.848938	0.464346	0.500121
C52	C	2.098938	0.714346	0.750121
C53	C	1.346491	-0.138044	0.000121
C54	C	1.596491	0.111956	0.250121
C55	C	1.846491	0.361956	0.500121
C56	C	2.096491	0.611956	0.750121
C57	C	0.776813	0.131657	0.000116
C58	C	1.026813	0.381657	0.250116
C59	C	1.276813	0.631657	0.500116
C60	C	1.526813	0.881657	0.750116
C61	C	0.905185	0.134160	0.000095
C62	C	1.155185	0.384160	0.250095
C63	C	1.405185	0.634160	0.500095
C64	C	1.655185	0.884160	0.750095
C65	C	1.337483	-0.512973	0.000087
C66	C	1.587483	-0.262973	0.250087
C67	C	1.837483	-0.012973	0.500087
C68	C	2.087483	0.237027	0.750087
C69	C	1.339984	-0.408656	0.000097
C70	C	1.589984	-0.158656	0.250097
C71	C	1.839984	0.091344	0.500097
C72	C	2.089984	0.341344	0.750097
C73	C	1.341987	-0.325512	0.000105
C74	C	1.591987	-0.075512	0.250105
C75	C	1.841987	0.174488	0.500105
C76	C	2.091987	0.424488	0.750105
C77	C	1.344489	-0.221188	0.000113
C78	C	1.594489	0.028812	0.250113
C79	C	1.844489	0.278812	0.500113
C80	C	2.094489	0.528812	0.750113
C81	C	1.548487	0.127220	0.000124
C82	C	1.798487	0.377220	0.250124
C83	C	2.048487	0.627220	0.500124
C84	C	2.298487	0.877220	0.750124
C85	C	1.674487	0.129669	0.000127
C86	C	1.924487	0.379669	0.250127
C87	C	2.174487	0.629669	0.500127
C88	C	2.424487	0.879669	0.750127
C89	C	1.333050	0.301484	0.000093
C90	C	1.583050	0.551484	0.250093
C91	C	1.833050	0.801484	0.500093
C92	C	2.083050	1.051484	0.750093
C93	C	1.335497	0.403875	0.000084
C94	C	1.585497	0.653875	0.250084
C95	C	1.835497	0.903875	0.500084
C96	C	2.085497	1.153875	0.750084
N97	N	1.340981	0.132906	0.308352
N98	N	1.590981	0.382906	0.558352
N99	N	1.840981	0.632906	0.808352
N100	N	2.090981	0.882906	1.058352
N101	N	1.341016	0.132917	-0.308135
N102	N	1.591016	0.382917	-0.058135
N103	N	1.841016	0.632917	0.191865
N104	N	2.091016	0.882917	0.441865
C105	C	1.340997	0.132917	0.574022
C106	C	1.590997	0.382917	0.824022
C107	C	1.840997	0.632917	1.074022
C108	C	2.090997	0.882917	1.324022
C109	C	1.340984	0.132914	0.426184
C110	C	1.590984	0.382914	0.676184
C111	C	1.840984	0.632914	0.926184
C112	C	2.090984	0.882914	1.176184
