data_functionalizedCrystal
_audit_creation_method	'MofGen! by Chris Wilmer'
_symmetry_space_group_name_H-M	'P1'
_symmetry_Int_Tables_number	1
_symmetry_cell_setting	triclinic
loop_
_symmetry_equiv_pos_as_xyz
  x,y,z
_cell_length_a	19.121111
_cell_length_b	19.121102
_cell_length_c	19.119690
_cell_angle_alpha	95.029478
_cell_angle_beta	90.012116
_cell_angle_gamma	90.128329
loop_
_atom_site_label
_atom_site_type_symbol
_atom_site_fract_x
_atom_site_fract_y
_atom_site_fract_z
Zn1	Zn	0.305604	-1.080355	-0.456274
Zn2	Zn	0.805604	-0.580355	0.043726
Zn3	Zn	0.427610	-1.070192	-0.343570
Zn4	Zn	0.927610	-0.570192	0.156430
Zn5	Zn	0.305807	-0.957602	-0.333592
Zn6	Zn	0.805807	-0.457602	0.166408
Zn7	Zn	0.417814	-0.958057	-0.455808
Zn8	Zn	0.917814	-0.458057	0.044192
O9	O	0.364209	-1.016551	-0.397311
O10	O	0.864209	-0.516551	0.102689
O11	O	0.325803	-1.177309	-0.445695
O12	O	0.825803	-0.677309	0.054305
O13	O	0.415636	-1.050813	-0.243931
O14	O	0.915636	-0.550813	0.256069
O15	O	0.207845	-0.977949	-0.345885
O16	O	0.707845	-0.477949	0.154115
O17	O	0.415440	-1.169841	-0.362892
O18	O	0.915440	-0.669841	0.137108
O19	O	0.207696	-1.068135	-0.436019
O20	O	0.707696	-0.568135	0.063981
O21	O	0.326149	-0.968094	-0.236600
O22	O	0.826149	-0.468094	0.263400
O23	O	0.316651	-0.859361	-0.345433
O24	O	0.816651	-0.359361	0.154567
O25	O	0.398745	-0.978723	-0.554185
O26	O	0.898745	-0.478723	-0.054185
O27	O	0.398942	-0.859695	-0.435225
O28	O	0.898942	-0.359695	0.064775
O29	O	0.316305	-1.068576	-0.554528
O30	O	0.816305	-0.568576	-0.054528
O31	O	0.524245	-1.051253	-0.362440
O32	O	1.024245	-0.551253	0.137560
O33	O	0.517049	-0.968868	-0.444900
O34	O	1.017049	-0.468868	0.055100
C35	C	0.546040	-1.009027	-0.404718
C36	C	1.046040	-0.509027	0.095282
C37	C	0.623830	-1.005873	-0.407914
C38	C	1.123830	-0.505873	0.092086
C39	C	0.356756	-0.834039	-0.389196
C40	C	0.856756	-0.334039	0.110804
C41	C	0.353583	-0.755960	-0.385741
C42	C	0.853583	-0.255960	0.114259
C43	C	0.356410	-1.024834	-0.580561
C44	C	0.856410	-0.524834	-0.080561
C45	C	0.353086	-1.028364	-0.658651
C46	C	0.853086	-0.528364	-0.158651
C47	C	0.664100	-1.047322	-0.366521
C48	C	1.164100	-0.547322	0.133479
C49	C	0.737191	-1.044360	-0.369530
C50	C	1.237191	-0.544360	0.130470
C51	C	0.770012	-0.999946	-0.413929
C52	C	1.270012	-0.499946	0.086071
C53	C	0.729738	-0.958496	-0.455327
C54	C	1.229738	-0.458496	0.044673
C55	C	0.656647	-0.961462	-0.452321
C56	C	1.156647	-0.461462	0.047679
C57	C	0.990512	-0.988846	-0.425155
C58	C	1.490512	-0.488846	0.074845
C59	C	1.063607	-0.985882	-0.428157
C60	C	1.563607	-0.485882	0.071843
C61	C	1.071056	-1.071748	-0.342361
C62	C	1.571056	-0.571748	0.157639
C63	C	0.997964	-1.074707	-0.339355
C64	C	1.497964	-0.574707	0.160645
C65	C	0.957696	-1.033259	-0.380756
C66	C	1.457696	-0.533259	0.119244
C67	C	0.844724	-0.996916	-0.417005
C68	C	1.344724	-0.496916	0.082995
C69	C	0.882986	-1.036294	-0.377683
C70	C	1.382986	-0.536294	0.122317
C71	C	1.181667	-1.024120	-0.389900
C72	C	1.681667	-0.524120	0.110100
C73	C	1.103877	-1.027331	-0.386764
C74	C	1.603877	-0.527331	0.113236
C75	C	0.371692	-1.199776	-0.405459
C76	C	0.871692	-0.699776	0.094541
C77	C	0.374880	-1.277856	-0.408931
C78	C	0.874880	-0.777856	0.091069
C79	C	0.395008	-0.719464	-0.430800
C80	C	0.895008	-0.219464	0.069200
C81	C	0.392018	-0.646101	-0.427557
C82	C	0.892018	-0.146101	0.072443
C83	C	0.347607	-0.609234	-0.379252
C84	C	0.847607	-0.109234	0.120748
C85	C	0.306177	-0.645735	-0.334191
C86	C	0.806177	-0.145735	0.165809
C87	C	0.309164	-0.719098	-0.337437
C88	C	0.809164	-0.219098	0.162563
C89	C	0.336438	-0.387719	-0.367116
C90	C	0.836438	0.112281	0.132884
C91	C	0.333455	-0.314351	-0.363871
C92	C	0.833455	0.185649	0.136129
C93	C	0.419296	-0.314722	-0.457240
C94	C	0.919296	0.185278	0.042760
C95	C	0.422282	-0.388086	-0.460479
C96	C	0.922282	0.111914	0.039521
C97	C	0.380850	-0.424580	-0.415421
C98	C	0.880850	0.075420	0.084579
C99	C	0.344551	-0.534245	-0.375934
C100	C	0.844551	-0.034245	0.124066
C101	C	0.383902	-0.499568	-0.418742
C102	C	0.883902	0.000432	0.081258
C103	C	0.371929	-1.008344	-0.214774
C104	C	0.871929	-0.508344	0.285226
C105	C	0.375061	-1.004958	-0.136682
C106	C	0.875061	-0.504958	0.363318
C107	C	0.394888	-0.983481	0.305010
C108	C	0.894888	-0.483481	0.805010
C109	C	0.391956	-0.986665	0.231634
C110	C	0.891956	-0.486665	0.731634
C111	C	0.347219	-1.034730	0.194598
C112	C	0.847219	-0.534730	0.694598
C113	C	0.305416	-1.079618	0.230941
C114	C	0.805416	-0.579618	0.730941
C115	C	0.308352	-1.076436	0.304316
C116	C	0.808352	-0.576436	0.804316
C117	C	0.336193	-1.046664	-0.026964
C118	C	0.836193	-0.546664	0.473036
C119	C	0.333259	-1.049841	-0.100343
C120	C	0.833259	-0.549841	0.399657
C121	C	0.419801	-0.956889	-0.099645
C122	C	0.919801	-0.456889	0.400355
C123	C	0.422729	-0.953709	-0.026269
C124	C	0.922729	-0.453709	0.473731
C125	C	0.380929	-0.998599	0.010067
C126	C	0.880929	-0.498599	0.510067
C127	C	0.344220	-1.037985	0.119596
C128	C	0.844220	-0.537985	0.619596
C129	C	0.383933	-0.995347	0.085068
C130	C	0.883933	-0.495347	0.585068
H131	H	0.637382	-1.083485	-0.330363
H132	H	1.137382	-0.583485	0.169637
Cl133	Cl	0.770999	-0.902664	-0.511148
Cl134	Cl	1.270999	-0.402664	-0.011148
H135	H	0.431175	-0.749476	-0.470134
H136	H	0.931175	-0.249476	0.029866
Cl137	Cl	0.478969	-0.893279	0.020286
Cl138	Cl	0.978969	-0.393279	0.520286
H139	H	0.270013	-0.615713	-0.294862
H140	H	0.770013	-0.115713	0.205138
Cl141	Cl	0.885991	-0.941082	-0.472818
Cl142	Cl	1.385991	-0.441082	0.027182
H143	H	0.307794	-1.077118	0.089433
H144	H	0.807794	-0.577118	0.589433
H145	H	0.297282	-0.284337	-0.324539
H146	H	0.797282	0.215663	0.175461
Cl147	Cl	0.841724	-1.092130	-0.321872
Cl148	Cl	1.341724	-0.592130	0.178128
Cl149	Cl	0.288720	-0.487892	-0.315209
Cl150	Cl	0.788720	0.012108	0.184791
H151	H	1.103850	-1.105493	-0.308656
H152	H	1.603850	-0.605493	0.191344
H153	H	0.431309	-0.944333	0.335161
H154	H	0.931309	-0.444333	0.835161
Cl155	Cl	0.444515	-0.930244	0.185954
Cl156	Cl	0.944515	-0.430244	0.685954
H157	H	0.769976	-1.078111	-0.335823
H158	H	1.269976	-0.578111	0.164177
Cl159	Cl	0.257083	-0.764978	-0.280791
Cl160	Cl	0.757083	-0.264978	0.219209
Cl161	Cl	0.444098	-0.600224	-0.484206
Cl162	Cl	0.944098	-0.100224	0.015794
Cl163	Cl	0.606023	-0.909355	-0.504362
Cl164	Cl	1.106023	-0.409355	-0.004362
H165	H	0.420059	-0.529589	-0.458075
H166	H	0.920059	-0.029589	0.041925
H167	H	0.453832	-0.920342	-0.129239
H168	H	0.953832	-0.420342	0.370761
H169	H	0.302706	-0.417423	-0.330421
H170	H	0.802706	0.082577	0.169579
H171	H	0.296823	-1.088979	-0.130496
H172	H	0.796823	-0.588979	0.369504
H173	H	0.971243	-1.110872	-0.303202
H174	H	1.471243	-0.610872	0.196798
Cl175	Cl	0.283641	-1.103095	0.018707
Cl176	Cl	0.783641	-0.603095	0.518707
Cl177	Cl	1.104867	-0.930033	-0.483968
Cl178	Cl	1.604867	-0.430033	0.016032
Cl179	Cl	0.249179	-1.140046	0.184381
Cl180	Cl	0.749179	-0.640046	0.684381
Cl181	Cl	0.440173	-0.934927	0.131629
Cl182	Cl	0.940173	-0.434927	0.631629
Cl183	Cl	0.478118	-0.434427	-0.521207
Cl184	Cl	0.978118	0.065573	-0.021207
Cl185	Cl	0.255802	-1.132865	0.349998
Cl186	Cl	0.755802	-0.632865	0.849998
Cl187	Cl	0.939898	-0.936739	-0.477201
Cl188	Cl	1.439898	-0.436739	0.022799
Cl189	Cl	0.471379	-0.268839	-0.513880
Cl190	Cl	0.971379	0.231161	-0.013880
