data_functionalizedCrystal
_audit_creation_method	'MofGen! by Chris Wilmer'
_symmetry_space_group_name_H-M	'P1'
_symmetry_Int_Tables_number	1
_symmetry_cell_setting	triclinic
loop_
_symmetry_equiv_pos_as_xyz
  x,y,z
_cell_length_a	16.625546
_cell_length_b	21.395364
_cell_length_c	21.395355
_cell_angle_alpha	89.975448
_cell_angle_beta	89.981524
_cell_angle_gamma	90.037419
loop_
_atom_site_label
_atom_site_type_symbol
_atom_site_fract_x
_atom_site_fract_y
_atom_site_fract_z
Zn1	Zn	-0.320773	0.957895	-0.354262
Zn2	Zn	-0.455588	0.957813	-0.249484
Zn3	Zn	-0.320809	0.853110	-0.249498
Zn4	Zn	-0.455603	0.853094	-0.354224
O5	O	-0.388193	0.905478	-0.301867
O6	O	-0.338636	1.045562	-0.340372
O7	O	-0.437718	0.943896	-0.161808
O8	O	-0.207972	0.867051	-0.263417
O9	O	-0.437684	1.045501	-0.263393
O10	O	-0.207946	0.944036	-0.340386
O11	O	-0.338696	0.866971	-0.161819
O12	O	-0.338710	0.765430	-0.263381
O13	O	-0.437709	0.867024	-0.441907
O14	O	-0.437743	0.765418	-0.340323
O15	O	-0.338650	0.944021	-0.441935
O16	O	-0.568423	0.943880	-0.263357
O17	O	-0.568433	0.866944	-0.340309
C18	C	-0.388233	0.742690	-0.301850
C19	C	-0.388269	0.673049	-0.301857
C20	C	-0.336779	0.640390	-0.342002
C21	C	-0.336757	0.574954	-0.342005
C22	C	-0.388240	0.542181	-0.301868
C23	C	-0.439734	0.574848	-0.261715
C24	C	-0.439748	0.640282	-0.261710
C25	C	-0.460853	0.438465	-0.296831
C26	C	-0.460840	0.373032	-0.296841
C27	C	-0.388196	0.340360	-0.301882
C28	C	-0.315562	0.373130	-0.306927
C29	C	-0.315577	0.438564	-0.306921
C30	C	-0.388230	0.471228	-0.301870
C31	C	-0.336678	0.236748	-0.342032
C32	C	-0.336656	0.171312	-0.342030
C33	C	-0.439639	0.171206	-0.261744
C34	C	-0.439655	0.236642	-0.261743
C35	C	-0.388175	0.269409	-0.301890
C36	C	-0.597684	0.905419	-0.301841
C37	C	-0.687305	0.905451	-0.301851
C38	C	-1.015481	0.905560	-0.301916
C39	C	-0.924172	0.905528	-0.301900
C40	C	-0.851396	0.905505	-0.301883
C41	C	-0.760082	0.905473	-0.301867
C42	C	-0.177884	0.905555	-0.301907
C43	C	-0.088263	0.905587	-0.301924
C44	C	-0.388177	0.905530	-0.465291
C45	C	-0.388170	0.905552	-0.534932
C46	C	-0.388155	1.068901	-0.301885
C47	C	-0.388138	1.138543	-0.301893
C48	C	-0.336588	0.945643	-0.567660
C49	C	-0.336553	0.945642	-0.633096
C50	C	-0.388115	0.905557	-0.665800
C51	C	-0.439701	0.865459	-0.633064
C52	C	-0.439728	0.865456	-0.567630
C53	C	-0.460717	0.900589	-0.769466
C54	C	-0.460691	0.900596	-0.834899
C55	C	-0.388030	0.905561	-0.867621
C56	C	-0.315392	0.910532	-0.834902
C57	C	-0.315420	0.910530	-0.769468
C58	C	-0.388091	0.905555	-0.736753
C59	C	-0.336406	0.945653	-0.971302
C60	C	-0.336370	0.945647	-1.036739
C61	C	-0.439524	0.865468	-1.036706
C62	C	-0.439553	0.865470	-0.971270
C63	C	-0.387995	0.905565	-0.938572
C64	C	-0.388151	0.905462	-0.139080
C65	C	-0.387931	0.905561	-0.069439
H66	H	-0.294824	0.548358	-0.374695
H67	H	-0.481680	0.832820	-0.659696
N68	N	-0.241383	0.472027	-0.312074
N69	N	-0.176524	0.442856	-0.316577
H70	H	-0.124123	0.466489	-0.320214
H71	H	-0.256276	0.914576	-0.742831
N72	N	-0.241343	0.339778	-0.312080
N73	N	-0.197706	0.347139	-0.359100
H74	H	-0.145289	0.323584	-0.362741
N75	N	-0.283675	0.986592	-1.070181
N76	N	-0.232281	0.964568	-1.106683
H77	H	-0.195064	0.993486	-1.130303
H78	H	-0.294860	0.667065	-0.374693
H79	H	-0.481587	0.263233	-0.229055
N80	N	-0.492250	0.824515	-0.937845
N81	N	-0.538282	0.788725	-0.967050
H82	H	-0.575500	0.759796	-0.943444
H83	H	-0.481651	0.548159	-0.229036
H84	H	-0.294756	0.263429	-0.374719
N85	N	-0.283736	0.986593	-0.937888
N86	N	-0.283768	0.986587	-0.879465
H87	H	-0.246569	1.015501	-0.855866
H88	H	-0.481557	0.144523	-0.229065
N89	N	-0.283914	0.986582	-0.534252
N90	N	-0.283937	0.986572	-0.475829
H91	H	-0.246733	1.015483	-0.452232
H92	H	-0.481731	0.832807	-0.540983
N93	N	-0.492182	0.824519	-1.070114
N94	N	-0.492147	0.824523	-1.128537
H95	H	-0.529335	0.795600	-1.152135
H96	H	-0.519983	0.346356	-0.292736
N97	N	-0.283852	0.986586	-0.666538
N98	N	-0.209453	0.982460	-0.659234
H99	H	-0.172232	1.011376	-0.682852
H100	H	-0.519837	0.896552	-0.861533
H101	H	-0.519872	0.896379	-0.742829
H102	H	-0.256224	0.914576	-0.861543
N103	N	-0.535059	0.471837	-0.291668
N104	N	-0.578694	0.464479	-0.244646
H105	H	-0.631100	0.488049	-0.240997
N106	N	-0.284051	0.137962	-0.383046
N107	N	-0.289512	0.145296	-0.440852
H108	H	-0.252357	0.121743	-0.469820
N109	N	-0.492349	0.673636	-0.220694
N110	N	-0.538308	0.644371	-0.184856
H111	H	-0.575459	0.667927	-0.155888
