data_functionalizedCrystal
_audit_creation_method	'MofGen! by Chris Wilmer'
_symmetry_space_group_name_H-M	'P1'
_symmetry_Int_Tables_number	1
_symmetry_cell_setting	triclinic
loop_
_symmetry_equiv_pos_as_xyz
  x,y,z
_cell_length_a	12.811438
_cell_length_b	10.540539
_cell_length_c	11.892095
_cell_angle_alpha	93.928041
_cell_angle_beta	80.661019
_cell_angle_gamma	84.284473
loop_
_atom_site_label
_atom_site_type_symbol
_atom_site_fract_x
_atom_site_fract_y
_atom_site_fract_z
O1	O	1.397437	0.166772	-0.049281
O2	O	1.089757	0.188066	-0.017733
O3	O	1.250617	-0.007389	-0.034228
O4	O	1.236577	0.362227	-0.032786
O5	O	1.264039	-0.023649	-0.223612
O6	O	1.103179	0.171807	-0.207117
O7	O	1.410859	0.150512	-0.238665
Zn8	Zn	1.259150	0.158578	-0.252960
Zn9	Zn	1.241466	0.180001	-0.003438
O10	O	1.250000	0.345967	-0.222170
C11	C	1.057070	0.179241	-0.108385
C12	C	0.939676	0.177152	-0.096348
C13	C	1.256275	-0.062806	-0.128810
C14	C	1.253124	-0.203708	-0.128481
C15	C	0.766896	0.183071	0.023838
C16	C	0.877198	0.185033	0.012538
C17	C	0.891846	0.167305	-0.193941
C18	C	0.781545	0.165343	-0.182640
C19	C	0.719073	0.173228	-0.073747
C20	C	0.608769	0.171275	-0.062448
C21	C	0.623421	0.153538	-0.268925
C22	C	0.733722	0.155500	-0.280225
C23	C	1.132395	-0.385358	-0.115680
C24	C	1.135618	-0.238822	-0.116434
C25	C	1.317339	-0.275467	-0.242427
C26	C	1.313335	-0.421961	-0.242107
C27	C	1.300461	-0.404024	-0.026987
C28	C	1.301442	-0.256935	-0.025668
C29	C	1.443546	0.159338	-0.148010
C30	C	1.560939	0.161427	-0.160040
C31	C	1.244341	0.401385	-0.127585
C32	C	1.247491	0.542288	-0.127907
N33	N	1.229397	0.194612	0.166853
N34	N	1.271227	0.143956	-0.423252
C35	C	1.355264	0.042281	0.390594
C36	C	1.346821	0.052486	0.509802
C37	C	1.204073	0.225231	0.524478
C38	C	1.212517	0.215026	0.405270
C39	C	1.288114	0.123547	0.338332
C40	C	1.296551	0.113338	0.219123
C41	C	1.153809	0.286088	0.233801
C42	C	1.145366	0.296292	0.353008
H43	H	0.716029	0.189505	0.112503
H44	H	1.091631	-0.421519	-0.188060
N45	N	1.432482	-0.051139	0.322195
N46	N	1.440015	-0.060231	0.215761
H47	H	1.494553	-0.126208	0.167452
N48	N	0.926032	0.195078	0.112230
N49	N	0.870238	0.202110	0.209443
H50	H	0.904727	0.209202	0.279857
H51	H	1.096313	-0.203087	-0.189493
H52	H	1.085627	-0.188921	-0.034347
N53	N	1.373754	0.019895	0.150731
N54	N	1.344463	-0.064596	0.087687
H55	H	1.398989	-0.130593	0.039386
H56	H	1.083819	0.370776	0.407522
H57	H	0.557905	0.177701	0.026218
N58	N	1.425943	-0.249391	-0.258569
N59	N	1.447850	-0.136952	-0.265548
H60	H	1.524551	-0.118530	-0.276945
H61	H	1.398192	-0.471570	-0.255678
N62	N	1.085210	0.369085	0.180399
N63	N	1.092749	0.359956	0.073965
H64	H	1.044298	0.418565	0.036247
H65	H	0.942731	0.160870	-0.282596
H66	H	0.784602	0.149075	-0.368883
H67	H	1.142531	0.299719	0.578993
N68	N	1.245487	-0.434079	0.080748
N69	N	1.293744	-0.500005	0.143747
H70	H	1.254912	-0.521231	0.219833
H71	H	1.277272	-0.456499	-0.318664
N72	N	0.574589	0.143467	-0.368626
N73	N	0.630384	0.136425	-0.465839
H74	H	0.595898	0.129315	-0.536253
N75	N	1.067278	-0.412038	-0.012409
N76	N	1.104931	-0.484695	0.053385
H77	H	1.058944	-0.503543	0.126327
H78	H	1.283760	-0.239210	-0.318879
H79	H	1.254395	-0.208610	0.058579
N80	N	1.408327	-0.227367	-0.028490
N81	N	1.450824	-0.166319	-0.106675
H82	H	1.526314	-0.145431	-0.108673
H83	H	1.385284	-0.452411	-0.034963
N84	N	1.415388	-0.030576	0.563172
N85	N	1.482853	-0.112271	0.503390
H86	H	1.531269	-0.170954	0.541083
