data_functionalizedCrystal
_audit_creation_method	'MofGen! by Chris Wilmer'
_symmetry_space_group_name_H-M	'P1'
_symmetry_Int_Tables_number	1
_symmetry_cell_setting	triclinic
loop_
_symmetry_equiv_pos_as_xyz
  x,y,z
_cell_length_a	14.853567
_cell_length_b	19.188930
_cell_length_c	13.330367
_cell_angle_alpha	89.990231
_cell_angle_beta	89.995418
_cell_angle_gamma	83.389856
loop_
_atom_site_label
_atom_site_type_symbol
_atom_site_fract_x
_atom_site_fract_y
_atom_site_fract_z
O1	O	1.195862	0.091155	-0.083366
O2	O	0.933342	0.102014	-0.083385
O3	O	1.072178	-0.005046	-0.083355
O4	O	1.057026	0.198215	-0.083395
O5	O	1.072158	-0.005048	0.083492
O6	O	0.933322	0.102011	0.083462
O7	O	1.195842	0.091153	0.083481
Cu8	Cu	1.064580	0.096582	0.098706
Cu9	Cu	1.064604	0.096585	-0.098610
O10	O	1.057006	0.198212	0.083452
C11	C	0.899746	0.101521	0.000037
C12	C	0.799671	0.100046	0.000031
C13	C	1.071677	-0.031060	0.000071
C14	C	1.070204	-0.108569	0.000080
C15	C	0.387525	0.030218	0.000067
C16	C	0.365537	0.157407	0.000041
C17	C	0.459563	0.158794	0.000037
C18	C	0.517574	0.095891	0.000047
C19	C	0.481560	0.031602	0.000060
C20	C	0.495585	0.223081	0.000014
C21	C	0.589616	0.224470	0.000009
C22	C	0.647629	0.161567	0.000026
C23	C	0.611610	0.097276	0.000041
C24	C	0.669621	0.034373	0.000050
C25	C	0.633603	-0.029919	0.000072
C26	C	0.539574	-0.031301	0.000077
C27	C	0.741659	0.162949	0.000021
C28	C	0.763656	0.035757	0.000044
C29	C	1.151668	-0.153221	0.000090
C30	C	1.150285	-0.226050	0.000074
C31	C	1.067432	-0.254223	0.000068
C32	C	0.985957	-0.209561	0.000051
C33	C	0.987343	-0.136734	0.000057
N34	N	1.004094	-0.362440	0.056844
N35	N	1.002783	-0.431623	0.056841
C36	C	1.063251	-0.473645	0.000047
N37	N	1.125093	-0.443873	-0.056730
N38	N	1.126407	-0.374684	-0.056722
C39	C	1.065920	-0.333190	0.000060
C40	C	1.143220	-0.597267	0.000039
C41	C	1.141833	-0.670096	0.000016
C42	C	0.977503	-0.653606	0.000003
C43	C	0.978893	-0.580778	0.000016
C44	C	1.061754	-0.552613	0.000038
C45	C	1.229438	0.091646	0.000057
C46	C	1.329513	0.093120	0.000057
C47	C	1.057507	0.224226	0.000023
C48	C	1.058980	0.301736	0.000008
N49	N	1.064570	0.096579	0.237488
N50	N	1.064621	0.096582	-0.237391
C51	C	1.003125	0.143972	0.710098
C52	C	1.126107	0.049192	0.710092
C53	C	1.126097	0.049190	0.605073
C54	C	1.064601	0.096580	0.552562
C55	C	1.003115	0.143973	0.605070
C56	C	1.187588	0.001803	0.552558
C57	C	1.187581	0.001799	0.447533
C58	C	1.126080	0.049187	0.395020
C59	C	1.064590	0.096581	0.447534
C60	C	1.003094	0.143971	0.395023
C61	C	0.941600	0.191363	0.447535
C62	C	0.941613	0.191361	0.552557
C63	C	1.126066	0.049189	0.289999
C64	C	1.003084	0.143972	0.289995
H65	H	0.810884	-0.015466	0.000056
C66	C	1.255229	-0.050321	0.610319
H67	H	1.246419	-0.043538	0.680387
H68	H	1.315362	-0.042652	0.593099
H69	H	1.245621	-0.096935	0.593121
C70	C	0.889281	-0.531658	0.000021
H71	H	0.839737	-0.558865	0.000024
H72	H	0.886410	-0.502894	-0.058157
H73	H	0.886403	-0.502918	0.058216
H74	H	0.448345	0.274293	-0.000005
C75	C	0.347915	-0.040500	0.000088
H76	H	0.395934	-0.077762	0.000099
H77	H	0.311689	-0.043685	-0.058089
H78	H	0.311695	-0.043685	0.058285
C79	C	0.935438	0.196104	0.232241
H80	H	0.898825	0.224329	0.278558
H81	H	0.898011	0.170937	0.191280
H82	H	0.967754	0.225220	0.191264
H83	H	0.953055	0.182556	0.752855
H84	H	0.318299	0.208620	0.000024
C85	C	1.239896	-0.275179	0.000093
H86	H	1.227201	-0.322586	0.000081
H87	H	1.273870	-0.266639	0.058283
H88	H	1.273895	-0.266627	-0.058091
H89	H	0.891533	0.229951	0.404768
C90	C	0.873986	0.243491	0.610320
H91	H	0.882809	0.236708	0.680388
H92	H	0.813847	0.235827	0.593131
H93	H	0.883597	0.290104	0.593092
C94	C	1.231449	-0.719215	0.000030
H95	H	1.280992	-0.692007	0.000054
H96	H	1.234339	-0.747959	-0.058156
H97	H	1.234308	-0.747975	0.058218
C98	C	0.697421	-0.099108	0.000083
H99	H	0.758578	-0.089070	0.000079
H100	H	0.686532	-0.125468	-0.058090
H101	H	0.686536	-0.125463	0.058284
H102	H	1.237652	-0.036790	0.404785
H103	H	1.176180	0.010611	0.752849
H104	H	0.921003	-0.100377	0.000049
H105	H	0.918498	-0.232504	0.000044
H106	H	0.510239	-0.083644	0.000119
C107	C	0.629228	0.295187	-0.000001
H108	H	0.581211	0.332450	0.000002
H109	H	0.665459	0.298376	-0.058182
H110	H	0.665445	0.298367	0.058192
H111	H	1.176138	0.010607	0.247248
H112	H	0.770981	0.215294	0.000005
H113	H	1.219140	-0.130295	0.000105
C114	C	1.234362	-0.566282	0.000052
H115	H	1.282682	-0.603309	0.000041
H116	H	1.238312	-0.538226	0.058239
H117	H	1.238323	-0.538205	-0.058134
H118	H	0.910043	-0.676543	-0.000007
