data_functionalizedCrystal
_audit_creation_method	'MofGen! by Chris Wilmer'
_symmetry_space_group_name_H-M	'P1'
_symmetry_Int_Tables_number	1
_symmetry_cell_setting	triclinic
loop_
_symmetry_equiv_pos_as_xyz
  x,y,z
_cell_length_a	10.654550
_cell_length_b	10.489716
_cell_length_c	9.730223
_cell_angle_alpha	89.999635
_cell_angle_beta	89.999957
_cell_angle_gamma	84.507033
loop_
_atom_site_label
_atom_site_type_symbol
_atom_site_fract_x
_atom_site_fract_y
_atom_site_fract_z
O1	O	1.667907	0.179164	-0.114174
O2	O	1.302435	0.196233	-0.114198
O3	O	1.493504	0.002095	-0.114190
O4	O	1.476839	0.373302	-0.114181
O5	O	1.493491	0.002089	0.114390
O6	O	1.302423	0.196228	0.114382
O7	O	1.667895	0.179158	0.114406
Zn8	Zn	1.485157	0.187692	0.150686
Zn9	Zn	1.485173	0.187699	-0.150478
O10	O	1.476827	0.373297	0.114399
C11	C	1.255631	0.194977	0.000089
C12	C	1.116186	0.191228	0.000079
C13	C	1.492245	-0.045440	0.000096
C14	C	1.488499	-0.187069	0.000083
C15	C	1.036744	0.305533	0.000086
C16	C	0.905722	0.302002	0.000110
C17	C	0.933597	0.069850	0.000115
C18	C	1.064616	0.073382	0.000101
C19	C	1.605668	-0.284799	0.000103
C20	C	1.543760	-0.362127	-0.112599
C21	C	1.543720	-0.362097	0.112762
C22	C	1.426640	-0.262531	-0.112713
C23	C	1.426618	-0.262495	0.112750
C24	C	1.364623	-0.339774	0.000021
C25	C	1.714700	0.180414	0.000116
C26	C	1.854144	0.184164	0.000117
C27	C	1.478085	0.420831	0.000110
C28	C	1.481831	0.562461	0.000113
N29	N	1.485155	0.187687	0.356223
N30	N	1.485185	0.187695	-0.356014
C31	C	1.569789	0.101759	0.428152
C32	C	1.569802	0.101759	0.572035
C33	C	1.400542	0.273627	0.572046
C34	C	1.400524	0.273619	0.428166
H35	H	1.078728	0.401490	0.000079
C36	C	1.610550	-0.420856	0.241481
H37	H	1.552466	-0.463479	0.294556
H38	H	1.641605	-0.354887	0.294901
H39	H	1.678809	-0.480477	0.214383
H40	H	1.638699	0.031786	0.369579
C41	C	0.818341	0.427739	0.000107
H42	H	0.867824	0.498424	0.000082
H43	H	0.766657	0.431195	0.079823
H44	H	0.766646	0.431180	-0.079609
C45	C	1.359887	-0.204010	-0.241587
H46	H	1.362748	-0.113769	-0.240837
H47	H	1.274533	-0.223159	-0.241924
H48	H	1.401227	-0.238986	-0.321514
C49	C	1.152008	-0.052360	0.000087
H50	H	1.102532	-0.123050	0.000081
H51	H	1.203707	-0.055807	0.079791
H52	H	1.203688	-0.055802	-0.079640
C53	C	1.662904	0.007244	0.651151
H54	H	1.713307	-0.043925	0.587693
H55	H	1.617268	-0.046287	0.707289
H56	H	1.715598	0.053639	0.707267
C57	C	1.743342	-0.251518	-0.000038
H58	H	1.784793	-0.285801	-0.080214
H59	H	1.785355	-0.287096	0.079216
H60	H	1.744806	-0.161110	0.000765
C61	C	1.307468	0.368157	0.651189
H62	H	1.319608	0.355865	0.747181
H63	H	1.223524	0.353514	0.627627
H64	H	1.321872	0.453422	0.627595
C65	C	0.876865	-0.059769	0.000120
H66	H	0.787456	-0.045504	0.000115
H67	H	0.904067	-0.106888	0.079827
H68	H	0.904059	-0.106877	-0.079605
H69	H	1.593226	-0.405644	-0.207876
C70	C	1.226846	-0.372725	-0.000067
H71	H	1.185424	-0.338309	-0.080202
H72	H	1.184942	-0.337099	0.079229
H73	H	1.225177	-0.463110	0.000686
C74	C	1.359858	-0.203664	0.241463
H75	H	1.401628	-0.237910	0.321472
H76	H	1.274694	-0.223423	0.242271
H77	H	1.362095	-0.113354	0.240071
H78	H	1.331599	0.343593	0.369597
