data_functionalizedCrystal
_audit_creation_method	'MofGen! by Chris Wilmer'
_symmetry_space_group_name_H-M	'P1'
_symmetry_Int_Tables_number	1
_symmetry_cell_setting	triclinic
loop_
_symmetry_equiv_pos_as_xyz
  x,y,z
_cell_length_a	12.759400
_cell_length_b	11.169417
_cell_length_c	12.759393
_cell_angle_alpha	90.021256
_cell_angle_beta	89.970195
_cell_angle_gamma	89.986417
loop_
_atom_site_label
_atom_site_type_symbol
_atom_site_fract_x
_atom_site_fract_y
_atom_site_fract_z
Zn1	Zn	-0.418245	-1.834921	-0.594034
Zn2	Zn	0.081755	-1.334921	-0.094034
Zn3	Zn	-0.593961	-1.834797	-0.418356
Zn4	Zn	-0.093961	-1.334797	0.081644
Zn5	Zn	-0.418293	-1.634209	-0.418368
Zn6	Zn	0.081707	-1.134209	0.081632
Zn7	Zn	-0.593879	-1.634200	-0.593993
Zn8	Zn	-0.093879	-1.134200	-0.093993
O9	O	-0.506095	-1.734532	-0.506188
O10	O	-0.006095	-1.234532	-0.006188
O11	O	-0.441568	-2.002855	-0.570742
O12	O	0.058432	-1.502855	-0.070742
O13	O	-0.570712	-1.808140	-0.271337
O14	O	-0.070712	-1.308140	0.228663
O15	O	-0.271266	-1.660889	-0.441693
O16	O	0.228734	-1.160889	0.058307
O17	O	-0.570666	-2.002763	-0.441673
O18	O	-0.070666	-1.502763	0.058327
O19	O	-0.271231	-1.808352	-0.570754
O20	O	0.228769	-1.308352	-0.070754
O21	O	-0.441650	-1.660769	-0.271346
O22	O	0.058350	-1.160769	0.228654
O23	O	-0.441571	-1.466258	-0.441653
O24	O	0.058429	-0.966258	0.058347
O25	O	-0.570527	-1.660874	-0.741019
O26	O	-0.070527	-1.160874	-0.241019
O27	O	-0.570574	-1.466251	-0.570683
O28	O	-0.070574	-0.966251	-0.070683
O29	O	-0.441489	-1.808343	-0.741050
O30	O	0.058511	-1.308343	-0.241050
O31	O	-0.740971	-1.808132	-0.441632
O32	O	-0.240971	-1.308132	0.058368
O33	O	-0.740911	-1.660754	-0.570672
O34	O	-0.240911	-1.160754	-0.070672
C35	C	-0.506069	-1.422707	-0.506165
C36	C	-0.006069	-0.922707	-0.006165
C37	C	-0.506084	-1.289307	-0.506181
C38	C	-0.006084	-0.789307	-0.006181
C39	C	-0.779062	-1.734461	-0.506169
C40	C	-0.279062	-1.234461	-0.006169
C41	C	-0.895839	-1.734540	-0.506196
C42	C	-0.395839	-1.234540	-0.006196
C43	C	-0.950592	-1.811291	-0.573455
C44	C	-0.450592	-1.311291	-0.073455
C45	C	-1.060316	-1.811358	-0.573484
C46	C	-0.560316	-1.311358	-0.073484
C47	C	-1.060523	-1.657921	-0.438985
C48	C	-0.560523	-1.157921	0.061015
C49	C	-0.950801	-1.657849	-0.438963
C50	C	-0.450801	-1.157849	0.061037
C51	C	-0.232061	-1.734636	-0.506229
C52	C	0.267939	-1.234636	-0.006229
C53	C	-0.115285	-1.734680	-0.506247
C54	C	0.384715	-1.234680	-0.006247
C55	C	-0.505994	-1.734622	-0.780221
C56	C	-0.005994	-1.234622	-0.280221
C57	C	-0.505951	-1.734660	-0.896998
C58	C	-0.005951	-1.234660	-0.396998
C59	C	-0.506112	-1.047574	-0.506203
C60	C	-0.006112	-0.547574	-0.006203
C61	C	-0.506096	-1.180974	-0.506188
C62	C	-0.006096	-0.680974	-0.006188
C63	C	-0.438750	-1.811453	-0.951878
C64	C	0.061250	-1.311453	-0.451878
C65	C	-0.438705	-1.811473	-1.061602
C66	C	0.061295	-1.311473	-0.561602
C67	C	-0.573070	-1.657904	-1.061557
C68	C	-0.073070	-1.157904	-0.561557
C69	C	-0.573109	-1.657879	-0.951835
C70	C	-0.073109	-1.157879	-0.451835
C71	C	-0.506119	-1.734511	-0.233220
C72	C	-0.006119	-1.234511	0.266780
C73	C	-0.505866	-1.734706	-0.116444
C74	C	-0.005866	-1.234706	0.383556
H75	H	-1.104892	-1.873853	-0.628256
H76	H	-0.604892	-1.373853	-0.128256
H77	H	-0.627750	-1.595394	-1.106219
H78	H	-0.127750	-1.095394	-0.606219
O79	O	-1.119818	-1.575227	-0.366464
O80	O	-0.619818	-1.075227	0.133536
H81	H	-1.098829	-1.481003	-0.384407
H82	H	-0.598829	-0.981003	0.115593
H83	H	-0.627831	-1.595336	-0.907151
H84	H	-0.127831	-1.095336	-0.407151
O85	O	-0.891306	-1.894004	-0.645966
O86	O	-0.391306	-1.394004	-0.145966
H87	H	-0.947818	-1.947380	-0.692744
H88	H	-0.447818	-1.447380	-0.192744
H89	H	-0.906218	-1.595343	-0.384192
H90	H	-0.406218	-1.095343	0.115808
O91	O	-0.366311	-1.894253	-0.892727
O92	O	0.133689	-1.394253	-0.392727
H93	H	-0.319568	-1.947646	-0.949326
H94	H	0.180432	-1.447646	-0.449326
O95	O	-0.366231	-1.894306	-1.120797
O96	O	0.133769	-1.394306	-0.620797
H97	H	-0.319548	-1.947695	-1.064228
H98	H	0.180452	-1.447695	-0.564228
