data_functionalizedCrystal
_audit_creation_method	'MofGen! by Chris Wilmer'
_symmetry_space_group_name_H-M	'P1'
_symmetry_Int_Tables_number	1
_symmetry_cell_setting	triclinic
loop_
_symmetry_equiv_pos_as_xyz
  x,y,z
_cell_length_a	23.532407
_cell_length_b	11.295483
_cell_length_c	12.811415
_cell_angle_alpha	88.701575
_cell_angle_beta	83.449025
_cell_angle_gamma	85.923202
loop_
_atom_site_label
_atom_site_type_symbol
_atom_site_fract_x
_atom_site_fract_y
_atom_site_fract_z
O1	O	0.760266	-0.111839	0.119382
O2	O	0.594580	-0.113833	0.137674
O3	O	0.680961	-0.096453	-0.023132
O4	O	0.673885	-0.129219	0.280188
O5	O	0.673374	0.100073	-0.009030
O6	O	0.586993	0.082693	0.151776
O7	O	0.752679	0.084687	0.133485
Cu8	Cu	0.669143	0.101635	0.143918
Cu9	Cu	0.678116	-0.130781	0.127241
O10	O	0.666298	0.067307	0.294291
C11	C	0.676539	0.005999	-0.054879
C12	C	0.674657	0.018479	-0.170487
C13	C	0.569566	-0.015522	0.144259
C14	C	0.506336	-0.015378	0.142858
N15	N	0.662836	0.265103	0.155648
C16	C	0.239193	-0.004442	0.041923
C17	C	0.298606	-0.004583	0.043224
O18	O	0.334576	0.004108	-0.036846
N19	N	0.322155	-0.014918	0.138823
C20	C	0.286287	-0.025101	0.233128
O21	O	0.311773	-0.033904	0.314561
C22	C	0.226875	-0.024951	0.231826
C23	C	0.203330	-0.014627	0.136220
C24	C	0.215647	0.005883	-0.053676
C25	C	0.156239	0.006021	-0.054976
C26	C	0.120376	-0.004164	0.039321
C27	C	0.143921	-0.014489	0.134919
C28	C	0.191008	-0.035126	0.326131
C29	C	0.131593	-0.034975	0.324821
C30	C	0.108048	-0.024651	0.229215
C31	C	0.048650	-0.024536	0.227916
N32	N	0.025101	-0.014201	0.132317
C33	C	0.060964	-0.004015	0.038020
C34	C	0.411057	-0.025412	0.235854
C35	C	0.470468	-0.025570	0.237156
C36	C	0.482782	-0.005049	0.047251
C37	C	0.423370	-0.004900	0.045950
C38	C	0.387508	-0.015077	0.140255
C39	C	-0.063799	-0.003726	0.035295
C40	C	-0.123213	-0.003593	0.034002
C41	C	-0.135523	-0.024107	0.223907
C42	C	-0.076114	-0.024246	0.225199
C43	C	-0.040253	-0.014051	0.130885
O44	O	0.012644	-0.033218	0.307944
O45	O	0.035469	0.004802	-0.043400
C46	C	0.777693	-0.013627	0.126899
C47	C	0.840924	-0.013779	0.128300
N48	N	0.684427	-0.294248	0.115503
C49	C	0.729826	0.527864	0.031009
C50	C	0.725064	0.651569	0.039881
C51	C	0.648548	0.636221	0.182256
C52	C	0.653310	0.512516	0.173385
C53	C	0.693951	0.458342	0.097760
C54	C	0.698715	0.334634	0.088894
C55	C	0.622197	0.319289	0.231264
C56	C	0.617434	0.442994	0.240135
C57	C	0.679385	-0.172346	-0.403091
C58	C	0.677618	-0.160626	-0.511715
C59	C	0.669352	0.053641	-0.496361
C60	C	0.671119	0.041920	-0.387737
C61	C	0.676136	-0.071077	-0.341106
C62	C	0.677908	-0.082797	-0.232481
C63	C	0.669638	0.131468	-0.217128
C64	C	0.667870	0.143189	-0.325752
C65	C	0.670720	-0.035147	0.326038
C66	C	0.672602	-0.047636	0.441645
H67	H	-0.142380	0.004811	-0.043855
C68	C	0.743420	0.275045	0.005703
N69	N	0.777090	0.230167	-0.056962
C70	C	0.683425	-0.207096	-0.181188
N71	N	0.687579	-0.300721	-0.142558
C72	C	0.496360	-0.036937	0.342329
N73	N	0.515860	-0.045489	0.421550
C74	C	0.603832	0.695837	0.265412
N75	N	0.570148	0.740742	0.328040
H76	H	0.381860	-0.033708	0.312652
C77	C	0.216893	-0.046464	0.431308
N78	N	0.236388	-0.054996	0.510534
C79	C	0.666065	0.242871	-0.148935
N80	N	0.663377	0.326778	-0.097572
C81	C	0.684907	-0.296643	-0.351796
N82	N	0.689066	-0.390265	-0.313162
C83	C	0.572727	0.502601	0.323311
N84	N	0.539053	0.547495	0.385960
C85	C	-0.050213	-0.035616	0.330369
N86	N	-0.030709	-0.044170	0.409586
C87	C	0.582731	0.242804	0.304694
N88	N	0.553007	0.185195	0.360002
C89	C	0.681205	-0.272029	-0.579899
N90	N	0.683911	-0.355944	-0.631256
H91	H	0.102395	-0.043256	0.401618
C92	C	-0.174984	-0.035303	0.327629
N93	N	-0.204707	-0.043725	0.405754
H94	H	0.762922	0.483754	-0.030560
H95	H	0.665262	0.145638	-0.534346
H96	H	0.663783	0.235188	-0.363733
H97	H	-0.034608	0.004576	-0.041504
H98	H	0.244841	0.014182	-0.130468
C99	C	0.130346	0.017407	-0.160149
N100	N	0.110848	0.025995	-0.239370
H101	H	0.404204	0.003508	-0.031901
H102	H	0.511993	0.003245	-0.029531
C103	C	0.764529	0.728039	-0.033554
N104	N	0.794254	0.785637	-0.088870
