data_functionalizedCrystal
_audit_creation_method	'MofGen! by Chris Wilmer'
_symmetry_space_group_name_H-M	'P1'
_symmetry_Int_Tables_number	1
_symmetry_cell_setting	triclinic
loop_
_symmetry_equiv_pos_as_xyz
  x,y,z
_cell_length_a	14.519709
_cell_length_b	17.699083
_cell_length_c	16.776229
_cell_angle_alpha	89.994534
_cell_angle_beta	89.992406
_cell_angle_gamma	83.481580
loop_
_atom_site_label
_atom_site_type_symbol
_atom_site_fract_x
_atom_site_fract_y
_atom_site_fract_z
O1	O	0.116624	1.004412	-0.066259
O2	O	0.616624	1.504412	0.433741
O3	O	0.131797	0.784077	-0.066267
O4	O	0.631797	1.284077	0.433733
O5	O	-0.010052	0.900087	-0.066256
O6	O	0.489948	1.400087	0.433744
O7	O	0.258474	0.888403	-0.066270
O8	O	0.758474	1.388403	0.433730
O9	O	-0.010061	0.900071	0.066321
O10	O	0.489939	1.400071	0.566321
O11	O	0.131789	0.784062	0.066309
O12	O	0.631789	1.284062	0.566309
O13	O	0.116616	1.004397	0.066318
O14	O	0.616616	1.504397	0.566318
Zn15	Zn	0.124201	0.894227	0.087363
Zn16	Zn	0.624201	1.394227	0.587363
Zn17	Zn	0.124212	0.894247	-0.087312
Zn18	Zn	0.624212	1.394247	0.412688
O19	O	0.258465	0.888388	0.066306
O20	O	0.758465	1.388388	0.566306
C21	C	-0.044414	0.899534	0.000033
C22	C	0.455586	1.399534	0.500033
C23	C	-0.146789	0.897903	0.000033
C24	C	0.353211	1.397903	0.500033
C25	C	0.131249	0.755871	0.000020
C26	C	0.631249	1.255871	0.500020
C27	C	0.129618	0.671848	0.000017
C28	C	0.629618	1.171848	0.500017
C29	C	0.117164	1.032603	0.000029
C30	C	0.617164	1.532603	0.500029
C31	C	0.118795	1.116626	0.000027
C32	C	0.618795	1.616626	0.500027
C33	C	-0.521659	0.891896	0.000012
C34	C	-0.021659	1.391896	0.500012
C35	C	-0.417358	0.893564	0.000018
C36	C	0.082642	1.393564	0.500018
C37	C	-0.334227	0.894899	0.000023
C38	C	0.165773	1.394899	0.500023
C39	C	-0.229920	0.896568	0.000028
C40	C	0.270080	1.396568	0.500028
C41	C	0.292827	0.888940	0.000016
C42	C	0.792827	1.388940	0.500016
C43	C	0.395202	0.890572	0.000010
C44	C	0.895202	1.390572	0.500010
N45	N	0.124192	0.894219	0.206574
N46	N	0.624192	1.394219	0.706574
C47	C	0.035532	1.165009	0.000029
C48	C	0.535532	1.665009	0.500029
C49	C	0.037070	1.243956	0.000031
C50	C	0.537070	1.743956	0.500031
C51	C	0.121872	1.274520	0.000026
C52	C	0.621872	1.774520	0.500026
C53	C	0.205141	1.226131	0.000027
C54	C	0.705141	1.726131	0.500027
C55	C	0.203602	1.147185	0.000030
C56	C	0.703602	1.647185	0.500030
C57	C	0.211349	1.544512	0.000015
C58	C	0.711349	2.044512	0.500015
C59	C	0.212882	1.623464	0.000009
C60	C	0.712882	2.123464	0.500009
C61	C	0.044817	1.641283	0.000016
C62	C	0.544817	2.141283	0.500016
C63	C	0.043278	1.562337	0.000019
C64	C	0.543278	2.062337	0.500019
C65	C	0.126547	1.513955	0.000024
C66	C	0.626547	2.013955	0.500024
C67	C	0.124878	1.428351	0.000023
C68	C	0.624878	1.928351	0.500023
C69	C	0.123541	1.360122	0.000022
C70	C	0.623541	1.860122	0.500022
N71	N	0.124213	0.894262	-0.206524
N72	N	0.624213	1.394262	0.293476
C73	C	0.061407	0.945603	0.248296
C74	C	0.561407	1.445603	0.748296
C75	C	0.061406	0.945607	0.331749
C76	C	0.561406	1.445607	0.831749
C77	C	0.124196	0.894230	0.373477
C78	C	0.624196	1.394230	0.873477
C79	C	0.186984	0.842840	0.331749
C80	C	0.686984	1.342840	0.831749
C81	C	0.186980	0.842833	0.248298
C82	C	0.686980	1.342833	0.748298
C83	C	0.187002	0.842867	0.668296
C84	C	0.687002	1.342867	1.168296
C85	C	0.187004	0.842880	0.751753
C86	C	0.687004	1.342880	1.251753
C87	C	0.061429	0.945642	0.751747
C88	C	0.561429	1.445642	1.251747
C89	C	0.061424	0.945635	0.668296
C90	C	0.561424	1.445635	1.168296
C91	C	0.124209	0.894242	0.626575
C92	C	0.624209	1.394242	1.126575
C93	C	0.124208	0.894238	0.536087
C94	C	0.624208	1.394238	1.036087
C95	C	0.124202	0.894238	0.463964
C96	C	0.624202	1.394238	0.963964
H97	H	-0.033524	1.140130	0.000028
H98	H	0.466476	1.640130	0.500028
N99	N	-0.043335	1.531104	0.000020
N100	N	0.456665	2.031104	0.500020
N101	N	-0.062939	1.489038	-0.055858
N102	N	0.437061	1.989038	0.444142
H103	H	-0.124111	1.466978	-0.055855
H104	H	0.375889	1.966978	0.444145
N105	N	-0.002716	0.998104	0.625660
N106	N	0.497284	1.498104	1.125660
N107	N	-0.002713	0.998087	0.551151
N108	N	0.497287	1.498087	1.051151
H109	H	-0.048016	1.035142	0.521039
H110	H	0.451984	1.535142	1.021039
H111	H	-0.022984	1.680686	0.000015
H112	H	0.477016	2.180686	0.500015
N113	N	0.251127	0.790381	0.794379
N114	N	0.751127	1.290381	1.294379
N115	N	0.221926	0.743376	0.840960
N116	N	0.721926	1.243376	1.340960
H117	H	0.267210	0.706299	0.871065
H118	H	0.767210	1.206299	1.371065
H119	H	0.238105	0.800989	0.214329
H120	H	0.738105	1.300989	0.714329
N121	N	0.296395	1.495087	0.000025
N122	N	0.796395	1.995087	0.500025
N123	N	0.295017	1.424601	0.000043
N124	N	0.795017	1.924601	0.500043
H125	H	0.355084	1.389690	0.000057
H126	H	0.855084	1.889690	0.500057
H127	H	0.274188	1.251022	0.000028
H128	H	0.774188	1.751022	0.500028
N129	N	0.299519	1.654672	0.000020
N130	N	0.799519	2.154672	0.500020
N131	N	0.355602	1.639888	0.055908
N132	N	0.855602	2.139888	0.555908
H133	H	0.416786	1.661928	0.055916
H134	H	0.916786	2.161928	0.555916
N135	N	-0.002705	0.998132	0.794377
N136	N	0.497295	1.498132	1.294377
N137	N	-0.002700	0.998132	0.868886
N138	N	0.497300	1.498132	1.368886
H139	H	-0.047992	1.035203	0.898993
H140	H	0.452008	1.535203	1.398993
H141	H	0.010281	0.987448	0.365719
H142	H	0.510281	1.487448	0.865719
N143	N	0.251136	0.790366	0.625699
N144	N	0.751136	1.290366	1.125699
N145	N	0.307191	0.744498	0.662969
N146	N	0.807191	1.244498	1.162969
H147	H	0.352488	0.707415	0.632883
H148	H	0.852488	1.207415	1.132883
N149	N	0.251108	0.790347	0.374373
N150	N	0.751108	1.290347	0.874373
N151	N	0.221915	0.743338	0.420953
N152	N	0.721915	1.243338	0.920953
H153	H	0.267204	0.706263	0.451056
H154	H	0.767204	1.206263	0.951056
N155	N	-0.047983	1.293376	0.000044
N156	N	0.452017	1.793376	0.500044
N157	N	-0.104429	1.290519	0.055929
N158	N	0.395571	1.790519	0.555929
H159	H	-0.164502	1.325421	0.055940
H160	H	0.335498	1.825421	0.555940
N161	N	0.288662	1.097771	0.000035
N162	N	0.788662	1.597771	0.500035
N163	N	0.364372	1.125067	0.000033
N164	N	0.864372	1.625067	0.500033
H165	H	0.424450	1.090170	0.000041
H166	H	0.924450	1.590170	0.500041
H167	H	0.010280	0.987444	0.214327
H168	H	0.510280	1.487444	0.714327
