data_functionalizedCrystal
_audit_creation_method	'MofGen! by Chris Wilmer'
_symmetry_space_group_name_H-M	'P1'
_symmetry_Int_Tables_number	1
_symmetry_cell_setting	triclinic
loop_
_symmetry_equiv_pos_as_xyz
  x,y,z
_cell_length_a	25.639243
_cell_length_b	25.639240
_cell_length_c	25.639233
_cell_angle_alpha	90.020815
_cell_angle_beta	89.984038
_cell_angle_gamma	89.954114
loop_
_atom_site_label
_atom_site_type_symbol
_atom_site_fract_x
_atom_site_fract_y
_atom_site_fract_z
Zn1	Zn	0.799209	0.208176	-0.295648
Zn2	Zn	1.132542	0.541510	0.037685
Zn3	Zn	1.465875	0.874843	0.371018
Zn4	Zn	0.799125	0.295595	-0.208209
Zn5	Zn	1.132459	0.628929	0.125124
Zn6	Zn	1.465792	0.962262	0.458457
Zn7	Zn	0.711785	0.208180	-0.208222
Zn8	Zn	1.045118	0.541513	0.125112
Zn9	Zn	1.378452	0.874846	0.458445
Zn10	Zn	0.711723	0.295587	-0.295609
Zn11	Zn	1.045057	0.628920	0.037725
Zn12	Zn	1.378390	0.962253	0.371058
O13	O	0.755461	0.251885	-0.251922
O14	O	1.088794	0.585218	0.081411
O15	O	1.422127	0.918551	0.414745
O16	O	0.872363	0.219775	-0.284061
O17	O	1.205696	0.553108	0.049273
O18	O	1.539030	0.886441	0.382606
O19	O	0.787531	0.284004	-0.135046
O20	O	1.120864	0.617338	0.198288
O21	O	1.454197	0.950671	0.531621
O22	O	0.723443	0.135014	-0.219841
O23	O	1.056776	0.468347	0.113493
O24	O	1.390109	0.801681	0.446826
O25	O	0.872302	0.284001	-0.219820
O26	O	1.205635	0.617334	0.113514
O27	O	1.538968	0.950668	0.446847
O28	O	0.787673	0.135012	-0.284073
O29	O	1.121006	0.468345	0.049261
O30	O	1.454339	0.801678	0.382594
O31	O	0.723362	0.219781	-0.135055
O32	O	1.056695	0.553114	0.198278
O33	O	1.390029	0.886447	0.531612
O34	O	0.638612	0.219772	-0.219802
O35	O	0.971945	0.553106	0.113531
O36	O	1.305278	0.886439	0.446864
O37	O	0.723338	0.283987	-0.368779
O38	O	1.056671	0.617320	-0.035446
O39	O	1.390004	0.950653	0.297887
O40	O	0.638566	0.283990	-0.284005
O41	O	0.971900	0.617323	0.049328
O42	O	1.305233	0.950657	0.382661
O43	O	0.787613	0.219767	-0.368808
O44	O	1.120946	0.553100	-0.035475
O45	O	1.454279	0.886433	0.297858
O46	O	0.787471	0.368759	-0.219781
O47	O	1.120804	0.702093	0.113552
O48	O	1.454137	1.035426	0.446885
O49	O	0.723257	0.368753	-0.283993
O50	O	1.056590	0.702086	0.049340
O51	O	1.389923	1.035420	0.382673
C52	C	0.619618	0.251881	-0.251901
C53	C	0.952951	0.585214	0.081432
C54	C	1.286285	0.918548	0.414765
C55	C	0.561504	0.251892	-0.251905
C56	C	0.894837	0.585225	0.081429
C57	C	1.228171	0.918559	0.414762
C58	C	0.201167	0.218495	-0.285428
C59	C	0.534501	0.551828	0.047905
C60	C	0.867834	0.885161	0.381239
C61	C	0.146563	0.218494	-0.285431
C62	C	0.479896	0.551827	0.047902
C63	C	0.813230	0.885161	0.381235
O64	O	0.118349	0.190088	-0.313908
O65	O	0.451682	0.523422	0.019425
O66	O	0.785015	0.856755	0.352759
N67	N	0.119222	0.251883	-0.251936
N68	N	0.452555	0.585216	0.081397
N69	N	0.785888	0.918550	0.414730
C70	C	0.146487	0.285271	-0.218432
C71	C	0.479821	0.618604	0.114901
C72	C	0.813154	0.951938	0.448234
O73	O	0.118217	0.313670	-0.189942
O74	O	0.451551	0.647004	0.143391
O75	O	0.784884	0.980337	0.476724
C76	C	0.201091	0.285268	-0.218427
C77	C	0.534424	0.618602	0.114906
C78	C	0.867757	0.951935	0.448240
C79	C	0.228429	0.251881	-0.251928
C80	C	0.561763	0.585214	0.081406
C81	C	0.895096	0.918548	0.414739
C82	C	0.228506	0.185109	-0.318926
C83	C	0.561839	0.518443	0.014408
C84	C	0.895173	0.851776	0.347741
C85	C	0.283106	0.185111	-0.318923
C86	C	0.616440	0.518444	0.014410
C87	C	0.949773	0.851777	0.347744
C88	C	0.310368	0.218497	-0.285423
C89	C	0.643702	0.551830	0.047911
C90	C	0.977035	0.885164	0.381244
C91	C	0.283030	0.251882	-0.251925
C92	C	0.616363	0.585215	0.081408
C93	C	0.949696	0.918549	0.414742
C94	C	0.228355	0.318653	-0.184921
C95	C	0.561689	0.651986	0.148413
C96	C	0.895022	0.985320	0.481746
C97	C	0.282962	0.318647	-0.184918
C98	C	0.616296	0.651981	0.148416
C99	C	0.949629	0.985314	0.481749
C100	C	0.310301	0.285260	-0.218418
C101	C	0.643634	0.618593	0.114915
C102	C	0.976968	0.951927	0.448248
C103	C	0.364892	0.285270	-0.218422
C104	C	0.698226	0.618603	0.114911
C105	C	1.031559	0.951936	0.448245
N106	N	0.392234	0.251881	-0.251917
N107	N	0.725567	0.585214	0.081417
N108	N	1.058900	0.918547	0.414750
C109	C	0.364972	0.218494	-0.285417
C110	C	0.698305	0.551828	0.047916
C111	C	1.031638	0.885161	0.381249
C112	C	0.031817	0.285273	-0.218446
C113	C	0.365150	0.618606	0.114888
C114	C	0.698483	0.951940	0.448221
C115	C	-0.022786	0.285279	-0.218453
C116	C	0.310548	0.618612	0.114880
C117	C	0.643881	0.951945	0.448213
C118	C	-0.022706	0.218501	-0.285452
C119	C	0.310627	0.551834	0.047881
C120	C	0.643960	0.885168	0.381215
C121	C	0.031897	0.218499	-0.285446
C122	C	0.365230	0.551832	0.047887
C123	C	0.698564	0.885165	0.381220
C124	C	0.059158	0.251884	-0.251941
C125	C	0.392491	0.585217	0.081393
C126	C	0.725825	0.918551	0.414726
C127	C	0.479637	0.218500	-0.285409
C128	C	0.812970	0.551833	0.047924
C129	C	1.146303	0.885167	0.381257
C130	C	0.534242	0.218506	-0.285405
C131	C	0.867575	0.551839	0.047928
C132	C	1.200909	0.885172	0.381261
C133	C	0.534158	0.285281	-0.218405
C134	C	0.867491	0.618614	0.114928
C135	C	1.200825	0.951948	0.448262
C136	C	0.479557	0.285278	-0.218411
C137	C	0.812891	0.618611	0.114922
C138	C	1.146224	0.951944	0.448256
C139	C	0.452298	0.251883	-0.251915
C140	C	0.785631	0.585216	0.081419
C141	C	1.118965	0.918549	0.414752
O142	O	0.393141	0.313659	-0.189958
O143	O	0.726475	0.646993	0.143375
O144	O	1.059808	0.980326	0.476709
O145	O	0.393248	0.190095	-0.313898
O146	O	0.726582	0.523428	0.019436
O147	O	1.059915	0.856762	0.352769
C148	C	0.755362	0.387727	-0.251893
C149	C	1.088695	0.721060	0.081440
C150	C	1.422029	1.054394	0.414773
C151	C	0.755368	0.445841	-0.251898
C152	C	1.088701	0.779175	0.081435
C153	C	1.422034	1.112508	0.414768
C154	C	0.788941	0.806195	-0.218524
C155	C	1.122274	1.139528	0.114810
C156	C	1.455607	1.472862	0.448143
C157	C	0.788957	0.860799	-0.218529
C158	C	1.122290	1.194133	0.114804
C159	C	1.455623	1.527466	0.448138
O160	O	0.817432	0.889028	-0.190136
O161	O	1.150766	1.222361	0.143197
O162	O	1.484099	1.555695	0.476530
N163	N	0.755503	0.888124	-0.251934
N164	N	1.088836	1.221457	0.081400
N165	N	1.422170	1.554790	0.414733
C166	C	0.722034	0.860841	-0.285339
C167	C	1.055368	1.194174	0.047994
C168	C	1.388701	1.527508	0.381327
O169	O	0.693581	0.889096	-0.313754
O170	O	1.026914	1.222430	0.019580
O171	O	1.360248	1.555763	0.352913
C172	C	0.722022	0.806238	-0.285337
C173	C	1.055355	1.139571	0.047997
C174	C	1.388688	1.472904	0.381330
C175	C	0.755474	0.778916	-0.251926
C176	C	1.088807	1.112249	0.081407
C177	C	1.422141	1.445583	0.414741
C178	C	0.822391	0.778873	-0.185116
C179	C	1.155724	1.112207	0.148217
C180	C	1.489058	1.445540	0.481550
C181	C	0.822374	0.724273	-0.185111
C182	C	1.155707	1.057606	0.148223
C183	C	1.489041	1.390939	0.481556
C184	C	0.788907	0.696994	-0.218513
C185	C	1.122240	1.030327	0.114821
C186	C	1.455574	1.363660	0.448154
C187	C	0.755457	0.724315	-0.251920
C188	C	1.088790	1.057649	0.081413
C189	C	1.422124	1.390982	0.414746
C190	C	0.688556	0.778956	-0.318745
C191	C	1.021890	1.112289	0.014589
C192	C	1.355223	1.445623	0.347922
C193	C	0.688546	0.724349	-0.318739
C194	C	1.021880	1.057682	0.014594
C195	C	1.355213	1.391016	0.347927
C196	C	0.721999	0.697027	-0.285329
C197	C	1.055332	1.030361	0.048005
C198	C	1.388665	1.363694	0.381338
C199	C	0.721973	0.642436	-0.285317
C200	C	1.055307	0.975769	0.048017
C201	C	1.388640	1.309103	0.381350
N202	N	0.755427	0.615112	-0.251912
N203	N	1.088761	0.948445	0.081421
N204	N	1.422094	1.281778	0.414755
C205	C	0.788894	0.642390	-0.218510
C206	C	1.122228	0.975724	0.114823
C207	C	1.455561	1.309057	0.448157
C208	C	0.722065	0.975512	-0.285343
C209	C	1.055398	1.308845	0.047990
C210	C	1.388732	1.642178	0.381323
C211	C	0.722075	1.030114	-0.285344
C212	C	1.055408	1.363447	0.047989
C213	C	1.388742	1.696781	0.381323
C214	C	0.788998	1.030068	-0.218534
C215	C	1.122331	1.363402	0.114799
C216	C	1.455665	1.696735	0.448133
C217	C	0.788985	0.975465	-0.218531
C218	C	1.122318	1.308798	0.114802
C219	C	1.455652	1.642132	0.448136
C220	C	0.755519	0.948187	-0.251939
C221	C	1.088852	1.281520	0.081395
C222	C	1.422186	1.614854	0.414728
C223	C	0.788856	0.527725	-0.218500
C224	C	1.122189	0.861059	0.114833
C225	C	1.455523	1.194392	0.448166
C226	C	0.788835	0.473120	-0.218496
C227	C	1.122168	0.806453	0.114837
C228	C	1.455501	1.139787	0.448170
C229	C	0.721914	0.473170	-0.285308
C230	C	1.055247	0.806504	0.048025
C231	C	1.388580	1.139837	0.381359
C232	C	0.721933	0.527771	-0.285310
C233	C	1.055266	0.861104	0.048023
C234	C	1.388600	1.194438	0.381356
C235	C	0.755408	0.555047	-0.251905
C236	C	1.088742	0.888380	0.081428
C237	C	1.422075	1.221714	0.414762
O238	O	0.693514	0.614173	-0.313696
O239	O	1.026847	0.947506	0.019637
O240	O	1.360181	1.280839	0.352970
O241	O	0.817348	0.614128	-0.190105
O242	O	1.150681	0.947462	0.143228
O243	O	1.484014	1.280795	0.476561
C244	C	0.891834	0.251889	-0.251943
C245	C	1.225167	0.585222	0.081390
C246	C	1.558500	0.918555	0.414724
C247	C	0.949948	0.251890	-0.251952
C248	C	1.283281	0.585224	0.081381
C249	C	1.616614	0.918557	0.414715
C250	C	0.755478	0.251875	-0.388295
C251	C	1.088811	0.585209	-0.054962
C252	C	1.422144	0.918542	0.278372
C253	C	0.755485	0.251871	-0.446409
C254	C	1.088818	0.585205	-0.113076
C255	C	1.422151	0.918538	0.220258
C256	C	0.755554	1.115512	-0.251953
C257	C	1.088888	1.448845	0.081380
C258	C	1.422221	1.782178	0.414713
C259	C	0.755544	1.057397	-0.251944
C260	C	1.088877	1.390731	0.081390
C261	C	1.422211	1.724064	0.414723
C262	C	0.788995	0.218333	-0.806793
C263	C	1.122329	0.551666	-0.473460
C264	C	1.455662	0.884999	-0.140126
C265	C	0.789002	0.218318	-0.861397
C266	C	1.122335	0.551652	-0.528064
C267	C	1.455668	0.884985	-0.194731
O268	O	0.817451	0.189864	-0.889652
O269	O	1.150785	0.523197	-0.556318
O270	O	1.484118	0.856531	-0.222985
N271	N	0.755542	0.251749	-0.888692
N272	N	1.088876	0.585082	-0.555358
N273	N	1.422209	0.918416	-0.222025
C274	C	0.722071	0.285192	-0.861379
C275	C	1.055404	0.618526	-0.528046
C276	C	1.388737	0.951859	-0.194712
O277	O	0.693611	0.313626	-0.889609
O278	O	1.026945	0.646959	-0.556276
O279	O	1.360278	0.980293	-0.222942
C280	C	0.722062	0.285204	-0.806776
C281	C	1.055395	0.618537	-0.473442
C282	C	1.388729	0.951870	-0.140109
C283	C	0.755527	0.251775	-0.779484
C284	C	1.088861	0.585108	-0.446151
C285	C	1.422194	0.918441	-0.112817
C286	C	0.822457	0.184906	-0.779501
C287	C	1.155791	0.518239	-0.446168
C288	C	1.489124	0.851573	-0.112835
C289	C	0.822451	0.184921	-0.724901
C290	C	1.155785	0.518255	-0.391568
C291	C	1.489118	0.851588	-0.058234
C292	C	0.788983	0.218363	-0.697592
C293	C	1.122317	0.551697	-0.364259
C294	C	1.455650	0.885030	-0.030925
C295	C	0.755521	0.251790	-0.724884
C296	C	1.088855	0.585123	-0.391550
C297	C	1.422188	0.918457	-0.058217
C298	C	0.688588	0.318644	-0.779464
C299	C	1.021921	0.651978	-0.446131
C300	C	1.355255	0.985311	-0.112797
C301	C	0.688582	0.318653	-0.724857
C302	C	1.021915	0.651986	-0.391524
C303	C	1.355249	0.985319	-0.058190
C304	C	0.722047	0.285224	-0.697565
C305	C	1.055381	0.618557	-0.364232
C306	C	1.388714	0.951890	-0.030899
C307	C	0.722047	0.285247	-0.642974
C308	C	1.055381	0.618581	-0.309641
C309	C	1.388714	0.951914	0.023693
N310	N	0.755507	0.251817	-0.615680
N311	N	1.088840	0.585150	-0.282346
N312	N	1.422173	0.918483	0.050987
C313	C	0.788975	0.218375	-0.642989
C314	C	1.122308	0.551708	-0.309655
C315	C	1.455641	0.885041	0.023678
C316	C	0.722091	0.285165	-0.976050
C317	C	1.055424	0.618499	-0.642716
C318	C	1.388758	0.951832	-0.309383
C319	C	0.722102	0.285157	-1.030652
C320	C	1.055435	0.618490	-0.697319
C321	C	1.388768	0.951823	-0.363985
C322	C	0.789032	0.218282	-1.030667
C323	C	1.122366	0.551615	-0.697333
C324	C	1.455699	0.884949	-0.364000
C325	C	0.789024	0.218293	-0.976063
C326	C	1.122357	0.551627	-0.642730
C327	C	1.455690	0.884960	-0.309397
C328	C	0.755550	0.251735	-0.948755
C329	C	1.088884	0.585068	-0.615422
C330	C	1.422217	0.918401	-0.282089
C331	C	0.788960	0.218410	-0.528323
C332	C	1.122293	0.551743	-0.194990
C333	C	1.455627	0.885076	0.138343
C334	C	0.788953	0.218429	-0.473718
C335	C	1.122286	0.551763	-0.140385
C336	C	1.455619	0.885096	0.192949
C337	C	0.722021	0.285302	-0.473708
C338	C	1.055354	0.618636	-0.140375
C339	C	1.388687	0.951969	0.192958
C340	C	0.722030	0.285285	-0.528309
C341	C	1.055363	0.618618	-0.194976
C342	C	1.388696	0.951951	0.138358
C343	C	0.755501	0.251834	-0.555615
C344	C	1.088834	0.585167	-0.222282
C345	C	1.422168	0.918501	0.111052
O346	O	0.693611	0.313686	-0.614685
O347	O	1.026944	0.647019	-0.281352
O348	O	1.360277	0.980352	0.051982
O349	O	0.817425	0.189941	-0.614752
O350	O	1.150758	0.523274	-0.281419
O351	O	1.484091	0.856608	0.051915
C352	C	0.755474	0.251856	-0.116080
C353	C	1.088807	0.585189	0.217254
C354	C	1.422141	0.918523	0.550587
C355	C	0.755568	0.251713	-0.057966
C356	C	1.088901	0.585046	0.275368
C357	C	1.422235	0.918379	0.608701
H358	H	0.457449	0.191305	-0.312690
H359	H	0.790782	0.524638	0.020644
H360	H	1.124115	0.857972	0.353977
H361	H	0.849646	0.801078	-0.157916
H362	H	1.182980	1.134411	0.175417
H363	H	1.516313	1.467745	0.508751
H364	H	0.661337	0.345866	-0.801675
H365	H	0.994670	0.679199	-0.468342
H366	H	1.328004	1.012532	-0.135009
N367	N	0.654393	0.806863	-0.352875
N368	N	0.987726	1.140196	-0.019542
N369	N	1.321059	1.473530	0.313791
N370	N	0.654404	0.855616	-0.352884
N371	N	0.987737	1.188949	-0.019550
N372	N	1.321071	1.522282	0.313783
H373	H	0.630275	0.875325	-0.376990
H374	H	0.963608	1.208659	-0.043657
H375	H	1.296941	1.541992	0.289676
N376	N	0.823004	0.445204	-0.184369
N377	N	1.156337	0.778538	0.148964
N378	N	1.489670	1.111871	0.482297
N379	N	0.822984	0.396452	-0.184363
N380	N	1.156318	0.729785	0.148970
N381	N	1.489651	1.063119	0.482304
H382	H	0.847114	0.376737	-0.160261
H383	H	1.180447	0.710070	0.173073
H384	H	1.513781	1.043404	0.506406
H385	H	0.816225	0.953223	-0.191325
H386	H	1.149558	1.286556	0.142008
H387	H	1.482892	1.619890	0.475341
N388	N	0.200429	0.352753	-0.150703
N389	N	0.533762	0.686086	0.182631
N390	N	0.867095	1.019419	0.515964
N391	N	0.169938	0.386102	-0.169028
N392	N	0.503271	0.719435	0.164306
N393	N	0.836604	1.052769	0.497639
H394	H	0.150213	0.410185	-0.144858
H395	H	0.483547	0.743519	0.188475
H396	H	0.816880	1.076852	0.521808
N397	N	0.562167	0.184390	-0.319618
N398	N	0.895500	0.517723	0.013716
N399	N	1.228833	0.851056	0.347049
N400	N	0.592654	0.151044	-0.301281
N401	N	0.925987	0.484377	0.032053
N402	N	1.259321	0.817711	0.365386
H403	H	0.612374	0.126949	-0.325441
H404	H	0.945708	0.460282	0.007892
H405	H	1.279041	0.793615	0.341225
H406	H	0.694832	0.312400	-0.953819
H407	H	1.028166	0.645733	-0.620486
H408	H	1.361499	0.979067	-0.287152
N409	N	0.823137	0.184272	-0.445850
N410	N	1.156470	0.517605	-0.112517
N411	N	1.489803	0.850939	0.220817
N412	N	0.819707	0.136026	-0.451957
N413	N	1.153041	0.469359	-0.118623
N414	N	1.486374	0.802692	0.214710
H415	H	0.843849	0.111901	-0.432277
H416	H	1.177182	0.445235	-0.098944
H417	H	1.510515	0.778568	0.234389
H418	H	0.556365	0.312465	-0.191131
H419	H	0.889698	0.645798	0.142202
H420	H	1.223031	0.979131	0.475536
N421	N	0.311026	0.150992	-0.353131
N422	N	0.644359	0.484325	-0.019798
N423	N	0.977693	0.817659	0.313535
N424	N	0.341508	0.117642	-0.334793
N425	N	0.674842	0.450976	-0.001460
N426	N	1.008175	0.784309	0.331873
H427	H	0.361223	0.093542	-0.358953
H428	H	0.694557	0.426875	-0.025620
H429	H	1.027890	0.760208	0.307714
N430	N	0.654382	0.352813	-0.696972
N431	N	0.987715	0.686147	-0.363638
N432	N	1.321049	1.019480	-0.030305
N433	N	0.624507	0.382654	-0.721350
N434	N	0.957840	0.715987	-0.388017
N435	N	1.291173	1.049320	-0.054683
H436	H	0.600353	0.406780	-0.701657
H437	H	0.933686	0.740114	-0.368324
H438	H	1.267019	1.073447	-0.034991
H439	H	0.816250	1.052289	-0.191338
H440	H	1.149584	1.385622	0.141996
H441	H	1.482917	1.718955	0.475329
H442	H	0.457297	0.312470	-0.191138
H443	H	0.790631	0.645804	0.142195
H444	H	1.123964	0.979137	0.475529
H445	H	0.694857	0.312384	-1.052868
H446	H	1.028190	0.645717	-0.719535
H447	H	1.361523	0.979050	-0.386202
H448	H	0.849711	0.157671	-0.801731
H449	H	1.183045	0.491004	-0.468397
H450	H	1.516378	0.824337	-0.135064
N451	N	0.310816	0.352753	-0.150700
N452	N	0.644149	0.686087	0.182633
N453	N	0.977483	1.019420	0.515967
N454	N	0.359568	0.352754	-0.150700
N455	N	0.692902	0.686087	0.182633
N456	N	1.026235	1.019420	0.515967
H457	H	0.379240	0.376842	-0.126535
H458	H	0.712573	0.710175	0.206798
H459	H	1.045907	1.043508	0.540131
H460	H	0.849701	0.157699	-0.702685
H461	H	1.183035	0.491032	-0.369352
H462	H	1.516368	0.824366	-0.036018
N463	N	0.687849	0.319433	-0.556189
N464	N	1.021183	0.652767	-0.222856
N465	N	1.354516	0.986100	0.110477
N466	N	0.706206	0.352747	-0.586662
N467	N	1.039539	0.686081	-0.253329
N468	N	1.372873	1.019414	0.080004
H469	H	0.682060	0.376863	-0.606347
H470	H	1.015394	0.710196	-0.273014
H471	H	1.348727	1.043529	0.060319
H472	H	0.816214	0.191169	-0.550550
H473	H	1.149547	0.524503	-0.217216
H474	H	1.482881	0.857836	0.116117
H475	H	0.694773	0.312531	-0.451463
H476	H	1.028107	0.645865	-0.118130
H477	H	1.361440	0.979198	0.215203
H478	H	0.206315	0.157919	-0.346206
H479	H	0.539648	0.491253	-0.012873
H480	H	0.872982	0.824586	0.320461
N481	N	0.823211	0.184144	-0.948196
N482	N	1.156544	0.517477	-0.614863
N483	N	1.489877	0.850810	-0.281530
N484	N	0.853091	0.154291	-0.972592
N485	N	1.186424	0.487624	-0.639259
N486	N	1.519757	0.820958	-0.305926
H487	H	0.877237	0.130170	-0.952914
H488	H	1.210570	0.463504	-0.619581
H489	H	1.543903	0.796837	-0.286247
H490	H	0.054153	0.191310	-0.312725
H491	H	0.387486	0.524644	0.020609
H492	H	0.720819	0.857977	0.353942
N493	N	0.856549	0.696377	-0.150979
N494	N	1.189883	1.029710	0.182354
N495	N	1.523216	1.363043	0.515687
N496	N	0.886426	0.720748	-0.121162
N497	N	1.219760	1.054082	0.212171
N498	N	1.553093	1.387415	0.545504
H499	H	0.910566	0.701050	-0.097056
H500	H	1.243899	1.034384	0.236277
H501	H	1.577232	1.367717	0.569611
H502	H	0.694830	1.052355	-0.312545
H503	H	1.028163	1.385688	0.020788
H504	H	1.361496	1.719021	0.354121
N505	N	-0.050567	0.184401	-0.319671
N506	N	0.282766	0.517734	0.013663
N507	N	0.616099	0.851068	0.346996
N508	N	-0.099320	0.184411	-0.319666
N509	N	0.234013	0.517744	0.013668
N510	N	0.567347	0.851077	0.347001
H511	H	-0.118999	0.160330	-0.343831
H512	H	0.214334	0.493663	-0.010498
H513	H	0.547668	0.826996	0.322835
H514	H	-0.045040	0.312472	-0.191180
H515	H	0.288293	0.645805	0.142154
H516	H	0.621627	0.979139	0.475487
N517	N	0.654358	0.696478	-0.352857
N518	N	0.987692	1.029811	-0.019524
N519	N	1.321025	1.363145	0.313810
N520	N	0.654344	0.647726	-0.352850
N521	N	0.987678	0.981059	-0.019516
N522	N	1.321011	1.314392	0.313817
H523	H	0.630199	0.628042	-0.376944
H524	H	0.963532	0.961375	-0.043611
H525	H	1.296865	1.294708	0.289723
N526	N	0.823052	0.555574	-0.184374
N527	N	1.156385	0.888907	0.148959
N528	N	1.489719	1.222241	0.482293
N529	N	0.852911	0.531164	-0.154549
N530	N	1.186245	0.864498	0.178784
N531	N	1.519578	1.197831	0.512118
H532	H	0.877060	0.550832	-0.130444
H533	H	1.210393	0.884165	0.202889
H534	H	1.543727	1.217498	0.536223
H535	H	0.694808	0.953304	-0.312546
H536	H	1.028142	1.286638	0.020787
H537	H	1.361475	1.619971	0.354120
N538	N	0.059653	0.319383	-0.184216
N539	N	0.392986	0.652716	0.149117
N540	N	0.726320	0.986050	0.482450
N541	N	0.035230	0.349189	-0.154314
N542	N	0.368563	0.682523	0.179019
N543	N	0.701896	1.015856	0.512352
H544	H	0.054886	0.373279	-0.130139
H545	H	0.388219	0.706612	0.203195
H546	H	0.721553	1.039946	0.536528
H547	H	0.694695	0.550017	-0.312518
H548	H	1.028028	0.883351	0.020816
H549	H	1.361362	1.216684	0.354149
N550	N	0.687729	0.445292	-0.319418
N551	N	1.021062	0.778625	0.013915
N552	N	1.354395	1.111958	0.347249
N553	N	0.687723	0.396539	-0.319404
N554	N	1.021056	0.729873	0.013929
N555	N	1.354390	1.063206	0.347262
H556	H	0.663581	0.376848	-0.343496
H557	H	0.996914	0.710181	-0.010163
H558	H	1.330248	1.043515	0.323171
N559	N	0.823217	0.184124	-1.058576
N560	N	1.156550	0.517457	-0.725243
N561	N	1.489884	0.850791	-0.391909
N562	N	0.823214	0.184121	-1.107328
N563	N	1.156548	0.517454	-0.773995
N564	N	1.489881	0.850787	-0.440662
H565	H	0.847356	0.159999	-1.127042
H566	H	1.180689	0.493332	-0.793708
H567	H	1.514023	0.826665	-0.460375
