data_functionalizedCrystal
_audit_creation_method	'MofGen! by Chris Wilmer'
_symmetry_space_group_name_H-M	'P1'
_symmetry_Int_Tables_number	1
_symmetry_cell_setting	triclinic
loop_
_symmetry_equiv_pos_as_xyz
  x,y,z
_cell_length_a	15.944551
_cell_length_b	15.944551
_cell_length_c	14.421503
_cell_angle_alpha	89.996660
_cell_angle_beta	90.003141
_cell_angle_gamma	83.498738
loop_
_atom_site_label
_atom_site_type_symbol
_atom_site_fract_x
_atom_site_fract_y
_atom_site_fract_z
O1	O	-1.114529	-0.108320	-0.077017
O2	O	-0.869980	-0.121677	-0.077040
O3	O	-0.998933	0.007276	-0.077020
O4	O	-0.985576	-0.237273	-0.077038
O5	O	-0.998911	0.007257	0.077204
O6	O	-0.869958	-0.121696	0.077183
O7	O	-1.114508	-0.108340	0.077206
Cu8	Cu	-0.992231	-0.115020	0.091277
Cu9	Cu	-0.992256	-0.114997	-0.091110
O10	O	-0.985555	-0.237293	0.077186
C11	C	-0.838675	-0.121132	0.000069
C12	C	-0.745429	-0.119470	0.000060
C13	C	-0.998367	0.038561	0.000092
C14	C	-0.996705	0.131807	0.000093
C15	C	-1.145813	-0.108885	0.000096
C16	C	-1.239059	-0.110547	0.000098
C17	C	-0.530572	-0.035565	0.000084
C18	C	-0.469563	-0.074518	-0.075959
C19	C	-0.574703	-0.116462	0.000071
C20	C	-0.469564	-0.074556	0.076093
C21	C	-0.409790	-0.113551	0.000086
C22	C	-0.514922	-0.155437	-0.076035
C23	C	-0.514929	-0.155464	0.076086
C24	C	-0.453937	-0.194476	0.000024
C25	C	-0.669705	-0.118137	0.000062
C26	C	-0.314789	-0.111883	0.000089
C27	C	-0.986120	-0.268577	0.000072
C28	C	-0.987782	-0.361823	0.000066
N29	N	-0.992219	-0.115035	0.219558
C30	C	-0.912801	0.346663	0.000072
C31	C	-0.951753	0.407671	0.076117
C32	C	-0.993698	0.302533	0.000085
C33	C	-0.951793	0.407674	-0.075935
C34	C	-0.990787	0.467445	0.000074
C35	C	-1.032672	0.362312	0.076193
C36	C	-1.032701	0.362308	-0.075927
C37	C	-1.071711	0.423298	0.000136
C38	C	-0.995372	0.207530	0.000092
C39	C	-0.989119	0.562446	0.000073
N40	N	-0.992275	-0.114975	-0.219392
C41	C	-0.932581	-0.174636	0.469202
C42	C	-1.008481	-0.190943	0.531011
C43	C	-0.992240	-0.115015	0.408719
C44	C	-0.916359	-0.098727	0.531005
C45	C	-0.992253	-0.114997	0.591441
C46	C	-1.068178	-0.131360	0.469167
C47	C	-0.976007	-0.039111	0.469156
C48	C	-1.051961	-0.055386	0.530936
C49	C	-0.992231	-0.115027	0.303458
C50	C	-0.992270	-0.114985	0.696700
H51	H	-0.563905	0.031573	-0.000005
H52	H	-1.022224	-0.255126	0.558180
C53	C	-1.120190	0.012744	0.567329
H54	H	-1.094399	0.052464	0.603586
H55	H	-1.159340	-0.013004	0.604420
H56	H	-1.148915	0.040816	0.516427
H57	H	-0.534918	-0.189620	-0.140394
C58	C	-1.078894	0.335114	-0.162770
H59	H	-1.050076	0.350464	-0.216752
H60	H	-1.135029	0.362410	-0.163312
H61	H	-1.080054	0.275681	-0.161834
H62	H	-1.066850	0.342314	0.140554
C63	C	-0.905569	0.434817	-0.162785
H64	H	-0.849124	0.408300	-0.162691
H65	H	-0.905291	0.494361	-0.162468
H66	H	-0.933767	0.418515	-0.216780
C67	C	-0.905525	0.434834	0.162957
H68	H	-0.942962	0.472502	0.198763
H69	H	-0.858319	0.462294	0.144676
H70	H	-0.886783	0.386454	0.199015
H71	H	-0.845652	0.313356	0.000141
H72	H	-0.449461	-0.040294	-0.140243
C73	C	-0.409134	-0.285261	-0.000038
H74	H	-0.424652	-0.313852	-0.054105
H75	H	-0.425353	-0.314217	0.053463
H76	H	-0.349749	-0.283719	0.000468
C77	C	-1.154891	-0.150073	0.432635
H78	H	-1.154347	-0.149997	0.366761
H79	H	-1.197294	-0.107968	0.454264
H80	H	-1.166518	-0.203817	0.454329
H81	H	-0.882181	-0.225096	0.442096
C82	C	-0.542124	-0.201656	0.162929
H83	H	-0.526775	-0.172838	0.216911
H84	H	-0.514828	-0.257791	0.163472
H85	H	-0.601557	-0.202818	0.161992
H86	H	-1.138919	0.456457	0.000186
C87	C	-0.957410	0.047562	0.432413
H88	H	-0.903440	0.059044	0.453547
H89	H	-0.999241	0.090033	0.454468
H90	H	-0.958053	0.047074	0.366545
H91	H	-0.449469	-0.040333	0.140379
H92	H	-0.852183	-0.084959	0.558170
