data_functionalizedCrystal
_audit_creation_method	'MofGen! by Chris Wilmer'
_symmetry_space_group_name_H-M	'P1'
_symmetry_Int_Tables_number	1
_symmetry_cell_setting	triclinic
loop_
_symmetry_equiv_pos_as_xyz
  x,y,z
_cell_length_a	6.817900
_cell_length_b	13.167973
_cell_length_c	13.168018
_cell_angle_alpha	103.889998
_cell_angle_beta	105.756000
_cell_angle_gamma	105.756014
loop_
_atom_site_label
_atom_site_type_symbol
_atom_site_fract_x
_atom_site_fract_y
_atom_site_fract_z
V1	V	-4.096541	-0.353933	-0.184235
O2	O	-4.060599	-0.331743	-0.025971
O3	O	-4.068861	-0.366375	-0.331816
O4	O	-4.068864	-0.501515	-0.196682
O5	O	-4.060596	-0.195667	-0.162040
V6	V	-4.574799	-0.333198	-0.163500
O7	O	-4.369349	-0.399418	-0.229721
O8	O	-4.752188	-0.287713	-0.118014
O9	O	-4.379271	-0.320756	-0.015919
O10	O	-4.728137	-0.355389	-0.321765
O11	O	-4.728140	-0.491464	-0.185695
O12	O	-4.379268	-0.185616	-0.151053
C13	C	-3.918232	-0.364627	-0.367315
C14	C	-3.977026	-0.375783	-0.488062
C15	C	-3.918235	-0.537010	-0.194937
C16	C	-3.977027	-0.657756	-0.206089
C17	C	-4.116530	-0.492597	-0.683709
C18	C	-4.061295	-0.482118	-0.570258
C19	C	-3.947998	-0.279919	-0.519324
C20	C	-4.003233	-0.290398	-0.632776
C21	C	-4.087496	-0.396740	-0.714965
C22	C	-4.142717	-0.407217	-0.828418
C23	C	-4.029434	-0.205019	-0.777483
C24	C	-3.974199	-0.194541	-0.664032
C25	C	-3.974164	-0.833717	-0.024836
C26	C	-4.029402	-0.947168	-0.035310
C27	C	-4.142726	-0.998110	-0.237510
C28	C	-4.087488	-0.884660	-0.227036
C29	C	-4.003210	-0.802466	-0.120695
C30	C	-3.947986	-0.689014	-0.110223
C31	C	-4.061296	-0.739957	-0.312421
C32	C	-4.116534	-0.853408	-0.322895
C33	C	-4.193243	-0.322502	0.019575
C34	C	-4.113688	-0.311353	0.140320
C35	C	-4.193240	-0.150116	-0.152801
C36	C	-4.113685	-0.029368	-0.141643
H37	H	-4.185117	-0.579184	-0.750629
O38	O	-4.224225	-0.510477	-0.908287
C39	C	-4.177864	-0.633963	-1.060203
C40	C	-4.085278	-0.516986	-0.969788
H41	H	-4.065592	-0.639256	-1.109967
H42	H	-4.189050	-0.700718	-1.018425
H43	H	-4.347605	-0.648492	-1.119207
H44	H	-3.915499	-0.502349	-0.910756
H45	H	-4.074255	-0.450293	-1.011642
O46	O	-4.001519	-0.977484	0.057828
C47	C	-4.096039	-0.974371	0.221800
C48	C	-4.127855	-0.939993	0.116342
H49	H	-4.198123	-0.944053	0.269151
H50	H	-4.150096	-1.069577	0.196110
H51	H	-3.916192	-0.934864	0.278255
H52	H	-4.307665	-0.979422	0.059840
H53	H	-4.073655	-0.844779	0.142112
H54	H	-4.084955	-0.560176	-0.544816
H55	H	-3.879408	-0.193342	-0.452389
H56	H	-4.211334	-1.065050	-0.324086
O57	O	-4.089513	-0.709777	-0.405650
C58	C	-3.995231	-0.712860	-0.569684
C59	C	-3.962997	-0.747100	-0.464139
H60	H	-3.892929	-0.743001	-0.616989
H61	H	-4.175054	-0.752484	-0.626178
H62	H	-3.941458	-0.617664	-0.543970
H63	H	-4.016647	-0.842283	-0.489750
H64	H	-3.783161	-0.707396	-0.407671
O65	O	-3.892227	-0.091327	-0.584045
C66	C	-3.757041	0.014425	-0.386697
C67	C	-3.849813	-0.102532	-0.477163
H68	H	-3.722765	0.005405	-0.300265
H69	H	-3.598862	0.066829	-0.391692
H70	H	-3.880975	0.057630	-0.401178
H71	H	-3.726041	-0.145832	-0.462742
H72	H	-4.008035	-0.154853	-0.472145
O73	O	-3.866054	-0.609309	-0.006842
C74	C	-3.759592	-0.570765	0.192602
C75	C	-3.852360	-0.661140	0.075591
H76	H	-3.748534	-0.612637	0.259280
H77	H	-3.589823	-0.511722	0.207219
H78	H	-3.871898	-0.521026	0.197923
H79	H	-3.740220	-0.710960	0.070187
H80	H	-4.022162	-0.720106	0.061025
O81	O	-4.000848	-0.111858	-0.807788
C82	C	-3.746388	0.063464	-0.793158
C83	C	-3.778443	-0.041989	-0.758767
H84	H	-3.566591	0.119993	-0.753521
H85	H	-3.800182	0.037767	-0.888356
H86	H	-3.848717	0.110739	-0.762996
H87	H	-3.676126	-0.089312	-0.788853
H88	H	-3.724718	-0.016218	-0.663568
H89	H	-4.185151	-0.920344	-0.409474
H90	H	-3.905560	-0.766794	0.061750
