data_functionalizedCrystal
_audit_creation_method	'MofGen! by Chris Wilmer'
_symmetry_space_group_name_H-M	'P1'
_symmetry_Int_Tables_number	1
_symmetry_cell_setting	triclinic
loop_
_symmetry_equiv_pos_as_xyz
  x,y,z
_cell_length_a	14.519709
_cell_length_b	27.732048
_cell_length_c	12.996460
_cell_angle_alpha	89.988908
_cell_angle_beta	90.000034
_cell_angle_gamma	83.161400
loop_
_atom_site_label
_atom_site_type_symbol
_atom_site_fract_x
_atom_site_fract_y
_atom_site_fract_z
O1	O	1.222766	0.063362	-0.085445
O2	O	1.722766	0.563362	0.414555
O3	O	0.954160	0.070824	-0.085477
O4	O	1.454160	0.570824	0.414523
O5	O	1.096805	-0.003264	-0.085440
O6	O	1.596805	0.496736	0.414560
O7	O	1.080121	0.137450	-0.085482
O8	O	1.580121	0.637450	0.414518
O9	O	1.096791	-0.003268	0.085693
O10	O	1.596791	0.496732	0.585693
O11	O	0.954145	0.070820	0.085656
O12	O	1.454145	0.570820	0.585656
O13	O	1.222752	0.063358	0.085689
O14	O	1.722752	0.563358	0.585689
Cu15	Cu	1.088447	0.067089	0.101299
Cu16	Cu	1.588447	0.567089	0.601299
Cu17	Cu	1.088464	0.067093	-0.101087
Cu18	Cu	1.588464	0.567093	0.398913
O19	O	1.080106	0.137446	0.085652
O20	O	1.580106	0.637446	0.585652
C21	C	0.919799	0.070474	0.000086
C22	C	1.419799	0.570474	0.500086
C23	C	0.817435	0.069432	0.000074
C24	C	1.317435	0.569432	0.500074
C25	C	0.442606	0.065596	0.000122
C26	C	0.942606	0.565596	0.500122
C27	C	0.546896	0.066661	0.000108
C28	C	1.046896	0.566661	0.500108
C29	C	0.630018	0.067514	0.000097
C30	C	1.130018	0.567514	0.500097
C31	C	0.734314	0.068579	0.000085
C32	C	1.234314	0.568579	0.500085
C33	C	1.096448	-0.021274	0.000129
C34	C	1.596448	0.478726	0.500129
C35	C	1.095393	-0.074934	0.000138
C36	C	1.595393	0.425066	0.500138
C37	C	1.173048	-0.413378	0.000094
C38	C	1.673048	0.086622	0.500094
C39	C	1.169135	-0.615057	0.000080
C40	C	1.669135	-0.115057	0.500080
O41	O	1.240145	-0.645973	0.000043
O42	O	1.740145	-0.145973	0.500043
N43	N	1.084552	-0.634585	0.000070
N44	N	1.584552	-0.134585	0.500070
C45	C	1.000941	-0.603690	0.000058
C46	C	1.500941	-0.103690	0.500058
O47	O	0.928909	-0.624927	0.000039
O48	O	1.428909	-0.124927	0.500039
C49	C	1.004855	-0.402012	0.000065
C50	C	1.504855	0.097988	0.500065
C51	C	1.089444	-0.382487	0.000085
C52	C	1.589444	0.117513	0.500085
C53	C	1.257630	-0.393853	0.000113
C54	C	1.757630	0.106147	0.500113
C55	C	1.258607	-0.343436	0.000122
C56	C	1.758607	0.156564	0.500122
C57	C	1.175003	-0.312545	0.000113
C58	C	1.675003	0.187455	0.500113
C59	C	1.090421	-0.332071	0.000094
C60	C	1.590421	0.167929	0.500094
C61	C	0.921246	-0.371118	0.000045
C62	C	1.421246	0.128882	0.500045
C63	C	0.922232	-0.320696	0.000045
C64	C	1.422232	0.179304	0.500045
C65	C	1.006820	-0.301171	0.000064
C66	C	1.506820	0.198829	0.500064
C67	C	1.007794	-0.250763	0.000094
C68	C	1.507794	0.249237	0.500094
N69	N	1.092377	-0.231235	0.000104
N70	N	1.592377	0.268765	0.500104
C71	C	1.175981	-0.262126	0.000113
C72	C	1.675981	0.237874	0.500113
C73	C	0.998893	-0.709574	0.000056
C74	C	1.498893	-0.209574	0.500056
C75	C	0.997914	-0.759993	0.000056
C76	C	1.497914	-0.259993	0.500056
C77	C	1.166108	-0.771356	0.000076
C78	C	1.666108	-0.271356	0.500076
C79	C	1.167086	-0.720936	0.000083
C80	C	1.667086	-0.220936	0.500083
C81	C	1.083476	-0.690045	0.000065
C82	C	1.583476	-0.190045	0.500065
C83	C	1.178028	-0.156247	0.000133
C84	C	1.678028	0.343753	0.500133
C85	C	1.178998	-0.105825	0.000147
C86	C	1.678998	0.394175	0.500147
C87	C	1.010804	-0.094466	0.000122
C88	C	1.510804	0.405534	0.500122
C89	C	1.009833	-0.144883	0.000114
C90	C	1.509833	0.355117	0.500114
C91	C	1.093453	-0.175773	0.000116
C92	C	1.593453	0.324227	0.500116
O93	O	0.936822	-0.219818	0.000119
O94	O	1.436822	0.280182	0.500119
O95	O	1.248004	-0.240879	0.000109
O96	O	1.748004	0.259121	0.500109
C97	C	1.172071	-0.463795	0.000085
C98	C	1.672071	0.036205	0.500085
C99	C	1.087489	-0.483320	0.000066
C100	C	1.587489	0.016680	0.500066
C101	C	1.003885	-0.452429	0.000057
C102	C	1.503885	0.047571	0.500057
C103	C	1.086510	-0.533740	0.000066
C104	C	1.586510	-0.033740	0.500066
C105	C	1.170115	-0.564631	0.000076
C106	C	1.670115	-0.064631	0.500076
C107	C	1.254698	-0.545103	0.000085
C108	C	1.754698	-0.045103	0.500085
C109	C	1.255675	-0.494686	0.000094
C110	C	1.755675	0.005314	0.500094
C111	C	0.919302	-0.471957	0.000048
C112	C	1.419302	0.028043	0.500048
C113	C	0.918331	-0.522375	0.000039
C114	C	1.418331	-0.022375	0.500039
C115	C	1.001936	-0.553266	0.000049
C116	C	1.501936	-0.053266	0.500049
C117	C	1.257113	0.063708	0.000124
C118	C	1.757113	0.563708	0.500124
C119	C	1.359476	0.064750	0.000129
C120	C	1.859476	0.564750	0.500129
C121	C	1.080464	0.155456	0.000080
C122	C	1.580464	0.655456	0.500080
C123	C	1.081518	0.209116	0.000065
C124	C	1.581518	0.709116	0.500065
N125	N	1.088442	0.067085	0.243646
N126	N	1.588442	0.567085	0.743646
N127	N	1.088477	0.067093	-0.243434
N128	N	1.588477	0.567093	0.256566
C129	C	1.088463	0.067094	0.663460
C130	C	1.588463	0.567094	1.163460
C131	C	1.088454	0.067093	0.546655
C132	C	1.588454	0.567093	1.046655
C133	C	1.088453	0.067090	0.453557
C134	C	1.588453	0.567090	0.953557
C135	C	1.088443	0.067088	0.336744
C136	C	1.588443	0.567088	0.836744
H137	H	1.246119	-0.181392	0.000131
H138	H	1.746119	0.318608	0.500131
H139	H	0.942736	-0.069306	0.000118
H140	H	1.442736	0.430694	0.500118
C141	C	0.822530	-0.421223	0.087979
C142	C	1.322530	0.078777	0.587979
C143	C	0.828263	-0.392572	0.000013
C144	C	1.328263	0.107428	0.500013
H145	H	0.765120	-0.434465	0.087956
H146	H	1.265120	0.065535	0.587956
H147	H	0.872168	-0.446839	0.087983
H148	H	1.372168	0.053161	0.587983
H149	H	0.826399	-0.401794	0.147655
H150	H	1.326399	0.098206	0.647655
H151	H	0.824400	-0.412003	-0.059664
H152	H	1.324400	0.087997	0.440336
H153	H	0.778611	-0.366953	-0.000001
H154	H	1.278611	0.133047	0.499999
C155	C	0.774682	-0.528190	-0.087970
C156	C	1.274682	-0.028190	0.412030
C157	C	0.825343	-0.543833	0.000014
C158	C	1.325343	-0.043833	0.500014
H159	H	0.717280	-0.541439	-0.087994
H160	H	1.217280	-0.041439	0.412006
H161	H	0.763309	-0.493745	-0.087954
H162	H	1.263309	0.006255	0.412046
H163	H	0.809095	-0.538785	-0.147634
H164	H	1.309095	-0.038785	0.352366
H165	H	0.790932	-0.533235	0.059679
H166	H	1.290932	-0.033235	0.559679
H167	H	0.836713	-0.578285	0.000008
H168	H	1.336713	-0.078285	0.500008
H169	H	1.247882	-0.089931	0.000166
H170	H	1.747882	0.410069	0.500166
C171	C	1.424755	-0.359748	0.000131
C172	C	1.924755	0.140252	0.500131
C173	C	1.351590	-0.321979	0.000130
C174	C	1.851590	0.178021	0.500130
H175	H	1.482161	-0.346503	0.000127
H176	H	1.982161	0.153497	0.500127
H177	H	1.420868	-0.379180	0.059805
H178	H	1.920868	0.120820	0.559805
H179	H	1.420863	-0.379172	-0.059552
H180	H	1.920863	0.120828	0.440448
H181	H	1.355479	-0.302557	0.059817
H182	H	1.855479	0.197443	0.559817
H183	H	1.355480	-0.302539	-0.059550
H184	H	1.855480	0.197461	0.440450
H185	H	0.854144	-0.295547	0.000029
H186	H	1.354144	0.204453	0.500029
C187	C	1.354142	-0.457132	-0.087848
C188	C	1.854142	0.042868	0.412152
C189	C	1.349540	-0.427802	0.000124
C190	C	1.849540	0.072198	0.500124
H191	H	1.410892	-0.478086	-0.087837
H192	H	1.910892	0.021914	0.412163
H193	H	1.303645	-0.475983	-0.087849
H194	H	1.803645	0.024017	0.412151
H195	H	1.351026	-0.437217	-0.147521
H196	H	1.851026	0.062783	0.352479
H197	H	1.352650	-0.447717	0.059797
H198	H	1.852650	0.052283	0.559797
H199	H	1.400051	-0.408950	0.000134
H200	H	1.900051	0.091050	0.500134
C201	C	1.351166	-0.608387	-0.087892
C202	C	1.851166	-0.108387	0.412108
C203	C	1.346599	-0.579064	0.000089
C204	C	1.846599	-0.079064	0.500089
H205	H	1.407901	-0.629352	-0.087896
H206	H	1.907901	-0.129352	0.412104
H207	H	1.300651	-0.627226	-0.087891
H208	H	1.800651	-0.127226	0.412109
H209	H	1.348057	-0.588469	-0.147559
H210	H	1.848057	-0.088469	0.352441
H211	H	1.349701	-0.598983	0.059756
H212	H	1.849701	-0.098983	0.559756
H213	H	1.397127	-0.560223	0.000097
H214	H	1.897127	-0.060223	0.500097
C215	C	1.333236	-0.737244	0.000096
C216	C	1.833236	-0.237244	0.500096
C217	C	1.260067	-0.699477	0.000089
C218	C	1.760067	-0.199477	0.500089
H219	H	1.390640	-0.723997	0.000090
H220	H	1.890640	-0.223997	0.500090
H221	H	1.329350	-0.756674	0.059773
H222	H	1.829350	-0.256674	0.559773
H223	H	1.329346	-0.756670	-0.059584
H224	H	1.829346	-0.256670	0.440416
H225	H	1.263953	-0.680053	0.059772
H226	H	1.763953	-0.180053	0.559772
H227	H	1.263955	-0.680038	-0.059595
H228	H	1.763955	-0.180038	0.440405
C229	C	1.239275	-0.853694	0.000060
C230	C	1.739275	-0.353694	0.500060
C231	C	1.258008	-0.805318	0.000071
C232	C	1.758008	-0.305318	0.500071
H233	H	1.296008	-0.874661	0.000044
H234	H	1.796008	-0.374661	0.500044
H235	H	1.204573	-0.859625	0.059737
H236	H	1.704573	-0.359625	0.559737
H237	H	1.204551	-0.859605	-0.059619
H238	H	1.704551	-0.359605	0.440381
H239	H	1.292726	-0.799406	0.059755
H240	H	1.792726	-0.299406	0.559755
H241	H	1.292725	-0.799385	-0.059612
H242	H	1.792725	-0.299385	0.440388
C243	C	0.831763	-0.743683	0.000027
C244	C	1.331763	-0.243683	0.500027
C245	C	0.904932	-0.781451	0.000042
C246	C	1.404932	-0.281451	0.500042
H247	H	0.774359	-0.756931	0.000008
H248	H	1.274359	-0.256931	0.500008
H249	H	0.835639	-0.724262	0.059704
H250	H	1.335639	-0.224262	0.559704
H251	H	0.835662	-0.724249	-0.059652
H252	H	1.335662	-0.224249	0.440348
H253	H	0.901036	-0.800884	0.059726
H254	H	1.401036	-0.300884	0.559726
H255	H	0.901054	-0.800880	-0.059641
H256	H	1.401054	-0.300880	0.440359
H257	H	0.930803	-0.684426	0.000042
H258	H	1.430803	-0.184426	0.500042
H259	H	0.940955	-0.160781	0.000126
H260	H	1.440955	0.339219	0.500126
H261	H	0.851220	-0.446810	0.000038
H262	H	1.351220	0.053190	0.500038
H263	H	1.324556	-0.478794	0.000110
H264	H	1.824556	0.021206	0.500110
