data_functionalizedCrystal
_audit_creation_method	'MofGen! by Chris Wilmer'
_symmetry_space_group_name_H-M	'P1'
_symmetry_Int_Tables_number	1
_symmetry_cell_setting	triclinic
loop_
_symmetry_equiv_pos_as_xyz
  x,y,z
_cell_length_a	13.033915
_cell_length_b	19.077367
_cell_length_c	19.076919
_cell_angle_alpha	85.521998
_cell_angle_beta	85.375209
_cell_angle_gamma	94.600757
loop_
_atom_site_label
_atom_site_type_symbol
_atom_site_fract_x
_atom_site_fract_y
_atom_site_fract_z
Zn1	Zn	-0.370012	-1.094716	-0.322493
Zn2	Zn	-0.535690	-1.114165	-0.189868
Zn3	Zn	-0.370037	-0.981573	-0.209342
Zn4	Zn	-0.550099	-0.992881	-0.311151
O5	O	-0.456460	-1.045834	-0.258214
O6	O	-0.385949	-1.195405	-0.301497
O7	O	-0.507696	-1.099984	-0.094340
O8	O	-0.225340	-0.983710	-0.237249
O9	O	-0.507672	-1.209694	-0.204058
O10	O	-0.225321	-1.066835	-0.320380
O11	O	-0.385992	-1.002569	-0.108648
O12	O	-0.399964	-0.884964	-0.226251
O13	O	-0.532230	-1.002982	-0.410767
O14	O	-0.532255	-0.893272	-0.301049
O15	O	-0.399920	-1.077800	-0.419100
O16	O	-0.682296	-1.110949	-0.193060
O17	O	-0.692882	-1.021841	-0.282166
C18	C	-0.467676	-0.863680	-0.264533
C19	C	-0.472501	-0.785755	-0.267250
C20	C	-0.405795	-0.744789	-0.229666
C21	C	-0.410337	-0.671571	-0.232218
C22	C	-0.481580	-0.639321	-0.272360
C23	C	-0.548293	-0.680293	-0.309945
C24	C	-0.543755	-0.753510	-0.307388
C25	C	-0.502552	-0.420814	-0.284171
C26	C	-0.507083	-0.347591	-0.286726
C27	C	-0.369128	-0.338874	-0.208998
C28	C	-0.364592	-0.412092	-0.206448
C29	C	-0.431308	-0.453059	-0.244031
N30	N	-0.486222	-0.564480	-0.274972
N31	N	-0.426670	-0.527898	-0.241414
C32	C	-0.725106	-1.069751	-0.234284
C33	C	-0.840032	-1.080046	-0.224067
C34	C	-1.015323	-1.051148	-0.253002
C35	C	-0.896542	-1.040511	-0.263566
C36	C	-0.186764	-1.021842	-0.282252
C37	C	-0.071836	-1.011618	-0.292495
C38	C	-0.467680	-1.039483	-0.441084
C39	C	-0.472461	-1.036776	-0.519012
C40	C	-0.445194	-0.228699	-0.251864
C41	C	-0.440377	-0.306624	-0.249142
C42	C	-0.405824	-1.074456	-0.559963
C43	C	-0.410313	-1.071905	-0.633185
C44	C	-0.481445	-1.031676	-0.665456
C45	C	-0.548085	-0.993991	-0.624500
C46	C	-0.543590	-0.996540	-0.551279
C47	C	-0.502270	-1.019874	-0.883977
C48	C	-0.506762	-1.017330	-0.957203
C49	C	-0.368988	-1.095243	-0.965883
C50	C	-0.364504	-1.097791	-0.892660
C51	C	-0.431140	-1.060103	-0.851712
N52	N	-0.486038	-1.029068	-0.740301
N53	N	-0.426542	-1.062707	-0.776869
C54	C	-0.445206	-1.052194	-0.076060
C55	C	-0.440125	-1.055010	0.001847
H56	H	-0.306585	-0.438346	-0.173755
O57	O	-0.345704	-0.631782	-0.195590
C58	C	-0.404347	-0.596248	-0.146490
H59	H	-0.484143	-0.625722	-0.134092
H60	H	-0.412702	-0.540318	-0.169748
C61	C	-0.251320	-0.556970	-0.093416
C62	C	-0.349324	-0.593174	-0.078183
H63	H	-0.217379	-0.555070	-0.051281
H64	H	-0.211810	-0.580907	-0.126496
H65	H	-0.258297	-0.510365	-0.112798
H66	H	-0.342345	-0.639780	-0.058809
H67	H	-0.388832	-0.569244	-0.045097
O68	O	-0.576149	-0.316209	-0.325809
C69	C	-0.522779	-0.267048	-0.377857
H70	H	-0.440263	-0.281715	-0.388764
H71	H	-0.521258	-0.211984	-0.358440
C72	C	-0.679348	-0.249902	-0.432814
C73	C	-0.578003	-0.267919	-0.446214
H74	H	-0.713414	-0.250437	-0.474979
H75	H	-0.715305	-0.283021	-0.397747
H76	H	-0.678066	-0.204017	-0.416631
H77	H	-0.579286	-0.313807	-0.462388
H78	H	-0.542046	-0.234808	-0.481285
H79	H	-0.314812	-0.305512	-0.178400
O80	O	-0.849319	-0.990831	-0.313315
C81	C	-0.787076	-1.023574	-0.362758
H82	H	-0.816483	-1.081529	-0.362345
H83	H	-0.703792	-1.019486	-0.348220
C84	C	-0.755745	-0.915393	-0.437472
C85	C	-0.791869	-0.986574	-0.436969
H86	H	-0.758697	-0.892568	-0.483248
H87	H	-0.797676	-0.893333	-0.404160
H88	H	-0.686345	-0.911997	-0.425353
H89	H	-0.861272	-0.989969	-0.449078
H90	H	-0.749950	-1.008634	-0.470284
H91	H	-0.306583	-1.130551	-0.866391
H92	H	-0.556877	-0.454160	-0.314773
H93	H	-0.556545	-0.989198	-0.850643
O94	O	-0.617408	-0.648851	-0.348928
C95	C	-0.607126	-0.575445	-0.343115
H96	H	-0.526494	-0.559116	-0.327704
H97	H	-0.667365	-0.561414	-0.300981
C98	C	-0.722477	-0.556326	-0.433424
C99	C	-0.623441	-0.536270	-0.414503
H100	H	-0.732545	-0.532160	-0.477458
H101	H	-0.729408	-0.605781	-0.437340
H102	H	-0.772665	-0.544632	-0.398307
H103	H	-0.573256	-0.547971	-0.449615
H104	H	-0.616502	-0.486815	-0.410595
O105	O	-1.062667	-1.100897	-0.203374
C106	C	-1.170725	-1.100425	-0.203857
H107	H	-1.190117	-1.076859	-0.257454
H108	H	-1.201172	-1.067284	-0.160832
C109	C	-1.197619	-1.205458	-0.124276
C110	C	-1.221437	-1.176519	-0.190107
H111	H	-1.228902	-1.252395	-0.115792
H112	H	-1.124818	-1.205775	-0.123948
H113	H	-1.222993	-1.177833	-0.088430
H114	H	-1.196052	-1.204139	-0.225953
H115	H	-1.294235	-1.176209	-0.190441
H116	H	-0.564689	-0.984569	-0.983475
H117	H	-1.032282	-0.969897	-0.334126
H118	H	-0.598074	-0.786864	-0.337993
O119	O	-0.887208	-1.129942	-0.174519
C120	C	-0.949234	-1.179332	-0.207442
H121	H	-0.919723	-1.178716	-0.265408
H122	H	-1.032581	-1.164901	-0.203330
C123	C	-0.980509	-1.254367	-0.099460
C124	C	-0.944258	-1.253614	-0.170654
H125	H	-0.977444	-1.300188	-0.076767
H126	H	-0.938724	-1.221091	-0.077279
H127	H	-1.049962	-1.242338	-0.096044
H128	H	-0.874802	-1.265635	-0.174070
H129	H	-0.986031	-1.286894	-0.192836
O130	O	-0.336633	-1.113545	-0.528735
C131	C	-0.278798	-1.146268	-0.580582
H132	H	-0.280192	-1.115416	-0.634089
H133	H	-0.313861	-1.202612	-0.583152
C134	C	-0.164661	-1.185470	-0.495750
C135	C	-0.166366	-1.147573	-0.561467
H136	H	-0.095309	-1.186278	-0.483958
H137	H	-0.203628	-1.163427	-0.460818
H138	H	-0.193886	-1.232419	-0.497899
H139	H	-0.137153	-1.100622	-0.559314
H140	H	-0.127391	-1.169609	-0.596398
O141	O	-0.617288	-0.955021	-0.655864
C142	C	-0.684199	-0.999401	-0.690896
H143	H	-0.685834	-1.055954	-0.666349
H144	H	-0.655487	-0.997042	-0.749155
C145	C	-0.791857	-0.905210	-0.713776
C146	C	-0.793872	-0.974669	-0.683622
H147	H	-0.859508	-0.889954	-0.709292
H148	H	-0.746776	-0.875310	-0.690176
H149	H	-0.767926	-0.903254	-0.762323
H150	H	-0.817790	-0.976623	-0.635075
H151	H	-0.838960	-1.004570	-0.707213
O152	O	-0.336561	-0.776005	-0.190610
C153	C	-0.278645	-0.724140	-0.157997
H154	H	-0.324074	-0.675808	-0.153578
H155	H	-0.202234	-0.708473	-0.191017
C156	C	-0.201438	-0.813303	-0.089165
C157	C	-0.257238	-0.753943	-0.083732
H158	H	-0.188228	-0.831686	-0.043357
H159	H	-0.240453	-0.848245	-0.111139
H160	H	-0.137768	-0.800238	-0.116685
H161	H	-0.320911	-0.767010	-0.056221
H162	H	-0.218233	-0.719003	-0.061752
O163	O	-0.345470	-1.108393	-0.673005
C164	C	-0.283755	-1.061061	-0.722697
H165	H	-0.279426	-1.006044	-0.703111
H166	H	-0.319263	-1.059560	-0.775429
C167	C	-0.179535	-1.153278	-0.756260
C168	C	-0.174212	-1.085706	-0.732201
H169	H	-0.111966	-1.168481	-0.762125
H170	H	-0.221116	-1.185168	-0.722783
H171	H	-0.209130	-1.152019	-0.800201
H172	H	-0.144630	-1.086969	-0.688257
H173	H	-0.132623	-1.053817	-0.765670
H174	H	-0.314736	-1.125925	-0.999232
H175	H	-0.597843	-0.965848	-0.517939
