data_functionalizedCrystal
_audit_creation_method	'MofGen! by Chris Wilmer'
_symmetry_space_group_name_H-M	'P1'
_symmetry_Int_Tables_number	1
_symmetry_cell_setting	triclinic
loop_
_symmetry_equiv_pos_as_xyz
  x,y,z
_cell_length_a	17.917603
_cell_length_b	14.395555
_cell_length_c	17.917603
_cell_angle_alpha	90.004294
_cell_angle_beta	60.138055
_cell_angle_gamma	63.034021
loop_
_atom_site_label
_atom_site_type_symbol
_atom_site_fract_x
_atom_site_fract_y
_atom_site_fract_z
Zr1	Zr	0.806826	0.947915	-0.129020
O2	O	0.951864	0.814621	-0.249561
O3	O	0.654597	0.982407	-0.087367
O4	O	0.796449	0.999236	-0.242775
O5	O	0.820706	0.791762	0.023088
O6	O	0.796444	1.152110	-0.242768
O7	O	0.810012	0.797792	-0.094154
O8	O	0.542698	1.122005	0.035228
O9	O	1.074452	0.821868	-0.254908
O10	O	0.719871	1.118901	-0.075277
O11	O	0.727856	1.000313	0.012215
O12	O	0.894868	1.020128	-0.170758
O13	O	0.902852	0.901541	-0.083267
Zr14	Zr	0.823874	1.182114	0.057977
Zr15	Zr	0.806818	1.191731	-0.129009
Zr16	Zr	0.823882	0.938299	0.057967
Zr17	Zr	1.002341	0.959472	-0.137548
Zr18	Zr	0.628359	1.170558	0.066505
O19	O	0.976103	1.147623	0.016324
O20	O	0.951852	1.161296	-0.249547
O21	O	0.976114	0.800949	0.016310
O22	O	0.678837	1.315408	0.178519
O23	O	0.654586	1.329081	-0.087352
O24	O	0.678848	0.968734	0.178504
O25	O	0.809994	1.338267	-0.094131
O26	O	0.834251	1.130793	0.171732
O27	O	0.834256	0.977920	0.171726
O28	O	0.820688	1.332238	0.023111
O29	O	1.074446	1.015668	-0.254900
O30	O	0.556254	1.114361	0.183857
O31	O	0.556248	1.308162	0.183866
O32	O	0.542691	1.315805	0.035236
O33	O	1.088009	0.814224	-0.106279
O34	O	1.088003	1.008025	-0.106271
O35	O	0.735833	1.109901	0.099715
O36	O	0.727848	1.228489	0.012224
O37	O	0.902845	1.129716	-0.083257
O38	O	0.910829	1.011129	0.004234
C39	C	0.570791	1.050559	-0.024854
C40	C	0.487790	1.045653	-0.021234
C41	C	0.815360	0.760039	-0.035534
C42	C	0.815363	0.656533	-0.035539
C43	C	0.335823	1.036689	-0.014623
C44	C	0.294872	1.093337	-0.056417
C45	C	0.210313	1.088350	-0.052739
C46	C	0.420390	1.041675	-0.018301
C47	C	0.910780	0.542088	-0.087592
C48	C	0.857753	0.510082	-0.119986
C49	C	0.868386	0.504115	-0.003150
C50	C	0.762331	0.625893	-0.067981
C51	C	0.772983	0.619921	0.048900
C52	C	0.719885	0.587983	0.016529
C53	C	1.059909	1.079470	-0.046188
C54	C	1.142911	1.084376	-0.049808
C55	C	0.794017	1.077043	-0.269413
C56	C	0.786776	1.081125	-0.348794
C57	C	0.815340	1.369991	-0.035508
C58	C	0.815337	1.473497	-0.035504
C59	C	0.773551	1.088606	-0.494148
C60	C	0.857145	1.041426	-0.576897
C61	C	0.849787	1.045588	-0.657777
C62	C	0.780907	1.084445	-0.413259
C63	C	0.836684	1.052986	0.198370
C64	C	0.843924	1.048904	0.277751
C65	C	0.570781	1.355535	-0.024842
C66	C	0.487776	1.454135	-0.021217
C67	C	0.592124	1.038531	0.209037
C68	C	0.516364	1.029542	0.292038
C69	C	0.592114	1.343507	0.209050
C70	C	0.516350	1.438024	0.292056
C71	C	1.038586	0.786523	-0.280093
C72	C	1.114350	0.692005	-0.363098
C73	C	1.059919	0.774494	-0.046201
C74	C	1.142924	0.675894	-0.049826
C75	C	1.038576	1.091499	-0.280080
C76	C	1.114337	1.100487	-0.363081
C77	C	0.444632	1.443235	-0.065197
C78	C	0.366650	1.535872	-0.061809
C79	C	0.331808	1.639408	-0.014436
C80	C	0.374960	1.650306	0.029546
C81	C	0.452946	1.557670	0.026152
C82	C	0.484950	1.082525	0.376699
C83	C	0.413776	1.074075	0.454694
C84	C	0.374012	1.012649	0.448026
C85	C	0.405432	0.959660	0.363357
C86	C	0.476610	0.968104	0.285364
C87	C	0.476603	1.544323	0.285366
C88	C	0.405425	1.633142	0.363351
C89	C	0.373990	1.615661	0.448024
C90	C	0.413745	1.509352	0.454712
C91	C	0.484927	1.420535	0.376728
C92	C	1.154107	0.585707	-0.356409
C93	C	1.225309	0.496889	-0.434395
C94	C	1.256748	0.514370	-0.519069
C95	C	1.216988	0.620679	-0.525756
C96	C	1.145792	0.709495	-0.447771
C97	C	1.186076	0.686795	-0.005854
C98	C	1.264078	0.594160	-0.009263
C99	C	1.298922	0.490625	-0.056640
C100	C	1.255766	0.479726	-0.100617
C101	C	1.177770	0.572361	-0.097213
C102	C	1.154079	1.161922	-0.356385
C103	C	1.225254	1.170389	-0.434365
C104	C	1.256692	1.117414	-0.519041
C105	C	1.216942	1.055976	-0.525736
C106	C	1.145763	1.047517	-0.447756
H107	H	0.323320	1.145580	-0.094962
H108	H	1.157713	0.771090	0.032731
H109	H	0.388203	1.117230	0.523627
H110	H	1.242550	1.012847	-0.594690
F111	F	0.481701	1.333054	-0.115624
F112	F	0.380279	1.490764	0.544835
F113	F	0.527217	1.307406	0.383861
F114	F	0.672789	1.145477	-0.480948
H115	H	0.307379	0.984449	0.023917
F116	F	1.016229	0.518070	-0.145206
H117	H	1.128494	1.205062	-0.287444
F118	F	1.120658	0.567078	-0.266301
F119	F	0.248806	1.737991	-0.010831
H120	H	1.257612	1.220415	-0.428897
H121	H	0.373063	1.719696	0.357890
F122	F	1.332451	1.126425	-0.602028
H123	H	0.717523	0.678268	-0.095441
F124	F	0.320735	1.524251	-0.108620
F125	F	1.250456	0.639267	-0.615879
H126	H	0.934239	0.997906	-0.586996
H127	H	1.314721	0.442041	-0.582562
F128	F	0.337866	1.760505	0.079964
H129	H	0.639133	0.606575	0.060556
F130	F	1.103480	0.982118	-0.454897
F131	F	0.904572	0.448061	-0.213302
F132	F	0.927006	0.435475	0.032635
H133	H	1.362431	0.415205	-0.059405
F134	F	0.510050	1.562952	0.195258
H135	H	0.488065	1.566560	0.061972
F136	F	0.726208	0.681943	0.142196
H137	H	0.517319	1.132544	0.382145
H138	H	0.316055	1.005782	0.511540
F139	F	0.363102	0.894289	0.356275
H140	H	0.502177	0.924962	0.216432
F141	F	1.131847	0.560742	-0.144012
F142	F	0.298229	1.710200	0.531015
F143	F	1.103481	0.822624	-0.454903
H144	H	1.257670	0.410336	-0.428933
H145	H	1.299203	0.603055	0.026553
H146	H	1.284148	0.395416	-0.139190
