data_functionalizedCrystal
_audit_creation_method	'MofGen! by Chris Wilmer'
_symmetry_space_group_name_H-M	'P1'
_symmetry_Int_Tables_number	1
_symmetry_cell_setting	triclinic
loop_
_symmetry_equiv_pos_as_xyz
  x,y,z
_cell_length_a	6.817900
_cell_length_b	17.982959
_cell_length_c	10.943624
_cell_angle_alpha	94.170339
_cell_angle_beta	108.838799
_cell_angle_gamma	102.451857
loop_
_atom_site_label
_atom_site_type_symbol
_atom_site_fract_x
_atom_site_fract_y
_atom_site_fract_z
V1	V	-4.083161	-0.105393	-0.403090
O2	O	-4.074764	0.005085	-0.394862
O3	O	-4.029326	-0.208995	-0.400867
O4	O	-4.061624	-0.103762	-0.578648
O5	O	-4.042243	-0.100876	-0.215850
V6	V	-4.564012	-0.092179	-0.380630
O7	O	-4.350280	-0.134377	-0.452359
O8	O	-4.747091	-0.063195	-0.331362
O9	O	-4.394641	0.011424	-0.382853
O10	O	-4.689806	-0.202657	-0.388858
O11	O	-4.722327	-0.096695	-0.567870
O12	O	-4.362343	-0.093809	-0.205072
C13	C	-3.872136	-0.234252	-0.394646
C14	C	-3.909586	-0.318949	-0.393998
C15	C	-4.110085	-0.362619	-0.400154
C16	C	-4.145265	-0.442201	-0.399553
C17	C	-3.979938	-0.478110	-0.392787
C18	C	-3.779424	-0.434434	-0.386635
C19	C	-3.744252	-0.354854	-0.387245
C20	C	-3.921268	-0.755370	-0.384176
C21	C	-3.956456	-0.834955	-0.383562
C22	C	-4.322281	-0.842717	-0.396483
C23	C	-4.287109	-0.763137	-0.397093
C24	C	-4.086603	-0.719468	-0.390948
C25	C	-4.048460	-0.633177	-0.391602
C26	C	-4.018073	-0.564399	-0.392124
C27	C	-3.913333	-0.100016	-0.621422
C28	C	-3.976972	-0.099368	-0.764945
C29	C	-3.823139	-0.095009	-0.842070
C30	C	-3.992647	-0.159712	-0.948391
C31	C	-3.920881	-0.033519	-0.914359
C32	C	-4.145672	-0.164132	-0.869390
C33	C	-4.073843	-0.037882	-0.835334
C34	C	-4.243482	-0.102603	-0.941625
C35	C	-4.215172	0.036676	-0.389071
C36	C	-4.156962	0.121372	-0.389727
C37	C	-4.173975	-0.097559	-0.162292
C38	C	-4.089575	-0.098202	-0.018767
H39	H	-3.821819	-0.864190	-0.378061
F40	F	-3.603475	-0.472653	-0.379442
H41	H	-3.758005	-0.719823	-0.379164
H42	H	-3.580989	-0.319298	-0.382238
F43	F	-4.286053	-0.324409	-0.407349
F44	F	-4.463067	-0.724923	-0.404279
H45	H	-3.644897	-0.091885	-0.798606
F46	F	-4.535685	-0.889199	-0.403028
H47	H	-4.107423	0.013626	-0.786087
H48	H	-3.958983	-0.211217	-0.997603
H49	H	-4.308529	-0.477755	-0.404567
H50	H	-3.826463	0.021668	-0.934839
H51	H	-4.240100	-0.219393	-0.849128
H52	H	-4.421806	-0.105829	-0.984886
