data_functionalizedCrystal
_audit_creation_method	'MofGen! by Chris Wilmer'
_symmetry_space_group_name_H-M	'P1'
_symmetry_Int_Tables_number	1
_symmetry_cell_setting	triclinic
loop_
_symmetry_equiv_pos_as_xyz
  x,y,z
_cell_length_a	15.944486
_cell_length_b	10.540539
_cell_length_c	9.016244
_cell_angle_alpha	90.000067
_cell_angle_beta	90.010839
_cell_angle_gamma	83.998952
loop_
_atom_site_label
_atom_site_type_symbol
_atom_site_fract_x
_atom_site_fract_y
_atom_site_fract_z
O1	O	-1.115535	-0.163317	-0.123454
O2	O	-0.871099	-0.183586	-0.123429
O3	O	-0.998894	0.011333	-0.123440
O4	O	-0.987741	-0.358236	-0.123443
O5	O	-0.998875	0.011328	0.123241
O6	O	-0.871080	-0.183591	0.123251
O7	O	-1.115517	-0.163322	0.123227
Cu8	Cu	-0.993297	-0.173457	0.145763
Cu9	Cu	-0.993319	-0.173451	-0.145965
O10	O	-0.987722	-0.358241	0.123238
C11	C	-0.839790	-0.182762	-0.000086
C12	C	-0.746526	-0.180282	-0.000077
C13	C	-0.455664	-0.293540	-0.000092
C14	C	-0.516352	-0.234670	-0.121722
C15	C	-0.410834	-0.171274	-0.000102
C16	C	-0.516319	-0.234641	0.121486
C17	C	-0.575770	-0.175707	-0.000087
C18	C	-0.470294	-0.112370	-0.121833
C19	C	-0.470254	-0.112359	0.121485
C20	C	-0.530924	-0.053399	-0.000175
C21	C	-0.315818	-0.168724	-0.000111
C22	C	-0.670785	-0.178247	-0.000088
C23	C	-0.146824	-0.164164	-0.000112
C24	C	-0.240084	-0.166695	-0.000110
C25	C	-0.998048	0.058622	-0.000102
C26	C	-0.995546	0.199535	-0.000110
C27	C	-0.988568	-0.405530	-0.000103
C28	C	-0.991070	-0.546443	-0.000105
C29	C	-0.899656	0.381623	-0.000654
C30	C	-0.902192	0.235040	-0.000099
C31	C	-1.040461	0.261817	0.140752
C32	C	-1.037275	0.408317	0.140871
C33	C	-1.039195	0.408867	-0.139651
C34	C	-1.040055	0.261897	-0.141514
N35	N	-0.993287	-0.173460	0.350949
N36	N	-0.993335	-0.173438	-0.351151
C37	C	-0.924716	-0.277385	0.585988
C38	C	-0.924867	-0.277768	0.414097
C39	C	-1.081108	-0.202367	0.413279
C40	C	-1.080734	-0.203101	0.585224
C41	C	-0.974910	-0.040278	0.585496
C42	C	-0.972895	-0.041171	0.413542
H43	H	-0.866850	0.191945	-0.101075
H44	H	-0.563496	0.048165	-0.000240
C45	C	-1.102488	-0.334304	0.639382
N46	N	-1.118867	-0.433134	0.680167
C47	C	-0.849840	0.419580	-0.137110
N48	N	-0.812317	0.448182	-0.239889
H49	H	-0.449822	-0.060690	0.224317
H50	H	-1.008989	0.440000	-0.246416
C51	C	-0.940873	-0.411267	0.358500
N52	N	-0.952934	-0.511822	0.316626
C53	C	-1.127973	0.474390	0.149519
N54	N	-1.196285	0.524151	0.156042
C55	C	-0.411446	-0.430621	-0.000255
N56	N	-0.378140	-0.533867	-0.000386
C57	C	-0.850038	0.421696	0.135088
N58	N	-0.812672	0.451868	0.237342
H59	H	-0.536766	-0.286386	-0.224545
H60	H	-1.004064	0.436051	0.246175
H61	H	-0.536695	-0.286377	0.224309
H62	H	-1.106623	0.457035	-0.140605
C63	C	-1.133071	0.232887	0.147843
N64	N	-1.202824	0.211085	0.153188
H65	H	-0.936406	-0.375645	0.629179
H66	H	-0.450014	-0.060703	-0.224775
H67	H	-0.866587	0.192785	0.101051
H68	H	-1.007191	0.220582	-0.245720
C69	C	-0.836708	-0.254528	0.357167
N70	N	-0.770302	-0.237031	0.314295
C71	C	-1.132008	0.230471	-0.153011
N72	N	-1.201271	0.206805	-0.161656
H73	H	-1.009245	0.218780	0.245584
H74	H	-1.133432	-0.130376	0.626802
H75	H	-0.859258	-0.260446	0.627388
H76	H	-1.133418	-0.128673	0.372370
H77	H	-0.912223	-0.012474	0.628950
H78	H	-1.097583	-0.298374	0.370198
H79	H	-0.908289	-0.019232	0.372807
H80	H	-1.019562	0.039802	0.370562
C81	C	-1.042495	0.064225	0.640420
N82	N	-1.093401	0.142927	0.681799
