data_functionalizedCrystal
_audit_creation_method	'MofGen! by Chris Wilmer'
_symmetry_space_group_name_H-M	'P1'
_symmetry_Int_Tables_number	1
_symmetry_cell_setting	triclinic
loop_
_symmetry_equiv_pos_as_xyz
  x,y,z
_cell_length_a	14.519709
_cell_length_b	9.016244
_cell_length_c	14.519731
_cell_angle_alpha	90.003217
_cell_angle_beta	83.684499
_cell_angle_gamma	90.001728
loop_
_atom_site_label
_atom_site_type_symbol
_atom_site_fract_x
_atom_site_fract_y
_atom_site_fract_z
O1	O	1.223881	0.123151	0.120886
O2	O	1.723881	0.623151	0.620886
O3	O	0.955405	0.123196	0.135123
O4	O	1.455405	0.623196	0.635123
O5	O	1.096751	0.123159	-0.006233
O6	O	1.596751	0.623159	0.493767
O7	O	1.082535	0.123188	0.262242
O8	O	1.582535	0.623188	0.762242
O9	O	1.096730	-0.123522	-0.006229
O10	O	1.596730	0.376478	0.493771
O11	O	0.955384	-0.123484	0.135126
O12	O	1.455384	0.376516	0.635126
O13	O	1.223860	-0.123530	0.120889
O14	O	1.723860	0.376470	0.620889
Cu15	Cu	1.089620	-0.146031	0.128008
Cu16	Cu	1.589620	0.353969	0.628008
Cu17	Cu	1.089645	0.145697	0.128004
Cu18	Cu	1.589645	0.645697	0.628004
O19	O	1.082514	-0.123493	0.262245
O20	O	1.582514	0.376507	0.762245
C21	C	0.921035	-0.000138	0.134461
C22	C	1.421035	0.499862	0.634461
C23	C	0.818654	-0.000121	0.132473
C24	C	1.318654	0.499879	0.632473
N25	N	1.089610	-0.351217	0.128010
N26	N	1.589610	0.148783	0.628010
C27	C	0.443757	-0.000190	0.125153
C28	C	0.943757	0.499810	0.625153
C29	C	0.548065	-0.000170	0.127186
C30	C	1.048065	0.499830	0.627186
C31	C	0.631202	-0.000154	0.128813
C32	C	1.131202	0.499846	0.628813
C33	C	0.735517	-0.000137	0.130846
C34	C	1.235517	0.499863	0.630846
C35	C	1.013771	-0.586230	0.203376
C36	C	1.513771	-0.086230	0.703376
C37	C	1.013935	-0.414339	0.203655
C38	C	1.513935	0.085661	0.703655
C39	C	1.185875	-0.413570	0.149187
C40	C	1.685875	0.086430	0.649187
C41	C	1.185460	-0.585514	0.149720
C42	C	1.685460	-0.085514	0.649720
C43	C	1.070143	-0.585767	0.031215
C44	C	1.570143	-0.085767	0.531215
C45	C	1.067926	-0.413813	0.031860
C46	C	1.567926	0.086187	0.531860
C47	C	1.258230	-0.000192	0.121551
C48	C	1.758230	0.499808	0.621551
C49	C	1.360612	-0.000200	0.123539
C50	C	1.860612	0.499800	0.623539
C51	C	1.096075	-0.000182	-0.040591
C52	C	1.596075	0.499818	0.459409
C53	C	1.094079	-0.000182	-0.142971
C54	C	1.594079	0.499818	0.357029
N55	N	1.089663	0.350883	0.127995
N56	N	1.589663	0.850883	0.627995
C57	C	1.092457	-0.000179	-0.226115
C58	C	1.592457	0.499821	0.273885
C59	C	1.090430	-0.000167	-0.330424
C60	C	1.590430	0.499833	0.169576
C61	C	1.088822	-0.000157	-0.413563
C62	C	1.588822	0.499843	0.086437
C63	C	1.086795	-0.000148	-0.517878
C64	C	1.586795	0.499852	-0.017878
C65	C	1.083191	-0.000149	0.296603
C66	C	1.583191	0.499851	0.796603
C67	C	1.085187	-0.000138	0.398983
C68	C	1.585187	0.499862	0.898983
H69	H	0.942385	-0.372184	0.191013
H70	H	1.442385	0.127816	0.691013
H71	H	1.243706	-0.627112	0.096990
H72	H	1.743706	-0.127112	0.596990
H73	H	1.026412	-0.373187	0.275472
H74	H	1.526412	0.126813	0.775472
C75	C	1.208645	-0.639671	0.245085
C76	C	1.708645	-0.139671	0.745085
N77	N	1.226100	-0.680454	0.316918
N78	N	1.726100	-0.180454	0.816918
H79	H	1.243699	-0.372680	0.095752
H80	H	1.743699	0.127320	0.595752
C81	C	1.209615	-0.355389	0.243469
C82	C	1.709615	0.144611	0.743469
N83	N	1.227488	-0.311575	0.314487
N84	N	1.727488	0.188425	0.814487
C85	C	0.916804	-0.642170	0.186592
C86	C	1.416804	-0.142170	0.686592
N87	N	0.843768	-0.684324	0.173953
N88	N	1.343768	-0.184324	0.673953
C89	C	0.977345	-0.644396	0.003776
C90	C	1.477345	-0.144396	0.503776
N91	N	0.907444	-0.688554	-0.016881
N92	N	1.407444	-0.188554	0.483119
H93	H	0.997112	-0.373061	0.015792
H94	H	1.497112	0.126939	0.515792
C95	C	1.137742	-0.355806	-0.047488
C96	C	1.637742	0.144194	0.452512
N97	N	1.190340	-0.312128	-0.107249
N98	N	1.690340	0.187872	0.392751
C99	C	1.030399	-0.644572	0.299850
C100	C	1.530399	-0.144572	0.799850
N101	N	1.042927	-0.688517	0.372514
N102	N	1.542927	-0.188517	0.872514
C103	C	1.144903	-0.640717	-0.044572
C104	C	1.644903	-0.140717	0.455428
N105	N	1.201213	-0.682115	-0.101648
N106	N	1.701213	-0.182115	0.398352
