data_functionalizedCrystal
_audit_creation_method	'MofGen! by Chris Wilmer'
_symmetry_space_group_name_H-M	'P1'
_symmetry_Int_Tables_number	1
_symmetry_cell_setting	triclinic
loop_
_symmetry_equiv_pos_as_xyz
  x,y,z
_cell_length_a	11.026607
_cell_length_b	11.026660
_cell_length_c	9.730223
_cell_angle_alpha	89.999666
_cell_angle_beta	89.999947
_cell_angle_gamma	108.585426
loop_
_atom_site_label
_atom_site_type_symbol
_atom_site_fract_x
_atom_site_fract_y
_atom_site_fract_z
O1	O	0.533598	1.726710	-0.114291
O2	O	0.472838	1.360134	-0.114292
O3	O	0.319928	1.513040	-0.114287
O4	O	0.686508	1.573804	-0.114297
O5	O	0.319933	1.513039	0.114293
O6	O	0.472843	1.360132	0.114288
O7	O	0.533602	1.726709	0.114289
Zn8	Zn	0.503223	1.543421	0.150580
Zn9	Zn	0.503217	1.543422	-0.150584
O10	O	0.686512	1.573802	0.114283
C11	C	0.461631	1.312474	-0.000002
C12	C	0.428216	1.170461	-0.000003
C13	C	0.272271	1.501830	0.000002
C14	C	0.130257	1.468414	-0.000003
C15	C	0.485957	0.970035	-0.000009
C16	C	0.520496	1.116813	-0.000007
C17	C	0.076607	1.560682	-0.000005
C18	C	-0.070171	1.526147	-0.000010
C19	C	0.734169	1.585013	-0.000008
C20	C	0.876183	1.618429	-0.000012
C21	C	0.544809	1.774369	-0.000004
C22	C	0.578225	1.916382	-0.000012
N23	N	0.503228	1.543429	0.356117
N24	N	0.503204	1.543422	-0.356120
C25	C	0.435554	1.611164	0.428045
C26	C	0.435538	1.611158	0.571928
C27	C	0.570881	1.475678	0.571941
C28	C	0.570889	1.475678	0.428061
C29	C	0.357419	1.689387	0.428039
C30	C	0.357403	1.689380	0.571922
H31	H	0.381394	0.907305	0.000014
H32	H	0.625067	1.179538	-0.000001
C33	C	0.135269	1.762605	0.117489
C34	C	0.161273	1.701845	-0.000010
H35	H	0.187531	1.849757	0.117476
H36	H	0.152906	1.721381	0.197186
H37	H	0.047735	1.757901	0.117475
H38	H	0.248806	1.706541	0.000009
H39	H	0.143646	1.743081	-0.079728
H40	H	0.323645	1.107737	-0.000092
C41	C	-0.065159	1.820352	0.117493
C42	C	-0.039152	1.759598	-0.000009
H43	H	-0.012895	1.907503	0.117488
H44	H	-0.047527	1.779121	0.197188
H45	H	-0.152693	1.815650	0.117477
H46	H	0.048379	1.764291	0.000013
H47	H	-0.056775	1.800840	-0.079725
H48	H	0.682788	0.979112	-0.000006
H49	H	0.625981	1.420509	0.369498
C50	C	0.414517	1.827483	0.768560
C51	C	0.414549	1.827509	0.624654
H52	H	0.449789	1.912755	0.801112
H53	H	0.464496	1.777446	0.801094
H54	H	0.329235	1.792247	0.801068
H55	H	0.499832	1.862736	0.592146
H56	H	0.364570	1.877564	0.592107
C57	C	-0.083431	1.320365	-0.000008
C58	C	0.045584	1.327253	-0.000005
H59	H	-0.135700	1.233215	-0.000001
H60	H	-0.101045	1.361590	-0.079715
H61	H	-0.101046	1.361600	0.079707
H62	H	0.063202	1.286026	-0.079725
H63	H	0.063205	1.286010	0.079711
H64	H	-0.132899	1.421578	-0.000020
H65	H	0.625967	1.420516	0.630534
H66	H	0.255087	1.647125	0.388987
C67	C	0.528856	1.818081	0.286856
C68	C	0.425482	1.822842	0.367811
H69	H	0.570895	1.900474	0.249690
H70	H	0.498543	1.758643	0.214147
H71	H	0.587247	1.791918	0.341838
H72	H	0.367086	1.848996	0.312827
H73	H	0.455794	1.882300	0.440530
H74	H	0.258519	1.639062	0.616539
