data_functionalizedCrystal
_audit_creation_method	'MofGen! by Chris Wilmer'
_symmetry_space_group_name_H-M	'P1'
_symmetry_Int_Tables_number	1
_symmetry_cell_setting	triclinic
loop_
_symmetry_equiv_pos_as_xyz
  x,y,z
_cell_length_a	16.120490
_cell_length_b	16.120297
_cell_length_c	16.120484
_cell_angle_alpha	95.614431
_cell_angle_beta	90.164100
_cell_angle_gamma	90.129683
loop_
_atom_site_label
_atom_site_type_symbol
_atom_site_fract_x
_atom_site_fract_y
_atom_site_fract_z
Zn1	Zn	1.224990	-0.554787	-0.422331
Zn2	Zn	1.474990	-0.304787	-0.172331
Zn3	Zn	1.724990	-0.054787	0.077669
Zn4	Zn	1.974990	0.195213	0.327669
Zn5	Zn	1.224886	-0.422092	-0.555015
Zn6	Zn	1.474886	-0.172092	-0.305015
Zn7	Zn	1.724886	0.077908	-0.055015
Zn8	Zn	1.974886	0.327908	0.194985
Zn9	Zn	1.093729	-0.408032	-0.408239
Zn10	Zn	1.343729	-0.158032	-0.158239
Zn11	Zn	1.593729	0.091968	0.091761
Zn12	Zn	1.843729	0.341968	0.341761
Zn13	Zn	1.078882	-0.554027	-0.554239
Zn14	Zn	1.328882	-0.304027	-0.304239
Zn15	Zn	1.578882	-0.054027	-0.054239
Zn16	Zn	1.828882	0.195973	0.195761
O17	O	1.155622	-0.484735	-0.484956
O18	O	1.405622	-0.234735	-0.234956
O19	O	1.655622	0.015265	0.015044
O20	O	1.905622	0.265265	0.265044
O21	O	1.341012	-0.543386	-0.446153
O22	O	1.591012	-0.293386	-0.196153
O23	O	1.841012	-0.043386	0.053847
O24	O	2.091012	0.206614	0.303847
O25	O	1.213657	-0.303594	-0.529972
O26	O	1.463657	-0.053594	-0.279972
O27	O	1.713657	0.196406	-0.029972
O28	O	1.963657	0.446406	0.220028
O29	O	1.117398	-0.421933	-0.293478
O30	O	1.367398	-0.171933	-0.043478
O31	O	1.617398	0.078067	0.206522
O32	O	1.867398	0.328067	0.456522
O33	O	1.340936	-0.445896	-0.543636
O34	O	1.590936	-0.195896	-0.293636
O35	O	1.840936	0.054104	-0.043636
O36	O	2.090936	0.304104	0.206364
O37	O	1.213835	-0.529753	-0.303831
O38	O	1.463835	-0.279753	-0.053831
O39	O	1.713835	-0.029753	0.196169
O40	O	1.963835	0.220247	0.446169
O41	O	1.117297	-0.293264	-0.422137
O42	O	1.367297	-0.043264	-0.172137
O43	O	1.617297	0.206736	0.077863
O44	O	1.867297	0.456736	0.327863
O45	O	0.975724	-0.421197	-0.421385
O46	O	1.225724	-0.171197	-0.171385
O47	O	1.475724	0.078803	0.078615
O48	O	1.725724	0.328803	0.328615
O49	O	1.092094	-0.670761	-0.542314
O50	O	1.342094	-0.420761	-0.292314
O51	O	1.592094	-0.170761	-0.042314
O52	O	1.842094	0.079239	0.207686
O53	O	0.964816	-0.528459	-0.528650
O54	O	1.214816	-0.278459	-0.278650
O55	O	1.464816	-0.028459	-0.028650
O56	O	1.714816	0.221541	0.221350
O57	O	1.199439	-0.671319	-0.445401
O58	O	1.449439	-0.421319	-0.195401
O59	O	1.699439	-0.171319	0.054599
O60	O	1.949439	0.078681	0.304599
O61	O	1.199261	-0.445159	-0.671542
O62	O	1.449261	-0.195159	-0.421542
O63	O	1.699261	0.054841	-0.171542
O64	O	1.949261	0.304841	0.078458
O65	O	1.091993	-0.542092	-0.670972
O66	O	1.341993	-0.292092	-0.420972
O67	O	1.591993	-0.042092	-0.170972
O68	O	1.841993	0.207908	0.079028
C69	C	0.940183	-0.473221	-0.473405
C70	C	1.190183	-0.223221	-0.223405
C71	C	1.440183	0.026779	0.026595
C72	C	1.690183	0.276779	0.276595
C73	C	0.848015	-0.468316	-0.468484
C74	C	1.098015	-0.218316	-0.218484
C75	C	1.348015	0.031684	0.031516
C76	C	1.598015	0.281684	0.281516
C77	C	0.632820	-0.510179	-0.510474
C78	C	0.882820	-0.260179	-0.260474
C79	C	1.132820	-0.010179	-0.010474
C80	C	1.382820	0.239821	0.239526
C81	C	0.679267	-0.459359	-0.459508
C82	C	0.929267	-0.209359	-0.209508
C83	C	1.179267	0.040641	0.040492
C84	C	1.429267	0.290641	0.290492
C85	C	0.773167	-0.464344	-0.464504
C86	C	1.023167	-0.214344	-0.214504
C87	C	1.273167	0.035656	0.035496
C88	C	1.523167	0.285656	0.285496
C89	C	0.538912	-0.505195	-0.505479
C90	C	0.788912	-0.255195	-0.255479
C91	C	1.038912	-0.005195	-0.005479
C92	C	1.288912	0.244805	0.244521
C93	C	1.144122	-0.702127	-0.495343
C94	C	1.394122	-0.452127	-0.245343
C95	C	1.644122	-0.202127	0.004657
C96	C	1.894122	0.047873	0.254657
C97	C	1.139222	-0.794767	-0.499770
C98	C	1.389222	-0.544767	-0.249770
C99	C	1.639222	-0.294767	0.000230
C100	C	1.889222	-0.044767	0.250230
C101	C	1.130245	-0.964378	-0.507831
C102	C	1.380245	-0.714378	-0.257831
C103	C	1.630245	-0.464378	-0.007831
C104	C	1.880245	-0.214378	0.242169
C105	C	1.181175	-1.005939	-0.461840
C106	C	1.431175	-0.755939	-0.211840
C107	C	1.681175	-0.505939	0.038160
C108	C	1.931175	-0.255939	0.288160
C109	C	1.176180	-1.100317	-0.466326
C110	C	1.426180	-0.850317	-0.216326
C111	C	1.676180	-0.600317	0.033674
C112	C	1.926180	-0.350317	0.283674
C113	C	1.135239	-0.869992	-0.503346
C114	C	1.385239	-0.619992	-0.253346
C115	C	1.635239	-0.369992	-0.003346
C116	C	1.885239	-0.119992	0.246654
C117	C	1.371902	-0.496294	-0.496553
C118	C	1.621902	-0.246294	-0.246553
C119	C	1.871902	0.003706	0.003447
C120	C	2.121902	0.253706	0.253447
C121	C	1.464068	-0.501220	-0.501495
C122	C	1.714068	-0.251220	-0.251495
C123	C	1.964068	-0.001220	-0.001495
C124	C	2.214068	0.248780	0.248505
C125	C	1.144026	-0.495088	-0.701500
C126	C	1.394026	-0.245088	-0.451500
C127	C	1.644026	0.004912	-0.201500
C128	C	1.894026	0.254912	0.048500
C129	C	1.139140	-0.499550	-0.794144
C130	C	1.389140	-0.249550	-0.544144
C131	C	1.639140	0.000450	-0.294144
C132	C	1.889140	0.250450	-0.044144
C133	C	1.167128	-0.268187	-0.474552
C134	C	1.417128	-0.018187	-0.224552
C135	C	1.667128	0.231813	0.025448
C136	C	1.917128	0.481813	0.275448
C137	C	1.172201	-0.175545	-0.469899
C138	C	1.422201	0.074455	-0.219899
C139	C	1.672201	0.324455	0.030101
C140	C	1.922201	0.574455	0.280101
C141	C	1.130223	-0.507712	-0.963767
C142	C	1.380223	-0.257712	-0.713767
C143	C	1.630223	-0.007712	-0.463767
C144	C	1.880223	0.242288	-0.213767
C145	C	1.181169	-0.461779	-1.005313
C146	C	1.431169	-0.211779	-0.755313
C147	C	1.681169	0.038221	-0.505313
C148	C	1.931169	0.288221	-0.255313
C149	C	1.176207	-0.466320	-1.099697
C150	C	1.426207	-0.216320	-0.849697
C151	C	1.676207	0.033680	-0.599697
C152	C	1.926207	0.283680	-0.349697
C153	C	1.135183	-0.503171	-0.869375
C154	C	1.385183	-0.253171	-0.619375
C155	C	1.635183	-0.003171	-0.369375
C156	C	1.885183	0.246829	-0.119375
C157	C	1.167284	-0.474360	-0.267568
C158	C	1.417284	-0.224360	-0.017568
C159	C	1.667284	0.025640	0.232432
C160	C	1.917284	0.275640	0.482432
C161	C	1.172254	-0.469939	-0.174931
C162	C	1.422254	-0.219939	0.075069
C163	C	1.672254	0.030061	0.325069
C164	C	1.922254	0.280061	0.575069
H165	H	1.228527	-0.970641	-0.419097
H166	H	1.478527	-0.720641	-0.169097
H167	H	1.728527	-0.470641	0.080903
H168	H	1.978527	-0.220641	0.330903
H169	H	0.663575	-0.557426	-0.557856
H170	H	0.913575	-0.307426	-0.307856
H171	H	1.163575	-0.057426	-0.057856
H172	H	1.413575	0.192574	0.192144
O173	O	1.073872	-1.006529	-0.558921
O174	O	1.323872	-0.756529	-0.308921
O175	O	1.573872	-0.506529	-0.058921
O176	O	1.823872	-0.256529	0.191079
C177	C	1.115591	-1.062005	-0.617609
C178	C	1.365591	-0.812005	-0.367609
C179	C	1.615591	-0.562005	-0.117609
C180	C	1.865591	-0.312005	0.132391
H181	H	1.181985	-1.039447	-0.625028
H182	H	1.431985	-0.789447	-0.375028
H183	H	1.681985	-0.539447	-0.125028
H184	H	1.931985	-0.289447	0.124972
H185	H	1.082110	-1.064567	-0.680197
H186	H	1.332110	-0.814567	-0.430197
H187	H	1.582110	-0.564567	-0.180197
H188	H	1.832110	-0.314567	0.069803
H189	H	1.116414	-1.126859	-0.595061
H190	H	1.366414	-0.876859	-0.345061
H191	H	1.616414	-0.626859	-0.095061
H192	H	1.866414	-0.376859	0.154939
H193	H	0.648511	-0.412108	-0.412123
H194	H	0.898511	-0.162108	-0.162123
H195	H	1.148511	0.087892	0.087877
H196	H	1.398511	0.337892	0.337877
H197	H	1.228511	-0.419042	-0.969997
H198	H	1.478511	-0.169042	-0.719997
H199	H	1.728511	0.080958	-0.469997
H200	H	1.978511	0.330958	-0.219997
O201	O	1.073765	-0.558617	-1.006016
O202	O	1.323765	-0.308617	-0.756016
O203	O	1.573765	-0.058617	-0.506016
O204	O	1.823765	0.191383	-0.256016
C205	C	1.081329	-0.551878	-1.092213
C206	C	1.331329	-0.301878	-0.842213
C207	C	1.581329	-0.051878	-0.592213
C208	C	1.831329	0.198122	-0.342213
H209	H	1.111341	-0.489592	-1.102382
H210	H	1.361341	-0.239592	-0.852382
H211	H	1.611341	0.010408	-0.602382
H212	H	1.861341	0.260408	-0.352382
H213	H	1.017207	-0.555717	-1.122370
H214	H	1.267207	-0.305717	-0.872370
H215	H	1.517207	-0.055717	-0.622370
H216	H	1.767207	0.194283	-0.372370
H217	H	1.121554	-0.604875	-1.121587
H218	H	1.371554	-0.354875	-0.871587
H219	H	1.621554	-0.104875	-0.621587
H220	H	1.871554	0.145125	-0.371587
