data_functionalizedCrystal
_audit_creation_method	'MofGen! by Chris Wilmer'
_symmetry_space_group_name_H-M	'P1'
_symmetry_Int_Tables_number	1
_symmetry_cell_setting	triclinic
loop_
_symmetry_equiv_pos_as_xyz
  x,y,z
_cell_length_a	15.944493
_cell_length_b	19.188924
_cell_length_c	18.266242
_cell_angle_alpha	90.006564
_cell_angle_beta	90.005061
_cell_angle_gamma	83.308504
loop_
_atom_site_label
_atom_site_type_symbol
_atom_site_fract_x
_atom_site_fract_y
_atom_site_fract_z
O1	O	1.114217	0.089855	0.060875
O2	O	1.447550	0.423188	0.394208
O3	O	1.780884	0.756522	0.727541
O4	O	0.869619	0.100999	0.060879
O5	O	1.202952	0.434333	0.394212
O6	O	1.536285	0.767666	0.727545
O7	O	0.998979	-0.006212	0.060868
O8	O	1.332313	0.327122	0.394201
O9	O	1.665646	0.660455	0.727535
O10	O	0.984856	0.197066	0.060885
O11	O	1.318190	0.530399	0.394219
O12	O	1.651523	0.863733	0.727552
O13	O	0.998966	-0.006214	-0.060894
O14	O	1.332299	0.327119	0.272439
O15	O	1.665632	0.660452	0.605773
O16	O	0.869605	0.100997	-0.060883
O17	O	1.202938	0.434330	0.272450
O18	O	1.536271	0.767663	0.605783
O19	O	1.114203	0.089853	-0.060887
O20	O	1.447536	0.423186	0.272446
O21	O	1.780870	0.756519	0.605779
Zn22	Zn	0.991902	0.095424	-0.080218
Zn23	Zn	1.325235	0.428758	0.253116
Zn24	Zn	1.658568	0.762091	0.586449
Zn25	Zn	0.991920	0.095428	0.080209
Zn26	Zn	1.325253	0.428761	0.413542
Zn27	Zn	1.658587	0.762094	0.746876
O28	O	0.984842	0.197064	-0.060877
O29	O	1.318176	0.530397	0.272457
O30	O	1.651509	0.863730	0.605790
C31	C	0.838319	0.100543	-0.000002
C32	C	1.171652	0.433876	0.333331
C33	C	1.504985	0.767209	0.666665
C34	C	0.745075	0.099177	-0.000001
C35	C	1.078409	0.432510	0.333333
C36	C	1.411742	0.765844	0.666666
C37	C	0.509077	0.162284	0.000005
C38	C	0.842411	0.495617	0.333339
C39	C	1.175744	0.828951	0.666672
C40	C	0.458640	0.128252	-0.060036
C41	C	0.791974	0.461585	0.273297
C42	C	1.125307	0.794918	0.606631
C43	C	0.574364	0.096647	-0.000002
C44	C	0.907697	0.429980	0.333331
C45	C	1.241030	0.763313	0.666664
C46	C	0.458659	0.128239	0.060012
C47	C	0.791992	0.461572	0.393345
C48	C	1.125325	0.794905	0.726679
C49	C	0.409463	0.094207	-0.000001
C50	C	0.742797	0.427541	0.333333
C51	C	1.076130	0.760874	0.666666
C52	C	0.525155	0.062632	-0.060093
C53	C	0.858488	0.395965	0.273240
C54	C	1.191822	0.729299	0.606574
C55	C	0.525177	0.062629	0.060009
C56	C	0.858510	0.395962	0.393342
C57	C	1.191843	0.729295	0.726675
C58	C	0.474773	0.028548	-0.000047
C59	C	0.808106	0.361881	0.333286
C60	C	1.141439	0.695215	0.666620
C61	C	0.669358	0.098054	-0.000004
C62	C	1.002692	0.431387	0.333329
C63	C	1.336025	0.764720	0.666663
C64	C	0.314472	0.092795	-0.000004
C65	C	0.647805	0.426129	0.333329
C66	C	0.981138	0.759462	0.666662
C67	C	0.998516	-0.032225	-0.000014
C68	C	1.331849	0.301108	0.333320
C69	C	1.665183	0.634441	0.666653
C70	C	0.997146	-0.109733	-0.000016
C71	C	1.330479	0.223600	0.333318
C72	C	1.663813	0.556933	0.666651
C73	C	0.996514	-0.146132	0.066357
C74	C	1.329848	0.187201	0.399690
C75	C	1.663181	0.520534	0.733024
C76	C	0.995215	-0.218958	0.066363
C77	C	1.328548	0.114375	0.399696
C78	C	1.661882	0.447708	0.733029
C79	C	0.994565	-0.255384	-0.000008
C80	C	1.327898	0.077949	0.333325
C81	C	1.661231	0.411283	0.666658
C82	C	0.995192	-0.218976	-0.066390
C83	C	1.328525	0.114358	0.266944
C84	C	1.661858	0.447691	0.600277
C85	C	0.996482	-0.146150	-0.066393
C86	C	1.329816	0.187183	0.266940
C87	C	1.663149	0.520516	0.600273
N88	N	1.040333	-0.374938	-0.049407
N89	N	1.373666	-0.041605	0.283926
N90	N	1.707000	0.291729	0.617259
N91	N	1.039109	-0.444119	-0.049399
N92	N	1.372442	-0.110786	0.283934
N93	N	1.705775	0.222548	0.617267
C94	C	0.990674	-0.474803	-0.000001
C95	C	1.324007	-0.141469	0.333332
C96	C	1.657340	0.191864	0.666665
N97	N	0.943520	-0.433692	0.049400
N98	N	1.276853	-0.100359	0.382733
N99	N	1.610187	0.232974	0.716066
N100	N	0.944748	-0.364505	0.049394
N101	N	1.278082	-0.031172	0.382727
N102	N	1.611415	0.302161	0.716060
C103	C	0.993164	-0.334351	-0.000012
C104	C	1.326498	-0.001018	0.333322
C105	C	1.659831	0.332316	0.666655
C106	C	0.988632	-0.590168	0.066382
C107	C	1.321965	-0.256834	0.399715
C108	C	1.655299	0.076499	0.733049
C109	C	0.987328	-0.662994	0.066385
C110	C	1.320661	-0.329661	0.399718
C111	C	1.653994	0.003672	0.733052
C112	C	0.987313	-0.663011	-0.066369
C113	C	1.320646	-0.329678	0.266964
C114	C	1.653979	0.003655	0.600297
C115	C	0.988609	-0.590185	-0.066370
C116	C	1.321942	-0.256852	0.266963
C117	C	1.655275	0.076482	0.600297
C118	C	0.989272	-0.553768	0.000008
C119	C	1.322606	-0.220435	0.333341
C120	C	1.655939	0.112899	0.666674
C121	C	1.145503	0.090309	-0.000005
C122	C	1.478836	0.423643	0.333328
C123	C	1.812170	0.756976	0.666662
C124	C	1.238747	0.091675	-0.000002
C125	C	1.572080	0.425008	0.333332
C126	C	1.905413	0.758342	0.666665
C127	C	0.985306	0.223077	0.000007
C128	C	1.318639	0.556410	0.333340
C129	C	1.651972	0.889744	0.666673
C130	C	0.986676	0.300585	0.000013
C131	C	1.320009	0.633918	0.333347
C132	C	1.653342	0.967252	0.666680
N133	N	0.991895	0.095422	-0.189705
N134	N	1.325229	0.428755	0.143629
N135	N	1.658562	0.762088	0.476962
C136	C	1.049215	0.047965	-0.771987
C137	C	1.382549	0.381298	-0.438653
C138	C	1.715882	0.714631	-0.105320
C139	C	1.049217	0.047966	-0.695342
C140	C	1.382550	0.381300	-0.362008
C141	C	1.715883	0.714633	-0.028675
C142	C	0.991921	0.095421	-0.657017
C143	C	1.325254	0.428755	-0.323684
C144	C	1.658588	0.762088	0.009649
C145	C	0.934634	0.142890	-0.695344
C146	C	1.267968	0.476224	-0.362011
C147	C	1.601301	0.809557	-0.028677
C148	C	0.934640	0.142892	-0.771987
C149	C	1.267974	0.476225	-0.438654
C150	C	1.601307	0.809559	-0.105321
N151	N	0.917556	0.104290	-0.536689
N152	N	1.250889	0.437623	-0.203356
N153	N	1.584223	0.770957	0.129978
N154	N	0.917553	0.104284	-0.463881
N155	N	1.250886	0.437618	-0.130548
N156	N	1.584220	0.770951	0.202786
C157	C	0.991900	0.095420	-0.426095
C158	C	1.325233	0.428753	-0.092761
C159	C	1.658567	0.762087	0.240572
N160	N	1.066253	0.086548	-0.463867
N161	N	1.399587	0.419881	-0.130534
N162	N	1.732920	0.753214	0.202799
N163	N	1.066256	0.086550	-0.536682
N164	N	1.399589	0.419883	-0.203349
N165	N	1.732922	0.753217	0.129985
C166	C	0.991908	0.095425	-0.573910
C167	C	1.325242	0.428758	-0.240577
C168	C	1.658575	0.762092	0.092756
C169	C	1.049188	0.047959	-0.304670
C170	C	1.382522	0.381292	0.028663
C171	C	1.715855	0.714626	0.361996
C172	C	1.049191	0.047965	-0.228024
C173	C	1.382524	0.381299	0.105309
C174	C	1.715857	0.714632	0.438643
C175	C	0.934601	0.142886	-0.228028
C176	C	1.267934	0.476219	0.105306
C177	C	1.601268	0.809553	0.438639
C178	C	0.934606	0.142883	-0.304672
C179	C	1.267939	0.476216	0.028661
C180	C	1.601273	0.809550	0.361994
C181	C	0.991899	0.095416	-0.342989
C182	C	1.325232	0.428749	-0.009656
C183	C	1.658566	0.762082	0.323678
N184	N	0.991933	0.095425	0.189696
N185	N	1.325267	0.428758	0.523029
N186	N	1.658600	0.762091	0.856363
H187	H	0.524488	0.218823	-0.000046
H188	H	0.857821	0.552157	0.333287
H189	H	1.191154	0.885490	0.666621
F190	F	0.986616	-0.701773	-0.137007
F191	F	1.319949	-0.368440	0.196327
F192	F	1.653283	-0.035106	0.529660
H193	H	0.459520	-0.028034	-0.000087
H194	H	0.792854	0.305299	0.333247
H195	H	1.126187	0.638633	0.666580
F196	F	0.997216	-0.107378	0.137002
F197	F	1.330550	0.225955	0.470336
F198	F	1.663883	0.559288	0.803669
H199	H	0.989130	-0.560549	-0.120418
H200	H	1.322463	-0.227216	0.212915
H201	H	1.655797	0.106117	0.546249
F202	F	0.986649	-0.701732	0.137032
F203	F	1.319983	-0.368399	0.470365
F204	F	1.653316	-0.035065	0.803698
F205	F	0.994542	-0.257705	0.137008
F206	F	1.327875	0.075629	0.470342
F207	F	1.661208	0.408962	0.803675
F208	F	0.563167	0.026432	0.126352
F209	F	0.896501	0.359765	0.459685
F210	F	1.229834	0.693098	0.793019
F211	F	0.562960	0.026422	-0.126507
F212	F	0.896294	0.359755	0.206826
F213	F	1.229627	0.693089	0.540159
F214	F	0.420706	0.164487	0.126350
F215	F	0.754039	0.497821	0.459683
F216	F	1.087372	0.831154	0.793017
F217	F	1.110165	-0.002547	-0.187242
F218	F	1.443499	0.330787	0.146091
F219	F	1.776832	0.664120	0.479425
H220	H	0.994660	-0.248638	-0.120429
H221	H	1.327993	0.084695	0.212904
H222	H	1.661326	0.418029	0.546237
H223	H	1.095842	0.009310	-0.335869
H224	H	1.429176	0.342643	-0.002536
H225	H	1.762509	0.675977	0.330798
F226	F	0.873670	0.193407	-0.812769
F227	F	1.207003	0.526741	-0.479436
F228	F	1.540337	0.860074	-0.146103
F229	F	0.873635	0.193393	-0.345456
F230	F	1.206968	0.526727	-0.012122
F231	F	1.540301	0.860060	0.321211
H232	H	1.095868	0.009316	-0.803182
H233	H	1.429202	0.342649	-0.469849
H234	H	1.762535	0.675982	-0.136515
F235	F	1.110187	-0.002550	-0.654555
F236	F	1.443521	0.330783	-0.321221
F237	F	1.776854	0.664117	0.012112
F238	F	0.873628	0.193395	-0.187243
F239	F	1.206961	0.526729	0.146090
F240	F	1.540295	0.860062	0.479423
F241	F	0.420671	0.164480	-0.126375
F242	F	0.754005	0.497814	0.206958
F243	F	1.087338	0.831147	0.540291
F244	F	0.997153	-0.107410	-0.137039
F245	F	1.330487	0.225923	0.196294
F246	F	1.663820	0.559256	0.529627
H247	H	0.989167	-0.560515	0.120431
H248	H	1.322501	-0.227181	0.453764
H249	H	1.655834	0.106152	0.787097
F250	F	0.873659	0.193398	-0.654556
F251	F	1.206992	0.526731	-0.321223
F252	F	1.540325	0.860064	0.012111
