data_functionalizedCrystal
_audit_creation_method	'MofGen! by Chris Wilmer'
_symmetry_space_group_name_H-M	'P1'
_symmetry_Int_Tables_number	1
_symmetry_cell_setting	triclinic
loop_
_symmetry_equiv_pos_as_xyz
  x,y,z
_cell_length_a	8.497374
_cell_length_b	8.497374
_cell_length_c	33.918909
_cell_angle_alpha	89.993105
_cell_angle_beta	89.991859
_cell_angle_gamma	90.004389
loop_
_atom_site_label
_atom_site_type_symbol
_atom_site_fract_x
_atom_site_fract_y
_atom_site_fract_z
Zn1	Zn	0.628705	0.892307	-0.604199
Zn2	Zn	0.892455	0.628572	-0.604196
Zn3	Zn	0.628640	0.628512	-0.538127
Zn4	Zn	0.892394	0.892282	-0.538118
O5	O	0.760548	0.760418	-0.571160
O6	O	0.663744	0.857357	-0.659504
O7	O	0.857457	0.407802	-0.595434
O8	O	0.407886	0.663490	-0.546897
O9	O	0.857520	0.663593	-0.659502
O10	O	0.407934	0.857299	-0.595440
O11	O	0.663633	0.407758	-0.546893
O12	O	0.663575	0.663466	-0.482820
O13	O	0.857418	1.113048	-0.546881
O14	O	0.857354	0.857257	-0.482813
O15	O	0.663686	1.113066	-0.595431
O16	O	1.113209	0.663569	-0.595425
O17	O	1.113165	0.857315	-0.546878
C18	C	0.760452	0.760353	-0.468477
C19	C	0.760449	0.760363	-0.424548
C20	C	1.170428	0.760441	-0.571155
C21	C	1.349072	0.760415	-0.571165
C22	C	0.760574	1.350539	-0.571162
C23	C	0.760566	1.171894	-0.571158
C24	C	0.659422	0.659628	-0.238802
C25	C	0.861519	0.861111	-0.238819
C26	C	0.861514	0.861113	-0.280092
C27	C	0.760463	0.760369	-0.300722
C28	C	0.659417	0.659624	-0.280079
C29	C	0.962569	0.961845	-0.300739
C30	C	0.962570	0.961850	-0.342014
C31	C	0.861510	0.861113	-0.362645
C32	C	0.760458	0.760365	-0.341999
C33	C	0.659408	0.659622	-0.362628
C34	C	0.558347	0.558880	-0.341983
C35	C	0.558357	0.558887	-0.300709
C36	C	0.861500	0.861106	-0.403919
C37	C	0.659403	0.659617	-0.403905
C38	C	0.760646	0.760485	-0.674244
C39	C	0.760688	0.760513	-0.718172
C40	C	0.760488	0.760367	-0.174244
C41	C	0.760473	0.760372	-0.218172
C42	C	0.861680	0.659676	-0.903910
C43	C	0.659900	0.861444	-0.903910
C44	C	0.659877	0.861437	-0.862637
C45	C	0.760756	0.760546	-0.841999
C46	C	0.861658	0.659662	-0.862633
C47	C	0.558966	0.962308	-0.842000
C48	C	0.558939	0.962304	-0.800724
C49	C	0.659827	0.861420	-0.780085
C50	C	0.760733	0.760533	-0.800722
C51	C	0.861612	0.659642	-0.780083
C52	C	0.962528	0.558762	-0.800720
C53	C	0.962546	0.558778	-0.841994
C54	C	0.659809	0.861404	-0.738811
C55	C	0.861589	0.659629	-0.738807
Zn56	Zn	0.892140	0.628216	-0.038528
Zn57	Zn	0.629175	0.892733	-0.038519
Zn58	Zn	0.628305	0.628929	-0.104573
Zn59	Zn	0.892843	0.891914	-0.104624
O60	O	0.760616	0.760448	-0.071561
O61	O	0.857327	0.663349	0.016779
O62	O	0.408299	0.858381	-0.047256
O63	O	0.662645	0.408073	-0.095794
O64	O	0.664128	0.857689	0.016786
O65	O	0.856483	0.407549	-0.047271
O66	O	0.407659	0.664565	-0.095785
O67	O	0.663327	0.663770	-0.159885
O68	O	1.113511	0.856292	-0.095882
O69	O	0.857681	0.856984	-0.159923
O70	O	1.112994	0.662555	-0.047321
O71	O	0.664810	1.113386	-0.047306
O72	O	0.858525	1.112784	-0.095873
C73	C	0.760746	0.760531	0.031523
C74	C	0.760802	0.760567	0.075452
C75	C	0.761830	1.170326	-0.071590
C76	C	0.762315	1.348970	-0.071592
C77	C	1.172094	0.759239	-0.071607
C78	C	1.350737	0.758716	-0.071629
H79	H	0.577105	0.577588	-0.420699
Br80	Br	0.421227	0.422148	-0.369985
Br81	Br	1.099717	1.098568	-0.370029
Br82	Br	0.522262	0.522927	-0.210786
Br83	Br	0.998641	0.522783	-0.931914
Br84	Br	0.421215	0.422181	-0.272689
Br85	Br	1.099760	1.098500	-0.272740
H86	H	0.476769	1.044449	-0.783926
H87	H	0.943745	0.577477	-0.722006
Br88	Br	0.522847	0.998283	-0.710806
Br89	Br	0.998655	0.997800	-0.431936
Br90	Br	1.099486	0.421879	-0.870002
H91	H	0.943799	0.943122	-0.222020
Br92	Br	0.522991	0.998352	-0.931920
Br93	Br	1.099414	0.421828	-0.772705
Br94	Br	0.422065	1.099219	-0.870010
