data_functionalizedCrystal
_audit_creation_method	'MofGen! by Chris Wilmer'
_symmetry_space_group_name_H-M	'P1'
_symmetry_Int_Tables_number	1
_symmetry_cell_setting	triclinic
loop_
_symmetry_equiv_pos_as_xyz
  x,y,z
_cell_length_a	12.759401
_cell_length_b	18.215405
_cell_length_c	12.759393
_cell_angle_alpha	89.963505
_cell_angle_beta	89.979062
_cell_angle_gamma	90.026410
loop_
_atom_site_label
_atom_site_type_symbol
_atom_site_fract_x
_atom_site_fract_y
_atom_site_fract_z
Zn1	Zn	1.606192	-0.292919	-0.593976
Zn2	Zn	1.939525	0.040415	-0.260643
Zn3	Zn	2.272859	0.373748	0.072690
Zn4	Zn	1.606052	-0.416003	-0.418278
Zn5	Zn	1.939385	-0.082669	-0.084945
Zn6	Zn	2.272719	0.250664	0.248389
Zn7	Zn	1.430491	-0.292958	-0.418311
Zn8	Zn	1.763824	0.040375	-0.084978
Zn9	Zn	2.097157	0.373709	0.248355
Zn10	Zn	1.430451	-0.415951	-0.593915
Zn11	Zn	1.763785	-0.082618	-0.260582
Zn12	Zn	2.097118	0.250715	0.072751
O13	O	1.518296	-0.354458	-0.506120
O14	O	1.851630	-0.021124	-0.172787
O15	O	2.184963	0.312209	0.160546
O16	O	1.753194	-0.309251	-0.570681
O17	O	2.086528	0.024082	-0.237348
O18	O	2.419861	0.357415	0.095986
O19	O	1.582721	-0.399719	-0.271261
O20	O	1.916054	-0.066385	0.062072
O21	O	2.249388	0.266948	0.395405
O22	O	1.453873	-0.189968	-0.441653
O23	O	1.787206	0.143365	-0.108320
O24	O	2.120540	0.476698	0.225013
O25	O	1.753091	-0.399681	-0.441596
O26	O	2.086425	-0.066347	-0.108263
O27	O	2.419758	0.266986	0.225070
O28	O	1.582960	-0.189940	-0.570714
O29	O	1.916293	0.143394	-0.237380
O30	O	2.249627	0.476727	0.095953
O31	O	1.453737	-0.309318	-0.271286
O32	O	1.787070	0.024015	0.062047
O33	O	2.120404	0.357349	0.395381
O34	O	1.283465	-0.309268	-0.441594
O35	O	1.616798	0.024065	-0.108261
O36	O	1.950131	0.357399	0.225073
O37	O	1.453806	-0.399593	-0.740944
O38	O	1.787139	-0.066260	-0.407611
O39	O	2.120473	0.267074	-0.074278
O40	O	1.283436	-0.399631	-0.570609
O41	O	1.616769	-0.066298	-0.237276
O42	O	1.950102	0.267036	0.096057
O43	O	1.582922	-0.309201	-0.740989
O44	O	1.916255	0.024132	-0.407656
O45	O	2.249588	0.357465	-0.074323
O46	O	1.582683	-0.518980	-0.441537
O47	O	1.916016	-0.185647	-0.108204
O48	O	2.249350	0.147686	0.225130
O49	O	1.453670	-0.518942	-0.570577
O50	O	1.787003	-0.185609	-0.237244
O51	O	2.120337	0.147724	0.096090
C52	C	1.245329	-0.354449	-0.506099
C53	C	1.578662	-0.021115	-0.172766
C54	C	1.911996	0.312218	0.160567
C55	C	1.128552	-0.354463	-0.506115
C56	C	1.461886	-0.021129	-0.172782
C57	C	1.795219	0.312204	0.160551
C58	C	1.073703	-0.401586	-0.573188
C59	C	1.407036	-0.068253	-0.239855
C60	C	1.740370	0.265081	0.093479
C61	C	0.963979	-0.401589	-0.573209
C62	C	1.297312	-0.068256	-0.239875
C63	C	1.630646	0.265078	0.093458
C64	C	0.963964	-0.307343	-0.439076
C65	C	1.297297	0.025991	-0.105742
C66	C	1.630630	0.359324	0.227591
C67	C	1.073686	-0.307337	-0.439061
C68	C	1.407019	0.025997	-0.105727
C69	C	1.740352	0.359330	0.227606
C70	C	1.518186	-0.545664	-0.506070
C71	C	1.851519	-0.212331	-0.172736
C72	C	2.184852	0.121003	0.160597
C73	C	1.518234	-0.627463	-0.506083
C74	C	1.851568	-0.294130	-0.172750
C75	C	2.184901	0.039204	0.160583
C76	C	1.585569	-0.815652	-0.439016
C77	C	1.918902	-0.482319	-0.105682
C78	C	2.252236	-0.148985	0.227651
C79	C	1.585616	-0.892511	-0.439041
C80	C	1.918949	-0.559177	-0.105708
C81	C	2.252283	-0.225844	0.227625
C82	C	1.451158	-0.892511	-0.573300
C83	C	1.784492	-0.559178	-0.239967
C84	C	2.117825	-0.225845	0.093366
C85	C	1.451118	-0.815654	-0.573279
C86	C	1.784451	-0.482321	-0.239946
C87	C	2.117784	-0.148987	0.093387
C88	C	1.518321	-0.777226	-0.506131
C89	C	1.851655	-0.443893	-0.172798
C90	C	2.184988	-0.110560	0.160536
C91	C	1.518409	-0.930942	-0.506178
C92	C	1.851742	-0.597609	-0.172844
C93	C	2.185076	-0.264276	0.160489
C94	C	1.518460	-1.014276	-0.506206
C95	C	1.851793	-0.680943	-0.172872
C96	C	2.185126	-0.347609	0.160461
C97	C	1.518272	-0.693887	-0.506104
C98	C	1.851606	-0.360554	-0.172771
C99	C	2.184939	-0.027221	0.160562
C100	C	1.792330	-0.354467	-0.506142
C101	C	2.125663	-0.021134	-0.172808
C102	C	2.458996	0.312199	0.160525
C103	C	1.909106	-0.354471	-0.506151
C104	C	2.242440	-0.021138	-0.172818
C105	C	2.575773	0.312195	0.160516
C106	C	1.518375	-0.354387	-0.780154
C107	C	1.851708	-0.021054	-0.446820
C108	C	2.185042	0.312280	-0.113487
C109	C	1.518409	-0.354357	-0.896930
C110	C	1.851742	-0.021024	-0.563597
C111	C	2.185075	0.312310	-0.230264
C112	C	1.518437	-0.162505	-0.506194
C113	C	1.851770	0.170829	-0.172861
C114	C	2.185103	0.504162	0.160473
C115	C	1.518496	-0.080706	-0.506225
C116	C	1.851830	0.252628	-0.172892
C117	C	2.185163	0.585961	0.160441
C118	C	1.585644	-0.307283	-0.951818
C119	C	1.918978	0.026051	-0.618484
C120	C	2.252311	0.359384	-0.285151
C121	C	1.585662	-0.307251	-1.061542
C122	C	1.918995	0.026083	-0.728208
C123	C	2.252329	0.359416	-0.394875
C124	C	1.451206	-0.401374	-1.061482
C125	C	1.784539	-0.068041	-0.728149
C126	C	2.117872	0.265292	-0.394815
C127	C	1.451183	-0.401402	-0.951760
C128	C	1.784517	-0.068068	-0.618427
C129	C	2.117850	0.265265	-0.285093
C130	C	1.518279	-0.354475	-0.233153
C131	C	1.851612	-0.021142	0.100180
C132	C	2.184945	0.312192	0.433514
C133	C	1.518449	-0.354298	-0.116377
C134	C	1.851782	-0.020964	0.216957
C135	C	2.185115	0.312369	0.550290
H136	H	1.640292	-0.784366	-0.384341
H137	H	1.973625	-0.451033	-0.051008
H138	H	2.306959	-0.117699	0.282325
N139	N	1.658168	-0.256470	-1.120743
N140	N	1.991501	0.076864	-0.787409
N141	N	2.324835	0.410197	-0.454076
H142	H	1.700745	-0.226671	-1.069355
H143	H	2.034078	0.106662	-0.736022
H144	H	2.367411	0.439996	-0.402689
H145	H	1.706776	-0.286410	-1.166272
H146	H	2.040109	0.046923	-0.832938
H147	H	2.373443	0.380257	-0.499605
H148	H	1.640377	-0.923793	-0.384391
H149	H	1.973711	-0.590460	-0.051057
H150	H	2.307044	-0.257127	0.282276
N151	N	1.378673	-0.933958	-0.645717
N152	N	1.712006	-0.600625	-0.312383
N153	N	2.045339	-0.267292	0.020950
H154	H	1.388898	-0.988478	-0.635544
H155	H	1.722232	-0.655145	-0.302211
H156	H	2.055565	-0.321812	0.031122
H157	H	1.303642	-0.920575	-0.629288
H158	H	1.636975	-0.587242	-0.295955
H159	H	1.970309	-0.253908	0.037379
N160	N	1.378686	-0.452102	-1.120620
N161	N	1.712019	-0.118769	-0.787286
N162	N	2.045352	0.214564	-0.453953
H163	H	1.388897	-0.444940	-1.198457
H164	H	1.722230	-0.111607	-0.865124
H165	H	2.055564	0.221726	-0.531791
H166	H	1.394975	-0.504672	-1.101431
H167	H	1.728309	-0.171338	-0.768097
H168	H	2.061642	0.161995	-0.434764
H169	H	1.396425	-0.439735	-0.907070
H170	H	1.729758	-0.106401	-0.573736
H171	H	2.063091	0.226932	-0.240403
H172	H	1.396356	-0.784366	-0.627938
H173	H	1.729690	-0.451032	-0.294604
H174	H	2.063023	-0.117699	0.038729
H175	H	0.919325	-0.439960	-0.627827
H176	H	1.252659	-0.106627	-0.294494
H177	H	1.585992	0.226706	0.038839
H178	H	1.118345	-0.268958	-0.384442
H179	H	1.451679	0.064375	-0.051109
H180	H	1.785012	0.397708	0.282225
N181	N	1.132883	-0.452411	-0.645508
N182	N	1.466217	-0.119078	-0.312175
N183	N	1.799550	0.214255	0.021159
H184	H	1.081482	-0.482263	-0.688002
H185	H	1.414816	-0.148930	-0.354669
H186	H	1.748149	0.184404	-0.021335
H187	H	1.178450	-0.422494	-0.694201
H188	H	1.511783	-0.089161	-0.360867
H189	H	1.845117	0.244172	-0.027534
N190	N	1.658148	-0.256546	-0.892676
N191	N	1.991482	0.076788	-0.559342
N192	N	2.324815	0.410121	-0.226009
H193	H	1.641878	-0.203956	-0.911781
H194	H	1.975212	0.129377	-0.578447
H195	H	2.308545	0.462711	-0.245114
H196	H	1.647899	-0.263774	-0.814858
H197	H	1.981233	0.069560	-0.481525
H198	H	2.314566	0.402893	-0.148191
N199	N	0.904786	-0.256535	-0.366728
N200	N	1.238119	0.076798	-0.033394
N201	N	1.571452	0.410131	0.299939
H202	H	0.826954	-0.263696	-0.376902
H203	H	1.160287	0.069637	-0.043569
H204	H	1.493620	0.402970	0.289764
H205	H	0.923938	-0.267944	-0.291671
H206	H	1.257271	0.065389	0.041663
H207	H	1.590604	0.398723	0.374996
