data_functionalizedCrystal
_audit_creation_method	'MofGen! by Chris Wilmer'
_symmetry_space_group_name_H-M	'P1'
_symmetry_Int_Tables_number	1
_symmetry_cell_setting	triclinic
loop_
_symmetry_equiv_pos_as_xyz
  x,y,z
_cell_length_a	14.853566
_cell_length_b	17.019294
_cell_length_c	13.930277
_cell_angle_alpha	86.116472
_cell_angle_beta	89.995631
_cell_angle_gamma	83.514243
loop_
_atom_site_label
_atom_site_type_symbol
_atom_site_fract_x
_atom_site_fract_y
_atom_site_fract_z
O1	O	1.196090	0.102985	-0.088279
O2	O	0.933597	0.115254	-0.089309
O3	O	1.072165	-0.005705	-0.079297
O4	O	1.057521	0.223944	-0.098291
O5	O	1.072146	-0.005708	0.080365
O6	O	0.933578	0.115252	0.070353
O7	O	1.196071	0.102982	0.071383
Zn8	Zn	1.064821	0.109116	0.096218
Zn9	Zn	1.064846	0.109120	-0.114144
O10	O	1.057502	0.223942	0.061371
C11	C	0.900000	0.114697	-0.009434
C12	C	0.799921	0.113032	-0.009302
C13	C	0.376765	0.105989	-0.095735
C14	C	0.376766	0.105987	0.078335
C15	C	0.470796	0.107551	0.078203
C16	C	0.517815	0.108335	-0.008900
C17	C	0.470804	0.107555	-0.095870
C18	C	0.517812	0.108338	0.165171
C19	C	0.611848	0.109903	0.165042
C20	C	0.658869	0.110682	0.077939
C21	C	0.611853	0.109901	-0.009035
C22	C	0.658872	0.110686	-0.096137
C23	C	0.611858	0.109900	-0.183111
C24	C	0.517825	0.108334	-0.182973
C25	C	0.752902	0.112247	0.077800
C26	C	0.752910	0.112252	-0.096273
C27	C	1.071600	-0.035096	0.002963
C28	C	1.069934	-0.122669	0.010199
C29	C	1.069164	-0.163804	-0.073432
C30	C	1.067592	-0.246087	-0.066630
C31	C	1.066798	-0.287233	0.023805
C32	C	1.067565	-0.246092	0.107443
C33	C	1.069130	-0.163810	0.100639
C34	C	1.062066	-0.535671	0.048701
C35	C	1.060504	-0.617959	0.055498
C36	C	1.060529	-0.617949	-0.118576
C37	C	1.062099	-0.535666	-0.125371
C38	C	1.062862	-0.494531	-0.041733
C39	C	1.065194	-0.371340	0.030760
C40	C	1.064459	-0.410425	-0.048690
C41	C	1.229667	0.103539	-0.008494
C42	C	1.329747	0.105205	-0.008632
C43	C	1.058067	0.253333	-0.020891
C44	C	1.059733	0.340905	-0.028134
N45	N	1.064810	0.109114	0.239784
N46	N	1.064864	0.109116	-0.257710
C47	C	1.003486	0.162660	0.687621
C48	C	1.126232	0.055574	0.696454
C49	C	1.126221	0.055571	0.595959
C50	C	1.064843	0.109115	0.541290
C51	C	1.003475	0.162660	0.587116
C52	C	1.187594	0.002032	0.550124
C53	C	1.187586	0.002028	0.449623
C54	C	1.126203	0.055568	0.394952
C55	C	1.064832	0.109115	0.440785
C56	C	1.003453	0.162659	0.386116
C57	C	0.942078	0.216203	0.431947
C58	C	0.942092	0.216201	0.532446
C59	C	1.126189	0.055570	0.294453
C60	C	1.003443	0.162659	0.285610
H61	H	0.650119	0.110542	0.235862
N62	N	0.940745	0.217366	0.229786
N63	N	0.941881	0.290281	0.234985
H64	H	0.897600	0.328919	0.195560
H65	H	1.065100	-0.376920	-0.122321
H66	H	1.062705	-0.502191	0.116805
N67	N	0.940804	0.217361	0.734427
N68	N	0.941939	0.290278	0.717169
H69	H	0.897668	0.328912	0.750226
H70	H	1.064550	-0.404851	0.104393
N71	N	0.879397	0.270896	0.376084
N72	N	0.879410	0.270889	0.286354
H73	H	0.835144	0.309516	0.246896
N74	N	0.469815	0.107528	-0.271814
N75	N	0.488695	0.052142	-0.325510
H76	H	0.454785	0.051573	-0.388255
H77	H	1.237571	-0.041558	0.594639
H78	H	0.650152	0.110544	-0.254031
N79	N	0.879408	0.270884	0.579276
N80	N	0.879432	0.270876	0.669007
H81	H	0.835164	0.309497	0.702086
N82	N	1.188939	0.000907	0.752306
N83	N	1.188952	0.000927	0.842035
H84	H	1.233247	-0.037680	0.881485
H85	H	0.791175	0.112895	0.148612
H86	H	1.237560	-0.041571	0.412314
N87	N	1.188798	0.000806	0.247659
N88	N	1.243541	-0.047043	0.296486
H89	H	1.287728	-0.085754	0.263442
N90	N	0.328736	0.105178	-0.184564
N91	N	0.244779	0.103773	-0.184437
H92	H	0.210856	0.103200	-0.247173
H93	H	0.791186	0.112888	-0.167203
H94	H	0.338477	0.105353	0.149249
H95	H	0.479522	0.107705	0.236084
H96	H	1.066969	-0.279577	-0.134732
N97	N	1.069987	-0.121792	-0.165818
N98	N	1.069300	-0.158534	-0.240481
H99	H	1.069880	-0.128865	-0.305732
H100	H	1.062748	-0.502171	-0.199012
N101	N	1.059752	-0.659980	-0.203994
N102	N	1.058357	-0.733446	-0.197913
H103	H	1.057806	-0.763132	-0.258243
N104	N	1.059686	-0.659978	0.147888
N105	N	1.060362	-0.623242	0.222556
H106	H	1.059783	-0.652916	0.287804
H107	H	1.066913	-0.279599	0.181077
H108	H	1.069745	-0.130316	0.168741
