data_functionalizedCrystal
_audit_creation_method	'MofGen! by Chris Wilmer'
_symmetry_space_group_name_H-M	'P1'
_symmetry_Int_Tables_number	1
_symmetry_cell_setting	triclinic
loop_
_symmetry_equiv_pos_as_xyz
  x,y,z
_cell_length_a	17.077404
_cell_length_b	10.686285
_cell_length_c	17.077396
_cell_angle_alpha	85.608118
_cell_angle_beta	89.980499
_cell_angle_gamma	85.631810
loop_
_atom_site_label
_atom_site_type_symbol
_atom_site_fract_x
_atom_site_fract_y
_atom_site_fract_z
Zn1	Zn	1.224115	-0.502339	-0.419935
Zn2	Zn	1.234129	-0.713359	-0.278625
Zn3	Zn	1.092848	-0.502383	-0.288680
Zn4	Zn	1.102918	-0.713284	-0.409853
O5	O	1.163502	-0.607841	-0.349273
O6	O	1.335290	-0.530344	-0.401201
O7	O	1.215364	-0.685422	-0.170110
O8	O	1.101856	-0.325802	-0.314519
O9	O	1.342648	-0.685379	-0.297382
O10	O	1.198297	-0.325769	-0.410951
O11	O	1.111566	-0.530419	-0.177497
O12	O	0.984337	-0.530347	-0.304743
O13	O	1.119018	-0.685252	-0.521039
O14	O	0.991734	-0.685295	-0.393768
O15	O	1.208061	-0.530271	-0.528447
O16	O	1.225128	-0.889924	-0.287606
O17	O	1.128728	-0.889869	-0.384018
C18	C	0.959553	-0.607818	-0.349253
C19	C	0.872305	-0.607839	-0.349261
C20	C	0.835193	-0.688642	-0.395530
C21	C	0.753212	-0.688645	-0.395542
C22	C	0.708346	-0.607850	-0.349281
C23	C	0.745463	-0.527038	-0.303011
C24	C	0.827441	-0.527030	-0.303003
C25	C	0.574594	-0.527063	-0.303028
C26	C	0.492610	-0.527072	-0.303035
C27	C	0.500365	-0.688678	-0.395568
C28	C	0.582344	-0.688670	-0.395560
C29	C	0.619455	-0.607859	-0.349288
C30	C	1.179129	-0.935681	-0.333644
C31	C	1.185885	-1.075932	-0.326983
C32	C	1.368248	-0.607865	-0.349294
C33	C	1.455498	-0.607875	-0.349303
C34	C	1.163545	-0.607748	-0.554022
C35	C	1.163564	-0.607709	-0.641274
C36	C	1.147836	-0.278722	-0.364981
C37	C	1.141160	-0.138470	-0.371675
C38	C	1.209930	-0.527004	-0.686123
C39	C	1.209937	-0.526962	-0.768105
C40	C	1.163582	-0.607632	-0.805237
C41	C	1.117211	-0.688341	-0.760382
C42	C	1.117200	-0.688375	-0.678402
C43	C	1.117239	-0.688265	-0.931256
C44	C	1.117251	-0.688232	-1.013242
C45	C	1.209976	-0.526851	-1.020959
C46	C	1.209965	-0.526886	-0.938979
C47	C	1.163595	-0.607596	-0.894130
C48	C	1.163500	-0.607843	-0.145325
C49	C	1.163617	-0.607527	-0.058091
H50	H	0.708925	-0.461248	-0.265348
C51	C	1.082451	-1.065861	-0.430257
C52	C	1.016535	-0.975339	-0.400437
C53	C	0.957824	-0.902721	-0.459020
C54	C	0.965029	-0.920624	-0.547422
C55	C	1.030948	-1.011150	-0.577246
C56	C	1.089659	-1.083769	-0.518663
H57	H	1.011199	-0.962082	-0.334993
H58	H	0.909027	-0.835707	-0.436942
H59	H	0.921568	-0.866868	-0.590788
H60	H	1.036284	-1.024407	-0.642690
H61	H	1.138456	-1.150782	-0.540741
H62	H	0.871718	-0.754439	-0.433198
H63	H	1.229342	-1.129693	-0.283617
H64	H	1.247680	-0.461316	-0.655896
H65	H	1.247695	-0.461247	-0.804617
H66	H	0.723000	-0.754444	-0.433218
H67	H	0.470145	-0.754473	-0.433246
H68	H	1.247716	-0.461204	-0.908748
H69	H	0.857656	-0.461225	-0.265331
H70	H	1.247732	-0.461131	-1.057480
H71	H	1.079503	-0.753918	-1.043473
H72	H	1.079466	-0.753968	-0.894743
H73	H	0.618873	-0.754467	-0.433225
H74	H	0.456080	-0.461267	-0.265375
C75	C	1.066225	-0.777081	-0.801231
C76	C	1.104973	-0.876122	-0.852864
C77	C	1.053990	-0.964868	-0.893714
C78	C	0.964260	-0.954573	-0.882931
C79	C	0.925507	-0.855528	-0.831295
C80	C	0.976489	-0.766782	-0.790446
H81	H	1.171401	-0.883747	-0.860849
H82	H	1.082678	-1.038188	-0.931938
H83	H	0.926519	-1.020269	-0.913170
H84	H	0.859079	-0.847903	-0.823311
H85	H	0.947801	-0.693462	-0.752222
H86	H	1.079435	-0.754081	-0.641887
H87	H	0.604807	-0.461247	-0.265356
