data_functionalizedCrystal
_audit_creation_method	'MofGen! by Chris Wilmer'
_symmetry_space_group_name_H-M	'P1'
_symmetry_Int_Tables_number	1
_symmetry_cell_setting	triclinic
loop_
_symmetry_equiv_pos_as_xyz
  x,y,z
_cell_length_a	11.792241
_cell_length_b	19.188924
_cell_length_c	17.666332
_cell_angle_alpha	90.007291
_cell_angle_beta	90.005047
_cell_angle_gamma	83.667690
loop_
_atom_site_label
_atom_site_type_symbol
_atom_site_fract_x
_atom_site_fract_y
_atom_site_fract_z
O1	O	1.505480	0.095695	0.062879
O2	O	2.005480	0.595695	0.562879
O3	O	1.174991	0.105557	0.062897
O4	O	1.674991	0.605557	0.562897
O5	O	1.349777	-0.000976	0.062878
O6	O	1.849777	0.499024	0.562878
O7	O	1.330695	0.202228	0.062897
O8	O	1.830695	0.702228	0.562897
O9	O	1.349746	-0.000979	-0.063019
O10	O	1.849746	0.499021	0.436981
O11	O	1.174961	0.105554	-0.063000
O12	O	1.674961	0.605554	0.437000
O13	O	1.505450	0.095692	-0.063018
O14	O	2.005450	0.595692	0.436982
Cu15	Cu	1.340202	0.100623	-0.074504
Cu16	Cu	1.840202	0.600623	0.425496
Cu17	Cu	1.340239	0.100626	0.074383
Cu18	Cu	1.840239	0.600626	0.574383
O19	O	1.330664	0.202225	-0.063000
O20	O	1.830664	0.702225	0.437000
C21	C	1.132694	0.104936	-0.000050
C22	C	1.632694	0.604936	0.499950
C23	C	1.006708	0.103082	-0.000043
C24	C	1.506708	0.603082	0.499957
C25	C	1.349145	-0.026992	-0.000071
C26	C	1.849145	0.473008	0.499929
C27	C	1.347294	-0.104507	-0.000073
C28	C	1.847294	0.395493	0.499927
C29	C	0.776047	0.099672	-0.000065
C30	C	1.276047	0.599672	0.499935
C31	C	0.904404	0.101567	-0.000053
C32	C	1.404404	0.601567	0.499947
C33	C	1.346447	-0.140909	0.068554
C34	C	1.846447	0.359091	0.568554
C35	C	1.344691	-0.213742	0.068560
C36	C	1.844691	0.286258	0.568560
C37	C	1.343806	-0.250172	-0.000065
C38	C	1.843806	0.249828	0.499935
C39	C	1.344647	-0.213760	-0.068701
C40	C	1.844647	0.286240	0.431299
C41	C	1.346391	-0.140928	-0.068704
C42	C	1.846391	0.359072	0.431296
N43	N	1.405641	-0.369486	-0.051144
N44	N	1.905641	0.130514	0.448856
N45	N	1.403987	-0.438673	-0.051136
N46	N	1.903987	0.061327	0.448864
C47	C	1.338549	-0.469610	-0.000057
C48	C	1.838549	0.030390	0.499943
N49	N	1.274842	-0.428747	0.051024
N50	N	1.774842	0.071253	0.551024
N51	N	1.276501	-0.359554	0.051018
N52	N	1.776501	0.140446	0.551018
C53	C	1.341914	-0.329146	-0.000068
C54	C	1.841914	0.170854	0.499932
C55	C	1.335797	-0.584986	0.068580
C56	C	1.835797	-0.084986	0.568580
C57	C	1.334034	-0.657819	0.068583
C58	C	1.834034	-0.157819	0.568583
C59	C	1.334001	-0.657837	-0.068679
C60	C	1.834001	-0.157837	0.431321
C61	C	1.335752	-0.585004	-0.068680
C62	C	1.835752	-0.085004	0.431320
C63	C	1.336655	-0.548583	-0.000048
C64	C	1.836655	-0.048583	0.499952
C65	C	1.547747	0.096313	-0.000070
C66	C	2.047747	0.596313	0.499930
C67	C	1.673733	0.098167	-0.000072
C68	C	2.173733	0.598167	0.499928
C69	C	1.331296	0.228241	-0.000049
C70	C	1.831296	0.728241	0.499951
C71	C	1.333147	0.305756	-0.000042
C72	C	1.833147	0.805756	0.499958
N73	N	1.340185	0.100619	-0.179224
N74	N	1.840185	0.600619	0.320776
C75	C	1.408795	0.143254	-0.218827
C76	C	1.908795	0.643254	0.281173
C77	C	1.408813	0.143252	-0.298075
C78	C	1.908813	0.643252	0.201925
C79	C	1.340200	0.100624	-0.337716
C80	C	1.840200	0.600624	0.162284
C81	C	1.271586	0.057981	-0.298103
C82	C	1.771586	0.557981	0.201897
C83	C	1.271578	0.057979	-0.218857
C84	C	1.771578	0.557979	0.281143
N85	N	1.240802	0.098340	-0.462150
N86	N	1.740802	0.598340	0.037850
N87	N	1.240812	0.098346	-0.537431
N88	N	1.740812	0.598346	-0.037431
C89	C	1.340221	0.100626	-0.576480
C90	C	1.840221	0.600626	-0.076480
N91	N	1.439620	0.102913	-0.537405
N92	N	1.939620	0.602913	-0.037405
N93	N	1.439609	0.102911	-0.462117
N94	N	1.939609	0.602911	0.037883
C95	C	1.340201	0.100621	-0.423645
C96	C	1.840201	0.600621	0.076355
C97	C	1.408857	0.143260	-0.702013
C98	C	1.908857	0.643260	-0.202013
C99	C	1.408877	0.143254	-0.781262
C100	C	1.908877	0.643254	-0.281262
C101	C	1.271639	0.057987	-0.781289
C102	C	1.771639	0.557987	-0.281289
C103	C	1.271629	0.057989	-0.702041
C104	C	1.771629	0.557989	-0.202041
C105	C	1.340236	0.100630	-0.662408
C106	C	1.840236	0.600630	-0.162408
N107	N	1.340265	0.100624	0.179102
N108	N	1.840265	0.600624	0.679102
H109	H	1.347179	-0.111260	0.124439
H110	H	1.847179	0.388740	0.624439
Br111	Br	1.502009	0.201114	-0.835011
Br112	Br	2.002009	0.701114	-0.335011
H113	H	1.215705	0.023260	-0.186613
H114	H	1.715705	0.523260	0.313387
Br115	Br	1.501989	0.201113	-0.648220
Br116	Br	2.001989	0.701113	-0.148220
H117	H	1.343994	-0.243386	0.124445
H118	H	1.843994	0.256614	0.624445
H119	H	1.464685	0.177971	-0.330326
H120	H	1.964685	0.677971	0.169674
H121	H	1.347076	-0.111290	-0.124590
H122	H	1.847076	0.388710	0.375410
Br123	Br	1.343431	-0.263197	-0.161835
Br124	Br	1.843431	0.236803	0.338165
Br125	Br	1.337016	-0.535553	0.161720
Br126	Br	1.837016	-0.035553	0.661720
Br127	Br	1.332872	-0.707223	0.161728
Br128	Br	1.832872	-0.207223	0.661728
Br129	Br	1.332788	-0.707268	-0.161814
Br130	Br	1.832788	-0.207268	0.338186
H131	H	1.215774	0.023277	-0.813564
H132	H	1.715774	0.523277	-0.313564
Br133	Br	1.336897	-0.535597	-0.161821
Br134	Br	1.836897	-0.035597	0.338179
H135	H	1.464665	0.177972	-0.186563
H136	H	1.964665	0.677972	0.313437
H137	H	1.215722	0.023272	-0.330384
H138	H	1.715722	0.523272	0.169616
H139	H	1.215754	0.023275	-0.669796
H140	H	1.715754	0.523275	-0.169796
