data_functionalizedCrystal
_audit_creation_method	'MofGen! by Chris Wilmer'
_symmetry_space_group_name_H-M	'P1'
_symmetry_Int_Tables_number	1
_symmetry_cell_setting	triclinic
loop_
_symmetry_equiv_pos_as_xyz
  x,y,z
_cell_length_a	10.489741
_cell_length_b	10.723024
_cell_length_c	9.198806
_cell_angle_alpha	89.996352
_cell_angle_beta	89.999629
_cell_angle_gamma	95.496478
loop_
_atom_site_label
_atom_site_type_symbol
_atom_site_fract_x
_atom_site_fract_y
_atom_site_fract_z
O1	O	-0.178906	1.657297	-0.120871
O2	O	0.321094	2.157297	0.379129
O3	O	-0.196031	1.294155	-0.120874
O4	O	0.303969	1.794155	0.379126
O5	O	-0.001865	1.483989	-0.120876
O6	O	0.498135	1.983989	0.379124
O7	O	-0.373072	1.467463	-0.120869
O8	O	0.126928	1.967463	0.379131
O9	O	-0.001865	1.483974	0.120909
O10	O	0.498135	1.983974	0.620909
O11	O	-0.196030	1.294140	0.120911
O12	O	0.303970	1.794140	0.620911
O13	O	-0.178906	1.657282	0.120915
O14	O	0.321094	2.157282	0.620915
Cu15	Cu	-0.187468	1.475710	0.142990
Cu16	Cu	0.312532	1.975710	0.642990
Cu17	Cu	-0.187469	1.475728	-0.142949
Cu18	Cu	0.312531	1.975728	0.357051
O19	O	-0.373071	1.467448	0.120916
O20	O	0.126929	1.967448	0.620916
C21	C	-0.194785	1.247647	0.000018
C22	C	0.305215	1.747647	0.500018
C23	C	-0.191056	1.109091	0.000016
C24	C	0.308944	1.609091	0.500016
C25	C	-0.299701	1.034175	0.000017
C26	C	0.200299	1.534175	0.500017
C27	C	-0.295850	0.890969	0.000015
C28	C	0.204150	1.390969	0.500015
C29	C	-0.420602	1.468704	0.000024
C30	C	0.079398	1.968704	0.500024
C31	C	-0.562229	1.472438	0.000027
C32	C	-0.062229	1.972438	0.500027
C33	C	-0.630292	1.593224	0.000017
C34	C	-0.130292	2.093224	0.500017
C35	C	-0.722449	1.536158	0.119228
C36	C	-0.222449	2.036158	0.619228
C37	C	-0.722428	1.536145	-0.119154
C38	C	-0.222428	2.036145	0.380846
C39	C	-0.652521	1.415323	0.119336
C40	C	-0.152521	1.915323	0.619336
C41	C	-0.652490	1.415326	-0.119152
C42	C	-0.152490	1.915326	0.380848
C43	C	-0.744620	1.358173	0.000088
C44	C	-0.244620	1.858173	0.500088
C45	C	0.045666	1.482734	0.000013
C46	C	0.545666	1.982734	0.500013
C47	C	0.187293	1.478999	0.000001
C48	C	0.687293	1.978999	0.500001
C49	C	-0.180152	1.703790	0.000019
C50	C	0.319848	2.203790	0.500019
C51	C	-0.183881	1.842347	0.000012
C52	C	0.316119	2.342347	0.500012
N53	N	-0.187467	1.475706	0.344103
N54	N	0.312533	1.975706	0.844103
N55	N	-0.187460	1.475741	-0.344063
N56	N	0.312540	1.975741	0.155937
C57	C	-0.105583	1.555412	0.416300
C58	C	0.394417	2.055412	0.916300
C59	C	-0.105578	1.555431	0.583712
C60	C	0.394422	2.055431	1.083712
H61	H	-0.580581	1.692534	0.000136
H62	H	-0.080581	2.192534	0.500136
O63	O	-0.060670	0.927607	0.000021
O64	O	0.439330	1.427607	0.500021
H65	H	-0.004306	0.909341	-0.098530
H66	H	0.495694	1.409341	0.401470
H67	H	-0.095190	1.067210	-0.000023
H68	H	0.404810	1.567210	0.499977
H69	H	-0.794107	1.258774	0.000152
H70	H	-0.294107	1.758774	0.500152
O71	O	-0.611337	1.347726	-0.252651
O72	O	-0.111337	1.847726	0.247349
H73	H	-0.639007	1.398073	-0.351470
H74	H	-0.139007	1.898073	0.148530
H75	H	-0.257572	1.407503	0.593860
H76	H	0.242428	1.907503	1.093860
H77	H	-0.257563	1.407477	0.406232
H78	H	0.242437	1.907477	0.906232
H79	H	-0.621720	1.364250	0.220231
H80	H	-0.121720	1.864250	0.720231
H81	H	-0.753426	1.587259	0.220014
H82	H	-0.253426	2.087259	0.720014
H83	H	-0.753379	1.587280	-0.219934
H84	H	-0.253379	2.087280	0.280066
O85	O	-0.012707	1.645828	0.665934
O86	O	0.487293	2.145828	1.165934
H87	H	-0.027271	1.631651	0.784523
H88	H	0.472729	2.131651	1.284523
O89	O	-0.426697	1.089630	0.000020
O90	O	0.073303	1.589630	0.500020
H91	H	-0.409793	1.193408	0.000012
H92	H	0.090207	1.693408	0.500012
O93	O	-0.419062	0.805711	0.000029
O94	O	0.080938	1.305711	0.500029
H95	H	-0.396702	0.706612	0.000041
H96	H	0.103298	1.206612	0.500041
H97	H	-0.035476	1.623633	0.354173
H98	H	0.464524	2.123633	0.854173
