data_functionalizedCrystal
_audit_creation_method	'MofGen! by Chris Wilmer'
_symmetry_space_group_name_H-M	'P1'
_symmetry_Int_Tables_number	1
_symmetry_cell_setting	triclinic
loop_
_symmetry_equiv_pos_as_xyz
  x,y,z
_cell_length_a	17.038272
_cell_length_b	10.654541
_cell_length_c	9.130307
_cell_angle_alpha	90.000178
_cell_angle_beta	89.996293
_cell_angle_gamma	92.202258
loop_
_atom_site_label
_atom_site_type_symbol
_atom_site_fract_x
_atom_site_fract_y
_atom_site_fract_z
O1	O	0.109868	-1.678040	-0.121756
O2	O	0.609868	-1.178040	0.378244
O3	O	0.120338	-1.313534	-0.121769
O4	O	0.620338	-0.813534	0.378231
O5	O	0.001275	-1.493621	-0.121751
O6	O	0.501275	-0.993621	0.378249
O7	O	0.228930	-1.497953	-0.121774
O8	O	0.728930	-0.997953	0.378226
O9	O	0.001274	-1.493614	0.121848
O10	O	0.501274	-0.993614	0.621848
O11	O	0.120337	-1.313527	0.121830
O12	O	0.620337	-0.813527	0.621830
O13	O	0.109867	-1.678034	0.121843
O14	O	0.609867	-1.178034	0.621843
Cu15	Cu	0.115102	-1.495780	0.144079
Cu16	Cu	0.615102	-0.995780	0.644079
Cu17	Cu	0.115103	-1.495788	-0.144005
Cu18	Cu	0.615103	-0.995788	0.355995
O19	O	0.228929	-1.497947	0.121825
O20	O	0.728929	-0.997947	0.621825
C21	C	-0.027875	-1.489677	0.000048
C22	C	0.472125	-0.989677	0.500048
C23	C	-0.114734	-1.477920	0.000047
C24	C	0.385266	-0.977920	0.500047
C25	C	0.119569	-1.266661	0.000029
C26	C	0.619569	-0.766661	0.500029
C27	C	0.117270	-1.127004	0.000024
C28	C	0.617270	-0.627004	0.500024
N29	N	0.115100	-1.495784	0.346702
N30	N	0.615100	-0.995784	0.846702
C31	C	-0.164246	-1.585864	0.000053
C32	C	0.335754	-1.085864	0.500053
C33	C	-0.245858	-1.574809	0.000038
C34	C	0.254142	-1.074809	0.500038
C35	C	-0.277957	-1.455809	0.000029
C36	C	0.222043	-0.955809	0.500029
C37	C	-0.228439	-1.347857	0.000019
C38	C	0.271561	-0.847857	0.500019
C39	C	-0.146828	-1.358913	0.000023
C40	C	0.353172	-0.858913	0.500023
C41	C	-0.523933	-1.416751	0.000008
C42	C	-0.023933	-0.916751	0.500008
C43	C	-0.605550	-1.405704	0.000008
C44	C	-0.105550	-0.905704	0.500008
C45	C	-0.622963	-1.632657	0.000025
C46	C	-0.122963	-1.132657	0.500025
C47	C	-0.541350	-1.643703	0.000037
C48	C	-0.041350	-1.143703	0.500037
C49	C	-0.491839	-1.535750	0.000020
C50	C	0.008161	-1.035750	0.500020
C51	C	-0.361377	-1.444507	0.000019
C52	C	0.138623	-0.944507	0.500019
C53	C	-0.408420	-1.547054	0.000019
C54	C	0.091580	-1.047054	0.500019
C55	C	0.258080	-1.501891	0.000022
C56	C	0.758080	-1.001891	0.500022
C57	C	0.344939	-1.513648	0.000014
C58	C	0.844939	-1.013648	0.500014
C59	C	0.110635	-1.724907	0.000042
C60	C	0.610635	-1.224907	0.500042
C61	C	0.112934	-1.864564	0.000037
C62	C	0.612934	-1.364564	0.500037
C63	C	0.259642	-1.112253	-0.000008
C64	C	0.759642	-0.612253	0.499992
C65	C	0.329744	-1.039268	-0.000031
C66	C	0.829744	-0.539268	0.499969
C67	C	0.327580	-0.908049	-0.000032
C68	C	0.827580	-0.408049	0.499968
C69	C	0.255304	-0.849813	-0.000006
C70	C	0.755304	-0.349813	0.499994
C71	C	0.185202	-0.922798	0.000016
C72	C	0.685202	-0.422798	0.500016
C73	C	0.187374	-1.054019	0.000013
C74	C	0.687374	-0.554019	0.500013
C75	C	0.042832	-0.937548	0.000059
C76	C	0.542832	-0.437548	0.500059
C77	C	0.044995	-1.068768	0.000050
C78	C	0.544995	-0.568768	0.500050
C79	C	-0.029443	-0.879312	0.000084
C80	C	0.470557	-0.379312	0.500084
C81	C	-0.099548	-0.952297	0.000096
C82	C	0.400452	-0.452297	0.500096
C83	C	-0.097380	-1.083524	0.000096
C84	C	0.402620	-0.583524	0.500096
C85	C	-0.025108	-1.141753	0.000072
C86	C	0.474892	-0.641753	0.500072
N87	N	0.115098	-1.495793	-0.346628
N88	N	0.615098	-0.995793	0.153372
C89	C	0.009701	-1.655324	0.346708
C90	C	0.509701	-1.155324	0.846708
C91	C	-0.042996	-1.735102	0.423377
C92	C	0.457004	-1.235102	0.923377
C93	C	-0.042997	-1.735114	0.576711
C94	C	0.457003	-1.235114	1.076711
C95	C	0.009704	-1.655337	0.653378
C96	C	0.509704	-1.155337	1.153378
C97	C	0.062402	-1.575559	0.576708
C98	C	0.562402	-1.075559	1.076708
C99	C	0.062398	-1.575558	0.423371
C100	C	0.562398	-1.075558	0.923371
C101	C	0.167796	-1.416015	0.576702
C102	C	0.667796	-0.916015	1.076702
C103	C	0.167801	-1.416007	0.423369
C104	C	0.667801	-0.916007	0.923369
C105	C	0.220496	-1.336238	0.653370
C106	C	0.720496	-0.836238	1.153370
C107	C	0.273199	-1.256464	0.576700
C108	C	0.773199	-0.756464	1.076700
C109	C	0.273198	-1.256456	0.423357
C110	C	0.773198	-0.756456	0.923357
C111	C	0.220498	-1.336228	0.346699
C112	C	0.720498	-0.836228	0.846699
H113	H	-0.138118	-1.682766	0.000069
H114	H	0.361882	-1.182766	0.500069
H115	H	0.253548	-0.742967	0.000010
H116	H	0.753548	-0.242967	0.500010
H117	H	-0.085906	-1.800053	0.360942
H118	H	0.414094	-1.300053	0.860942
H119	H	-0.154466	-1.142941	0.000119
H120	H	0.345534	-0.642941	0.500119
H121	H	0.220496	-1.336233	0.221847
H122	H	0.720496	-0.836233	0.721847
H123	H	0.220490	-1.336246	0.778222
H124	H	0.720490	-0.836246	1.278222
C125	C	0.262030	-1.256597	-0.000022
C126	C	0.762030	-0.756597	0.499978
N127	N	0.263831	-1.365318	-0.000031
N128	N	0.763831	-0.865318	0.499969
C129	C	-0.300318	-1.693558	0.000068
C130	C	0.199682	-1.193558	0.500068
N131	N	-0.341337	-1.783005	0.000098
N132	N	0.158663	-1.283005	0.500098
H133	H	-0.023336	-1.248597	0.000054
H134	H	0.476664	-0.748597	0.500054
C135	C	0.331157	-1.168708	0.661043
C136	C	0.831157	-0.668708	1.161043
N137	N	0.374812	-1.102609	0.724576
N138	N	0.874812	-0.602609	1.224576
H139	H	-0.387521	-1.347616	0.000015
H140	H	0.112479	-0.847616	0.500015
H141	H	0.316107	-1.191485	0.360941
H142	H	0.816107	-0.691485	0.860941
H143	H	-0.515222	-1.740605	0.000045
H144	H	-0.015222	-1.240605	0.500045
H145	H	-0.663284	-1.720546	0.000036
H146	H	-0.163284	-1.220546	0.500036
H147	H	0.388590	-1.086699	-0.000047
H148	H	0.888590	-0.586699	0.499953
C149	C	-0.031823	-0.734967	0.000084
C150	C	0.468177	-0.234967	0.500084
N151	N	-0.033616	-0.626245	0.000079
N152	N	0.466384	-0.126245	0.500079
H153	H	0.384663	-0.848624	-0.000040
H154	H	0.884663	-0.348624	0.499960
H155	H	-0.158388	-0.904870	0.000115
H156	H	0.341612	-0.404870	0.500115
H157	H	0.009703	-1.655332	0.221856
H158	H	0.509703	-1.155332	0.721856
H159	H	0.009694	-1.655341	0.778230
H160	H	0.509694	-1.155341	1.278230
C161	C	-0.640856	-1.274789	-0.000013
C162	C	-0.140856	-0.774789	0.499987
N163	N	-0.667448	-1.176189	-0.000029
N164	N	-0.167448	-0.676189	0.499971
C165	C	-0.469481	-1.297999	-0.000019
C166	C	0.030519	-0.797999	0.499981
N167	N	-0.428465	-1.208548	-0.000044
N168	N	0.071535	-0.708548	0.499956
H169	H	-0.085910	-1.800072	0.639135
H170	H	0.414090	-1.300072	1.139135
H171	H	-0.254580	-1.250964	0.000003
H172	H	0.245420	-0.750964	0.500003
H173	H	-0.382282	-1.643943	-0.000006
H174	H	0.117718	-1.143943	0.499994
H175	H	-0.106516	-1.271013	0.000019
H176	H	0.393484	-0.771013	0.500019
