data_functionalizedCrystal
_audit_creation_method	'MofGen! by Chris Wilmer'
_symmetry_space_group_name_H-M	'P1'
_symmetry_Int_Tables_number	1
_symmetry_cell_setting	triclinic
loop_
_symmetry_equiv_pos_as_xyz
  x,y,z
_cell_length_a	19.077105
_cell_length_b	19.076808
_cell_length_c	11.169409
_cell_angle_alpha	92.337422
_cell_angle_beta	92.320653
_cell_angle_gamma	89.927608
loop_
_atom_site_label
_atom_site_type_symbol
_atom_site_fract_x
_atom_site_fract_y
_atom_site_fract_z
Zn1	Zn	1.063033	-0.322934	0.729201
Zn2	Zn	1.058214	-0.440468	0.520111
Zn3	Zn	0.945516	-0.318247	0.520804
Zn4	Zn	0.940771	-0.435684	0.713036
O5	O	1.001883	-0.379333	0.620788
O6	O	1.160725	-0.342489	0.707940
O7	O	1.043234	-0.424296	0.352248
O8	O	0.965107	-0.220533	0.555504
O9	O	1.157185	-0.428841	0.554322
O10	O	1.051446	-0.223976	0.708612
O11	O	0.960435	-0.334501	0.352758
O12	O	0.846554	-0.329861	0.539829
O13	O	0.957020	-0.420686	0.883135
O14	O	0.843068	-0.416141	0.681061
O15	O	1.046845	-0.337850	0.895012
O16	O	1.038633	-0.538170	0.538648
O17	O	0.952348	-0.534654	0.680389
C18	C	0.819315	-0.371974	0.608767
C19	C	0.741211	-0.368842	0.603652
C20	C	0.994472	-0.561910	0.607717
C21	C	0.991365	-0.640020	0.602169
C22	C	0.702718	-0.412361	0.674655
C23	C	0.629331	-0.409409	0.669855
C24	C	0.594438	-0.362942	0.594044
C25	C	0.632936	-0.319419	0.523038
C26	C	0.706322	-0.322368	0.527846
C27	C	0.375152	-0.349296	0.571801
C28	C	0.301761	-0.346352	0.566997
C29	C	0.298161	-0.436341	0.713815
C30	C	0.371548	-0.439289	0.718611
C31	C	0.410040	-0.395763	0.647609
N32	N	0.519425	-0.359926	0.589133
N33	N	0.485052	-0.398777	0.652528
C34	C	1.034825	-0.678447	0.679338
C35	C	1.031903	-0.751840	0.674127
C36	C	0.985525	-0.786803	0.591741
C37	C	0.942061	-0.748371	0.514568
C38	C	0.944980	-0.674980	0.519786
C39	C	0.971976	-1.006114	0.567587
C40	C	0.969063	-1.079510	0.562373
C41	C	1.058904	-1.082974	0.721934
C42	C	1.061821	-1.009581	0.727139
C43	C	1.018355	-0.971155	0.649971
N44	N	0.982539	-0.861822	0.586410
N45	N	1.021338	-0.896137	0.655309
C46	C	1.185165	-0.386722	0.632857
C47	C	1.263268	-0.389870	0.638000
C48	C	1.001940	-0.379257	0.933840
C49	C	1.001965	-0.379225	1.067244
C50	C	1.009343	-0.196044	0.633938
C51	C	1.012522	-0.117937	0.639542
C52	C	1.001869	-0.379360	0.308961
C53	C	1.001989	-0.379200	0.175580
H54	H	0.731122	-0.450201	0.736384
O55	O	1.111844	-0.971875	0.816003
H56	H	1.106577	-0.914386	0.806658
H57	H	0.909590	-0.643693	0.456948
O58	O	1.105773	-1.124424	0.805170
H59	H	1.161492	-1.112527	0.789298
O60	O	0.256664	-0.483322	0.790358
H61	H	0.271264	-0.471931	0.886378
H62	H	0.406483	-0.313860	0.513978
O63	O	0.925101	-0.964670	0.484357
H64	H	0.957902	-0.932494	0.427799
H65	H	0.273354	-0.308505	0.505271
H66	H	0.604521	-0.281582	0.461317
H67	H	0.931293	-1.107975	0.495283
H68	H	0.737662	-0.286927	0.470034
O69	O	0.587878	-0.456481	0.746305
H70	H	0.602464	-0.445163	0.842351
O71	O	0.892049	-0.786084	0.425696
H72	H	0.854956	-0.818099	0.474620
O73	O	0.409183	-0.489400	0.800388
H74	H	0.370087	-0.519160	0.848966
O75	O	1.078781	-0.793285	0.757357
H76	H	1.045983	-0.825448	0.813939
O77	O	1.084853	-0.640737	0.768188
H78	H	1.114579	-0.679791	0.820976
