data_functionalizedCrystal
_audit_creation_method	'MofGen! by Chris Wilmer'
_symmetry_space_group_name_H-M	'P1'
_symmetry_Int_Tables_number	1
_symmetry_cell_setting	triclinic
loop_
_symmetry_equiv_pos_as_xyz
  x,y,z
_cell_length_a	21.395362
_cell_length_b	14.908520
_cell_length_c	21.395355
_cell_angle_alpha	93.280325
_cell_angle_beta	89.956060
_cell_angle_gamma	93.337688
loop_
_atom_site_label
_atom_site_type_symbol
_atom_site_fract_x
_atom_site_fract_y
_atom_site_fract_z
Zn1	Zn	0.943513	-0.358891	-0.368965
Zn2	Zn	1.276847	-0.025558	-0.035632
Zn3	Zn	1.610180	0.307775	0.297702
Zn4	Zn	0.937386	-0.509736	-0.270231
Zn5	Zn	1.270719	-0.176403	0.063102
Zn6	Zn	1.604053	0.156930	0.396435
Zn7	Zn	0.838727	-0.358933	-0.264168
Zn8	Zn	1.172060	-0.025600	0.069165
Zn9	Zn	1.505393	0.307733	0.402499
Zn10	Zn	0.832667	-0.509755	-0.374937
Zn11	Zn	1.166000	-0.176422	-0.041603
Zn12	Zn	1.499334	0.156912	0.291730
O13	O	0.888073	-0.434329	-0.319575
O14	O	1.221407	-0.100996	0.013758
O15	O	1.554740	0.232338	0.347091
O16	O	1.030380	-0.378876	-0.355906
O17	O	1.363713	-0.045543	-0.022573
O18	O	1.697046	0.287791	0.310761
O19	O	0.924270	-0.489742	-0.181749
O20	O	1.257604	-0.156409	0.151584
O21	O	1.590937	0.176925	0.484917
O22	O	0.857727	-0.232679	-0.273033
O23	O	1.191060	0.100654	0.060301
O24	O	1.524394	0.433987	0.393634
O25	O	1.025878	-0.489701	-0.283367
O26	O	1.359211	-0.156368	0.049966
O27	O	1.692544	0.176966	0.383300
O28	O	0.934713	-0.232649	-0.350027
O29	O	1.268047	0.100685	-0.016693
O30	O	1.601380	0.434018	0.316640
O31	O	0.851786	-0.378948	-0.177295
O32	O	1.185119	-0.045614	0.156039
O33	O	1.518452	0.287719	0.489372
O34	O	0.750244	-0.378966	-0.278823
O35	O	1.083577	-0.045632	0.054510
O36	O	1.416911	0.287701	0.387843
O37	O	0.847399	-0.489733	-0.461822
O38	O	1.180733	-0.156399	-0.128489
O39	O	1.514066	0.176934	0.204845
O40	O	0.745792	-0.489773	-0.360205
O41	O	1.079125	-0.156440	-0.026871
O42	O	1.412459	0.176893	0.306462
O43	O	0.928838	-0.378894	-0.457435
O44	O	1.262171	-0.045561	-0.124101
O45	O	1.595504	0.287773	0.209232
O46	O	0.918395	-0.635987	-0.289157
O47	O	1.251728	-0.302654	0.044176
O48	O	1.585061	0.030679	0.377509
O49	O	0.841458	-0.636001	-0.366084
O50	O	1.174791	-0.302668	-0.032751
O51	O	1.508125	0.030666	0.300583
C52	C	0.725284	-0.434377	-0.319504
C53	C	1.058617	-0.101043	0.013829
C54	C	1.391950	0.232290	0.347162
C55	C	0.655641	-0.434419	-0.319490
C56	C	0.988974	-0.101086	0.013843
C57	C	1.322307	0.232248	0.347177
C58	C	0.620623	-0.492193	-0.361808
C59	C	0.953956	-0.158860	-0.028475
C60	C	1.287289	0.174474	0.304858
C61	C	0.555188	-0.492171	-0.361835
C62	C	0.888522	-0.158838	-0.028502
C63	C	1.221855	0.174496	0.304831
C64	C	0.524774	-0.434384	-0.319533
C65	C	0.858107	-0.101051	0.013800
C66	C	1.191440	0.232283	0.347134
C67	C	0.559800	-0.376599	-0.277212
C68	C	0.893133	-0.043265	0.056122
C69	C	1.226467	0.290068	0.389455
C70	C	0.625234	-0.376616	-0.277190
C71	C	0.958567	-0.043283	0.056143
C72	C	1.291900	0.290050	0.389477
C73	C	0.421340	-0.427116	-0.262837
C74	C	0.754673	-0.093783	0.070497
C75	C	1.088006	0.239550	0.403830
C76	C	0.355907	-0.427105	-0.262858
C77	C	0.689240	-0.093772	0.070476
C78	C	1.022574	0.239561	0.403809
C79	C	0.322956	-0.434325	-0.319600
C80	C	0.656289	-0.100992	0.013733
C81	C	0.989622	0.232341	0.347067
C82	C	0.355444	-0.441575	-0.376324
C83	C	0.688777	-0.108242	-0.042991
C84	C	1.022110	0.225091	0.290343
C85	C	0.420877	-0.441593	-0.376302
C86	C	0.754210	-0.108259	-0.042969
C87	C	1.087544	0.225074	0.290364
C88	C	0.453823	-0.434358	-0.319552
C89	C	0.787156	-0.101025	0.013781
C90	C	1.120489	0.232308	0.347115
C91	C	0.216986	-0.492079	-0.361951
C92	C	0.550319	-0.158745	-0.028618
C93	C	0.883653	0.174588	0.304716
C94	C	0.151550	-0.492050	-0.361979
C95	C	0.484884	-0.158717	-0.028646
C96	C	0.818217	0.174617	0.304688
C97	C	0.156163	-0.376483	-0.277350
C98	C	0.489497	-0.043149	0.055983
C99	C	0.822830	0.290184	0.389317
C100	C	0.221598	-0.376506	-0.277327
C101	C	0.554931	-0.043173	0.056006
C102	C	0.888264	0.290160	0.389339
C103	C	0.252005	-0.434309	-0.319627
C104	C	0.585338	-0.100976	0.013706
C105	C	0.918672	0.232358	0.347039
C106	C	0.878621	-0.668729	-0.328940
C107	C	1.211954	-0.335396	0.004393
C108	C	1.545287	-0.002062	0.337726
C109	C	0.874634	-0.769006	-0.332968
C110	C	1.207968	-0.435673	0.000366
C111	C	1.541301	-0.102339	0.333699
C112	C	0.947340	-0.957362	-0.260497
C113	C	1.280673	-0.624029	0.072837
C114	C	1.614007	-0.290696	0.406170
C115	C	0.943596	-1.051582	-0.264279
C116	C	1.276930	-0.718248	0.069055
C117	C	1.610263	-0.384915	0.402388
C118	C	0.863407	-1.051666	-0.344317
C119	C	1.196741	-0.718332	-0.010983
C120	C	1.530074	-0.384999	0.322350
C121	C	0.867151	-0.957446	-0.340535
C122	C	1.200484	-0.624113	-0.007201
C123	C	1.533817	-0.290780	0.326132
C124	C	0.909118	-0.910298	-0.298623
C125	C	1.242451	-0.576965	0.034711
C126	C	1.575785	-0.243631	0.368044
C127	C	0.912858	-0.816077	-0.294838
C128	C	1.246191	-0.482744	0.038496
C129	C	1.579524	-0.149410	0.371829
C130	C	0.832672	-0.816163	-0.374879
C131	C	1.166006	-0.482830	-0.041545
C132	C	1.499339	-0.149496	0.291788
C133	C	0.828929	-0.910382	-0.378661
C134	C	1.162262	-0.577049	-0.045327
C135	C	1.495595	-0.243716	0.288006
C136	C	1.051498	-0.434282	-0.319647
C137	C	1.384832	-0.100948	0.013687
C138	C	1.718165	0.232385	0.347020
C139	C	1.121141	-0.434262	-0.319677
C140	C	1.454474	-0.100928	0.013656
C141	C	1.787807	0.232405	0.346990
C142	C	0.888126	-0.434311	-0.482998
C143	C	1.221459	-0.100977	-0.149665
C144	C	1.554793	0.232356	0.183669
C145	C	0.888148	-0.434303	-0.552639
C146	C	1.221482	-0.100970	-0.219306
C147	C	1.554815	0.232364	0.114028
C148	C	0.897580	-0.199014	-0.310187
C149	C	1.230913	0.134319	0.023146
C150	C	1.564246	0.467653	0.356479
C151	C	0.901631	-0.098737	-0.306187
C152	C	1.234964	0.234597	0.027147
C153	C	1.568297	0.567930	0.360480
C154	C	0.930552	-0.376587	-0.583068
C155	C	1.263885	-0.043253	-0.249735
C156	C	1.597218	0.290080	0.083598
C157	C	0.930553	-0.376548	-0.648502
C158	C	1.263886	-0.043215	-0.315169
C159	C	1.597219	0.290119	0.018164
C160	C	0.888156	-0.434242	-0.683505
C161	C	1.221489	-0.100908	-0.350171
C162	C	1.554822	0.232425	-0.016838
C163	C	0.845745	-0.491962	-0.653068
C164	C	1.179078	-0.158628	-0.319734
C165	C	1.512411	0.174705	0.013599
C166	C	0.845741	-0.491992	-0.587635
C167	C	1.179074	-0.158659	-0.254301
C168	C	1.512408	0.174674	0.079032
C169	C	0.879933	-0.515477	-0.790423
C170	C	1.213266	-0.182143	-0.457090
C171	C	1.546599	0.151190	-0.123757
C172	C	0.879941	-0.515447	-0.855855
C173	C	1.213274	-0.182114	-0.522522
C174	C	1.546607	0.151219	-0.189189
C175	C	0.888164	-0.434146	-0.885322
C176	C	1.221497	-0.100813	-0.551988
C177	C	1.554830	0.232520	-0.218655
C178	C	0.896392	-0.352872	-0.849348
C179	C	1.229725	-0.019538	-0.516015
C180	C	1.563058	0.313795	-0.182682
C181	C	0.896388	-0.352902	-0.783915
C182	C	1.229721	-0.019569	-0.450582
C183	C	1.563055	0.313764	-0.117249
C184	C	0.888155	-0.434214	-0.754456
C185	C	1.221488	-0.100881	-0.421123
C186	C	1.554821	0.232452	-0.087789
C187	C	0.930570	-0.376383	-0.986702
C188	C	1.263903	-0.043050	-0.653369
C189	C	1.597237	0.290284	-0.320035
C190	C	0.930566	-0.376343	-1.052137
C191	C	1.263900	-0.043009	-0.718804
C192	C	1.597233	0.290324	-0.385470
C193	C	0.845761	-0.491764	-1.056701
C194	C	1.179095	-0.158431	-0.723368
C195	C	1.512428	0.174902	-0.390035
C196	C	0.845762	-0.491797	-0.991267
C197	C	1.179095	-0.158463	-0.657934
C198	C	1.512429	0.174870	-0.324601
C199	C	0.888170	-0.434107	-0.956272
C200	C	1.221503	-0.100774	-0.622938
C201	C	1.554836	0.232559	-0.289605
C202	C	0.888059	-0.434282	-0.156786
C203	C	1.221393	-0.100949	0.176548
C204	C	1.554726	0.232385	0.509881
C205	C	0.888169	-0.434036	-0.087135
C206	C	1.221502	-0.100702	0.246198
C207	C	1.554835	0.232631	0.579532
H208	H	0.526671	-0.539217	-0.396298
H209	H	0.860005	-0.205884	-0.062965
H210	H	1.193338	0.127450	0.270368
H211	H	0.448164	-0.421233	-0.216627
H212	H	0.781497	-0.087900	0.116706
H213	H	1.114830	0.245434	0.450040
Cl214	Cl	0.117934	-0.303830	-0.224173
Cl215	Cl	0.451268	0.029503	0.109160
Cl216	Cl	0.784601	0.362837	0.442494
H217	H	0.447326	-0.447493	-0.422489
H218	H	0.780660	-0.114160	-0.089156
H219	H	1.113993	0.219173	0.244178
H220	H	0.250110	-0.329465	-0.242864
H221	H	0.583443	0.003868	0.090469
H222	H	0.916776	0.337202	0.423802
H223	H	0.123040	-0.539095	-0.396443
H224	H	0.456373	-0.205762	-0.063110
H225	H	0.789706	0.127572	0.270223
Cl226	Cl	0.991650	-1.110745	-0.216348
Cl227	Cl	1.324984	-0.777412	0.116985
Cl228	Cl	1.658317	-0.444079	0.450318
H229	H	0.873245	-0.581626	-0.885140
H230	H	1.206578	-0.248293	-0.551807
H231	H	1.539911	0.085041	-0.218473
Cl232	Cl	0.521566	-0.303948	-0.224035
Cl233	Cl	0.854899	0.029385	0.109299
Cl234	Cl	1.188233	0.362719	0.442632
Cl235	Cl	0.792454	-0.564362	-0.953011
Cl236	Cl	1.125787	-0.231029	-0.619678
Cl237	Cl	1.459121	0.102304	-0.286344
Cl238	Cl	0.810662	-1.110953	-0.397010
Cl239	Cl	1.143995	-0.777620	-0.063676
Cl240	Cl	1.477328	-0.444287	0.269657
H241	H	0.965083	-0.329610	-0.554579
H242	H	1.298416	0.003723	-0.221245
H243	H	1.631749	0.337056	0.112088
Cl244	Cl	1.000087	-0.898087	-0.207799
Cl245	Cl	1.333420	-0.564753	0.125534
Cl246	Cl	1.666754	-0.231420	0.458867
Cl247	Cl	0.906732	-0.250657	-0.886384
Cl248	Cl	1.240066	0.082676	-0.553051
Cl249	Cl	1.573399	0.416009	-0.219718
H250	H	0.794762	-0.948783	-0.412786
H251	H	1.128096	-0.615450	-0.079452
H252	H	1.461429	-0.282117	0.253881
H253	H	0.801547	-0.777832	-0.405921
H254	H	1.134881	-0.444499	-0.072588
H255	H	1.468214	-0.111166	0.260745
H256	H	0.965095	-0.329338	-1.076911
H257	H	1.298429	0.003995	-0.743578
H258	H	1.631762	0.337329	-0.410245
Cl259	Cl	0.965613	-0.756806	-0.242147
Cl260	Cl	1.298947	-0.423472	0.091187
Cl261	Cl	1.632280	-0.090139	0.424520
H262	H	0.965081	-0.329544	-0.673283
H263	H	1.298415	0.003790	-0.339949
H264	H	1.631748	0.337123	-0.006616
Cl265	Cl	0.983878	-0.303856	-0.942704
Cl266	Cl	1.317211	0.029477	-0.609371
Cl267	Cl	1.650545	0.362811	-0.276038
Cl268	Cl	0.792456	-0.564286	-1.100698
Cl269	Cl	1.125790	-0.230953	-0.767365
Cl270	Cl	1.459123	0.102380	-0.434031
Cl271	Cl	0.869613	-0.617696	-0.753387
Cl272	Cl	1.202946	-0.284363	-0.420054
Cl273	Cl	1.536280	0.048970	-0.086720
H274	H	0.903086	-0.286726	-0.754629
H275	H	1.236419	0.046607	-0.421295
H276	H	1.569753	0.379941	-0.087962
Cl277	Cl	0.792444	-0.564487	-0.697070
Cl278	Cl	1.125777	-0.231154	-0.363736
Cl279	Cl	1.459110	0.102179	-0.030403
Cl280	Cl	0.255215	-0.564737	-0.415131
Cl281	Cl	0.588549	-0.231404	-0.081797
Cl282	Cl	0.921882	0.101929	0.251536
H283	H	0.811208	-0.538991	-0.562859
H284	H	1.144541	-0.205657	-0.229526
H285	H	1.477875	0.127676	0.103807
Cl286	Cl	0.314027	-0.450647	-0.447663
Cl287	Cl	0.647360	-0.117314	-0.114329
Cl288	Cl	0.980693	0.216019	0.219004
Cl289	Cl	0.669259	-0.303980	-0.223985
Cl290	Cl	1.002592	0.029353	0.109348
Cl291	Cl	1.335925	0.362687	0.442682
Cl292	Cl	0.658846	-0.564855	-0.414988
Cl293	Cl	0.992179	-0.231522	-0.081655
Cl294	Cl	1.325512	0.101812	0.251679
H295	H	0.329460	-0.421207	-0.216670
H296	H	0.662793	-0.087874	0.116664
H297	H	0.996127	0.245459	0.449997
