data_functionalizedCrystal
_audit_creation_method	'MofGen! by Chris Wilmer'
_symmetry_space_group_name_H-M	'P1'
_symmetry_Int_Tables_number	1
_symmetry_cell_setting	triclinic
loop_
_symmetry_equiv_pos_as_xyz
  x,y,z
_cell_length_a	19.188930
_cell_length_b	16.109302
_cell_length_c	15.186229
_cell_angle_alpha	90.005299
_cell_angle_beta	90.008857
_cell_angle_gamma	83.303281
loop_
_atom_site_label
_atom_site_type_symbol
_atom_site_fract_x
_atom_site_fract_y
_atom_site_fract_z
O1	O	0.089746	1.102833	0.073278
O2	O	0.589746	1.602833	0.573278
O3	O	0.100914	0.860734	0.073273
O4	O	0.600914	1.360734	0.573273
O5	O	-0.006309	0.988770	0.073258
O6	O	0.493691	1.488770	0.573258
O7	O	0.196970	0.974797	0.073292
O8	O	0.696970	1.474797	0.573292
O9	O	-0.006310	0.988761	-0.073199
O10	O	0.493690	1.488761	0.426801
O11	O	0.100913	0.860725	-0.073185
O12	O	0.600913	1.360725	0.426815
O13	O	0.089745	1.102824	-0.073179
O14	O	0.589745	1.602824	0.426821
Zn15	Zn	0.095329	0.981774	-0.096435
Zn16	Zn	0.595329	1.481774	0.403565
Zn17	Zn	0.095331	0.981785	0.096529
Zn18	Zn	0.595331	1.481785	0.596529
O19	O	0.196968	0.974788	-0.073165
O20	O	0.696968	1.474788	0.426835
C21	C	0.100461	0.829756	0.000043
C22	C	0.600461	1.329756	0.500043
C23	C	0.099105	0.737466	0.000040
C24	C	0.599105	1.237466	0.500040
C25	C	0.095967	0.525130	-0.079786
C26	C	0.595967	1.025130	0.420214
C27	C	0.094685	0.438415	-0.079783
C28	C	0.594685	0.938415	0.420217
C29	C	0.094690	0.438434	0.079893
C30	C	0.594690	0.938434	0.579893
C31	C	0.095967	0.525149	0.079889
C32	C	0.595967	1.025149	0.579889
C33	C	0.096609	0.568495	0.000047
C34	C	0.596609	1.068495	0.500047
C35	C	0.094050	0.395064	0.000054
C36	C	0.594050	0.895064	0.500054
C37	C	0.092660	0.301043	0.000058
C38	C	0.592660	0.801043	0.500058
C39	C	0.097998	0.662522	0.000043
C40	C	0.597998	1.162522	0.500043
C41	C	-0.032322	0.988313	0.000027
C42	C	0.467678	1.488313	0.500027
C43	C	-0.109829	0.986955	0.000020
C44	C	0.390171	1.486955	0.500020
C45	C	-0.154578	1.062082	0.000017
C46	C	0.345422	1.562082	0.500017
C47	C	-0.227404	1.060806	0.000031
C48	C	0.272596	1.560806	0.500031
C49	C	-0.255480	0.984398	0.000030
C50	C	0.244520	1.484398	0.500030
C51	C	-0.210722	0.909261	0.000037
C52	C	0.289278	1.409261	0.500037
C53	C	-0.137897	0.910539	0.000032
C54	C	0.362103	1.410539	0.500032
N55	N	-0.363622	0.925991	-0.049814
N56	N	0.136378	1.425991	0.450186
N57	N	-0.432803	0.924782	-0.049810
N58	N	0.067197	1.424782	0.450190
C59	C	-0.474897	0.980542	0.000048
C60	C	0.025103	1.480542	0.500048
N61	N	-0.445198	1.037571	0.049892
N62	N	0.054802	1.537571	0.549892
N63	N	-0.376011	1.038782	0.049885
N64	N	0.123989	1.538782	0.549885
C65	C	-0.334446	0.983004	0.000036
C66	C	0.165554	1.483004	0.500036
C67	C	-0.598613	1.054291	0.000062
C68	C	-0.098613	1.554291	0.500062
C69	C	-0.671441	1.053012	0.000081
C70	C	-0.171441	1.553012	0.500081
C71	C	-0.654757	0.901465	0.000079
C72	C	-0.154757	1.401465	0.500079
C73	C	-0.581931	0.902746	0.000068
C74	C	-0.081931	1.402746	0.500068
C75	C	-0.553864	0.979162	0.000055
C76	C	-0.053864	1.479162	0.500055
C77	C	0.222981	0.975245	0.000068
C78	C	0.722981	1.475245	0.500068
C79	C	0.300489	0.976604	0.000082
C80	C	0.800489	1.476604	0.500082
C81	C	0.090198	1.133802	0.000052
C82	C	0.590198	1.633802	0.500052
C83	C	0.091555	1.226093	0.000061
C84	C	0.591555	1.726093	0.500061
N85	N	0.095327	0.981772	-0.228128
N86	N	0.595327	1.481772	0.271872
C87	C	0.047864	1.038485	-0.453857
C88	C	0.547864	1.538485	0.046143
C89	C	0.047863	1.038488	-0.546047
C90	C	0.547863	1.538488	-0.046047
C91	C	0.142792	0.925073	-0.546043
C92	C	0.642792	1.425073	-0.046043
C93	C	0.142789	0.925068	-0.453855
C94	C	0.642789	1.425068	0.046145
C95	C	0.095327	0.981778	-0.407764
C96	C	0.595327	1.481778	0.092236
C97	C	0.095327	0.981787	-0.592142
C98	C	0.595327	1.481787	-0.092142
C99	C	0.095326	0.981789	-0.692098
C100	C	0.595326	1.481789	-0.192098
C101	C	0.095327	0.981775	-0.307802
C102	C	0.595327	1.481775	0.192198
N103	N	0.095327	0.981793	0.228221
N104	N	0.595327	1.481793	0.728221
H105	H	0.096488	0.560458	0.144903
H106	H	0.596488	1.060458	0.644903
C107	C	0.093987	0.390717	-0.167605
C108	C	0.593987	0.890717	0.332395
N109	N	0.093463	0.354791	-0.233757
N110	N	0.593463	0.854791	0.266243
C111	C	0.096665	0.572808	-0.167614
C112	C	0.596665	1.072808	0.332386
N113	N	0.097187	0.608718	-0.233769
N114	N	0.597187	1.108718	0.266231
H115	H	0.094168	0.403132	0.144897
H116	H	0.594168	0.903132	0.644897
C117	C	-0.004352	1.100862	-0.403160
C118	C	0.495648	1.600862	0.096840
N119	N	-0.043685	1.147844	-0.364978
N120	N	0.456315	1.647844	0.135022
H121	H	0.181439	0.878886	-0.416324
H122	H	0.681439	1.378886	0.083676
H123	H	0.009214	1.084663	-0.583573
H124	H	0.509214	1.584663	-0.083573
H125	H	-0.677615	0.839252	0.000082
H126	H	-0.177615	1.339252	0.500082
H127	H	-0.131731	1.124305	0.000010
H128	H	0.368269	1.624305	0.500010
C129	C	-0.276637	1.143455	0.000023
C130	C	0.223363	1.643455	0.500023
N131	N	-0.313716	1.205707	0.000014
N132	N	0.186284	1.705707	0.500014
H133	H	-0.545495	0.841569	0.000065
H134	H	-0.045495	1.341569	0.500065
C135	C	0.194997	0.862694	-0.596751
C136	C	0.694997	1.362694	-0.096751
N137	N	0.234318	0.815707	-0.634944
N138	N	0.734318	1.315707	-0.134944
C139	C	-0.720665	1.135663	0.000074
C140	C	-0.220665	1.635663	0.500074
N141	N	-0.757741	1.197917	0.000064
N142	N	-0.257741	1.697917	0.500064
H143	H	-0.233585	0.847049	0.000038
H144	H	0.266415	1.347049	0.500038
C145	C	-0.088671	0.827890	0.000032
C146	C	0.411329	1.327890	0.500032
N147	N	-0.051594	0.765637	0.000031
N148	N	0.448406	1.265637	0.500031
C149	C	-0.567737	1.138349	0.000061
C150	C	-0.067737	1.638349	0.500061
N151	N	-0.544483	1.201662	0.000064
N152	N	-0.044483	1.701662	0.500064
