data_functionalizedCrystal
_audit_creation_method	'MofGen! by Chris Wilmer'
_symmetry_space_group_name_H-M	'P1'
_symmetry_Int_Tables_number	1
_symmetry_cell_setting	triclinic
loop_
_symmetry_equiv_pos_as_xyz
  x,y,z
_cell_length_a	17.699083
_cell_length_b	11.804365
_cell_length_c	17.699083
_cell_angle_alpha	101.805355
_cell_angle_beta	96.716985
_cell_angle_gamma	101.817837
loop_
_atom_site_label
_atom_site_type_symbol
_atom_site_fract_x
_atom_site_fract_y
_atom_site_fract_z
O1	O	1.019369	0.098859	-0.080427
O2	O	0.798996	0.098899	-0.092873
O3	O	0.915407	0.098867	0.023537
O4	O	0.902958	0.098890	-0.196838
O5	O	0.884760	-0.099180	-0.007078
O6	O	0.768350	-0.099149	-0.123489
O7	O	0.988722	-0.099189	-0.111043
Cu8	Cu	0.875738	-0.117252	-0.120061
Cu9	Cu	0.911981	0.116962	-0.083855
O10	O	0.872312	-0.099157	-0.227453
C11	C	0.755477	-0.000120	-0.107734
C12	C	0.671461	-0.000106	-0.106393
C13	C	0.622841	-0.000099	-0.174726
C14	C	0.543895	-0.000114	-0.173466
C15	C	0.513572	-0.000128	-0.103872
C16	C	0.562198	-0.000139	-0.035535
C17	C	0.641141	-0.000132	-0.036797
C18	C	0.243830	-0.000169	-0.030444
C19	C	0.164882	-0.000172	-0.029187
C20	C	0.146585	-0.000151	-0.167113
C21	C	0.225528	-0.000144	-0.168375
C22	C	0.274145	-0.000161	-0.100040
C23	C	0.359747	-0.000146	-0.101407
C24	C	0.427974	-0.000134	-0.102502
N25	N	0.850252	-0.281986	-0.145527
C26	C	0.998673	-0.655974	0.002782
C27	C	1.017952	-0.531318	0.022050
C28	C	0.976029	-0.468979	-0.019842
C29	C	0.914823	-0.531308	-0.081006
C30	C	0.895546	-0.655977	-0.100279
C31	C	0.872901	-0.468982	-0.122904
C32	C	0.811696	-0.531311	-0.184068
C33	C	0.792422	-0.655968	-0.203338
C34	C	0.834345	-0.718307	-0.161445
C35	C	0.892178	-0.344313	-0.103631
C36	C	0.789051	-0.344315	-0.206693
C37	C	0.769772	-0.468972	-0.225960
C38	C	1.032242	-0.000167	-0.096181
C39	C	1.116259	-0.000174	-0.097521
C40	C	0.899637	-0.000157	0.036426
C41	C	0.898299	-0.000157	0.120444
N42	N	0.937472	0.281696	-0.058384
C43	C	0.888081	-0.000131	-0.240342
C44	C	0.889421	-0.000123	-0.324359
C45	C	0.966630	-0.000171	0.169063
C46	C	0.965369	-0.000160	0.248008
C47	C	0.895775	-0.000144	0.278331
C48	C	0.827439	-0.000126	0.229707
C49	C	0.828702	-0.000129	0.150765
C50	C	0.822346	-0.000116	0.548072
C51	C	0.821088	-0.000117	0.627019
C52	C	0.959013	-0.000147	0.645315
C53	C	0.960276	-0.000149	0.566373
C54	C	0.891941	-0.000126	0.517756
C55	C	0.893309	-0.000135	0.432156
C56	C	0.894405	-0.000143	0.363929
H57	H	0.680727	-0.000137	0.018847
H58	H	1.014655	-0.000160	0.684909
C59	C	1.085295	-0.462759	0.089299
H60	H	1.090785	-0.379587	0.094764
H61	H	1.074046	-0.483172	0.136659
H62	H	1.132619	-0.483206	0.077947
C63	C	0.131526	-0.000199	0.047369
H64	H	0.171785	-0.000220	0.087885
H65	H	0.111791	0.068861	0.061408
H66	H	0.090429	-0.069275	0.040041
C67	C	0.747183	-0.000089	0.494601
H68	H	0.757900	-0.000076	0.443244
H69	H	0.707949	-0.069144	0.493103
H70	H	0.729336	0.068992	0.514460
C71	C	0.297301	-0.000179	0.044723
H72	H	0.267935	-0.000175	0.086351
H73	H	0.317796	-0.069241	0.036424
H74	H	0.339158	0.068895	0.057778
C75	C	0.528845	-0.000152	0.041018
H76	H	0.474868	-0.000142	0.031986
H77	H	0.534861	-0.069217	0.058473
H78	H	0.556226	0.068919	0.079823
C79	C	0.750887	-0.000112	0.263060
H80	H	0.759918	-0.000126	0.317037
H81	H	0.733442	0.068955	0.257037
H82	H	0.712072	-0.069181	0.235686
H83	H	0.647523	-0.000087	-0.231397
C84	C	0.753538	-0.000116	0.097284
H85	H	0.711907	-0.000117	0.126646
H86	H	0.761851	0.068947	0.076781
H87	H	0.740474	-0.069189	0.055434
C88	C	0.702455	-0.537543	-0.293242
H89	H	0.696986	-0.620713	-0.298720
H90	H	0.655117	-0.517124	-0.281930
H91	H	0.713743	-0.517108	-0.340589
C92	C	0.725103	-0.724533	-0.270620
H93	H	0.719632	-0.807704	-0.276102
H94	H	0.677766	-0.704112	-0.259306
H95	H	0.736391	-0.704094	-0.317966
H96	H	0.250213	-0.000128	-0.225045
H97	H	0.504312	-0.000107	-0.229109
C98	C	0.093101	-0.000149	-0.242285
H99	H	0.041740	-0.000169	-0.231572
H100	H	0.112958	0.068920	-0.260150
H101	H	0.091601	-0.069215	-0.281505
H102	H	0.754914	-0.293560	-0.240807
H103	H	0.991728	-0.367478	-0.004152
C104	C	0.959502	-0.275759	-0.036361
H105	H	0.964987	-0.192586	-0.030885
H106	H	0.948228	-0.296194	0.010986
H107	H	1.006836	-0.296190	-0.047691
H108	H	1.032806	-0.706739	0.036882
H109	H	0.818646	-0.819812	-0.177131
H110	H	1.021011	-0.000174	0.287591
C111	C	1.043184	-0.000188	0.135715
H112	H	1.083701	-0.000184	0.175981
H113	H	1.035860	-0.069252	0.094626
H114	H	1.057232	0.068884	0.115976
C115	C	1.036829	-0.000162	0.533022
H116	H	1.077348	-0.000157	0.573287
H117	H	1.029505	-0.069224	0.491932
H118	H	1.050873	0.068912	0.513284
C119	C	0.744533	-0.000084	0.660376
H120	H	0.704018	-0.000057	0.620118
H121	H	0.730482	-0.069144	0.680118
H122	H	0.751874	0.068991	0.701466
