data_functionalizedCrystal
_audit_creation_method	'MofGen! by Chris Wilmer'
_symmetry_space_group_name_H-M	'P1'
_symmetry_Int_Tables_number	1
_symmetry_cell_setting	triclinic
loop_
_symmetry_equiv_pos_as_xyz
  x,y,z
_cell_length_a	18.101398
_cell_length_b	18.101397
_cell_length_c	12.645323
_cell_angle_alpha	89.967526
_cell_angle_beta	89.986773
_cell_angle_gamma	90.016023
loop_
_atom_site_label
_atom_site_type_symbol
_atom_site_fract_x
_atom_site_fract_y
_atom_site_fract_z
Zn1	Zn	1.132201	-0.294912	-0.599123
Zn2	Zn	1.132112	-0.418762	-0.421839
Zn3	Zn	1.008353	-0.294929	-0.421897
Zn4	Zn	1.008334	-0.418706	-0.599084
O5	O	1.070250	-0.356827	-0.510486
O6	O	1.235822	-0.311357	-0.575598
O7	O	1.115666	-0.402366	-0.273500
O8	O	1.024826	-0.191294	-0.445446
O9	O	1.235757	-0.402349	-0.445349
O10	O	1.115817	-0.191281	-0.575654
O11	O	1.024740	-0.311387	-0.273542
O12	O	0.904717	-0.311333	-0.445408
O13	O	1.024794	-0.402254	-0.747437
O14	O	0.904703	-0.402271	-0.575587
O15	O	1.115799	-0.311303	-0.747465
O16	O	1.115648	-0.522387	-0.445311
O17	O	1.024708	-0.522347	-0.575532
C18	C	0.877839	-0.356798	-0.510501
C19	C	0.795525	-0.356804	-0.510532
C20	C	0.496434	-0.356847	-0.510488
C21	C	0.527776	-0.414340	-0.591988
C22	C	0.613394	-0.414160	-0.592324
C23	C	0.644817	-0.356826	-0.510510
C24	C	0.613749	-0.278823	-0.541045
C25	C	0.528104	-0.279169	-0.541624
C26	C	0.527981	-0.376670	-0.398255
C27	C	0.613631	-0.378381	-0.398855
C28	C	0.728676	-0.356809	-0.510520
C29	C	0.412575	-0.356859	-0.510480
C30	C	1.070187	-0.549238	-0.510434
C31	C	1.070227	-0.631552	-0.510448
C32	C	1.070322	-0.930643	-0.510545
C33	C	1.127379	-0.899313	-0.428394
C34	C	1.127577	-0.813694	-0.428606
C35	C	1.070275	-0.782260	-0.510496
C36	C	1.091436	-0.813267	-0.622232
C37	C	1.091877	-0.898912	-0.621785
C38	C	0.991952	-0.899146	-0.481926
C39	C	0.992339	-0.813497	-0.479432
C40	C	1.070247	-0.698401	-0.510475
C41	C	1.070351	-1.014502	-0.510573
C42	C	1.263412	-0.356857	-0.510472
C43	C	1.345726	-0.356870	-0.510465
C44	C	1.070305	-0.356770	-0.786991
C45	C	1.070328	-0.356746	-0.904821
C46	C	1.070334	-0.163665	-0.510561
C47	C	1.070369	-0.081351	-0.510592
C48	C	1.012900	-0.413693	-1.072368
C49	C	1.013050	-0.413975	-0.949808
C50	C	1.148358	-0.377932	-0.949319
C51	C	1.148043	-0.378289	-1.071917
C52	C	1.050463	-0.278293	-1.072039
C53	C	1.048722	-0.278763	-0.949433
C54	C	1.070238	-0.356831	-0.235056
C55	C	1.070359	-0.356647	-0.117227
H56	H	0.506376	-0.432576	-0.370507
F57	F	0.641585	-0.327620	-0.315218
F58	F	0.973661	-0.257882	-0.911432
F59	F	0.640197	-0.397016	-0.701015
H60	H	0.634399	-0.472003	-0.573185
H61	H	1.025906	-0.471417	-1.103173
H62	H	0.954866	-0.400563	-1.101857
H63	H	1.052140	-0.919634	-0.685102
H64	H	1.148079	-0.791763	-0.646887
H65	H	0.955188	-0.400717	-0.919722
F66	F	0.501003	-0.221281	-0.467422
H67	H	1.114300	-0.919957	-0.345294
F68	F	0.640171	-0.453411	-0.368759
F69	F	0.936385	-0.925630	-0.560131
H70	H	1.087515	-0.234013	-0.918811
F71	F	0.500839	-0.490193	-0.567260
F72	F	0.502012	-0.257195	-0.648866
H73	H	1.051149	-0.792903	-0.685086
H74	H	0.947540	-0.792107	-0.534886
F75	F	1.110233	-0.786295	-0.320326
F76	F	1.030252	-0.489891	-0.911469
F77	F	1.205817	-0.325341	-0.911237
H78	H	0.507712	-0.334792	-0.337530
F79	F	1.202844	-0.927375	-0.452856
H80	H	1.185629	-0.793155	-0.447540
F81	F	0.966790	-0.927459	-0.377277
F82	F	1.105163	-0.222740	-1.109958
H83	H	1.149162	-0.918834	-0.646029
F84	F	0.640354	-0.221312	-0.465881
H85	H	0.976383	-0.793239	-0.397203
F86	F	1.170085	-0.453155	-1.109297
H87	H	0.506266	-0.401391	-0.674665
F88	F	1.205866	-0.326305	-1.110709
F89	F	1.170781	-0.452014	-0.909189
F90	F	0.977385	-0.253053	-1.112451
F91	F	0.641803	-0.256449	-0.647121
