data_functionalizedCrystal
_audit_creation_method	'MofGen! by Chris Wilmer'
_symmetry_space_group_name_H-M	'P1'
_symmetry_Int_Tables_number	1
_symmetry_cell_setting	triclinic
loop_
_symmetry_equiv_pos_as_xyz
  x,y,z
_cell_length_a	19.077105
_cell_length_b	19.120786
_cell_length_c	19.077174
_cell_angle_alpha	89.927663
_cell_angle_beta	85.483752
_cell_angle_gamma	90.063747
loop_
_atom_site_label
_atom_site_type_symbol
_atom_site_fract_x
_atom_site_fract_y
_atom_site_fract_z
Zn1	Zn	1.078555	-0.340061	-0.426680
Zn2	Zn	1.578555	0.159939	0.073320
Zn3	Zn	1.068744	-0.452201	-0.303792
Zn4	Zn	1.568744	0.047799	0.196208
Zn5	Zn	0.956376	-0.330278	-0.304514
Zn6	Zn	1.456376	0.169722	0.195486
Zn7	Zn	0.955640	-0.452155	-0.416911
Zn8	Zn	1.455640	0.047845	0.083089
O9	O	1.014829	-0.393674	-0.362974
O10	O	1.514829	0.106326	0.137026
O11	O	1.175721	-0.359050	-0.414164
O12	O	1.675721	0.140950	0.085836
O13	O	1.050040	-0.431952	-0.205419
O14	O	1.550040	0.068048	0.294581
O15	O	0.976998	-0.233638	-0.325109
O16	O	1.476998	0.266362	0.174891
O17	O	1.168513	-0.441439	-0.323879
O18	O	1.668513	0.058561	0.176121
O19	O	1.066762	-0.240826	-0.414864
O20	O	1.566762	0.259174	0.085136
O21	O	0.967484	-0.342376	-0.205950
O22	O	1.467484	0.157624	0.294050
O23	O	0.857812	-0.342331	-0.315637
O24	O	1.357812	0.157669	0.184363
O25	O	0.975743	-0.441361	-0.516675
O26	O	1.475743	0.058639	-0.016675
O27	O	0.857271	-0.431874	-0.398216
O28	O	1.357271	0.068126	0.101784
O29	O	1.066048	-0.359006	-0.523852
O30	O	1.566048	0.140994	-0.023852
O31	O	1.049327	-0.550132	-0.314407
O32	O	1.549327	-0.050132	0.185593
O33	O	0.966230	-0.550098	-0.397516
O34	O	1.466230	-0.050098	0.102484
C35	C	0.832010	-0.386037	-0.355945
C36	C	1.332010	0.113963	0.144055
C37	C	0.753799	-0.382787	-0.352954
C38	C	1.253799	0.117213	0.147046
C39	C	1.006653	-0.575510	-0.354839
C40	C	1.506653	-0.075510	0.145161
C41	C	1.003221	-0.653305	-0.351385
C42	C	1.503221	-0.153305	0.148615
C43	C	0.716787	-0.427945	-0.394469
C44	C	1.216787	0.072055	0.105531
C45	C	0.643300	-0.424883	-0.391663
C46	C	1.143300	0.075117	0.108337
C47	C	0.606826	-0.376665	-0.347337
C48	C	1.106826	0.123335	0.152663
C49	C	0.643844	-0.331502	-0.305820
C50	C	1.143844	0.168498	0.194180
C51	C	0.717330	-0.334562	-0.308631
C52	C	1.217330	0.165438	0.191369
C53	C	0.387076	-0.362505	-0.334332
C54	C	0.887076	0.137495	0.165668
C55	C	0.313585	-0.359450	-0.331523
C56	C	0.813585	0.140550	0.168477
C57	C	0.313046	-0.452830	-0.417367
C58	C	0.813046	0.047170	0.082633
C59	C	0.386533	-0.455889	-0.420170
C60	C	0.886533	0.044111	0.079830
C61	C	0.423544	-0.410723	-0.378656
C62	C	0.923544	0.089277	0.121344
N63	N	0.531711	-0.373535	-0.344466
N64	N	1.031711	0.126465	0.155534
N65	N	0.498659	-0.413850	-0.381532
N66	N	0.998659	0.086150	0.118468
C67	C	1.048312	-0.693535	-0.396528
C68	C	1.548312	-0.193535	0.103472
C69	C	1.045084	-0.766630	-0.393283
C70	C	1.545084	-0.266630	0.106717
C71	C	0.996768	-0.799495	-0.344892
C72	C	1.496768	-0.299495	0.155108
C73	C	0.951673	-0.759260	-0.299747
C74	C	1.451673	-0.259260	0.200253
C75	C	0.954897	-0.686165	-0.302995
C76	C	1.454897	-0.186165	0.197005
C77	C	0.984692	-1.020009	-0.332747
C78	C	1.484692	-0.520009	0.167253
C79	C	0.981471	-1.093109	-0.329501
C80	C	1.481471	-0.593109	0.170499
C81	C	1.074883	-1.100474	-0.423039
C82	C	1.574883	-0.600474	0.076961
C83	C	1.078106	-1.027378	-0.426280
C84	C	1.578106	-0.527378	0.073720
C85	C	1.033008	-0.987149	-0.381138
C86	C	1.533008	-0.487149	0.118862
C87	C	0.993469	-0.874210	-0.341573
C88	C	1.493469	-0.374210	0.158427
C89	C	1.036304	-0.912435	-0.384460
C90	C	1.536304	-0.412435	0.115540
C91	C	1.198362	-0.401341	-0.370031
C92	C	1.698362	0.098659	0.129969
C93	C	1.276573	-0.404608	-0.373038
C94	C	1.776573	0.095392	0.126962
C95	C	1.021908	-0.401270	-0.546509
C96	C	1.521908	0.098730	-0.046509
C97	C	1.024925	-0.404507	-0.624721
C98	C	1.524925	0.095493	-0.124721
C99	C	1.023056	-0.211128	-0.371157
C100	C	1.523056	0.288872	0.128843
C101	C	1.026562	-0.133338	-0.374644
C102	C	1.526562	0.366662	0.125356
C103	C	0.983361	-0.359391	-0.661741
C104	C	1.483361	0.140609	-0.161741
C105	C	0.986193	-0.362438	-0.735228
C106	C	1.486193	0.137562	-0.235228
C107	C	1.030592	-0.410598	-0.771696
C108	C	1.530592	0.089402	-0.271696
C109	C	1.072157	-0.455719	-0.734671
C110	C	1.572157	0.044281	-0.234671
C111	C	1.069321	-0.452675	-0.661184
C112	C	1.569321	0.047325	-0.161184
C113	C	1.043678	-0.424707	-0.991448
C114	C	1.543678	0.075293	-0.491448
C115	C	1.046512	-0.427746	-1.064940
C116	C	1.546512	0.072254	-0.564940
C117	C	0.960547	-0.334466	-1.065493
C118	C	1.460547	0.165534	-0.565493
C119	C	0.957718	-0.331423	-0.992005
C120	C	1.457718	0.168577	-0.492005
C121	C	0.999280	-0.376546	-0.954986
C122	C	1.499280	0.123454	-0.454986
N123	N	1.033489	-0.413712	-0.846812
N124	N	1.533489	0.086288	-0.346812
N125	N	0.996379	-0.373435	-0.879870
N126	N	1.496379	0.126565	-0.379870
C127	C	1.007820	-0.386059	-0.180157
C128	C	1.507820	0.113941	0.319843
C129	C	1.004949	-0.382630	-0.101959
C130	C	1.504949	0.117370	0.398041
H131	H	0.746478	-0.467211	-0.430562
H132	H	1.246478	0.032789	0.069438
H133	H	1.117449	-1.000622	-0.465684
H134	H	1.617449	-0.500622	0.034316
O135	O	0.277200	-0.496764	-0.457723
O136	O	0.777200	0.003236	0.042277
C137	C	0.325152	-0.539961	-0.497466
C138	C	0.825152	-0.039961	0.002534
H139	H	0.376308	-0.543334	-0.470533
H140	H	0.876308	-0.043334	0.029467
H141	H	0.301728	-0.594537	-0.501613
H142	H	0.801728	-0.094537	-0.001613
H143	H	0.336194	-0.516946	-0.552387
H144	H	0.836194	-0.016946	-0.052387
O145	O	0.607259	-0.468778	-0.431883
O146	O	1.107259	0.031222	0.068117
C147	C	0.561179	-0.510493	-0.388095
C148	C	1.061179	-0.010493	0.111905
H149	H	0.549220	-0.483057	-0.335500
H150	H	1.049220	0.016943	0.164500
H151	H	0.510189	-0.518950	-0.414341
H152	H	1.010189	-0.018950	0.085659
H153	H	0.586864	-0.563202	-0.379038
H154	H	1.086864	-0.063202	0.120962
O155	O	0.945917	-0.318593	-0.771277
O156	O	1.445917	0.181407	-0.271277
C157	C	0.989649	-0.276816	-0.817350
C158	C	1.489649	0.223184	-0.317350
H159	H	1.042289	-0.304178	-0.829298
H160	H	1.542289	0.195822	-0.329298
H161	H	0.963401	-0.268396	-0.868346
H162	H	1.463401	0.231604	-0.368346
H163	H	0.998618	-0.224095	-0.791664
H164	H	1.498618	0.275905	-0.291664
O165	O	0.920147	-0.290569	-1.101346
O166	O	1.420147	0.209431	-0.601346
C167	C	0.880337	-0.247424	-1.053399
C168	C	1.380337	0.252576	-0.553399
H169	H	0.907248	-0.244034	-1.002233
H170	H	1.407248	0.255966	-0.502233
H171	H	0.876131	-0.192848	-1.076816
H172	H	1.376131	0.307152	-0.576816
H173	H	0.825440	-0.270500	-1.042378
H174	H	1.325440	0.229500	-0.542378
H175	H	0.921562	-0.292207	-0.962318
H176	H	1.421562	0.207793	-0.462318
H177	H	0.283891	-0.320178	-0.295432
H178	H	0.783891	0.179822	0.204568
H179	H	1.087659	-0.666781	-0.435930
H180	H	1.587659	-0.166781	0.064070
H181	H	1.075640	-0.885675	-0.423863
H182	H	1.575640	-0.385675	0.076137
O183	O	0.422913	-0.318603	-0.293938
O184	O	0.922913	0.181397	0.206062
C185	C	0.374961	-0.275380	-0.254227
C186	C	0.874961	0.224620	0.245773
H187	H	0.321197	-0.301765	-0.248453
H188	H	0.821197	0.198235	0.251547
H189	H	0.394383	-0.266410	-0.199949
H190	H	0.894383	0.233590	0.300051
H191	H	0.370527	-0.223014	-0.282165
H192	H	0.870527	0.276986	0.217835
H193	H	1.082670	-0.466965	-1.094629
H194	H	1.582670	0.033035	-0.594629
H195	H	0.747465	-0.297786	-0.274829
H196	H	1.247465	0.202214	0.225171
O197	O	0.940333	-0.312535	-0.626296
O198	O	1.440333	0.187465	-0.126296
C199	C	0.980786	-0.267254	-0.587341
C200	C	1.480786	0.232746	-0.087341
H201	H	1.037255	-0.266161	-0.611809
H202	H	1.537255	0.233839	-0.111809
H203	H	0.957730	-0.212297	-0.587948
H204	H	1.457730	0.287703	-0.087948
H205	H	0.980084	-0.286685	-0.530769
H206	H	1.480084	0.213315	-0.030769
H207	H	0.614142	-0.292240	-0.269732
H208	H	1.114142	0.207760	0.230268
O209	O	1.088969	-0.805605	-0.437154
O210	O	1.588969	-0.305605	0.062846
C211	C	1.132301	-0.760924	-0.480565
C212	C	1.632301	-0.260924	0.019435
H213	H	1.135933	-0.707735	-0.454157
H214	H	1.635933	-0.207735	0.045843
H215	H	1.187101	-0.784612	-0.489292
H216	H	1.687101	-0.284612	0.010708
H217	H	1.108910	-0.754295	-0.533348
H218	H	1.608910	-0.254295	-0.033348
O219	O	0.934469	-1.124922	-0.282474
O220	O	1.434469	-0.624922	0.217526
C221	C	0.895366	-1.073742	-0.243315
C222	C	1.395366	-0.573742	0.256685
H223	H	0.896315	-1.022719	-0.274354
H224	H	1.396315	-0.522719	0.225646
H225	H	0.838708	-1.092293	-0.232697
H226	H	1.338708	-0.592293	0.267303
H227	H	0.919454	-1.064829	-0.191229
H228	H	1.419454	-0.564829	0.308771
H229	H	1.077513	-0.461457	-0.961315
H230	H	1.577513	0.038543	-0.461315
H231	H	0.947972	-0.987260	-0.295989
H232	H	1.447972	-0.487260	0.204011
H233	H	1.108304	-0.494935	-0.764368
H234	H	1.608304	0.005065	-0.264368
H235	H	0.416224	-0.495154	-0.456263
H236	H	0.916224	0.004846	0.043737
O237	O	1.118581	-1.139586	-0.466961
O238	O	1.618581	-0.639586	0.033039
C239	C	1.078362	-1.182103	-0.508939
C240	C	1.578362	-0.682103	-0.008939
H241	H	1.024076	-1.157985	-0.512082
H242	H	1.524076	-0.657985	-0.012082
H243	H	1.105818	-1.186196	-0.564055
H244	H	1.605818	-0.686196	-0.064055
H245	H	1.072671	-1.236509	-0.484625
H246	H	1.572671	-0.736509	0.015375
O247	O	0.904705	-0.791262	-0.252832
O248	O	1.404705	-0.291262	0.247168
C249	C	0.858892	-0.833317	-0.289227
C250	C	1.358892	-0.333317	0.210773
H251	H	0.885241	-0.847469	-0.343040
H252	H	1.385241	-0.347469	0.156960
H253	H	0.846113	-0.883156	-0.257910
H254	H	1.346113	-0.383156	0.242090
H255	H	0.808276	-0.803334	-0.296160
H256	H	1.308276	-0.303334	0.203840
O257	O	0.911065	-0.647188	-0.259072
O258	O	1.411065	-0.147188	0.240928
C259	C	0.867716	-0.691867	-0.215677
C260	C	1.367716	-0.191867	0.284323
H261	H	0.894150	-0.745048	-0.212052
H262	H	1.394150	-0.245048	0.287948
H263	H	0.859040	-0.668164	-0.160882
H264	H	1.359040	-0.168164	0.339118
H265	H	0.814904	-0.698516	-0.239003
H266	H	1.314904	-0.198516	0.260997
O267	O	0.946574	-0.906055	-0.294469
O268	O	1.446574	-0.406055	0.205531
C269	C	0.960107	-0.885965	-0.225735
C270	C	1.460107	-0.385965	0.274265
H271	H	0.989443	-0.833939	-0.227696
H272	H	1.489443	-0.333939	0.272304
H273	H	0.908240	-0.880098	-0.192295
H274	H	1.408240	-0.380098	0.307705
H275	H	0.993579	-0.927612	-0.201635
H276	H	1.493579	-0.427612	0.298365
O277	O	1.109764	-0.496531	-0.625331
O278	O	1.609764	0.003469	-0.125331
C279	C	1.149546	-0.539705	-0.673272
C280	C	1.649546	-0.039705	-0.173272
H281	H	1.155302	-0.513309	-0.727035
H282	H	1.655302	-0.013309	-0.227035
H283	H	1.203828	-0.548614	-0.653832
H284	H	1.703828	-0.048614	-0.153832
H285	H	1.121679	-0.592102	-0.677717
H286	H	1.621679	-0.092102	-0.177717
