data_functionalizedCrystal
_audit_creation_method	'MofGen! by Chris Wilmer'
_symmetry_space_group_name_H-M	'P1'
_symmetry_Int_Tables_number	1
_symmetry_cell_setting	triclinic
loop_
_symmetry_equiv_pos_as_xyz
  x,y,z
_cell_length_a	20.016444
_cell_length_b	14.560438
_cell_length_c	14.560438
_cell_angle_alpha	60.000905
_cell_angle_beta	90.002268
_cell_angle_gamma	60.002114
loop_
_atom_site_label
_atom_site_type_symbol
_atom_site_fract_x
_atom_site_fract_y
_atom_site_fract_z
Zr1	Zr	0.643579	1.005319	-0.120508
O2	O	0.536905	1.196915	-0.267153
O3	O	0.676281	0.813720	-0.075556
O4	O	0.676277	1.005324	-0.267157
O5	O	0.536911	1.005309	0.075588
O6	O	0.786217	1.005331	-0.267157
O7	O	0.536908	1.005311	-0.075552
O8	O	0.786223	0.662587	0.075581
O9	O	0.536905	1.348053	-0.267150
O10	O	0.772275	0.892534	-0.056382
O11	O	0.690230	0.892527	0.056413
O12	O	0.690226	1.118116	-0.169172
O13	O	0.608181	1.118108	-0.056377
Zr14	Zr	0.818925	1.005327	0.120543
Zr15	Zr	0.818921	1.005331	-0.120509
Zr16	Zr	0.643584	1.005315	0.120544
Zr17	Zr	0.643580	1.246367	-0.120504
Zr18	Zr	0.818925	0.764279	0.120539
O19	O	0.786224	1.196926	0.075591
O20	O	0.786218	1.196932	-0.267154
O21	O	0.536911	1.196909	0.075592
O22	O	0.925600	0.813730	0.267188
O23	O	0.925594	0.813736	-0.075557
O24	O	0.676287	0.813714	0.267189
O25	O	0.925594	1.005337	-0.075553
O26	O	0.786227	1.005322	0.267192
O27	O	0.676287	1.005315	0.267192
O28	O	0.925597	1.005334	0.075588
O29	O	0.676278	1.348062	-0.267151
O30	O	0.786227	0.662583	0.267186
O31	O	0.925600	0.662592	0.267185
O32	O	0.925596	0.662596	0.075581
O33	O	0.536908	1.348050	-0.075546
O34	O	0.676282	1.348059	-0.075546
O35	O	0.772279	0.892530	0.169207
O36	O	0.854324	0.892537	0.056413
O37	O	0.772275	1.118119	-0.056378
O38	O	0.690230	1.118112	0.056417
C39	C	0.731252	0.703809	0.000012
C40	C	0.731252	0.601478	0.000010
C41	C	0.774077	0.553406	-0.058868
C42	C	0.774080	0.457246	-0.058857
C43	C	0.688427	0.457244	0.058910
C44	C	0.688429	0.553395	0.058906
C45	C	0.511927	1.005308	0.000018
C46	C	0.437490	1.005304	0.000018
C47	C	0.309051	0.887567	0.058896
C48	C	0.239106	0.887573	0.058899
C49	C	0.153455	1.123088	-0.058863
C50	C	0.223399	1.123081	-0.058858
C51	C	0.301197	1.005317	0.000018
C52	C	0.161308	1.005329	0.000017
C53	C	0.085470	1.005336	0.000019
C54	C	0.377040	1.005309	0.000018
C55	C	0.950578	1.005337	0.000017
C56	C	1.025015	1.005342	0.000017
C57	C	0.731247	1.005328	-0.301502
C58	C	0.731245	1.005330	-0.403835
C59	C	0.731253	1.306837	0.000023
C60	C	0.731253	1.409168	0.000025
C61	C	0.688417	1.123079	-0.510786
C62	C	0.688427	1.123073	-0.606935
C63	C	0.774093	0.887558	-0.489167
C64	C	0.774087	0.887565	-0.393021
C65	C	0.731258	1.005318	0.301537
C66	C	0.731260	1.005316	0.403870
C67	C	0.950577	0.703823	0.000012
C68	C	1.025014	0.601497	0.000009
C69	C	0.731257	0.703804	0.301531
C70	C	0.731259	0.601471	0.403862
C71	C	0.950583	0.703818	0.301531
C72	C	1.025022	0.601490	0.403862
C73	C	0.511922	1.306827	-0.301496
C74	C	0.437483	1.409155	-0.403827
C75	C	0.511927	1.306822	0.000024
C76	C	0.437491	1.409148	0.000026
C77	C	0.731247	1.306842	-0.301496
C78	C	0.731245	1.409174	-0.403827
C79	C	1.017142	0.553442	-0.058879
C80	C	1.087076	0.457309	-0.058904
C81	C	1.164883	0.409227	-0.000032
C82	C	1.172753	0.457291	0.058858
C83	C	1.102820	0.553429	0.058875
C84	C	1.102813	0.553440	0.393040
C85	C	1.172763	0.457306	0.489181
C86	C	1.164920	0.409217	0.596144
C87	C	1.087120	0.457277	0.606964
C88	C	1.017172	0.553416	0.510823
C89	C	0.359692	1.457217	-0.393005
C90	C	0.289742	1.553382	-0.489146
C91	C	0.297585	1.601476	-0.596109
C92	C	0.375385	1.553409	-0.606929
C93	C	0.445333	1.457253	-0.510788
C94	C	0.445363	1.457214	0.058904
C95	C	0.375428	1.553373	0.058902
C96	C	0.297622	1.601459	0.000027
C97	C	0.289751	1.553390	-0.058859
C98	C	0.359685	1.457239	-0.058862
C99	C	0.774088	0.553395	0.510815
C100	C	0.774080	0.457251	0.606962
C101	C	0.688414	0.457265	0.489190
C102	C	0.688417	0.553413	0.393045
H103	H	0.653561	0.418084	0.106860
F104	F	0.070654	1.248413	-0.121522
F105	F	0.391848	0.762233	0.121561
F106	F	0.819655	0.604572	-0.121546
H107	H	0.808953	0.418107	-0.106799
F108	F	0.642851	0.604553	0.121582
F109	F	0.819683	0.604540	0.522332
F110	F	0.247471	0.762247	0.121569
H111	H	0.808955	0.418114	0.694045
F112	F	0.819672	0.762234	-0.279185
F113	F	0.528122	1.406105	-0.522323
H114	H	0.216998	1.218972	-0.106801
F115	F	0.223132	1.703814	-0.698422
H116	H	1.221821	0.330944	-0.000054
H117	H	0.508710	1.418069	0.106855
F118	F	0.642823	0.406108	0.477689
F119	F	0.934341	0.604601	-0.121546
F120	F	0.206937	1.604577	-0.121510
H121	H	0.240684	1.679752	0.000040
H122	H	0.353264	1.418106	-0.106805
H123	H	1.236113	0.418129	0.106789
H124	H	0.653532	1.218970	-0.519598
F125	F	0.642845	1.248398	-0.720761
F126	F	0.642826	0.604589	0.279208
H127	H	0.808973	0.791678	-0.480376
H128	H	0.381761	1.592580	-0.694029
H129	H	0.381853	1.592495	0.106858
H130	H	1.080652	0.418186	-0.106859
H131	H	1.109241	0.592543	0.106836
F132	F	1.255554	0.406170	0.477642
F133	F	1.111179	0.604608	0.279211
H134	H	1.221882	0.330934	0.674418
H135	H	1.080746	0.418108	0.694065
F136	F	0.934383	0.604539	0.522358
F137	F	0.351326	1.406047	-0.279176
H138	H	0.226402	1.592501	-0.480314
