data_functionalizedCrystal
_audit_creation_method	'MofGen! by Chris Wilmer'
_symmetry_space_group_name_H-M	'P1'
_symmetry_Int_Tables_number	1
_symmetry_cell_setting	triclinic
loop_
_symmetry_equiv_pos_as_xyz
  x,y,z
_cell_length_a	15.297475
_cell_length_b	21.295417
_cell_length_c	15.296720
_cell_angle_alpha	80.360665
_cell_angle_beta	88.382886
_cell_angle_gamma	80.331503
loop_
_atom_site_label
_atom_site_type_symbol
_atom_site_fract_x
_atom_site_fract_y
_atom_site_fract_z
Zn1	Zn	1.253322	-0.489899	0.726527
Zn2	Zn	1.753322	0.010101	1.226527
Zn3	Zn	1.278570	-0.580539	0.580029
Zn4	Zn	1.778570	-0.080539	1.080029
Zn5	Zn	1.132206	-0.454537	0.554773
Zn6	Zn	1.632206	0.045463	1.054773
Zn7	Zn	1.106797	-0.574351	0.701159
Zn8	Zn	1.606797	-0.074351	1.201159
O9	O	1.192724	-0.524831	0.640622
O10	O	1.692724	-0.024831	1.140622
O11	O	1.379247	-0.519311	0.728280
O12	O	1.879247	-0.019311	1.228280
O13	O	1.280354	-0.551615	0.454106
O14	O	1.780354	-0.051615	0.954106
O15	O	1.148339	-0.371152	0.577603
O16	O	1.648339	0.128848	1.077603
O17	O	1.397796	-0.585904	0.620649
O18	O	1.897796	-0.085904	1.120649
O19	O	1.237323	-0.397133	0.703790
O20	O	1.737323	0.102867	1.203790
O21	O	1.172821	-0.459042	0.435550
O22	O	1.672821	0.040958	0.935550
O23	O	1.006260	-0.453042	0.553004
O24	O	1.506260	0.046958	1.053004
O25	O	1.105034	-0.575358	0.827097
O26	O	1.605034	-0.075358	1.327097
O27	O	0.987593	-0.541069	0.660554
O28	O	1.487593	-0.041069	1.160554
O29	O	1.212686	-0.513312	0.845734
O30	O	1.712686	-0.013312	1.345734
O31	O	1.255717	-0.667793	0.596050
O32	O	1.755717	-0.167793	1.096050
O33	O	1.129516	-0.663248	0.685044
O34	O	1.629516	-0.163248	1.185044
C35	C	0.965144	-0.492547	0.601286
C36	C	1.465144	0.007453	1.101286
C37	C	0.867781	-0.478753	0.584479
C38	C	1.367781	0.021247	1.084479
C39	C	0.554611	-0.623425	0.760748
C40	C	1.054611	-0.123425	1.260748
C41	C	0.646089	-0.636390	0.776537
C42	C	1.146089	-0.136390	1.276537
C43	C	0.701516	-0.596982	0.728524
C44	C	1.201516	-0.096982	1.228524
C45	C	0.665457	-0.544607	0.664719
C46	C	1.165457	-0.044607	1.164719
C47	C	0.573971	-0.531644	0.648924
C48	C	1.073971	-0.031644	1.148924
C49	C	0.720876	-0.505200	0.616700
C50	C	1.220876	-0.005200	1.116700
C51	C	0.684816	-0.452825	0.552895
C52	C	1.184816	0.047175	1.052895
C53	C	0.593339	-0.439865	0.537103
C54	C	1.093339	0.060135	1.037103
C55	C	0.537912	-0.479273	0.585116
C56	C	1.037912	0.020727	1.085116
C57	C	0.812362	-0.518163	0.632495
C58	C	1.312362	-0.018163	1.132495
C59	C	0.831721	-0.426382	0.520671
C60	C	1.331721	0.073618	1.020671
C61	C	0.740243	-0.413417	0.504882
C62	C	1.240243	0.086583	1.004882
C63	C	1.192620	-0.688363	0.640558
C64	C	1.692620	-0.188363	1.140558
C65	C	1.192651	-0.758337	0.640574
C66	C	1.692651	-0.258337	1.140574
C67	C	1.238945	-0.804673	0.706314
C68	C	1.738945	-0.304673	1.206314
C69	C	1.238973	-0.870423	0.706341
C70	C	1.738973	-0.370423	1.206341
C71	C	1.192717	-0.889832	0.640614
C72	C	1.692717	-0.389832	1.140614
C73	C	1.146412	-0.843485	0.574868
C74	C	1.646412	-0.343485	1.074868
C75	C	1.146379	-0.777737	0.574848
C76	C	1.646379	-0.277737	1.074848
N77	N	1.199377	-0.984508	0.562817
N78	N	1.699377	-0.484508	1.062817
N79	N	1.199413	-1.046967	0.562840
N80	N	1.699413	-0.546967	1.062840
C81	C	1.192812	-1.087925	0.640671
C82	C	1.692812	-0.587925	1.140671
N83	N	1.186191	-1.064068	0.718484
N84	N	1.686191	-0.564068	1.218484
N85	N	1.186159	-1.001604	0.718462
N86	N	1.686159	-0.501604	1.218462
C87	C	1.192747	-0.961123	0.640629
C88	C	1.692747	-0.461123	1.140629
C89	C	1.239139	-1.205555	0.706446
C90	C	1.739139	-0.705555	1.206446
C91	C	1.239159	-1.271305	0.706473
C92	C	1.739159	-0.771305	1.206473
C93	C	1.146605	-1.244366	0.574993
C94	C	1.646605	-0.744366	1.074993
C95	C	1.146578	-1.178618	0.574973
C96	C	1.646578	-0.678618	1.074973
C97	C	1.192850	-1.159217	0.640699
C98	C	1.692850	-0.659217	1.140699
C99	C	1.421192	-0.557242	0.680112
C100	C	1.921192	-0.057242	1.180112
C101	C	1.518552	-0.571054	0.696940
C102	C	2.018552	-0.071054	1.196940
C103	C	1.153209	-0.547589	0.869086
C104	C	1.653209	-0.047589	1.369086
C105	C	1.136371	-0.557287	0.966444
C106	C	1.636371	-0.057287	1.466444
C107	C	1.192849	-0.360667	0.640709
C108	C	1.692849	0.139333	1.140709
C109	C	1.192902	-0.290710	0.640746
C110	C	1.692902	0.209290	1.140746
C111	C	1.232135	-0.502124	0.413055
C112	C	1.732135	-0.002124	0.913055
C113	C	1.249143	-0.492273	0.315727
C114	C	1.749143	0.007727	0.815727
C115	C	1.313105	-0.455413	1.279696
C116	C	1.813105	0.044587	1.779696
C117	C	1.328932	-0.446303	1.188224
C118	C	1.828932	0.053697	1.688224
C119	C	1.280793	-0.474048	1.132775
C120	C	1.780793	0.025952	1.632775
C121	C	1.216825	-0.510905	1.168805
C122	C	1.716825	-0.010905	1.668805
C123	C	1.201002	-0.520020	1.260287
C124	C	1.701002	-0.020020	1.760287
C125	C	1.168689	-0.538655	1.113366
C126	C	1.668689	-0.038655	1.613366
C127	C	1.104721	-0.575512	1.149396
C128	C	1.604721	-0.075512	1.649396
C129	C	1.088901	-0.584625	1.240869
C130	C	1.588901	-0.084625	1.740869
C131	C	1.137040	-0.556880	1.296318
C132	C	1.637040	-0.056880	1.796318
C133	C	1.184512	-0.529540	1.021884
C134	C	1.684512	-0.029540	1.521884
C135	C	1.072409	-0.594147	1.002475
C136	C	1.572409	-0.094147	1.502475
C137	C	1.056583	-0.603257	1.093947
C138	C	1.556583	-0.103257	1.593947
H139	H	0.463421	-0.468719	0.572266
H140	H	0.963421	0.031281	1.072266
H141	H	0.675443	-0.679034	0.828485
H142	H	1.175443	-0.179034	1.328485
H143	H	1.004499	-0.633266	1.123296
H144	H	1.504499	-0.133266	1.623296
N145	N	1.297838	-0.464215	1.034112
N146	N	1.797838	0.035785	1.534112
H147	H	1.317709	-0.507477	1.014826
H148	H	1.817709	-0.007477	1.514826
H149	H	1.345641	-0.436631	1.019762
H150	H	1.845641	0.063369	1.519762
H151	H	1.033212	-0.616741	0.957328
H152	H	1.533212	-0.116741	1.457328
H153	H	0.776001	-0.607540	0.741383
H154	H	1.276001	-0.107540	1.241383
N155	N	0.891484	-0.383868	0.468876
N156	N	1.391484	0.116132	0.968876
H157	H	0.936452	-0.410727	0.434769
H158	H	1.436452	0.089273	0.934769
H159	H	0.923229	-0.363676	0.511157
H160	H	1.423229	0.136324	1.011157
N161	N	1.019917	-0.624382	1.279738
N162	N	1.519917	-0.124382	1.779738
H163	H	1.036238	-0.669695	1.266142
H164	H	1.536238	-0.169695	1.766142
H165	H	0.960119	-0.604090	1.252993
H166	H	1.460119	-0.104090	1.752993
H167	H	0.710870	-0.370773	0.452931
H168	H	1.210870	0.129227	0.952931
N169	N	1.096721	-1.265293	0.504097
N170	N	1.596721	-0.765293	1.004097
H171	H	1.067391	-1.225959	0.462443
H172	H	1.567391	-0.725959	0.962443
H173	H	1.050007	-1.290383	0.532713
H174	H	1.550007	-0.790383	1.032713
N175	N	0.494834	-0.665930	0.812518
N176	N	0.994834	-0.165930	1.312518
H177	H	0.431412	-0.649772	0.792826
H178	H	0.931412	-0.149772	1.292826
H179	H	0.500011	-0.664709	0.877866
H180	H	1.000011	-0.164709	1.377866
N181	N	0.554445	-0.383372	0.468293
N182	N	1.054445	0.116628	0.968293
H183	H	0.488082	-0.381139	0.465574
H184	H	0.988082	0.118861	0.965574
H185	H	0.581238	-0.389121	0.408465
H186	H	1.081238	0.110879	0.908465
N187	N	1.288844	-0.783747	0.777206
N188	N	1.788844	-0.283747	1.277206
H189	H	1.318173	-0.823083	0.818858
H190	H	1.818173	-0.323083	1.318858
H191	H	1.246133	-0.755455	0.811536
H192	H	1.746133	-0.255455	1.311536
H193	H	1.381016	-0.416296	1.158895
H194	H	1.881016	0.083704	1.658895
N195	N	1.288907	-0.920412	0.777248
N196	N	1.788907	-0.420412	1.277248
H197	H	1.318214	-0.898144	0.818882
H198	H	1.818214	-0.398144	1.318882
H199	H	1.335643	-0.949876	0.748637
H200	H	1.835643	-0.449876	1.248637
N201	N	1.096522	-0.864414	0.503975
N202	N	1.596522	-0.364414	1.003975
H203	H	1.103571	-0.913097	0.513960
H204	H	1.603571	-0.413097	1.013960
H205	H	1.121020	-0.848640	0.443793
H206	H	1.621020	-0.348640	0.943793
N207	N	1.365028	-0.425497	1.339499
N208	N	1.865028	0.074503	1.839499
H209	H	1.345298	-0.436866	1.402915
H210	H	1.845298	0.063134	1.902915
H211	H	1.354198	-0.377019	1.321185
H212	H	1.854198	0.122981	1.821185
H213	H	0.841712	-0.560807	0.684446
H214	H	1.341712	-0.060807	1.184446
H215	H	1.108885	-1.140887	0.521438
H216	H	1.608885	-0.640887	1.021438
H217	H	1.108679	-0.740007	0.521314
H218	H	1.608679	-0.240007	1.021314
N219	N	1.253504	-0.489793	0.983027
N220	N	1.753504	0.010207	1.483027
H221	H	1.237186	-0.444478	0.996619
H222	H	1.737186	0.055522	1.496619
H223	H	1.256194	-0.488282	0.916676
H224	H	1.756194	0.011718	1.416676
H225	H	1.276813	-1.189759	0.759966
H226	H	1.776813	-0.689759	1.259966
H227	H	1.124158	-0.564295	1.370803
H228	H	1.624158	-0.064295	1.870803
H229	H	1.276857	-1.309033	0.760011
H230	H	1.776857	-0.809033	1.260011
