data_functionalizedCrystal
_audit_creation_method	'MofGen! by Chris Wilmer'
_symmetry_space_group_name_H-M	'P1'
_symmetry_Int_Tables_number	1
_symmetry_cell_setting	triclinic
loop_
_symmetry_equiv_pos_as_xyz
  x,y,z
_cell_length_a	18.050589
_cell_length_b	16.625547
_cell_length_c	16.625539
_cell_angle_alpha	90.027058
_cell_angle_beta	89.975176
_cell_angle_gamma	89.972593
loop_
_atom_site_label
_atom_site_type_symbol
_atom_site_fract_x
_atom_site_fract_y
_atom_site_fract_z
Zn1	Zn	-0.295674	-1.232648	-0.456068
Zn2	Zn	-0.419872	-1.232538	-0.321244
Zn3	Zn	-0.295698	-1.097810	-0.321234
Zn4	Zn	-0.419825	-1.097767	-0.456018
O5	O	-0.357767	-1.165191	-0.388641
O6	O	-0.312159	-1.345466	-0.438209
O7	O	-0.403430	-1.214638	-0.208410
O8	O	-0.191771	-1.115761	-0.339137
O9	O	-0.403406	-1.345385	-0.339154
O10	O	-0.191753	-1.214826	-0.438199
O11	O	-0.312200	-1.115654	-0.208403
O12	O	-0.312155	-0.984972	-0.339088
O13	O	-0.403327	-1.115687	-0.568858
O14	O	-0.403350	-0.984940	-0.438114
O15	O	-0.312113	-1.214784	-0.568894
O16	O	-0.523790	-1.214596	-0.339105
O17	O	-0.523756	-1.115580	-0.438124
C18	C	-0.357750	-0.955700	-0.388595
C19	C	-0.357761	-0.866079	-0.388594
C20	C	-0.357762	-0.793296	-0.388601
C21	C	-0.357764	-0.701988	-0.388618
C22	C	-0.357770	-0.629212	-0.388636
C23	C	-0.357774	-0.537897	-0.388651
C24	C	-0.550720	-1.165094	-0.388628
C25	C	-0.633265	-1.165126	-0.388649
C26	C	-0.832724	-1.111334	-0.442476
C27	C	-0.882166	-1.091677	-0.368898
C28	C	-0.784396	-1.165205	-0.388659
C29	C	-0.882036	-1.184901	-0.462246
C30	C	-0.930381	-1.165280	-0.388676
C31	C	-0.832750	-1.145510	-0.315042
C32	C	-0.832616	-1.238767	-0.408440
C33	C	-0.882035	-1.219139	-0.334811
C34	C	-0.700297	-1.165160	-0.388651
C35	C	-1.014477	-1.165325	-0.388676
C36	C	-0.164062	-1.165311	-0.388672
C37	C	-0.081516	-1.165362	-0.388685
C38	C	-0.357712	-1.165243	-0.598950
C39	C	-0.357688	-1.165266	-0.688571
C40	C	-0.357782	-0.375500	-0.388678
C41	C	-0.357780	-0.465121	-0.388669
C42	C	-0.357605	-1.165303	-1.016747
C43	C	-0.357631	-1.165290	-0.925439
C44	C	-0.357647	-1.165285	-0.852662
C45	C	-0.357672	-1.165271	-0.761348
C46	C	-0.357769	-1.165185	-0.179150
C47	C	-0.357583	-1.165319	-0.089530
H48	H	-0.903947	-1.029503	-0.352183
O49	O	-0.907799	-1.273425	-0.280416
C50	C	-0.980898	-1.295209	-0.161093
C51	C	-0.951783	-1.233655	-0.222652
H52	H	-1.016452	-1.263076	-0.114366
H53	H	-1.015659	-1.342507	-0.193331
H54	H	-0.932085	-1.325612	-0.129979
H55	H	-1.000551	-1.203193	-0.253785
H56	H	-0.917000	-1.186407	-0.190370
O57	O	-0.907989	-1.204700	-0.536438
C58	C	-1.015381	-1.227708	-0.619345
C59	C	-0.986093	-1.205267	-0.535290
H60	H	-1.078531	-1.228190	-0.618441
H61	H	-0.995178	-1.181675	-0.665170
H62	H	-0.994107	-1.289933	-0.636642
H63	H	-1.007355	-1.143061	-0.517918
H64	H	-1.006290	-1.251350	-0.489514
H65	H	-0.810837	-1.300928	-0.425190
O66	O	-0.806921	-1.056800	-0.496603
C67	C	-0.802936	-0.917667	-0.536908
C68	C	-0.832194	-0.979339	-0.475548
H69	H	-0.823370	-0.855028	-0.519916
H70	H	-0.739783	-0.918480	-0.536802
H71	H	-0.824040	-0.933852	-0.599473
H72	H	-0.811146	-0.963196	-0.412953
H73	H	-0.895347	-0.978514	-0.475724
O74	O	-0.806912	-1.125560	-0.240844
C75	C	-0.699639	-1.103188	-0.157581
C76	C	-0.728802	-1.125776	-0.241648
H77	H	-0.636485	-1.103371	-0.158199
H78	H	-0.720438	-1.040685	-0.140603
H79	H	-0.720414	-1.148844	-0.111684
H80	H	-0.708040	-1.080174	-0.287602
H81	H	-0.708009	-1.188299	-0.258558
