data_functionalizedCrystal
_audit_creation_method	'MofGen! by Chris Wilmer'
_symmetry_space_group_name_H-M	'P1'
_symmetry_Int_Tables_number	1
_symmetry_cell_setting	triclinic
loop_
_symmetry_equiv_pos_as_xyz
  x,y,z
_cell_length_a	14.519709
_cell_length_b	14.519731
_cell_length_c	16.776229
_cell_angle_alpha	89.992369
_cell_angle_beta	89.998478
_cell_angle_gamma	83.684499
loop_
_atom_site_label
_atom_site_type_symbol
_atom_site_fract_x
_atom_site_fract_y
_atom_site_fract_z
O1	O	1.223880	0.120892	-0.066186
O2	O	0.955404	0.135129	-0.066211
O3	O	1.096750	-0.006227	-0.066191
O4	O	1.082534	0.262248	-0.066206
O5	O	1.096731	-0.006235	0.066386
O6	O	0.955385	0.135120	0.066366
O7	O	1.223861	0.120883	0.066390
Zn8	Zn	1.089620	0.128000	0.087427
Zn9	Zn	1.089645	0.128012	-0.087248
O10	O	1.082515	0.262239	0.066370
C11	C	1.096075	-0.040591	0.000098
C12	C	1.094079	-0.142971	0.000098
C13	C	0.921035	0.134461	0.000074
C14	C	0.818654	0.132473	0.000065
C15	C	1.092457	-0.226115	0.000096
C16	C	1.090430	-0.330424	0.000090
C17	C	1.088822	-0.413563	0.000084
C18	C	1.086795	-0.517878	0.000080
C19	C	0.443757	0.125153	0.000102
C20	C	0.548065	0.127186	0.000091
C21	C	0.631202	0.128813	0.000083
C22	C	0.735517	0.130846	0.000074
C23	C	1.258230	0.121551	0.000103
C24	C	1.360612	0.123539	0.000107
C25	C	1.083191	0.296603	0.000080
C26	C	1.085187	0.398983	0.000074
N27	N	1.089610	0.127992	0.206639
N28	N	1.089663	0.128013	-0.206459
C29	C	1.152217	0.065425	0.248365
C30	C	1.152222	0.065425	0.331817
C31	C	1.089624	0.127995	0.373541
C32	C	1.027010	0.190565	0.331810
C33	C	1.027001	0.190560	0.248359
C34	C	1.027044	0.190583	0.668357
C35	C	1.027059	0.190584	0.751813
C36	C	1.152265	0.065447	0.751815
C37	C	1.152256	0.065443	0.668364
C38	C	1.089639	0.128009	0.626639
C39	C	1.089633	0.128007	0.536151
C40	C	1.089634	0.128002	0.464028
H41	H	1.203201	0.014478	0.365790
O42	O	1.219766	-0.002048	0.623359
H43	H	1.263296	-0.045563	0.666394
H44	H	0.976061	0.241528	0.634391
H45	H	1.203248	0.014500	0.785796
H46	H	0.976081	0.241539	0.785784
H47	H	0.976037	0.241508	0.365787
O48	O	0.959480	0.258046	0.203348
H49	H	0.915959	0.301564	0.246380
H50	H	1.203196	0.014477	0.214398
