data_functionalizedCrystal
_audit_creation_method	'MofGen! by Chris Wilmer'
_symmetry_space_group_name_H-M	'P1'
_symmetry_Int_Tables_number	1
_symmetry_cell_setting	triclinic
loop_
_symmetry_equiv_pos_as_xyz
  x,y,z
_cell_length_a	15.698487
_cell_length_b	23.196402
_cell_length_c	23.196402
_cell_angle_alpha	90.005244
_cell_angle_beta	60.004720
_cell_angle_gamma	59.999019
loop_
_atom_site_label
_atom_site_type_symbol
_atom_site_fract_x
_atom_site_fract_y
_atom_site_fract_z
Zr1	Zr	0.932383	0.555363	-0.075635
O2	O	1.110094	0.463304	-0.167683
O3	O	0.754673	0.583585	-0.047419
O4	O	0.932381	0.583574	-0.167685
O5	O	0.932388	0.463322	0.047452
O6	O	0.932379	0.678446	-0.167684
O7	O	0.932386	0.463314	-0.047417
O8	O	0.614491	0.678464	0.047449
O9	O	1.250275	0.463304	-0.167681
O10	O	0.827766	0.666422	-0.035383
O11	O	0.827769	0.595626	0.035417
O12	O	1.036998	0.595614	-0.106180
O13	O	1.037001	0.524819	-0.035381
Zr14	Zr	0.932383	0.706685	0.075672
Zr15	Zr	0.932380	0.706672	-0.075634
Zr16	Zr	0.932387	0.555376	0.075671
Zr17	Zr	1.155956	0.555363	-0.075632
Zr18	Zr	0.708810	0.706685	0.075669
O19	O	1.110094	0.678464	0.047457
O20	O	1.110089	0.678445	-0.167682
O21	O	1.110099	0.463322	0.047455
O22	O	0.754673	0.798745	0.167721
O23	O	0.754668	0.798726	-0.047418
O24	O	0.754678	0.583603	0.167719
O25	O	0.932379	0.798726	-0.047415
O26	O	0.932386	0.678474	0.167723
O27	O	0.932388	0.583603	0.167722
O28	O	0.932381	0.798734	0.047455
O29	O	1.250273	0.583574	-0.167680
O30	O	0.614494	0.678474	0.167718
O31	O	0.614491	0.798745	0.167718
O32	O	0.614489	0.798734	0.047450
O33	O	1.250278	0.463314	-0.047413
O34	O	1.250275	0.583584	-0.047412
O35	O	0.827769	0.666434	0.106218
O36	O	0.827766	0.737229	0.035418
O37	O	1.036998	0.666422	-0.035380
O38	O	1.037001	0.595626	0.035420
C39	C	0.652728	0.631024	0.000014
C40	C	0.557815	0.631024	0.000013
C41	C	0.932388	0.631040	0.189280
C42	C	0.932389	0.631046	0.253514
C43	C	0.932379	0.820288	0.000020
C44	C	0.932378	0.884523	0.000020
C45	C	0.384032	0.631023	0.000025
C46	C	0.480737	0.631022	0.000020
C47	C	1.212039	0.631024	0.000023
C48	C	1.306952	0.631024	0.000024
C49	C	0.932388	0.441760	0.000017
C50	C	0.932389	0.377525	0.000017
C51	C	0.823164	0.951657	0.036980
C52	C	0.823163	1.012012	0.036976
C53	C	0.932381	1.005229	0.000023
C54	C	1.041608	0.938083	-0.036944
C55	C	1.041607	0.877730	-0.036946
C56	C	1.016057	1.072531	0.005303
C57	C	1.016054	1.132885	0.005310
C58	C	0.932390	1.191377	0.000023
C59	C	0.848708	1.189515	-0.005256
C60	C	0.848707	1.129162	-0.005258
C61	C	0.932394	1.070668	0.000020
C62	C	0.823167	1.323958	0.036980
C63	C	0.823170	1.384313	0.036972
C64	C	1.041619	1.310381	-0.036944
C65	C	1.041613	1.250029	-0.036941
C66	C	0.932384	1.256822	0.000026
C67	C	0.932379	0.631008	-0.189243
C68	C	0.932378	0.631003	-0.253476
C69	C	1.041603	0.594088	0.246733
C70	C	1.041604	0.594077	0.307088
C71	C	0.932386	0.631039	0.374222
C72	C	0.823158	0.667998	0.381000
C73	C	0.823160	0.668001	0.320646
C74	C	0.848709	0.692941	0.498158
C75	C	0.848712	0.692940	0.558510
C76	C	0.932377	0.631027	0.560376
C77	C	1.016059	0.569116	0.501876
C78	C	1.016060	0.569119	0.441522
C79	C	0.932372	0.631039	0.439670
C80	C	1.041600	0.594054	0.619036
C81	C	1.041597	0.594042	0.679393
C82	C	0.823148	0.667969	0.753305
C83	C	0.823154	0.667975	0.692949
C84	C	0.932383	0.631019	0.625816
C85	C	0.652723	0.820289	0.000016
C86	C	0.557809	0.884523	0.000015
C87	C	0.652732	0.631040	0.189276
C88	C	0.557821	0.631046	0.253508
C89	C	0.652728	0.820305	0.189277
C90	C	0.557815	0.884545	0.253510
C91	C	1.212039	0.441743	-0.189240
C92	C	1.306952	0.377503	-0.253472
C93	C	1.212043	0.441759	0.000022
C94	C	1.306958	0.377525	0.000023
C95	C	1.212035	0.631008	-0.189238
C96	C	1.306946	0.631002	-0.253471
C97	C	0.513237	0.877728	-0.036949
C98	C	0.424067	0.938077	-0.036965
C99	C	0.379466	1.005222	-0.000011
C100	C	0.424047	1.012016	0.036954
C101	C	0.513221	0.951667	0.036965
C102	C	0.513250	0.668009	0.320636
C103	C	0.424083	0.668012	0.380994
C104	C	0.379483	0.631055	0.374224
C105	C	0.424063	0.594087	0.307089
C106	C	0.513234	0.594080	0.246732
C107	C	0.513242	0.951674	0.246717
C108	C	0.424073	1.012040	0.307065
C109	C	0.379475	1.005276	0.374204
C110	C	0.424057	0.938140	0.380995
C111	C	0.513230	0.877775	0.320648
C112	C	1.351536	0.310375	-0.246680
C113	C	1.440732	0.250008	-0.307027
C114	C	1.485335	0.256772	-0.374167
C115	C	1.440747	0.323908	-0.380958
C116	C	1.351559	0.384273	-0.320611
C117	C	1.351540	0.384320	0.036981
C118	C	1.440734	0.323971	0.036979
C119	C	1.485338	0.256826	0.000023
C120	C	1.440752	0.250032	-0.036939
C121	C	1.351566	0.310381	-0.036941
C122	C	1.351517	0.667967	-0.246677
C123	C	1.440685	0.667975	-0.307025
C124	C	1.485285	0.631015	-0.374164
C125	C	1.440705	0.594050	-0.380956
C126	C	1.351533	0.594045	-0.320610
H127	H	0.734221	0.957194	0.067079
C128	C	1.489783	0.553390	-0.454811
H129	H	1.549284	0.558684	-0.489773
H130	H	1.425779	0.571630	-0.460122
H131	H	1.524595	0.504762	-0.460108
C132	C	0.562245	0.553424	0.172895
H133	H	0.522899	0.531422	0.177514
H134	H	0.646441	0.518445	0.147805
H135	H	0.547608	0.585327	0.147818
C136	C	0.281393	0.631067	0.440619
H137	H	0.261213	0.603760	0.426977
H138	H	0.211820	0.678159	0.467920
H139	H	0.310643	0.611279	0.467916
C140	C	1.302465	0.708628	-0.172830
H141	H	1.242979	0.703332	-0.137856
H142	H	1.267670	0.757250	-0.167538
H143	H	1.366493	0.690376	-0.167536
C144	C	0.703023	1.331425	0.077633
H145	H	0.637977	1.380055	0.099637
H146	H	0.698480	1.309422	0.112607
H147	H	0.698484	1.309414	0.045729
C148	C	0.375037	1.085880	0.299582
H149	H	0.414359	1.081257	0.250952
H150	H	0.389659	1.110969	0.321579
H151	H	0.290837	1.110962	0.321589
C152	C	1.583437	0.190449	0.000033
H153	H	1.603587	0.204119	0.027344
H154	H	1.653024	0.163138	-0.047049
H155	H	1.554206	0.163147	0.019828
H156	H	1.476973	0.698076	-0.301481
C157	C	1.489766	0.331453	0.077638
H158	H	1.549284	0.285899	0.072342
H159	H	1.425743	0.356532	0.126259
H160	H	1.524543	0.356537	0.059383
H161	H	0.549510	0.823118	0.326189
C162	C	0.281366	1.071599	-0.000021
H163	H	0.261205	1.057929	-0.027324
H164	H	0.310580	1.098908	-0.019807
H165	H	0.211775	1.098904	0.047066
H166	H	0.549501	0.957210	0.067070
C167	C	1.108100	0.501009	0.503917
H168	H	1.096111	0.509869	0.548241
H169	H	1.187387	0.485992	0.467200
H170	H	1.097569	0.465152	0.497582
C171	C	0.703018	0.708640	0.700406
H172	H	0.637970	0.730658	0.749032
H173	H	0.698472	0.676746	0.678392
H174	H	0.698485	0.743619	0.678404
C175	C	0.756677	1.127109	-0.011074
H176	H	0.706852	1.170584	-0.014229
H177	H	0.708288	1.119940	0.029513
H178	H	0.798125	1.089539	-0.052112
H179	H	1.557895	0.631024	-0.423296
H180	H	0.387737	0.563997	0.301587
H181	H	1.477021	0.195350	-0.301484
H182	H	1.084195	1.024905	0.009606
H183	H	1.130546	1.195364	-0.067033
H184	H	1.477083	0.195355	-0.067027
H185	H	0.549541	0.957194	0.192054
H186	H	1.315253	0.563942	-0.326151
H187	H	1.315270	0.304838	-0.067035
C188	C	1.302491	0.458173	0.077631
H189	H	1.242981	0.493148	0.072346
H190	H	1.366514	0.463464	0.059376
H191	H	1.267702	0.463470	0.126255
C192	C	0.756673	1.253850	-0.011073
H193	H	0.768663	1.290059	-0.010324
H194	H	0.677383	1.270795	0.027567
H195	H	0.767210	1.240388	-0.054059
C196	C	0.281378	1.071681	0.440579
H197	H	0.261216	1.112627	0.426912
H198	H	0.310595	1.071697	0.467889
H199	H	0.211786	1.071693	0.467879
H200	H	0.549550	0.823061	-0.067050
C201	C	1.161745	0.930621	-0.077547
H202	H	1.146105	0.976180	-0.072234
H203	H	1.206680	0.905538	-0.126176
H204	H	1.206562	0.905547	-0.059259
C205	C	0.374994	0.930705	0.454849
H206	H	0.414312	0.882080	0.450259
H207	H	0.290797	0.952723	0.479925
H208	H	0.389622	0.952717	0.479923
H209	H	0.734225	1.066683	0.067085
C210	C	0.374968	1.085876	0.077606
H211	H	0.315466	1.120839	0.072309
H212	H	0.438971	1.091184	0.059368
H213	H	0.340158	1.091178	0.126233
C214	C	0.703032	1.458164	0.077628
H215	H	0.718674	1.493136	0.072329
H216	H	0.658162	1.463462	0.126249
H217	H	0.658149	1.463459	0.059377
H218	H	1.557958	0.207614	-0.423299
C219	C	0.562309	0.708655	0.328097
H220	H	0.522996	0.730657	0.376725
H221	H	0.547696	0.743631	0.306096
H222	H	0.646509	0.676740	0.306088
H223	H	1.130544	0.823065	-0.067044
H224	H	0.387780	0.932532	-0.067066
C225	C	0.375051	0.708685	0.454833
H226	H	0.414373	0.730703	0.450216
H227	H	0.389674	0.676795	0.479920
H228	H	0.290850	0.743664	0.479913
C229	C	1.161756	1.302914	-0.077417
H230	H	1.146117	1.348473	-0.072068
H231	H	1.206870	1.277817	-0.126065
H232	H	1.206394	1.277853	-0.059027
C233	C	1.302501	0.302920	-0.172834
H234	H	1.341851	0.254291	-0.177442
H235	H	1.218308	0.324924	-0.147749
H236	H	1.317127	0.324934	-0.147760
H237	H	1.477075	0.329407	-0.435630
C238	C	1.161735	0.553387	0.671936
H239	H	1.146093	0.558670	0.717495
H240	H	1.206605	0.571642	0.646870
H241	H	1.206617	0.504761	0.646852
C242	C	1.302511	0.458111	-0.328091
H243	H	1.341845	0.453487	-0.376721
H244	H	1.317111	0.483208	-0.306086
H245	H	1.218315	0.483186	-0.306094
H246	H	1.130541	0.563959	0.564373
H247	H	1.130546	0.563994	0.192075
C248	C	1.108091	1.134932	0.011124
H249	H	1.157930	1.091449	0.014261
H250	H	1.066659	1.172496	0.052156
H251	H	1.156482	1.142099	-0.029470
H252	H	1.130542	0.563979	0.301566
H253	H	1.084195	0.518709	0.393894
C254	C	0.703010	0.708602	0.827145
H255	H	0.718649	0.703303	0.862120
H256	H	0.658164	0.690337	0.832413
H257	H	0.658104	0.757234	0.832463
H258	H	0.780568	0.743360	0.496651
C259	C	0.703022	0.708651	0.454844
H260	H	0.718662	0.703360	0.489819
H261	H	0.658152	0.690398	0.460130
H262	H	0.658140	0.757279	0.460145
C263	C	0.703023	0.708659	0.328101
H264	H	0.718668	0.703365	0.282541
H265	H	0.658141	0.757282	0.353185
H266	H	0.658152	0.690401	0.353167
C267	C	0.756463	0.760987	0.622924
H268	H	0.768389	0.752107	0.659154
H269	H	0.677274	0.775872	0.639769
H270	H	0.766769	0.796949	0.609609
