data_functionalizedCrystal
_audit_creation_method	'MofGen! by Chris Wilmer'
_symmetry_space_group_name_H-M	'P1'
_symmetry_Int_Tables_number	1
_symmetry_cell_setting	triclinic
loop_
_symmetry_equiv_pos_as_xyz
  x,y,z
_cell_length_a	14.853567
_cell_length_b	16.098538
_cell_length_c	14.853567
_cell_angle_alpha	87.269523
_cell_angle_beta	83.634930
_cell_angle_gamma	92.739541
loop_
_atom_site_label
_atom_site_type_symbol
_atom_site_fract_x
_atom_site_fract_y
_atom_site_fract_z
O1	O	1.200393	0.069192	0.113684
O2	O	1.700393	0.569192	0.613684
O3	O	0.937934	0.069205	0.127705
O4	O	1.437934	0.569205	0.627705
O5	O	1.076174	0.069201	-0.010536
O6	O	1.576174	0.569201	0.489464
O7	O	1.062153	0.069196	0.251924
O8	O	1.562153	0.569196	0.751924
O9	O	1.068099	-0.069312	-0.002492
O10	O	1.568099	0.430688	0.497508
O11	O	0.929859	-0.069308	0.135748
O12	O	1.429859	0.430692	0.635748
O13	O	1.192317	-0.069321	0.121728
O14	O	1.692317	0.430679	0.621728
Zn15	Zn	1.059806	-0.091306	0.130015
Zn16	Zn	1.559806	0.408694	0.630015
Zn17	Zn	1.070445	0.091190	0.119417
Zn18	Zn	1.570445	0.591190	0.619417
O19	O	1.054077	-0.069316	0.259968
O20	O	1.554077	0.430684	0.759968
C21	C	0.900308	-0.000049	0.131091
C22	C	1.400308	0.499951	0.631091
C23	C	0.800224	-0.000044	0.129187
C24	C	1.300224	0.499956	0.629187
N25	N	1.052551	-0.215855	0.137247
N26	N	1.552551	0.284145	0.637247
C27	C	0.387689	-0.000061	0.039022
C28	C	0.887689	0.499939	0.539022
C29	C	0.366408	-0.000063	0.203255
C30	C	0.866408	0.499937	0.703255
C31	C	0.460442	-0.000060	0.205045
C32	C	0.960442	0.499940	0.705045
C33	C	0.518104	-0.000057	0.123822
C34	C	1.018104	0.499943	0.623822
C35	C	0.481733	-0.000056	0.040809
C36	C	0.981733	0.499944	0.540809
C37	C	0.496822	-0.000053	0.288056
C38	C	0.996822	0.499947	0.788056
C39	C	0.590861	-0.000049	0.289849
C40	C	1.090861	0.499951	0.789849
C41	C	0.648525	-0.000052	0.208626
C42	C	1.148525	0.499948	0.708626
C43	C	0.612147	-0.000052	0.125610
C44	C	1.112147	0.499948	0.625610
C45	C	0.669809	-0.000048	0.044387
C46	C	1.169809	0.499952	0.544387
C47	C	0.633434	-0.000054	-0.038630
C48	C	1.133434	0.499946	0.461370
C49	C	0.539396	-0.000058	-0.040414
C50	C	1.039396	0.499942	0.459586
C51	C	0.742562	-0.000047	0.210410
C52	C	1.242562	0.499953	0.710410
C53	C	0.763853	-0.000043	0.046174
C54	C	1.263853	0.499957	0.546174
C55	C	1.111247	-0.259442	0.078593
C56	C	1.611247	0.240558	0.578593
C57	C	1.106181	-0.346631	0.083661
C58	C	1.606181	0.153369	0.583661
C59	C	1.042422	-0.390231	0.147388
C60	C	1.542422	0.109769	0.647388
C61	C	0.983719	-0.346638	0.206044
C62	C	1.483719	0.153362	0.706044
C63	C	0.988782	-0.259451	0.200971
C64	C	1.488782	0.240549	0.700971
C65	C	1.024068	-0.653481	0.165761
C66	C	1.524068	-0.153481	0.665761
C67	C	1.019011	-0.740674	0.170832
C68	C	1.519011	-0.240674	0.670832
C69	C	1.141472	-0.740661	0.048447
C70	C	1.641472	-0.240661	0.548447
C71	C	1.146533	-0.653472	0.043383
C72	C	1.646533	-0.153472	0.543383
C73	C	1.087827	-0.609886	0.102037
C74	C	1.587827	-0.109886	0.602037
C75	C	1.037243	-0.479352	0.152571
C76	C	1.537243	0.020648	0.652571
C77	C	1.093002	-0.520767	0.096848
C78	C	1.593002	-0.020767	0.596848
C79	C	1.229944	-0.000065	0.118341
C80	C	1.729944	0.499935	0.618341
C81	C	1.330027	-0.000065	0.120245
C82	C	1.830027	0.499935	0.620245
C83	C	1.071501	-0.000053	-0.040103
C84	C	1.571501	0.499947	0.459897
C85	C	1.069598	-0.000046	-0.140187
C86	C	1.569598	0.499954	0.359813
N87	N	1.077707	0.215739	0.112178
N88	N	1.577707	0.715739	0.612178
C89	C	0.979432	-0.000057	-0.552720
C90	C	1.479432	0.499943	-0.052720
C91	C	1.143664	-0.000066	-0.574000
C92	C	1.643664	0.499934	-0.074000
C93	C	1.145454	-0.000061	-0.479967
C94	C	1.645454	0.499939	0.020033
C95	C	1.064232	-0.000055	-0.422305
C96	C	1.564232	0.499945	0.077695
C97	C	0.981219	-0.000055	-0.458677
C98	C	1.481219	0.499945	0.041323
C99	C	1.228465	-0.000070	-0.443587
C100	C	1.728465	0.499930	0.056413
C101	C	1.230259	-0.000066	-0.349549
C102	C	1.730259	0.499934	0.150451
C103	C	1.149036	-0.000055	-0.291886
C104	C	1.649036	0.499945	0.208114
C105	C	1.066020	-0.000053	-0.328263
C106	C	1.566020	0.499947	0.171737
C107	C	0.984797	-0.000048	-0.270601
C108	C	1.484797	0.499952	0.229399
C109	C	0.901781	-0.000040	-0.306977
C110	C	1.401781	0.499960	0.193023
C111	C	0.899996	-0.000044	-0.401014
C112	C	1.399996	0.499956	0.098986
C113	C	1.150820	-0.000051	-0.197848
C114	C	1.650820	0.499949	0.302152
C115	C	0.986585	-0.000046	-0.176559
C116	C	1.486585	0.499954	0.323441
C117	C	1.058750	-0.000061	0.289535
C118	C	1.558750	0.499939	0.789535
C119	C	1.060654	-0.000063	0.389619
C120	C	1.560654	0.499937	0.889619
H121	H	0.810796	-0.000043	-0.019968
H122	H	1.310796	0.499957	0.480032
O123	O	1.231261	-0.000077	-0.636192
O124	O	1.731261	0.499923	-0.136192
H125	H	1.289284	-0.000084	-0.595099
H126	H	1.789284	0.499916	-0.095099
O127	O	1.204781	-0.787668	-0.014821
O128	O	1.704781	-0.287668	0.485179
H129	H	1.190547	-0.855620	-0.000596
H130	H	1.690547	-0.355620	0.499404
O131	O	1.240347	-0.000054	-0.158610
O132	O	1.740347	0.499946	0.341390
H133	H	1.296525	-0.000055	-0.214504
H134	H	1.796525	0.499945	0.285496
O135	O	1.319797	-0.000054	-0.310324
O136	O	1.819797	0.499946	0.189676
H137	H	1.355549	-0.056506	-0.330197
H138	H	1.855549	0.443494	0.169803
H139	H	0.967088	-0.776169	0.222729
H140	H	1.467088	-0.276169	0.722729
H141	H	0.449868	-0.000047	0.354182
H142	H	0.949868	0.499953	0.854182
O143	O	0.914958	-0.393661	0.274787
O144	O	1.414958	0.106339	0.774787
H145	H	0.845635	-0.376950	0.262200
H146	H	1.345635	0.123050	0.762200
H147	H	0.985331	-0.514859	0.204460
H148	H	1.485331	-0.014859	0.704460
H149	H	0.911842	-0.000048	-0.582342
H150	H	1.411842	0.499952	-0.082342
H151	H	0.920443	-0.000038	-0.129616
H152	H	1.420443	0.499962	0.370384
H153	H	0.680395	-0.000046	-0.104762
H154	H	1.180395	0.499954	0.395238
H155	H	0.976269	-0.618000	0.213521
H156	H	1.476269	-0.118000	0.713521
O157	O	0.925461	-0.212447	0.264233
O158	O	1.425461	0.287553	0.764233
H159	H	0.883902	-0.172749	0.223882
H160	H	1.383902	0.327251	0.723882
H161	H	1.144912	-0.485265	0.044959
H162	H	1.644912	0.014735	0.544959
H163	H	0.620470	-0.000044	0.357446
H164	H	1.120470	0.499956	0.857446
H165	H	0.509769	-0.000083	-0.108001
H166	H	1.009769	0.499917	0.391999
H167	H	0.835650	-0.000042	-0.260016
H168	H	1.335650	0.499958	0.239984
H169	H	1.294591	-0.000082	-0.490541
H170	H	1.794591	0.499918	0.009459
O171	O	0.304223	-0.000062	0.290857
O172	O	0.804223	0.499938	0.790857
H173	H	0.313889	-0.056515	0.333856
H174	H	0.813889	0.443485	0.833856
O175	O	0.810467	-0.000048	-0.440256
O176	O	1.310467	0.499952	0.059744
H177	H	0.774723	0.056413	-0.420401
H178	H	1.274723	0.556413	0.079599
H179	H	0.772175	-0.000044	0.278000
H180	H	1.272175	0.499956	0.778000
O181	O	1.180013	-0.212417	0.009856
O182	O	1.680013	0.287583	0.509856
H183	H	1.219969	-0.257377	-0.030085
H184	H	1.719969	0.242623	0.469915
O185	O	1.169504	-0.393646	0.020416
O186	O	1.669504	0.106354	0.520416
H187	H	1.214703	-0.348680	-0.024736
H188	H	1.714703	0.151320	0.475264
O189	O	0.348466	-0.000069	-0.050516
O190	O	0.848466	0.499931	0.449484
H191	H	0.273388	-0.000071	-0.038119
H192	H	0.773388	0.499929	0.461881
H193	H	1.198451	-0.617974	-0.008508
H194	H	1.698451	-0.117974	0.491492
