data_functionalizedCrystal
_audit_creation_method	'MofGen! by Chris Wilmer'
_symmetry_space_group_name_H-M	'P1'
_symmetry_Int_Tables_number	1
_symmetry_cell_setting	triclinic
loop_
_symmetry_equiv_pos_as_xyz
  x,y,z
_cell_length_a	10.654551
_cell_length_b	8.559649
_cell_length_c	9.130313
_cell_angle_alpha	90.001752
_cell_angle_beta	89.998214
_cell_angle_gamma	102.868032
loop_
_atom_site_label
_atom_site_type_symbol
_atom_site_fract_x
_atom_site_fract_y
_atom_site_fract_z
O1	O	1.644678	-0.224189	-0.121773
O2	O	1.276994	-0.245547	-0.121780
O3	O	1.493230	-0.002625	-0.121774
O4	O	1.428443	-0.467111	-0.121778
O5	O	1.493221	-0.002622	0.121825
O6	O	1.276985	-0.245543	0.121819
O7	O	1.644670	-0.224186	0.121826
Cu8	Cu	1.460827	-0.234864	0.144065
Cu9	Cu	1.460837	-0.234868	-0.144019
O10	O	1.428434	-0.467107	0.121820
C11	C	1.230354	-0.243977	0.000019
C12	C	1.091395	-0.239284	0.000016
C13	C	0.895544	-0.232651	0.132804
C14	C	1.026107	-0.237074	0.132804
C15	C	1.026110	-0.237087	-0.132781
C16	C	0.895547	-0.232675	-0.132780
C17	C	0.830265	-0.230425	0.265600
C18	C	0.895541	-0.232625	0.398398
C19	C	1.026104	-0.237048	0.398398
C20	C	1.091392	-0.239271	0.265601
C21	C	1.498135	0.056852	0.000022
C22	C	1.512749	0.234070	0.000015
C23	C	1.691310	-0.225756	0.000024
C24	C	1.830268	-0.230449	0.000017
C25	C	1.423529	-0.526585	0.000020
C26	C	1.408914	-0.703803	0.000019
N27	N	1.460828	-0.234860	0.346688
C28	C	1.394102	-0.137150	0.423363
C29	C	1.394103	-0.137159	0.576699
C30	C	1.527566	-0.332593	0.576673
C31	C	1.527557	-0.332591	0.423339
C32	C	1.327374	-0.039419	0.346712
C33	C	1.260643	0.058301	0.423387
C34	C	1.260644	0.058292	0.576724
C35	C	1.327375	-0.039437	0.653385
N36	N	1.460838	-0.234871	0.653359
H37	H	0.842398	-0.230886	-0.240906
H38	H	1.308836	0.213810	0.000022
C39	C	1.187357	0.165924	0.339056
N40	N	1.132200	0.247037	0.275540
C41	C	1.647961	0.345378	0.000025
N42	N	1.749801	0.429217	0.000031
H43	H	1.327368	-0.039397	0.221857
H44	H	1.206299	0.137848	0.639148
H45	H	1.079278	-0.238895	-0.240898
C46	C	1.327368	-0.039446	0.822061
N47	N	1.327367	-0.039445	0.949106
C48	C	1.600976	-0.440075	0.661007
N49	N	1.656275	-0.521026	0.724527
C50	C	1.600963	-0.440074	0.338991
N51	N	1.656252	-0.521035	0.275461
H52	H	0.723955	-0.226820	0.265615
H53	H	1.079245	-0.238856	0.506528
C54	C	1.235015	-0.244144	0.265610
N55	N	1.343192	-0.247806	0.265618
C56	C	0.823720	-0.230187	0.544466
N57	N	0.769627	-0.228350	0.654488
