data_functionalizedCrystal
_audit_creation_method	'MofGen! by Chris Wilmer'
_symmetry_space_group_name_H-M	'P1'
_symmetry_Int_Tables_number	1
_symmetry_cell_setting	triclinic
loop_
_symmetry_equiv_pos_as_xyz
  x,y,z
_cell_length_a	15.944551
_cell_length_b	27.731996
_cell_length_c	14.421503
_cell_angle_alpha	89.998301
_cell_angle_beta	89.996859
_cell_angle_gamma	83.060063
loop_
_atom_site_label
_atom_site_type_symbol
_atom_site_fract_x
_atom_site_fract_y
_atom_site_fract_z
O1	O	1.113694	0.062335	-0.077027
O2	O	0.869041	0.070021	-0.077052
O3	O	0.998989	-0.004187	-0.077019
O4	O	0.983746	0.136544	-0.077061
O5	O	0.998967	-0.004176	0.077204
O6	O	0.869020	0.070032	0.077171
O7	O	1.113672	0.062346	0.077196
Cu8	Cu	0.991344	0.066190	0.091265
Cu9	Cu	0.991369	0.066177	-0.091122
O10	O	0.983725	0.136555	0.077163
C11	C	0.837741	0.069708	0.000057
C12	C	0.744508	0.068751	0.000048
C13	C	0.998665	-0.022190	0.000096
C14	C	0.997722	-0.075851	0.000105
C15	C	0.530298	0.020467	0.000081
C16	C	0.468988	0.042883	-0.075966
C17	C	0.573805	0.067021	0.000060
C18	C	0.468989	0.042905	0.076086
C19	C	0.408915	0.065346	0.000075
C20	C	0.513723	0.089450	-0.076050
C21	C	0.513730	0.089465	0.076071
C22	C	0.452437	0.111915	0.000005
C23	C	0.668794	0.067984	0.000050
C24	C	0.313926	0.064385	0.000078
C25	C	0.991800	-0.408599	-0.084008
C26	C	0.988218	-0.610273	-0.084024
O27	O	0.987729	-0.636350	-0.155521
N28	N	0.987762	-0.635486	0.000042
C29	C	0.988195	-0.610277	0.084118
O30	O	0.987716	-0.636349	0.155622
C31	C	0.991771	-0.408603	0.084134
C32	C	0.992236	-0.383394	0.000062
C33	C	0.992264	-0.383389	-0.168073
C34	C	0.993164	-0.332974	-0.168068
C35	C	0.993600	-0.307769	-0.083998
C36	C	0.993135	-0.332979	0.000067
C37	C	0.992198	-0.383395	0.168210
C38	C	0.993089	-0.332973	0.168206
C39	C	0.993555	-0.307764	0.084134
C40	C	0.994471	-0.257358	0.084142
N41	N	0.994928	-0.232145	0.000076
C42	C	0.994492	-0.257350	-0.083994
C43	C	0.986320	-0.716158	0.084104
C44	C	0.985428	-0.766576	0.084101
C45	C	0.985449	-0.766569	-0.084043
C46	C	0.986348	-0.716150	-0.084038
C47	C	0.986776	-0.690945	0.000038
C48	C	0.996382	-0.151475	-0.083977
C49	C	0.997286	-0.101056	-0.083965
C50	C	0.997260	-0.101068	0.084178
C51	C	0.996361	-0.151483	0.084166
C52	C	0.995919	-0.176685	0.000081
O53	O	0.994951	-0.231249	0.155601
O54	O	0.994952	-0.231268	-0.155487
C55	C	0.990900	-0.459014	-0.084013
C56	C	0.990436	-0.484224	0.000052
C57	C	0.990872	-0.459019	0.084122
C58	C	0.989544	-0.534642	0.000048
C59	C	0.989108	-0.559847	-0.084022
C60	C	0.989564	-0.534634	-0.168088
C61	C	0.990464	-0.484219	-0.168083
C62	C	0.990415	-0.484232	0.168189
C63	C	0.989516	-0.534647	0.168177
C64	C	0.989080	-0.559852	0.084107
C65	C	1.144973	0.062660	0.000085
C66	C	1.238206	0.063616	0.000087
C67	C	0.984049	0.154558	0.000046
C68	C	0.984992	0.208218	0.000031
N69	N	0.991332	0.066199	0.219547
N70	N	0.991388	0.066165	-0.219403
C71	C	0.931234	0.100498	0.469185
C72	C	1.007008	0.109882	0.530992
C73	C	0.991353	0.066188	0.408708
C74	C	0.915598	0.056815	0.530995
C75	C	0.991366	0.066178	0.591430
C76	C	1.067165	0.075594	0.469154
C77	C	0.975705	0.022507	0.469152
C78	C	1.051534	0.031873	0.530931
C79	C	0.991344	0.066195	0.303447
C80	C	0.991383	0.066170	0.696689
H81	H	0.564149	-0.018169	-0.000002
F82	F	0.831855	0.046457	0.566503
H83	H	1.102435	0.002852	0.557872
F84	F	0.443060	0.017142	-0.159988
F85	F	0.958359	-0.025755	0.433617
F86	F	0.539512	0.115161	-0.160177
H87	H	0.418760	0.150591	-0.000049
F88	F	0.986841	-0.689324	-0.173518
F89	F	0.991699	-0.410214	0.257692
F90	F	0.995881	-0.178315	0.173644
H91	H	0.533589	0.109144	0.140355
H92	H	1.131249	0.083561	0.442105
H93	H	0.449158	0.023210	0.140376
H94	H	1.020256	0.146817	0.558155
H95	H	0.997667	-0.080533	-0.152429
F96	F	0.997725	-0.074234	0.173647
F97	F	0.989105	-0.561469	-0.257562
F98	F	0.995913	-0.178290	-0.173470
H99	H	0.993539	-0.312452	-0.236528
H100	H	0.991906	-0.403905	-0.236537
F101	F	0.984983	-0.793402	-0.173517
H102	H	0.985062	-0.787099	0.152560
F103	F	0.990958	-0.457395	-0.257564
F104	F	0.986772	-0.689339	0.173595
F105	F	0.993545	-0.306151	0.257694
F106	F	0.989027	-0.561472	0.257664
H107	H	0.990771	-0.463715	0.236650
F108	F	0.864850	0.138452	0.433745
