data_functionalizedCrystal
_audit_creation_method	'MofGen! by Chris Wilmer'
_symmetry_space_group_name_H-M	'P1'
_symmetry_Int_Tables_number	1
_symmetry_cell_setting	triclinic
loop_
_symmetry_equiv_pos_as_xyz
  x,y,z
_cell_length_a	17.699077
_cell_length_b	23.532357
_cell_length_c	16.176319
_cell_angle_alpha	89.987656
_cell_angle_beta	89.993140
_cell_angle_gamma	83.054434
loop_
_atom_site_label
_atom_site_type_symbol
_atom_site_fract_x
_atom_site_fract_y
_atom_site_fract_z
O1	O	1.003699	0.072006	-0.068746
O2	O	1.503699	0.572006	0.431254
O3	O	0.783270	0.081379	-0.068751
O4	O	1.283270	0.581379	0.431249
O5	O	0.900151	-0.006222	-0.068731
O6	O	1.400151	0.493778	0.431269
O7	O	0.886818	0.159607	-0.068765
O8	O	1.386818	0.659607	0.431235
O9	O	0.900135	-0.006228	0.068762
O10	O	1.400135	0.493772	0.568762
O11	O	0.783254	0.081374	0.068742
O12	O	1.283254	0.581374	0.568742
O13	O	1.003683	0.072000	0.068748
O14	O	1.503683	0.572000	0.568748
Cu15	Cu	0.893467	0.076686	0.081299
Cu16	Cu	1.393467	0.576686	0.581299
Cu17	Cu	0.893486	0.076693	-0.081303
Cu18	Cu	1.393486	0.576693	0.418697
O19	O	0.886802	0.159601	0.068728
O20	O	1.386802	0.659601	0.568728
C21	C	0.755067	0.081041	-0.000005
C22	C	1.255067	0.581041	0.499995
C23	C	0.671054	0.080035	-0.000006
C24	C	1.171054	0.580035	0.499994
C25	C	0.631580	0.079558	0.074942
C26	C	1.131580	0.579558	0.574942
C27	C	0.552643	0.078604	0.074943
C28	C	1.052643	0.578604	0.574943
C29	C	0.513180	0.078131	-0.000005
C30	C	1.013180	0.578131	0.499995
C31	C	0.552659	0.078606	-0.074959
C32	C	1.052659	0.578606	0.425041
C33	C	0.631596	0.079556	-0.074959
C34	C	1.131596	0.579556	0.425041
C35	C	0.234316	0.074774	-0.074960
C36	C	0.734316	0.574774	0.425040
C37	C	0.155374	0.073825	-0.074954
C38	C	0.655374	0.573825	0.425046
C39	C	0.155363	0.073821	0.074943
C40	C	0.655363	0.573821	0.574943
C41	C	0.234300	0.074771	0.074943
C42	C	0.734300	0.574771	0.574943
C43	C	0.273773	0.075244	-0.000011
C44	C	0.773773	0.575244	0.499989
C45	C	0.359366	0.076277	-0.000011
C46	C	0.859366	0.576277	0.499989
C47	C	0.427587	0.077101	-0.000005
C48	C	0.927587	0.577101	0.499995
C49	C	0.899810	-0.027443	0.000018
C50	C	1.399810	0.472557	0.500018
C51	C	0.898807	-0.090664	0.000026
C52	C	1.398807	0.409336	0.500026
C53	C	0.892521	-0.482690	-0.074967
C54	C	1.392521	0.017310	0.425033
C55	C	0.891568	-0.542092	-0.074971
C56	C	1.391568	-0.042092	0.425029
O57	O	0.891057	-0.572808	-0.138711
O58	O	1.391057	-0.072808	0.361289
N59	N	0.891086	-0.571808	-0.000025
N60	N	1.391086	-0.071808	0.499975
C61	C	0.891551	-0.542118	0.074931
C62	C	1.391551	-0.042118	0.574931
O63	O	0.891053	-0.572847	0.138679
O64	O	1.391053	-0.072847	0.638679
C65	C	0.892498	-0.482716	0.074935
C66	C	1.392498	0.017284	0.574935
C67	C	0.892987	-0.453004	-0.000016
C68	C	1.392987	0.046996	0.499984
C69	C	0.893009	-0.452978	-0.149912
C70	C	1.393009	0.047022	0.350088
C71	C	0.893964	-0.393581	-0.149907
C72	C	1.393964	0.106419	0.350093
C73	C	0.894430	-0.363894	-0.074956
C74	C	1.394430	0.136106	0.425044
C75	C	0.893942	-0.393606	-0.000011
C76	C	1.393942	0.106394	0.499989
C77	C	0.892957	-0.453026	0.149890
C78	C	1.392957	0.046974	0.649890
C79	C	0.893904	-0.393620	0.149888
C80	C	1.393904	0.106380	0.649888
C81	C	0.894393	-0.363909	0.074936
C82	C	1.394393	0.136091	0.574936
C83	C	0.895363	-0.304522	0.074944
C84	C	1.395363	0.195478	0.574944
N85	N	0.895844	-0.274807	-0.000002
N86	N	1.395844	0.225193	0.499998
C87	C	0.895378	-0.304493	-0.074953
C88	C	1.395378	0.195507	0.425047
C89	C	0.889559	-0.666865	0.074917
C90	C	1.389559	-0.166865	0.574917
C91	C	0.888617	-0.726266	0.074914
C92	C	1.388617	-0.226266	0.574914
C93	C	0.888633	-0.726237	-0.074989
C94	C	1.388633	-0.226237	0.425011
C95	C	0.889580	-0.666835	-0.074985
C96	C	1.389580	-0.166835	0.425015
C97	C	0.890040	-0.637149	-0.000029
C98	C	1.390040	-0.137149	0.499971
C99	C	0.897383	-0.179753	-0.074936
C100	C	1.397383	0.320247	0.425064
C101	C	0.898341	-0.120350	-0.074925
C102	C	1.398341	0.379650	0.425075
C103	C	0.898321	-0.120384	0.074978
C104	C	1.398321	0.379616	0.574978
C105	C	0.897367	-0.179782	0.074967
C106	C	1.397367	0.320218	0.574967
C107	C	0.896896	-0.209465	0.000003
C108	C	1.396896	0.290535	0.500003
O109	O	0.895872	-0.273769	0.138652
O110	O	1.395872	0.226231	0.638652
O111	O	0.895866	-0.273755	-0.138689
O112	O	1.395866	0.226245	0.361311
C113	C	1.031886	0.072338	-0.000000
C114	C	1.531886	0.572338	0.500000
C115	C	1.115899	0.073344	-0.000005
C116	C	1.615899	0.573344	0.499995
C117	C	0.887143	0.180822	-0.000023
C118	C	1.387143	0.680822	0.499977
C119	C	0.888146	0.244043	-0.000036
C120	C	1.388146	0.744043	0.499964
N121	N	0.893460	0.076681	0.195664
N122	N	1.393460	0.576681	0.695664
N123	N	0.893500	0.076693	-0.195668
N124	N	1.393500	0.576693	0.304332
C125	C	0.945230	0.037907	0.238937
C126	C	1.445230	0.537907	0.738937
C127	C	0.945234	0.037907	0.325484
C128	C	1.445234	0.537907	0.825484
C129	C	0.893470	0.076683	0.368757
C130	C	1.393470	0.576683	0.868757
C131	C	0.841694	0.115459	0.325478
C132	C	1.341694	0.615459	0.825478
C133	C	0.841688	0.115457	0.238932
C134	C	1.341688	0.615457	0.738932
C135	C	0.841720	0.115470	0.674506
C136	C	1.341720	0.615470	1.174506
C137	C	0.841733	0.115471	0.761058
C138	C	1.341733	0.615471	1.261058
C139	C	0.945266	0.037920	0.761058
C140	C	1.445266	0.537920	1.261058
C141	C	0.945260	0.037917	0.674513
C142	C	1.445260	0.537917	1.174513
C143	C	0.893481	0.076691	0.631241
C144	C	1.393481	0.576691	1.131241
C145	C	0.893477	0.076690	0.537397
C146	C	1.393477	0.576690	1.037397
C147	C	0.893478	0.076687	0.462599
C148	C	1.393478	0.576687	0.962599
H149	H	0.520509	0.078206	0.135974
H150	H	1.020509	0.578206	0.635974
H151	H	0.266427	0.075159	0.135973
H152	H	0.766427	0.575159	0.635973
H153	H	0.266446	0.075156	-0.135992
H154	H	0.766446	0.575156	0.364008
H155	H	0.898704	-0.096204	0.136000
H156	H	1.398704	0.403796	0.636000
O157	O	1.001087	-0.003907	0.372150
O158	O	1.501087	0.496093	0.872150
H159	H	0.991807	-0.048299	0.355551
H160	H	1.491807	0.451701	0.855551
O161	O	0.674139	0.080077	0.155782
O162	O	1.174139	0.580077	0.655782
H163	H	0.666042	0.041091	0.191733
H164	H	1.166042	0.541091	0.691733
H165	H	0.123215	0.073434	0.135974
H166	H	0.623215	0.573434	0.635974
O167	O	0.785880	0.157293	0.627844
O168	O	1.285880	0.657293	1.127844
H169	H	0.817518	0.184939	0.588390
H170	H	1.317518	0.684939	1.088390
H171	H	0.123245	0.073439	-0.135990
H172	H	0.623245	0.573439	0.364010
O173	O	0.894411	-0.361605	0.230737
O174	O	1.394411	0.138395	0.730737
H175	H	0.842634	-0.367863	0.266677
H176	H	1.342634	0.132137	0.766677
O177	O	0.510101	0.078098	-0.155800
O178	O	1.010101	0.578098	0.344200
H179	H	0.448578	0.077364	-0.143210
H180	H	0.948578	0.577364	0.356790
O181	O	0.892488	-0.484991	-0.230758
O182	O	1.392488	0.015009	0.269242
H183	H	0.892983	-0.454341	-0.282862
H184	H	1.392983	0.045659	0.217138
H185	H	0.896995	-0.203913	-0.135979
H186	H	1.396995	0.296087	0.364021
O187	O	0.785854	0.157280	0.192253
O188	O	1.285854	0.657280	0.692253
H189	H	0.749865	0.184248	0.236881
H190	H	1.249865	0.684248	0.736881
H191	H	0.799544	0.147030	0.360715
H192	H	1.299544	0.647030	0.860715
H193	H	0.799578	0.147048	0.796289
H194	H	1.299578	0.647048	1.296289
H195	H	0.987413	0.006344	0.639283
H196	H	1.487413	0.506344	1.139283
H197	H	0.663734	0.079946	-0.135990
H198	H	1.163734	0.579946	0.364010
H199	H	0.898741	-0.096162	-0.135962
H200	H	1.398741	0.403838	0.364038
O201	O	0.894471	-0.361535	-0.230747
O202	O	1.394471	0.138465	0.269253
H203	H	0.893975	-0.392164	-0.282858
H204	H	1.393975	0.107836	0.217142
O205	O	1.001110	-0.003909	0.807728
O206	O	1.501110	0.496091	1.307728
H207	H	0.992415	0.002600	0.875178
H208	H	1.492415	0.502600	1.375178
H209	H	0.987385	0.006333	0.203710
H210	H	1.487385	0.506333	0.703710
H211	H	0.888250	-0.750417	-0.136017
H212	H	1.388250	-0.250417	0.363983
O213	O	0.890093	-0.634791	-0.155826
O214	O	1.390093	-0.134791	0.344174
H215	H	0.941504	-0.651340	-0.191769
H216	H	1.441504	-0.151340	0.308231
O217	O	0.888102	-0.758314	0.155752
O218	O	1.388102	-0.258314	0.655752
H219	H	0.836685	-0.741768	0.191689
H220	H	1.336685	-0.241768	0.691689
O221	O	0.890076	-0.634849	0.155767
O222	O	1.390076	-0.134849	0.655767
H223	H	0.889591	-0.665497	0.207875
H224	H	1.389591	-0.165497	0.707875
O225	O	0.892422	-0.485064	0.230731
O226	O	1.392422	0.014936	0.730731
H227	H	0.892894	-0.454431	0.282841
H228	H	1.392894	0.045569	0.782841
O229	O	0.896842	-0.211835	0.155803
O230	O	1.396842	0.288165	0.655803
H231	H	0.897324	-0.181210	0.207921
H232	H	1.397324	0.318790	0.707921
