data_functionalizedCrystal
_audit_creation_method	'MofGen! by Chris Wilmer'
_symmetry_space_group_name_H-M	'P1'
_symmetry_Int_Tables_number	1
_symmetry_cell_setting	triclinic
loop_
_symmetry_equiv_pos_as_xyz
  x,y,z
_cell_length_a	12.837943
_cell_length_b	12.996460
_cell_length_c	12.837942
_cell_angle_alpha	90.000533
_cell_angle_beta	85.171060
_cell_angle_gamma	90.005470
loop_
_atom_site_label
_atom_site_type_symbol
_atom_site_fract_x
_atom_site_fract_y
_atom_site_fract_z
O1	O	1.402338	0.085548	-0.272134
O2	O	1.099205	0.085554	-0.258690
O3	O	1.244050	0.085544	-0.113845
O4	O	1.257493	0.085557	-0.416979
O5	O	1.244030	-0.085589	-0.113852
O6	O	1.099185	-0.085580	-0.258698
O7	O	1.402319	-0.085586	-0.272141
Cu8	Cu	1.250750	-0.101209	-0.265420
Cu9	Cu	1.250774	0.101176	-0.265411
O10	O	1.257474	-0.085577	-0.416986
C11	C	1.060126	-0.000013	-0.254153
C12	C	0.943711	-0.000010	-0.240608
C13	C	0.718837	-0.000018	-0.403437
C14	C	0.609454	-0.000017	-0.390716
C15	C	0.615562	-0.000014	-0.202445
C16	C	0.724944	-0.000015	-0.215166
C17	C	0.776578	-0.000016	-0.315666
C18	C	0.885962	-0.000010	-0.328386
C19	C	0.892067	-0.000014	-0.140116
C20	C	0.782685	-0.000013	-0.127395
N21	N	1.250741	-0.243556	-0.265426
C22	C	1.250746	-0.336662	-0.265429
C23	C	1.250755	-0.453467	-0.265423
C24	C	1.250767	-0.546566	-0.265413
C25	C	1.250778	-0.663378	-0.265408
C26	C	1.441398	-0.000018	-0.276679
C27	C	1.557813	-0.000013	-0.290223
C28	C	1.239499	-0.000022	-0.074780
C29	C	1.225954	-0.000020	0.041635
N30	N	1.250790	0.243524	-0.265398
C31	C	1.262025	-0.000008	-0.456052
C32	C	1.275569	-0.000004	-0.572467
C33	C	1.388784	-0.000002	0.266510
C34	C	1.376062	0.000000	0.375892
C35	C	1.187791	-0.000007	0.369785
C36	C	1.200513	-0.000009	0.260402
C37	C	1.301012	-0.000008	0.208769
C38	C	1.313732	-0.000017	0.099384
C39	C	1.125462	-0.000017	0.093279
C40	C	1.112741	-0.000015	0.202661
H41	H	0.760878	-0.000017	-0.485268
H42	H	0.928000	-0.000012	-0.410218
H43	H	1.470614	-0.000011	0.224469
H44	H	0.740630	-0.000024	-0.045571
C45	C	0.450592	-0.000029	-0.099360
C46	C	0.558793	-0.000023	-0.091983
H47	H	0.415547	-0.000031	-0.031163
H48	H	0.431421	-0.059703	-0.135953
H49	H	0.431425	0.059654	-0.135952
H50	H	0.577961	-0.059710	-0.055397
H51	H	0.577971	0.059657	-0.055374
H52	H	1.105969	0.000004	0.411844
H53	H	1.030917	-0.000011	0.244717
C54	C	1.030537	0.087953	-0.033269
C55	C	1.028971	-0.000018	0.029812
H56	H	0.970964	0.087951	-0.072444
H57	H	1.092197	0.087944	-0.079676
H58	H	1.029494	0.147626	0.009537
H59	H	1.030022	-0.059692	-0.012995
H60	H	0.967295	-0.000018	0.076225
C61	C	0.614409	-0.000009	-0.578090
C62	C	0.545984	-0.000011	-0.487197
H63	H	0.575223	0.000000	-0.637654
H64	H	0.657188	-0.059686	-0.579136
H65	H	0.657210	0.059671	-0.579127
H66	H	0.503188	-0.059696	-0.486156
H67	H	0.503188	0.059671	-0.486150
H68	H	0.939092	-0.000005	-0.068646
C69	C	1.440158	0.000013	0.546277
C70	C	1.472542	0.000008	0.439363
H71	H	1.499725	0.000026	0.585459
H72	H	1.399403	-0.059664	0.562945
H73	H	1.399397	0.059693	0.562936
H74	H	1.513297	-0.059676	0.422703
H75	H	1.513315	0.059691	0.422689
H76	H	1.395564	-0.000020	0.057346
