data_functionalizedCrystal
_audit_creation_method	'MofGen! by Chris Wilmer'
_symmetry_space_group_name_H-M	'P1'
_symmetry_Int_Tables_number	1
_symmetry_cell_setting	triclinic
loop_
_symmetry_equiv_pos_as_xyz
  x,y,z
_cell_length_a	17.699083
_cell_length_b	17.699083
_cell_length_c	9.130313
_cell_angle_alpha	90.006329
_cell_angle_beta	90.000041
_cell_angle_gamma	83.282848
loop_
_atom_site_label
_atom_site_type_symbol
_atom_site_fract_x
_atom_site_fract_y
_atom_site_fract_z
O1	O	-1.004072	-0.095710	-0.121777
O2	O	-0.783693	-0.108163	-0.121786
O3	O	-0.900109	0.008253	-0.121769
O4	O	-0.887656	-0.212125	-0.121795
O5	O	-0.900107	0.008259	0.121830
O6	O	-0.783692	-0.108157	0.121813
O7	O	-1.004070	-0.095703	0.121821
Cu8	Cu	-0.893881	-0.101929	0.144060
Cu9	Cu	-0.893883	-0.101937	-0.144024
O10	O	-0.887655	-0.212119	0.121804
C11	C	-0.755496	-0.107713	0.000012
C12	C	-0.671478	-0.106375	0.000009
C13	C	-0.632009	-0.105741	0.132796
C14	C	-0.553067	-0.104472	0.132798
C15	C	-0.513594	-0.103841	0.000010
C16	C	-0.553068	-0.104473	-0.132787
C17	C	-0.632009	-0.105737	-0.132787
C18	C	-0.234705	-0.099374	-0.132791
C19	C	-0.155758	-0.098112	-0.132781
C20	C	-0.155763	-0.098108	0.132794
C21	C	-0.234705	-0.099372	0.132794
C22	C	-0.274172	-0.100000	-0.000003
C23	C	-0.359771	-0.101375	-0.000002
C24	C	-0.427996	-0.102472	0.000009
C25	C	-0.899662	0.036453	0.000031
C26	C	-0.898323	0.120471	0.000032
C27	C	-0.032269	-0.096148	0.000018
C28	C	-0.116289	-0.097472	0.000008
N29	N	-0.893885	-0.101936	-0.346647
C30	C	-0.888102	-0.240319	0.000001
C31	C	-0.889441	-0.324337	-0.000009
C32	C	-0.966657	0.169092	0.000036
C33	C	-0.965395	0.248036	0.000023
C34	C	-0.895798	0.278356	0.000016
C35	C	-0.827459	0.229729	0.000007
C36	C	-0.828722	0.150787	0.000009
C37	C	-0.822364	0.548092	-0.000005
C38	C	-0.821106	0.627040	-0.000003
C39	C	-0.959036	0.645341	0.000009
C40	C	-0.960299	0.566399	0.000011
C41	C	-0.891961	0.517778	-0.000006
C42	C	-0.893331	0.432179	0.000006
C43	C	-0.894428	0.363954	0.000015
C44	C	-0.945528	-0.050487	-0.423291
C45	C	-0.945531	-0.050482	-0.576628
C46	C	-0.842239	-0.153379	-0.576663
C47	C	-0.842241	-0.153387	-0.423329
C48	C	-0.997172	0.000964	-0.346609
C49	C	-1.048819	0.052418	-0.423254
C50	C	-1.048822	0.052423	-0.576591
C51	C	-0.997177	0.000973	-0.653283
N52	N	-0.893885	-0.101924	0.346682
H53	H	-0.520923	-0.103955	-0.240905
C54	C	-1.040567	0.301516	0.000052
N55	N	-1.097190	0.341798	0.000081
C56	C	-1.034211	0.698830	0.000011
N57	N	-1.090830	0.739117	0.000016
C58	C	-1.043220	0.135748	0.000044
N59	N	-1.100889	0.110635	0.000044
C60	C	-0.753550	0.097304	0.000008
N61	N	-0.696928	0.057020	0.000003
C62	C	-1.036860	0.533051	0.000019
N63	N	-1.094528	0.507935	0.000019
C64	C	-0.997185	0.000979	-0.821959
N65	N	-0.997189	0.000987	-0.949004
H66	H	-0.997173	0.000966	-0.221755
H67	H	-0.266830	-0.099882	-0.240922
H68	H	-0.800191	-0.195266	-0.639116
C69	C	-0.278121	-0.100064	0.278870
N70	N	-0.310822	-0.100580	0.388898
H71	H	-0.800189	-0.195282	-0.360924
C72	C	-0.744541	0.660390	-0.000023
N73	N	-0.686875	0.685509	-0.000040
C74	C	-0.112339	-0.097410	-0.278865
N75	N	-0.079637	-0.096880	-0.388889
H76	H	-1.090871	0.094303	-0.360803
C77	C	-0.675423	-0.106436	-0.278863
N78	N	-0.708122	-0.106961	-0.388893
C79	C	-0.750902	0.263084	0.000011
N80	N	-0.693238	0.288207	0.000025
C81	C	-0.675423	-0.106434	0.278876
N82	N	-0.708121	-0.106952	0.388907
C83	C	-0.509653	-0.103792	0.278874
N84	N	-0.476954	-0.103285	0.388906
H85	H	-1.090879	0.094313	-0.638993
H86	H	-0.123619	-0.097594	0.240923
C87	C	-0.747190	0.494619	-0.000032
N88	N	-0.690565	0.454341	-0.000056
