data_functionalizedCrystal
_audit_creation_method	'MofGen! by Chris Wilmer'
_symmetry_space_group_name_H-M	'P1'
_symmetry_Int_Tables_number	1
_symmetry_cell_setting	triclinic
loop_
_symmetry_equiv_pos_as_xyz
  x,y,z
_cell_length_a	16.959455
_cell_length_b	16.959454
_cell_length_c	11.169409
_cell_angle_alpha	90.031988
_cell_angle_beta	89.977575
_cell_angle_gamma	89.977637
loop_
_atom_site_label
_atom_site_type_symbol
_atom_site_fract_x
_atom_site_fract_y
_atom_site_fract_z
Zn1	Zn	1.208428	0.314630	-0.678629
Zn2	Zn	1.208326	0.446836	-0.477947
Zn3	Zn	1.076239	0.314674	-0.477954
Zn4	Zn	1.076215	0.446769	-0.678583
O5	O	1.142302	0.380727	-0.578278
O6	O	1.319026	0.332177	-0.652024
O7	O	1.190772	0.429352	-0.309998
O8	O	1.093827	0.204058	-0.504596
O9	O	1.318951	0.429308	-0.504584
O10	O	1.190946	0.204025	-0.652031
O11	O	1.093728	0.332253	-0.310003
O12	O	0.965625	0.332187	-0.504552
O13	O	1.093786	0.429193	-0.846539
O14	O	0.965607	0.429237	-0.651953
O15	O	1.190923	0.332111	-0.846573
O16	O	1.190749	0.557438	-0.504539
O17	O	1.093687	0.557389	-0.651946
C18	C	0.936936	0.380710	-0.578249
C19	C	0.849079	0.380722	-0.578264
C20	C	0.807764	0.431222	-0.501390
C21	C	0.807841	0.330228	-0.655148
C22	C	0.725295	0.330234	-0.655163
C23	C	0.683980	0.380734	-0.578288
C24	C	0.725211	0.431228	-0.501399
C25	C	0.684058	0.279736	-0.732042
C26	C	0.601507	0.279739	-0.732058
C27	C	0.560190	0.330244	-0.655189
C28	C	0.601426	0.380740	-0.578298
C29	C	0.560111	0.431240	-0.501423
C30	C	0.601346	0.481741	-0.424537
C31	C	0.683895	0.481733	-0.424530
C32	C	0.477642	0.330253	-0.655196
C33	C	0.477558	0.431246	-0.501433
C34	C	1.142226	0.586094	-0.578263
C35	C	1.142265	0.673950	-0.578297
C36	C	1.091802	1.045430	-0.655041
C37	C	1.192956	1.045422	-0.501671
C38	C	1.192932	0.962876	-0.501658
C39	C	1.142342	0.921603	-0.578336
C40	C	1.091776	0.962876	-0.655028
C41	C	1.243492	0.921596	-0.424959
C42	C	1.243470	0.839045	-0.424942
C43	C	1.192884	0.797771	-0.501627
C44	C	1.142315	0.839049	-0.578323
C45	C	1.091725	0.797777	-0.655001
C46	C	1.041161	0.839054	-0.731704
C47	C	1.041189	0.921602	-0.731713
C48	C	1.192855	0.715223	-0.501618
C49	C	1.091699	0.715223	-0.654988
C50	C	1.348470	0.380745	-0.578309
C51	C	1.436327	0.380753	-0.578322
C52	C	1.142363	0.380639	-0.891321
C53	C	1.142389	0.380602	-1.024721
C54	C	1.142388	1.174559	-0.578326
C55	C	1.142392	1.086702	-0.578363
C56	C	1.142287	0.380758	-0.266453
C57	C	1.142414	0.380572	-0.133054
H58	H	0.841484	0.289109	-0.717731
Cl59	Cl	1.307092	0.973485	-0.328578
H60	H	0.443925	0.472373	-0.438836
H61	H	0.567697	0.522855	-0.361942
H62	H	0.444072	0.289130	-0.717786
H63	H	1.284643	0.805443	-0.362488
Cl64	Cl	0.977561	0.787158	-0.828090
H65	H	1.234021	0.681619	-0.439162
H66	H	0.717475	0.522846	-0.361931
H67	H	0.841341	0.472341	-0.438795
Cl68	Cl	0.735999	0.216254	-0.828677
Cl69	Cl	1.028100	0.663344	-0.751397
H70	H	1.000021	0.955217	-0.794159
H71	H	0.567940	0.238619	-0.794665
H72	H	1.050636	1.079041	-0.717494
Cl73	Cl	1.256552	1.097308	-0.405282
