data_functionalizedCrystal
_audit_creation_method	'MofGen! by Chris Wilmer'
_symmetry_space_group_name_H-M	'P1'
_symmetry_Int_Tables_number	1
_symmetry_cell_setting	triclinic
loop_
_symmetry_equiv_pos_as_xyz
  x,y,z
_cell_length_a	19.188905
_cell_length_b	19.188925
_cell_length_c	8.140239
_cell_angle_alpha	89.996842
_cell_angle_beta	89.990158
_cell_angle_gamma	83.138552
loop_
_atom_site_label
_atom_site_type_symbol
_atom_site_fract_x
_atom_site_fract_y
_atom_site_fract_z
O1	O	0.926153	0.087084	-0.136883
O2	O	1.426153	0.587084	0.363117
O3	O	0.722839	0.098836	-0.136827
O4	O	1.222839	0.598836	0.363173
O5	O	0.830365	-0.008697	-0.136847
O6	O	1.330365	0.491303	0.363153
O7	O	0.818626	0.194616	-0.136862
O8	O	1.318626	0.694616	0.363138
O9	O	0.830359	-0.008698	0.136380
O10	O	1.330359	0.491302	0.636380
O11	O	0.722833	0.098835	0.136401
O12	O	1.222833	0.598835	0.636401
O13	O	0.926147	0.087082	0.136344
O14	O	1.426147	0.587082	0.636344
Zn15	Zn	0.824489	0.092958	0.179753
Zn16	Zn	1.324489	0.592958	0.679753
Zn17	Zn	0.824496	0.092960	-0.180235
Zn18	Zn	1.324496	0.592960	0.319765
O19	O	0.818620	0.194615	0.136365
O20	O	1.318620	0.694615	0.636365
C21	C	0.696824	0.098458	-0.000206
C22	C	1.196824	0.598458	0.499794
C23	C	0.619319	0.097324	-0.000184
C24	C	1.119319	0.597324	0.499816
C25	C	0.829982	-0.034708	-0.000235
C26	C	1.329982	0.465292	0.499765
C27	C	0.828843	-0.112213	-0.000238
C28	C	1.328843	0.387787	0.499762
C29	C	0.582930	0.096780	-0.149124
C30	C	1.082930	0.596780	0.350876
C31	C	0.510107	0.095707	-0.149145
C32	C	1.010107	0.595707	0.350855
C33	C	0.473676	0.095164	-0.000216
C34	C	0.973676	0.595164	0.499784
C35	C	0.510073	0.095712	0.148744
C36	C	1.010073	0.595712	0.648744
C37	C	0.582894	0.096792	0.148760
C38	C	1.082894	0.596792	0.648760
N39	N	0.364654	0.053735	0.110620
N40	N	0.864654	0.553735	0.610620
N41	N	0.295478	0.052707	0.110594
N42	N	0.795478	0.552707	0.610594
C43	C	0.254270	0.091911	-0.000256
C44	C	0.754270	0.591911	0.499744
N45	N	0.284853	0.132173	-0.111105
N46	N	0.784853	0.632173	0.388895
N47	N	0.354037	0.133197	-0.111084
N48	N	0.854037	0.633197	0.388916
C49	C	0.394714	0.093993	-0.000217
C50	C	0.894714	0.593993	0.499783
C51	C	0.138917	0.090205	-0.149228
C52	C	0.638917	0.590205	0.350772
C53	C	0.066092	0.089136	-0.149243
C54	C	0.566092	0.589136	0.350757
C55	C	0.066061	0.089134	0.148650
C56	C	0.566061	0.589134	0.648650
C57	C	0.138884	0.090210	0.148660
C58	C	0.638884	0.590210	0.648660
C59	C	0.175308	0.090742	-0.000284
C60	C	0.675308	0.590742	0.499716
C61	C	0.884308	-0.673988	-0.000294
C62	C	1.384308	-0.173988	0.499706
C63	C	0.885384	-0.601165	-0.000280
C64	C	1.385384	-0.101165	0.499720
C65	C	0.822291	-0.556225	-0.000263
C66	C	1.322291	-0.056225	0.499737
C67	C	0.758117	-0.584113	-0.000218
C68	C	1.258117	-0.084113	0.499782
C69	C	0.757043	-0.656935	-0.000217
C70	C	1.257043	-0.156935	0.499783
N71	N	0.776617	-0.435540	-0.093250
N72	N	1.276617	0.064460	0.406750
N73	N	0.777642	-0.366363	-0.093255
N74	N	1.277642	0.133637	0.406745
C75	C	0.825525	-0.336816	-0.000265
C76	C	1.325525	0.163184	0.499735
N77	N	0.872356	-0.379061	0.092710
N78	N	1.372356	0.120939	0.592710
N79	N	0.871332	-0.448245	0.092708
N80	N	1.371332	0.051755	0.592708
C81	C	0.823450	-0.477261	-0.000264
C82	C	1.323450	0.022739	0.499736
C83	C	0.890863	-0.229973	-0.000282
C84	C	1.390863	0.270027	0.499718
C85	C	0.891937	-0.157148	-0.000257
C86	C	1.391937	0.342852	0.499743
C87	C	0.764668	-0.140097	-0.000212
C88	C	1.264668	0.359903	0.499788
C89	C	0.763596	-0.212921	-0.000221
C90	C	1.263596	0.287079	0.499779
C91	C	0.826695	-0.257855	-0.000263
C92	C	1.326695	0.242145	0.499737
C93	C	0.952161	0.087461	-0.000280
C94	C	1.452161	0.587461	0.499720
C95	C	1.029666	0.088594	-0.000313
C96	C	1.529666	0.588594	0.499687
C97	C	0.819003	0.220627	-0.000251
C98	C	1.319003	0.720627	0.499749
C99	C	0.820142	0.298131	-0.000259
C100	C	1.320142	0.798131	0.499741
N101	N	0.824489	0.092957	0.425436
N102	N	1.324489	0.592957	0.925436
N103	N	0.824502	0.092956	-0.425918
N104	N	1.324502	0.592956	0.074082
H105	H	0.612583	0.097214	-0.270406
H106	H	1.112583	0.597214	0.229594
N107	N	0.472937	0.095151	-0.301305
N108	N	0.972937	0.595151	0.198695
N109	N	0.505467	0.095627	-0.434274
N110	N	1.005467	0.595627	0.065726
H111	H	0.479219	0.095233	-0.541739
H112	H	0.979219	0.595233	-0.041739
N113	N	0.028844	0.088594	0.300765
N114	N	0.528844	0.588594	0.800765
N115	N	-0.036175	0.087639	0.300734
N116	N	0.463825	0.587639	0.800734
H117	H	-0.062464	0.087263	0.408169
H118	H	0.437536	0.587263	0.908169
N119	N	0.691502	-0.685429	-0.000210
N120	N	1.191502	-0.185429	0.499790
N121	N	0.690552	-0.750450	-0.000222
N122	N	1.190552	-0.250450	0.499778
H123	H	0.644263	-0.770576	-0.000222
H124	H	1.144263	-0.270576	0.499778
H125	H	0.036465	0.088698	-0.270533
H126	H	0.536465	0.588698	0.229467
N127	N	0.693670	-0.538210	-0.000245
N128	N	1.193670	-0.038210	0.499755
N129	N	0.650947	-0.540634	-0.115408
N130	N	1.150947	-0.040634	0.384592
H131	H	0.605429	-0.508214	-0.115426
H132	H	1.105429	-0.008214	0.384574
N133	N	0.948762	-0.719882	-0.000277
N134	N	1.448762	-0.219882	0.499723
N135	N	0.962360	-0.762415	0.114905
N136	N	1.462360	-0.262415	0.614905
H137	H	1.007882	-0.794829	0.114927
H138	H	1.507882	-0.294829	0.614927
N139	N	0.472852	0.095164	0.300856
N140	N	0.972852	0.595164	0.800856
N141	N	0.407834	0.094200	0.300823
N142	N	0.907834	0.594200	0.800823
H143	H	0.381546	0.093817	0.408258
H144	H	0.881546	0.593817	0.908258
N145	N	0.176048	0.090760	0.300816
N146	N	0.676048	0.590760	0.800816
N147	N	0.143516	0.090276	0.433780
N148	N	0.643516	0.590276	0.933780
H149	H	0.169762	0.090666	0.541249
H150	H	0.669762	0.590666	1.041249
N151	N	0.700225	-0.094192	-0.000210
N152	N	1.200225	0.405808	0.499790
N153	N	0.686628	-0.051650	-0.115376
N154	N	1.186628	0.448350	0.384624
H155	H	0.641114	-0.019225	-0.115370
H156	H	1.141114	0.480775	0.384630
H157	H	0.937637	-0.578460	-0.000308
H158	H	1.437637	-0.078460	0.499692
N159	N	0.620069	0.097328	0.300908
N160	N	1.120069	0.597328	0.800908
N161	N	0.667293	0.048721	0.334152
N162	N	1.167293	0.548721	0.834152
H163	H	0.693549	0.049097	0.441609
H164	H	1.193549	0.549097	0.941609
H165	H	0.942242	-0.266560	-0.000316
H166	H	1.442242	0.233440	0.499684
N167	N	0.957490	-0.128678	-0.000275
N168	N	1.457490	0.371322	0.499725
N169	N	1.013820	-0.168808	-0.000309
N170	N	1.513820	0.331192	0.499691
H171	H	1.060119	-0.148702	-0.000321
H172	H	1.560119	0.351298	0.499679
H173	H	0.711345	-0.235621	-0.000204
H174	H	1.211345	0.264379	0.499796
H175	H	0.168575	0.090646	-0.270507
H176	H	0.668575	0.590646	0.229493
