data_functionalizedCrystal
_audit_creation_method	'MofGen! by Chris Wilmer'
_symmetry_space_group_name_H-M	'P1'
_symmetry_Int_Tables_number	1
_symmetry_cell_setting	triclinic
loop_
_symmetry_equiv_pos_as_xyz
  x,y,z
_cell_length_a	15.698487
_cell_length_b	12.970454
_cell_length_c	12.970454
_cell_angle_alpha	120.000713
_cell_angle_beta	90.001321
_cell_angle_gamma	60.000777
loop_
_atom_site_label
_atom_site_type_symbol
_atom_site_fract_x
_atom_site_fract_y
_atom_site_fract_z
Zr1	Zr	0.820613	1.128544	0.135320
O2	O	0.684601	1.343630	0.299943
O3	O	0.862308	0.913455	0.084854
O4	O	0.862312	1.128544	0.299945
O5	O	0.684594	1.128541	-0.084815
O6	O	1.002493	1.128548	0.299947
O7	O	0.684597	1.128540	0.084852
O8	O	1.002486	0.743792	-0.084811
O9	O	0.684602	1.513297	0.299943
O10	O	0.984706	1.001928	0.063334
O11	O	0.880088	1.001926	-0.063289
O12	O	0.880093	1.255166	0.189953
O13	O	0.775475	1.255164	0.063331
Zr14	Zr	1.044181	1.128552	-0.135274
Zr15	Zr	1.044186	1.128550	0.135324
Zr16	Zr	0.820608	1.128546	-0.135278
Zr17	Zr	0.820613	1.399144	0.135322
Zr18	Zr	1.044181	0.857952	-0.135275
O19	O	1.002486	1.343641	-0.084808
O20	O	1.002493	1.343639	0.299948
O21	O	0.684594	1.343632	-0.084814
O22	O	1.180192	0.913466	-0.299896
O23	O	1.180199	0.913464	0.084860
O24	O	0.862301	0.913457	-0.299902
O25	O	1.180200	1.128555	0.084861
O26	O	1.002482	1.128552	-0.299898
O27	O	0.862301	1.128548	-0.299901
O28	O	1.180196	1.128556	-0.084805
O29	O	0.862312	1.513302	0.299947
O30	O	1.002482	0.743794	-0.299900
O31	O	1.180192	0.743799	-0.299897
O32	O	1.180196	0.743798	-0.084807
O33	O	0.684598	1.513299	0.084854
O34	O	0.862308	1.513304	0.084857
O35	O	0.984701	1.001930	-0.189907
O36	O	1.089319	1.001932	-0.063285
O37	O	0.984706	1.255170	0.063335
O38	O	0.880088	1.255168	-0.063287
C39	C	0.932397	0.790069	0.000021
C40	C	0.932397	0.675192	0.000021
C41	C	0.652742	1.128540	0.000018
C42	C	0.557829	1.128537	0.000016
C43	C	0.384044	1.128563	0.000028
C44	C	0.480748	1.128554	0.000024
C45	C	1.212052	1.128556	0.000028
C46	C	1.306965	1.128559	0.000030
C47	C	0.932403	1.128546	0.338501
C48	C	0.932405	1.128545	0.453377
C49	C	0.932397	1.467027	0.000025
C50	C	0.932397	1.581904	0.000025
C51	C	0.932394	1.128550	0.661546
C52	C	0.932401	1.128550	0.546669
C53	C	1.212052	0.790077	0.000027
C54	C	1.306965	0.675203	0.000028
C55	C	0.932391	0.790071	-0.338456
C56	C	0.932388	0.675195	-0.453333
C57	C	1.212046	0.790079	-0.338451
C58	C	1.306956	0.675206	-0.453326
C59	C	0.652748	1.467017	0.338497
C60	C	0.557838	1.581890	0.453372
C61	C	0.652742	1.467019	0.000020
C62	C	0.557829	1.581893	0.000018
C63	C	0.932403	1.467025	0.338502
C64	C	0.932405	1.581901	0.453379
C65	C	1.296930	0.621255	0.066133
C66	C	1.386101	0.513334	0.066159
C67	C	1.485307	0.459355	0.000072
C68	C	1.495340	0.513313	-0.066035
C69	C	1.406170	0.621240	-0.066053
C70	C	1.406146	0.621261	-0.441177
C71	C	1.495333	0.513340	-0.549104
C72	C	1.485328	0.459359	-0.669178
C73	C	1.386127	0.513314	-0.681325
C74	C	1.296943	0.621240	-0.573399
C75	C	0.458648	1.635848	0.441223
C76	C	0.369461	1.743802	0.549150
C77	C	0.379466	1.797789	0.669225
C78	C	0.478666	1.743827	0.681371
C79	C	0.567851	1.635883	0.573445
C80	C	0.567864	1.635852	-0.066076
C81	C	0.478692	1.743804	-0.066072
C82	C	0.379487	1.797786	0.000019
C83	C	0.369453	1.743822	0.066121
C84	C	0.458624	1.635881	0.066124
H85	H	1.377912	0.469413	0.119992
C86	C	0.205816	1.953295	0.593762
C87	C	0.260430	1.803093	0.535776
H88	H	0.138510	1.989890	0.585495
H89	H	0.199001	2.000900	0.680712
H90	H	0.242893	1.970956	0.554389
H91	H	0.223356	1.785432	0.575156
H92	H	0.267240	1.755473	0.448810
C93	C	1.659005	0.303830	-0.593788
C94	C	1.604372	0.454044	-0.535750
H95	H	1.726322	0.267229	-0.585552
H96	H	1.621959	0.286127	-0.554438
H97	H	1.665800	0.256258	-0.680743
H98	H	1.597570	0.501618	-0.448793
H99	H	1.641426	0.471758	-0.575097
H100	H	0.486882	1.787723	-0.119905
H101	H	1.557956	0.371478	-0.757048
C102	C	1.197980	0.610320	-0.714955
C103	C	1.187914	0.680511	-0.586767
H104	H	1.130670	0.646903	-0.723211
H105	H	1.235025	0.628036	-0.754289
H106	H	1.235059	0.508417	-0.754295
H107	H	1.150841	0.782414	-0.547429
H108	H	1.150853	0.662807	-0.547417
C109	C	0.666814	1.646746	0.715001
C110	C	0.676880	1.576562	0.586813
H111	H	0.734124	1.610119	0.723258
H112	H	0.629771	1.748631	0.754334
H113	H	0.629733	1.629062	0.754342
H114	H	0.713954	1.594254	0.547474
H115	H	0.713939	1.474652	0.547464
C116	C	0.281425	1.864264	0.859815
C117	C	0.281426	1.916433	0.787852
H118	H	0.220900	1.937511	0.933050
H119	H	0.281439	1.780053	0.810977
H120	H	0.341932	1.839872	0.884240
H121	H	0.220924	1.940815	0.763420
H122	H	0.281403	2.000670	0.836700
C123	C	0.731517	1.426325	-0.230924
C124	C	0.676906	1.576531	-0.138726
H125	H	0.798830	1.389716	-0.275778
H126	H	0.738314	1.378739	-0.191566
H127	H	0.694447	1.408657	-0.287970
H128	H	0.713972	1.594198	-0.081675
H129	H	0.670113	1.624132	-0.178086
H130	H	1.216159	0.665203	0.119965
H131	H	1.557907	0.371473	0.000096
H132	H	1.576126	0.469348	-0.119840
H133	H	1.414355	0.665151	-0.119891
H134	H	1.414312	0.665197	-0.343416
H135	H	0.450481	1.591898	0.343462
H136	H	1.377996	0.469346	-0.779104
H137	H	0.486800	1.787798	0.779149
H138	H	0.306886	1.885679	0.000006
H139	H	0.288668	1.787792	0.119930
H140	H	0.450439	1.591950	0.119942
