data_functionalizedCrystal
_audit_creation_method	'MofGen! by Chris Wilmer'
_symmetry_space_group_name_H-M	'P1'
_symmetry_Int_Tables_number	1
_symmetry_cell_setting	triclinic
loop_
_symmetry_equiv_pos_as_xyz
  x,y,z
_cell_length_a	14.519709
_cell_length_b	9.065218
_cell_length_c	8.140239
_cell_angle_alpha	90.002802
_cell_angle_beta	89.995533
_cell_angle_gamma	95.651985
loop_
_atom_site_label
_atom_site_type_symbol
_atom_site_fract_x
_atom_site_fract_y
_atom_site_fract_z
O1	O	0.135225	-1.957864	-0.136622
O2	O	0.635225	-1.457864	0.363378
O3	O	0.146317	-1.528371	-0.136625
O4	O	0.646317	-1.028371	0.363375
O5	O	0.006616	-1.754505	-0.136608
O6	O	0.506616	-1.254505	0.363392
O7	O	0.274926	-1.731730	-0.136638
O8	O	0.774926	-1.231730	0.363362
O9	O	0.006614	-1.754492	0.136619
O10	O	0.506614	-1.254492	0.636619
O11	O	0.146315	-1.528359	0.136603
O12	O	0.646315	-1.028359	0.636603
O13	O	0.135224	-1.957851	0.136605
O14	O	0.635224	-1.457851	0.636605
Zn15	Zn	0.140769	-1.743103	0.179985
Zn16	Zn	0.640769	-1.243103	0.679985
Zn17	Zn	0.140771	-1.743119	-0.180004
Zn18	Zn	0.640771	-1.243119	0.319996
O19	O	0.274924	-1.731718	0.136589
O20	O	0.774924	-1.231718	0.636589
C21	C	-0.027752	-1.753437	0.000005
C22	C	0.472248	-1.253437	0.500005
C23	C	-0.130157	-1.750257	0.000006
C24	C	0.369843	-1.250257	0.500006
C25	C	0.145250	-1.473398	-0.000011
C26	C	0.645250	-0.973398	0.499989
C27	C	0.142063	-1.309615	-0.000012
C28	C	0.642063	-0.809615	0.499988
C29	C	0.136290	-2.012824	-0.000012
C30	C	0.636290	-1.512824	0.499988
C31	C	0.139478	-2.176607	-0.000022
C32	C	0.639478	-1.676607	0.499978
C33	C	-0.505138	-1.738547	-0.000036
C34	C	-0.005138	-1.238547	0.499964
C35	C	-0.400807	-1.741799	-0.000024
C36	C	0.099193	-1.241799	0.499976
C37	C	-0.317651	-1.744402	-0.000014
C38	C	0.182349	-1.244402	0.499986
C39	C	-0.213313	-1.747654	-0.000004
C40	C	0.286687	-1.247654	0.499996
C41	C	0.309293	-1.732785	-0.000028
C42	C	0.809293	-1.232785	0.499972
C43	C	0.411697	-1.735966	-0.000040
C44	C	0.911697	-1.235966	0.499960
N45	N	0.140767	-1.743103	0.425667
N46	N	0.640767	-1.243103	0.925667
N47	N	0.140766	-1.743132	-0.425687
N48	N	0.640766	-1.243132	0.074313
