data_functionalizedCrystal
_audit_creation_method	'MofGen! by Chris Wilmer'
_symmetry_space_group_name_H-M	'P1'
_symmetry_Int_Tables_number	1
_symmetry_cell_setting	triclinic
loop_
_symmetry_equiv_pos_as_xyz
  x,y,z
_cell_length_a	14.044220
_cell_length_b	10.723024
_cell_length_c	9.198806
_cell_angle_alpha	89.997723
_cell_angle_beta	90.000907
_cell_angle_gamma	88.828374
loop_
_atom_site_label
_atom_site_type_symbol
_atom_site_fract_x
_atom_site_fract_y
_atom_site_fract_z
O1	O	-1.259664	-0.301050	0.120731
O2	O	-0.759664	0.198950	0.620731
O3	O	-0.983624	-0.290187	0.120768
O4	O	-0.483624	0.209813	0.620768
O5	O	-1.128011	-0.114679	0.120743
O6	O	-0.628011	0.385321	0.620743
O7	O	-1.115277	-0.476558	0.120756
O8	O	-0.615277	0.023442	0.620756
O9	O	-1.128000	-0.114677	-0.121042
O10	O	-0.628000	0.385323	0.378958
O11	O	-0.983612	-0.290184	-0.121017
O12	O	-0.483612	0.209816	0.378983
O13	O	-1.259652	-0.301047	-0.121054
O14	O	-0.759652	0.198953	0.378946
Cu15	Cu	-1.121631	-0.295615	-0.143112
Cu16	Cu	-0.621631	0.204385	0.356888
Cu17	Cu	-1.121645	-0.295619	0.142826
Cu18	Cu	-0.621645	0.204381	0.642826
O19	O	-1.115265	-0.476555	-0.121029
O20	O	-0.615265	0.023445	0.378971
C21	C	-0.948273	-0.285430	-0.000120
C22	C	-0.448273	0.214570	0.499880
C23	C	-0.842955	-0.271245	-0.000106
C24	C	-0.342955	0.228755	0.499894
C25	C	-1.127079	-0.068086	-0.000147
C26	C	-0.627079	0.431914	0.499853
C27	C	-1.124306	0.070746	-0.000142
C28	C	-0.624306	0.570746	0.499858
C29	C	-1.295003	-0.305804	-0.000163
C30	C	-0.795003	0.194196	0.499837
C31	C	-1.400321	-0.319989	-0.000168
C32	C	-0.900321	0.180011	0.499832
C33	C	-0.650125	-0.245313	-0.000135
C34	C	-0.150125	0.254687	0.499865
C35	C	-0.593146	-0.345915	-0.000138
C36	C	-0.093146	0.154085	0.499862
C37	C	-0.485848	-0.331486	-0.000155
C38	C	0.014152	0.168514	0.499845
C39	C	-0.757432	-0.259740	-0.000119
C40	C	-0.257432	0.240260	0.499881
C41	C	-1.116197	-0.523149	-0.000135
C42	C	-0.616197	-0.023149	0.499865
C43	C	-1.118970	-0.661980	-0.000131
C44	C	-0.618970	-0.161980	0.499869
N45	N	-1.121629	-0.295613	-0.344226
N46	N	-0.621629	0.204387	0.155774
C47	C	-1.205097	0.137646	-0.000151
C48	C	-0.705097	0.637646	0.499849
C49	C	-1.202234	0.281136	-0.000145
C50	C	-0.702234	0.781136	0.499855
C51	C	-1.176939	-0.373508	-0.416430
C52	C	-0.676939	0.126492	0.083570
C53	C	-1.176953	-0.373508	-0.583842
C54	C	-0.676953	0.126492	-0.083842
N55	N	-1.121655	-0.295612	0.343940
N56	N	-0.621655	0.204388	0.843940
H57	H	-0.624947	-0.442880	-0.000128
H58	H	-0.124947	0.057120	0.499872
Br59	Br	-1.323924	0.056066	-0.000152
Br60	Br	-0.823924	0.556066	0.499848
Br61	Br	-1.317519	0.376986	-0.000175
Br62	Br	-0.817519	0.876986	0.499825
Br63	Br	-0.597123	-0.083708	-0.000148
Br64	Br	-0.097123	0.416292	0.499852
H65	H	-1.049803	0.280515	-0.000134
H66	H	-0.549803	0.780515	0.499866
H67	H	-1.053017	0.119700	-0.000123
H68	H	-0.553017	0.619700	0.499877
H69	H	-1.224285	-0.440192	-0.354305
H70	H	-0.724285	0.059808	0.145695
Br71	Br	-1.255875	-0.484678	-0.687324
Br72	Br	-0.755875	0.015322	-0.187324
H73	H	-1.074295	-0.228925	-0.593976
H74	H	-0.574295	0.271075	-0.093976
H75	H	-1.074289	-0.228922	-0.406351
H76	H	-0.574289	0.271078	0.093649
