data_functionalizedCrystal
_audit_creation_method	'MofGen! by Chris Wilmer'
_symmetry_space_group_name_H-M	'P1'
_symmetry_Int_Tables_number	1
_symmetry_cell_setting	triclinic
loop_
_symmetry_equiv_pos_as_xyz
  x,y,z
_cell_length_a	10.489716
_cell_length_b	10.654558
_cell_length_c	9.730223
_cell_angle_alpha	89.999578
_cell_angle_beta	90.000146
_cell_angle_gamma	84.508681
loop_
_atom_site_label
_atom_site_type_symbol
_atom_site_fract_x
_atom_site_fract_y
_atom_site_fract_z
O1	O	1.693984	0.177039	-0.114276
O2	O	1.322777	0.193704	-0.114281
O3	O	1.516910	0.002636	-0.114272
O4	O	1.499851	0.368107	-0.114284
O5	O	1.516908	0.002641	0.114308
O6	O	1.322775	0.193709	0.114299
O7	O	1.693982	0.177044	0.114304
Zn8	Zn	1.508378	0.185377	0.150594
Zn9	Zn	1.508381	0.185371	-0.150570
O10	O	1.499849	0.368112	0.114296
C11	C	1.515654	-0.044160	0.000016
C12	C	1.511900	-0.183604	0.000012
C13	C	1.275244	0.192454	0.000009
C14	C	1.133615	0.188708	0.000007
C15	C	1.510133	-0.249115	0.124609
C16	C	1.506616	-0.380139	0.124603
C17	C	1.506630	-0.380128	-0.124607
C18	C	1.510156	-0.249108	-0.124600
C19	C	1.511877	-0.183612	0.249221
C20	C	1.510108	-0.249123	0.373828
C21	C	1.506592	-0.380147	0.373822
C22	C	1.504845	-0.445660	0.249210
C23	C	1.035888	0.305877	-0.000000
C24	C	0.958569	0.243965	0.112710
C25	C	0.958578	0.243932	-0.112652
C26	C	1.058161	0.126845	0.112810
C27	C	1.058176	0.126830	-0.112653
C28	C	0.980906	0.064832	0.000084
C29	C	1.741515	0.178294	0.000012
C30	C	1.883144	0.182040	0.000005
C31	C	1.501105	0.414908	0.000004
C32	C	1.504859	0.554352	-0.000001
N33	N	1.508385	0.185381	0.356130
N34	N	1.508384	0.185357	-0.356107
C35	C	1.594370	0.100805	0.428060
C36	C	1.594366	0.100790	0.571943
C37	C	1.422390	0.269937	0.571953
C38	C	1.422388	0.269945	0.428073
C39	C	1.680367	0.016240	0.356117
C40	C	1.766359	-0.068341	0.428047
C41	C	1.766356	-0.068357	0.571930
C42	C	1.680360	0.016210	0.643883
H43	H	1.514735	-0.076925	0.249240
Cl44	Cl	0.891395	0.320330	0.259818
Cl45	Cl	1.500445	-0.610380	0.249208
Cl46	Cl	0.891410	0.320327	-0.259748
Cl47	Cl	1.125063	0.050530	0.260076
Cl48	Cl	1.680351	0.016174	0.824766
Cl49	Cl	1.314293	0.376246	0.662409
H50	H	1.352371	0.338813	0.369507
Cl51	Cl	1.874451	-0.174658	0.337595
H52	H	0.956522	-0.037162	0.000153
H53	H	1.060511	0.407795	0.000102
H54	H	1.836365	-0.137234	0.630494
H55	H	1.505205	-0.433478	-0.226061
Cl56	Cl	1.512321	-0.166769	0.530474
Cl57	Cl	1.512383	-0.166745	-0.281239
Cl58	Cl	1.680380	0.016260	0.175236
Cl59	Cl	1.125390	0.050534	-0.259771
Cl60	Cl	1.504382	-0.462503	0.530467
