data_functionalizedCrystal
_audit_creation_method	'MofGen! by Chris Wilmer'
_symmetry_space_group_name_H-M	'P1'
_symmetry_Int_Tables_number	1
_symmetry_cell_setting	triclinic
loop_
_symmetry_equiv_pos_as_xyz
  x,y,z
_cell_length_a	10.654541
_cell_length_b	10.268362
_cell_length_c	10.654545
_cell_angle_alpha	89.997069
_cell_angle_beta	95.515322
_cell_angle_gamma	90.003229
loop_
_atom_site_label
_atom_site_type_symbol
_atom_site_fract_x
_atom_site_fract_y
_atom_site_fract_z
O1	O	1.667845	0.108253	-0.176385
O2	O	1.302366	0.108264	-0.193195
O3	O	1.493507	0.108257	-0.002051
O4	O	1.476703	0.108259	-0.367529
O5	O	1.493491	-0.108344	-0.002043
O6	O	1.302349	-0.108337	-0.193187
O7	O	1.667828	-0.108348	-0.176377
Cu8	Cu	1.485087	-0.128120	-0.184781
Cu9	Cu	1.485107	0.128036	-0.184791
O10	O	1.476686	-0.108341	-0.367521
C11	C	1.255559	-0.000035	-0.191957
C12	C	1.116116	-0.000031	-0.188266
N13	N	1.485082	-0.308286	-0.184774
C14	C	1.088146	-0.000013	-0.416831
C15	C	1.008652	0.000001	-0.529374
C16	C	0.877634	0.000002	-0.525898
C17	C	0.826108	-0.000015	-0.409867
C18	C	0.905602	-0.000029	-0.297324
C19	C	1.036622	-0.000026	-0.300812
C20	C	0.933572	-0.000056	-0.068763
C21	C	1.064590	-0.000048	-0.072235
C22	C	0.882046	-0.000073	0.047269
C23	C	0.961540	-0.000077	0.159814
C24	C	1.092565	-0.000077	0.156334
C25	C	1.144084	-0.000062	0.040308
C26	C	1.485100	-0.573956	-0.184788
C27	C	1.485086	-0.426118	-0.184784
C28	C	1.714634	-0.000046	-0.177615
C29	C	1.854078	-0.000042	-0.181306
C30	C	1.492265	-0.000041	0.044751
C31	C	1.488572	-0.000033	0.184195
N32	N	1.485121	0.308202	-0.184788
C33	C	1.477929	-0.000041	-0.414323
C34	C	1.481621	-0.000040	-0.553766
C35	C	1.488606	0.236112	0.184194
C36	C	1.486892	0.354184	0.249704
C37	C	1.483423	0.354185	0.380723
C38	C	1.481664	0.236102	0.446234
C39	C	1.483377	0.118030	0.380725
C40	C	1.486850	0.118042	0.249703
C41	C	1.483335	-0.118111	0.380724
C42	C	1.486813	-0.118116	0.249706
C43	C	1.481575	-0.236194	0.446235
C44	C	1.483297	-0.354269	0.380727
C45	C	1.486768	-0.354266	0.249700
C46	C	1.488526	-0.236188	0.184196
H47	H	1.194826	0.000015	-0.419672
H48	H	0.812909	0.000005	-0.617541
C49	C	0.737931	-0.000070	0.051100
H50	H	0.718632	-0.000090	0.136319
H51	H	0.703133	0.075470	0.009687
H52	H	0.703120	-0.075606	0.009676
C53	C	0.904860	-0.000093	0.287430
H54	H	0.815446	-0.000089	0.273381
H55	H	0.932077	-0.075626	0.333820
H56	H	0.932073	0.075450	0.333815
H57	H	1.488323	0.450324	0.196350
C58	C	1.065333	0.000025	-0.656998
H59	H	1.154747	0.000035	-0.642956
H60	H	1.038111	-0.075500	-0.703394
H61	H	1.038118	0.075576	-0.703373
H62	H	1.491445	0.236122	0.077514
H63	H	1.478824	0.236114	0.552915
H64	H	1.491358	-0.236174	0.077515
H65	H	1.157283	-0.000094	0.247981
C66	C	1.477756	-0.236202	0.590352
H67	H	1.476943	-0.323434	0.619981
H68	H	1.550087	-0.192607	0.628934
H69	H	1.403860	-0.192586	0.611048
C70	C	0.681992	-0.000023	-0.406046
H71	H	0.642029	-0.000010	-0.489689
H72	H	0.657516	-0.075560	-0.363051
H73	H	0.657520	0.075517	-0.363052
C74	C	1.288198	-0.000065	0.036474
H75	H	1.307495	-0.000064	-0.048745
H76	H	1.323016	0.075458	0.077901
H77	H	1.322992	-0.075618	0.077883
H78	H	1.482017	0.450329	0.434059
H79	H	1.481856	-0.450402	0.434075
H80	H	1.488144	-0.450415	0.196367
