data_functionalizedCrystal
_audit_creation_method	'MofGen! by Chris Wilmer'
_symmetry_space_group_name_H-M	'P1'
_symmetry_Int_Tables_number	1
_symmetry_cell_setting	triclinic
loop_
_symmetry_equiv_pos_as_xyz
  x,y,z
_cell_length_a	19.077105
_cell_length_b	29.839131
_cell_length_c	19.076919
_cell_angle_alpha	87.732541
_cell_angle_beta	89.923776
_cell_angle_gamma	87.737628
loop_
_atom_site_label
_atom_site_type_symbol
_atom_site_fract_x
_atom_site_fract_y
_atom_site_fract_z
Zn1	Zn	1.058171	-0.217337	0.440392
Zn2	Zn	1.391504	0.115996	0.773725
Zn3	Zn	1.724837	0.449330	1.107059
Zn4	Zn	1.062777	-0.289569	0.322877
Zn5	Zn	1.396111	0.043764	0.656210
Zn6	Zn	1.729444	0.377097	0.989543
Zn7	Zn	0.945391	-0.211319	0.318186
Zn8	Zn	1.278724	0.122015	0.651520
Zn9	Zn	1.612058	0.455348	0.984853
Zn10	Zn	0.940599	-0.289298	0.435629
Zn11	Zn	1.273932	0.044035	0.768963
Zn12	Zn	1.607266	0.377368	1.102296
O13	O	1.001735	-0.251881	0.379271
O14	O	1.335068	0.081452	0.712604
O15	O	1.668401	0.414786	1.045938
O16	O	1.157112	-0.229551	0.428760
O17	O	1.490446	0.103783	0.762093
O18	O	1.823779	0.437116	1.095426
O19	O	1.051139	-0.276784	0.223924
O20	O	1.384472	0.056549	0.557257
O21	O	1.717806	0.389883	0.890590
O22	O	0.960429	-0.149253	0.334427
O23	O	1.293762	0.184081	0.667761
O24	O	1.627096	0.517414	1.001094
O25	O	1.160497	-0.282620	0.342422
O26	O	1.493830	0.050714	0.675755
O27	O	1.827163	0.384047	1.009088
O28	O	1.043288	-0.153674	0.424211
O29	O	1.376621	0.179659	0.757545
O30	O	1.709954	0.512992	1.090878
O31	O	0.964896	-0.219294	0.220477
O32	O	1.298229	0.114040	0.553811
O33	O	1.631563	0.447373	0.887144
O34	O	0.846425	-0.219031	0.329809
O35	O	1.179758	0.114302	0.663142
O36	O	1.513092	0.447636	0.996476
O37	O	0.952262	-0.282158	0.534592
O38	O	1.285595	0.051175	0.867926
O39	O	1.618928	0.384509	1.201259
O40	O	0.842904	-0.276322	0.416094
O41	O	1.176238	0.057011	0.749427
O42	O	1.509571	0.390344	1.082761
O43	O	1.038641	-0.229288	0.538091
O44	O	1.371974	0.104045	0.871425
O45	O	1.705308	0.437379	1.204758
O46	O	1.046493	-0.352398	0.337803
O47	O	1.379826	-0.019065	0.671137
O48	O	1.713159	0.314269	1.004470
O49	O	0.956729	-0.352199	0.420642
O50	O	1.290062	-0.018865	0.753976
O51	O	1.623395	0.314468	1.087309
C52	C	0.819169	-0.246995	0.371926
C53	C	1.152502	0.086339	0.705260
C54	C	1.485835	0.419672	1.038593
C55	C	0.741065	-0.244915	0.368801
C56	C	1.074399	0.088418	0.702134
C57	C	1.407732	0.421751	1.035467
C58	C	0.702560	-0.273809	0.412186
C59	C	1.035894	0.059525	0.745519
C60	C	1.369227	0.392858	1.078852
C61	C	0.629174	-0.271849	0.409252
C62	C	0.962507	0.061484	0.742586
C63	C	1.295841	0.394817	1.075919
C64	C	0.594294	-0.240998	0.362930
C65	C	0.927627	0.092335	0.696263
C66	C	1.260961	0.425668	1.029596
C67	C	0.632804	-0.212102	0.319543
C68	C	0.966137	0.121231	0.652876
C69	C	1.299471	0.454565	0.986210
C70	C	0.706189	-0.214059	0.322481
C71	C	1.039522	0.119274	0.655814
C72	C	1.372856	0.452607	0.989147
C73	C	0.375011	-0.231938	0.349338
C74	C	0.708344	0.101395	0.682672
C75	C	1.041678	0.434728	1.016005
C76	C	0.301621	-0.229984	0.346403
C77	C	0.634954	0.103349	0.679736
C78	C	0.968287	0.436683	1.013069
C79	C	0.297996	-0.289731	0.436113
C80	C	0.631329	0.043602	0.769446
C81	C	0.964662	0.376936	1.102780
C82	C	0.371382	-0.291688	0.439043
C83	C	0.704716	0.041646	0.772377
C84	C	1.038049	0.374979	1.105710
C85	C	0.409886	-0.262790	0.395659
C86	C	0.743219	0.070544	0.728993
C87	C	1.076553	0.403877	1.062326
N88	N	0.519281	-0.238996	0.359929
N89	N	0.852615	0.094338	0.693262
N90	N	1.185948	0.427671	1.026595
N91	N	0.484897	-0.264790	0.398664
N92	N	0.818230	0.068543	0.731998
N93	N	1.151564	0.401876	1.065331
C94	C	1.001609	-0.368599	0.379231
C95	C	1.334942	-0.035266	0.712565
C96	C	1.668276	0.298067	1.045898
C97	C	1.001619	-0.418534	0.379240
C98	C	1.334952	-0.085201	0.712574
C99	C	1.668285	0.248133	1.045907
C100	C	1.048554	-0.728276	0.336206
C101	C	1.381887	-0.394943	0.669539
C102	C	1.715220	-0.061609	1.002873
C103	C	1.048639	-0.915952	0.336237
C104	C	1.381973	-0.582619	0.669570
C105	C	1.715306	-0.249285	1.002903
O106	O	1.088445	-0.940297	0.299616
O107	O	1.421779	-0.606964	0.632950
O108	O	1.755112	-0.273631	0.966283
N109	N	1.001878	-0.939328	0.379330
N110	N	1.335211	-0.605995	0.712663
N111	N	1.668545	-0.272661	1.045997
C112	C	0.955095	-0.915782	0.422422
C113	C	1.288429	-0.582449	0.755755
C114	C	1.621762	-0.249116	1.089089
O115	O	0.915329	-0.939972	0.459082
O116	O	1.248662	-0.606638	0.792415
O117	O	1.581996	-0.273305	1.125748
C118	C	0.955014	-0.728107	0.422395
C119	C	1.288347	-0.394774	0.755728
C120	C	1.621680	-0.061441	1.089061
C121	C	1.001773	-0.704734	0.379293
C122	C	1.335106	-0.371400	0.712626
C123	C	1.668440	-0.038067	1.045960
C124	C	1.095310	-0.704902	0.293109
C125	C	1.428643	-0.371569	0.626442
C126	C	1.761976	-0.038236	0.959775
C127	C	1.095285	-0.657986	0.293099
C128	C	1.428619	-0.324653	0.626432
C129	C	1.761952	0.008681	0.959765
C130	C	1.048505	-0.634443	0.336186
C131	C	1.381838	-0.301110	0.669519
C132	C	1.715171	0.032223	1.002852
C133	C	1.001749	-0.657817	0.379283
C134	C	1.335082	-0.324484	0.712616
C135	C	1.668415	0.008849	1.045950
C136	C	0.908235	-0.704563	0.465490
C137	C	1.241568	-0.371229	0.798823
C138	C	1.574902	-0.037896	1.132157
C139	C	0.908220	-0.657641	0.465480
C140	C	1.241553	-0.324308	0.798814
C141	C	1.574886	0.009026	1.132147
C142	C	0.954979	-0.634267	0.422379
C143	C	1.288312	-0.300934	0.755712
C144	C	1.621646	0.032399	1.089046
C145	C	0.954944	-0.587358	0.422360
C146	C	1.288277	-0.254025	0.755694
C147	C	1.621610	0.079308	1.089027
N148	N	1.001705	-0.563982	0.379267
N149	N	1.335038	-0.230649	0.712600
N150	N	1.668371	0.102684	1.045934
C151	C	1.048485	-0.587525	0.336180
C152	C	1.381819	-0.254192	0.669513
C153	C	1.715152	0.079142	1.002846
C154	C	0.955141	-1.014314	0.422432
C155	C	1.288474	-0.680981	0.755766
C156	C	1.621807	-0.347648	1.089099
C157	C	0.955160	-1.061233	0.422439
C158	C	1.288493	-0.727900	0.755772
C159	C	1.621827	-0.394566	1.089105
C160	C	1.048705	-1.061399	0.336254
C161	C	1.382038	-0.728066	0.669587
C162	C	1.715372	-0.394733	1.002921
C163	C	1.048682	-1.014480	0.336245
C164	C	1.382015	-0.681147	0.669578
C165	C	1.715348	-0.347813	1.002911
C166	C	1.001902	-0.990938	0.379339
C167	C	1.335235	-0.657605	0.712672
C168	C	1.668568	-0.324272	1.046006
C169	C	1.048430	-0.488997	0.336161
C170	C	1.381763	-0.155664	0.669495
C171	C	1.715097	0.177669	1.002828
C172	C	1.048399	-0.442077	0.336153
C173	C	1.381733	-0.108743	0.669486
C174	C	1.715066	0.224590	1.002820
C175	C	0.954857	-0.441914	0.422340
C176	C	1.288190	-0.108581	0.755673
C177	C	1.621524	0.224752	1.089007
C178	C	0.954885	-0.488831	0.422346
C179	C	1.288218	-0.155497	0.755679
C180	C	1.621552	0.177836	1.089013
C181	C	1.001677	-0.512371	0.379255
C182	C	1.335010	-0.179038	0.712588
C183	C	1.668344	0.154296	1.045921
O184	O	0.915164	-0.562985	0.458967
O185	O	1.248497	-0.229651	0.792300
O186	O	1.581830	0.103682	1.125634
O187	O	1.088256	-0.563328	0.299537
O188	O	1.421589	-0.229995	0.632870
O189	O	1.754923	0.103339	0.966204
C190	C	1.048578	-0.775192	0.336216
C191	C	1.381911	-0.441859	0.669549
C192	C	1.715245	-0.108526	1.002883
C193	C	1.001822	-0.798566	0.379313
C194	C	1.335155	-0.465233	0.712647
C195	C	1.668489	-0.131900	1.045980
C196	C	0.955041	-0.775024	0.422401
C197	C	1.288375	-0.441690	0.755734
C198	C	1.621708	-0.108357	1.089067
C199	C	1.001841	-0.845485	0.379319
C200	C	1.335175	-0.512151	0.712653
C201	C	1.668508	-0.178818	1.045986
C202	C	1.048622	-0.869027	0.336232
C203	C	1.381955	-0.535694	0.669565
C204	C	1.715289	-0.202361	1.002899
C205	C	1.095383	-0.845651	0.293139
C206	C	1.428716	-0.512318	0.626472
C207	C	1.762050	-0.178985	0.959805
C208	C	1.095359	-0.798735	0.293129
C209	C	1.428692	-0.465402	0.626462
C210	C	1.762025	-0.132068	0.959795
C211	C	0.908280	-0.798400	0.465494
C212	C	1.241614	-0.465066	0.798827
C213	C	1.574947	-0.131733	1.132161
C214	C	0.908308	-0.845316	0.465500
C215	C	1.241641	-0.511983	0.798833
C216	C	1.574975	-0.178650	1.132166
C217	C	0.955089	-0.868859	0.422413
C218	C	1.288422	-0.535525	0.755746
C219	C	1.621755	-0.202192	1.089079
C220	C	1.185013	-0.256787	0.386645
C221	C	1.518347	0.076547	0.719979
C222	C	1.851680	0.409880	1.053312
C223	C	1.263116	-0.258877	0.389788
C224	C	1.596449	0.074456	0.723121
C225	C	1.929783	0.407789	1.056454
C226	C	0.994403	-0.256364	0.562551
C227	C	1.327736	0.076969	0.895884
C228	C	1.661070	0.410303	1.229217
C229	C	0.991279	-0.258274	0.640654
C230	C	1.324612	0.075059	0.973987
C231	C	1.657945	0.408392	1.307320
C232	C	1.001879	-0.134708	0.379327
C233	C	1.335212	0.198626	0.712661
C234	C	1.668546	0.531959	1.045994
C235	C	1.001941	-0.084775	0.379351
C236	C	1.335274	0.248558	0.712685
C237	C	1.668607	0.581891	1.046018
C238	C	1.009078	-0.247384	0.196706
C239	C	1.342411	0.085949	0.530039
C240	C	1.675745	0.419283	0.863373
C241	C	1.012338	-0.245351	0.118609
C242	C	1.345672	0.087983	0.451943
C243	C	1.679005	0.421316	0.785276
C244	C	1.034782	-0.231647	0.679169
C245	C	1.368115	0.101687	1.012503
C246	C	1.701448	0.435020	1.345836
C247	C	1.031838	-0.233440	0.752555
C248	C	1.365171	0.099894	1.085888
C249	C	1.698504	0.433227	1.419222
C250	C	0.985394	-0.261863	0.787424
C251	C	1.318727	0.071470	1.120757
C252	C	1.652060	0.404803	1.454090
C253	C	0.941886	-0.288492	0.748903
C254	C	1.275219	0.044841	1.082236
C255	C	1.608553	0.378175	1.415569
C256	C	0.944827	-0.286696	0.675518
C257	C	1.278160	0.046637	1.008852
C258	C	1.611494	0.379970	1.342185
C259	C	0.971772	-0.270184	1.006704
C260	C	1.305105	0.063150	1.340037
C261	C	1.638438	0.396483	1.673370
C262	C	0.968835	-0.271978	1.080093
C263	C	1.302169	0.061355	1.413427
C264	C	1.635502	0.394688	1.746760
C265	C	1.058787	-0.216925	1.083741
C266	C	1.392120	0.116408	1.417074
C267	C	1.725453	0.449742	1.750407
C268	C	1.061727	-0.215134	1.010355
C269	C	1.395060	0.118199	1.343688
C270	C	1.728393	0.451533	1.677022
C271	C	1.018216	-0.241761	0.971840
C272	C	1.351550	0.091572	1.305174
C273	C	1.684883	0.424906	1.638507
N274	N	0.982385	-0.263698	0.862436
N275	N	1.315718	0.069635	1.195769
N276	N	1.649051	0.402969	1.529102
N277	N	1.021222	-0.239924	0.896830
N278	N	1.354555	0.093410	1.230163
N279	N	1.687889	0.426743	1.563496
H280	H	1.086476	-0.423047	0.301052
H281	H	1.419810	-0.089714	0.634385
H282	H	1.753143	0.243620	0.967719
H283	H	0.597826	-0.295378	0.444580
H284	H	0.931160	0.037956	0.777914
H285	H	1.264493	0.371289	1.111247
H286	H	0.936353	-0.291872	0.975354
H287	H	1.269686	0.041461	1.308687
H288	H	1.603020	0.374795	1.642021
H289	H	0.399777	-0.316811	0.476762
H290	H	0.733110	0.016523	0.810096
H291	H	1.066443	0.349856	1.143429
H292	H	1.067264	-0.211758	0.783912
H293	H	1.400597	0.121576	1.117245
H294	H	1.733931	0.454909	1.450578
C295	C	0.860198	-0.959324	0.428313
C296	C	1.193531	-0.625991	0.761646
C297	C	1.526864	-0.292657	1.094979
C298	C	0.903712	-0.988439	0.469800
C299	C	1.237045	-0.655106	0.803134
C300	C	1.570379	-0.321772	1.136467
H301	H	0.828450	-0.943349	0.457556
H302	H	1.161783	-0.610016	0.790889
H303	H	1.495117	-0.276683	1.124222
H304	H	0.834584	-0.976185	0.396601
H305	H	1.167918	-0.642852	0.729934
H306	H	1.501251	-0.309519	1.063267
H307	H	0.888050	-0.938687	0.402654
H308	H	1.221383	-0.605354	0.735988
H309	H	1.554716	-0.272020	1.069321
H310	H	0.875860	-1.009078	0.495455
H311	H	1.209194	-0.675745	0.828788
H312	H	1.542527	-0.342412	1.162122
H313	H	0.929328	-0.971577	0.501525
H314	H	1.262661	-0.638243	0.834858
H315	H	1.595994	-0.304910	1.168191
C316	C	0.211707	-0.296172	0.527313
C317	C	0.545040	0.037161	0.860646
C318	C	0.878373	0.370494	1.193980
C319	C	0.255670	-0.321489	0.483806
C320	C	0.589003	0.011844	0.817139
C321	C	0.922336	0.345178	1.150473
H322	H	0.185580	-0.315779	0.556762
H323	H	0.518913	0.017554	0.890095
H324	H	0.852247	0.350887	1.223429
H325	H	0.180436	-0.277524	0.499303
H326	H	0.513769	0.055809	0.832636
H327	H	0.847102	0.389142	1.165969
H328	H	0.239293	-0.278050	0.555389
H329	H	0.572626	0.055284	0.888722
H330	H	0.905960	0.388617	1.222056
H331	H	0.228083	-0.339610	0.455726
H332	H	0.561416	-0.006276	0.789059
H333	H	0.894750	0.327057	1.122393
H334	H	0.286944	-0.340145	0.511819
H335	H	0.620278	-0.006812	0.845153
H336	H	0.953611	0.326522	1.178486
C337	C	0.312571	-0.171115	0.258027
C338	C	0.645904	0.162219	0.591361
C339	C	0.979238	0.495552	0.924694
C340	C	0.263279	-0.196068	0.295485
C341	C	0.596612	0.137266	0.628818
C342	C	0.929946	0.470599	0.962151
H343	H	0.288898	-0.150177	0.226597
H344	H	0.622232	0.183157	0.559931
H345	H	0.955565	0.516490	0.893264
H346	H	0.342246	-0.190762	0.232236
H347	H	0.675579	0.142571	0.565569
H348	H	1.008912	0.475905	0.898902
H349	H	0.339990	-0.155476	0.289848
H350	H	0.673324	0.177858	0.623181
H351	H	1.006657	0.511191	0.956514
H352	H	0.235863	-0.211709	0.263665
H353	H	0.569196	0.121624	0.596998
H354	H	0.902529	0.454957	0.930331
H355	H	0.233592	-0.176417	0.321278
H356	H	0.566925	0.156916	0.654611
H357	H	0.900259	0.490249	0.987944
H358	H	0.406352	-0.208411	0.314006
H359	H	0.739685	0.124922	0.647340
H360	H	1.073019	0.458256	0.980673
C361	C	0.815847	-0.840428	0.550700
C362	C	1.149181	-0.507094	0.884034
C363	C	1.482514	-0.173761	1.217367
C364	C	0.856906	-0.871006	0.512883
C365	C	1.190240	-0.537672	0.846217
C366	C	1.523573	-0.204339	1.179550
H367	H	0.784122	-0.856287	0.579958
H368	H	1.117456	-0.522954	0.913291
H369	H	1.450789	-0.189621	1.246625
H370	H	0.790208	-0.820690	0.518978
H371	H	1.123542	-0.487357	0.852311
H372	H	1.456875	-0.154023	1.185645
H373	H	0.845368	-0.823573	0.578821
H374	H	1.178701	-0.490239	0.912154
H375	H	1.512035	-0.156906	1.245488
H376	H	0.827386	-0.887858	0.484758
H377	H	1.160720	-0.554525	0.818092
H378	H	1.494053	-0.221191	1.151425
H379	H	0.882547	-0.890751	0.544609
H380	H	1.215881	-0.557418	0.877943
H381	H	1.549214	-0.224084	1.211276
H382	H	0.870155	-0.723586	0.500584
H383	H	1.203488	-0.390252	0.833918
H384	H	1.536822	-0.056919	1.167251
H385	H	0.604399	-0.186981	0.281829
H386	H	0.937732	0.146353	0.615163
H387	H	1.271065	0.479686	0.948496
C388	C	1.150337	-0.160892	1.021334
C389	C	1.483671	0.172442	1.354668
C390	C	1.817004	0.505775	1.688001
C391	C	1.112776	-0.183887	0.972029
C392	C	1.446109	0.149446	1.305363
C393	C	1.779442	0.482780	1.638696
H394	H	1.181851	-0.141600	0.997672
H395	H	1.515184	0.191733	1.331005
H396	H	1.848517	0.525066	1.664338
H397	H	1.176044	-0.181884	1.051028
H398	H	1.509377	0.151450	1.384362
H399	H	1.842710	0.484783	1.717695
H400	H	1.118589	-0.143589	1.048733
H401	H	1.451922	0.189744	1.382066
H402	H	1.785256	0.523077	1.715399
H403	H	1.144524	-0.201192	0.944634
H404	H	1.477857	0.132141	1.277967
H405	H	1.811191	0.465475	1.611301
H406	H	1.087068	-0.162892	0.942323
H407	H	1.420401	0.170441	1.275657
H408	H	1.753734	0.503774	1.608990
H409	H	0.931013	-0.295125	1.108481
H410	H	1.264346	0.038208	1.441814
H411	H	1.597680	0.371542	1.775148
C412	C	1.132619	-0.225913	0.600456
C413	C	1.465952	0.107421	0.933790
C414	C	1.799286	0.440754	1.267123
C415	C	1.085833	-0.200401	0.640844
C416	C	1.419167	0.132932	0.974178
C417	C	1.752500	0.466265	1.307511
H418	H	1.164137	-0.206621	0.576801
H419	H	1.497470	0.126713	0.910135
H420	H	1.830803	0.460046	1.243468
H421	H	1.107133	-0.241511	0.567017
H422	H	1.440466	0.091823	0.900350
H423	H	1.773799	0.425156	1.233684
H424	H	1.158325	-0.246903	0.630165
H425	H	1.491659	0.086430	0.963498
H426	H	1.824992	0.419764	1.296831
H427	H	1.060123	-0.179413	0.611135
H428	H	1.393456	0.153920	0.944469
H429	H	1.726790	0.487254	1.277802
H430	H	1.111322	-0.184796	0.674288
H431	H	1.444656	0.148537	1.007621
H432	H	1.777989	0.481871	1.340955
C433	C	0.897440	-0.315692	0.859775
C434	C	1.230774	0.017641	1.193108
C435	C	1.564107	0.350975	1.526441
C436	C	0.890833	-0.319736	0.787229
C437	C	1.224166	0.013597	1.120562
C438	C	1.557500	0.346931	1.453895
H439	H	0.865925	-0.334984	0.883433
H440	H	1.199258	-0.001651	1.216766
H441	H	1.532592	0.331683	1.550100
H442	H	0.886711	-0.285531	0.871399
H443	H	1.220044	0.047802	1.204732
H444	H	1.553378	0.381136	1.538066
H445	H	0.944165	-0.323826	0.873693
H446	H	1.277498	0.009507	1.207026
H447	H	1.610832	0.342841	1.540359
H448	H	0.844109	-0.311599	0.773310
H449	H	1.177443	0.021734	1.106643
H450	H	1.510776	0.355068	1.439976
H451	H	0.901557	-0.349904	0.775599
H452	H	1.234891	-0.016570	1.108933
H453	H	1.568224	0.316763	1.442266
C454	C	0.702406	-0.154813	0.233500
C455	C	1.035740	0.178520	0.566834
C456	C	1.369073	0.511854	0.900167
C457	C	0.748517	-0.182303	0.274784
C458	C	1.081850	0.151030	0.608117
C459	C	1.415183	0.484364	0.941451
H460	H	0.728539	-0.135209	0.204052
H461	H	1.061872	0.198124	0.537385
H462	H	1.395205	0.531458	0.870718
H463	H	0.672584	-0.137645	0.263019
H464	H	1.005917	0.195688	0.596352
H465	H	1.339251	0.529022	0.929685
H466	H	0.674832	-0.172942	0.205423
H467	H	1.008165	0.160391	0.538757
H468	H	1.341499	0.493724	0.872090
H469	H	0.776087	-0.164173	0.302865
H470	H	1.109421	0.169160	0.636198
H471	H	1.442754	0.502493	0.969532
H472	H	0.778351	-0.199472	0.245262
H473	H	1.111684	0.133861	0.578596
H474	H	1.445018	0.467194	0.911929
C475	C	0.855639	-0.341307	0.679280
C476	C	1.188972	-0.007973	1.012613
C477	C	1.522306	0.325360	1.345947
C478	C	0.897019	-0.315974	0.633179
C479	C	1.230353	0.017359	0.966513
C480	C	1.563686	0.350692	1.299846
H481	H	0.826129	-0.359385	0.653141
H482	H	1.159462	-0.026052	0.986474
H483	H	1.492795	0.307282	1.319808
H484	H	0.827631	-0.321717	0.706823
H485	H	1.160964	0.011617	1.040156
H486	H	1.494298	0.344950	1.373489
H487	H	0.885096	-0.360005	0.709134
H488	H	1.218430	-0.026671	1.042467
H489	H	1.551763	0.306662	1.375801
H490	H	0.867562	-0.297274	0.603328
H491	H	1.200895	0.036059	0.936662
H492	H	1.534229	0.369393	1.269995
H493	H	0.925030	-0.335567	0.605625
H494	H	1.258363	-0.002233	0.938958
H495	H	1.591696	0.331100	1.272291
H496	H	0.730954	-0.298932	0.449904
H497	H	1.064288	0.034401	0.783237
H498	H	1.397621	0.367734	1.116571
C499	C	0.813337	-0.743413	0.471363
C500	C	1.146670	-0.410079	0.804697
C501	C	1.480003	-0.076746	1.138030
C502	C	0.856853	-0.772524	0.512855
C503	C	1.190186	-0.439191	0.846188
C504	C	1.523520	-0.105857	1.179522
H505	H	0.781587	-0.727438	0.500604
H506	H	1.114920	-0.394104	0.833937
H507	H	1.448254	-0.060771	1.167270
H508	H	0.787725	-0.760277	0.439653
H509	H	1.121059	-0.426943	0.772987
H510	H	1.454392	-0.093610	1.106320
H511	H	0.841187	-0.722776	0.445703
H512	H	1.174520	-0.389443	0.779036
H513	H	1.507853	-0.056109	1.112369
H514	H	0.829003	-0.793163	0.538512
H515	H	1.162336	-0.459830	0.871845
H516	H	1.495670	-0.126497	1.205178
H517	H	0.882466	-0.755659	0.544577
H518	H	1.215799	-0.422325	0.877911
H519	H	1.549133	-0.088992	1.211244
H520	H	1.086534	-0.508158	0.301074
H521	H	1.419867	-0.174825	0.634407
H522	H	1.753201	0.158508	0.967740
C523	C	1.065314	-0.158776	1.166684
C524	C	1.398648	0.174557	1.500017
C525	C	1.731981	0.507891	1.833350
C526	C	1.106605	-0.187653	1.126076
C527	C	1.439938	0.145680	1.459409
C528	C	1.773271	0.479014	1.792743
H529	H	1.094837	-0.140701	1.192815
H530	H	1.428170	0.192632	1.526149
H531	H	1.761503	0.525966	1.859482
H532	H	1.037243	-0.175962	1.197951
H533	H	1.370576	0.157372	1.531284
H534	H	1.703910	0.490705	1.864617
H535	H	1.035868	-0.140076	1.136822
H536	H	1.369202	0.193258	1.470155
H537	H	1.702535	0.526591	1.803488
H538	H	1.136047	-0.206356	1.155938
H539	H	1.469380	0.126978	1.489272
H540	H	1.802714	0.460311	1.822605
H541	H	1.134688	-0.170466	1.094806
H542	H	1.468021	0.162868	1.428139
H543	H	1.801355	0.496201	1.761473
H544	H	1.133363	-0.638958	0.258004
H545	H	1.466696	-0.305624	0.591337
H546	H	1.800029	0.027709	0.924671
H547	H	0.916812	-0.507863	0.457445
H548	H	1.250145	-0.174529	0.790778
H549	H	1.583478	0.158804	1.124112
C550	C	1.187760	-0.700341	0.207913
C551	C	1.521093	-0.367008	0.541246
C552	C	1.854427	-0.033674	0.874579
C553	C	1.146733	-0.730775	0.245737
C554	C	1.480066	-0.397441	0.579070
C555	C	1.813400	-0.064108	0.912403
H556	H	1.219502	-0.716312	0.178659
H557	H	1.552836	-0.382979	0.511993
H558	H	1.886169	-0.049645	0.845326
H559	H	1.213379	-0.683488	0.239630
H560	H	1.546713	-0.350154	0.572964
H561	H	1.880046	-0.016821	0.906297
H562	H	1.158220	-0.680589	0.179787
H563	H	1.491554	-0.347255	0.513120
H564	H	1.824887	-0.013922	0.846454
H565	H	1.176272	-0.750525	0.273867
H566	H	1.509606	-0.417192	0.607200
H567	H	1.842939	-0.083858	0.940533
H568	H	1.121112	-0.747636	0.214015
H569	H	1.454445	-0.414302	0.547348
H570	H	1.787778	-0.080969	0.880682
H571	H	1.086757	-0.995452	0.301148
H572	H	1.420091	-0.662118	0.634482
H573	H	1.753424	-0.328785	0.967815
C574	C	1.090338	-1.133404	0.298084
C575	C	1.423671	-0.800071	0.631418
C576	C	1.757004	-0.466737	0.964751
C577	C	1.100179	-1.087286	0.288947
C578	C	1.433512	-0.753953	0.622280
C579	C	1.766845	-0.420619	0.955613
H580	H	1.122134	-1.149387	0.268901
H581	H	1.455467	-0.816053	0.602234
H582	H	1.788800	-0.482720	0.935568
H583	H	1.043575	-1.139623	0.285811
H584	H	1.376909	-0.806290	0.619144
H585	H	1.710242	-0.472957	0.952477
H586	H	1.098643	-1.142479	0.345738
H587	H	1.431976	-0.809146	0.679072
H588	H	1.765309	-0.475812	1.012405
H589	H	1.091869	-1.078210	0.241293
H590	H	1.425202	-0.744877	0.574627
H591	H	1.758535	-0.411543	0.907960
H592	H	1.146952	-1.081063	0.301216
H593	H	1.480285	-0.747730	0.634549
H594	H	1.813619	-0.414397	0.967882
H595	H	0.917078	-1.080260	0.457529
H596	H	1.250411	-0.746926	0.790863
H597	H	1.583744	-0.413593	1.124196
H598	H	1.133435	-0.779707	0.258032
H599	H	1.466768	-0.446374	0.591365
H600	H	1.800101	-0.113041	0.924698
H601	H	0.916767	-0.422739	0.457419
H602	H	1.250100	-0.089405	0.790752
H603	H	1.583433	0.243928	1.124086
C604	C	0.815764	-0.662194	0.550682
C605	C	1.149098	-0.328860	0.884015
C606	C	1.482431	0.004473	1.217348
C607	C	0.856797	-0.631765	0.512853
C608	C	1.190130	-0.298432	0.846187
C609	C	1.523463	0.034901	1.179520
H610	H	0.784016	-0.646218	0.579923
H611	H	1.117350	-0.312885	0.913257
H612	H	1.450683	0.020448	1.246590
H613	H	0.845295	-0.681941	0.578813
H614	H	1.178628	-0.348608	0.912146
H615	H	1.511961	-0.015275	1.245479
H616	H	0.790145	-0.679052	0.518961
H617	H	1.123478	-0.345719	0.852294
H618	H	1.456812	-0.012385	1.185627
H619	H	0.882420	-0.614909	0.544574
H620	H	1.215753	-0.281576	0.877907
H621	H	1.549087	0.051758	1.211241
H622	H	0.827263	-0.612010	0.484720
H623	H	1.160596	-0.278676	0.818053
H624	H	1.493929	0.054657	1.151387
H625	H	1.133472	-0.864828	0.258053
H626	H	1.466805	-0.531494	0.591387
H627	H	1.800138	-0.198161	0.924720
