data_functionalizedCrystal
_audit_creation_method	'MofGen! by Chris Wilmer'
_symmetry_space_group_name_H-M	'P1'
_symmetry_Int_Tables_number	1
_symmetry_cell_setting	triclinic
loop_
_symmetry_equiv_pos_as_xyz
  x,y,z
_cell_length_a	27.732048
_cell_length_b	10.654550
_cell_length_c	9.730223
_cell_angle_alpha	89.997176
_cell_angle_beta	90.002035
_cell_angle_gamma	83.563793
loop_
_atom_site_label
_atom_site_type_symbol
_atom_site_fract_x
_atom_site_fract_y
_atom_site_fract_z
O1	O	-0.641857	-0.149413	0.114113
O2	O	-0.501205	-0.172132	0.114154
O3	O	-0.574765	0.022102	0.114124
O4	O	-0.568297	-0.343648	0.114143
O5	O	-0.574760	0.022102	-0.114456
O6	O	-0.501200	-0.172132	-0.114426
O7	O	-0.641852	-0.149414	-0.114467
Zn8	Zn	-0.571525	-0.160773	-0.150738
Zn9	Zn	-0.571532	-0.160773	0.150425
O10	O	-0.568292	-0.343648	-0.114437
C11	C	-0.483193	-0.171655	-0.000130
C12	C	-0.429529	-0.170219	-0.000115
C13	C	-0.574287	0.068880	-0.000165
C14	C	-0.572867	0.208264	-0.000163
C15	C	-0.659864	-0.149890	-0.000179
C16	C	-0.713528	-0.151326	-0.000186
C17	C	-0.091372	-0.275959	-0.000169
C18	C	0.110321	-0.270631	-0.000181
O19	O	0.140974	-0.367322	-0.000236
N20	N	0.130162	-0.155458	-0.000185
C21	C	0.099576	-0.041609	-0.000194
O22	O	0.121080	0.056475	-0.000212
C23	C	-0.102116	-0.046938	-0.000192
C24	C	-0.121954	-0.162118	-0.000174
C25	C	-0.111211	-0.391130	-0.000153
C26	C	-0.161631	-0.392461	-0.000142
C27	C	-0.192213	-0.278620	-0.000148
C28	C	-0.172374	-0.163449	-0.000164
C29	C	-0.132701	0.066910	-0.000211
C30	C	-0.183126	0.065567	-0.000214
C31	C	-0.202964	-0.049613	-0.000196
C32	C	-0.253376	-0.050940	-0.000158
N33	N	-0.273217	-0.166113	-0.000155
C34	C	-0.242635	-0.279953	-0.000149
C35	C	0.205467	-0.038819	-0.000193
C36	C	0.255890	-0.037486	-0.000191
C37	C	0.266631	-0.266509	-0.000181
C38	C	0.216208	-0.267840	-0.000173
C39	C	0.185626	-0.153992	-0.000190
C40	C	-0.348522	-0.282739	-0.000126
C41	C	-0.398947	-0.284060	-0.000109
C42	C	-0.409684	-0.055038	-0.000127
C43	C	-0.359263	-0.053716	-0.000136
C44	C	-0.328683	-0.167577	-0.000140
O45	O	-0.284058	0.045700	-0.000119
O46	O	-0.264149	-0.378023	-0.000162
C47	C	-0.040952	-0.274628	-0.000179
C48	C	-0.021113	-0.159457	-0.000195
C49	C	-0.051695	-0.045616	-0.000201
C50	C	0.029309	-0.158124	-0.000194
C51	C	0.059891	-0.271965	-0.000188
C52	C	0.040050	-0.387138	-0.000185
C53	C	-0.010370	-0.388469	-0.000174
C54	C	-0.031854	0.069557	-0.000204
C55	C	0.018567	0.070878	-0.000213
C56	C	0.049148	-0.042962	-0.000208
C57	C	-0.568769	-0.390426	-0.000145
C58	C	-0.570190	-0.529810	-0.000138
N59	N	-0.571524	-0.160772	-0.356275
C60	C	-0.616177	0.289570	-0.000175
C61	C	-0.614840	0.420535	-0.000158
C62	C	-0.526876	0.388874	-0.000122
C63	C	-0.528215	0.257912	-0.000129
C64	C	-0.601092	-0.236412	-0.428201
C65	C	-0.601100	-0.236404	-0.572084
C66	C	-0.541968	-0.085116	-0.572102
C67	C	-0.541963	-0.085117	-0.428222
N68	N	-0.571537	-0.160763	0.355962
H69	H	-0.415096	-0.377858	-0.000094
Br70	Br	-0.469431	0.147557	-0.000094
Br71	Br	-0.641214	-0.339077	-0.330562
Br72	Br	-0.673621	0.530876	-0.000166
Br73	Br	-0.641232	-0.339056	-0.669693
H74	H	-0.517884	-0.023516	-0.369658
H75	H	-0.490522	0.429313	-0.000097
H76	H	-0.026517	-0.482260	-0.000162
H77	H	-0.517899	-0.023521	-0.630699
Br78	Br	-0.188546	-0.548786	-0.000125
Br79	Br	-0.307028	-0.437266	-0.000133
H80	H	-0.086316	-0.483838	-0.000153
Br81	Br	0.081564	-0.541634	-0.000167
H82	H	-0.056749	0.162261	-0.000212
Br83	Br	0.189290	-0.424161	-0.000150
H84	H	0.291540	-0.359202	-0.000177
Br85	Br	-0.224627	0.220085	-0.000244
H86	H	0.180572	0.053896	-0.000207
Br87	Br	-0.105791	0.223236	-0.000205
Br88	Br	0.282807	0.118836	-0.000174
H89	H	-0.343110	0.040073	-0.000130
H90	H	-0.434592	0.037648	-0.000126
H91	H	-0.652536	0.249152	-0.000199
Br92	Br	0.045483	0.227210	-0.000214
