data_functionalizedCrystal
_audit_creation_method	'MofGen! by Chris Wilmer'
_symmetry_space_group_name_H-M	'P1'
_symmetry_Int_Tables_number	1
_symmetry_cell_setting	triclinic
loop_
_symmetry_equiv_pos_as_xyz
  x,y,z
_cell_length_a	12.759401
_cell_length_b	13.032721
_cell_length_c	13.032268
_cell_angle_alpha	76.710373
_cell_angle_beta	82.836092
_cell_angle_gamma	97.205831
loop_
_atom_site_label
_atom_site_type_symbol
_atom_site_fract_x
_atom_site_fract_y
_atom_site_fract_z
Zn1	Zn	1.458905	-0.499040	0.654168
Zn2	Zn	1.458791	-0.654124	0.499116
Zn3	Zn	1.308770	-0.476539	0.476591
Zn4	Zn	1.257631	-0.676604	0.676662
O5	O	1.371024	-0.576577	0.576634
O6	O	1.605908	-0.519621	0.633612
O7	O	1.460244	-0.611743	0.347507
O8	O	1.350136	-0.330893	0.481306
O9	O	1.605824	-0.633561	0.519696
O10	O	1.460440	-0.347424	0.611771
O11	O	1.350025	-0.481272	0.330959
O12	O	1.154968	-0.503069	0.503118
O13	O	1.262976	-0.671874	0.822299
O14	O	1.117396	-0.650056	0.650110
O15	O	1.410852	-0.541419	0.805772
O16	O	1.410656	-0.805737	0.541508
O17	O	1.262865	-0.822253	0.671951
C18	C	1.098062	-0.576561	0.576611
C19	C	0.981280	-0.576583	0.576630
C20	C	0.906882	-0.653209	0.653075
C21	C	0.797155	-0.653216	0.653096
C22	C	0.836234	-0.499967	0.500219
C23	C	0.945959	-0.499956	0.500203
C24	C	0.623738	-0.707233	0.783147
C25	C	0.549336	-0.783874	0.859585
C26	C	0.567684	-0.889578	0.888863
C27	C	0.660433	-0.918660	0.841691
C28	C	0.734830	-0.842023	0.765247
C29	C	0.716482	-0.736307	0.735987
C30	C	1.119376	-0.445950	0.370152
C31	C	1.193775	-0.369317	0.293702
C32	C	1.175431	-0.263610	0.264412
C33	C	1.082681	-0.234530	0.311566
C34	C	1.008282	-0.311163	0.388016
C35	C	1.026634	-0.416869	0.417307
C36	C	1.331224	-0.852536	0.611638
C37	C	1.314289	-0.970598	0.626648
C38	C	1.379912	-1.015033	0.568848
C39	C	1.362410	-1.137055	0.584360
C40	C	1.645052	-0.576593	0.576658
C41	C	1.761827	-0.576600	0.576668
C42	C	1.331223	-0.611664	0.853649
C43	C	1.314261	-0.626616	0.971696
C44	C	1.411005	-0.299542	0.541517
C45	C	1.428042	-0.181487	0.526552
C46	C	1.410743	-0.541550	0.300688
C47	C	1.427950	-0.526299	0.182603
C48	C	1.379866	-0.568735	1.016148
C49	C	1.362337	-0.584187	1.138155
H50	H	0.935636	-0.715601	0.715309
H51	H	1.245152	-1.022892	0.687621
C52	C	1.473278	-0.486332	0.945549
C53	C	1.589300	-0.496911	0.961805
C54	C	1.682715	-0.414506	0.891211
C55	C	1.660108	-0.321522	0.804360
C56	C	1.544081	-0.310939	0.788100
C57	C	1.450666	-0.393344	0.858694
H58	H	1.606040	-0.565747	1.026101
H59	H	1.768606	-0.422341	0.903248
H60	H	1.729260	-0.260520	0.752102
H61	H	1.527341	-0.242103	0.723804
H62	H	1.364775	-0.385510	0.846657
C63	C	1.473319	-0.944396	0.486480
C64	C	1.480029	-0.944300	0.367655
C65	C	1.573439	-0.873664	0.285286
C66	C	1.660138	-0.803125	0.321742
C67	C	1.653431	-0.803219	0.440573
C68	C	1.560022	-0.873854	0.522942
H69	H	1.415846	-0.996519	0.340663
H70	H	1.578403	-0.873595	0.197319
H71	H	1.729286	-0.750836	0.260767
H72	H	1.717614	-0.750999	0.467565
H73	H	1.555057	-0.873923	0.610909
C74	C	1.062472	-0.118257	0.279358
C75	C	0.961986	-0.092972	0.230481
C76	C	0.941769	0.023299	0.198268
C77	C	1.022037	0.114284	0.214932
C78	C	1.122529	0.089002	0.263811
C79	C	1.142746	-0.027269	0.296024
H80	H	0.902561	-0.160327	0.218143
H81	H	0.867377	0.042014	0.162084
H82	H	1.007070	0.200355	0.191085
H83	H	1.181954	0.156357	0.276149
H84	H	1.217138	-0.045984	0.332208
H85	H	1.293269	-1.189346	0.645338
H86	H	1.134327	-0.532023	0.394004
H87	H	1.293183	-0.645178	1.190419
H88	H	1.236013	-0.201218	0.202152
H89	H	1.497093	-0.465295	1.130339
H90	H	0.810343	-0.865701	0.726840
H91	H	0.473822	-0.760186	0.897992
C92	C	1.521456	-1.110861	0.444177
C93	C	1.528161	-1.110774	0.325354
C94	C	1.621573	-1.040150	0.242980
C95	C	1.708280	-0.969612	0.279428
C96	C	1.701578	-0.969695	0.398257
C97	C	1.608166	-1.040320	0.480631
H98	H	1.463973	-1.162993	0.298368
H99	H	1.626534	-1.040088	0.155015
H100	H	1.777429	-0.917331	0.218450
H101	H	1.765766	-0.917476	0.425243
H102	H	1.603205	-1.040381	0.568596
H103	H	0.675357	-1.004738	0.865528
H104	H	0.507098	-0.951979	0.951101
H105	H	0.608796	-0.621159	0.759324
C106	C	0.797372	-0.415689	0.416149
C107	C	0.727323	-0.338233	0.451753
C108	C	0.688462	-0.253955	0.367680
C109	C	0.719650	-0.247133	0.248003
C110	C	0.789702	-0.324592	0.212393
C111	C	0.828563	-0.408869	0.296466
H112	H	0.704233	-0.343280	0.540351
H113	H	0.636605	-0.196615	0.394042
H114	H	0.690883	-0.184746	0.185767
H115	H	0.812792	-0.319544	0.123795
H116	H	0.880420	-0.466209	0.270104
H117	H	0.932765	-0.287475	0.426418
H118	H	1.269296	-0.393003	0.255307
H119	H	1.245113	-0.687602	1.023963
