data_functionalizedCrystal
_audit_creation_method	'MofGen! by Chris Wilmer'
_symmetry_space_group_name_H-M	'P1'
_symmetry_Int_Tables_number	1
_symmetry_cell_setting	triclinic
loop_
_symmetry_equiv_pos_as_xyz
  x,y,z
_cell_length_a	15.995343
_cell_length_b	15.944499
_cell_length_c	15.072220
_cell_angle_alpha	90.002115
_cell_angle_beta	89.991823
_cell_angle_gamma	83.483397
loop_
_atom_site_label
_atom_site_type_symbol
_atom_site_fract_x
_atom_site_fract_y
_atom_site_fract_z
O1	O	1.110986	0.108236	-0.073687
O2	O	1.610986	0.608236	0.426313
O3	O	0.867208	0.121613	-0.073708
O4	O	1.367208	0.621613	0.426292
O5	O	0.995777	-0.007354	-0.073698
O6	O	1.495777	0.492646	0.426302
O7	O	0.982417	0.237202	-0.073696
O8	O	1.482417	0.737202	0.426304
O9	O	0.995745	-0.007347	0.073867
O10	O	1.495745	0.492653	0.573867
O11	O	0.867176	0.121620	0.073858
O12	O	1.367176	0.621620	0.573858
O13	O	1.110954	0.108243	0.073878
O14	O	1.610954	0.608243	0.573878
Zn15	Zn	0.989060	0.114932	0.097297
Zn16	Zn	1.489060	0.614932	0.597297
Zn17	Zn	0.989102	0.114923	-0.097126
Zn18	Zn	1.489102	0.614923	0.402874
O19	O	0.982386	0.237210	0.073869
O20	O	1.482386	0.737210	0.573869
C21	C	0.835997	0.121064	0.000072
C22	C	1.335997	0.621064	0.500072
C23	C	0.743047	0.119410	0.000064
C24	C	1.243047	0.619410	0.500064
C25	C	0.572861	0.116407	0.000076
C26	C	1.072861	0.616407	0.500076
C27	C	0.549527	0.023312	0.000075
C28	C	1.049527	0.523312	0.500075
C29	C	0.452849	0.021561	0.000415
C30	C	0.952849	0.521561	0.500415
C31	C	0.405301	0.113449	0.000087
C32	C	0.905301	0.613449	0.500087
C33	C	0.434369	0.160262	0.084186
C34	C	0.934369	0.660262	0.584186
C35	C	0.531161	0.161366	0.084252
C36	C	1.031161	0.661366	0.584252
C37	C	0.531108	0.162721	-0.083563
C38	C	1.031108	0.662721	0.416437
C39	C	0.434613	0.159284	-0.084663
C40	C	0.934613	0.659284	0.415337
C41	C	0.310603	0.111782	0.000096
C42	C	0.810603	0.611782	0.500096
C43	C	0.667559	0.118076	0.000073
C44	C	1.167559	0.618076	0.500073
C45	C	0.995214	-0.038645	0.000082
C46	C	1.495214	0.461355	0.500082
C47	C	0.993574	-0.131893	0.000075
C48	C	1.493574	0.368107	0.500075
C49	C	1.068269	-0.423436	0.000086
C50	C	1.568269	0.076564	0.500086
C51	C	1.029425	-0.362404	0.072844
C52	C	1.529425	0.137596	0.572844
C53	C	0.987617	-0.467530	0.000085
C54	C	1.487617	0.032470	0.500085
C55	C	1.029435	-0.362417	-0.072644
C56	C	1.529435	0.137583	0.427356
C57	C	0.990548	-0.302621	0.000079
C58	C	1.490548	0.197379	0.500079
C59	C	0.948750	-0.407726	0.072902
C60	C	1.448750	0.092274	0.572902
C61	C	0.948771	-0.407745	-0.072651
C62	C	1.448771	0.092255	0.427349
C63	C	0.909869	-0.346731	0.000124
C64	C	1.409869	0.153269	0.500124
C65	C	0.985930	-0.562529	0.000089
C66	C	1.485930	-0.062529	0.500089
C67	C	0.992228	-0.207622	0.000081
C68	C	1.492228	0.292378	0.500081
C69	C	1.142165	0.108791	0.000096
C70	C	1.642165	0.608791	0.500096
C71	C	1.235115	0.110446	0.000099
C72	C	1.735115	0.610446	0.500099
C73	C	0.982948	0.268501	0.000087
C74	C	1.482948	0.768501	0.500087
C75	C	0.984588	0.361749	0.000088
C76	C	1.484588	0.861749	0.500088
N77	N	0.989038	0.114938	0.229986
N78	N	1.489038	0.614938	0.729986
N79	N	0.989131	0.114910	-0.229815
N80	N	1.489131	0.614910	0.270185
C81	C	0.989100	0.114920	0.589187
C82	C	1.489100	0.614920	1.089187
C83	C	0.920075	0.183696	0.551575
C84	C	1.420075	0.683696	1.051575
C85	C	0.920233	0.183947	0.448750
C86	C	1.420233	0.683947	0.948750
C87	C	0.989069	0.114929	0.410983
C88	C	1.489069	0.614929	0.910983
C89	C	1.076431	0.134069	0.448282
C90	C	1.576431	0.634069	0.948282
C91	C	1.076044	0.134558	0.551140
C92	C	1.576044	0.634558	1.051140
C93	C	0.971542	0.026799	0.551285
C94	C	1.471542	0.526799	1.051285
C95	C	0.969537	0.027387	0.448421
C96	C	1.469537	0.527387	0.948421
C97	C	0.989056	0.114933	0.310270
C98	C	1.489056	0.614933	0.810270
C99	C	0.989119	0.114918	0.689901
C100	C	1.489119	0.614918	1.189901
H101	H	0.578503	-0.012181	0.060294
H102	H	1.078503	0.487819	0.560294
H103	H	0.914652	-0.427701	0.134477
H104	H	1.414652	0.072299	0.634477
H105	H	0.433848	-0.015084	-0.059859
H106	H	0.933848	0.484916	0.440141
Br107	Br	1.102845	0.239961	0.405338
Br108	Br	1.602845	0.739961	0.905338
H109	H	0.577552	-0.012775	-0.060224
H110	H	1.077552	0.487225	0.439776
Br111	Br	1.179826	-0.479000	0.000206
Br112	Br	1.679826	0.021000	0.500206
H113	H	1.016547	-0.026191	0.422717
H114	H	1.516547	0.473809	0.922717
Br115	Br	1.086261	-0.328908	0.175368
Br116	Br	1.586261	0.171092	0.675368
H117	H	0.401649	0.226331	-0.090001
H118	H	0.901649	0.726331	0.409999
H119	H	0.434404	-0.014906	0.061053
H120	H	0.934404	0.485094	0.561053
H121	H	0.914699	-0.427858	-0.134168
H122	H	1.414699	0.072142	0.365832
Br123	Br	1.101836	0.241670	0.591120
Br124	Br	1.601836	0.741670	1.091120
Br125	Br	1.086336	-0.328953	-0.175154
Br126	Br	1.586336	0.171047	0.324846
H127	H	0.414268	0.128148	0.147011
H128	H	0.914268	0.628148	0.647011
H129	H	0.909222	0.008394	0.577270
H130	H	1.409222	0.508394	1.077270
H131	H	0.855295	0.172543	0.423533
H132	H	1.355295	0.672543	0.923533
H133	H	0.905273	0.012861	0.424044
H134	H	1.405273	0.512861	0.924044
H135	H	0.545725	0.229635	0.087848
H136	H	1.045725	0.729635	0.587848
H137	H	1.129022	0.085309	0.423817
H138	H	1.629022	0.585309	0.923817
Br139	Br	0.554405	0.276944	-0.084886
Br140	Br	1.054405	0.776944	0.415114
H141	H	0.854926	0.172480	0.576331
H142	H	1.354926	0.672480	1.076331
Br143	Br	0.798210	-0.291422	0.000173
Br144	Br	1.298210	0.208578	0.500173
Br145	Br	0.938510	0.292080	0.594623
Br146	Br	1.438510	0.792080	1.094623
Br147	Br	0.381279	0.272980	0.089011
Br148	Br	0.881279	0.772980	0.589011
Br149	Br	0.938879	0.292951	0.407719
Br150	Br	1.438879	0.792951	0.907719
Br151	Br	1.164138	0.054150	0.592612
Br152	Br	1.664138	0.554150	1.092612
H153	H	1.021879	-0.024382	0.575607
H154	H	1.521879	0.475618	1.075607
H155	H	0.559395	0.133347	-0.147328
H156	H	1.059395	0.633347	0.352672
Br157	Br	0.403748	0.102444	-0.188368
Br158	Br	0.903748	0.602444	0.311632
Br159	Br	0.575795	0.107974	0.189430
Br160	Br	1.075795	0.607974	0.689430
