data_functionalizedCrystal
_audit_creation_method	'MofGen! by Chris Wilmer'
_symmetry_space_group_name_H-M	'P1'
_symmetry_Int_Tables_number	1
_symmetry_cell_setting	triclinic
loop_
_symmetry_equiv_pos_as_xyz
  x,y,z
_cell_length_a	12.645331
_cell_length_b	12.645330
_cell_length_c	12.645323
_cell_angle_alpha	90.024870
_cell_angle_beta	90.026382
_cell_angle_gamma	90.011946
loop_
_atom_site_label
_atom_site_type_symbol
_atom_site_fract_x
_atom_site_fract_y
_atom_site_fract_z
Zn1	Zn	-1.620731	0.422193	-0.599551
Zn2	Zn	-1.620613	0.599481	-0.422291
Zn3	Zn	-1.443446	0.422215	-0.422284
Zn4	Zn	-1.443428	0.599398	-0.599495
O5	O	-1.532054	0.510822	-0.510905
O6	O	-1.769063	0.445737	-0.576064
O7	O	-1.597069	0.576011	-0.273943
O8	O	-1.467020	0.273865	-0.445819
O9	O	-1.768976	0.575990	-0.445831
O10	O	-1.597271	0.273849	-0.576057
O11	O	-1.466906	0.445773	-0.273938
O12	O	-1.295096	0.445692	-0.445765
O13	O	-1.466989	0.575847	-0.747850
O14	O	-1.295083	0.575868	-0.575961
O15	O	-1.597253	0.445656	-0.747891
O16	O	-1.597052	0.747818	-0.445777
O17	O	-1.466874	0.747756	-0.575968
C18	C	-1.256625	0.510774	-0.510857
C19	C	-1.138795	0.510779	-0.510861
C20	C	-0.971204	0.428495	-0.429396
C21	C	-1.093763	0.428718	-0.429045
C22	C	-1.094274	0.622449	-0.480344
C23	C	-0.971676	0.621990	-0.479780
C24	C	-0.971645	0.482424	-0.623134
C25	C	-1.094251	0.479939	-0.622519
C26	C	-0.808560	0.510850	-0.510938
C27	C	-0.926390	0.510809	-0.510911
C28	C	-1.531977	0.786252	-0.510890
C29	C	-1.532041	0.904082	-0.510920
C30	C	-1.532133	0.510740	-0.787411
C31	C	-1.532166	0.510705	-0.905241
C32	C	-1.532161	0.234316	-0.510943
C33	C	-1.532206	0.116486	-0.510960
C34	C	-1.450484	1.071651	-0.593075
C35	C	-1.450067	0.949091	-0.592811
C36	C	-1.501796	0.948673	-0.399196
C37	C	-1.501298	1.071271	-0.399694
C38	C	-1.644342	1.071182	-0.539582
C39	C	-1.643654	0.948575	-0.542025
C40	C	-1.449964	0.592222	-1.072779
C41	C	-1.450179	0.592626	-0.950219
C42	C	-1.643865	0.541035	-0.949768
C43	C	-1.643414	0.541546	-1.072366
C44	C	-1.503724	0.398402	-1.072437
C45	C	-1.501232	0.399075	-0.949830
C46	C	-1.532038	0.510827	-0.235476
C47	C	-1.532210	0.510563	-0.117646
H48	H	-0.940749	0.402410	-0.650884
H49	H	-1.563628	0.337563	-1.101454
O50	O	-1.132908	0.705878	-0.556514
H51	H	-1.184378	0.668546	-0.617072
O52	O	-1.725100	1.109577	-0.460467
H53	H	-1.787183	1.155530	-0.502157
H54	H	-1.124930	0.646940	-0.399187
O55	O	-1.340474	0.567451	-0.910324
H56	H	-1.286787	0.554886	-0.978598
O57	O	-1.397704	0.361794	-1.113355
H58	H	-1.407917	0.286866	-1.157959
O59	O	-1.727310	0.466133	-1.111644
H60	H	-1.689786	0.403489	-1.160349
O61	O	-1.339912	0.567325	-1.111794
H62	H	-1.342655	0.496489	-1.163588
H63	H	-1.558238	1.100934	-0.336425
H64	H	-0.942031	0.685397	-0.536563
H65	H	-1.671932	1.102029	-0.619666
H66	H	-1.666463	0.919427	-0.624248
H67	H	-1.123355	0.397762	-0.645530
O68	O	-1.727228	0.464765	-0.911170
H69	H	-1.689842	0.404290	-0.859716
O70	O	-0.932103	0.318488	-0.454433
H71	H	-0.958450	0.295739	-0.535034
H72	H	-1.420678	0.918053	-0.374512
H73	H	-1.123041	0.447484	-0.345887
H74	H	-1.559431	0.919520	-0.336341
H75	H	-1.469234	1.101065	-0.676189
H76	H	-1.468990	0.918939	-0.675653
H77	H	-1.468585	0.674852	-1.103599
O78	O	-1.341045	1.112548	-0.568278
H79	H	-1.344604	1.164668	-0.497722
O80	O	-1.339959	0.910340	-0.567666
H81	H	-1.286804	0.979167	-0.555638
H82	H	-1.668424	0.622168	-0.919081
H83	H	-1.667560	0.623538	-1.100979
O84	O	-1.134833	0.553595	-0.707268
H85	H	-1.222469	0.549461	-0.710060
O86	O	-0.933248	0.561826	-0.703593
H87	H	-1.002187	0.602084	-0.740078
O88	O	-1.392718	1.109279	-0.367588
H89	H	-1.341058	1.040094	-0.351858
O90	O	-1.728556	0.908034	-0.468545
H91	H	-1.692366	0.855304	-0.408439
O92	O	-1.474950	0.702794	-0.911375
H93	H	-1.486856	0.755983	-0.980157
O94	O	-1.392357	0.368764	-0.911260
H95	H	-1.333996	0.428229	-0.938845
O96	O	-1.133649	0.319025	-0.454347
H97	H	-1.065371	0.265339	-0.466942
O98	O	-0.930360	0.453092	-0.319885
H99	H	-0.842679	0.449041	-0.319800
O100	O	-0.933717	0.653859	-0.371107
H101	H	-1.002926	0.669449	-0.319450
O102	O	-1.574793	0.314222	-0.909286
H103	H	-1.656957	0.332458	-0.934222
