data_functionalizedCrystal
_audit_creation_method	'MofGen! by Chris Wilmer'
_symmetry_space_group_name_H-M	'P1'
_symmetry_Int_Tables_number	1
_symmetry_cell_setting	triclinic
loop_
_symmetry_equiv_pos_as_xyz
  x,y,z
_cell_length_a	10.489741
_cell_length_b	19.288865
_cell_length_c	17.766277
_cell_angle_alpha	90.011603
_cell_angle_beta	90.006652
_cell_angle_gamma	83.837711
loop_
_atom_site_label
_atom_site_type_symbol
_atom_site_fract_x
_atom_site_fract_y
_atom_site_fract_z
O1	O	-1.691846	-0.097994	-0.062557
O2	O	-1.320443	-0.107192	-0.062570
O3	O	-1.516876	-0.001535	-0.062548
O4	O	-1.495413	-0.203651	-0.062579
O5	O	-1.516842	-0.001529	0.062640
O6	O	-1.320408	-0.107187	0.062618
O7	O	-1.691812	-0.097988	0.062631
Cu8	Cu	-1.506107	-0.102587	0.074055
Cu9	Cu	-1.506148	-0.102594	-0.073994
O10	O	-1.495378	-0.203646	0.062609
C11	C	-1.516169	0.024349	0.000048
C12	C	-1.514095	0.101467	0.000055
C13	C	-1.272910	-0.106495	0.000023
C14	C	-1.131327	-0.104416	0.000019
C15	C	-1.739345	-0.098686	0.000037
C16	C	-1.880928	-0.100764	0.000036
C17	C	-1.064707	-0.037189	0.000036
C18	C	-0.971879	-0.068949	-0.061692
C19	C	-0.971879	-0.068960	0.061734
C20	C	-1.040364	-0.136204	-0.061760
C21	C	-1.040373	-0.136205	0.061721
C22	C	-0.947572	-0.168014	-0.000021
C23	C	-1.496086	-0.229530	0.000011
C24	C	-1.498159	-0.306647	-0.000000
N25	N	-1.506088	-0.102582	0.178186
C26	C	-1.629354	0.145390	0.000062
C27	C	-1.627406	0.217850	0.000050
C28	C	-1.510193	0.246384	0.000046
C29	C	-1.394920	0.202451	0.000034
C30	C	-1.396871	0.129992	0.000038
C31	C	-1.418039	0.355291	0.043893
C32	C	-1.416092	0.427749	0.043894
C33	C	-1.504171	0.469870	0.000029
C34	C	-1.594218	0.439526	-0.043827
C35	C	-1.596169	0.367067	-0.043822
C36	C	-1.508065	0.324952	0.000040
C37	C	-1.617326	0.592363	0.000022
C38	C	-1.615373	0.664824	0.000006
C39	C	-1.382884	0.649423	-0.000003
C40	C	-1.384839	0.576964	0.000006
C41	C	-1.502064	0.548438	0.000022
N42	N	-1.506177	-0.102593	-0.178125
C43	C	-1.593096	-0.055820	0.217582
C44	C	-1.593104	-0.055817	0.296384
C45	C	-1.506115	-0.102588	0.335786
C46	C	-1.419089	-0.149353	0.296380
C47	C	-1.419076	-0.149350	0.217580
C48	C	-1.489040	-0.165761	0.460614
C49	C	-1.489062	-0.165765	0.539413
C50	C	-1.506149	-0.102596	0.578833
C51	C	-1.523240	-0.039421	0.539444
C52	C	-1.523227	-0.039418	0.460643
C53	C	-1.506119	-0.102596	0.421232
C54	C	-1.593170	-0.055827	0.703675
C55	C	-1.593169	-0.055823	0.782478
C56	C	-1.419160	-0.149365	0.782473
C57	C	-1.419156	-0.149363	0.703671
C58	C	-1.506167	-0.102595	0.664277
H59	H	-1.115647	0.018075	-0.000033
H60	H	-0.896897	-0.223337	-0.000063
Br61	Br	-1.771810	0.724437	0.000008
Br62	Br	-1.301089	-0.212832	0.835941
Br63	Br	-0.921287	-0.021547	-0.148663
Br64	Br	-1.711250	0.007651	0.835950
Br65	Br	-1.091028	-0.183575	0.148694
Br66	Br	-1.713764	0.496681	-0.103362
H67	H	-1.348221	-0.187430	0.185503
H68	H	-1.303011	0.094229	0.000032
H69	H	-1.070563	-0.164629	-0.114005
Br70	Br	-1.465977	-0.251500	0.407125
H71	H	-1.342766	0.452448	0.079599
Br72	Br	-0.921294	-0.021528	0.148715
H73	H	-1.724807	0.122170	0.000073
H74	H	-1.663943	-0.017737	0.185510
H75	H	-1.721266	0.253619	0.000053
H76	H	-1.669485	0.342364	-0.079532
H77	H	-1.475153	-0.217205	0.571478
H78	H	-1.290983	0.541200	0.000004
H79	H	-1.348310	-0.187444	0.671593
H80	H	-1.537140	0.012021	0.428576
Br81	Br	-1.711196	0.007652	0.349860
H82	H	-1.712777	0.569137	0.000032
Br83	Br	-1.223806	0.688139	-0.000017
H84	H	-1.664017	-0.017743	0.671599
H85	H	-1.348259	-0.187433	0.328466
H86	H	-1.346311	0.321001	0.079618
H87	H	-1.537153	0.012017	0.571537
Br88	Br	-1.235844	0.241172	0.000018
