data_functionalizedCrystal
_audit_creation_method	'MofGen! by Chris Wilmer'
_symmetry_space_group_name_H-M	'P1'
_symmetry_Int_Tables_number	1
_symmetry_cell_setting	triclinic
loop_
_symmetry_equiv_pos_as_xyz
  x,y,z
_cell_length_a	16.625539
_cell_length_b	19.805407
_cell_length_c	19.805405
_cell_angle_alpha	89.973590
_cell_angle_beta	89.970033
_cell_angle_gamma	90.018020
loop_
_atom_site_label
_atom_site_type_symbol
_atom_site_fract_x
_atom_site_fract_y
_atom_site_fract_z
Zn1	Zn	-0.455910	-1.034725	-0.269474
Zn2	Zn	-0.122577	-0.701392	0.063859
Zn3	Zn	0.210756	-0.368059	0.397192
Zn4	Zn	-0.321069	-1.034643	-0.382664
Zn5	Zn	0.012264	-0.701310	-0.049331
Zn6	Zn	0.345597	-0.367977	0.284003
Zn7	Zn	-0.321089	-0.921543	-0.269494
Zn8	Zn	0.012245	-0.588210	0.063839
Zn9	Zn	0.345578	-0.254876	0.397172
Zn10	Zn	-0.455857	-0.921503	-0.382627
Zn11	Zn	-0.122524	-0.588170	-0.049293
Zn12	Zn	0.210810	-0.254837	0.284040
O13	O	-0.388481	-0.978104	-0.326065
O14	O	-0.055148	-0.644770	0.007268
O15	O	0.278185	-0.311437	0.340602
O16	O	-0.438038	-1.129431	-0.284497
O17	O	-0.104704	-0.796098	0.048837
O18	O	0.228629	-0.462764	0.382170
O19	O	-0.208239	-1.019622	-0.367676
O20	O	0.125094	-0.686289	-0.034343
O21	O	0.458427	-0.352956	0.298991
O22	O	-0.339003	-0.936608	-0.174775
O23	O	-0.005670	-0.603274	0.158558
O24	O	0.327663	-0.269941	0.491892
O25	O	-0.338970	-1.129371	-0.367656
O26	O	-0.005637	-0.796037	-0.034323
O27	O	0.327696	-0.462704	0.299010
O28	O	-0.438056	-1.019762	-0.174760
O29	O	-0.104723	-0.686429	0.158573
O30	O	0.228610	-0.353096	0.491906
O31	O	-0.208254	-0.936528	-0.284531
O32	O	0.125080	-0.603195	0.048803
O33	O	0.458413	-0.269862	0.382136
O34	O	-0.338952	-0.826821	-0.284494
O35	O	-0.005618	-0.493488	0.048839
O36	O	0.327715	-0.160155	0.382172
O37	O	-0.568696	-0.936540	-0.367593
O38	O	-0.235363	-0.603207	-0.034260
O39	O	0.097970	-0.269874	0.299074
O40	O	-0.437965	-0.826792	-0.367612
O41	O	-0.104632	-0.493459	-0.034279
O42	O	0.228701	-0.160125	0.299054
O43	O	-0.568736	-1.019724	-0.284460
O44	O	-0.235402	-0.686391	0.048873
O45	O	0.097931	-0.353057	0.382206
O46	O	-0.338919	-1.019584	-0.477376
O47	O	-0.005585	-0.686251	-0.144042
O48	O	0.327748	-0.352917	0.189291
O49	O	-0.437946	-0.936461	-0.477348
O50	O	-0.104613	-0.603127	-0.144015
O51	O	0.228720	-0.269794	0.189318
C52	C	-0.388442	-0.978028	-0.501921
C53	C	-0.055109	-0.644694	-0.168588
C54	C	0.278224	-0.311361	0.164746
C55	C	-0.388453	-0.978057	-0.577153
C56	C	-0.055119	-0.644724	-0.243820
C57	C	0.278214	-0.311390	0.089514
C58	C	-0.388455	-0.802248	-0.326052
C59	C	-0.055122	-0.468914	0.007281
C60	C	0.278211	-0.135581	0.340615
C61	C	-0.388463	-0.727016	-0.326063
C62	C	-0.055130	-0.393682	0.007271
C63	C	0.278204	-0.060349	0.340604
C64	C	-0.598790	-0.978137	-0.326020
C65	C	-0.265457	-0.644804	0.007313
C66	C	0.067876	-0.311470	0.340646
C67	C	-0.688411	-0.978151	-0.326001
C68	C	-0.355078	-0.644818	0.007332
C69	C	-0.021745	-0.311484	0.340665
C70	C	-0.761194	-0.978162	-0.325986
C71	C	-0.427861	-0.644829	0.007347
C72	C	-0.094527	-0.311495	0.340680
C73	C	-0.852502	-0.978178	-0.325961
C74	C	-0.519169	-0.644845	0.007372
C75	C	-0.185836	-0.311511	0.340706
C76	C	-0.925279	-0.978194	-0.325937
C77	C	-0.591946	-0.644861	0.007396
C78	C	-0.258612	-0.311527	0.340729
C79	C	-1.016593	-0.978211	-0.325913
C80	C	-0.683260	-0.644877	0.007421
C81	C	-0.349927	-0.311544	0.340754
C82	C	-0.178990	-0.978110	-0.326061
C83	C	0.154343	-0.644776	0.007273
C84	C	0.487676	-0.311443	0.340606
C85	C	-0.089370	-0.978227	-0.325889
C86	C	0.243964	-0.644893	0.007444
C87	C	0.577297	-0.311560	0.340778
C88	C	-0.388508	-1.154646	-0.326078
C89	C	-0.055175	-0.821313	0.007255
C90	C	0.278159	-0.487980	0.340588
C91	C	-0.388519	-1.229878	-0.326084
C92	C	-0.055186	-0.896545	0.007249
C93	C	0.278147	-0.563212	0.340582
C94	C	-0.439936	-0.691674	-0.369407
C95	C	-0.106603	-0.358341	-0.036074
C96	C	0.226731	-0.025007	0.297259
C97	C	-0.439947	-0.620986	-0.369409
C98	C	-0.106614	-0.287652	-0.036075
C99	C	0.226719	0.045681	0.297258
C100	C	-0.388481	-0.585640	-0.326068
C101	C	-0.055148	-0.252307	0.007265
C102	C	0.278185	0.081027	0.340599
C103	C	-0.337006	-0.620987	-0.282719
C104	C	-0.003673	-0.287653	0.050615
C105	C	0.329661	0.045680	0.383948
C106	C	-0.336999	-0.691674	-0.282715
C107	C	-0.003666	-0.358340	0.050619
C108	C	0.329667	-0.025007	0.383952
C109	C	-0.337033	-0.335913	-0.282734
C110	C	-0.003699	-0.002580	0.050600
C111	C	0.329634	0.330753	0.383933
C112	C	-0.337042	-0.265221	-0.282742
C113	C	-0.003708	0.068112	0.050591
C114	C	0.329625	0.401445	0.383924
C115	C	-0.439981	-0.265225	-0.369428
C116	C	-0.106647	0.068108	-0.036094
C117	C	0.226686	0.401441	0.297239
C118	C	-0.439974	-0.335912	-0.369424
C119	C	-0.106641	-0.002579	-0.036090
C120	C	0.226693	0.330754	0.297243
C121	C	-0.388502	-0.371253	-0.326072
C122	C	-0.055169	-0.037919	0.007261
C123	C	0.278164	0.295414	0.340595
C124	C	-0.388492	-0.447901	-0.326070
C125	C	-0.055158	-0.114568	0.007263
C126	C	0.278175	0.218765	0.340596
C127	C	-0.388487	-0.508993	-0.326073
C128	C	-0.055154	-0.175660	0.007261
C129	C	0.278179	0.157674	0.340594
C130	C	-0.336943	-1.021381	-0.612489
C131	C	-0.003609	-0.688048	-0.279156
C132	C	0.329724	-0.354715	0.054178
C133	C	-0.336961	-1.021410	-0.683177
C134	C	-0.003627	-0.688077	-0.349844
C135	C	0.329706	-0.354743	-0.016511
C136	C	-0.388485	-0.978110	-0.718529
C137	C	-0.055151	-0.644777	-0.385195
C138	C	0.278182	-0.311444	-0.051862
C139	C	-0.440000	-0.934784	-0.683188
C140	C	-0.106667	-0.601451	-0.349854
C141	C	0.226666	-0.268118	-0.016521
C142	C	-0.439986	-0.934759	-0.612500
C143	C	-0.106653	-0.601426	-0.279167
C144	C	0.226681	-0.268093	0.054166
C145	C	-0.440060	-0.934884	-0.968261
C146	C	-0.106727	-0.601551	-0.634928
C147	C	0.226607	-0.268217	-0.301594
C148	C	-0.440069	-0.934911	-1.038953
C149	C	-0.106735	-0.601577	-0.705620
C150	C	0.226598	-0.268244	-0.372286
C151	C	-0.337035	-1.021535	-1.038938
C152	C	-0.003701	-0.688201	-0.705604
C153	C	0.329632	-0.354868	-0.372271
C154	C	-0.337020	-1.021510	-0.968251
C155	C	-0.003687	-0.688176	-0.634917
C156	C	0.329646	-0.354843	-0.301584
C157	C	-0.388538	-0.978186	-0.932916
C158	C	-0.055205	-0.644853	-0.599583
C159	C	0.278128	-0.311520	-0.266249
C160	C	-0.388520	-0.978157	-0.856267
C161	C	-0.055186	-0.644823	-0.522934
C162	C	0.278147	-0.311490	-0.189601
C163	C	-0.388500	-0.978136	-0.795176
C164	C	-0.055167	-0.644803	-0.461842
C165	C	0.278167	-0.311470	-0.128509
C166	C	-0.388538	-0.978199	-0.149522
C167	C	-0.055205	-0.644865	0.183811
C168	C	0.278129	-0.311532	0.517144
C169	C	-0.388562	-0.978239	-0.074290
C170	C	-0.055229	-0.644906	0.259043
C171	C	0.278104	-0.311572	0.592376
H172	H	-0.481843	-0.720447	-0.404703
H173	H	-0.148510	-0.387114	-0.071369
H174	H	0.184823	-0.053781	0.261964
H175	H	-0.295115	-0.364679	-0.247439
H176	H	0.038218	-0.031346	0.085894
H177	H	0.371552	0.301988	0.419228
H178	H	-0.482032	-0.899652	-1.067734
H179	H	-0.148698	-0.566319	-0.734401
H180	H	0.184635	-0.232985	-0.401067
H181	H	-0.481895	-0.236443	-0.404724
H182	H	-0.148561	0.096891	-0.071391
H183	H	0.184772	0.430224	0.261943
H184	H	-0.295015	-1.056688	-0.711945
H185	H	0.038318	-0.723355	-0.378611
H186	H	0.371651	-0.390022	-0.045278
H187	H	-0.294982	-1.056638	-0.583711
H188	H	0.038351	-0.723304	-0.250377
H189	H	0.371684	-0.389971	0.082956
H190	H	-0.481931	-0.899481	-0.583731
H191	H	-0.148598	-0.566148	-0.250397
H192	H	0.184735	-0.232815	0.082936
H193	H	-0.482006	-0.899607	-0.939497
H194	H	-0.148673	-0.566274	-0.606164
H195	H	0.184660	-0.232941	-0.272830
H196	H	-0.295062	-1.056766	-0.939470
H197	H	0.038272	-0.723433	-0.606136
H198	H	0.371605	-0.390099	-0.272803
H199	H	-0.295132	-0.236445	-0.247445
H200	H	0.038202	0.096888	0.085888
H201	H	0.371535	0.430222	0.419222
H202	H	-0.481880	-0.364687	-0.404718
H203	H	-0.148547	-0.031354	-0.071385
H204	H	0.184786	0.301979	0.261948
H205	H	-0.295105	-0.592203	-0.247427
H206	H	0.038229	-0.258869	0.085906
H207	H	0.371562	0.074464	0.419240
H208	H	-0.295089	-0.720448	-0.247415
H209	H	0.038244	-0.387115	0.085918
H210	H	0.371578	-0.053781	0.419251
H211	H	-0.295089	-1.056813	-1.067716
H212	H	0.038244	-0.723480	-0.734382
H213	H	0.371578	-0.390147	-0.401049
H214	H	-0.481861	-0.592214	-0.404705
H215	H	-0.148528	-0.258880	-0.071371
H216	H	0.184806	0.074453	0.261962
H217	H	-0.481956	-0.899532	-0.711976
H218	H	-0.148622	-0.566199	-0.378643
H219	H	0.184711	-0.232865	-0.045310
