data_functionalizedCrystal
_audit_creation_method	'MofGen! by Chris Wilmer'
_symmetry_space_group_name_H-M	'P1'
_symmetry_Int_Tables_number	1
_symmetry_cell_setting	triclinic
loop_
_symmetry_equiv_pos_as_xyz
  x,y,z
_cell_length_a	18.426585
_cell_length_b	21.606444
_cell_length_c	21.606444
_cell_angle_alpha	119.998975
_cell_angle_beta	90.003314
_cell_angle_gamma	60.000201
loop_
_atom_site_label
_atom_site_type_symbol
_atom_site_fract_x
_atom_site_fract_y
_atom_site_fract_z
Zr1	Zr	0.699109	0.677470	0.081213
O2	O	0.583239	0.806581	0.180029
O3	O	0.734630	0.548354	0.050923
O4	O	0.734639	0.677469	0.180037
O5	O	0.583222	0.677470	-0.050935
O6	O	0.854065	0.677473	0.180040
O7	O	0.583230	0.677467	0.050916
O8	O	0.854049	0.446511	-0.050921
O9	O	0.583238	0.908432	0.180026
O10	O	0.838905	0.601467	0.038004
O11	O	0.749772	0.601466	-0.038008
O12	O	0.749783	0.753481	0.114006
O13	O	0.660650	0.753480	0.037995
Zr14	Zr	0.889566	0.677482	-0.081222
Zr15	Zr	0.889579	0.677477	0.081217
Zr16	Zr	0.699096	0.677475	-0.081227
Zr17	Zr	0.699107	0.839911	0.081208
Zr18	Zr	0.889568	0.515042	-0.081217
O19	O	0.854045	0.806598	-0.050933
O20	O	0.854063	0.806591	0.180035
O21	O	0.583220	0.806589	-0.050939
O22	O	1.005436	0.548371	-0.180039
O23	O	1.005455	0.548364	0.050929
O24	O	0.734612	0.548361	-0.180045
O25	O	1.005453	0.677482	0.050925
O26	O	0.854036	0.677484	-0.180046
O27	O	0.734610	0.677480	-0.180049
O28	O	1.005445	0.677485	-0.050925
O29	O	0.734636	0.908438	0.180029
O30	O	0.854039	0.446515	-0.180039
O31	O	1.005437	0.446520	-0.180036
O32	O	1.005448	0.446516	-0.050918
O33	O	0.583227	0.908436	0.050908
O34	O	0.734626	0.908442	0.050912
O35	O	0.838892	0.601471	-0.114016
O36	O	0.928025	0.601472	-0.038004
O37	O	0.838903	0.753487	0.037999
O38	O	0.749770	0.753486	-0.038013
C39	C	0.794340	0.474288	0.000002
C40	C	0.794341	0.405328	0.000004
C41	C	0.840865	0.372931	0.039682
C42	C	0.840868	0.308131	0.039677
C43	C	0.794342	0.275734	-0.000002
C44	C	0.747816	0.308133	-0.039686
C45	C	0.747819	0.372928	-0.039684
C46	C	0.747805	0.046824	-0.039692
C47	C	0.747804	-0.017973	-0.039688
C48	C	0.840855	-0.017973	0.039670
C49	C	0.840858	0.046822	0.039671
C50	C	0.794336	0.079213	-0.000015
C51	C	0.794335	0.149475	-0.000010
C52	C	0.794337	0.205477	-0.000003
C53	C	0.556088	0.677468	-0.000010
C54	C	0.475228	0.677465	-0.000012
C55	C	0.179114	0.677491	0.000002
C56	C	0.261500	0.677487	-0.000000
C57	C	0.327168	0.677478	-0.000004
C58	C	0.409560	0.677474	-0.000007
C59	C	1.032587	0.677485	0.000000
C60	C	1.113447	0.677488	0.000002
C61	C	0.794354	0.677470	0.203182
C62	C	0.794360	0.677468	0.272142
C63	C	0.794335	0.880664	-0.000011
C64	C	0.794334	0.949624	-0.000014
C65	C	0.728526	0.677481	0.695445
C66	C	0.728534	0.677475	0.630646
C67	C	0.794331	0.677476	0.598253
C68	C	0.860131	0.677474	0.630658
C69	C	0.860126	0.677474	0.695453
C70	C	0.860152	0.677472	0.369347
C71	C	0.860150	0.677475	0.304549
C72	C	0.728559	0.677473	0.304539
C73	C	0.728555	0.677474	0.369334
C74	C	0.794356	0.677467	0.401732
C75	C	0.794348	0.677472	0.471994
C76	C	0.794337	0.677477	0.527995
C77	C	0.794322	0.677482	0.796808
C78	C	0.794319	0.677482	0.727847
C79	C	1.032590	0.474297	0.000007
C80	C	1.113450	0.405340	0.000011
C81	C	0.794324	0.474294	-0.203185
C82	C	0.794319	0.405336	-0.272143
C83	C	1.032573	0.474303	-0.203180
C84	C	1.113428	0.405348	-0.272136
C85	C	0.556102	0.880649	0.203171
C86	C	0.475247	0.949605	0.272126
C87	C	0.556086	0.880656	-0.000017
C88	C	0.475225	0.949613	-0.000021
C89	C	0.794351	0.880658	0.203176
C90	C	0.794356	0.949616	0.272133
C91	C	1.104903	0.372954	0.039695
C92	C	1.180873	0.308170	0.039714
C93	C	1.265389	0.275769	0.000044
C94	C	1.273934	0.308161	-0.039641
C95	C	1.197965	0.372948	-0.039655
C96	C	0.840836	0.372956	-0.344208
C97	C	0.840829	0.308172	-0.409007
C98	C	0.794308	0.275765	-0.401740
C99	C	0.747785	0.308151	-0.329667
C100	C	0.747788	0.372939	-0.264869
C101	C	1.197933	0.372966	-0.264841
C102	C	1.273912	0.308185	-0.329626
C103	C	1.265385	0.275781	-0.401706
C104	C	1.180871	0.308169	-0.408999
C105	C	1.104894	0.372954	-0.344215
C106	C	0.390742	0.981994	0.264832
C107	C	0.314763	1.046796	0.329617
C108	C	0.323291	1.079202	0.401696
C109	C	0.407804	1.046810	0.408989
C110	C	0.483781	0.982014	0.344205
C111	C	0.483772	0.982006	-0.039698
C112	C	0.407802	1.046807	-0.039699
C113	C	0.323286	1.079210	-0.000027
C114	C	0.314741	1.046815	0.039656
C115	C	0.390710	0.982019	0.039661
C116	C	0.840886	0.982003	0.264841
C117	C	0.840908	1.046787	0.329628
C118	C	0.794394	1.079189	0.401706
C119	C	0.747863	1.046796	0.408997
C120	C	0.747847	0.982008	0.344211
H121	H	0.878741	0.073201	0.071985
Br122	Br	1.169313	0.264184	-0.506827
H123	H	0.709915	-0.044350	-0.072002
H124	H	0.674961	0.677473	0.604264
H125	H	1.327241	0.223015	0.000061
Br126	Br	0.990212	0.416889	-0.354129
Br127	Br	0.220193	1.167149	-0.000041
H128	H	0.878739	-0.044355	0.071982
Br129	Br	0.639255	0.677480	0.260568
Br130	Br	1.368507	0.187858	-0.489621
H131	H	0.245918	1.073208	0.071956
Br132	Br	0.379095	0.938061	0.093510
Br133	Br	0.903973	0.264231	-0.506811
H134	H	1.342719	0.281821	-0.323674
Br135	Br	0.684685	0.938070	0.354121
Br136	Br	0.794424	1.167118	0.489624
Br137	Br	1.209530	0.416933	-0.167027
H138	H	0.414777	1.073173	-0.072016
Br139	Br	0.419362	1.090798	0.506818
Br140	Br	0.904058	1.090739	0.319716
Br141	Br	0.684733	1.090786	0.506823
Br142	Br	0.200078	1.090741	0.319701
Br143	Br	0.904005	0.416899	0.093543
H144	H	0.878763	0.955631	0.206157
Br145	Br	0.379145	0.938025	0.167018
H146	H	0.261418	1.131963	0.454442
H147	H	0.878752	0.281753	0.071986
H148	H	0.709928	0.073186	-0.072010
Br149	Br	1.388641	0.264177	-0.093478
Br150	Br	0.598463	0.938060	0.354119
H151	H	0.709931	0.399307	-0.071993
Br152	Br	0.684689	0.264151	-0.093552
H153	H	0.674943	0.677486	0.721817
Br154	Br	0.598462	0.938047	-0.093543
H155	H	0.913733	0.677474	0.278175
Br156	Br	0.949450	0.677466	0.413313
Br157	Br	0.639252	0.677480	0.413297
H158	H	0.913709	0.677469	0.604278
Br159	Br	0.949426	0.677467	0.739424
H160	H	1.036093	0.399334	0.072008
H161	H	0.794313	0.223010	-0.454508
H162	H	1.173898	0.281804	0.072030
Br163	Br	0.684654	0.264161	-0.319816
H164	H	1.204936	0.399309	-0.071975
H165	H	0.878719	0.399335	-0.350140
H166	H	0.709911	0.399295	-0.206193
