data_functionalizedCrystal
_audit_creation_method	'MofGen! by Chris Wilmer'
_symmetry_space_group_name_H-M	'P1'
_symmetry_Int_Tables_number	1
_symmetry_cell_setting	triclinic
loop_
_symmetry_equiv_pos_as_xyz
  x,y,z
_cell_length_a	23.196402
_cell_length_b	23.196402
_cell_length_c	23.196401
_cell_angle_alpha	60.008822
_cell_angle_beta	90.011712
_cell_angle_gamma	60.000268
loop_
_atom_site_label
_atom_site_type_symbol
_atom_site_fract_x
_atom_site_fract_y
_atom_site_fract_z
Zr1	Zr	0.555361	0.631008	-0.075647
O2	O	0.463292	0.751273	-0.167690
O3	O	0.583583	0.510742	-0.047434
O4	O	0.583557	0.631009	-0.167699
O5	O	0.463340	0.631004	0.047447
O6	O	0.678427	0.631011	-0.167703
O7	O	0.463318	0.631006	-0.047425
O8	O	0.678473	0.415875	0.047430
O9	O	0.463295	0.846140	-0.167686
O10	O	0.666422	0.560210	-0.035400
O11	O	0.595639	0.560208	0.035404
O12	O	0.595609	0.701807	-0.106193
O13	O	0.524825	0.701805	-0.035389
Zr14	Zr	0.706704	0.631008	0.075657
Zr15	Zr	0.706668	0.631010	-0.075652
Zr16	Zr	0.555397	0.631005	0.075662
Zr17	Zr	0.555365	0.782310	-0.075640
Zr18	Zr	0.706700	0.479705	0.075650
O19	O	0.678482	0.751273	0.047444
O20	O	0.678431	0.751276	-0.167697
O21	O	0.463344	0.751269	0.047452
O22	O	0.798773	0.510742	0.167700
O23	O	0.798721	0.510746	-0.047442
O24	O	0.583634	0.510739	0.167708
O25	O	0.798725	0.631011	-0.047436
O26	O	0.678508	0.631006	0.167710
O27	O	0.583638	0.631004	0.167713
O28	O	0.798747	0.631009	0.047435
O29	O	0.583563	0.846142	-0.167690
O30	O	0.678502	0.415873	0.167700
O31	O	0.798770	0.415875	0.167696
O32	O	0.798741	0.415877	0.047426
O33	O	0.463323	0.846138	-0.047416
O34	O	0.583592	0.846140	-0.047420
O35	O	0.666456	0.560208	0.106203
O36	O	0.737239	0.560210	0.035399
O37	O	0.666426	0.701807	-0.035394
O38	O	0.595643	0.701805	0.035410
C39	C	0.631027	0.441751	-0.000003
C40	C	0.631025	0.377519	-0.000006
C41	C	0.667969	0.347350	-0.036967
C42	C	0.667976	0.286989	-0.036962
C43	C	0.631025	0.256811	-0.000004
C44	C	0.594080	0.286985	0.036966
C45	C	0.594080	0.347339	0.036965
C46	C	0.569120	0.194781	-0.005276
C47	C	0.569118	0.134432	-0.005280
C48	C	0.631026	0.070656	0.000003
C49	C	0.692936	0.067246	0.005277
C50	C	0.692936	0.127600	0.005276
C51	C	0.631022	0.191367	0.000002
C52	C	0.667980	-0.024964	-0.036954
C53	C	0.667989	-0.085330	-0.036943
C54	C	0.594087	-0.085327	0.036980
C55	C	0.594085	-0.024969	0.036974
C56	C	0.631030	0.005212	0.000003
C57	C	0.441771	0.631005	0.000012
C58	C	0.377537	0.631004	0.000014
C59	C	0.384326	0.557094	0.036960
C60	C	0.323972	0.557093	0.036963
C61	C	0.256829	0.631006	0.000006
C62	C	0.250043	0.704925	-0.036942
C63	C	0.310397	0.704924	-0.036938
C64	C	0.132887	0.687634	-0.061903
C65	C	0.072535	0.687632	-0.061908
C66	C	0.070675	0.631012	-0.000005
C67	C	0.129181	0.574380	0.061904
C68	C	0.189535	0.574379	0.061908
C69	C	0.191381	0.631015	-0.000002
C70	C	0.012023	0.557096	0.036948
C71	C	-0.048334	0.557098	0.036953
C72	C	-0.122262	0.704932	-0.036959
C73	C	-0.061906	0.704928	-0.036957
C74	C	0.005235	0.631008	-0.000005
C75	C	0.820294	0.631010	-0.000001
C76	C	0.884527	0.631011	-0.000004
C77	C	0.630987	0.631010	-0.189259
C78	C	0.630972	0.631011	-0.253494
C79	C	0.631038	0.820264	0.000013
C80	C	0.631039	0.884496	0.000016
C81	C	0.594011	0.704921	-0.320620
C82	C	0.594029	0.704922	-0.380975
C83	C	0.630998	0.631009	-0.374200
C84	C	0.667967	0.557090	-0.307062
C85	C	0.667953	0.557091	-0.246709
C86	C	0.625747	0.574381	-0.441520
C87	C	0.625755	0.574383	-0.501873
C88	C	0.631043	0.631003	-0.560348
C89	C	0.636308	0.687635	-0.558468
C90	C	0.636295	0.687636	-0.498115
C91	C	0.631017	0.631000	-0.439639
C92	C	0.594100	0.704919	-0.692921
C93	C	0.594123	0.704917	-0.753276
C94	C	0.668056	0.557083	-0.679360
C95	C	0.668037	0.557087	-0.619007
C96	C	0.631056	0.631007	-0.625792
C97	C	0.631078	0.631005	0.189270
C98	C	0.631093	0.631004	0.253504
C99	C	0.820289	0.441754	-0.000010
C100	C	0.884521	0.377523	-0.000015
C101	C	0.631073	0.441748	0.189261
C102	C	0.631086	0.377516	0.253493
C103	C	0.820334	0.441751	0.189255
C104	C	0.884581	0.377519	0.253484
C105	C	0.441731	0.820264	-0.189245
C106	C	0.377484	0.884496	-0.253474
C107	C	0.441776	0.820261	0.000020
C108	C	0.377544	0.884492	0.000025
C109	C	0.630992	0.820267	-0.189251
C110	C	0.630979	0.884500	-0.253483
C111	C	0.877719	0.347360	-0.036980
C112	C	0.938065	0.287017	-0.036998
C113	C	1.005214	0.256834	-0.000048
C114	C	1.012014	0.287003	0.036918
C115	C	0.951668	0.347349	0.036933
C116	C	0.668058	0.347351	0.320620
C117	C	0.668068	0.287006	0.380978
C118	C	0.631110	0.256822	0.374209
C119	C	0.594133	0.286993	0.307075
C120	C	0.594119	0.347341	0.246718
C121	C	0.951707	0.347357	0.246688
C122	C	1.012080	0.287012	0.307033
C123	C	1.005325	0.256828	0.374173
C124	C	0.938193	0.286997	0.380968
C125	C	0.877821	0.347344	0.320624
C126	C	0.310358	0.914666	-0.246678
C127	C	0.249985	0.975029	-0.307023
C128	C	0.256740	1.005216	-0.374163
C129	C	0.323872	0.975044	-0.380958
C130	C	0.384244	0.914686	-0.320614
C131	C	0.384346	0.914662	0.036984
C132	C	0.323999	0.975022	0.036986
C133	C	0.256851	1.005207	0.000033
C134	C	0.250051	0.975034	-0.036930
C135	C	0.310397	0.914679	-0.036936
C136	C	0.667944	0.914664	-0.246691
C137	C	0.667945	0.975010	-0.307037
C138	C	0.630976	1.005194	-0.374176
C139	C	0.594009	0.975023	-0.380967
C140	C	0.594013	0.914675	-0.320621
H141	H	0.563999	-0.000402	0.067069
H142	H	0.564001	-0.109898	0.067071
C143	C	0.302914	0.881479	-0.172832
H144	H	0.254286	0.908107	-0.177437
H145	H	0.324920	0.824501	-0.147748
H146	H	0.324932	0.891377	-0.147758
H147	H	0.698077	-0.109897	-0.067039
H148	H	1.066737	0.262455	0.301488
C149	C	0.553340	1.008238	-0.454821
H150	H	0.558629	1.048506	-0.489783
H151	H	0.571577	0.964924	-0.460133
H152	H	0.504713	1.031795	-0.460115
H153	H	0.563908	0.890121	-0.326161
H154	H	0.439016	0.890089	0.067080
C155	C	0.085879	0.475791	0.077597
H156	H	0.120852	0.486375	0.072300
H157	H	0.091184	0.445419	0.126218
H158	H	0.091167	0.445423	0.059339
C159	C	0.458080	0.881473	-0.328094
H160	H	0.493073	0.841199	-0.282544
H161	H	0.463335	0.857942	-0.353178
H162	H	0.463386	0.924790	-0.353171
H163	H	0.698157	0.496901	-0.673842
H164	H	0.698052	0.496903	-0.192050
C165	C	0.631131	0.190438	0.440603
H166	H	0.603822	0.176781	0.426962
H167	H	0.678224	0.143355	0.467902
H168	H	0.611348	0.210231	0.467902
C169	C	-0.069368	0.786228	-0.077426
H170	H	-0.023808	0.775641	-0.072072
H171	H	-0.094468	0.816763	-0.126074
H172	H	-0.094426	0.816432	-0.059033
H173	H	0.329364	0.999630	-0.435630
H174	H	0.329550	0.999578	0.067088
H175	H	0.957220	0.371924	0.192025
H176	H	-0.176930	0.765114	-0.067051
C177	C	0.630972	1.071582	-0.440550
H178	H	0.658278	1.085226	-0.426883
H179	H	0.650751	1.051810	-0.467862
H180	H	0.583878	1.118678	-0.467848
H181	H	0.564028	0.765106	-0.807934
H182	H	0.698054	0.371920	-0.067069
C183	C	0.930772	0.253781	0.454824
H184	H	0.976344	0.213514	0.489784
H185	H	0.905698	0.297094	0.460136
H186	H	0.905705	0.230222	0.460120
C187	C	0.803862	0.380555	-0.077630
H188	H	0.768889	0.420813	-0.072328
H189	H	0.798558	0.404103	-0.126251
H190	H	0.798572	0.337224	-0.059380
H191	H	0.823167	0.371895	0.326167
H192	H	0.518707	0.137218	-0.009578
H193	H	0.563996	0.262409	0.067058
H194	H	0.304849	0.890117	-0.067031
C195	C	1.071736	0.190449	0.440548
H196	H	1.058104	0.176793	0.481511
H197	H	1.099040	0.143364	0.440544
H198	H	1.099030	0.210248	0.440540
C199	C	0.708610	0.253801	-0.077625
H200	H	0.730609	0.280423	-0.099647
H201	H	0.743590	0.196822	-0.045732
H202	H	0.676691	0.263700	-0.112597
C203	C	0.190477	1.071593	0.000047
H204	H	0.204151	1.085228	0.027358
H205	H	0.163160	1.118686	-0.047034
H206	H	0.163178	1.051809	0.019843
H207	H	1.054346	0.207695	-0.000064
H208	H	0.195329	0.999585	-0.301477
H209	H	0.195371	0.999620	-0.067016
C210	C	0.708601	1.008196	-0.299555
H211	H	0.730606	0.981584	-0.250926
H212	H	0.743578	0.998303	-0.321553
H213	H	0.676693	1.065178	-0.321560
H214	H	0.207576	1.054363	-0.423293
C215	C	0.708617	0.881470	-0.172846
H216	H	0.730635	0.908078	-0.177454
H217	H	0.676727	0.891362	-0.147761
H218	H	0.743595	0.824488	-0.147772
C219	C	0.930572	0.253832	-0.077654
H220	H	0.881937	0.280443	-0.099645
H221	H	0.952560	0.263728	-0.112637
H222	H	0.952587	0.196850	-0.045753
H223	H	0.237167	0.528272	0.112317
H224	H	0.698155	0.371920	0.326145
C225	C	0.553364	0.786226	-0.454823
H226	H	0.531333	0.830250	-0.450219
H227	H	0.585261	0.789307	-0.479897
H228	H	0.518395	0.789285	-0.479906
H229	H	0.698182	0.262448	0.435635
C230	C	0.761031	0.123847	0.011086
H231	H	0.752160	0.168928	0.010325
H232	H	0.796893	0.074541	0.054066
H233	H	0.776043	0.125770	-0.027559
H234	H	0.698068	0.496909	-0.301549
C235	C	0.553492	0.253776	0.299637
H236	H	0.558808	0.213508	0.345201
H237	H	0.504862	0.297089	0.274564
H238	H	0.571748	0.230219	0.274568
H239	H	0.743350	0.015313	0.009588
H240	H	0.518700	0.246717	-0.009593
C241	C	0.708630	0.008224	-0.077606
H242	H	0.730645	-0.018401	-0.099608
H243	H	0.676728	0.065202	-0.112580
H244	H	0.743611	-0.001672	-0.045700
H245	H	0.563988	0.765110	-0.698446
H246	H	0.564014	0.371893	0.192063
C247	C	0.553425	0.380546	0.077606
H248	H	0.558716	0.420814	0.072310
H249	H	0.504802	0.404085	0.059352
H250	H	0.571684	0.337226	0.126233
C251	C	0.458176	0.475785	0.077613
H252	H	0.453571	0.431766	0.099622
H253	H	0.483254	0.472711	0.045716
H254	H	0.483260	0.472710	0.112593
H255	H	0.329500	0.496905	0.067050
H256	H	1.066694	0.262419	0.067002
C257	C	0.959159	0.380513	0.077606
H258	H	1.007794	0.353884	0.099615
H259	H	0.937149	0.437493	0.045723
H260	H	0.937167	0.370605	0.112589
H261	H	-0.042800	0.496909	0.067044
C262	C	0.127142	0.512102	0.130004
H263	H	0.082815	0.520218	0.121140
H264	H	0.163863	0.458440	0.145026
H265	H	0.133474	0.519239	0.165855
H266	H	0.024904	0.733742	-0.112319
H267	H	0.134387	0.733753	-0.112312
H268	H	0.304864	0.765112	-0.067023
C269	C	0.176191	0.786229	-0.077593
H270	H	0.180794	0.830249	-0.099593
H271	H	0.151103	0.789307	-0.112569
H272	H	0.151119	0.789297	-0.045687
C273	C	0.553340	0.786230	-0.328085
H274	H	0.531335	0.830249	-0.376711
H275	H	0.518363	0.789304	-0.306090
H276	H	0.585239	0.789305	-0.306067
H277	H	0.640584	0.733745	-0.496588
H278	H	0.640611	0.733743	-0.606081
H279	H	0.698131	0.496901	-0.564349
C280	C	0.619992	0.512071	-0.503926
H281	H	0.616864	0.478334	-0.460450
H282	H	0.578971	0.540080	-0.541494
H283	H	0.660608	0.479335	-0.511084
H284	H	0.621435	0.528275	-0.393911
