data_functionalizedCrystal
_audit_creation_method	'MofGen! by Chris Wilmer'
_symmetry_space_group_name_H-M	'P1'
_symmetry_Int_Tables_number	1
_symmetry_cell_setting	triclinic
loop_
_symmetry_equiv_pos_as_xyz
  x,y,z
_cell_length_a	18.101395
_cell_length_b	17.639504
_cell_length_c	17.637464
_cell_angle_alpha	92.186655
_cell_angle_beta	101.177688
_cell_angle_gamma	78.786307
loop_
_atom_site_label
_atom_site_type_symbol
_atom_site_fract_x
_atom_site_fract_y
_atom_site_fract_z
Zn1	Zn	-0.217609	-1.074022	-0.664421
Zn2	Zn	-0.312563	-1.099614	-0.537433
Zn3	Zn	-0.207867	-0.972728	-0.511748
Zn4	Zn	-0.360553	-0.946988	-0.638654
O5	O	-0.274648	-1.023338	-0.588064
O6	O	-0.214198	-1.183684	-0.669108
O7	O	-0.274513	-1.104265	-0.427770
O8	O	-0.105521	-0.986226	-0.532035
O9	O	-0.283960	-1.202486	-0.575811
O10	O	-0.112679	-1.060647	-0.644203
O11	O	-0.197593	-1.011042	-0.408900
O12	O	-0.244128	-0.863047	-0.507050
O13	O	-0.365753	-0.942357	-0.748328
O14	O	-0.356306	-0.844136	-0.600287
O15	O	-0.260732	-1.035689	-0.767259
O16	O	-0.422567	-1.079307	-0.550826
O17	O	-0.457825	-0.967173	-0.625193
C18	C	-0.304368	-0.826038	-0.548086
C19	C	-0.317104	-0.741628	-0.531001
C20	C	-0.177862	-0.414969	-0.718030
C21	C	-0.189845	-0.335657	-0.701961
C22	C	-0.262299	-0.355286	-0.604670
C23	C	-0.250325	-0.434601	-0.620734
C24	C	-0.208106	-0.464437	-0.677414
C25	C	-0.280569	-0.484069	-0.580118
C26	C	-0.268593	-0.563378	-0.596178
C27	C	-0.226373	-0.593219	-0.652854
C28	C	-0.196130	-0.543746	-0.693474
C29	C	-0.322784	-0.454232	-0.523434
C30	C	-0.353027	-0.503700	-0.482818
C31	C	-0.341056	-0.583010	-0.498882
C32	C	-0.298836	-0.612851	-0.555557
C33	C	-0.371300	-0.632483	-0.458261
C34	C	-0.359324	-0.711793	-0.474321
C35	C	-0.286860	-0.692161	-0.571617
C36	C	-0.467069	-1.023241	-0.588021
C37	C	-0.549382	-1.023264	-0.588042
C38	C	-0.848457	-1.023422	-0.588117
C39	C	-0.839359	-0.952977	-0.635080
C40	C	-0.753742	-0.952736	-0.634839
C41	C	-0.700083	-1.023344	-0.588081
C42	C	-0.716279	-1.017874	-0.503672
C43	C	-0.802061	-1.017425	-0.503947
C44	C	-0.809360	-1.099608	-0.624885
C45	C	-0.724180	-1.098780	-0.626544
C46	C	-0.616227	-1.023301	-0.588055
C47	C	-0.932313	-1.023464	-0.588136
C48	C	-0.081476	-1.023453	-0.588128
C49	C	0.000842	-1.023502	-0.588155
C50	C	-0.319682	-0.983297	-0.786114
C51	C	-0.338874	-0.966234	-0.870512
C52	C	-0.244801	-0.221410	-0.628196
C53	C	-0.232053	-0.305818	-0.645291
C54	C	-0.420596	-0.893597	-0.979612
C55	C	-0.402557	-0.909636	-0.900309
C56	C	-0.293207	-1.006819	-0.920013
C57	C	-0.311239	-0.990791	-0.999320
C58	C	-0.374934	-0.934179	-1.029112
C59	C	-0.265577	-1.031373	-1.048820
C60	C	-0.283606	-1.015343	-1.128120
C61	C	-0.347297	-0.958731	-1.157918
C62	C	-0.392963	-0.918149	-1.108412
C63	C	-0.201879	-1.087981	-1.019025
C64	C	-0.156217	-1.128563	-1.068526
C65	C	-0.174249	-1.112537	-1.147828
C66	C	-0.237940	-1.055926	-1.177626
C67	C	-0.128582	-1.153120	-1.197334
C68	C	-0.146611	-1.137090	-1.276634
C69	C	-0.255969	-1.039896	-1.256926
C70	C	-0.229728	-1.063267	-0.390793
C71	C	-0.210307	-1.080477	-0.306426
H72	H	-0.296671	-0.330983	-0.558519
C73	C	-0.417735	-0.599661	-0.395911
C74	C	-0.501665	-0.609316	-0.404156
C75	C	-0.548100	-0.576495	-0.341804
C76	C	-0.510604	-0.534020	-0.271207
C77	C	-0.426669	-0.524363	-0.262959
C78	C	-0.380234	-0.557184	-0.325311
H79	H	-0.529426	-0.640760	-0.456419
H80	H	-0.610234	-0.583644	-0.347910
H81	H	-0.544977	-0.509724	-0.225050
H82	H	-0.398908	-0.492919	-0.210696
H83	H	-0.318100	-0.550035	-0.319205
C84	C	-0.673687	-1.171665	-0.585422
C85	C	-0.625353	-1.231798	-0.630631
C86	C	-0.574857	-1.304674	-0.589486
C87	C	-0.572695	-1.317416	-0.503132
C88	C	-0.621031	-1.257281	-0.457918
C89	C	-0.671526	-1.184406	-0.499063
H90	H	-0.626951	-1.222367	-0.694560
H91	H	-0.539076	-1.349189	-0.622958
H92	H	-0.535315	-1.371363	-0.472674
H93	H	-0.619432	-1.266712	-0.393989
H94	H	-0.707308	-1.139890	-0.465592
C95	C	-0.807804	-1.084909	-0.453874
C96	C	-0.851436	-1.148244	-0.489983
C97	C	-0.857173	-1.215723	-0.439904
C98	C	-0.819278	-1.219867	-0.353716
C99	C	-0.775643	-1.156529	-0.317602
C100	C	-0.769906	-1.089051	-0.367681
H101	H	-0.879491	-1.145179	-0.553788
H102	H	-0.889475	-1.262609	-0.466638
H103	H	-0.823524	-1.269818	-0.316644
H104	H	-0.747588	-1.159595	-0.253797
H105	H	-0.737604	-1.042164	-0.340947
H106	H	-0.813282	-1.151893	-0.590878
C107	C	-0.876443	-0.876688	-0.600775
C108	C	-0.827418	-0.816048	-0.569413
C109	C	-0.864502	-0.739761	-0.535105
C110	C	-0.950611	-0.724114	-0.532158
C111	C	-0.999641	-0.784756	-0.563521
C112	C	-0.962557	-0.861043	-0.597829
H113	H	-0.763670	-0.827629	-0.571594
H114	H	-0.828206	-0.694870	-0.511888
H115	H	-0.978062	-0.667642	-0.506761
H116	H	-1.063388	-0.773175	-0.561340
H117	H	-0.998852	-0.905934	-0.621046
H118	H	-0.827001	-0.962216	-0.474690
H119	H	-0.871439	-0.954350	-0.697325
H120	H	-0.840992	-1.107752	-0.686242
H121	H	-0.332513	-0.389657	-0.510344
H122	H	-0.714764	-1.103199	-0.688744
C123	C	-0.734092	-0.876009	-0.600201
C124	C	-0.743705	-0.853623	-0.516929
C125	C	-0.724058	-0.776893	-0.482286
C126	C	-0.694798	-0.722549	-0.530915
C127	C	-0.685184	-0.744934	-0.614191
C128	C	-0.704831	-0.821664	-0.648834
H129	H	-0.765366	-0.893852	-0.480927
H130	H	-0.731175	-0.760322	-0.420639
H131	H	-0.680254	-0.665749	-0.505270
H132	H	-0.663523	-0.704705	-0.650193
H133	H	-0.697714	-0.838235	-0.710481
C134	C	-0.326047	-0.977641	-1.289720
C135	C	-0.406824	-0.986013	-1.280057
C136	C	-0.476903	-0.923769	-1.312859
C137	C	-0.466204	-0.853152	-1.355325
C138	C	-0.385423	-0.844777	-1.364990
C139	C	-0.315344	-0.907021	-1.332188
H140	H	-0.414748	-1.038291	-1.248619
H141	H	-0.536702	-0.929970	-1.305704
H142	H	-0.518080	-0.807076	-1.379607
H143	H	-0.377500	-0.792499	-1.396428
H144	H	-0.255545	-0.900820	-1.339343
C145	C	-0.463034	-0.855884	-1.141205
C146	C	-0.528602	-0.877755	-1.202375
C147	C	-0.598669	-0.815497	-1.235175
C148	C	-0.603167	-0.731368	-1.206803
C149	C	-0.537597	-0.709493	-1.145629
C150	C	-0.467530	-0.771751	-1.112830
H151	H	-0.525274	-0.940035	-1.223381
H152	H	-0.647208	-0.831690	-1.280460
H153	H	-0.655035	-0.685280	-1.231084
H154	H	-0.540925	-0.647212	-1.124624
H155	H	-0.418991	-0.755558	-1.067544
C156	C	-0.490667	-0.831332	-1.012405
C157	C	-0.556235	-0.853203	-1.073576
C158	C	-0.626302	-0.790945	-1.106375
C159	C	-0.630801	-0.706816	-1.078004
C160	C	-0.565230	-0.684941	-1.016829
C161	C	-0.495163	-0.747200	-0.984030
H162	H	-0.552907	-0.915484	-1.094581
H163	H	-0.674841	-0.807138	-1.151660
H164	H	-0.682668	-0.660729	-1.102284
H165	H	-0.568558	-0.622661	-0.995824
H166	H	-0.446624	-0.731006	-0.938745
H167	H	-0.104355	-1.174655	-1.044257
H168	H	-0.076718	-1.199208	-1.173064
H169	H	-0.361971	-0.945676	-1.222488
H170	H	-0.679433	-1.068282	-0.467016
H171	H	-0.699627	-0.963349	-0.474229
H172	H	-0.439733	-0.876571	-0.860004
C173	C	-0.399469	-0.470878	-0.420473
C174	C	-0.483399	-0.480539	-0.428728
C175	C	-0.529843	-0.447720	-0.366383
C176	C	-0.492357	-0.405241	-0.295783
C177	C	-0.408423	-0.395578	-0.287525
C178	C	-0.361979	-0.428397	-0.349870
H179	H	-0.511152	-0.511986	-0.480992
H180	H	-0.591977	-0.454873	-0.372496
H181	H	-0.526738	-0.380946	-0.249631
H182	H	-0.380670	-0.364131	-0.235260
H183	H	-0.299845	-0.421244	-0.343757
C184	C	-0.182042	-1.105620	-0.931796
C185	C	-0.164051	-1.041478	-0.873399
C186	C	-0.144214	-1.059118	-0.786170
C187	C	-0.142369	-1.140899	-0.757339
C188	C	-0.160361	-1.205046	-0.815738
C189	C	-0.180198	-1.187407	-0.902966
H190	H	-0.165416	-0.980934	-0.894740
H191	H	-0.130895	-1.011632	-0.742940
H192	H	-0.127684	-1.153958	-0.692767
H193	H	-0.158996	-1.265591	-0.794396
H194	H	-0.193517	-1.234893	-0.946197
C195	C	-0.096389	-1.181733	-1.331091
C196	C	-0.026331	-1.244008	-1.298323
C197	C	0.023894	-1.288651	-1.352781
C198	C	0.004062	-1.271017	-1.440007
C199	C	-0.065999	-1.208739	-1.472780
C200	C	-0.116224	-1.164096	-1.418321
H201	H	-0.011647	-1.257064	-1.233750
H202	H	0.075757	-1.334754	-1.328521
H203	H	0.041241	-1.304064	-1.480320
H204	H	-0.080683	-1.195683	-1.537353
H205	H	-0.168088	-1.117994	-1.442582
H206	H	-0.252484	-0.716453	-0.617775
C207	C	-0.740781	-0.954773	-0.718705
C208	C	-0.808446	-0.956635	-0.786366
C209	C	-0.795496	-0.958646	-0.870236
C210	C	-0.714880	-0.958795	-0.886445
C211	C	-0.647208	-0.956933	-0.818782
C212	C	-0.660159	-0.954922	-0.734912
H213	H	-0.868128	-0.956525	-0.774369
H214	H	-0.845591	-0.960024	-0.920324
H215	H	-0.705293	-0.960283	-0.948530
H216	H	-0.587526	-0.957043	-0.830779
H217	H	-0.610064	-0.953544	-0.684824
H218	H	-0.216620	-0.657799	-0.665926
H219	H	-0.161753	-0.568038	-0.739631
H220	H	-0.143486	-0.439262	-0.764188
H221	H	-0.241344	-1.052911	-0.895744
H222	H	-0.165209	-0.295382	-0.735036
H223	H	-0.383951	-0.752070	-0.441247
