data_functionalizedCrystal
_audit_creation_method	'MofGen! by Chris Wilmer'
_symmetry_space_group_name_H-M	'P1'
_symmetry_Int_Tables_number	1
_symmetry_cell_setting	triclinic
loop_
_symmetry_equiv_pos_as_xyz
  x,y,z
_cell_length_a	13.032831
_cell_length_b	19.121063
_cell_length_c	13.032268
_cell_angle_alpha	99.247498
_cell_angle_beta	90.886977
_cell_angle_gamma	85.565596
loop_
_atom_site_label
_atom_site_type_symbol
_atom_site_fract_x
_atom_site_fract_y
_atom_site_fract_z
Zn1	Zn	1.465022	-0.473659	-0.806576
Zn2	Zn	1.479383	-0.578156	-0.640274
Zn3	Zn	1.316950	-0.444360	-0.611224
Zn4	Zn	1.285899	-0.574364	-0.790193
O5	O	1.386814	-0.517635	-0.712067
O6	O	1.609870	-0.501370	-0.803529
O7	O	1.476841	-0.549733	-0.491924
O8	O	1.343577	-0.350107	-0.631836
O9	O	1.620421	-0.578143	-0.681348
O10	O	1.452365	-0.371633	-0.775360
O11	O	1.357502	-0.451434	-0.470581
O12	O	1.169889	-0.447756	-0.615951
O13	O	1.290655	-0.571680	-0.936863
O14	O	1.147076	-0.543270	-0.747439
O15	O	1.422256	-0.497693	-0.948899
O16	O	1.446733	-0.675793	-0.665463
O17	O	1.304581	-0.673007	-0.775608
C18	C	1.121419	-0.491923	-0.676766
C19	C	1.007877	-0.480942	-0.661690
C20	C	1.373870	-0.699851	-0.721936
C21	C	1.368422	-0.777815	-0.726206
C22	C	0.946005	-0.523366	-0.719935
C23	C	0.828653	-0.512018	-0.704355
C24	C	1.439917	-0.815879	-0.670926
C25	C	1.434798	-0.889136	-0.674948
C26	C	1.358179	-0.924327	-0.734244
C27	C	1.286681	-0.886258	-0.789530
C28	C	1.291805	-0.813003	-0.785514
C29	C	1.339006	-1.145437	-0.749244
C30	C	1.333886	-1.218697	-0.753254
C31	C	1.482005	-1.221570	-0.638672
C32	C	1.487118	-1.148313	-0.634656
C33	C	1.415624	-1.110251	-0.689946
C34	C	1.352943	-0.999207	-0.738354
C35	C	1.420865	-1.035374	-0.685842
C36	C	1.653245	-0.543448	-0.747506
C37	C	1.766782	-0.554448	-0.762608
C38	C	1.351390	-0.537532	-0.981395
C39	C	1.336295	-0.546011	-1.096167
C40	C	1.399833	-0.334712	-0.702185
C41	C	1.405381	-0.256761	-0.697974
C42	C	1.394678	-0.513183	-1.153291
C43	C	1.379078	-0.521945	-1.271914
C44	C	1.422162	-0.497771	-0.443791
C45	C	1.437469	-0.489113	-0.329036
H46	H	0.979912	-0.568086	-0.781340
C47	C	1.295950	-0.568683	-1.324469
H48	H	1.296375	-0.568447	-1.397303
H49	H	1.230347	-0.550483	-1.297162
H50	H	1.309859	-0.615962	-1.311379
H51	H	0.794751	-0.467290	-0.642953
C52	C	1.520602	-0.442379	-1.276483
H53	H	1.520188	-0.442623	-1.203651
H54	H	1.506708	-0.395103	-1.289577
H55	H	1.586206	-0.460590	-1.303792
H56	H	0.800683	-0.599170	-0.824020
C57	C	1.571363	-1.109599	-0.569386
H58	H	1.564157	-1.060516	-0.574889
H59	H	1.637174	-1.129308	-0.594294
H60	H	1.564703	-1.115076	-0.498680
C61	C	1.560649	-1.263437	-0.577864
H62	H	1.607009	-1.231986	-0.541969
H63	H	1.597928	-1.299205	-0.624878
H64	H	1.525526	-1.284940	-0.529210
H65	H	0.973970	-0.436217	-0.600292
H66	H	1.274755	-0.580597	-1.135080
C67	C	1.524200	-0.777177	-0.605701
H68	H	1.566052	-0.810342	-0.573364
H69	H	1.493084	-0.741528	-0.553920
H70	H	1.565479	-0.755794	-0.649593
H71	H	1.493016	-0.920125	-0.629933
C72	C	1.202403	-0.924963	-0.854760
H73	H	1.160563	-0.891801	-0.887116
H74	H	1.161124	-0.946349	-0.810881
H75	H	1.233532	-0.960610	-0.906544
C76	C	1.249609	-1.257407	-0.818492
H77	H	1.207769	-1.224249	-0.850855
H78	H	1.208328	-1.278793	-0.774614
H79	H	1.280746	-1.293055	-0.870270
H80	H	1.280791	-1.114453	-0.794261
C81	C	1.213162	-0.771133	-0.846323
H82	H	1.166792	-0.802581	-0.882207
H83	H	1.248285	-0.749629	-0.894968
H84	H	1.175878	-0.735364	-0.799304
C85	C	1.268662	-1.037915	-0.803575
H86	H	1.226813	-1.004757	-0.835929
H87	H	1.227391	-1.059305	-0.759692
H88	H	1.299794	-1.073560	-0.855360
C89	C	1.477808	-0.466453	-1.100732
H90	H	1.477393	-0.466698	-1.027900
H91	H	1.463917	-0.419176	-1.113824
H92	H	1.543412	-0.484666	-1.128041
H93	H	1.483252	-1.006720	-0.637567
