data_functionalizedCrystal
_audit_creation_method	'MofGen! by Chris Wilmer'
_symmetry_space_group_name_H-M	'P1'
_symmetry_Int_Tables_number	1
_symmetry_cell_setting	triclinic
loop_
_symmetry_equiv_pos_as_xyz
  x,y,z
_cell_length_a	21.295419
_cell_length_b	29.839133
_cell_length_c	21.295412
_cell_angle_alpha	89.980908
_cell_angle_beta	89.976510
_cell_angle_gamma	90.044403
loop_
_atom_site_label
_atom_site_type_symbol
_atom_site_fract_x
_atom_site_fract_y
_atom_site_fract_z
Zn1	Zn	0.962353	-0.178687	-0.355962
Zn2	Zn	1.462353	0.321313	0.144038
Zn3	Zn	0.962259	-0.253814	-0.250708
Zn4	Zn	1.462259	0.246186	0.249292
Zn5	Zn	0.857078	-0.178719	-0.250707
Zn6	Zn	1.357078	0.321281	0.249293
Zn7	Zn	0.857047	-0.253810	-0.355940
Zn8	Zn	1.357047	0.246190	0.144060
O9	O	0.909684	-0.216258	-0.303329
O10	O	1.409684	0.283742	0.196671
O11	O	1.050430	-0.188641	-0.342009
O12	O	1.550430	0.311359	0.157991
O13	O	0.948280	-0.243868	-0.162619
O14	O	1.448280	0.256132	0.337381
O15	O	0.871095	-0.115847	-0.264677
O16	O	1.371095	0.384153	0.235323
O17	O	1.050361	-0.243837	-0.264680
O18	O	1.550361	0.256163	0.235320
O19	O	0.948440	-0.115824	-0.342008
O20	O	1.448440	0.384176	0.157992
O21	O	0.871004	-0.188695	-0.162618
O22	O	1.371004	0.311305	0.337382
O23	O	0.768985	-0.188691	-0.264657
O24	O	1.268985	0.311309	0.235343
O25	O	0.871043	-0.243830	-0.444032
O26	O	1.371043	0.256170	0.055968
O27	O	0.768962	-0.243861	-0.341971
O28	O	1.268962	0.256139	0.158029
O29	O	0.948410	-0.188637	-0.444048
O30	O	1.448410	0.311363	0.055952
O31	O	0.948250	-0.316681	-0.264659
O32	O	1.448250	0.183319	0.235341
O33	O	0.870952	-0.316678	-0.341973
O34	O	1.370952	0.183322	0.158027
C35	C	0.746133	-0.216279	-0.303312
C36	C	1.246133	0.283721	0.196688
C37	C	0.676165	-0.216299	-0.303319
C38	C	1.176165	0.283701	0.196681
C39	C	0.643356	-0.187606	-0.343647
C40	C	1.143356	0.312394	0.156353
C41	C	0.577614	-0.187594	-0.343649
C42	C	1.077614	0.312406	0.156351
C43	C	0.544682	-0.216283	-0.303330
C44	C	1.044682	0.283717	0.196670
C45	C	0.577498	-0.244978	-0.262995
C46	C	1.077498	0.255022	0.237005
C47	C	0.643240	-0.244987	-0.262989
C48	C	1.143240	0.255013	0.237011
N49	N	0.441408	-0.255591	-0.298422
N50	N	0.941408	0.244409	0.201578
N51	N	0.378956	-0.255582	-0.298431
N52	N	0.878956	0.244418	0.201569
C53	C	0.346607	-0.216260	-0.303344
C54	C	0.846607	0.283740	0.196656
N55	N	0.379069	-0.176946	-0.308261
N56	N	0.879069	0.323054	0.191739
N57	N	0.441527	-0.176956	-0.308255
N58	N	0.941527	0.323044	0.191745
C59	C	0.473397	-0.216277	-0.303332
C60	C	0.973397	0.283723	0.196668
C61	C	0.242514	-0.187551	-0.343677
C62	C	0.742514	0.312449	0.156323
C63	C	0.176770	-0.187538	-0.343675
C64	C	0.676770	0.312462	0.156325
C65	C	0.176656	-0.244927	-0.263024
C66	C	0.676656	0.255073	0.236976
C67	C	0.242398	-0.244936	-0.263023
C68	C	0.742398	0.255064	0.236977
C69	C	0.275323	-0.216248	-0.303352
C70	C	0.775323	0.283752	0.196648
C71	C	0.909604	-0.332980	-0.303327
C72	C	1.409604	0.167020	0.196673
C73	C	0.909628	-0.382915	-0.303348
C74	C	1.409628	0.117085	0.196652
C75	C	0.949981	-0.739455	-0.343641
C76	C	1.449981	-0.239455	0.156359
C77	C	0.949921	-0.551782	-0.343641
C78	C	1.449921	-0.051782	0.156359
O79	O	0.984150	-0.527477	-0.377890
O80	O	1.484150	-0.027477	0.122110
N81	N	0.909678	-0.528360	-0.303346
N82	N	1.409678	-0.028360	0.196654
C83	C	0.869449	-0.551859	-0.263046
C84	C	1.369449	-0.051859	0.236954
O85	O	0.835222	-0.527631	-0.228769
O86	O	1.335222	-0.027631	0.271231
C87	C	0.869512	-0.739531	-0.263044
C88	C	1.369512	-0.239531	0.236956
C89	C	0.909754	-0.762951	-0.303346
C90	C	1.409754	-0.262951	0.196654
C91	C	0.990220	-0.762874	-0.383939
C92	C	1.490220	-0.262874	0.116061
C93	C	0.990232	-0.809790	-0.383941
C94	C	1.490232	-0.309790	0.116059
C95	C	0.950005	-0.833286	-0.343646
C96	C	1.450005	-0.333286	0.156354
C97	C	0.909766	-0.809866	-0.303348
C98	C	1.409766	-0.309866	0.196652
C99	C	0.829287	-0.763029	-0.222742
C100	C	1.329287	-0.263029	0.277258
C101	C	0.829307	-0.809950	-0.222744
C102	C	1.329307	-0.309950	0.277256
C103	C	0.869549	-0.833370	-0.263045
C104	C	1.369549	-0.333370	0.236955
C105	C	0.869551	-0.880277	-0.263055
C106	C	1.369551	-0.380277	0.236945
N107	N	0.909795	-0.903699	-0.303349
N108	N	1.409795	-0.403699	0.196651
C109	C	0.950022	-0.880203	-0.343645
C110	C	1.450022	-0.380203	0.156355
C111	C	0.869417	-0.453328	-0.263051
C112	C	1.369417	0.046672	0.236949
C113	C	0.869401	-0.406410	-0.263052
C114	C	1.369401	0.093590	0.236948
C115	C	0.949874	-0.406336	-0.343646
C116	C	1.449874	0.093664	0.156354
C117	C	0.949888	-0.453255	-0.343647
C118	C	1.449888	0.046745	0.156353
C119	C	0.909661	-0.476750	-0.303345
C120	C	1.409661	0.023250	0.196655
C121	C	0.950044	-0.978729	-0.343647
C122	C	1.450044	-0.478729	0.156353
C123	C	0.950050	-1.025649	-0.343647
C124	C	1.450050	-0.525649	0.156353
C125	C	0.869579	-1.025719	-0.263051
C126	C	1.369579	-0.525719	0.236949
C127	C	0.869570	-0.978803	-0.263053
C128	C	1.369570	-0.478803	0.236947
C129	C	0.909807	-0.955310	-0.303353
C130	C	1.409807	-0.455310	0.196647
O131	O	0.835346	-0.904611	-0.228818
O132	O	1.335346	-0.404611	0.271182
O133	O	0.984253	-0.904439	-0.377907
O134	O	1.484253	-0.404439	0.122093
C135	C	0.949969	-0.692539	-0.343639
C136	C	1.449969	-0.192539	0.156361
C137	C	0.909730	-0.669120	-0.303341
C138	C	1.409730	-0.169120	0.196659
C139	C	0.869503	-0.692616	-0.263046
C140	C	1.369503	-0.192616	0.236954
C141	C	0.909713	-0.622202	-0.303343
C142	C	1.409713	-0.122202	0.196657
C143	C	0.949940	-0.598706	-0.343638
C144	C	1.449940	-0.098706	0.156362
C145	C	0.990184	-0.622128	-0.383932
C146	C	1.490184	-0.122128	0.116068
C147	C	0.990196	-0.669043	-0.383935
C148	C	1.490196	-0.169043	0.116065
C149	C	0.829259	-0.669194	-0.222752
C150	C	1.329259	-0.169194	0.277248
C151	C	0.829249	-0.622278	-0.222753
C152	C	1.329249	-0.122278	0.277247
C153	C	0.869477	-0.598782	-0.263049
C154	C	1.369477	-0.098782	0.236951
C155	C	1.073875	-0.216236	-0.303347
C156	C	1.573875	0.283764	0.196653
C157	C	1.143843	-0.216227	-0.303355
C158	C	1.643843	0.283773	0.196645
C159	C	0.909734	-0.216230	-0.467520
C160	C	1.409734	0.283770	0.032480
C161	C	0.909755	-0.216218	-0.537488
C162	C	1.409755	0.283782	-0.037488
C163	C	0.909782	-0.099079	-0.303345
C164	C	1.409782	0.400921	0.196655
C165	C	0.909823	-0.049145	-0.303352
C166	C	1.409823	0.450855	0.196648
C167	C	0.869528	-0.187486	-0.570344
C168	C	1.369528	0.312514	-0.070344
C169	C	0.869526	-0.187478	-0.636086
C170	C	1.369526	0.312522	-0.136086
C171	C	0.909761	-0.216196	-0.668970
C172	C	1.409761	0.283804	-0.168970
C173	C	0.949991	-0.244933	-0.636106
C174	C	1.449991	0.255067	-0.136106
C175	C	0.949988	-0.244944	-0.570365
C176	C	1.449988	0.255056	-0.070365
N177	N	0.964866	-0.219617	-0.772209
N178	N	1.464866	0.280383	-0.272209
N179	N	0.964867	-0.219604	-0.834661
N180	N	1.464867	0.280396	-0.334661
C181	C	0.909773	-0.216166	-0.867045
C182	C	1.409773	0.283834	-0.367045
N183	N	0.854676	-0.212733	-0.834619
N184	N	1.354676	0.287267	-0.334619
N185	N	0.854675	-0.212743	-0.772161
N186	N	1.354675	0.287257	-0.272161
C187	C	0.909769	-0.216188	-0.740256
C188	C	1.409769	0.283812	-0.240256
C189	C	0.869540	-0.187424	-0.971187
C190	C	1.369540	0.312576	-0.471187
C191	C	0.869537	-0.187419	-1.036931
C192	C	1.369537	0.312581	-0.536931
C193	C	0.950008	-0.244872	-1.036949
C194	C	1.450008	0.255128	-0.536949
C195	C	0.950006	-0.244880	-0.971207
C196	C	1.450006	0.255120	-0.471207
C197	C	0.909773	-0.216153	-0.938329
C198	C	1.409773	0.283847	-0.438329
C199	C	0.909672	-0.216253	-0.139778
C200	C	1.409672	0.283747	0.360222
C201	C	0.909773	-0.216138	-0.069810
C202	C	1.409773	0.283862	0.430190
H203	H	0.269111	-0.268303	-0.230186
H204	H	0.769111	0.231697	0.269814
Br205	Br	0.533078	-0.148648	-0.398381
Br206	Br	1.033078	0.351352	0.101619
Br207	Br	1.004504	-0.485034	-0.398343
Br208	Br	1.504504	0.014966	0.101657
H209	H	0.836775	-0.164024	-1.063681
H210	H	1.336775	0.335976	-0.563681
Br211	Br	0.814924	-0.148502	-0.525727
Br212	Br	1.314924	0.351498	-0.025727
H213	H	0.982751	-0.268316	-0.662884
H214	H	1.482751	0.231684	-0.162884
H215	H	0.836826	-1.044858	-0.230245
H216	H	1.336826	-0.544858	0.269755
Br217	Br	1.004470	-0.374440	-0.398331
Br218	Br	1.504470	0.125560	0.101669
H219	H	0.982765	-0.268275	-0.944455
H220	H	1.482765	0.231725	-0.444455
Br221	Br	0.532807	-0.283911	-0.208272
Br222	Br	1.032807	0.216089	0.291728
H223	H	1.022936	-0.602990	-0.416745
H224	H	1.522936	-0.102990	0.083255
H225	H	1.022965	-0.688107	-0.416753
H226	H	1.522965	-0.188107	0.083247
Br227	Br	1.004664	-1.057430	-0.398350
Br228	Br	1.504664	-0.557430	0.101650
Br229	Br	1.004585	-0.283940	-0.525771
Br230	Br	1.504585	0.216060	-0.025771
H231	H	0.669952	-0.268353	-0.230149
H232	H	1.169952	0.231647	0.269851
Br233	Br	0.774663	-0.731258	-0.168049
Br234	Br	1.274663	-0.231258	0.331951
Br235	Br	0.287202	-0.148616	-0.398404
Br236	Br	0.787202	0.351384	0.101596
Br237	Br	1.004652	-0.946852	-0.398339
Br238	Br	1.504652	-0.446852	0.101661
H239	H	0.149843	-0.268286	-0.230196
H240	H	0.649843	0.231714	0.269804
H241	H	0.836780	-0.164034	-0.944417
H242	H	1.336780	0.335966	-0.444417
Br243	Br	0.132243	-0.148590	-0.398406
Br244	Br	0.632243	0.351410	0.101594
Br245	Br	1.004609	-0.283853	-1.081570
Br246	Br	1.504609	0.216147	-0.581570
H247	H	0.670160	-0.164246	-0.376486
H248	H	1.170160	0.335754	0.123514
Br249	Br	1.044847	-0.841566	-0.438642
Br250	Br	1.544847	-0.341566	0.061358
Br251	Br	1.044822	-0.730996	-0.438633
Br252	Br	1.544822	-0.230996	0.061367
H253	H	0.836795	-0.959735	-0.230242
H254	H	1.336795	-0.459735	0.269758
H255	H	0.796474	-0.603213	-0.189936
H256	H	1.296474	-0.103213	0.310064
Br257	Br	0.814772	-0.374633	-0.208368
Br258	Br	1.314772	0.125367	0.291632
H259	H	0.836658	-0.472454	-0.230231
H260	H	1.336658	0.027546	0.269769
H261	H	0.796550	-0.829078	-0.189923
H262	H	1.296550	-0.329078	0.310077
H263	H	0.796501	-0.688319	-0.189936
H264	H	1.296501	-0.188319	0.310064
Br265	Br	0.814942	-0.148472	-0.680687
Br266	Br	1.314942	0.351528	-0.180687
