data_functionalizedCrystal
_audit_creation_method	'MofGen! by Chris Wilmer'
_symmetry_space_group_name_H-M	'P1'
_symmetry_Int_Tables_number	1
_symmetry_cell_setting	triclinic
loop_
_symmetry_equiv_pos_as_xyz
  x,y,z
_cell_length_a	16.109302
_cell_length_b	13.262508
_cell_length_c	15.186229
_cell_angle_alpha	105.914579
_cell_angle_beta	89.994701
_cell_angle_gamma	83.968008
loop_
_atom_site_label
_atom_site_type_symbol
_atom_site_fract_x
_atom_site_fract_y
_atom_site_fract_z
O1	O	1.103625	0.134912	-0.040953
O2	O	1.603625	0.634912	0.459047
O3	O	0.861624	0.151701	-0.036925
O4	O	1.361624	0.651701	0.463075
O5	O	0.988714	-0.009484	-0.075531
O6	O	1.488714	0.490516	0.424469
O7	O	0.976535	0.296097	-0.002348
O8	O	1.476535	0.796097	0.497652
O9	O	0.988706	-0.009486	0.070926
O10	O	1.488706	0.490514	0.570926
O11	O	0.861616	0.151698	0.109531
O12	O	1.361616	0.651698	0.609531
O13	O	1.103616	0.134910	0.105503
O14	O	1.603616	0.634910	0.605503
Zn15	Zn	0.982615	0.143304	0.130771
Zn16	Zn	1.482615	0.643304	0.630771
Zn17	Zn	0.982626	0.143307	-0.062193
Zn18	Zn	1.482626	0.643307	0.437807
O19	O	0.976526	0.296095	0.144109
O20	O	1.476526	0.796095	0.644109
C21	C	0.830643	0.151019	0.036141
C22	C	1.330643	0.651019	0.536141
C23	C	0.738340	0.148980	0.035655
C24	C	1.238340	0.648980	0.535655
C25	C	0.525977	0.144264	0.114351
C26	C	1.025977	0.644264	0.614351
C27	C	0.439250	0.142336	0.113886
C28	C	0.939250	0.642336	0.613886
C29	C	0.439270	0.142344	-0.045788
C30	C	0.939270	0.642344	0.454212
C31	C	0.525996	0.144264	-0.045324
C32	C	1.025996	0.644264	0.454676
C33	C	0.569347	0.145229	0.034749
C34	C	1.069347	0.645229	0.534749
C35	C	0.395894	0.141382	0.033821
C36	C	0.895894	0.641382	0.533821
C37	C	0.301860	0.139292	0.033317
C38	C	0.801860	0.639292	0.533317
C39	C	0.663387	0.147317	0.035254
C40	C	1.163387	0.647317	0.535254
C41	C	0.988028	-0.048588	-0.011669
C42	C	1.488028	0.451412	0.488331
C43	C	0.985986	-0.165103	-0.039578
C44	C	1.485986	0.334897	0.460422
C45	C	0.980206	-0.493555	0.201095
C46	C	1.480206	0.006445	0.701095
C47	C	0.982119	-0.384083	0.227318
C48	C	1.482119	0.115917	0.727318
C49	C	0.983086	-0.329333	0.160597
C50	C	1.483086	0.170667	0.660597
C51	C	0.982140	-0.384065	0.067647
C52	C	1.482140	0.115935	0.567647
C53	C	0.980221	-0.493547	0.041422
C54	C	1.480221	0.006453	0.541422
C55	C	0.983100	-0.329324	0.000923
C56	C	1.483100	0.170676	0.500923
C57	C	0.982155	-0.384057	-0.092026
C58	C	1.482155	0.115943	0.407974
C59	C	0.980237	-0.493528	-0.118247
C60	C	1.480237	0.006472	0.381753
C61	C	0.979269	-0.548278	-0.051526
C62	C	1.479269	-0.048278	0.448474
C63	C	0.985019	-0.219842	0.027149
C64	C	1.485019	0.280158	0.527149
C65	C	0.985034	-0.219834	-0.132525
C66	C	1.485034	0.280166	0.367475
C67	C	0.983122	-0.329306	-0.158748
C68	C	1.483122	0.170694	0.341252
C69	C	1.134598	0.135591	0.032435
C70	C	1.634598	0.635591	0.532435
C71	C	1.226901	0.137631	0.032915
C72	C	1.726901	0.637631	0.532915
C73	C	0.977213	0.335199	0.080245
C74	C	1.477213	0.835199	0.580245
C75	C	0.979255	0.451713	0.108148
C76	C	1.479255	0.951713	0.608148
N77	N	0.982613	0.143301	0.262463
N78	N	1.482613	0.643301	0.762463
N79	N	0.982634	0.143301	-0.193887
N80	N	1.482634	0.643301	0.306113
C81	C	1.038908	0.071953	0.471097
C82	C	1.538908	0.571953	0.971097
C83	C	1.038910	0.071950	0.563286
C84	C	1.538910	0.571950	1.063286
C85	C	0.926333	0.214653	0.597474
C86	C	1.426333	0.714653	1.097474
C87	C	0.926327	0.214650	0.505285
C88	C	1.426327	0.714650	1.005285
C89	C	0.982619	0.143301	0.442099
C90	C	1.482619	0.643301	0.942099
C91	C	0.982628	0.143302	0.626477
C92	C	1.482628	0.643302	1.126477
C93	C	0.982630	0.143299	0.726433
C94	C	1.482630	0.643299	1.226433
C95	C	0.982616	0.143301	0.342137
C96	C	1.482616	0.643301	0.842137
H97	H	0.403942	0.141550	0.178706
H98	H	0.903942	0.641550	0.678706
H99	H	0.403963	0.141560	-0.110980
H100	H	0.903963	0.641560	0.389020
H101	H	1.084744	0.013851	0.586891
H102	H	1.584744	0.513851	1.086891
H103	H	0.977717	-0.637420	-0.072872
H104	H	1.477717	-0.137420	0.427128
Br105	Br	1.115302	-0.024880	0.385347
Br106	Br	1.615302	0.475120	0.885347
H107	H	0.984641	-0.240195	0.181953
H108	H	1.484641	0.259805	0.681953
Br109	Br	0.584862	0.145561	-0.153366
Br110	Br	1.084862	0.645561	0.346634
Br111	Br	0.986302	-0.145576	0.153290
Br112	Br	1.486302	0.354424	0.653290
Br113	Br	0.849942	0.311483	0.683228
Br114	Br	1.349942	0.811483	1.183228
H115	H	0.982897	-0.339529	0.302997
H116	H	1.482897	0.160471	0.802997
H117	H	0.979413	-0.538142	0.255410
H118	H	1.479413	-0.038142	0.755410
Br119	Br	0.978937	-0.567803	-0.244392
Br120	Br	1.478937	-0.067803	0.255608
H121	H	0.982351	-0.373884	-0.234429
H122	H	1.482351	0.126116	0.265571
Br123	Br	0.986325	-0.145536	-0.223082
Br124	Br	1.486325	0.354464	0.276918
H125	H	0.880486	0.272751	0.481675
H126	H	1.380486	0.772751	0.981675
H127	H	0.561271	0.145049	0.179552
H128	H	1.061271	0.645049	0.679552
