data_functionalizedCrystal
_audit_creation_method	'MofGen! by Chris Wilmer'
_symmetry_space_group_name_H-M	'P1'
_symmetry_Int_Tables_number	1
_symmetry_cell_setting	triclinic
loop_
_symmetry_equiv_pos_as_xyz
  x,y,z
_cell_length_a	11.169417
_cell_length_b	18.101395
_cell_length_c	11.169409
_cell_angle_alpha	89.964384
_cell_angle_beta	89.979747
_cell_angle_gamma	90.032353
loop_
_atom_site_label
_atom_site_type_symbol
_atom_site_fract_x
_atom_site_fract_y
_atom_site_fract_z
Zn1	Zn	1.834798	-0.294745	-0.678505
Zn2	Zn	1.834612	-0.418612	-0.477810
Zn3	Zn	1.634081	-0.294791	-0.477840
Zn4	Zn	1.634019	-0.418552	-0.678456
O5	O	1.734377	-0.356675	-0.578153
O6	O	2.002723	-0.311182	-0.651890
O7	O	1.807960	-0.402231	-0.309864
O8	O	1.660811	-0.191152	-0.504492
O9	O	2.002586	-0.402186	-0.504440
O10	O	1.808276	-0.191119	-0.651919
O11	O	1.660630	-0.311260	-0.309887
O12	O	1.466123	-0.311203	-0.504445
O13	O	1.660704	-0.402085	-0.846412
O14	O	1.466077	-0.402129	-0.651836
O15	O	1.808216	-0.311125	-0.846448
O16	O	1.807899	-0.522237	-0.504393
O17	O	1.660524	-0.522193	-0.651807
C18	C	1.422553	-0.356665	-0.578139
C19	C	1.289153	-0.356679	-0.578162
C20	C	1.734217	-0.549086	-0.578118
C21	C	1.734258	-0.631400	-0.578143
C22	C	1.734521	-0.930491	-0.578207
C23	C	1.642012	-0.899169	-0.671186
C24	C	1.641572	-0.813551	-0.670895
C25	C	1.734391	-0.782108	-0.578176
C26	C	1.700137	-0.813271	-0.451690
C27	C	1.699541	-0.898916	-0.452246
C28	C	1.861486	-0.898830	-0.610602
C29	C	1.860740	-0.813178	-0.613375
C30	C	1.734319	-0.698249	-0.578151
C31	C	1.734590	-1.014350	-0.578224
C32	C	2.047420	-0.356686	-0.578167
C33	C	2.180820	-0.356690	-0.578174
C34	C	1.734474	-0.356593	-0.891195
C35	C	1.734515	-0.356558	-1.024596
C36	C	1.734571	-0.163513	-0.578215
C37	C	1.734654	-0.081199	-0.578241
C38	C	1.734351	-0.356703	-0.266328
C39	C	1.734542	-0.356530	-0.132929
H40	H	1.663004	-0.792478	-0.764684
C41	C	1.958783	-0.784261	-0.528552
N42	N	2.032627	-0.762481	-0.464651
H43	H	1.886570	-0.792807	-0.706463
C44	C	1.670668	-0.926922	-0.798303
N45	N	1.692252	-0.947832	-0.894050
C46	C	1.515642	-0.928325	-0.642555
N47	N	1.420460	-0.950284	-0.620983
H48	H	1.606730	-0.918963	-0.424804
H49	H	1.547463	-0.793131	-0.649438
C50	C	1.786604	-0.926914	-0.355455
N51	N	1.852171	-0.947999	-0.282547
H52	H	1.765397	-0.792907	-0.380525
C53	C	1.576075	-0.784395	-0.413955
N54	N	1.482627	-0.762647	-0.385541
H55	H	1.892713	-0.920369	-0.701263
C56	C	1.954600	-0.926198	-0.519121
N57	N	2.024724	-0.946816	-0.450215
