data_functionalizedCrystal
_audit_creation_method	'MofGen! by Chris Wilmer'
_symmetry_space_group_name_H-M	'P1'
_symmetry_Int_Tables_number	1
_symmetry_cell_setting	triclinic
loop_
_symmetry_equiv_pos_as_xyz
  x,y,z
_cell_length_a	17.699083
_cell_length_b	15.995350
_cell_length_c	16.176319
_cell_angle_alpha	89.995430
_cell_angle_beta	89.998611
_cell_angle_gamma	83.387695
loop_
_atom_site_label
_atom_site_type_symbol
_atom_site_fract_x
_atom_site_fract_y
_atom_site_fract_z
O1	O	1.004255	0.105885	-0.068627
O2	O	0.783899	0.119661	-0.068653
O3	O	0.900101	-0.009127	-0.068638
O4	O	0.888054	0.234673	-0.068641
O5	O	0.900085	-0.009135	0.068855
O6	O	0.783883	0.119653	0.068840
O7	O	1.004239	0.105877	0.068867
Cu8	Cu	0.894060	0.112764	0.081408
Cu9	Cu	0.894079	0.112774	-0.081194
O10	O	0.888038	0.234665	0.068852
C11	C	0.755694	0.119163	0.000090
C12	C	0.671673	0.117683	0.000080
C13	C	0.623178	0.193278	0.000079
C14	C	0.544232	0.191882	0.000090
C15	C	0.513783	0.114889	0.000095
C16	C	0.562285	0.039287	0.000098
C17	C	0.641229	0.040685	0.000094
C18	C	0.243912	0.033651	0.000119
C19	C	0.164962	0.032259	0.000121
C20	C	0.146916	0.184848	0.000115
C21	C	0.225860	0.186245	0.000110
C22	C	0.274354	0.110644	0.000118
C23	C	0.359956	0.112159	0.000108
C24	C	0.428183	0.113373	0.000099
C25	C	0.899595	-0.040324	0.000107
C26	C	0.898101	-0.133272	0.000102
C27	C	0.892739	-0.471008	0.000104
C28	C	0.809983	-0.423406	-0.000214
C29	C	0.811476	-0.326719	0.000096
C30	C	0.895399	-0.303453	0.000102
C31	C	0.936208	-0.344618	0.078621
C32	C	0.934129	-0.441250	0.078687
C33	C	0.935857	-0.441602	-0.077669
C34	C	0.935838	-0.344657	-0.078706
C35	C	0.896907	-0.208759	0.000104
C36	C	0.891234	-0.565703	0.000108
C37	C	1.032445	0.106375	0.000122
C38	C	1.116465	0.107856	0.000126
C39	C	0.888544	0.265863	0.000105
C40	C	0.890037	0.358810	0.000104
N41	N	0.894052	0.112757	0.195773
N42	N	0.894092	0.112775	-0.195559
C43	C	0.945521	0.055753	0.239043
C44	C	0.945525	0.055752	0.325591
C45	C	0.894063	0.112760	0.368865
C46	C	0.842588	0.169767	0.325589
C47	C	0.842581	0.169763	0.239043
C48	C	0.842614	0.169782	0.674617
C49	C	0.842626	0.169783	0.761168
C50	C	0.945558	0.055772	0.761164
C51	C	0.945551	0.055768	0.674619
C52	C	0.894074	0.112771	0.631350
C53	C	0.894069	0.112770	0.537505
C54	C	0.894070	0.112765	0.462708
H55	H	0.107421	0.246406	0.000113
H56	H	0.776912	-0.441867	-0.056522
Br57	Br	1.015421	-0.021593	0.819891
H58	H	0.777046	-0.442936	0.055772
Br59	Br	1.015399	-0.021597	0.615891
Br60	Br	0.309717	-0.068951	0.000131
Br61	Br	0.664493	0.297775	0.000063
H62	H	0.994887	-0.473622	0.082254
Br63	Br	1.015373	-0.021613	0.180323
Br64	Br	1.015375	-0.021614	0.384318
Br65	Br	0.772738	0.247131	0.384315
H66	H	0.996873	-0.473487	-0.078191
H67	H	0.680714	-0.020873	0.000094
Br68	Br	0.772780	0.247157	0.819899
H69	H	0.140174	-0.030442	0.000127
Br70	Br	0.772755	0.247143	0.615899
Br71	Br	0.772721	0.247123	0.180318
Br72	Br	0.884506	-0.471663	0.176503
H73	H	0.906001	-0.317344	-0.136792
H74	H	0.779397	-0.298228	-0.056190
Br75	Br	0.478419	0.294481	0.000086
H76	H	0.907851	-0.316183	0.137047
Br77	Br	0.520962	-0.065205	0.000114
Br78	Br	0.267179	0.290739	0.000095
Br79	Br	0.757622	-0.280163	0.094053
Br80	Br	1.038973	-0.321289	0.083501
H81	H	0.908807	-0.462083	-0.137181
H82	H	0.997038	-0.329419	-0.083442
