data_functionalizedCrystal
_audit_creation_method	'MofGen! by Chris Wilmer'
_symmetry_space_group_name_H-M	'P1'
_symmetry_Int_Tables_number	1
_symmetry_cell_setting	triclinic
loop_
_symmetry_equiv_pos_as_xyz
  x,y,z
_cell_length_a	6.817900
_cell_length_b	19.551823
_cell_length_c	19.453114
_cell_angle_alpha	96.328084
_cell_angle_beta	101.709288
_cell_angle_gamma	101.663376
loop_
_atom_site_label
_atom_site_type_symbol
_atom_site_fract_x
_atom_site_fract_y
_atom_site_fract_z
V1	V	-3.997770	-0.097403	-0.219330
O2	O	-3.995107	0.003932	-0.214817
O3	O	-3.940569	-0.192415	-0.218155
O4	O	-3.940794	-0.096234	-0.314839
O5	O	-3.994880	-0.092915	-0.117463
V6	V	-4.483650	-0.085244	-0.207106
O7	O	-4.253859	-0.124077	-0.246143
O8	O	-4.677759	-0.058570	-0.180293
O9	O	-4.317645	0.009767	-0.208281
O10	O	-4.603710	-0.186579	-0.211619
O11	O	-4.603937	-0.089732	-0.308973
O12	O	-4.317420	-0.086414	-0.111597
C13	C	-3.783706	-0.215566	-0.214779
C14	C	-3.818166	-0.293241	-0.214455
C15	C	-3.783992	-0.092877	-0.338108
C16	C	-3.818633	-0.092549	-0.416189
C17	C	-4.015806	-0.333298	-0.217815
C18	C	-4.048189	-0.406283	-0.217517
C19	C	-3.882914	-0.439206	-0.213845
C20	C	-3.685249	-0.399141	-0.210489
C21	C	-3.652875	-0.326158	-0.210793
C22	C	-3.773685	-0.545546	-0.169305
C23	C	-3.806064	-0.618527	-0.168997
C24	C	-3.982761	-0.664309	-0.212909
C25	C	-4.127103	-0.637101	-0.257122
C26	C	-4.094729	-0.564118	-0.257427
C27	C	-3.917998	-0.518343	-0.213515
C28	C	-4.215527	-0.783505	-0.215948
C29	C	-4.247906	-0.856492	-0.215655
C30	C	-3.884956	-0.849347	-0.208619
C31	C	-3.852586	-0.776363	-0.208920
C32	C	-4.017878	-0.743446	-0.212581
C33	C	-4.016364	-0.095902	-0.456458
C34	C	-4.048913	-0.095594	-0.529823
C35	C	-3.883727	-0.091947	-0.562920
C36	C	-3.685965	-0.088590	-0.522641
C37	C	-3.653418	-0.088890	-0.449276
N38	N	-3.820565	-0.128848	-0.681834
N39	N	-3.851496	-0.128564	-0.751529
C40	C	-3.981777	-0.091039	-0.783965
N41	N	-4.079993	-0.053818	-0.744076
N42	N	-4.049066	-0.054106	-0.674376
C43	C	-3.918998	-0.091620	-0.642472
C44	C	-4.214814	-0.094058	-0.903785
C45	C	-4.247354	-0.093745	-0.977151
C46	C	-3.884403	-0.086747	-0.969969
C47	C	-3.851866	-0.087053	-0.896603
C48	C	-4.017080	-0.090711	-0.863516
C49	C	-4.137850	0.032915	-0.211656
C50	C	-4.082627	0.110590	-0.211984
C51	C	-4.137564	-0.089773	-0.088325
C52	C	-4.082162	-0.090097	-0.010243
H53	H	-4.150405	-0.306503	-0.220801
H54	H	-4.350117	-0.756703	-0.218928
H55	H	-4.209137	-0.438904	-0.220253
H56	H	-4.212258	-0.541969	-0.293427
H57	H	-4.349340	-0.097034	-0.876844
H58	H	-3.491931	-0.293544	-0.208058
H59	H	-4.209937	-0.098329	-0.562617
H60	H	-4.408371	-0.096471	-1.009937
H61	H	-3.749901	-0.083772	-0.996914
H62	H	-3.551470	-0.085618	-0.549593
H63	H	-4.270797	-0.674387	-0.292977
H64	H	-4.408854	-0.889107	-0.218396
H65	H	-3.750387	-0.876153	-0.205634
H66	H	-3.690857	-0.084330	-0.863817
H67	H	-3.688537	-0.640673	-0.132991
H68	H	-3.691646	-0.743747	-0.206179
H69	H	-3.629783	-0.508275	-0.133549
H70	H	-3.492396	-0.086154	-0.416488
H71	H	-3.550683	-0.425952	-0.207501
H72	H	-4.150897	-0.098879	-0.429523
