data_functionalizedCrystal
_audit_creation_method	'MofGen! by Chris Wilmer'
_symmetry_space_group_name_H-M	'P1'
_symmetry_Int_Tables_number	1
_symmetry_cell_setting	triclinic
loop_
_symmetry_equiv_pos_as_xyz
  x,y,z
_cell_length_a	25.639242
_cell_length_b	29.839131
_cell_length_c	25.639234
_cell_angle_alpha	90.033076
_cell_angle_beta	90.026995
_cell_angle_gamma	90.030754
loop_
_atom_site_label
_atom_site_type_symbol
_atom_site_fract_x
_atom_site_fract_y
_atom_site_fract_z
Zn1	Zn	0.799263	-0.178936	0.295711
Zn2	Zn	1.132596	0.154398	0.629045
Zn3	Zn	1.465929	0.487731	0.962378
Zn4	Zn	0.799184	-0.254058	0.208263
Zn5	Zn	1.132517	0.079275	0.541596
Zn6	Zn	1.465851	0.412609	0.874929
Zn7	Zn	0.711831	-0.178937	0.208275
Zn8	Zn	1.045165	0.154397	0.541609
Zn9	Zn	1.378498	0.487730	0.874942
Zn10	Zn	0.711789	-0.254034	0.295653
Zn11	Zn	1.045123	0.079300	0.628986
Zn12	Zn	1.378456	0.412633	0.962319
O13	O	0.755517	-0.216491	0.251976
O14	O	1.088850	0.116842	0.585309
O15	O	1.422183	0.450176	0.918642
O16	O	0.872417	-0.188911	0.284130
O17	O	1.205751	0.144423	0.617464
O18	O	1.539084	0.477756	0.950797
O19	O	0.787581	-0.244103	0.135099
O20	O	1.120915	0.089230	0.468433
O21	O	1.454248	0.422563	0.801766
O22	O	0.723480	-0.116070	0.219904
O23	O	1.056813	0.217264	0.553237
O24	O	1.390147	0.550597	0.886571
O25	O	0.872360	-0.244102	0.219882
O26	O	1.205693	0.089231	0.553216
O27	O	1.539026	0.422564	0.886549
O28	O	0.787715	-0.116069	0.284143
O29	O	1.121049	0.217265	0.617476
O30	O	1.454382	0.550598	0.950809
O31	O	0.723404	-0.188912	0.135109
O32	O	1.056737	0.144421	0.468442
O33	O	1.390070	0.477754	0.801775
O34	O	0.638661	-0.188889	0.219847
O35	O	0.971994	0.144445	0.553180
O36	O	1.305327	0.477778	0.886514
O37	O	0.723408	-0.244061	0.368826
O38	O	1.056741	0.089272	0.702159
O39	O	1.390075	0.422606	1.035492
O40	O	0.638630	-0.244062	0.284043
O41	O	0.971963	0.089271	0.617376
O42	O	1.305296	0.422605	0.950709
O43	O	0.787674	-0.188887	0.368869
O44	O	1.121008	0.144446	0.702202
O45	O	1.454341	0.477780	1.035535
O46	O	0.787540	-0.316922	0.219825
O47	O	1.120874	0.016412	0.553159
O48	O	1.454207	0.349745	0.886492
O49	O	0.723332	-0.316904	0.284030
O50	O	1.056665	0.016429	0.617364
O51	O	1.389998	0.349763	0.950697
C52	C	0.619674	-0.216473	0.251940
C53	C	0.953008	0.116860	0.585273
C54	C	1.286341	0.450193	0.918607
C55	C	0.561560	-0.216477	0.251937
C56	C	0.894894	0.116857	0.585271
C57	C	1.228227	0.450190	0.918604
C58	C	0.201190	-0.245268	0.285371
C59	C	0.534523	0.088066	0.618704
C60	C	0.867857	0.421399	0.952037
C61	C	0.146586	-0.245270	0.285379
C62	C	0.479919	0.088063	0.618712
C63	C	0.813252	0.421396	0.952045
O64	O	0.118343	-0.269728	0.313775
O65	O	0.451676	0.063606	0.647108
O66	O	0.785009	0.396939	0.980442
N67	N	0.119278	-0.216503	0.252010
N68	N	0.452611	0.116830	0.585343
N69	N	0.785944	0.450163	0.918676
C70	C	0.146577	-0.187728	0.218634
C71	C	0.479910	0.145605	0.551967
C72	C	0.813244	0.478938	0.885301
O73	O	0.118336	-0.163260	0.190252
O74	O	0.451669	0.170074	0.523585
O75	O	0.785002	0.503407	0.856919
C76	C	0.201180	-0.187724	0.218629
C77	C	0.534514	0.145610	0.551962
C78	C	0.867847	0.478943	0.885295
C79	C	0.228485	-0.216496	0.251996
C80	C	0.561819	0.116837	0.585330
C81	C	0.895152	0.450171	0.918663
C82	C	0.228495	-0.274037	0.318736
C83	C	0.561828	0.059296	0.652069
C84	C	0.895162	0.392629	0.985402
C85	C	0.283095	-0.274035	0.318727
C86	C	0.616429	0.059298	0.652060
C87	C	0.949762	0.392632	0.985393
C88	C	0.310391	-0.245263	0.285352
C89	C	0.643724	0.088070	0.618686
C90	C	0.977058	0.421404	0.952019
C91	C	0.283086	-0.216494	0.251987
C92	C	0.616419	0.116840	0.585320
C93	C	0.949753	0.450173	0.918654
C94	C	0.228479	-0.158947	0.185256
C95	C	0.561812	0.174387	0.518589
C96	C	0.895145	0.507720	0.851923
C97	C	0.283086	-0.158944	0.185254
C98	C	0.616419	0.174389	0.518587
C99	C	0.949752	0.507722	0.851920
C100	C	0.310391	-0.187717	0.218621
C101	C	0.643724	0.145617	0.551955
C102	C	0.977057	0.478950	0.885288
C103	C	0.364982	-0.187720	0.218604
C104	C	0.698315	0.145614	0.551937
C105	C	1.031649	0.478947	0.885270
N106	N	0.392290	-0.216487	0.251973
N107	N	0.725623	0.116847	0.585306
N108	N	1.058956	0.450180	0.918640
C109	C	0.364994	-0.245258	0.285347
C110	C	0.698328	0.088075	0.618681
C111	C	1.031661	0.421408	0.952014
C112	C	0.031906	-0.187740	0.218648
C113	C	0.365240	0.145593	0.551981
C114	C	0.698573	0.478927	0.885315
C115	C	-0.022696	-0.187746	0.218650
C116	C	0.310637	0.145587	0.551984
C117	C	0.643971	0.478920	0.885317
C118	C	-0.022684	-0.245288	0.285396
C119	C	0.310650	0.088045	0.618729
C120	C	0.643983	0.421379	0.952063
C121	C	0.031920	-0.245283	0.285391
C122	C	0.365253	0.088050	0.618724
C123	C	0.698586	0.421383	0.952057
C124	C	0.059214	-0.216507	0.252017
C125	C	0.392548	0.116826	0.585350
C126	C	0.725881	0.450160	0.918684
C127	C	0.479659	-0.245252	0.285325
C128	C	0.812993	0.088082	0.618659
C129	C	1.146326	0.421415	0.951992
C130	C	0.534265	-0.245248	0.285312
C131	C	0.867598	0.088085	0.618645
C132	C	1.200931	0.421418	0.951978
C133	C	0.534248	-0.187705	0.218568
C134	C	0.867581	0.145628	0.551901
C135	C	1.200914	0.478961	0.885235
C136	C	0.479647	-0.187710	0.218580
C137	C	0.812980	0.145623	0.551913
C138	C	1.146314	0.478956	0.885246
C139	C	0.452354	-0.216485	0.251962
C140	C	0.785688	0.116848	0.585296
C141	C	1.119021	0.450182	0.918629
O142	O	0.393260	-0.163273	0.190224
O143	O	0.726593	0.170060	0.523557
O144	O	1.059926	0.503393	0.856890
O145	O	0.393242	-0.269719	0.313729
O146	O	0.726576	0.063614	0.647063
O147	O	1.059909	0.396948	0.980396
C148	C	0.755437	-0.333214	0.251931
C149	C	1.088770	0.000120	0.585265
C150	C	1.422104	0.333453	0.918598
C151	C	0.755451	-0.383148	0.251930
C152	C	1.088784	-0.049815	0.585263
C153	C	1.422117	0.283519	0.918597
C154	C	0.788957	-0.692756	0.285472
C155	C	1.122290	-0.359423	0.618806
C156	C	1.455623	-0.026089	0.952139
C157	C	0.789014	-0.880429	0.285504
C158	C	1.122347	-0.547096	0.618837
C159	C	1.455680	-0.213762	0.952170
O160	O	0.817423	-0.904664	0.313990
O161	O	1.150757	-0.571331	0.647323
O162	O	1.484090	-0.237997	0.980657
N163	N	0.755606	-0.903933	0.252034
N164	N	1.088939	-0.570600	0.585367
N165	N	1.422272	-0.237266	0.918700
C166	C	0.722179	-0.880516	0.218556
C167	C	1.055512	-0.547182	0.551889
C168	C	1.388845	-0.213849	0.885222
O169	O	0.693761	-0.904814	0.190092
O170	O	1.027094	-0.571480	0.523425
O171	O	1.360427	-0.238147	0.856758
C172	C	0.722120	-0.692844	0.218527
C173	C	1.055453	-0.359510	0.551861
C174	C	1.388786	-0.026177	0.885194
C175	C	0.755534	-0.669342	0.251996
C176	C	1.088867	-0.336009	0.585329
C177	C	1.422200	-0.002675	0.918663
C178	C	0.822368	-0.669254	0.318939
C179	C	1.155701	-0.335921	0.652272
C180	C	1.489034	-0.002588	0.985605
C181	C	0.822355	-0.622339	0.318928
C182	C	1.155688	-0.289006	0.652262
C183	C	1.489022	0.044328	0.985595
C184	C	0.788932	-0.598925	0.285452
C185	C	1.122265	-0.265592	0.618785
C186	C	1.455598	0.067742	0.952119
C187	C	0.755521	-0.622427	0.251986
C188	C	1.088854	-0.289093	0.585319
C189	C	1.422188	0.044240	0.918652
C190	C	0.688690	-0.669427	0.185052
C191	C	1.022024	-0.336094	0.518386
C192	C	1.355357	-0.002761	0.851719
C193	C	0.688678	-0.622506	0.185049
C194	C	1.022011	-0.289173	0.518382
C195	C	1.355344	0.044160	0.851716
C196	C	0.722092	-0.599005	0.218518
C197	C	1.055425	-0.265671	0.551851
C198	C	1.388758	0.067662	0.885184
C199	C	0.722085	-0.552097	0.218499
C200	C	1.055419	-0.218764	0.551832
C201	C	1.388752	0.114569	0.885166
N202	N	0.755493	-0.528593	0.251969
N203	N	1.088827	-0.195260	0.585302
N204	N	1.422160	0.138073	0.918636
C205	C	0.788916	-0.552007	0.285446
C206	C	1.122250	-0.218674	0.618779
C207	C	1.455583	0.114659	0.952112
C208	C	0.722213	-0.979046	0.218572
C209	C	1.055546	-0.645713	0.551905
C210	C	1.388879	-0.312380	0.885239
C211	C	0.722228	-1.025964	0.218578
C212	C	1.055561	-0.692631	0.551912
C213	C	1.388895	-0.359298	0.885245
C214	C	0.789062	-1.025874	0.285527
C215	C	1.122396	-0.692541	0.618861
C216	C	1.455729	-0.359208	0.952194
C217	C	0.789049	-0.978956	0.285518
C218	C	1.122383	-0.645622	0.618851
C219	C	1.455716	-0.312289	0.952185
C220	C	0.755621	-0.955542	0.252042
C221	C	1.088954	-0.622209	0.585376
C222	C	1.422287	-0.288876	0.918709
C223	C	0.788888	-0.453481	0.285421
C224	C	1.122221	-0.120148	0.618755
C225	C	1.455555	0.213185	0.952088
C226	C	0.788874	-0.406562	0.285407
C227	C	1.122207	-0.073229	0.618740
C228	C	1.455541	0.260105	0.952073
C229	C	0.722038	-0.406656	0.218460
C230	C	1.055371	-0.073323	0.551793
C231	C	1.388705	0.260011	0.885126
C232	C	0.722054	-0.453571	0.218472
C233	C	1.055387	-0.120238	0.551806
C234	C	1.388720	0.213095	0.885139
C235	C	0.755480	-0.476983	0.251957
C236	C	1.088814	-0.143650	0.585291
C237	C	1.422147	0.189684	0.918624
O238	O	0.693686	-0.527834	0.190032
O239	O	1.027019	-0.194500	0.523365
O240	O	1.360353	0.138833	0.856699
O241	O	0.817322	-0.527701	0.313913
O242	O	1.150655	-0.194368	0.647247
O243	O	1.483989	0.138965	0.980580
C244	C	0.788969	-0.739671	0.285483
C245	C	1.122303	-0.406338	0.618816
C246	C	1.455636	-0.073005	0.952149
C247	C	0.755559	-0.763173	0.252016
C248	C	1.088892	-0.429840	0.585350
C249	C	1.422225	-0.096506	0.918683
C250	C	0.722135	-0.739759	0.218540
C251	C	1.055469	-0.406426	0.551873
C252	C	1.388802	-0.073092	0.885206
C253	C	0.755574	-0.810091	0.252023
C254	C	1.088907	-0.476758	0.585356
C255	C	1.422241	-0.143424	0.918689
C256	C	0.788997	-0.833505	0.285499
C257	C	1.122330	-0.500171	0.618832
C258	C	1.455664	-0.166838	0.952166
C259	C	0.822405	-0.810001	0.318969
C260	C	1.155738	-0.476667	0.652303
C261	C	1.489072	-0.143334	0.985636
C262	C	0.822393	-0.763085	0.318959
C263	C	1.155726	-0.429752	0.652292
C264	C	1.489059	-0.096419	0.985626
C265	C	0.688727	-0.763263	0.185070
C266	C	1.022061	-0.429930	0.518403
C267	C	1.355394	-0.096596	0.851736
C268	C	0.688743	-0.810179	0.185082
C269	C	1.022076	-0.476845	0.518415
C270	C	1.355410	-0.143512	0.851749
C271	C	0.722166	-0.833592	0.218559
C272	C	1.055500	-0.500259	0.551892
C273	C	1.388833	-0.166926	0.885225
C274	C	0.891890	-0.216509	0.252011
C275	C	1.225223	0.116824	0.585345
C276	C	1.558556	0.450158	0.918678
C277	C	0.950004	-0.216517	0.252027
C278	C	1.283337	0.116817	0.585360
C279	C	1.616670	0.450150	0.918693
C280	C	0.755545	-0.216471	0.388349
C281	C	1.088879	0.116862	0.721682
C282	C	1.422212	0.450196	1.055015
C283	C	0.755557	-0.216463	0.446463
C284	C	1.088891	0.116871	0.779796
C285	C	1.422224	0.450204	1.113129
C286	C	0.755611	-0.099313	0.252031
C287	C	1.088944	0.234021	0.585365
C288	C	1.422278	0.567354	0.918698
C289	C	0.755651	-0.049378	0.252055
C290	C	1.088985	0.283955	0.585388
C291	C	1.422318	0.617289	0.918722
C292	C	0.755519	-0.216478	0.116133
C293	C	1.088852	0.116855	0.449466
C294	C	1.422185	0.450188	0.782800
C295	C	0.755608	-0.216360	0.058019
C296	C	1.088941	0.116973	0.391353
C297	C	1.422275	0.450306	0.724686
C298	C	0.788988	-0.245164	0.697644
C299	C	1.122322	0.088170	1.030977
C300	C	1.455655	0.421503	1.364310
C301	C	0.788983	-0.245173	0.643039
C302	C	1.122316	0.088160	0.976373
C303	C	1.455649	0.421493	1.309706
O304	O	0.817383	-0.269626	0.614792
O305	O	1.150716	0.063708	0.948126
O306	O	1.484049	0.397041	1.281459
N307	N	0.755569	-0.216441	0.615737
N308	N	1.088902	0.116892	0.949070
N309	N	1.422235	0.450226	1.282403
C310	C	0.722154	-0.187701	0.643041
C311	C	1.055487	0.145633	0.976374
C312	C	1.388821	0.478966	1.309708
O313	O	0.693732	-0.163263	0.614804
O314	O	1.027065	0.170071	0.948137
O315	O	1.360399	0.503404	1.281470
C316	C	0.722157	-0.187694	0.697644
C317	C	1.055491	0.145640	1.030978
C318	C	1.388824	0.478973	1.364311
C319	C	0.755577	-0.216425	0.724944
C320	C	1.088911	0.116909	1.058278
C321	C	1.422244	0.450242	1.391611
C322	C	0.822405	-0.273893	0.724944
C323	C	1.155738	0.059441	1.058277
C324	C	1.489072	0.392774	1.391611
C325	C	0.822411	-0.273883	0.779544
C326	C	1.155744	0.059451	1.112878
C327	C	1.489078	0.392784	1.446211
C328	C	0.789000	-0.245144	0.806845
C329	C	1.122334	0.088190	1.140178
C330	C	1.455667	0.421523	1.473512
C331	C	0.755583	-0.216415	0.779545
C332	C	1.088917	0.116919	1.112878
C333	C	1.422250	0.450252	1.446212
C334	C	0.688741	-0.158956	0.724948
C335	C	1.022074	0.174377	1.058281
C336	C	1.355407	0.507711	1.391614
C337	C	0.688746	-0.158952	0.779555
C338	C	1.022080	0.174381	1.112888
C339	C	1.355413	0.507715	1.446221
C340	C	0.722166	-0.187683	0.806855
C341	C	1.055500	0.145650	1.140188
C342	C	1.388833	0.478984	1.473521
C343	C	0.722179	-0.187666	0.861446
C344	C	1.055512	0.145668	1.194779
C345	C	1.388845	0.479001	1.528113
N346	N	0.755593	-0.216398	0.888749
N347	N	1.088926	0.116936	1.222082
N348	N	1.422259	0.450269	1.555415
C349	C	0.789004	-0.245137	0.861448
C350	C	1.122337	0.088196	1.194782
C351	C	1.455670	0.421530	1.528115
C352	C	0.722149	-0.187718	0.528370
C353	C	1.055482	0.145616	0.861704
C354	C	1.388816	0.478949	1.195037
C355	C	0.722148	-0.187722	0.473768
C356	C	1.055481	0.145612	0.807101
C357	C	1.388815	0.478945	1.140435
C358	C	0.788976	-0.245195	0.473770
C359	C	1.122310	0.088138	0.807104
C360	C	1.455643	0.421472	1.140437
C361	C	0.788979	-0.245188	0.528374
C362	C	1.122313	0.088145	0.861707
C363	C	1.455646	0.421478	1.195040
C364	C	0.755563	-0.216450	0.555673
C365	C	1.088897	0.116883	0.889006
C366	C	1.422230	0.450217	1.222340
C367	C	0.789014	-0.245113	0.976113
C368	C	1.122347	0.088220	1.309447
C369	C	1.455681	0.421553	1.642780
C370	C	0.789019	-0.245099	1.030719
C371	C	1.122352	0.088234	1.364052
C372	C	1.455685	0.421567	1.697386
C373	C	0.722189	-0.187628	1.030712
C374	C	1.055522	0.145706	1.364045
C375	C	1.388856	0.479039	1.697378
C376	C	0.722186	-0.187640	0.976111
C377	C	1.055519	0.145693	1.309445
C378	C	1.388853	0.479027	1.642778
C379	C	0.755600	-0.216386	0.948813
C380	C	1.088934	0.116947	1.282147
C381	C	1.422267	0.450280	1.615480
O382	O	0.693792	-0.163227	0.889728
O383	O	1.027125	0.170106	1.223061
O384	O	1.360458	0.503440	1.556395
O385	O	0.817416	-0.269575	0.889692
O386	O	1.150749	0.063759	1.223025
O387	O	1.484083	0.397092	1.556359
H388	H	0.556494	-0.268680	0.312484
H389	H	0.889827	0.064654	0.645817
H390	H	1.223161	0.397987	0.979151
H391	H	0.849562	-0.603207	0.346183
H392	H	1.182895	-0.269873	0.679516
H393	H	1.516229	0.063460	1.012850
H394	H	0.457444	-0.268682	0.312510
H395	H	0.790777	0.064651	0.645843
H396	H	1.124111	0.397985	0.979177
H397	H	0.816257	-0.959823	0.312771
H398	H	1.149591	-0.626490	0.646105
H399	H	1.482924	-0.293157	0.979438
H400	H	0.305322	-0.297463	0.345899
H401	H	0.638656	0.035870	0.679232
H402	H	0.971989	0.369203	1.012566
H403	H	0.849624	-0.297280	0.801767
H404	H	1.182957	0.036053	1.135101
H405	H	1.516290	0.369387	1.468434
H406	H	0.206277	-0.297467	0.345916
H407	H	0.539610	0.035867	0.679249
H408	H	0.872943	0.369200	1.012583
H409	H	0.694980	-0.164239	0.953882
H410	H	1.028313	0.169095	1.287216
H411	H	1.361646	0.502428	1.620549
H412	H	0.694988	-0.164228	1.052950
H413	H	1.028321	0.169105	1.386283
H414	H	1.361655	0.502439	1.719616
H415	H	0.054148	-0.268712	0.312562
H416	H	0.387481	0.064622	0.645896
H417	H	0.720814	0.397955	0.979229
H418	H	-0.044918	-0.268714	0.312573
H419	H	0.288416	0.064619	0.645906
H420	H	0.621749	0.397952	0.979240
H421	H	0.305306	-0.135508	0.158079
H422	H	0.638639	0.197825	0.491413
H423	H	0.971973	0.531159	0.824746
H424	H	0.816181	-0.268597	0.451532
H425	H	1.149514	0.064737	0.784866
H426	H	1.482847	0.398070	1.118199
H427	H	-0.044923	-0.164322	0.191474
H428	H	0.288410	0.169012	0.524807
H429	H	0.621744	0.502345	0.858140
H430	H	0.849585	-0.688313	0.346202
H431	H	1.182918	-0.354980	0.679536
H432	H	1.516251	-0.021646	1.012869
H433	H	0.054126	-0.164307	0.191467
H434	H	0.387460	0.169026	0.524801
H435	H	0.720793	0.502360	0.858134
H436	H	0.849613	-0.297298	0.702722
H437	H	1.182946	0.036036	1.036055
H438	H	1.516280	0.369369	1.369388
H439	H	0.816236	-0.268496	1.052944
H440	H	1.149569	0.064838	1.386277
H441	H	1.482902	0.398171	1.719611
H442	H	0.816278	-1.044946	0.312785
H443	H	1.149611	-0.711612	0.646118
H444	H	1.482944	-0.378279	0.979451
H445	H	0.694990	-0.959987	0.191311
H446	H	1.028324	-0.626653	0.524644
H447	H	1.361657	-0.293320	0.857977
H448	H	0.661454	-0.603446	0.157790
H449	H	0.994788	-0.270112	0.491123
H450	H	1.328121	0.063221	0.824456
H451	H	0.816085	-0.387428	0.312661
H452	H	1.149419	-0.054095	0.645994
H453	H	1.482752	0.279238	0.979327
H454	H	0.206256	-0.135519	0.158083
H455	H	0.539590	0.197815	0.491416
H456	H	0.872923	0.531148	0.824750
H457	H	0.661509	-0.744203	0.157809
H458	H	0.994843	-0.410870	0.491143
H459	H	1.328176	-0.077536	0.824476
H460	H	0.457414	-0.164282	0.191408
H461	H	0.790748	0.169051	0.524741
H462	H	1.124081	0.502384	0.858075
H463	H	0.661525	-0.135561	0.702729
H464	H	0.994859	0.197772	1.036063
H465	H	1.328192	0.531106	1.369396
H466	H	0.661481	-0.688554	0.157798
H467	H	0.994815	-0.355221	0.491132
H468	H	1.328148	-0.021888	0.824465
H469	H	0.695025	-1.045095	0.191319
H470	H	1.028358	-0.711762	0.524653
H471	H	1.361691	-0.378429	0.857986
H472	H	0.556482	-0.164281	0.191394
H473	H	0.889815	0.169052	0.524727
H474	H	1.223148	0.502385	0.858061
H475	H	0.849621	-0.829073	0.346225
H476	H	1.182955	-0.495739	0.679559
H477	H	1.516288	-0.162406	1.012892
H478	H	0.694939	-0.164311	0.550594
H479	H	1.028273	0.169022	0.883928
H480	H	1.361606	0.502356	1.217261
H481	H	0.694827	-0.387585	0.191202
H482	H	1.028160	-0.054252	0.524535
H483	H	1.361493	0.279082	0.857869
H484	H	0.694850	-0.472707	0.191215
H485	H	1.028183	-0.139374	0.524549
H486	H	1.361516	0.193959	0.857882
H487	H	0.816104	-0.472538	0.312692
H488	H	1.149437	-0.139204	0.646025
H489	H	1.482770	0.194129	0.979358
H490	H	0.849601	-0.743954	0.346212
H491	H	1.182934	-0.410620	0.679546
H492	H	1.516268	-0.077287	1.012879
H493	H	0.661534	-0.829309	0.157823
H494	H	0.994868	-0.495976	0.491156
H495	H	1.328201	-0.162643	0.824490
H496	H	0.816227	-0.268518	0.953894
H497	H	1.149560	0.064815	1.287227
H498	H	1.482893	0.398148	1.620561
H499	H	0.661534	-0.135549	0.801779
H500	H	0.994868	0.197784	1.135113
H501	H	1.328201	0.531118	1.468446
H502	H	0.816193	-0.268584	0.550598
H503	H	1.149526	0.064750	0.883931
H504	H	1.482860	0.398083	1.217264
H505	H	0.694940	-0.164321	0.451545
H506	H	1.028273	0.169012	0.784878
H507	H	1.361607	0.502346	1.118212
