data_functionalizedCrystal
_audit_creation_method	'MofGen! by Chris Wilmer'
_symmetry_space_group_name_H-M	'P1'
_symmetry_Int_Tables_number	1
_symmetry_cell_setting	triclinic
loop_
_symmetry_equiv_pos_as_xyz
  x,y,z
_cell_length_a	10.868271
_cell_length_b	16.109301
_cell_length_c	16.109301
_cell_angle_alpha	96.538519
_cell_angle_beta	90.006558
_cell_angle_gamma	89.998402
loop_
_atom_site_label
_atom_site_type_symbol
_atom_site_fract_x
_atom_site_fract_y
_atom_site_fract_z
O1	O	0.102248	-1.103132	0.106868
O2	O	0.602248	-0.603132	0.606868
O3	O	0.102268	-0.861070	0.120167
O4	O	0.602268	-0.361070	0.620167
O5	O	0.102245	-0.988750	-0.007514
O6	O	0.602245	-0.488750	0.492486
O7	O	0.102271	-0.975451	0.234548
O8	O	0.602271	-0.475451	0.734548
O9	O	-0.102399	-0.988740	-0.007519
O10	O	0.397601	-0.488740	0.492481
O11	O	-0.102376	-0.861059	0.120162
O12	O	0.397624	-0.361059	0.620162
O13	O	-0.102396	-1.103121	0.106863
O14	O	0.397604	-0.603121	0.606863
Zn15	Zn	-0.134878	-0.982088	0.113512
Zn16	Zn	0.365122	-0.482088	0.613512
Zn17	Zn	0.134750	-0.982102	0.113518
Zn18	Zn	0.634750	-0.482102	0.613518
O19	O	-0.102373	-0.975440	0.234543
O20	O	0.397627	-0.475440	0.734543
C21	C	-0.000051	-0.830090	0.119626
C22	C	0.499949	-0.330090	0.619626
C23	C	-0.000044	-0.737794	0.118011
C24	C	0.499956	-0.237794	0.618011
N25	N	-0.318892	-0.982085	0.113507
N26	N	0.181108	-0.482085	0.613507
C27	C	-0.000078	-0.988206	-0.038491
C28	C	0.499922	-0.488206	0.461509
C29	C	-0.000079	-0.986591	-0.130786
C30	C	0.499921	-0.486591	0.369214
C31	C	-0.569898	-0.982098	0.113516
C32	C	-0.069898	-0.482098	0.613516
C33	C	-0.430221	-0.982088	0.113513
C34	C	0.069779	-0.482088	0.613513
N35	N	0.318764	-0.982112	0.113516
N36	N	0.818764	-0.482112	0.613516
C37	C	-0.000074	-1.134101	0.107404
C38	C	0.499926	-0.634101	0.607404
C39	C	-0.000073	-1.226397	0.109019
C40	C	0.499927	-0.726397	0.609019
C41	C	-0.000051	-0.515522	0.190018
C42	C	0.499949	-0.015522	0.690018
C43	C	-0.000059	-0.428801	0.188494
C44	C	0.499941	0.071199	0.688494
C45	C	-0.000070	-0.448676	0.037006
C46	C	0.499930	0.051324	0.537006
C47	C	-0.000071	-0.535394	0.038530
C48	C	0.499929	-0.035394	0.538530
C49	C	-0.000055	-0.568815	0.115039
C50	C	0.499945	-0.068815	0.615039
C51	C	-0.000062	-0.395376	0.111990
C52	C	0.499938	0.104624	0.611990
C53	C	-0.000071	-0.301350	0.110337
C54	C	0.499929	0.198650	0.610337
C55	C	-0.000048	-0.662847	0.116693
C56	C	0.499952	-0.162847	0.616693
C57	C	-0.000066	-1.058599	-0.353059
C58	C	0.499934	-0.558599	0.146941
C59	C	-0.000055	-1.057075	-0.439779
C60	C	0.499945	-0.557075	0.060221
C61	C	-0.000048	-0.905586	-0.419905
C62	C	0.499952	-0.405586	0.080095
C63	C	-0.000049	-0.907111	-0.333186
C64	C	0.499951	-0.407111	0.166814
C65	C	-0.000064	-0.983620	-0.299766
C66	C	0.499936	-0.483620	0.200234
C67	C	-0.000053	-0.980571	-0.473205
C68	C	0.499947	-0.480571	0.026795
C69	C	-0.000042	-0.978918	-0.567231
C70	C	0.499958	-0.478918	-0.067231
C71	C	-0.000073	-0.985273	-0.205734
C72	C	0.499927	-0.485273	0.294266
C73	C	-0.000048	-0.975984	0.265521
C74	C	0.499952	-0.475984	0.765521
C75	C	-0.000038	-0.977600	0.357816
C76	C	0.499962	-0.477600	0.857816
H77	H	-0.000047	-0.542730	0.252317
H78	H	0.499953	-0.042730	0.752317
Cl79	Cl	-0.000055	-1.151339	-0.506773
Cl80	Cl	0.499945	-0.651339	-0.006773
Cl81	Cl	-0.000055	-0.361807	0.282758
Cl82	Cl	0.499945	0.138193	0.782758
Cl83	Cl	-0.000029	-0.809409	-0.461926
Cl84	Cl	0.499971	-0.309409	0.038074
Cl85	Cl	-0.000037	-0.812844	-0.266184
Cl86	Cl	0.499963	-0.312844	0.233816
H87	H	-0.000090	-0.421454	-0.025285
H88	H	0.499910	0.078546	0.474715
H89	H	-0.000075	-1.120897	-0.325851
H90	H	0.499925	-0.620897	0.174149
Cl91	Cl	-0.000086	-0.602397	-0.055737
Cl92	Cl	0.499914	-0.102397	0.444263
