data_functionalizedCrystal
_audit_creation_method	'MofGen! by Chris Wilmer'
_symmetry_space_group_name_H-M	'P1'
_symmetry_Int_Tables_number	1
_symmetry_cell_setting	triclinic
loop_
_symmetry_equiv_pos_as_xyz
  x,y,z
_cell_length_a	17.077404
_cell_length_b	19.120786
_cell_length_c	17.077396
_cell_angle_alpha	87.528765
_cell_angle_beta	89.980499
_cell_angle_gamma	92.465349
loop_
_atom_site_label
_atom_site_type_symbol
_atom_site_fract_x
_atom_site_fract_y
_atom_site_fract_z
Zn1	Zn	1.186709	-0.279626	-0.430494
Zn2	Zn	1.520042	0.053707	-0.097161
Zn3	Zn	1.853375	0.387040	0.236173
Zn4	Zn	1.181010	-0.397090	-0.293620
Zn5	Zn	1.514343	-0.063757	0.039713
Zn6	Zn	1.847676	0.269576	0.373046
Zn7	Zn	1.055439	-0.279651	-0.299241
Zn8	Zn	1.388773	0.053682	0.034093
Zn9	Zn	1.722106	0.387016	0.367426
Zn10	Zn	1.049804	-0.397049	-0.424846
Zn11	Zn	1.383138	-0.063715	-0.091513
Zn12	Zn	1.716471	0.269618	0.241821
O13	O	1.118240	-0.338354	-0.362050
O14	O	1.451574	-0.005021	-0.028717
O15	O	1.784907	0.328313	0.304616
O16	O	1.295799	-0.295215	-0.412349
O17	O	1.629133	0.038118	-0.079016
O18	O	1.962466	0.371451	0.254318
O19	O	1.164326	-0.381539	-0.184518
O20	O	1.497659	-0.048206	0.148816
O21	O	1.830992	0.285127	0.482149
O22	O	1.077596	-0.181357	-0.321368
O23	O	1.410929	0.151976	0.011966
O24	O	1.744263	0.485309	0.345299
O25	O	1.291612	-0.381516	-0.311789
O26	O	1.624945	-0.048182	0.021545
O27	O	1.958279	0.285151	0.354878
O28	O	1.174039	-0.181339	-0.417799
O29	O	1.507372	0.151994	-0.084465
O30	O	1.840706	0.485328	0.248868
O31	O	1.072070	-0.295257	-0.188647
O32	O	1.405403	0.038076	0.144686
O33	O	1.738736	0.371409	0.478020
O34	O	0.944845	-0.295217	-0.315891
O35	O	1.278179	0.038116	0.017442
O36	O	1.611512	0.371450	0.350776
O37	O	1.067992	-0.381445	-0.535444
O38	O	1.401325	-0.048111	-0.202110
O39	O	1.734658	0.285222	0.131223
O40	O	0.940705	-0.381468	-0.408173
O41	O	1.274039	-0.048135	-0.074839
O42	O	1.607372	0.285198	0.258494
O43	O	1.168575	-0.295175	-0.539593
O44	O	1.501908	0.038158	-0.206260
O45	O	1.835242	0.371492	0.127074
O46	O	1.158861	-0.495375	-0.306312
O47	O	1.492195	-0.162042	0.027021
O48	O	1.825528	0.171291	0.360355
O49	O	1.062465	-0.495345	-0.402723
O50	O	1.395799	-0.162011	-0.069390
O51	O	1.729132	0.171322	0.263944
C52	C	0.914293	-0.338341	-0.362029
C53	C	1.247627	-0.005008	-0.028696
C54	C	1.580960	0.328325	0.304637
C55	C	0.827043	-0.338353	-0.362038
C56	C	1.160376	-0.005019	-0.028705
C57	C	1.493710	0.328314	0.304629
C58	C	1.109455	-0.520845	-0.353312
C59	C	1.442788	-0.187512	-0.019979
C60	C	1.776121	0.145821	0.313355
C61	C	1.105768	-0.598916	-0.349600
C62	C	1.439101	-0.265583	-0.016266
C63	C	1.772435	0.067751	0.317067
C64	C	0.783914	-0.383332	-0.410005
C65	C	1.117248	-0.049998	-0.076672
C66	C	1.450581	0.283335	0.256661
C67	C	0.701934	-0.383333	-0.410018
C68	C	1.035267	-0.050000	-0.076685
C69	C	1.368600	0.283333	0.256649
C70	C	0.663083	-0.338359	-0.362058
C71	C	0.996417	-0.005026	-0.028725
C72	C	1.329750	0.328308	0.304608
C73	C	0.706218	-0.293375	-0.314089
C74	C	1.039551	0.039958	0.019244
C75	C	1.372884	0.373292	0.352578
C76	C	0.788197	-0.293370	-0.314081
C77	C	1.121530	0.039963	0.019252
C78	C	1.454864	0.373296	0.352585
C79	C	0.535347	-0.293389	-0.314107
C80	C	0.868680	0.039945	0.019226
C81	C	1.202014	0.373278	0.352559
C82	C	0.453362	-0.293394	-0.314114
C83	C	0.786696	0.039939	0.019220
C84	C	1.120029	0.373273	0.352553
C85	C	0.449084	-0.383352	-0.410044
C86	C	0.782417	-0.050018	-0.076711
C87	C	1.115751	0.283315	0.256623
C88	C	0.531063	-0.383347	-0.410036
C89	C	0.864396	-0.050014	-0.076703
C90	C	1.197730	0.283320	0.256631
C91	C	0.574192	-0.338364	-0.362066
C92	C	0.907525	-0.005031	-0.028732
C93	C	1.240859	0.328303	0.304601
C94	C	1.154211	-0.635524	-0.398103
C95	C	1.487545	-0.302191	-0.064770
C96	C	1.820878	0.031143	0.268563
C97	C	1.150744	-0.708880	-0.394617
C98	C	1.484077	-0.375546	-0.061283
C99	C	1.817411	-0.042213	0.272050
C100	C	1.098837	-0.745626	-0.342622
C101	C	1.432170	-0.412293	-0.009289
C102	C	1.765504	-0.078959	0.324044
C103	C	1.050388	-0.709013	-0.294117
C104	C	1.383722	-0.375680	0.039216
C105	C	1.717055	-0.042346	0.372550
C106	C	1.053852	-0.635659	-0.297608
C107	C	1.387186	-0.302325	0.035725
C108	C	1.720519	0.031008	0.369059
C109	C	1.085865	-0.967112	-0.329571
C110	C	1.419198	-0.633779	0.003762
C111	C	1.752531	-0.300445	0.337095
C112	C	1.082406	-1.040471	-0.326082
C113	C	1.415740	-0.707138	0.007251
C114	C	1.749073	-0.373805	0.340584
C115	C	1.182761	-1.040333	-0.426584
C116	C	1.516095	-0.707000	-0.093250
C117	C	1.849428	-0.373666	0.240083
C118	C	1.186224	-0.966977	-0.430067
C119	C	1.519557	-0.633644	-0.096733
C120	C	1.852890	-0.300311	0.236600
C121	C	1.137772	-0.930371	-0.381564
C122	C	1.471106	-0.597037	-0.048231
C123	C	1.804439	-0.263704	0.285102
C124	C	1.095293	-0.820607	-0.339055
C125	C	1.428627	-0.487274	-0.005722
C126	C	1.761960	-0.153941	0.327611
C127	C	1.141313	-0.855391	-0.385136
C128	C	1.474646	-0.522057	-0.051802
C129	C	1.807979	-0.188724	0.281531
C130	C	1.322984	-0.338367	-0.362072
C131	C	1.656317	-0.005034	-0.028739
C132	C	1.989651	0.328299	0.304595
C133	C	1.410234	-0.338373	-0.362081
C134	C	1.743567	-0.005040	-0.028748
C135	C	2.076900	0.328294	0.304586
C136	C	1.118290	-0.338302	-0.566797
C137	C	1.451624	-0.004969	-0.233464
C138	C	1.784957	0.328364	0.099870
C139	C	1.118312	-0.338280	-0.654048
C140	C	1.451645	-0.004947	-0.320715
C141	C	1.784978	0.328386	0.012619
C142	C	1.127082	-0.155150	-0.370840
C143	C	1.460415	0.178183	-0.037507
C144	C	1.793748	0.511517	0.295827
C145	C	1.130849	-0.077079	-0.374586
C146	C	1.464183	0.256254	-0.041252
C147	C	1.797516	0.589587	0.292081
C148	C	1.170687	-0.293356	-0.697200
C149	C	1.504021	0.039977	-0.363867
C150	C	1.837354	0.373311	-0.030534
C151	C	1.170698	-0.293333	-0.779182
C152	C	1.504031	0.040001	-0.445849
C153	C	1.837365	0.373334	-0.112515
C154	C	1.118336	-0.338238	-0.818010
C155	C	1.451669	-0.004904	-0.484676
C156	C	1.785003	0.328429	-0.151343
C157	C	1.065955	-0.383164	-0.774852
C158	C	1.399288	-0.049831	-0.441518
C159	C	1.732621	0.283503	-0.108185
C160	C	1.065941	-0.383183	-0.692872
C161	C	1.399274	-0.049850	-0.359538
C162	C	1.732608	0.283483	-0.026205
C163	C	1.065988	-0.383122	-0.945724
C164	C	1.399322	-0.049788	-0.612390
C165	C	1.732655	0.283545	-0.279057
C166	C	1.066003	-0.383103	-1.027709
C167	C	1.399336	-0.049770	-0.694376
C168	C	1.732670	0.283563	-0.361043
C169	C	1.170745	-0.293271	-1.032034
C170	C	1.504079	0.040062	-0.698701
C171	C	1.837412	0.373396	-0.365367
C172	C	1.170732	-0.293290	-0.950054
C173	C	1.504065	0.040043	-0.616721
C174	C	1.837398	0.373376	-0.283387
C175	C	1.118351	-0.338218	-0.906902
C176	C	1.451684	-0.004884	-0.573568
C177	C	1.785018	0.328449	-0.240235
C178	C	1.118238	-0.338355	-0.158102
C179	C	1.451572	-0.005022	0.175231
C180	C	1.784905	0.328312	0.508564
C181	C	1.118379	-0.338179	-0.070861
C182	C	1.451712	-0.004846	0.262472
C183	C	1.785045	0.328488	0.595805
H184	H	0.815540	-0.419958	-0.449057
H185	H	1.148874	-0.086624	-0.115724
H186	H	1.482207	0.246709	0.217610
Br187	Br	1.241760	-0.232415	-0.644513
Br188	Br	1.575093	0.100918	-0.311180
Br189	Br	1.908427	0.434251	0.022153
Br190	Br	1.211749	-0.805520	-0.455703
Br191	Br	1.545083	-0.472187	-0.122370
Br192	Br	1.878416	-0.138853	0.210963
H193	H	1.046415	-0.937313	-0.290077
H194	H	1.379748	-0.603979	0.043256
H195	H	1.713082	-0.270646	0.376589
H196	H	1.040133	-1.070388	-0.283742
H197	H	1.373467	-0.737055	0.049592
H198	H	1.706800	-0.403722	0.382925
H199	H	1.213349	-0.256752	-0.814313
H200	H	1.546683	0.076581	-0.480980
H201	H	1.880016	0.409914	-0.147646
H202	H	1.228491	-0.937060	-0.472405
H203	H	1.561824	-0.603727	-0.139071
H204	H	1.895157	-0.270393	0.194262
Br205	Br	0.979932	-0.758882	-0.223562
Br206	Br	1.313265	-0.425549	0.109771
Br207	Br	1.646598	-0.092216	0.443104
Br208	Br	0.988102	-0.585975	-0.231783
Br209	Br	1.321435	-0.252642	0.101551
Br210	Br	1.654769	0.080691	0.434884
H211	H	1.196483	-0.605610	-0.440439
H212	H	1.529816	-0.272277	-0.107106
H213	H	1.863150	0.061057	0.226228
Br214	Br	1.241801	-0.232353	-0.897359
Br215	Br	1.575135	0.100980	-0.564026
Br216	Br	1.908468	0.434313	-0.230692
H217	H	1.023364	-0.419668	-1.059320
H218	H	1.356697	-0.086334	-0.725987
H219	H	1.690030	0.246999	-0.392654
H220	H	0.570461	-0.256752	-0.275052
H221	H	0.903794	0.076581	0.058282
H222	H	1.237127	0.409914	0.391615
H223	H	0.666822	-0.419960	-0.449077
H224	H	1.000155	-0.086627	-0.115744
H225	H	1.333488	0.246706	0.217590
H226	H	1.023323	-0.419695	-0.910592
H227	H	1.356656	-0.086362	-0.577258
H228	H	1.689990	0.246971	-0.243925
Br229	Br	1.024843	-0.870483	-0.268500
Br230	Br	1.358176	-0.537150	0.064833
Br231	Br	1.691509	-0.203817	0.398166
Br232	Br	1.241836	-0.232301	-1.090597
Br233	Br	1.575170	0.101033	-0.757263
Br234	Br	1.908503	0.434366	-0.423930
H235	H	1.023318	-0.419724	-0.806472
H236	H	1.356651	-0.086390	-0.473138
H237	H	1.689985	0.246943	-0.139805
H238	H	1.023284	-0.419758	-0.657738
H239	H	1.356617	-0.086425	-0.324405
H240	H	1.689950	0.246909	0.008928
H241	H	0.421733	-0.256764	-0.275071
H242	H	0.755066	0.076570	0.058263
H243	H	1.088400	0.409903	0.391596
Br244	Br	0.390554	-0.444391	-0.475158
Br245	Br	0.723887	-0.111058	-0.141824
Br246	Br	1.057220	0.222275	0.191509
Br247	Br	0.653493	-0.232331	-0.249008
Br248	Br	0.986827	0.101003	0.084326
Br249	Br	1.320160	0.434336	0.417659
Br250	Br	0.583789	-0.444391	-0.475117
Br251	Br	0.917122	-0.111058	-0.141783
Br252	Br	1.250455	0.222275	0.191550
Br253	Br	0.846730	-0.232321	-0.248985
Br254	Br	1.180063	0.101012	0.084349
Br255	Br	1.513397	0.434345	0.417682
H256	H	1.190198	-0.738683	-0.434107
H257	H	1.523531	-0.405349	-0.100774
H258	H	1.856865	-0.072016	0.232559
Br259	Br	1.248511	-1.090017	-0.492406
Br260	Br	1.581844	-0.756684	-0.159073
Br261	Br	1.915178	-0.423350	0.174260
