data_functionalizedCrystal
_audit_creation_method	'MofGen! by Chris Wilmer'
_symmetry_space_group_name_H-M	'P1'
_symmetry_Int_Tables_number	1
_symmetry_cell_setting	triclinic
loop_
_symmetry_equiv_pos_as_xyz
  x,y,z
_cell_length_a	14.908520
_cell_length_b	12.827893
_cell_length_c	12.827885
_cell_angle_alpha	90.021379
_cell_angle_beta	93.263527
_cell_angle_gamma	86.681073
loop_
_atom_site_label
_atom_site_type_symbol
_atom_site_fract_x
_atom_site_fract_y
_atom_site_fract_z
Zn1	Zn	-0.359156	-1.573614	-0.614872
Zn2	Zn	-0.510040	-1.563401	-0.450202
Zn3	Zn	-0.359196	-1.398852	-0.440142
Zn4	Zn	-0.509968	-1.388739	-0.624891
O5	O	-0.434590	-1.481151	-0.532527
O6	O	-0.379185	-1.718494	-0.593045
O7	O	-0.490076	-1.541531	-0.302635
O8	O	-0.232946	-1.430541	-0.454917
O9	O	-0.490038	-1.710990	-0.472063
O10	O	-0.232918	-1.558938	-0.583290
O11	O	-0.379252	-1.420638	-0.295244
O12	O	-0.379182	-1.251275	-0.464633
O13	O	-0.489916	-1.413304	-0.769795
O14	O	-0.489954	-1.243845	-0.600367
O15	O	-0.379115	-1.549131	-0.762434
O16	O	-0.636274	-1.531724	-0.481778
O17	O	-0.636222	-1.403401	-0.610122
C18	C	-0.434565	-1.209643	-0.532496
C19	C	-0.434577	-1.093489	-0.532509
C20	C	-0.379819	-1.045411	-0.592479
C21	C	-0.379829	-0.925360	-0.592494
C22	C	-0.668982	-1.465385	-0.548152
C23	C	-0.769255	-1.458736	-0.554871
C24	C	-0.957674	-1.580003	-0.433961
C25	C	-1.051890	-1.573759	-0.440271
C26	C	-1.051905	-1.440011	-0.573805
C27	C	-0.957689	-1.446254	-0.567495
C28	C	-0.910577	-1.516252	-0.497570
C29	C	-0.816359	-1.522490	-0.491255
C30	C	-0.816376	-1.388747	-0.624794
C31	C	-0.910592	-1.382504	-0.631104
C32	C	-0.199283	-1.497007	-0.516864
C33	C	-0.099009	-1.503764	-0.510190
C34	C	-0.434503	-1.481229	-0.805091
C35	C	-0.434466	-1.481262	-0.921242
C36	C	-0.434608	-0.753720	-0.532549
C37	C	-0.434597	-0.869874	-0.532536
C38	C	-0.379616	-1.421461	-0.969369
C39	C	-0.379577	-1.421494	-1.089417
C40	C	-0.434611	-1.481138	-0.261018
C41	C	-0.434394	-1.481324	-0.144851
H42	H	-0.778001	-1.579482	-0.434315
H43	H	-1.090233	-1.625673	-0.388476
F44	F	-0.318527	-1.107773	-0.659572
F45	F	-0.907532	-1.654484	-0.359529
F46	F	-0.495814	-1.548210	-0.983548
H47	H	-0.332951	-0.883999	-0.643840
F48	F	-0.766245	-1.320884	-0.692485
F49	F	-0.495882	-0.923924	-0.465429
F50	F	-0.495860	-1.031127	-0.465408
H51	H	-1.090281	-1.383029	-0.630742
F52	F	-0.960742	-1.308015	-0.705524
H53	H	-0.332690	-1.370235	-0.921698
H54	H	-0.332614	-1.370302	-1.130819
H55	H	-0.481352	-1.532529	-1.103456
