data_functionalizedCrystal
_audit_creation_method	'MofGen! by Chris Wilmer'
_symmetry_space_group_name_H-M	'P1'
_symmetry_Int_Tables_number	1
_symmetry_cell_setting	triclinic
loop_
_symmetry_equiv_pos_as_xyz
  x,y,z
_cell_length_a	13.897449
_cell_length_b	18.050582
_cell_length_c	13.897448
_cell_angle_alpha	89.979070
_cell_angle_beta	90.018972
_cell_angle_gamma	89.986245
loop_
_atom_site_label
_atom_site_type_symbol
_atom_site_fract_x
_atom_site_fract_y
_atom_site_fract_z
Zn1	Zn	1.474636	-0.419898	-0.384043
Zn2	Zn	1.974636	0.080102	0.115957
Zn3	Zn	1.474550	-0.295711	-0.545338
Zn4	Zn	1.974550	0.204289	-0.045338
Zn5	Zn	1.313345	-0.295725	-0.384062
Zn6	Zn	1.813345	0.204275	0.115938
Zn7	Zn	1.313307	-0.419863	-0.545302
Zn8	Zn	1.813307	0.080137	-0.045302
O9	O	1.393959	-0.357799	-0.464686
O10	O	1.893959	0.142201	0.035314
O11	O	1.609606	-0.403434	-0.405447
O12	O	2.109606	0.096566	0.094553
O13	O	1.453145	-0.191789	-0.523967
O14	O	1.953145	0.308211	-0.023967
O15	O	1.334793	-0.312217	-0.249078
O16	O	1.834793	0.187783	0.250922
O17	O	1.609543	-0.312194	-0.523949
O18	O	2.109543	0.187806	-0.023949
O19	O	1.453293	-0.403446	-0.249064
O20	O	1.953293	0.096554	0.250936
O21	O	1.334709	-0.191798	-0.405478
O22	O	1.834709	0.308202	0.094522
O23	O	1.178358	-0.312182	-0.405443
O24	O	1.678358	0.187818	0.094557
O25	O	1.334728	-0.523792	-0.523887
O26	O	1.834728	-0.023792	-0.023887
O27	O	1.178330	-0.403386	-0.523905
O28	O	1.678330	0.096614	-0.023905
O29	O	1.453256	-0.523818	-0.405412
O30	O	1.953256	-0.023818	0.094588
O31	O	1.453109	-0.312160	-0.680315
O32	O	1.953109	0.187840	-0.180315
O33	O	1.334644	-0.403373	-0.680288
O34	O	1.834644	0.096627	-0.180288
C35	C	1.143345	-0.357782	-0.464673
C36	C	1.643345	0.142218	0.035327
C37	C	1.036131	-0.357793	-0.464691
C38	C	1.536131	0.142207	0.035309
C39	C	0.839836	-0.357812	-0.464694
C40	C	1.339836	0.142188	0.035306
C41	C	0.949069	-0.357799	-0.464690
C42	C	1.449069	0.142201	0.035310
C43	C	1.393997	-0.551505	-0.464643
C44	C	1.893997	-0.051505	0.035357
C45	C	1.394013	-0.634051	-0.464625
C46	C	1.894013	-0.134051	0.035375
C47	C	1.329607	-0.833487	-0.528964
C48	C	1.829607	-0.333487	-0.028964
C49	C	1.417615	-0.882878	-0.552541
C50	C	1.917615	-0.382878	-0.052541
C51	C	1.394061	-0.785181	-0.464552
C52	C	1.894061	-0.285181	0.035448
C53	C	1.306102	-0.882872	-0.440948
C54	C	1.806102	-0.382872	0.059052
C55	C	1.394099	-0.931166	-0.464482
C56	C	1.894099	-0.431166	0.035518
C57	C	1.482115	-0.833484	-0.488174
C58	C	1.982115	-0.333484	0.011826
C59	C	1.370542	-0.833475	-0.376541
C60	C	1.870542	-0.333475	0.123459
C61	C	1.458611	-0.882843	-0.400084
C62	C	1.958611	-0.382843	0.099916
C63	C	1.394038	-0.701083	-0.464594
C64	C	1.894038	-0.201083	0.035406
C65	C	1.394132	-1.015263	-0.464440
C66	C	1.894132	-0.515263	0.035560
C67	C	1.645552	-0.357817	-0.464700
C68	C	2.145552	0.142183	0.035300
C69	C	1.752766	-0.357824	-0.464706
C70	C	2.252766	0.142176	0.035294
C71	C	1.393889	-0.357778	-0.715301
C72	C	1.893889	0.142222	-0.215301
C73	C	1.393947	-0.357793	-0.822514
C74	C	1.893947	0.142207	-0.322514
C75	C	1.393977	-0.164847	-0.464659
C76	C	1.893977	0.335153	0.035341
C77	C	1.394148	-0.082302	-0.464406
C78	C	1.894148	0.417698	0.035594
C79	C	1.394048	-0.357840	-1.018809
C80	C	1.894048	0.142160	-0.518809
C81	C	1.393989	-0.357816	-0.909577
C82	C	1.893989	0.142184	-0.409577
C83	C	1.394056	-0.357837	-0.213093
C84	C	1.894056	0.142163	0.286907
C85	C	1.394098	-0.357853	-0.105879
C86	C	1.894098	0.142147	0.394121
H87	H	1.275152	-0.811817	-0.583507
H88	H	1.775152	-0.311817	-0.083507
O89	O	1.346586	-0.807592	-0.287840
O90	O	1.846586	-0.307592	0.212160
C91	C	1.226754	-0.803382	-0.162683
C92	C	1.726754	-0.303382	0.337317
C93	C	1.253767	-0.832731	-0.263153
C94	C	1.753767	-0.332731	0.236847
H95	H	1.151717	-0.823708	-0.142684
H96	H	1.651717	-0.323708	0.357316
H97	H	1.227598	-0.740230	-0.163382
H98	H	1.727598	-0.240230	0.336618
H99	H	1.280990	-0.824524	-0.107572
H100	H	1.780990	-0.324524	0.392428
H101	H	1.199558	-0.811644	-0.318320
H102	H	1.699558	-0.311644	0.181680
H103	H	1.252953	-0.895883	-0.262374
H104	H	1.752953	-0.395883	0.237626
O105	O	1.441216	-0.908738	-0.641354
O106	O	1.941216	-0.408738	-0.141354
C107	C	1.399998	-0.912893	-0.809698
C108	C	1.899998	-0.412893	-0.309698
C109	C	1.373155	-0.883576	-0.709167
C110	C	1.873155	-0.383576	-0.209167
H111	H	1.344996	-0.892549	-0.864556
H112	H	1.844996	-0.392549	-0.364556
H113	H	1.400429	-0.976046	-0.808691
H114	H	1.900429	-0.476046	-0.308691
H115	H	1.474492	-0.891746	-0.830280
H116	H	1.974492	-0.391746	-0.330280
H117	H	1.298655	-0.904669	-0.688523
H118	H	1.798655	-0.404669	-0.188523
H119	H	1.372789	-0.820424	-0.710228
H120	H	1.872789	-0.320424	-0.210228
O121	O	1.570909	-0.807808	-0.512200
O122	O	2.070909	-0.307808	-0.012200
C123	C	1.696320	-0.804364	-0.631810
C124	C	2.196320	-0.304364	-0.131810
C125	C	1.595767	-0.833507	-0.604709
C126	C	2.095767	-0.333507	-0.104709
H127	H	1.716439	-0.825117	-0.706612
H128	H	2.216439	-0.325117	-0.206612
H129	H	1.751375	-0.825137	-0.577275
H130	H	2.251375	-0.325137	-0.077275
H131	H	1.695556	-0.741210	-0.631624
H132	H	2.195556	-0.241210	-0.131624
H133	H	1.596436	-0.896659	-0.604904
H134	H	2.096436	-0.396659	-0.104904
H135	H	1.540755	-0.812677	-0.659250
H136	H	2.040755	-0.312677	-0.159250
H137	H	1.513196	-0.904377	-0.345582
H138	H	2.013196	-0.404377	0.154418
O139	O	1.217317	-0.908792	-0.417326
O140	O	1.717317	-0.408792	0.082674
C141	C	1.081010	-0.982225	-0.466133
C142	C	1.581010	-0.482225	0.033867
C143	C	1.181541	-0.952910	-0.493005
C144	C	1.681541	-0.452910	0.006995
H145	H	1.052063	-1.017913	-0.527296
H146	H	1.552063	-0.517913	-0.027296
H147	H	1.030284	-0.933567	-0.453378
H148	H	1.530284	-0.433567	0.046622
H149	H	1.086290	-1.016938	-0.397789
H150	H	1.586290	-0.516938	0.102211
H151	H	1.176353	-0.918208	-0.561362
H152	H	1.676353	-0.418208	-0.061362
H153	H	1.232227	-1.001601	-0.505698
H154	H	1.732227	-0.501601	-0.005698
