data_functionalizedCrystal
_audit_creation_method	'MofGen! by Chris Wilmer'
_symmetry_space_group_name_H-M	'P1'
_symmetry_Int_Tables_number	1
_symmetry_cell_setting	triclinic
loop_
_symmetry_equiv_pos_as_xyz
  x,y,z
_cell_length_a	20.919287
_cell_length_b	23.196402
_cell_length_c	23.196402
_cell_angle_alpha	60.002465
_cell_angle_beta	86.845864
_cell_angle_gamma	58.213730
loop_
_atom_site_label
_atom_site_type_symbol
_atom_site_fract_x
_atom_site_fract_y
_atom_site_fract_z
Zr1	Zr	0.616769	0.631000	-0.106246
O2	O	0.514545	0.751265	-0.193217
O3	O	0.648104	0.510735	-0.079589
O4	O	0.648104	0.631000	-0.199853
O5	O	0.514547	0.631000	0.021918
O6	O	0.753461	0.631001	-0.205083
O7	O	0.514544	0.631000	-0.072953
O8	O	0.753461	0.415868	0.010048
O9	O	0.514548	0.846132	-0.193213
O10	O	0.740098	0.560202	-0.072119
O11	O	0.661473	0.560202	0.002586
O12	O	0.661473	0.701799	-0.139010
O13	O	0.582849	0.701798	-0.064306
Zr14	Zr	0.784806	0.631001	0.036719
Zr15	Zr	0.784801	0.631001	-0.114588
Zr16	Zr	0.616773	0.631000	0.045061
Zr17	Zr	0.616774	0.782303	-0.106240
Zr18	Zr	0.784801	0.479698	0.036713
O19	O	0.753471	0.751266	0.010062
O20	O	0.753465	0.751266	-0.205078
O21	O	0.514551	0.751265	0.021923
O22	O	0.887030	0.510736	0.123690
O23	O	0.887024	0.510736	-0.091450
O24	O	0.648110	0.510735	0.135551
O25	O	0.887028	0.631001	-0.091445
O26	O	0.753471	0.631000	0.130326
O27	O	0.648114	0.631000	0.135556
O28	O	0.887030	0.631001	0.003426
O29	O	0.648111	0.846133	-0.199844
O30	O	0.753464	0.415868	0.130317
O31	O	0.887027	0.415868	0.123686
O32	O	0.887024	0.415868	0.003417
O33	O	0.514551	0.846132	-0.072944
O34	O	0.648114	0.846133	-0.079575
O35	O	0.740102	0.560202	0.069483
O36	O	0.818726	0.560202	-0.005221
O37	O	0.740102	0.701799	-0.072113
O38	O	0.661477	0.701799	0.002592
C39	C	0.700782	0.441744	-0.034771
C40	C	0.700780	0.377512	-0.034774
C41	C	0.741816	0.347342	-0.073771
C42	C	0.741823	0.286981	-0.073766
C43	C	0.700780	0.256804	-0.034772
C44	C	0.659742	0.286978	0.004233
C45	C	0.659742	0.347332	0.004232
C46	C	0.632032	0.194775	-0.036634
C47	C	0.632030	0.134425	-0.036638
C48	C	0.700781	0.070649	-0.034765
C49	C	0.769533	0.067238	-0.032903
C50	C	0.769533	0.127592	-0.032904
C51	C	0.700775	0.191360	-0.034766
C52	C	0.741828	-0.024972	-0.073758
C53	C	0.741838	-0.085338	-0.073748
C54	C	0.659749	-0.085334	0.004247
C55	C	0.659747	-0.024975	0.004241
C56	C	0.700785	0.005205	-0.034766
C57	C	0.490605	0.631000	-0.024329
C58	C	0.419271	0.630999	-0.020788
C59	C	0.385756	0.631002	-0.071390
C60	C	0.318732	0.630997	-0.068059
C61	C	0.285222	0.630996	-0.014128
C62	C	0.318742	0.630992	0.036479
C63	C	0.385768	0.630990	0.033151
C64	C	0.082850	0.630995	-0.001460
C65	C	0.015819	0.630999	0.001863
C66	C	0.015814	0.631003	-0.102675
C67	C	0.082839	0.631007	-0.106001
C68	C	0.116356	0.630998	-0.055392
C69	C	0.216711	0.630994	-0.010723
C70	C	0.184868	0.630994	-0.058794
C71	C	0.910970	0.631001	-0.045198
C72	C	0.982304	0.631001	-0.048739
C73	C	0.700782	0.631001	-0.224026
C74	C	0.700780	0.631001	-0.288260
C75	C	0.700793	0.820257	-0.034756
C76	C	0.700795	0.884488	-0.034753
C77	C	0.642747	0.631010	-0.748220
C78	C	0.642747	0.631004	-0.687862
C79	C	0.700788	0.631005	-0.660562
C80	C	0.758846	0.630991	-0.693614
C81	C	0.758849	0.630988	-0.753967
C82	C	0.718877	0.678511	-0.589592
C83	C	0.718869	0.678518	-0.529243
C84	C	0.700783	0.631009	-0.474413
C85	C	0.682690	0.583503	-0.479944
C86	C	0.682693	0.583501	-0.540296
C87	C	0.700792	0.631007	-0.595119
C88	C	0.642732	0.631011	-0.375918
C89	C	0.642737	0.631001	-0.315557
C90	C	0.758834	0.630996	-0.321315
C91	C	0.758832	0.630998	-0.381670
C92	C	0.700777	0.631010	-0.408970
C93	C	0.700793	0.631000	0.154499
C94	C	0.700794	0.631000	0.218733
C95	C	0.910964	0.441745	-0.045206
C96	C	0.982296	0.377513	-0.048750
C97	C	0.700787	0.441744	0.154491
C98	C	0.700787	0.377512	0.218723
C99	C	0.910970	0.441745	0.144057
C100	C	0.982303	0.377513	0.204747
C101	C	0.490605	0.820256	-0.213584
C102	C	0.419271	0.884488	-0.274274
C103	C	0.490611	0.820256	-0.024321
C104	C	0.419278	0.884487	-0.020777
C105	C	0.700788	0.820257	-0.224018
C106	C	0.700788	0.884489	-0.288250
C107	C	0.974751	0.347349	-0.085340
C108	C	1.041769	0.287005	-0.088684
C109	C	1.116331	0.256822	-0.055433
C110	C	1.123874	0.286992	-0.018841
C111	C	1.056858	0.347339	-0.015502
C112	C	0.741830	0.347348	0.283813
C113	C	0.741827	0.287004	0.344171
C114	C	0.700785	0.256821	0.339437
C115	C	0.659736	0.286990	0.274341
C116	C	0.659735	0.347338	0.213984
C117	C	1.056851	0.347349	0.194252
C118	C	1.123883	0.287005	0.251271
C119	C	1.116366	0.256822	0.318784
C120	C	1.041811	0.286992	0.329277
C121	C	0.974780	0.347339	0.272259
C122	C	0.344724	0.914659	-0.263779
C123	C	0.277692	0.975021	-0.320798
C124	C	0.285209	1.005208	-0.388310
C125	C	0.359764	0.975034	-0.398804
C126	C	0.426795	0.914677	-0.341786
C127	C	0.426824	0.914658	0.015807
C128	C	0.359806	0.975018	0.019134
C129	C	0.285244	1.005204	-0.014119
C130	C	0.277700	0.975031	-0.050708
C131	C	0.344717	0.914675	-0.054039
C132	C	0.741838	0.914653	-0.283494
C133	C	0.741854	0.974998	-0.343841
C134	C	0.700814	1.005181	-0.408943
C135	C	0.659762	0.975011	-0.413697
C136	C	0.659752	0.914663	-0.353351
H137	H	0.775233	0.371911	-0.105530
O138	O	1.204280	0.254501	0.239924
H139	H	1.236767	0.266114	0.264017
O140	O	1.188613	0.191731	-0.059034
H141	H	1.188561	0.136742	-0.035906
O142	O	0.786116	0.254457	0.414376
H143	H	0.814668	0.285573	0.407521
H144	H	0.216992	0.999578	-0.312240
O145	O	0.507197	0.882160	-0.353115
H146	H	0.552552	0.835129	-0.302130
O147	O	0.663180	0.532258	-0.420812
H148	H	0.705906	0.467140	-0.401966
H149	H	1.170953	0.207683	0.365205
O150	O	0.894380	0.379852	0.283592
H151	H	0.861865	0.446426	0.259492
H152	H	1.035702	0.262407	0.384253
H153	H	0.775247	-0.000401	-0.105517
H154	H	0.806097	0.630996	-0.408582
O155	O	0.212909	1.070317	-0.449807
H156	H	0.159811	1.086219	-0.431160
O157	O	0.336607	0.882111	-0.190965
H158	H	0.273503	0.913247	-0.193258
O159	O	0.212963	1.070279	-0.010501
H160	H	0.230744	1.086169	0.020539
H161	H	0.487530	0.890085	0.042891
H162	H	0.700829	1.054320	-0.458076
H163	H	0.365875	0.999620	-0.453779
H164	H	1.062986	0.371916	0.139285
H165	H	0.595463	0.631017	-0.398145
O166	O	0.367950	1.007545	0.058609
H167	H	0.431058	0.976399	0.081183
H168	H	0.216983	0.999617	-0.077781
H169	H	0.700792	0.207682	0.388589
O170	O	0.615467	0.254440	0.046288
H171	H	0.622352	0.207410	0.039731
H172	H	0.338563	0.890112	-0.083827
H173	H	0.775258	0.890087	-0.230490
H174	H	0.775282	0.999556	-0.339957
O175	O	0.615473	0.882134	-0.358491
H176	H	0.622360	0.835093	-0.305596
O177	O	1.033617	0.254471	-0.128148
H178	H	1.062167	0.266068	-0.170429
O179	O	0.738375	0.729763	-0.648734
H180	H	0.798448	0.710218	-0.630357
O181	O	0.615490	1.007577	-0.483916
H182	H	0.622390	1.054615	-0.525073
H183	H	0.775241	0.262412	-0.105523
O184	O	1.204296	0.254434	0.017025
H185	H	1.236783	0.187859	0.056254
H186	H	-0.011481	0.631009	-0.143879
H187	H	0.825513	0.124809	-0.031385
O188	O	0.843692	-0.001538	-0.030889
H189	H	0.890185	-0.035990	0.017029
H190	H	0.626321	0.262406	0.270497
O191	O	1.064999	0.379860	0.023977
H192	H	1.128107	0.348721	0.046542
H193	H	0.775259	-0.109906	-0.105502
H194	H	0.626316	0.371889	0.160987
H195	H	0.775252	0.371917	0.287680
H196	H	0.595470	0.631003	-0.288647
O197	O	0.580135	0.631016	-0.777658
H198	H	0.589883	0.631019	-0.825181
H199	H	0.110134	0.630990	0.039747
H200	H	0.626331	-0.109903	0.035996
H201	H	0.576047	0.137211	-0.038158
O202	O	0.615484	0.007581	0.046296
H203	H	0.552401	0.035085	0.028070
O204	O	0.557878	0.263577	-0.038669
H205	H	0.538411	0.238190	0.007454
O206	O	0.615472	0.379886	0.046288
H207	H	0.586929	0.348767	0.073403
H208	H	0.733597	0.717203	-0.524747
H209	H	0.806106	0.630990	-0.671383
H210	H	0.413033	0.631007	-0.115309
H211	H	0.291446	0.630998	-0.109264
H212	H	0.806119	0.630981	-0.780875
O213	O	0.118983	0.631009	-0.164171
H214	H	0.084419	0.631005	-0.198797
H215	H	-0.011463	0.630999	0.045783
O216	O	0.282602	0.630992	0.094650
H217	H	0.230359	0.631003	0.088460
H218	H	0.667963	0.544818	-0.544795
O219	O	0.421923	0.630985	0.087730
H220	H	0.378381	0.686252	0.087323
O221	O	0.221010	0.631001	-0.116963
H222	H	0.238840	0.575736	-0.115285
O223	O	0.180566	0.630997	0.047444
H224	H	0.119344	0.686266	0.025350
H225	H	0.595476	0.631012	-0.660950
H226	H	0.914045	0.371924	-0.112427
H227	H	0.806095	0.630992	-0.299085
