data_functionalizedCrystal
_audit_creation_method	'MofGen! by Chris Wilmer'
_symmetry_space_group_name_H-M	'P1'
_symmetry_Int_Tables_number	1
_symmetry_cell_setting	triclinic
loop_
_symmetry_equiv_pos_as_xyz
  x,y,z
_cell_length_a	16.959455
_cell_length_b	16.959454
_cell_length_c	16.959447
_cell_angle_alpha	89.974219
_cell_angle_beta	90.014701
_cell_angle_gamma	89.977637
loop_
_atom_site_label
_atom_site_type_symbol
_atom_site_fract_x
_atom_site_fract_y
_atom_site_fract_z
Zn1	Zn	1.208368	0.314678	0.446942
Zn2	Zn	1.208284	0.446870	0.314774
Zn3	Zn	1.076197	0.314709	0.314778
Zn4	Zn	1.076155	0.446817	0.446911
O5	O	1.142251	0.380769	0.380851
O6	O	1.318968	0.332223	0.429420
O7	O	1.190745	0.429374	0.204163
O8	O	1.093782	0.204094	0.332325
O9	O	1.318906	0.429344	0.332317
O10	O	1.190888	0.204071	0.429425
O11	O	1.093701	0.332275	0.204167
O12	O	0.965580	0.332223	0.332295
O13	O	1.093711	0.429253	0.557526
O14	O	0.965549	0.429283	0.429373
O15	O	1.190847	0.332171	0.557549
O16	O	1.190704	0.557474	0.332287
O17	O	1.093629	0.557435	0.429368
C18	C	0.936885	0.380751	0.380832
C19	C	0.849028	0.380763	0.380842
C20	C	0.807720	0.431258	0.330213
C21	C	0.807782	0.330275	0.431477
C22	C	0.725237	0.330281	0.431487
C23	C	0.683929	0.380775	0.380858
C24	C	0.725166	0.431264	0.330219
C25	C	0.683992	0.279788	0.482119
C26	C	0.601442	0.279792	0.482130
C27	C	0.560132	0.330291	0.431504
C28	C	0.601375	0.380782	0.380864
C29	C	0.560067	0.431276	0.330235
C30	C	0.601308	0.481772	0.279598
C31	C	0.683857	0.481763	0.279593
C32	C	0.477584	0.330299	0.431509
C33	C	0.477513	0.431282	0.330241
C34	C	1.142174	0.586135	0.380841
C35	C	1.142214	0.673991	0.380863
C36	C	1.091744	1.045476	0.431407
C37	C	1.192911	1.045457	0.330398
C38	C	1.192888	0.962911	0.330389
C39	C	1.142291	0.921644	0.380889
C40	C	1.091717	0.962923	0.431398
C41	C	1.243455	0.921627	0.279876
C42	C	1.243433	0.839076	0.279865
C43	C	1.192839	0.797807	0.330369
C44	C	1.142264	0.839091	0.380881
C45	C	1.091667	0.797824	0.431381
C46	C	1.041096	0.839106	0.481897
C47	C	1.041124	0.921654	0.481903
C48	C	1.192811	0.715259	0.330363
C49	C	1.091640	0.715270	0.431372
C50	C	1.348419	0.380786	0.380871
C51	C	1.436276	0.380794	0.380880
C52	C	1.142284	0.380703	0.587019
C53	C	1.142298	0.380675	0.674876
C54	C	1.142337	1.174600	0.380883
C55	C	1.142341	1.086744	0.380907
C56	C	1.142264	0.380777	0.175485
C57	C	1.142403	0.380582	0.087629
C58	C	1.091818	0.431138	1.046343
C59	C	1.192967	0.330046	1.046361
C60	C	1.192946	0.330062	0.963815
C61	C	1.142361	0.380619	0.922529
C62	C	1.091797	0.431158	0.963789
C63	C	1.243515	0.279530	0.922549
C64	C	1.243496	0.279545	0.839998
C65	C	1.192906	0.330098	0.798711
C66	C	1.142340	0.380639	0.839976
C67	C	1.091755	0.431195	0.798690
C68	C	1.041183	0.481732	0.839953
C69	C	1.041207	0.481711	0.922502
C70	C	1.192883	0.330119	0.716162
C71	C	1.091734	0.431215	0.716136
H72	H	0.567665	0.522881	0.238373
H73	H	0.444008	0.289181	0.472731
H74	H	1.050533	0.472377	0.682527
C75	C	0.985491	0.967071	0.537456
N76	N	0.943585	1.001282	0.579295
C77	C	1.299057	0.793673	0.224292
N78	N	1.340953	0.759475	0.182433
C79	C	1.248437	0.669852	0.274800
N80	N	1.290340	0.635653	0.232950
C81	C	0.985440	0.793701	0.537444
N82	N	0.943522	0.759499	0.579282
C83	C	1.299117	0.223945	0.794616
N84	N	1.341007	0.182063	0.760433
H85	H	1.050641	0.472282	1.079943
H86	H	1.234155	0.288890	1.079981
H87	H	1.050441	0.681675	0.472498
H88	H	1.000000	0.522898	0.806327
C89	C	1.299146	0.223914	0.967968
N90	N	1.341044	0.182016	1.002182
H91	H	1.050572	1.079092	0.472538
H92	H	1.234100	1.079062	0.289279
H93	H	1.284642	0.955232	0.238756
H94	H	1.000037	0.522858	0.956106
H95	H	0.443886	0.472405	0.289015
C96	C	0.729228	0.537293	0.223888
N97	N	0.763406	0.579114	0.181927
H98	H	1.234059	0.288975	0.682569
H99	H	0.841302	0.472372	0.288988
H100	H	0.717632	0.238675	0.523335
C101	C	0.556084	0.224252	0.537836
N102	N	0.521919	0.182421	0.579798
C103	C	0.853224	0.274729	0.487162
N104	N	0.887454	0.232891	0.529106
