data_functionalizedCrystal
_audit_creation_method	'MofGen! by Chris Wilmer'
_symmetry_space_group_name_H-M	'P1'
_symmetry_Int_Tables_number	1
_symmetry_cell_setting	triclinic
loop_
_symmetry_equiv_pos_as_xyz
  x,y,z
_cell_length_a	17.077404
_cell_length_b	16.120484
_cell_length_c	17.077396
_cell_angle_alpha	92.867798
_cell_angle_beta	89.982756
_cell_angle_gamma	92.925780
loop_
_atom_site_label
_atom_site_type_symbol
_atom_site_fract_x
_atom_site_fract_y
_atom_site_fract_z
Zn1	Zn	1.184177	-0.331895	-0.459673
Zn2	Zn	1.684177	0.168105	0.040327
Zn3	Zn	1.177426	-0.471321	-0.335057
Zn4	Zn	1.677426	0.028679	0.164943
Zn5	Zn	1.052912	-0.331927	-0.328422
Zn6	Zn	1.552912	0.168073	0.171578
Zn7	Zn	1.046216	-0.471270	-0.466278
Zn8	Zn	1.546216	0.028730	0.033722
O9	O	1.115183	-0.401603	-0.397357
O10	O	1.615183	0.098397	0.102643
O11	O	1.293128	-0.350399	-0.443154
O12	O	1.793128	0.149601	0.056846
O13	O	1.160886	-0.452865	-0.224331
O14	O	1.660886	0.047135	0.275669
O15	O	1.075952	-0.215257	-0.340292
O16	O	1.575952	0.284743	0.159708
O17	O	1.288168	-0.452835	-0.351600
O18	O	1.788168	0.047165	0.148400
O19	O	1.172392	-0.215234	-0.436721
O20	O	1.672392	0.284766	0.063279
O21	O	1.069406	-0.350452	-0.219457
O22	O	1.569406	0.149548	0.280543
O23	O	0.942177	-0.350402	-0.346697
O24	O	1.442177	0.149598	0.153303
O25	O	1.064539	-0.452747	-0.575247
O26	O	1.564539	0.047253	-0.075247
O27	O	0.937258	-0.452777	-0.447979
O28	O	1.437258	0.047223	0.052021
O29	O	1.165899	-0.350349	-0.570394
O30	O	1.665899	0.149651	-0.070394
O31	O	1.154393	-0.587980	-0.358004
O32	O	1.654393	-0.087980	0.141996
O33	O	1.057994	-0.587942	-0.454412
O34	O	1.557994	-0.087942	0.045588
C35	C	0.911235	-0.401588	-0.397335
C36	C	1.411235	0.098412	0.102665
C37	C	0.823985	-0.401602	-0.397345
C38	C	1.323985	0.098398	0.102655
C39	C	0.780450	-0.454989	-0.450006
C40	C	1.280450	0.045011	0.049994
C41	C	0.698469	-0.454991	-0.450018
C42	C	1.198469	0.045009	0.049982
C43	C	0.660025	-0.401609	-0.397366
C44	C	1.160025	0.098391	0.102634
C45	C	0.703566	-0.348216	-0.344702
C46	C	1.203566	0.151784	0.155298
C47	C	0.785546	-0.348211	-0.344694
C48	C	1.285546	0.151789	0.155306
C49	C	0.532696	-0.348233	-0.344722
C50	C	1.032696	0.151767	0.155278
C51	C	0.450711	-0.348239	-0.344729
C52	C	0.950711	0.151761	0.155271
C53	C	0.445619	-0.455012	-0.450046
C54	C	0.945619	0.044988	0.049954
C55	C	0.527599	-0.455007	-0.450038
C56	C	1.027599	0.044993	0.049962
C57	C	0.571134	-0.401615	-0.397373
C58	C	1.071134	0.098385	0.102627
C59	C	1.104756	-0.618211	-0.407662
C60	C	1.604756	-0.118211	0.092338
C61	C	1.100367	-0.710877	-0.412096
C62	C	1.600367	-0.210877	0.087904
C63	C	1.092358	-0.880539	-0.420209
C64	C	1.592358	-0.380539	0.079791
C65	C	1.138148	-0.921827	-0.374519
C66	C	1.638148	-0.421827	0.125481
C67	C	1.133692	-1.016233	-0.379032
C68	C	1.633692	-0.516233	0.120968
C69	C	1.096813	-0.786125	-0.415696
C70	C	1.596813	-0.286125	0.084304
C71	C	1.319926	-0.401619	-0.397380
C72	C	1.819926	0.098381	0.102620
C73	C	1.407176	-0.401626	-0.397390
C74	C	1.907176	0.098374	0.102610
C75	C	1.115225	-0.401539	-0.602099
C76	C	1.615225	0.098461	-0.102099
C77	C	1.115243	-0.401511	-0.689347
C78	C	1.615243	0.098489	-0.189347
C79	C	1.125672	-0.184149	-0.387030
C80	C	1.625672	0.315851	0.112970
C81	C	1.130142	-0.091483	-0.382629
C82	C	1.630142	0.408517	0.117371
C83	C	1.067625	-0.348179	-0.727798
C84	C	1.567625	0.151821	-0.227798
C85	C	1.067639	-0.348160	-0.809778
C86	C	1.567639	0.151840	-0.309778
C87	C	1.115275	-0.401470	-0.853305
C88	C	1.615275	0.098530	-0.353305
C89	C	1.162895	-0.454808	-0.814848
C90	C	1.662895	0.045192	-0.314848
C91	C	1.162877	-0.454831	-0.732870
C92	C	1.662877	0.045169	-0.232870
C93	C	1.162932	-0.454756	-0.985716
C94	C	1.662932	0.045244	-0.485716
C95	C	1.162951	-0.454733	-1.067699
C96	C	1.662951	0.045267	-0.567699
C97	C	1.067694	-0.348085	-1.062623
C98	C	1.567694	0.151915	-0.562623
C99	C	1.067675	-0.348108	-0.980646
C100	C	1.567675	0.151892	-0.480646
C101	C	1.115297	-0.401445	-0.942195
C102	C	1.615297	0.098555	-0.442195
C103	C	1.115188	-0.401607	-0.193410
C104	C	1.615188	0.098393	0.306590
C105	C	1.115333	-0.401400	-0.106150
C106	C	1.615333	0.098600	0.393850
H107	H	0.558897	-0.498480	-0.492908
H108	H	1.058897	0.001520	0.007092
H109	H	1.180695	-0.886274	-0.332011
H110	H	1.680695	-0.386274	0.167989
H111	H	1.201677	-0.498218	-0.850294
H112	H	1.701677	0.001782	-0.350294
O113	O	0.403424	-0.506838	-0.501314
O114	O	0.903424	-0.006838	-0.001314
C115	C	0.424349	-0.488717	-0.578716
C116	C	0.924349	0.011283	-0.078716
H117	H	0.485412	-0.456663	-0.578862
H118	H	0.985412	0.043337	-0.078862
H119	H	0.424275	-0.548937	-0.616678
H120	H	0.924275	-0.048937	-0.116678
H121	H	0.380280	-0.445898	-0.603196
H122	H	0.880280	0.054102	-0.103196
O123	O	0.827876	-0.296264	-0.293644
O124	O	1.327876	0.203736	0.206356
C125	C	0.877915	-0.242486	-0.335854
C126	C	1.377915	0.257514	0.164146
H127	H	0.853479	-0.237421	-0.397448
H128	H	1.353479	0.262579	0.102552
H129	H	0.881920	-0.178288	-0.304508
H130	H	1.381920	0.321712	0.195492
H131	H	0.938807	-0.268260	-0.339737
H132	H	1.438807	0.231740	0.160263
O133	O	0.817822	-0.506933	-0.501046
O134	O	1.317822	-0.006933	-0.001046
C135	C	0.862652	-0.560706	-0.458830
C136	C	1.362652	-0.060706	0.041170
H137	H	0.837680	-0.565778	-0.397241
H138	H	1.337680	-0.065778	0.102759
H139	H	0.860503	-0.624902	-0.490178
H140	H	1.360503	-0.124902	0.009822
H141	H	0.926022	-0.534922	-0.454934
H142	H	1.426022	-0.034922	0.045066
H143	H	1.028839	-0.304762	-0.692364
H144	H	1.528839	0.195238	-0.192364
O145	O	1.041701	-0.923037	-0.470955
O146	O	1.541701	-0.423037	0.029045
C147	C	1.084032	-0.973312	-0.524066
C148	C	1.584032	-0.473312	-0.024066
H149	H	1.142944	-0.986211	-0.497047
H150	H	1.642944	-0.486211	0.002953
H151	H	1.049217	-1.034614	-0.537419
H152	H	1.549217	-0.534614	-0.037419
H153	H	1.094163	-0.939767	-0.580678
H154	H	1.594163	-0.439767	-0.080678
O155	O	1.021332	-0.296399	-1.100006
O156	O	1.521332	0.203601	-0.600006
C157	C	0.968361	-0.343852	-1.149678
C158	C	1.468361	0.156148	-0.649678
H159	H	0.960351	-0.409521	-1.128088
H160	H	1.460351	0.090479	-0.628088
H161	H	0.909403	-0.313700	-1.149160
H162	H	1.409403	0.186300	-0.649160
H163	H	0.992495	-0.346706	-1.211951
H164	H	1.492495	0.153294	-0.711951
O165	O	1.209204	-0.506666	-0.695639
O166	O	1.709204	-0.006666	-0.195639
C167	C	1.251238	-0.553731	-0.751634
C168	C	1.751238	-0.053731	-0.251634
H169	H	1.255623	-0.519565	-0.808449
H170	H	1.755623	-0.019565	-0.308449
H171	H	1.312648	-0.562644	-0.728373
H172	H	1.812648	-0.062644	-0.228373
H173	H	1.219434	-0.617041	-0.763359
H174	H	1.719434	-0.117041	-0.263359
H175	H	1.028861	-0.304734	-0.841081
H176	H	1.528861	0.195266	-0.341081
O177	O	0.656087	-0.506894	-0.501061
O178	O	1.156087	-0.006894	-0.001061
C179	C	0.606074	-0.560690	-0.458843
C180	C	1.106074	-0.060690	0.041157
H181	H	0.595191	-0.531200	-0.398001
H182	H	1.095191	-0.031200	0.101999
H183	H	0.547898	-0.571909	-0.491336
H184	H	1.047898	-0.071909	0.008664
H185	H	0.634690	-0.622460	-0.453054
H186	H	1.134690	-0.122460	0.046946
O187	O	1.021332	-0.296294	-0.938482
O188	O	1.521332	0.203706	-0.438482
C189	C	0.979318	-0.249198	-0.989996
C190	C	1.479318	0.250802	-0.489996
H191	H	0.974961	-0.283326	-1.050054
H192	H	1.474961	0.216674	-0.550054
H193	H	0.917897	-0.240305	-0.965877
H194	H	1.417897	0.259695	-0.465877
H195	H	1.011122	-0.185880	-0.995711
H196	H	1.511122	0.314120	-0.495711
O197	O	0.413490	-0.296302	-0.293559
O198	O	0.913490	0.203698	0.206441
C199	C	0.469492	-0.249185	-0.247065
C200	C	0.969492	0.250815	0.252935
H201	H	0.528080	-0.246336	-0.279079
H202	H	1.028080	0.253664	0.220921
H203	H	0.448957	-0.183490	-0.235679
H204	H	0.948957	0.316510	0.264321
H205	H	0.476722	-0.279626	-0.188845
H206	H	0.976722	0.220374	0.311155
H207	H	0.568140	-0.304748	-0.301844
H208	H	1.068140	0.195252	0.198156
H209	H	0.672259	-0.304748	-0.301835
H210	H	1.172259	0.195252	0.198165
H211	H	1.201741	-0.498142	-1.103137
H212	H	1.701741	0.001858	-0.603137
H213	H	1.201717	-0.498182	-0.954411
H214	H	1.701717	0.001818	-0.454411
