data_functionalizedCrystal
_audit_creation_method	'MofGen! by Chris Wilmer'
_symmetry_space_group_name_H-M	'P1'
_symmetry_Int_Tables_number	1
_symmetry_cell_setting	triclinic
loop_
_symmetry_equiv_pos_as_xyz
  x,y,z
_cell_length_a	23.096457
_cell_length_b	23.096457
_cell_length_c	23.096457
_cell_angle_alpha	90.011518
_cell_angle_beta	60.008305
_cell_angle_gamma	59.998275
loop_
_atom_site_label
_atom_site_type_symbol
_atom_site_fract_x
_atom_site_fract_y
_atom_site_fract_z
Zr1	Zr	0.633762	0.557733	-0.075990
O2	O	0.754552	0.465260	-0.168435
O3	O	0.512972	0.586083	-0.047653
O4	O	0.633764	0.586052	-0.168441
O5	O	0.633758	0.465314	0.047636
O6	O	0.633766	0.681332	-0.168445
O7	O	0.633760	0.465292	-0.047646
O8	O	0.417691	0.681388	0.047624
O9	O	0.849833	0.465258	-0.168433
O10	O	0.562656	0.669278	-0.035568
O11	O	0.562653	0.598189	0.035543
O12	O	0.704870	0.598152	-0.106670
O13	O	0.704868	0.527062	-0.035560
Zr14	Zr	0.633762	0.709731	0.075968
Zr15	Zr	0.633764	0.709695	-0.075996
Zr16	Zr	0.633759	0.557769	0.075973
Zr17	Zr	0.785725	0.557730	-0.075988
Zr18	Zr	0.481799	0.709734	0.075965
O19	O	0.754552	0.681381	0.047630
O20	O	0.754556	0.681330	-0.168443
O21	O	0.754548	0.465312	0.047638
O22	O	0.512972	0.802204	0.168412
O23	O	0.512976	0.802152	-0.047661
O24	O	0.512968	0.586134	0.168420
O25	O	0.633766	0.802150	-0.047658
O26	O	0.633760	0.681412	0.168419
O27	O	0.633758	0.586132	0.168422
O28	O	0.633764	0.802172	0.047624
O29	O	0.849835	0.586047	-0.168437
O30	O	0.417689	0.681417	0.168415
O31	O	0.417691	0.802206	0.168410
O32	O	0.417693	0.802177	0.047619
O33	O	0.849831	0.465287	-0.047642
O34	O	0.849833	0.586076	-0.047646
O35	O	0.562653	0.669312	0.106648
O36	O	0.562656	0.740402	0.035537
O37	O	0.704870	0.669275	-0.035565
O38	O	0.704868	0.598186	0.035545
C39	C	0.443680	0.633736	-0.000015
C40	C	0.379168	0.633737	-0.000016
C41	C	-0.081349	0.670841	-0.037118
C42	C	-0.020729	0.670840	-0.037125
C43	C	0.009582	0.633733	-0.000006
C44	C	-0.020716	0.596610	0.037108
C45	C	-0.081329	0.596607	0.037107
N46	N	0.071975	0.638900	0.060400
N47	N	0.129554	0.638906	0.060399
C48	C	0.192208	0.633738	-0.000004
N49	N	0.195101	0.628577	-0.060404
N50	N	0.137514	0.628574	-0.060402
C51	C	0.075308	0.633731	-0.000002
C52	C	0.288235	0.670853	-0.037126
C53	C	0.348859	0.670846	-0.037135
C54	C	0.348865	0.596620	0.037105
C55	C	0.288247	0.596623	0.037107
C56	C	0.257933	0.633743	-0.000007
C57	C	0.633759	0.443652	-0.000004
C58	C	0.633758	0.379140	-0.000002
C59	C	0.559525	0.385962	0.037106
C60	C	0.559524	0.325346	0.037109
C61	C	0.633760	0.257910	-0.000010
C62	C	0.708002	0.251090	-0.037119
C63	C	0.708001	0.311706	-0.037116
N64	N	0.689018	0.135098	-0.060420
N65	N	0.689013	0.077519	-0.060422
C66	C	0.633767	0.075277	-0.000022
N67	N	0.578512	0.132796	0.060379
N68	N	0.578514	0.190382	0.060380
C69	C	0.633769	0.192178	-0.000018
C70	C	0.559528	0.016375	0.037093
C71	C	0.559530	-0.044243	0.037098
C72	C	0.708010	-0.118499	-0.037138
C73	C	0.708006	-0.057881	-0.037136
C74	C	0.633763	0.009553	-0.000022
C75	C	0.823844	0.633728	-0.000008
C76	C	0.888356	0.633727	-0.000006
C77	C	0.633765	0.633687	-0.190095
C78	C	0.633766	0.633671	-0.254607
C79	C	0.633765	0.823812	-0.000018
C80	C	0.633766	0.888324	-0.000021
C81	C	0.707999	0.596548	-0.322026
C82	C	0.708000	0.596566	-0.382642
C83	C	0.633764	0.633698	-0.375836
C84	C	0.559522	0.670830	-0.308406
C85	C	0.559523	0.670817	-0.247791
N86	N	0.578506	0.628577	-0.443392
N87	N	0.578510	0.628586	-0.500976
C88	C	0.633757	0.633742	-0.558461
N89	N	0.689012	0.638875	-0.556194
N90	N	0.689010	0.638862	-0.498606
C91	C	0.633755	0.633717	-0.441558
C92	C	0.707996	0.596636	-0.691610
C93	C	0.707994	0.596659	-0.752226
C94	C	0.559514	0.670918	-0.677987
C95	C	0.559518	0.670900	-0.617373
C96	C	0.633761	0.633755	-0.624189
C97	C	0.633759	0.633777	0.190072
C98	C	0.633758	0.633792	0.254585
C99	C	0.443683	0.823816	-0.000022
C100	C	0.379172	0.888329	-0.000025
C101	C	0.443677	0.633781	0.190069
C102	C	0.379163	0.633798	0.254580
C103	C	0.443680	0.823861	0.190062
C104	C	0.379168	0.888390	0.254571
C105	C	0.823844	0.443603	-0.190084
C106	C	0.888356	0.379074	-0.254593
C107	C	0.823841	0.443648	-0.000001
C108	C	0.888352	0.379135	0.000003
C109	C	0.823847	0.633683	-0.190091
C110	C	0.888360	0.633666	-0.254603
C111	C	0.348877	0.881499	-0.037150
C112	C	0.288270	0.942110	-0.037167
C113	C	0.257956	1.009550	-0.000056
C114	C	0.288257	1.016379	0.037069
C115	C	0.348866	0.955768	0.037082
C116	C	0.348867	0.670931	0.321998
C117	C	0.288259	0.670944	0.382619
C118	C	0.257943	0.633827	0.375821
C119	C	0.288245	0.596689	0.308396
C120	C	0.348857	0.596673	0.247776
C121	C	0.348873	0.955807	0.247746
C122	C	0.288266	1.016444	0.308353
C123	C	0.257950	1.009662	0.375785
C124	C	0.288250	0.942237	0.382608
C125	C	0.348860	0.881602	0.322001
C126	C	0.918658	0.311657	-0.247768
C127	C	0.979284	0.251020	-0.308376
C128	C	1.009604	0.257802	-0.375807
C129	C	0.979299	0.325227	-0.382631
C130	C	0.918678	0.385862	-0.322024
C131	C	0.918653	0.385965	0.037121
C132	C	0.979277	0.325354	0.037122
C133	C	1.009593	0.257914	0.000008
C134	C	0.979289	0.251085	-0.037114
C135	C	0.918671	0.311695	-0.037119
C136	C	0.918657	0.670790	-0.247782
C137	C	0.979266	0.670788	-0.308391
C138	C	1.009581	0.633658	-0.375821
C139	C	0.979279	0.596533	-0.382641
C140	C	0.918667	0.596539	-0.322032
H141	H	0.003969	0.566395	0.067329
H142	H	0.263553	0.566470	0.302871
H143	H	0.893983	0.701026	-0.192882
H144	H	1.003931	0.701019	-0.302825
H145	H	0.263577	0.566403	0.067331
F146	F	0.381127	0.557122	0.076604
F147	F	0.480506	0.710445	-0.670739
H148	H	0.208590	0.633847	0.425187
F149	F	-0.113573	0.557103	0.076609
H150	H	0.373548	0.961343	0.192845
H151	H	0.499071	0.440866	0.067322
H152	H	1.058965	0.208423	-0.425151
H153	H	0.499072	0.701048	-0.192894
F154	F	0.381118	0.710442	0.329249
H155	H	0.768449	0.566390	-0.697161
F156	F	1.011515	0.332636	0.076637
F157	F	0.255966	0.710362	-0.076622
F158	F	0.787007	0.557148	-0.823982
H159	H	0.894007	0.440755	-0.327589
H160	H	0.208596	1.059041	0.425129
F161	F	1.011575	0.332434	-0.454402
H162	H	0.768451	0.566333	-0.437545
H163	H	0.499073	0.330901	0.067327
H164	H	0.499079	-0.038682	0.067320
F165	F	0.381131	0.809730	-0.076654
F166	F	0.256018	0.710476	0.454371
F167	F	0.256026	1.088196	0.301076
H168	H	1.058952	0.208567	0.000018
F169	F	0.480516	0.710351	-0.301163
H170	H	1.003983	0.196168	-0.067331
H171	H	1.003948	0.196126	-0.302806
H172	H	0.894007	0.566305	-0.327595
F173	F	0.787008	0.179319	-0.076621
H174	H	0.499075	0.071283	0.067328
F175	F	-0.113595	0.710335	-0.076632
F176	F	0.255977	0.935030	0.454379
H177	H	0.768452	0.306146	-0.067332
H178	H	0.263607	0.936536	-0.067399
H179	H	0.893974	0.440872	0.067348
H180	H	0.373530	0.701066	-0.067360
H181	H	0.894002	0.306125	-0.067343
F182	F	0.787018	-0.190267	-0.076638
F183	F	0.255984	1.088159	0.076565
F184	F	0.480509	0.710400	-0.545617
H185	H	0.208603	1.058897	-0.000072
H186	H	1.058936	0.633658	-0.425167
H187	H	0.373518	0.826710	0.327568
H188	H	0.373516	0.566436	0.192884
F189	F	0.011518	0.710345	-0.076625
F190	F	0.787015	-0.065143	-0.076636
H191	H	0.893975	0.306121	-0.192868
F192	F	1.011557	0.557013	-0.454410
H193	H	0.768453	0.566304	-0.327582
H194	H	0.373525	0.961339	0.067318
