data_functionalizedCrystal
_audit_creation_method	'MofGen! by Chris Wilmer'
_symmetry_space_group_name_H-M	'P1'
_symmetry_Int_Tables_number	1
_symmetry_cell_setting	triclinic
loop_
_symmetry_equiv_pos_as_xyz
  x,y,z
_cell_length_a	14.908571
_cell_length_b	12.645330
_cell_length_c	14.908308
_cell_angle_alpha	93.270481
_cell_angle_beta	90.175053
_cell_angle_gamma	86.714080
loop_
_atom_site_label
_atom_site_type_symbol
_atom_site_fract_x
_atom_site_fract_y
_atom_site_fract_z
Zn1	Zn	1.345316	-0.553227	-0.587609
Zn2	Zn	1.353903	-0.720906	-0.437258
Zn3	Zn	1.203631	-0.532865	-0.428606
Zn4	Zn	1.194931	-0.719646	-0.578909
O5	O	1.274445	-0.631661	-0.508096
O6	O	1.472282	-0.584518	-0.574926
O7	O	1.341204	-0.687967	-0.310285
O8	O	1.222473	-0.387223	-0.449718
O9	O	1.478590	-0.707711	-0.464464
O10	O	1.326569	-0.402183	-0.566537
O11	O	1.230799	-0.549815	-0.303929
O12	O	1.076650	-0.548593	-0.441282
O13	O	1.207645	-0.705565	-0.705889
O14	O	1.070259	-0.685821	-0.551710
O15	O	1.318133	-0.583297	-0.712280
O16	O	1.332768	-0.869081	-0.456028
O17	O	1.215971	-0.868156	-0.560099
C18	C	1.040829	-0.614862	-0.494614
C19	C	0.940886	-0.607702	-0.488867
C20	C	0.746483	-0.737343	-0.592903
C21	C	0.652577	-0.730619	-0.587507
C22	C	0.659166	-0.587526	-0.472684
C23	C	0.753072	-0.594249	-0.478080
C24	C	0.796727	-0.669162	-0.538191
C25	C	0.890635	-0.675890	-0.543582
C26	C	0.897222	-0.532792	-0.428764
C27	C	0.803316	-0.526068	-0.423368
C28	C	1.274380	-0.907085	-0.508079
C29	C	1.274433	-1.024921	-0.508107
C30	C	1.201231	-1.191981	-0.573809
C31	C	1.200890	-1.069382	-0.573564
C32	C	1.254254	-1.061620	-0.411871
C33	C	1.253808	-1.184216	-0.412269
C34	C	1.368282	-1.200403	-0.537898
C35	C	1.367579	-1.077886	-0.539936
C36	C	1.508974	-0.648527	-0.521631
C37	C	1.608916	-0.655714	-0.527399
C38	C	1.260961	-0.646562	-0.742622
C39	C	1.255214	-0.652912	-0.842563
C40	C	1.274534	-0.355164	-0.508133
C41	C	1.274571	-0.237338	-0.508149
C42	C	1.359465	-0.537502	-1.037020
C43	C	1.354068	-0.543464	-1.130923
C44	C	1.239021	-0.670794	-1.124275
C45	C	1.244418	-0.664831	-1.030371
C46	C	1.304642	-0.598184	-0.986747
C47	C	1.310043	-0.592227	-0.892842
C48	C	1.194992	-0.719550	-0.886195
C49	C	1.189595	-0.725513	-0.980099
C50	C	1.287929	-0.616745	-0.274485
C51	C	1.293850	-0.610109	-0.174555
H52	H	0.782028	-0.798344	-0.641842
O53	O	1.407193	-0.484398	-1.179790
C54	C	1.352896	-0.415721	-1.231178
H55	H	1.283706	-0.402292	-1.198796
H56	H	1.385376	-0.336542	-1.234125
H57	H	1.345703	-0.452791	-1.302165
O58	O	1.368635	-0.527641	-0.850426
C59	C	1.429806	-0.588705	-0.799432
H60	H	1.433721	-0.674392	-0.828041
H61	H	1.499072	-0.555258	-0.802360
H62	H	1.406092	-0.585842	-0.726661
O63	O	1.315130	-1.219839	-0.351652
C64	C	1.315308	-1.331334	-0.351428
H65	H	1.288024	-1.364274	-0.418201
H66	H	1.386907	-1.365382	-0.341637
H67	H	1.271141	-1.354505	-0.294266
H68	H	0.926177	-0.736889	-0.592525
H69	H	1.422855	-1.229860	-0.490142
H70	H	0.767759	-0.465075	-0.374431
O71	O	0.616842	-0.514808	-0.414194
C72	C	0.644869	-0.533754	-0.325847
H73	H	0.713163	-0.579248	-0.327812
H74	H	0.650367	-0.454839	-0.285829
H75	H	0.593744	-0.582492	-0.292462
H76	H	0.611672	-0.786137	-0.632061
H77	H	1.140561	-0.779773	-1.015631
H78	H	1.150354	-0.768965	-0.845253
O79	O	1.435572	-1.042323	-0.487450
C80	C	1.400248	-0.968375	-0.420511
H81	H	1.326389	-0.982338	-0.409084
H82	H	1.439092	-0.978501	-0.355285
H83	H	1.406700	-0.884491	-0.443034
O84	O	1.180587	-0.735493	-1.166803
C85	C	1.187558	-0.727705	-1.260463
H86	H	1.256228	-0.698805	-1.277295
H87	H	1.179366	-0.808926	-1.295804
H88	H	1.132718	-0.669091	-1.284026
H89	H	0.938141	-0.477276	-0.384212
O90	O	1.417987	-0.472681	-0.994778
C91	C	1.465240	-0.420424	-1.059289
H92	H	1.424567	-0.418352	-1.124104
H93	H	1.476420	-0.335870	-1.032718
H94	H	1.532943	-0.464791	-1.073210
O95	O	1.316215	-1.027125	-0.351518
C96	C	1.296096	-1.061443	-0.265902
H97	H	1.254015	-1.133889	-0.273658
H98	H	1.361218	-1.083199	-0.229284
H99	H	1.256787	-0.994993	-0.225534
O100	O	1.215307	-1.040268	-0.658509
C101	C	1.299148	-1.084947	-0.689506
H102	H	1.318896	-1.157643	-0.650461
H103	H	1.294166	-1.109377	-0.764071
H104	H	1.352178	-1.023950	-0.679055
O105	O	1.215230	-1.233662	-0.659060
C106	C	1.148413	-1.191462	-0.716177
H107	H	1.119386	-1.112385	-0.685184
H108	H	1.179203	-1.178726	-0.784351
H109	H	1.092621	-1.249148	-0.725186
H110	H	1.131307	-1.034056	-0.553424
O111	O	1.118787	-1.221674	-0.549913
C112	C	1.127102	-1.283325	-0.474137
H113	H	1.191394	-1.264601	-0.436354
H114	H	1.066807	-1.264123	-0.428009
H115	H	1.129827	-1.371101	-0.496771
H116	H	1.185468	-1.206601	-0.387705
H117	H	1.387759	-1.237265	-0.607169
O118	O	1.173534	-1.017749	-0.382273
C119	C	1.105288	-1.050050	-0.441704
H120	H	1.128703	-1.127191	-0.480102
H121	H	1.042112	-1.063096	-0.401858
H122	H	1.089862	-0.985986	-0.491209
H123	H	1.382895	-1.054579	-0.610788
