data_functionalizedCrystal
_audit_creation_method	'MofGen! by Chris Wilmer'
_symmetry_space_group_name_H-M	'P1'
_symmetry_Int_Tables_number	1
_symmetry_cell_setting	triclinic
loop_
_symmetry_equiv_pos_as_xyz
  x,y,z
_cell_length_a	10.654550
_cell_length_b	10.654550
_cell_length_c	9.130313
_cell_angle_alpha	89.997153
_cell_angle_beta	90.000488
_cell_angle_gamma	95.515069
loop_
_atom_site_label
_atom_site_type_symbol
_atom_site_fract_x
_atom_site_fract_y
_atom_site_fract_z
O1	O	1.667840	-0.176396	0.121690
O2	O	1.302362	-0.193202	0.121716
O3	O	1.493504	-0.002060	0.121693
O4	O	1.476698	-0.367538	0.121713
O5	O	1.493489	-0.002060	-0.121906
O6	O	1.302347	-0.193202	-0.121882
O7	O	1.667826	-0.176396	-0.121909
Cu8	Cu	1.485085	-0.184799	-0.144138
Cu9	Cu	1.485102	-0.184799	0.143946
O10	O	1.476683	-0.367538	-0.121886
C11	C	1.255556	-0.191968	-0.000080
C12	C	1.116113	-0.188276	-0.000070
C13	C	1.492263	0.044738	-0.000105
C14	C	1.488571	0.184181	-0.000103
N15	N	1.485082	-0.184798	-0.346761
C16	C	1.036628	-0.300818	-0.000068
C17	C	0.905607	-0.297341	-0.000093
C18	C	0.933570	-0.068772	-0.000117
C19	C	1.064588	-0.072250	-0.000101
C20	C	1.714631	-0.177630	-0.000110
C21	C	1.854074	-0.181322	-0.000110
C22	C	1.477925	-0.414336	-0.000084
C23	C	1.481616	-0.553779	-0.000077
C24	C	1.601112	0.263667	-0.000111
C25	C	1.597636	0.394688	-0.000092
C26	C	1.369066	0.366725	-0.000065
C27	C	1.372544	0.235706	-0.000073
C28	C	1.561913	-0.261680	-0.423409
C29	C	1.561934	-0.261673	-0.576746
C30	C	1.408281	-0.107899	-0.576773
C31	C	1.408268	-0.107900	-0.423439
N32	N	1.485115	-0.184790	0.346568
H33	H	1.078574	-0.395294	-0.000053
Cl34	Cl	1.311669	-0.011243	-0.327074
H35	H	0.840894	-0.388984	-0.000095
Cl36	Cl	1.658490	-0.358341	-0.327019
H37	H	1.280893	0.170985	-0.000062
Cl38	Cl	0.868786	0.077082	-0.000147
Cl39	Cl	1.658528	-0.358328	-0.673097
Cl40	Cl	1.311710	-0.011243	-0.673179
H41	H	1.129309	0.019401	-0.000107
Cl42	Cl	1.746974	0.198897	-0.000145
H43	H	1.274601	0.408693	-0.000043
Cl44	Cl	1.739124	0.494608	-0.000099
