data_functionalizedCrystal
_audit_creation_method	'MofGen! by Chris Wilmer'
_symmetry_space_group_name_H-M	'P1'
_symmetry_Int_Tables_number	1
_symmetry_cell_setting	triclinic
loop_
_symmetry_equiv_pos_as_xyz
  x,y,z
_cell_length_a	6.817900
_cell_length_b	17.982959
_cell_length_c	12.200737
_cell_angle_alpha	94.642216
_cell_angle_beta	107.141108
_cell_angle_gamma	102.451857
loop_
_atom_site_label
_atom_site_type_symbol
_atom_site_fract_x
_atom_site_fract_y
_atom_site_fract_z
V1	V	-4.063239	-0.105591	-0.358141
V2	V	-3.563239	0.394409	0.141859
O3	O	-4.055248	0.004891	-0.350831
O4	O	-3.555248	0.504891	0.149169
O5	O	-4.009514	-0.209192	-0.356166
O6	O	-3.509514	0.290808	0.143834
O7	O	-4.033025	-0.104047	-0.514123
O8	O	-3.533025	0.395953	-0.014123
O9	O	-4.031575	-0.100983	-0.191780
O10	O	-3.531575	0.399017	0.308220
V11	V	-4.545200	-0.092366	-0.338185
V12	V	-4.045200	0.407634	0.161815
O13	O	-4.327922	-0.134599	-0.401915
O14	O	-3.827922	0.365401	0.098085
O15	O	-4.730714	-0.063358	-0.294411
O16	O	-4.230714	0.436642	0.205589
O17	O	-4.375718	0.011236	-0.340161
O18	O	-3.875718	0.511236	0.159839
O19	O	-4.670587	-0.202848	-0.345496
O20	O	-4.170587	0.297152	0.154504
O21	O	-4.694261	-0.096974	-0.504546
O22	O	-4.194261	0.403026	-0.004546
O23	O	-4.352208	-0.093910	-0.182204
O24	O	-3.852208	0.406090	0.317796
C25	C	-3.852631	-0.234446	-0.350638
C26	C	-3.352631	0.265554	0.149362
C27	C	-3.890113	-0.319142	-0.350063
C28	C	-3.390113	0.180858	0.149937
C29	C	-4.090308	-0.362816	-0.355532
C30	C	-3.590308	0.137184	0.144468
C31	C	-4.125517	-0.442398	-0.354998
C32	C	-3.625517	0.057602	0.145002
C33	C	-3.960525	-0.478303	-0.348987
C34	C	-3.460525	0.021697	0.151013
C35	C	-3.760315	-0.434624	-0.343521
C36	C	-3.260315	0.065376	0.156479
C37	C	-3.725112	-0.355044	-0.344063
C38	C	-3.225112	0.144956	0.155937
C39	C	-3.902281	-0.755558	-0.341336
C40	C	-3.402281	-0.255558	0.158664
C41	C	-3.937498	-0.835143	-0.340790
C42	C	-3.437498	-0.335143	0.159210
C43	C	-4.302685	-0.842912	-0.352271
C44	C	-3.802685	-0.342912	0.147729
C45	C	-4.267483	-0.763332	-0.352813
C46	C	-3.767483	-0.263332	0.147187
C47	C	-4.067280	-0.719661	-0.347353
C48	C	-3.567280	-0.219661	0.152647
C49	C	-4.029105	-0.633369	-0.347934
C50	C	-3.529105	-0.133369	0.152066
C51	C	-3.998693	-0.564592	-0.348397
C52	C	-3.498693	-0.064592	0.151603
C53	C	-3.882620	-0.100321	-0.552126
C54	C	-3.382620	0.399679	-0.052126
C55	C	-3.939165	-0.099744	-0.679645
C56	C	-3.439165	0.400256	-0.179645
C57	C	-3.985083	-0.099275	-0.783204
C58	C	-3.485083	0.400725	-0.283204
C59	C	-4.042705	-0.098683	-0.913123
C60	C	-3.542705	0.401317	-0.413123
C61	C	-4.195943	0.036485	-0.345685
C62	C	-3.695943	0.536485	0.154315
C63	C	-4.137700	0.121181	-0.346268
C64	C	-3.637700	0.621181	0.153732
C65	C	-4.165954	-0.097638	-0.144194
C66	C	-3.665954	0.402362	0.355806
C67	C	-4.088647	-0.098211	-0.016674
C68	C	-3.588647	0.401789	0.483326
H69	H	-3.625982	-0.463865	-0.338633
H70	H	-3.125982	0.036135	0.161367
O71	O	-4.518626	-0.890018	-0.358161
O72	O	-4.018626	-0.390018	0.141839
H73	H	-4.638267	-0.884777	-0.439594
H74	H	-4.138267	-0.384777	0.060406
H75	H	-3.562098	-0.319486	-0.339614
H76	H	-3.062098	0.180514	0.160386
O77	O	-3.759546	-0.873877	-0.334325
O78	O	-3.259546	-0.373877	0.165675
H79	H	-3.614424	-0.830142	-0.330634
H80	H	-3.114424	-0.330142	0.169366
O81	O	-3.686350	-0.708461	-0.335434
O82	O	-3.186350	-0.208461	0.164566
H83	H	-3.700392	-0.680201	-0.413998
H84	H	-3.200392	-0.180201	0.086002
O85	O	-4.445428	-0.724600	-0.359298
O86	O	-3.945428	-0.224600	0.140702
H87	H	-4.476911	-0.696700	-0.438402
H88	H	-3.976911	-0.196700	0.061598
H89	H	-4.224663	-0.333587	-0.360416
H90	H	-3.724663	0.166413	0.139584
O91	O	-4.341433	-0.489504	-0.360880
O92	O	-3.841433	0.010496	0.139120
H93	H	-4.450236	-0.451166	-0.365131
H94	H	-3.950236	0.048834	0.134869
