data_functionalizedCrystal
_audit_creation_method	'MofGen! by Chris Wilmer'
_symmetry_space_group_name_H-M	'P1'
_symmetry_Int_Tables_number	1
_symmetry_cell_setting	triclinic
loop_
_symmetry_equiv_pos_as_xyz
  x,y,z
_cell_length_a	13.897449
_cell_length_b	17.077402
_cell_length_c	17.077396
_cell_angle_alpha	90.029784
_cell_angle_beta	89.981559
_cell_angle_gamma	89.975837
loop_
_atom_site_label
_atom_site_type_symbol
_atom_site_fract_x
_atom_site_fract_y
_atom_site_fract_z
Zn1	Zn	1.474646	0.312481	-0.443813
Zn2	Zn	1.807979	0.645815	-0.110480
Zn3	Zn	2.141313	0.979148	0.222853
Zn4	Zn	1.474532	0.443756	-0.312544
Zn5	Zn	1.807865	0.777090	0.020789
Zn6	Zn	2.141198	1.110423	0.354122
Zn7	Zn	1.313342	0.312511	-0.312564
Zn8	Zn	1.646675	0.645845	0.020770
Zn9	Zn	1.980008	0.979178	0.354103
Zn10	Zn	1.313302	0.443712	-0.443770
Zn11	Zn	1.646636	0.777045	-0.110437
Zn12	Zn	1.979969	1.110379	0.222896
O13	O	1.393955	0.378115	-0.378173
O14	O	1.727289	0.711449	-0.044840
O15	O	2.060622	1.044782	0.288494
O16	O	1.609612	0.329901	-0.426410
O17	O	1.942946	0.663235	-0.093077
O18	O	2.276279	0.996568	0.240256
O19	O	1.453118	0.426377	-0.202700
O20	O	1.786452	0.759711	0.130633
O21	O	2.119785	1.093044	0.463967
O22	O	1.334803	0.202660	-0.330000
O23	O	1.668137	0.535994	0.003333
O24	O	2.001470	0.869327	0.336666
O25	O	1.609529	0.426348	-0.329967
O26	O	1.942862	0.759682	0.003366
O27	O	2.276195	1.093015	0.336699
O28	O	1.453313	0.202638	-0.426429
O29	O	1.786646	0.535972	-0.093096
O30	O	2.119980	0.869305	0.240238
O31	O	1.334692	0.329952	-0.202714
O32	O	1.668026	0.663286	0.130619
O33	O	2.001359	0.996619	0.463952
O34	O	1.178355	0.329909	-0.329959
O35	O	1.511688	0.663243	0.003375
O36	O	1.845021	0.996576	0.336708
O37	O	1.334736	0.426273	-0.553623
O38	O	1.668069	0.759606	-0.220290
O39	O	2.001403	1.092940	0.113044
O40	O	1.178326	0.426302	-0.426356
O41	O	1.511659	0.759635	-0.093022
O42	O	1.844993	1.092969	0.240311
O43	O	1.453275	0.329858	-0.553655
O44	O	1.786608	0.663192	-0.220321
O45	O	2.119941	0.996525	0.113012
O46	O	1.453080	0.553597	-0.329926
O47	O	1.786413	0.886931	0.003408
O48	O	2.119747	1.220264	0.336741
O49	O	1.334625	0.553565	-0.426337
O50	O	1.667959	0.886898	-0.093004
O51	O	2.001292	1.220232	0.240330
C52	C	1.143341	0.378105	-0.378155
C53	C	1.476674	0.711438	-0.044822
C54	C	1.810008	1.044771	0.288512
C55	C	1.036127	0.378119	-0.378166
C56	C	1.369460	0.711453	-0.044833
C57	C	1.702794	1.044786	0.288501
C58	C	1.393862	0.582063	-0.378142
C59	C	1.727196	0.915396	-0.044808
C60	C	2.060529	1.248730	0.288525
C61	C	1.393911	0.669313	-0.378155
C62	C	1.727244	1.002646	-0.044821
C63	C	2.060577	1.335980	0.288512
C64	C	1.394014	0.378057	-0.582917
C65	C	1.727347	0.711391	-0.249584
C66	C	2.060680	1.044724	0.083749
C67	C	1.394039	0.378033	-0.670167
C68	C	1.727372	0.711366	-0.336834
C69	C	2.060705	1.044699	-0.003501
C70	C	0.839832	0.378122	-0.378187
C71	C	1.173165	0.711455	-0.044853
C72	C	1.506499	1.044789	0.288480
C73	C	0.949065	0.378118	-0.378173
C74	C	1.282398	0.711451	-0.044840
C75	C	1.615731	1.044785	0.288494
C76	C	1.645548	0.378126	-0.378191
C77	C	1.978882	0.711460	-0.044858
C78	C	2.312215	1.044793	0.288475
C79	C	1.752762	0.378131	-0.378199
C80	C	2.086096	0.711464	-0.044866
C81	C	2.419429	1.044798	0.288467
C82	C	1.394075	0.173371	-0.378222
C83	C	1.727408	0.506704	-0.044888
C84	C	2.060742	0.840038	0.288445
C85	C	1.394126	0.086121	-0.378242
C86	C	1.727460	0.419454	-0.044909
C87	C	2.060793	0.752788	0.288424
C88	C	1.455653	0.710294	-0.328007
C89	C	1.788986	1.043627	0.005326
C90	C	2.122320	1.376961	0.338660
C91	C	1.455700	0.792274	-0.328027
C92	C	1.789034	1.125608	0.005306
C93	C	2.122367	1.458941	0.338640
C94	C	1.393999	0.833272	-0.378191
C95	C	1.727333	1.166606	-0.044858
C96	C	2.060666	1.499939	0.288475
C97	C	1.332254	0.792286	-0.428344
C98	C	1.665588	1.125619	-0.095011
C99	C	1.998921	1.458952	0.238323
C100	C	1.332213	0.710307	-0.428328
C101	C	1.665546	1.043640	-0.094994
C102	C	1.998879	1.376973	0.238339
C103	C	1.332344	0.963156	-0.428374
C104	C	1.665677	1.296489	-0.095041
C105	C	1.999010	1.629822	0.238293
C106	C	1.332384	1.045140	-0.428390
C107	C	1.665717	1.378473	-0.095056
C108	C	1.999050	1.711807	0.238277
C109	C	1.455831	1.045123	-0.328074
C110	C	1.789165	1.378457	0.005260
C111	C	2.122498	1.711790	0.338593
C112	C	1.455790	0.963144	-0.328057
C113	C	1.789123	1.296478	0.005276
C114	C	2.122456	1.629811	0.338610
C115	C	1.394043	0.922163	-0.378209
C116	C	1.727376	1.255497	-0.044876
C117	C	2.060710	1.588830	0.288458
C118	C	1.455764	0.327825	-0.711175
C119	C	1.789097	0.661159	-0.377842
C120	C	2.122431	0.994492	-0.044508
C121	C	1.455776	0.327799	-0.793156
C122	C	1.789109	0.661133	-0.459822
C123	C	2.122442	0.994466	-0.126489
C124	C	1.394066	0.377985	-0.834127
C125	C	1.727399	0.711318	-0.500793
C126	C	2.060733	1.044652	-0.167460
C127	C	1.332334	0.428195	-0.793113
C128	C	1.665667	0.761528	-0.459780
C129	C	1.999001	1.094861	-0.126446
C130	C	1.332318	0.428216	-0.711134
C131	C	1.665652	0.761549	-0.377801
C132	C	1.998985	1.094883	-0.044467
C133	C	1.332373	0.428147	-0.963983
C134	C	1.665706	0.761481	-0.630650
C135	C	1.999039	1.094814	-0.297317
C136	C	1.332390	0.428127	-1.045968
C137	C	1.665723	0.761460	-0.712635
C138	C	1.999056	1.094794	-0.379301
C139	C	1.455830	0.327731	-1.046005
C140	C	1.789163	0.661064	-0.712671
C141	C	2.122497	0.994397	-0.379338
C142	C	1.455814	0.327752	-0.964026
C143	C	1.789148	0.661085	-0.630692
C144	C	2.122481	0.994419	-0.297359
C145	C	1.394083	0.377963	-0.923018
C146	C	1.727417	0.711296	-0.589684
C147	C	2.060750	1.044630	-0.256351
C148	C	1.393953	0.378116	-0.174225
C149	C	1.727286	0.711450	0.159108
C150	C	2.060619	1.044783	0.492441
C151	C	1.394115	0.377920	-0.086976
C152	C	1.727448	0.711253	0.246358
C153	C	2.060781	1.044586	0.579691
H154	H	1.505893	0.676919	-0.287154
H155	H	1.839226	1.010252	0.046179
H156	H	2.172559	1.343585	0.379512
H157	H	1.505976	0.825637	-0.287192
H158	H	1.839310	1.158971	0.046142
H159	H	2.172643	1.492304	0.379475
F160	F	1.266669	0.481586	-0.920341
F161	F	1.600002	0.814919	-0.587008
F162	F	1.933336	1.148253	-0.253675
H163	H	1.506026	0.929764	-0.287206
H164	H	1.839359	1.263097	0.046128
H165	H	2.172693	1.596431	0.379461
H166	H	1.282021	0.825673	-0.469192
H167	H	1.615354	1.159006	-0.135859
H168	H	1.948687	1.492339	0.197475
H169	H	1.282085	0.469054	-0.826478
H170	H	1.615419	0.802387	-0.493145
H171	H	1.948752	1.135720	-0.159812
H172	H	1.506111	1.078494	-0.287240
H173	H	1.839444	1.411827	0.046093
H174	H	2.172777	1.745161	0.379426
H175	H	1.506018	0.286961	-0.677822
H176	H	1.839351	0.620294	-0.344489
H177	H	2.172685	0.953627	-0.011156
F178	F	1.266619	0.481652	-0.667491
F179	F	1.599953	0.814985	-0.334158
F180	F	1.933286	1.148318	-0.000824
F181	F	1.266706	1.088772	-0.481773
F182	F	1.600040	1.422105	-0.148439
F183	F	1.933373	1.755438	0.184894
H184	H	1.506092	0.286846	-1.079397
H185	H	1.839426	0.620179	-0.746064
H186	H	2.172759	0.953513	-0.412731
H187	H	1.281937	0.676941	-0.469164
H188	H	1.615271	1.010274	-0.135830
H189	H	1.948604	1.343607	0.197503
F190	F	1.266628	0.919542	-0.481754
F191	F	1.599961	1.252876	-0.148421
F192	F	1.933295	1.586209	0.184913
F193	F	1.521505	0.274389	-0.836796
F194	F	1.854839	0.607722	-0.503462
F195	F	2.188172	0.941055	-0.170129
F196	F	1.521498	0.274344	-0.920423
F197	F	1.854831	0.607677	-0.587089
F198	F	2.188165	0.941010	-0.253756
H199	H	1.282138	0.468991	-1.079324
H200	H	1.615471	0.802324	-0.745991
H201	H	1.948805	1.135658	-0.412658
