data_functionalizedCrystal
_audit_creation_method	'MofGen! by Chris Wilmer'
_symmetry_space_group_name_H-M	'P1'
_symmetry_Int_Tables_number	1
_symmetry_cell_setting	triclinic
loop_
_symmetry_equiv_pos_as_xyz
  x,y,z
_cell_length_a	16.120490
_cell_length_b	14.909042
_cell_length_c	14.908308
_cell_angle_alpha	89.837538
_cell_angle_beta	89.450064
_cell_angle_gamma	83.653415
loop_
_atom_site_label
_atom_site_type_symbol
_atom_site_fract_x
_atom_site_fract_y
_atom_site_fract_z
Zn1	Zn	1.269665	-0.460886	0.553079
Zn2	Zn	1.769665	0.039114	1.053079
Zn3	Zn	1.285625	-0.603508	0.394878
Zn4	Zn	1.785625	-0.103508	0.894878
Zn5	Zn	1.137761	-0.444599	0.395951
Zn6	Zn	1.637761	0.055401	0.895951
Zn7	Zn	1.138661	-0.603603	0.537631
Zn8	Zn	1.638661	-0.103603	1.037631
O9	O	1.207928	-0.528149	0.470385
O10	O	1.707928	-0.028149	0.970385
O11	O	1.388489	-0.486581	0.538109
O12	O	1.888489	0.013419	1.038109
O13	O	1.272313	-0.575572	0.269520
O14	O	1.772313	-0.075572	0.769520
O15	O	1.148202	-0.320528	0.423708
O16	O	1.648202	0.179472	0.923708
O17	O	1.400215	-0.591364	0.421880
O18	O	1.900215	-0.091364	0.921880
O19	O	1.245111	-0.332494	0.539149
O20	O	1.745111	0.167506	1.039149
O21	O	1.163678	-0.458823	0.270308
O22	O	1.663678	0.041177	0.770308
O23	O	1.021173	-0.458916	0.408729
O24	O	1.521173	0.041084	0.908729
O25	O	1.149736	-0.591527	0.665181
O26	O	1.649736	-0.091527	1.165181
O27	O	1.021834	-0.575735	0.512820
O28	O	1.521834	-0.075735	1.012820
O29	O	1.245984	-0.486673	0.676530
O30	O	1.745984	0.013327	1.176530
O31	O	1.273186	-0.729752	0.406901
O32	O	1.773186	-0.229752	0.906901
O33	O	1.165213	-0.729822	0.511780
O34	O	1.665213	-0.229822	1.011780
C35	C	0.991243	-0.515569	0.459215
C36	C	1.491243	-0.015569	0.959215
C37	C	0.898544	-0.510210	0.454457
C38	C	1.398544	-0.010210	0.954457
C39	C	1.221051	-0.762520	0.457569
C40	C	1.721051	-0.262520	0.957569
C41	C	1.226739	-0.862791	0.452120
C42	C	1.726739	-0.362791	0.952120
C43	C	1.124898	-1.051337	0.550988
C44	C	1.624898	-0.551337	1.050988
C45	C	1.130241	-1.145550	0.545871
C46	C	1.630241	-0.645550	1.045871
C47	C	1.242762	-1.145432	0.436766
C48	C	1.742762	-0.645432	0.936766
C49	C	1.237419	-1.051219	0.441882
C50	C	1.737419	-0.551219	0.941882
C51	C	1.178487	-1.004175	0.498996
C52	C	1.678487	-0.504175	0.998996
C53	C	1.173149	-0.909960	0.504117
C54	C	1.673149	-0.409960	1.004117
C55	C	1.285665	-0.909843	0.395008
C56	C	1.785665	-0.409843	0.895008
C57	C	1.291008	-1.004057	0.389891
C58	C	1.791008	-0.504057	0.889891
C59	C	0.687879	-0.555939	0.495069
C60	C	1.187879	-0.055939	0.995069
C61	C	0.728829	-0.500435	0.445767
C62	C	1.228829	-0.000435	0.945767
C63	C	0.823267	-0.505876	0.450604
C64	C	1.323267	-0.005876	0.950604
C65	C	0.593432	-0.550500	0.490234
C66	C	1.093432	-0.050500	0.990234
C67	C	1.425459	-0.540779	0.481598
C68	C	1.925459	-0.040779	0.981598
C69	C	1.518158	-0.546161	0.486377
C70	C	2.018158	-0.046161	0.986377
C71	C	1.196180	-0.540928	0.704307
C72	C	1.696180	-0.040928	1.204307
C73	C	1.191174	-0.546373	0.803990
C74	C	1.691174	-0.046373	1.303990
C75	C	1.194776	-0.292865	0.483271
C76	C	1.694776	0.207135	0.983271
C77	C	1.189171	-0.192601	0.488763
C78	C	1.689171	0.307399	0.988763
C79	C	1.219674	-0.515358	0.237379
C80	C	1.719674	-0.015358	0.737379
C81	C	1.224828	-0.509667	0.137718
C82	C	1.724828	-0.009667	0.637718
C83	C	1.281986	-0.447400	1.003127
C84	C	1.781986	0.052600	1.503127
C85	C	1.277285	-0.452514	1.096789
C86	C	1.777285	0.047486	1.596789
C87	C	1.177066	-0.561709	1.084978
C88	C	1.677066	-0.061709	1.584978
C89	C	1.181768	-0.556595	0.991316
C90	C	1.681768	-0.056595	1.491316
C91	C	1.234230	-0.499440	0.950394
C92	C	1.734230	0.000560	1.450394
C93	C	1.238936	-0.494332	0.856730
C94	C	1.738936	0.005668	1.356730
C95	C	1.138713	-0.603521	0.844921
C96	C	1.638713	-0.103521	1.344921
C97	C	1.134012	-0.608635	0.938583
C98	C	1.634012	-0.108635	1.438583
H99	H	1.076918	-1.013033	0.597498
H100	H	1.576918	-0.513033	1.097498
N101	N	1.089928	-0.656692	0.791064
N102	N	1.589928	-0.156692	1.291064
N103	N	1.099591	-0.740821	0.797256
N104	N	1.599591	-0.240821	1.297256
H105	H	1.065140	-0.778375	0.759220
H106	H	1.565140	-0.278375	1.259220
H107	H	1.329303	-0.871433	0.352676
H108	H	1.829303	-0.371433	0.852676
H109	H	0.723745	-0.607540	0.540904
H110	H	1.223745	-0.107540	1.040904
H111	H	0.692961	-0.448830	0.399927
H112	H	1.192961	0.051170	0.899927
H113	H	1.338987	-1.042373	0.343388
H114	H	1.838987	-0.542373	0.843388
N115	N	1.292530	-0.435952	0.814941
N116	N	1.792530	0.064048	1.314941
N117	N	1.335163	-0.389492	0.862040
N118	N	1.835163	0.110508	1.362040
H119	H	1.373015	-0.348257	0.832530
H120	H	1.873015	0.151743	1.332530
H121	H	1.324708	-0.400867	0.969808
H122	H	1.824708	0.099133	1.469808
N123	N	1.326066	-0.399345	1.150642
N124	N	1.826066	0.100655	1.650642
N125	N	1.372898	-0.348316	1.114089
N126	N	1.872898	0.151684	1.614089
H127	H	1.407351	-0.310760	1.152122
H128	H	1.907351	0.189240	1.652122
N129	N	1.123475	-0.620070	1.126802
N130	N	1.623475	-0.120070	1.626802
N131	N	1.119281	-0.624617	1.210429
N132	N	1.619281	-0.124617	1.710429
H133	H	1.081431	-0.665834	1.239969
H134	H	1.581431	-0.165834	1.739969
H135	H	1.091296	-0.655167	0.971914
H136	H	1.591296	-0.155167	1.471914
H137	H	1.125165	-0.871657	0.550624
H138	H	1.625165	-0.371657	1.050624
H139	H	1.086605	-1.183946	0.588210
H140	H	1.586605	-0.683946	1.088210
H141	H	1.290734	-1.183751	0.390258
H142	H	1.790734	-0.683751	0.890258
