data_functionalizedCrystal
_audit_creation_method	'MofGen! by Chris Wilmer'
_symmetry_space_group_name_H-M	'P1'
_symmetry_Int_Tables_number	1
_symmetry_cell_setting	triclinic
loop_
_symmetry_equiv_pos_as_xyz
  x,y,z
_cell_length_a	10.654550
_cell_length_b	14.853559
_cell_length_c	9.730223
_cell_angle_alpha	90.000855
_cell_angle_beta	89.996251
_cell_angle_gamma	84.058178
loop_
_atom_site_label
_atom_site_type_symbol
_atom_site_fract_x
_atom_site_fract_y
_atom_site_fract_z
O1	O	1.666513	0.126622	-0.114396
O2	O	1.300909	0.138687	-0.114373
O3	O	1.493482	0.001477	-0.114383
O4	O	1.473940	0.263833	-0.114385
O5	O	1.493480	0.001480	0.114197
O6	O	1.300907	0.138690	0.114207
O7	O	1.666511	0.126626	0.114184
Zn8	Zn	1.483708	0.132659	0.150488
Zn9	Zn	1.483711	0.132654	-0.150676
O10	O	1.473937	0.263836	0.114195
C11	C	1.254119	0.137803	-0.000080
C12	C	1.114703	0.135152	-0.000072
C13	C	1.492598	-0.032115	-0.000096
C14	C	1.489950	-0.132213	-0.000103
C15	C	1.034375	0.215939	-0.000092
C16	C	0.903380	0.213444	-0.000116
C17	C	0.933055	0.049367	-0.000104
C18	C	1.064047	0.051864	-0.000071
C19	C	1.017241	0.310668	-0.000105
C20	C	0.886246	0.308172	-0.000129
C21	C	1.478718	-0.555451	-0.124702
C22	C	1.478716	-0.555442	0.124505
C23	C	1.481214	-0.461395	0.124506
C24	C	1.482463	-0.414372	-0.000099
C25	C	1.481213	-0.461395	-0.124705
C26	C	1.482451	-0.414363	0.249109
C27	C	1.484948	-0.320311	0.249115
C28	C	1.486205	-0.273287	0.124509
C29	C	1.484957	-0.320316	-0.000102
C30	C	1.486206	-0.273293	-0.124706
C31	C	1.484966	-0.320321	-0.249319
C32	C	1.482471	-0.414371	-0.249311
C33	C	1.488701	-0.179237	0.124501
C34	C	1.488700	-0.179237	-0.124709
C35	C	1.713301	0.127510	-0.000111
C36	C	1.852716	0.130160	-0.000129
C37	C	1.474822	0.297428	-0.000096
C38	C	1.477470	0.397526	-0.000097
N39	N	1.483716	0.132661	0.356024
N40	N	1.483714	0.132644	-0.356213
C41	C	1.569009	0.071925	0.427945
C42	C	1.569006	0.071914	0.571828
C43	C	1.398412	0.193383	0.571856
C44	C	1.398410	0.193389	0.427976
C45	C	1.667504	0.001799	0.427931
C46	C	1.667500	0.001788	0.571814
H47	H	1.129447	-0.013921	-0.000034
C48	C	0.877328	-0.042243	-0.000117
H49	H	0.787809	-0.032161	-0.000148
H50	H	0.904873	-0.075542	0.079597
H51	H	0.904912	-0.075540	-0.079835
H52	H	1.758458	0.023757	0.383299
C53	C	1.477347	-0.607165	0.261558
H54	H	1.475690	-0.669913	0.243713
H55	H	1.404586	-0.585331	0.312769
H56	H	1.550946	-0.598173	0.312740
C57	C	1.627227	-0.086676	0.632100
H58	H	1.609299	-0.126066	0.559384
H59	H	1.553950	-0.073437	0.687062
H60	H	1.693607	-0.115110	0.687034
H61	H	0.844142	0.343863	-0.095796
C62	C	1.304591	0.260183	0.651007
H63	H	1.316810	0.251485	0.746998
H64	H	1.220766	0.249835	0.627430
H65	H	1.318335	0.320449	0.627436
H66	H	1.763851	0.017235	0.610858
H67	H	1.046185	0.347718	0.095561
C68	C	1.064994	0.351421	-0.133410
H69	H	0.995613	0.367846	-0.192795
H70	H	1.123067	0.307968	-0.177693
H71	H	1.105745	0.403606	-0.111981
H72	H	0.840276	0.336802	0.098555
H73	H	1.328947	0.242837	0.369418
C74	C	1.639477	-0.091798	0.375157
H75	H	1.639481	-0.091789	0.277519
H76	H	1.559191	-0.104667	0.407703
H77	H	1.702481	-0.136677	0.407675
H78	H	1.485974	-0.282021	-0.350772
C79	C	1.481141	-0.466101	-0.386371
H80	H	1.482267	-0.424631	-0.460584
H81	H	1.407003	-0.496382	-0.391573
H82	H	1.553364	-0.509202	-0.391521
C83	C	1.477350	-0.607175	-0.261765
H84	H	1.475679	-0.669923	-0.243925
H85	H	1.550932	-0.598178	-0.312969
H86	H	1.404571	-0.585342	-0.312951
C87	C	1.481089	-0.466089	0.386161
H88	H	1.479445	-0.528839	0.368312
H89	H	1.408323	-0.444264	0.437372
H90	H	1.554685	-0.457091	0.437344
C91	C	1.486328	-0.268589	0.386180
H92	H	1.485236	-0.310067	0.460388
H93	H	1.414132	-0.225475	0.391372
H94	H	1.560492	-0.238328	0.391348
H95	H	1.489682	-0.140948	0.225959
H96	H	1.489723	-0.140958	-0.226179
