data_functionalizedCrystal
_audit_creation_method	'MofGen! by Chris Wilmer'
_symmetry_space_group_name_H-M	'P1'
_symmetry_Int_Tables_number	1
_symmetry_cell_setting	triclinic
loop_
_symmetry_equiv_pos_as_xyz
  x,y,z
_cell_length_a	8.559649
_cell_length_b	17.699083
_cell_length_c	16.176319
_cell_angle_alpha	90.001389
_cell_angle_beta	89.994559
_cell_angle_gamma	103.469160
loop_
_atom_site_label
_atom_site_type_symbol
_atom_site_fract_x
_atom_site_fract_y
_atom_site_fract_z
O1	O	0.202110	-0.992507	-0.068628
O2	O	0.702110	-0.492507	0.431372
O3	O	0.228405	-0.770623	-0.068655
O4	O	0.728405	-0.270623	0.431345
O5	O	-0.017421	-0.901113	-0.068638
O6	O	0.482579	-0.401113	0.431362
O7	O	0.447935	-0.862017	-0.068645
O8	O	0.947935	-0.362017	0.431355
O9	O	-0.017436	-0.901098	0.068855
O10	O	0.482564	-0.401098	0.568855
O11	O	0.228389	-0.770608	0.068838
O12	O	0.728389	-0.270608	0.568838
O13	O	0.202094	-0.992492	0.068865
O14	O	0.702094	-0.492492	0.568865
Cu15	Cu	0.215240	-0.881549	0.081406
Cu16	Cu	0.715240	-0.381549	0.581406
Cu17	Cu	0.215259	-0.881566	-0.081196
Cu18	Cu	0.715259	-0.381566	0.418804
O19	O	0.447920	-0.862002	0.068849
O20	O	0.947920	-0.362002	0.568849
C21	C	0.227455	-0.742473	0.000088
C22	C	0.727455	-0.242473	0.500088
C23	C	0.224628	-0.658616	0.000078
C24	C	0.724628	-0.158616	0.500078
C25	C	-0.076970	-0.904069	0.000107
C26	C	0.423030	-0.404069	0.500107
C27	C	-0.254384	-0.912888	0.000104
C28	C	0.245616	-0.412888	0.500104
C29	C	0.203044	-1.020643	0.000120
C30	C	0.703044	-0.520643	0.500120
C31	C	0.205871	-1.104499	0.000125
C32	C	0.705871	-0.604499	0.500125
C33	C	0.507469	-0.859047	0.000101
C34	C	1.007469	-0.359047	0.500101
C35	C	0.684883	-0.850227	0.000099
C36	C	1.184883	-0.350227	0.500099
N37	N	0.215226	-0.881542	0.195771
N38	N	0.715226	-0.381542	0.695771
C39	C	0.368922	-0.601734	0.000076
C40	C	0.868922	-0.101734	0.500076
C41	C	0.366257	-0.522943	0.000087
C42	C	0.866257	-0.022943	0.500087
C43	C	0.219296	-0.501037	0.000094
C44	C	0.719296	-0.001037	0.500094
C45	C	0.074990	-0.557926	0.000098
C46	C	0.574990	-0.057926	0.500098
C47	C	0.077657	-0.636715	0.000093
C48	C	0.577657	-0.136715	0.500093
C49	C	0.064231	-0.240179	0.000118
C50	C	0.564231	0.259821	0.500118
C51	C	0.061575	-0.161383	0.000121
C52	C	0.561575	0.338617	0.500121
C53	C	0.352831	-0.126407	0.000112
C54	C	0.852831	0.373593	0.500112
C55	C	0.355498	-0.205196	0.000108
C56	C	0.855498	0.294804	0.500108
C57	C	0.211193	-0.262078	0.000116
C58	C	0.711193	0.237922	0.500116
C59	C	0.214085	-0.347512	0.000106
C60	C	0.714085	0.152488	0.500106
C61	C	0.216402	-0.415605	0.000098
C62	C	0.716402	0.084395	0.500098
N63	N	0.215260	-0.881580	-0.195561
N64	N	0.715260	-0.381580	0.304439
C65	C	0.106419	-0.939336	0.239043
C66	C	0.606419	-0.439336	0.739043
C67	C	0.106417	-0.939340	0.325590
C68	C	0.606417	-0.439340	0.825590
C69	C	0.215232	-0.881552	0.368864
C70	C	0.715232	-0.381552	0.868864
C71	C	0.324044	-0.823752	0.325586
C72	C	0.824044	-0.323752	0.825586
C73	C	0.324037	-0.823746	0.239041
C74	C	0.824037	-0.323746	0.739041
C75	C	0.324074	-0.823776	0.674614
C76	C	0.824074	-0.323776	1.174614
C77	C	0.324076	-0.823789	0.761166
C78	C	0.824076	-0.323789	1.261166
C79	C	0.106455	-0.939370	0.761164
C80	C	0.606455	-0.439370	1.261164
C81	C	0.106447	-0.939364	0.674618
C82	C	0.606447	-0.439364	1.174618
C83	C	0.215253	-0.881562	0.631348
C84	C	0.715253	-0.381562	1.131348
C85	C	0.215252	-0.881558	0.537504
C86	C	0.715252	-0.381558	1.037504
C87	C	0.215242	-0.881559	0.462706
C88	C	0.715242	-0.381559	0.962706
H89	H	-0.338124	-0.973285	0.000118
H90	H	0.161876	-0.473285	0.500118
H91	H	-0.053271	-0.286484	0.000126
H92	H	0.446729	0.213516	0.500126
O93	O	0.429956	-0.767669	0.197041
O94	O	0.929956	-0.267669	0.697041
C95	C	0.588139	-0.770760	0.218189
C96	C	1.088139	-0.270760	0.718189
H97	H	0.588767	-0.831319	0.241972
H98	H	1.088767	-0.331319	0.741972
H99	H	0.668366	-0.757384	0.161267
H100	H	1.168366	-0.257384	0.661267
H101	H	0.635197	-0.726079	0.268427
H102	H	1.135197	-0.226079	0.768427
O103	O	-0.215010	-0.778233	0.000050
O104	O	0.284990	-0.278233	0.500050
C105	C	-0.054216	-0.785158	0.000066
C106	C	0.445784	-0.285158	0.500066
H107	H	-0.048212	-0.844272	-0.025956
H108	H	0.451788	-0.344272	0.474044
H109	H	0.021581	-0.737295	-0.039861
H110	H	0.521581	-0.237295	0.460139
H111	H	-0.005994	-0.779504	0.066026
H112	H	0.494006	-0.279504	0.566026
H113	H	0.017846	-0.986422	0.639387
H114	H	0.517846	-0.486422	1.139387
O115	O	0.000522	-0.995494	0.803108
O116	O	0.500522	-0.495494	1.303108
C117	C	-0.157657	-0.992375	0.781984
C118	C	0.342343	-0.492375	1.281984
H119	H	-0.157379	-0.963184	0.719148
H120	H	0.342621	-0.463184	1.219148
H121	H	-0.236517	-1.053848	0.779022
H122	H	0.263483	-0.553848	1.279022
H123	H	-0.206981	-0.957573	0.830698
H124	H	0.293019	-0.457573	1.330698
H125	H	0.488595	-0.619562	0.000070
H126	H	0.988595	-0.119562	0.500070
H127	H	0.470330	-0.080083	0.000110
H128	H	0.970330	0.419917	0.500110
O129	O	0.506572	-0.467787	0.000048
O130	O	1.006572	0.032213	0.500048
C131	C	0.636854	-0.504018	0.000057
C132	C	1.136854	-0.004018	0.500057
H133	H	0.596060	-0.565307	-0.025979
H134	H	1.096060	-0.065307	0.474021
H135	H	0.737940	-0.469017	-0.039862
H136	H	1.237940	0.030983	0.460138
H137	H	0.681914	-0.507025	0.066016
H138	H	1.181914	-0.007025	0.566016
H139	H	0.475168	-0.223027	0.000099
H140	H	0.975168	0.276973	0.500099
O141	O	-0.081332	-0.140236	0.000169
O142	O	0.418668	0.359764	0.500169
C143	C	-0.208129	-0.207337	0.000157
C144	C	0.291871	0.292663	0.500157
H145	H	-0.163543	-0.258375	0.026183
H146	H	0.336457	0.241625	0.526183
H147	H	-0.310746	-0.196799	0.040082
H148	H	0.189254	0.303201	0.540082
H149	H	-0.252630	-0.221094	-0.065803
H150	H	0.247370	0.278906	0.434197
O151	O	-0.067630	-0.536515	0.000069
O152	O	0.432370	-0.036515	0.500069
C153	C	-0.039047	-0.454776	0.000091
C154	C	0.460953	0.045224	0.500091
H155	H	0.085748	-0.428982	-0.025942
H156	H	0.585748	0.071018	0.474058
H157	H	-0.133065	-0.436002	-0.039823
H158	H	0.366935	0.063998	0.460177
H159	H	-0.046712	-0.433247	0.066055
H160	H	0.453288	0.066753	0.566055
O161	O	0.429926	-0.767596	0.632717
O162	O	0.929926	-0.267596	1.132717
C163	C	0.525942	-0.716587	0.689474
C164	C	1.025942	-0.216587	1.189474
H165	H	0.527666	-0.747525	0.751160
H166	H	1.027666	-0.247525	1.251160
H167	H	0.653609	-0.697613	0.664463
H168	H	1.153609	-0.197613	1.164463
H169	H	0.474196	-0.663376	0.698693
H170	H	0.974196	-0.163376	1.198693
O171	O	-0.062658	-0.691874	0.000053
O172	O	0.437342	-0.191874	0.500053
C173	C	-0.192944	-0.655646	0.000079
C174	C	0.307056	-0.155646	0.500079
H175	H	-0.152149	-0.594353	-0.025949
H176	H	0.347851	-0.094353	0.474051
H177	H	-0.294022	-0.690642	-0.039838
H178	H	0.205978	-0.190642	0.460162
H179	H	-0.238013	-0.652647	0.066043
H180	H	0.261987	-0.152647	0.566043
H181	H	0.017817	-0.986396	0.203815
H182	H	0.517817	-0.486396	0.703815
O183	O	0.429556	-0.767628	0.803295
O184	O	0.929556	-0.267628	1.303295
C185	C	0.344071	-0.725910	0.853356
C186	C	0.844071	-0.225910	1.353356
H187	H	0.218935	-0.763339	0.866322
H188	H	0.718935	-0.263339	1.366322
H189	H	0.410809	-0.710063	0.914214
H190	H	0.910809	-0.210063	1.414214
H191	H	0.333346	-0.670595	0.820015
H192	H	0.833346	-0.170595	1.320015
H193	H	0.017818	-0.986399	0.360821
H194	H	0.517818	-0.486399	0.860821
H195	H	0.412637	-0.776697	0.360825
H196	H	0.912637	-0.276697	0.860825
