data_functionalizedCrystal
_audit_creation_method	'MofGen! by Chris Wilmer'
_symmetry_space_group_name_H-M	'P1'
_symmetry_Int_Tables_number	1
_symmetry_cell_setting	triclinic
loop_
_symmetry_equiv_pos_as_xyz
  x,y,z
_cell_length_a	10.489746
_cell_length_b	10.489741
_cell_length_c	15.186229
_cell_angle_alpha	90.003995
_cell_angle_beta	90.001037
_cell_angle_gamma	84.540238
loop_
_atom_site_label
_atom_site_type_symbol
_atom_site_fract_x
_atom_site_fract_y
_atom_site_fract_z
O1	O	1.694049	0.179999	0.073169
O2	O	1.322854	0.196885	0.073184
O3	O	1.516898	0.002844	0.073171
O4	O	1.500005	0.374039	0.073182
O5	O	1.516883	0.002839	-0.073287
O6	O	1.322839	0.196880	-0.073274
O7	O	1.694034	0.179994	-0.073288
Zn8	Zn	1.508434	0.188436	-0.096534
Zn9	Zn	1.508454	0.188442	0.096429
O10	O	1.499990	0.374035	-0.073275
C11	C	1.275315	0.195606	-0.000043
C12	C	1.133686	0.191786	-0.000038
C13	C	1.515614	-0.044690	-0.000057
C14	C	1.511797	-0.186320	-0.000056
C15	C	0.980828	0.066062	-0.000054
C16	C	1.058214	0.128917	-0.072261
C17	C	1.058185	0.128951	0.072135
C18	C	0.958723	0.247898	-0.072326
C19	C	0.958688	0.247915	0.072134
C20	C	1.036025	0.310856	-0.000090
C21	C	1.388333	-0.254462	-0.000044
C22	C	1.446649	-0.346586	-0.072258
C23	C	1.446693	-0.346556	0.072138
C24	C	1.570164	-0.276578	-0.072329
C25	C	1.570191	-0.276538	0.072132
C26	C	1.628597	-0.368635	-0.000099
C27	C	1.741573	0.181273	-0.000060
C28	C	1.883202	0.185093	-0.000059
C29	C	1.501273	0.421569	-0.000045
C30	C	1.505091	0.563198	-0.000041
N31	N	1.508430	0.188431	-0.228227
C32	C	1.594388	0.102539	-0.546151
C33	C	1.594384	0.102540	-0.453961
C34	C	1.422506	0.274339	-0.453960
C35	C	1.422517	0.274343	-0.546148
C36	C	1.508456	0.188436	-0.592241
C37	C	1.508442	0.188432	-0.407864
C38	C	1.508437	0.188433	-0.307907
C39	C	1.508462	0.188437	-0.692204
N40	N	1.508468	0.188437	0.228122
H41	H	0.956107	-0.037439	-0.000130
H42	H	0.915194	0.298120	0.133187
H43	H	1.730200	-0.418057	-0.000143
H44	H	1.664359	0.032596	-0.416437
F45	F	1.638425	-0.235954	0.151929
H46	H	1.101634	0.078681	0.133182
F47	F	0.902150	0.313530	-0.152210
H48	H	1.060501	0.414436	-0.000126
F49	F	1.378391	-0.387054	0.151931
F50	F	1.331057	0.365776	-0.595205
H51	H	1.352535	0.344280	-0.416422
H52	H	1.101685	0.078666	-0.133311
F53	F	1.255650	-0.189568	-0.000130
H54	H	1.394402	-0.377600	-0.133305
F55	F	1.638383	-0.236285	-0.152215
H56	H	1.664366	0.032591	-0.583678
