data_functionalizedCrystal
_audit_creation_method	'MofGen! by Chris Wilmer'
_symmetry_space_group_name_H-M	'P1'
_symmetry_Int_Tables_number	1
_symmetry_cell_setting	triclinic
loop_
_symmetry_equiv_pos_as_xyz
  x,y,z
_cell_length_a	10.654562
_cell_length_b	14.853567
_cell_length_c	9.730223
_cell_angle_alpha	90.002458
_cell_angle_beta	89.996961
_cell_angle_gamma	84.062517
loop_
_atom_site_label
_atom_site_type_symbol
_atom_site_fract_x
_atom_site_fract_y
_atom_site_fract_z
O1	O	1.666509	0.126677	-0.114368
O2	O	1.300907	0.138729	-0.114349
O3	O	1.493474	0.001525	-0.114363
O4	O	1.473942	0.263880	-0.114354
O5	O	1.493471	0.001529	0.114217
O6	O	1.300905	0.138732	0.114231
O7	O	1.666506	0.126680	0.114212
Zn8	Zn	1.483705	0.132707	0.150514
Zn9	Zn	1.483708	0.132702	-0.150650
O10	O	1.473940	0.263883	0.114226
C11	C	1.254117	0.137843	-0.000057
C12	C	1.114703	0.135188	-0.000051
C13	C	1.049183	0.133952	0.124537
C14	C	0.918187	0.131465	0.124514
C15	C	0.918240	0.131454	-0.124696
C16	C	1.049235	0.133935	-0.124671
C17	C	1.114651	0.135205	0.249158
C18	C	1.049132	0.133970	0.373757
C19	C	0.918135	0.131483	0.373734
C20	C	0.852658	0.130231	0.249112
C21	C	1.492588	-0.032066	-0.000077
C22	C	1.489936	-0.132164	-0.000089
C23	C	1.364336	-0.545375	-0.000056
C24	C	1.593110	-0.565423	-0.000068
C25	C	1.595603	-0.471376	-0.000076
C26	C	1.482462	-0.414324	-0.000072
C27	C	1.366826	-0.451318	-0.000060
C28	C	1.711237	-0.434374	-0.000074
C29	C	1.713735	-0.340322	-0.000081
C30	C	1.600592	-0.283267	-0.000087
C31	C	1.484952	-0.320268	-0.000077
C32	C	1.371810	-0.263215	-0.000073
C33	C	1.256169	-0.300213	-0.000072
C34	C	1.253683	-0.394264	-0.000067
C35	C	1.603077	-0.189217	-0.000093
C36	C	1.374300	-0.169159	-0.000077
C37	C	1.713296	0.127566	-0.000083
C38	C	1.852711	0.130220	-0.000098
C39	C	1.474826	0.297475	-0.000063
C40	C	1.477478	0.397573	-0.000060
N41	N	1.483712	0.132709	0.356050
N42	N	1.483711	0.132692	-0.356187
C43	C	1.569003	0.071976	0.427970
C44	C	1.568999	0.071965	0.571853
C45	C	1.398412	0.193428	0.571883
C46	C	1.398410	0.193434	0.428003
C47	C	1.654305	0.011252	0.356017
C48	C	1.739603	-0.049485	0.427937
C49	C	1.739600	-0.049496	0.571820
C50	C	1.654299	0.011230	0.643783
H51	H	1.102453	0.134982	0.475218
Cl52	Cl	0.835772	0.129924	0.530368
H53	H	1.328958	0.242887	0.369445
H54	H	1.164049	-0.253749	-0.000060
H55	H	0.745993	0.128203	0.249104
Cl56	Cl	1.279331	0.138339	0.249196
Cl57	Cl	0.835926	0.129874	-0.281351
H58	H	1.654295	0.011210	0.760942
H59	H	1.102581	0.134946	-0.226122
Cl60	Cl	1.232056	-0.097443	-0.000083
H61	H	1.685224	-0.611881	-0.000060
H62	H	1.159534	-0.424397	-0.000065
Cl63	Cl	1.218966	-0.591884	-0.000069
Cl64	Cl	1.846822	-0.125830	0.337473
H65	H	1.803350	-0.480833	-0.000064
H66	H	1.809044	-0.098957	0.630376
Cl67	Cl	1.654318	0.011266	0.175136
Cl68	Cl	1.291187	0.269767	0.662351
H69	H	1.807897	-0.310206	-0.000083
Cl70	Cl	1.748442	-0.142708	-0.000068
