data_functionalizedCrystal
_audit_creation_method	'MofGen! by Chris Wilmer'
_symmetry_space_group_name_H-M	'P1'
_symmetry_Int_Tables_number	1
_symmetry_cell_setting	triclinic
loop_
_symmetry_equiv_pos_as_xyz
  x,y,z
_cell_length_a	19.188933
_cell_length_b	17.666332
_cell_length_c	10.654541
_cell_angle_alpha	89.993802
_cell_angle_beta	96.185251
_cell_angle_gamma	90.007939
loop_
_atom_site_label
_atom_site_type_symbol
_atom_site_fract_x
_atom_site_fract_y
_atom_site_fract_z
O1	O	0.927173	0.062923	-0.156794
O2	O	1.427173	0.562923	0.343206
O3	O	0.724000	0.062930	-0.177897
O4	O	1.224000	0.562930	0.322103
O5	O	0.830259	0.062922	0.015493
O6	O	1.330259	0.562922	0.515493
O7	O	0.820915	0.062931	-0.350184
O8	O	1.320915	0.562931	0.149816
O9	O	0.830240	-0.062975	0.015503
O10	O	1.330240	0.437025	0.515503
O11	O	0.723981	-0.062967	-0.177886
O12	O	1.223981	0.437033	0.322114
O13	O	0.927155	-0.062974	-0.156784
O14	O	1.427155	0.437026	0.343216
Cu15	Cu	0.825566	-0.074466	-0.167334
Cu16	Cu	1.325566	0.425534	0.332666
Cu17	Cu	0.825588	0.074422	-0.167346
Cu18	Cu	1.325588	0.574422	0.332654
O19	O	0.820896	-0.062966	-0.350173
O20	O	1.320896	0.437034	0.149827
C21	C	0.697975	-0.000018	-0.177208
C22	C	1.197975	0.499982	0.322792
C23	C	0.620457	-0.000015	-0.175155
C24	C	1.120457	0.499985	0.324845
C25	C	0.067117	0.068603	-0.160511
C26	C	0.567117	0.568603	0.339489
C27	C	0.139953	0.068606	-0.162432
C28	C	0.639953	0.568606	0.337568
C29	C	0.176366	-0.000020	-0.163393
C30	C	0.676366	0.499980	0.336607
C31	C	0.139939	-0.068655	-0.162400
C32	C	0.639939	0.431345	0.337600
C33	C	0.067104	-0.068656	-0.160466
C34	C	0.567104	0.431344	0.339534
N35	N	0.285866	-0.051100	-0.237884
N36	N	0.785866	0.448900	0.262116
N37	N	0.355055	-0.051094	-0.239724
N38	N	0.855055	0.448906	0.260276
C39	C	0.395813	-0.000022	-0.169216
C40	C	0.895813	0.499978	0.330784
N41	N	0.364767	0.051057	-0.096815
N42	N	0.864767	0.551057	0.403185
N43	N	0.295570	0.051054	-0.094981
N44	N	0.795570	0.551054	0.405019
C45	C	0.255343	-0.000027	-0.165489
C46	C	0.755343	0.499973	0.334511
C47	C	0.511211	0.068611	-0.172283
C48	C	1.011211	0.568611	0.327717
C49	C	0.584049	0.068612	-0.174196
C50	C	1.084049	0.568612	0.325804
C51	C	0.584032	-0.068651	-0.174177
C52	C	1.084032	0.431349	0.325823
C53	C	0.511196	-0.068649	-0.172251
C54	C	1.011196	0.431351	0.327749
C55	C	0.474789	-0.000016	-0.171310
C56	C	0.974789	0.499984	0.328690
N57	N	0.825556	-0.179185	-0.167325
N58	N	1.325556	0.320815	0.332675
C59	C	0.872623	-0.218799	-0.081734
C60	C	1.372623	0.281201	0.418266
C61	C	0.872627	-0.298046	-0.081727
C62	C	1.372627	0.201954	0.418273
C63	C	0.825570	-0.337677	-0.167334
C64	C	1.325570	0.162323	0.332666
C65	C	0.778495	-0.298054	-0.252932
C66	C	1.278495	0.201946	0.247068
C67	C	0.778487	-0.218808	-0.252927
C68	C	1.278487	0.281192	0.247073
N69	N	0.817221	-0.462093	-0.278501
N70	N	1.317221	0.037907	0.221499
N71	N	0.817232	-0.537373	-0.278502
N72	N	1.317232	-0.037373	0.221498
C73	C	0.825589	-0.576441	-0.167352
C74	C	1.325589	-0.076441	0.332648
N75	N	0.833948	-0.537385	-0.056198
N76	N	1.333948	-0.037385	0.443802
N77	N	0.833940	-0.462098	-0.056198
N78	N	1.333940	0.037902	0.443802
C79	C	0.825573	-0.423607	-0.167348
C80	C	1.325573	0.076393	0.332652
C81	C	0.872663	-0.701984	-0.081747
C82	C	1.372663	-0.201984	0.418253
C83	C	0.872662	-0.781233	-0.081739
C84	C	1.372662	-0.281233	0.418261
C85	C	0.778533	-0.781240	-0.252955
C86	C	1.278533	-0.281240	0.247045
C87	C	0.778531	-0.701992	-0.252952
C88	C	1.278531	-0.201992	0.247048
C89	C	0.825599	-0.662369	-0.167349
C90	C	1.325599	-0.162369	0.332651
C91	C	0.953179	-0.000025	-0.157473
C92	C	1.453179	0.499975	0.342527
C93	C	1.030697	-0.000022	-0.159525
C94	C	1.530697	0.499978	0.340475
C95	C	0.829564	-0.000026	0.062282
C96	C	1.329564	0.499974	0.562282
C97	C	0.827512	-0.000025	0.201682
C98	C	1.327512	0.499975	0.701682
N99	N	0.825605	0.179141	-0.167345
N100	N	1.325605	0.679141	0.332655
C101	C	0.821591	-0.000016	-0.396962
C102	C	1.321591	0.499984	0.103038
C103	C	0.823643	-0.000012	-0.536362
C104	C	1.323643	0.499988	-0.036362
C105	C	0.954573	-0.000039	0.232340
C106	C	1.454573	0.499961	0.732340
C107	C	1.017137	-0.000048	0.313157
C108	C	1.517137	0.499952	0.813157
C109	C	1.015205	-0.000045	0.444134
C110	C	1.515205	0.499955	0.944134
C111	C	0.950702	-0.000032	0.494295
C112	C	1.450702	0.499968	0.994295
C113	C	0.888138	-0.000023	0.413478
C114	C	1.388138	0.499977	0.913478
C115	C	0.890077	-0.000028	0.282500
C116	C	1.390077	0.499972	0.782500
C117	C	0.761079	-0.000004	0.382821
C118	C	1.261079	0.499996	0.882821
C119	C	0.763009	-0.000012	0.251843
C120	C	1.263009	0.499988	0.751843
C121	C	0.696576	0.000009	0.432982
C122	C	1.196576	0.500009	0.932982
C123	C	0.634011	0.000012	0.352164
C124	C	1.134011	0.500012	0.852164
C125	C	0.635945	0.000009	0.221179
C126	C	1.135945	0.500009	0.721179
C127	C	0.700445	-0.000003	0.171026
C128	C	1.200445	0.499997	0.671026
H129	H	0.613701	0.124497	-0.174989
H130	H	1.113701	0.624497	0.325011
H131	H	0.037452	-0.124540	-0.159668
H132	H	0.537452	0.375460	0.340332
F133	F	0.622782	-0.141688	-0.175183
F134	F	1.122782	0.358312	0.324817
F135	F	0.472433	-0.141690	-0.171219
F136	F	0.972433	0.358310	0.328781
F137	F	0.472462	0.141656	-0.171274
F138	F	0.972462	0.641656	0.328726
F139	F	0.694521	0.000051	0.572380
F140	F	1.194521	0.500051	1.072380
H141	H	0.910947	-0.186540	-0.012028
H142	H	1.410947	0.313460	0.487972
H143	H	0.740179	-0.330326	-0.322633
H144	H	1.240179	0.169674	0.177367
H145	H	0.581497	0.000028	0.393017
H146	H	1.081497	0.500028	0.893017
F147	F	0.922725	-0.340213	0.009375
F148	F	1.422725	0.159787	0.509375
F149	F	0.956635	-0.000056	0.092943
F150	F	1.456635	0.499944	0.592943
F151	F	0.922754	-0.659813	0.009364
F152	F	1.422754	-0.159813	0.509364
F153	F	0.728390	-0.176647	-0.344029
F154	F	1.228390	0.323353	0.155971
F155	F	0.028374	0.141649	-0.159502
F156	F	0.528374	0.641649	0.340498
H157	H	0.910988	-0.813487	-0.012034
H158	H	1.410988	-0.313487	0.487966
H159	H	0.740217	-0.813507	-0.322653
H160	H	1.240217	-0.313507	0.177347
F161	F	0.728439	-0.659830	-0.344055
F162	F	1.228439	-0.159830	0.155945
H163	H	0.584998	0.000019	0.155384
H164	H	1.084998	0.500019	0.655384
H165	H	0.949135	-0.000021	0.600945
H166	H	1.449135	0.499979	1.100945
F167	F	0.702510	-0.000012	0.031630
F168	F	1.202510	0.499988	0.531630
F169	F	1.081792	-0.000048	0.530148
F170	F	1.581792	0.499952	1.030148
F171	F	1.085782	-0.000058	0.259763
F172	F	1.585782	0.499942	0.759763
H173	H	0.169591	-0.124530	-0.163180
H174	H	0.669591	0.375470	0.336820
F175	F	0.178721	0.141649	-0.163482
F176	F	0.678721	0.641649	0.336518
