data_functionalizedCrystal
_audit_creation_method	'MofGen! by Chris Wilmer'
_symmetry_space_group_name_H-M	'P1'
_symmetry_Int_Tables_number	1
_symmetry_cell_setting	triclinic
loop_
_symmetry_equiv_pos_as_xyz
  x,y,z
_cell_length_a	12.811457
_cell_length_b	12.837942
_cell_length_c	11.892095
_cell_angle_alpha	85.697431
_cell_angle_beta	91.498327
_cell_angle_gamma	90.588063
loop_
_atom_site_label
_atom_site_type_symbol
_atom_site_fract_x
_atom_site_fract_y
_atom_site_fract_z
O1	O	1.403418	-0.143175	0.049870
O2	O	1.903418	0.356825	0.549870
O3	O	1.101350	-0.156192	0.018901
O4	O	1.601350	0.343808	0.518901
O5	O	1.245685	0.001296	0.033706
O6	O	1.745685	0.501296	0.533706
O7	O	1.259082	-0.300663	0.035066
O8	O	1.759082	0.199337	0.535066
O9	O	1.233649	-0.011815	0.220479
O10	O	1.733649	0.488185	0.720479
O11	O	1.089313	-0.169303	0.205674
O12	O	1.589313	0.330697	0.705674
O13	O	1.391381	-0.156286	0.236643
O14	O	1.891381	0.343714	0.736643
Zn15	Zn	1.238436	-0.164876	0.250813
Zn16	Zn	1.738436	0.335124	0.750813
Zn17	Zn	1.254295	-0.147602	0.004732
Zn18	Zn	1.754295	0.352398	0.504732
O19	O	1.247046	-0.313774	0.221838
O20	O	1.747046	0.186226	0.721838
C21	C	1.056400	-0.161616	0.108296
C22	C	1.556400	0.338384	0.608296
C23	C	0.940394	-0.158233	0.096403
C24	C	1.440394	0.341767	0.596403
C25	C	0.709282	-0.166152	0.277697
C26	C	1.209282	0.333848	0.777697
C27	C	0.600284	-0.162973	0.266528
C28	C	1.100284	0.337027	0.766528
C29	C	0.613398	-0.148690	0.062897
C30	C	1.113398	0.351310	0.562897
C31	C	0.722396	-0.151869	0.074066
C32	C	1.222396	0.348131	0.574066
C33	C	0.770334	-0.160601	0.181470
C34	C	1.270334	0.339399	0.681470
C35	C	0.879334	-0.163787	0.192638
C36	C	1.379334	0.336213	0.692638
C37	C	0.892446	-0.149497	-0.010992
C38	C	1.392446	0.350503	0.489008
C39	C	0.783448	-0.146318	-0.022161
C40	C	1.283448	0.353682	0.477839
C41	C	1.235142	0.033413	0.126628
C42	C	1.735142	0.533413	0.626628
C43	C	1.221645	0.148646	0.125242
C44	C	1.721645	0.648646	0.625242
C45	C	1.436332	-0.150862	0.147246
C46	C	1.936332	0.349138	0.647246
C47	C	1.552338	-0.154244	0.159132
C48	C	2.052338	0.345756	0.659132
C49	C	1.257590	-0.345891	0.128914
C50	C	1.757590	0.154109	0.628914
C51	C	1.271087	-0.461124	0.130292
C52	C	1.771087	0.038876	0.630292
N53	N	1.227621	-0.176664	0.418758
N54	N	1.727621	0.323336	0.918758
C55	C	1.383903	0.387735	0.141854
C56	C	1.883903	0.887735	0.641854
C57	C	1.371227	0.496007	0.140552
C58	C	1.871227	0.996007	0.640552
C59	C	1.183617	0.473465	0.121330
C60	C	1.683617	0.973465	0.621330
C61	C	1.196293	0.365193	0.122631
C62	C	1.696293	0.865193	0.622631
C63	C	1.296440	0.322332	0.132895
C64	C	1.796440	0.822332	0.632895
C65	C	1.309115	0.214057	0.134205
C66	C	1.809115	0.714057	0.634205
C67	C	1.121506	0.191518	0.114974
C68	C	1.621506	0.691518	0.614974
C69	C	1.108830	0.299790	0.113673
C70	C	1.608830	0.799790	0.613673
N71	N	1.265118	-0.135806	-0.163212
N72	N	1.765118	0.364194	0.336788
C73	C	1.340371	-0.053718	0.666970
C74	C	1.840371	0.446282	1.166970
C75	C	1.332819	-0.061965	0.784538
C76	C	1.832819	0.438035	1.284538
C77	C	1.204961	-0.201401	0.771461
C78	C	1.704961	0.298599	1.271461
C79	C	1.212513	-0.193154	0.653894
C80	C	1.712513	0.306846	1.153894
C81	C	1.280221	-0.119311	0.601653
C82	C	1.780221	0.380689	1.101653
C83	C	1.287778	-0.111069	0.484084
C84	C	1.787778	0.388931	0.984084
C85	C	1.159914	-0.250499	0.471009
C86	C	1.659914	0.249501	0.971009
C87	C	1.152363	-0.258747	0.588576
C88	C	1.652363	0.241253	1.088576
H89	H	0.550579	-0.167498	0.344887
H90	H	1.050579	0.332502	0.844887
H91	H	0.942166	-0.144984	-0.089348
H92	H	1.442166	0.355016	0.410652
N93	N	0.561680	-0.139281	-0.052935
N94	N	1.061680	0.360719	0.447065
H95	H	0.616894	-0.136250	-0.112205
H96	H	1.116894	0.363750	0.387795
H97	H	0.518816	-0.073452	-0.061792
H98	H	1.018816	0.426548	0.438208
H99	H	1.027293	0.334703	0.105312
H100	H	1.527293	0.834703	0.605312
N101	N	1.095022	-0.321239	0.400555
N102	N	1.595022	0.178761	0.900555
H103	H	1.050985	-0.369266	0.451494
H104	H	1.550985	0.130734	0.951494
H105	H	1.142645	-0.364182	0.356326
H106	H	1.642645	0.135818	0.856326
H107	H	1.097233	-0.318866	0.631124
H108	H	1.597233	0.181134	1.131124
N109	N	1.131948	-0.281039	0.827835
N110	N	1.631948	0.218961	1.327835
H111	H	1.152593	-0.353408	0.809362
H112	H	1.652593	0.146592	1.309362
H113	H	1.058060	-0.266678	0.799668
H114	H	1.558060	0.233322	1.299668
H115	H	1.050286	0.138254	0.107688
H116	H	1.550286	0.638254	0.607688
H117	H	1.390659	0.179162	0.142567
H118	H	1.890659	0.679162	0.642567
H119	H	0.918363	-0.170904	0.280091
H120	H	1.418363	0.329096	0.780091
H121	H	0.748313	-0.173275	0.365149
H122	H	1.248313	0.326725	0.865149
N123	N	0.731731	-0.136895	-0.137993
N124	N	1.231731	0.363105	0.362007
H125	H	0.684725	-0.199452	-0.147375
H126	H	1.184725	0.300548	0.352625
H127	H	0.787009	-0.133828	-0.197191
H128	H	1.287009	0.366172	0.302809
H129	H	1.395509	0.006402	0.624436
H130	H	1.895509	0.506402	1.124436
H131	H	1.465446	0.352836	0.150222
H132	H	1.965446	0.852836	0.650222
N133	N	1.465561	0.566551	0.150213
N134	N	1.965561	1.066551	0.650213
H135	H	1.530923	0.522965	0.156912
H136	H	2.030923	1.022965	0.656912
H137	H	1.459930	0.607108	0.219331
H138	H	1.959930	1.107108	0.719331
N139	N	1.360806	-0.031432	0.427734
N140	N	1.860806	0.468568	0.927734
H141	H	1.397762	0.008871	0.486956
H142	H	1.897762	0.508871	0.986956
H143	H	1.319446	0.018350	0.374402
H144	H	1.819446	0.518350	0.874402
H145	H	1.102083	0.508383	0.112961
H146	H	1.602083	1.008383	0.612961
N147	N	1.397704	0.008772	0.854991
N148	N	1.897704	0.508772	1.354991
H149	H	1.441743	0.056796	0.804053
H150	H	1.941743	0.556796	1.304053
H151	H	1.444630	-0.034948	0.908883
H152	H	1.944630	0.465052	1.408883
