data_functionalizedCrystal
_audit_creation_method	'MofGen! by Chris Wilmer'
_symmetry_space_group_name_H-M	'P1'
_symmetry_Int_Tables_number	1
_symmetry_cell_setting	triclinic
loop_
_symmetry_equiv_pos_as_xyz
  x,y,z
_cell_length_a	18.215407
_cell_length_b	13.897448
_cell_length_c	18.215407
_cell_angle_alpha	90.007314
_cell_angle_beta	90.009795
_cell_angle_gamma	90.018140
loop_
_atom_site_label
_atom_site_type_symbol
_atom_site_fract_x
_atom_site_fract_y
_atom_site_fract_z
Zn1	Zn	1.125036	-0.384194	0.416124
Zn2	Zn	1.124981	-0.545450	0.293061
Zn3	Zn	1.001990	-0.384172	0.293071
Zn4	Zn	1.001950	-0.545450	0.416086
O5	O	1.063489	-0.464817	0.354586
O6	O	1.228013	-0.405595	0.399811
O7	O	1.108660	-0.524047	0.190078
O8	O	1.018352	-0.249194	0.309415
O9	O	1.227973	-0.524069	0.309397
O10	O	1.108753	-0.249210	0.399821
O11	O	1.018299	-0.405557	0.190086
O12	O	0.899000	-0.405557	0.309378
O13	O	1.018283	-0.524068	0.519075
O14	O	0.898971	-0.524047	0.399756
O15	O	1.108714	-0.405594	0.519103
O16	O	1.108621	-0.680432	0.309361
O17	O	1.018230	-0.680432	0.399746
C18	C	0.872283	-0.464800	0.354565
C19	C	0.790484	-0.464816	0.354573
C20	C	0.602294	-0.526611	0.401574
C21	C	0.525435	-0.526614	0.401583
C22	C	0.525436	-0.403040	0.307613
C23	C	0.602294	-0.403033	0.307609
C24	C	0.640721	-0.464824	0.354588
C25	C	0.487004	-0.464834	0.354602
C26	C	0.403671	-0.464837	0.354611
C27	C	0.724059	-0.464820	0.354579
C28	C	1.063435	-0.715431	0.354564
C29	C	1.063480	-0.822645	0.354580
C30	C	1.063557	-1.018940	0.354626
C31	C	1.063512	-0.909708	0.354603
C32	C	1.255442	-0.464834	0.354607
C33	C	1.337241	-0.464841	0.354616
C34	C	1.063500	-0.464834	0.546539
C35	C	1.063505	-0.464841	0.628337
C36	C	1.063563	-0.213224	0.354623
C37	C	1.063595	-0.106010	0.354639
C38	C	1.110545	-0.526520	0.893395
C39	C	1.110547	-0.526524	0.816537
C40	C	1.016444	-0.403147	0.816528
C41	C	1.016439	-0.403148	0.893385
C42	C	1.063494	-0.464833	0.931817
C43	C	1.063501	-0.464836	0.778101
C44	C	1.063502	-0.464841	0.694767
C45	C	1.063492	-0.464830	1.015156
C46	C	1.063478	-0.464825	1.163379
C47	C	1.063489	-0.464829	1.081580
H48	H	0.494140	-0.352733	0.269364
H49	H	0.633581	-0.352712	0.269347
O50	O	1.156185	-0.586414	0.779101
C51	C	1.146113	-0.573175	0.703023
H52	H	1.089327	-0.541587	0.692515
H53	H	1.189778	-0.521808	0.681225
C54	C	1.222585	-0.709571	0.676464
C55	C	1.152836	-0.670782	0.663558
H56	H	1.226734	-0.769778	0.652119
H57	H	1.229373	-0.718489	0.727719
H58	H	1.258964	-0.666756	0.658299
H59	H	1.116458	-0.713591	0.681731
H60	H	1.146042	-0.661874	0.612305
O61	O	0.970812	-0.343254	0.779080
C62	C	0.980893	-0.356493	0.703004
H63	H	1.037680	-0.388086	0.692517
H64	H	0.937230	-0.407858	0.681176
C65	C	0.904432	-0.220091	0.676435
C66	C	0.974181	-0.258887	0.663555
H67	H	0.900288	-0.159884	0.652100
H68	H	0.897637	-0.211173	0.727689
H69	H	0.868053	-0.262904	0.658245
H70	H	1.010558	-0.216080	0.681753
H71	H	0.980981	-0.267795	0.612303
H72	H	0.978121	-0.352914	0.924669
O73	O	0.488027	-0.586684	0.447122
C74	C	0.443559	-0.648915	0.405144
H75	H	0.432035	-0.614778	0.349420
H76	H	0.473163	-0.720378	0.396960
C77	C	0.384714	-0.708399	0.514063
C78	C	0.370555	-0.666467	0.445623
H79	H	0.339683	-0.719230	0.539033
H80	H	0.414674	-0.666475	0.542345
H81	H	0.409385	-0.767947	0.507233
H82	H	0.345893	-0.606915	0.452454
H83	H	0.340589	-0.708381	0.417344
H84	H	1.148859	-0.576749	0.924684
O85	O	0.639590	-0.586522	0.447318
C86	C	0.620815	-0.565605	0.520693
H87	H	0.599703	-0.488556	0.524506
H88	H	0.576197	-0.617362	0.539866
C89	C	0.715028	-0.671557	0.565107
C90	C	0.689104	-0.576920	0.569792
H91	H	0.757150	-0.678540	0.595395
H92	H	0.727676	-0.685652	0.515673
H93	H	0.677840	-0.714677	0.581083
H94	H	0.726289	-0.533803	0.553806
H95	H	0.676464	-0.562818	0.619224
