data_functionalizedCrystal
_audit_creation_method	'MofGen! by Chris Wilmer'
_symmetry_space_group_name_H-M	'P1'
_symmetry_Int_Tables_number	1
_symmetry_cell_setting	triclinic
loop_
_symmetry_equiv_pos_as_xyz
  x,y,z
_cell_length_a	17.077404
_cell_length_b	13.031981
_cell_length_c	17.077396
_cell_angle_alpha	97.212086
_cell_angle_beta	90.019777
_cell_angle_gamma	97.186978
loop_
_atom_site_label
_atom_site_type_symbol
_atom_site_fract_x
_atom_site_fract_y
_atom_site_fract_z
Zn1	Zn	1.160402	-0.416236	0.404113
Zn2	Zn	1.143657	-0.591030	0.256161
Zn3	Zn	1.029132	-0.416258	0.272859
Zn4	Zn	1.012457	-0.590953	0.387391
O5	O	1.086412	-0.503619	0.330131
O6	O	1.268025	-0.439446	0.384497
O7	O	1.128436	-0.567888	0.148525
O8	O	1.060531	-0.269993	0.304256
O9	O	1.255723	-0.567866	0.275798
O10	O	1.156975	-0.269977	0.400688
O11	O	1.044294	-0.439483	0.160793
O12	O	0.917075	-0.439409	0.288041
O13	O	1.032112	-0.567735	0.499461
O14	O	0.904825	-0.567757	0.372188
O15	O	1.140806	-0.439372	0.511746
O16	O	1.112267	-0.737282	0.259583
O17	O	1.015875	-0.737226	0.355997
C18	C	0.882468	-0.503578	0.330113
C19	C	0.795218	-0.503585	0.330121
C20	C	0.413027	-0.570600	0.373876
C21	C	0.495009	-0.570586	0.373865
C22	C	0.542363	-0.503647	0.330141
C23	C	0.507730	-0.436725	0.286419
C24	C	0.425749	-0.436745	0.286425
C25	C	0.678604	-0.436687	0.286409
C26	C	0.760591	-0.436666	0.286403
C27	C	0.747864	-0.570528	0.373849
C28	C	0.665883	-0.570548	0.373856
C29	C	0.631256	-0.503624	0.330134
C30	C	1.060466	-0.775178	0.304181
C31	C	1.049438	-0.891352	0.293105
C32	C	1.092209	-0.943055	0.335927
C33	C	1.080813	-1.063127	0.324481
C34	C	1.291152	-0.503662	0.330150
C35	C	1.378400	-0.503681	0.330158
C36	C	1.086467	-0.503542	0.534883
C37	C	1.086490	-0.503510	0.622136
C38	C	1.112481	-0.231000	0.356200
C39	C	1.123589	-0.114826	0.367309
C40	C	1.086410	-0.503621	0.126183
C41	C	1.086567	-0.503359	0.038959
C42	C	1.143090	-0.436665	0.669525
C43	C	1.143102	-0.436630	0.751509
C44	C	1.086519	-0.503446	0.786101
C45	C	1.029913	-0.570294	0.738706
C46	C	1.029898	-0.570322	0.656725
C47	C	1.029951	-0.570231	0.909582
C48	C	1.029967	-0.570204	0.991570
C49	C	1.143156	-0.436539	1.004367
C50	C	1.143140	-0.436567	0.922385
C51	C	1.086536	-0.503417	0.874995
H52	H	0.650414	-0.382188	0.250808
H53	H	0.776061	-0.625017	0.409451
H54	H	0.983890	-0.624609	1.019733
H55	H	0.983839	-0.624692	0.766878
O56	O	0.968896	-0.642323	0.858465
H57	H	0.929555	-0.688786	0.896291
H58	H	1.137262	-0.898429	0.381066
H59	H	1.004380	-0.935980	0.247974
H60	H	0.983802	-0.624744	0.618142
H61	H	0.374478	-0.625103	0.409486
H62	H	0.523198	-0.625081	0.409462
O63	O	1.021135	-1.122231	0.264682
H64	H	0.976491	-1.171987	0.295065
H65	H	0.627330	-0.625051	0.409464
O66	O	0.811665	-0.364471	0.239241
H67	H	0.844549	-0.411180	0.194789
O68	O	0.558796	-0.364526	0.239253
H69	H	0.601223	-0.311391	0.279526
H70	H	1.168645	-1.070203	0.412451
O71	O	1.204120	-0.364599	0.632215
H72	H	1.243474	-0.318106	0.678945
O73	O	0.388386	-0.364577	0.239273
H74	H	0.411933	-0.282560	0.260673
H75	H	1.189220	-0.382166	0.894222
H76	H	1.189193	-0.382201	0.790090
O77	O	1.204204	-0.364424	1.055473
H78	H	1.194704	-0.375615	1.118293
