data_functionalizedCrystal
_audit_creation_method	'MofGen! by Chris Wilmer'
_symmetry_space_group_name_H-M	'P1'
_symmetry_Int_Tables_number	1
_symmetry_cell_setting	triclinic
loop_
_symmetry_equiv_pos_as_xyz
  x,y,z
_cell_length_a	14.971486
_cell_length_b	9.730217
_cell_length_c	14.971486
_cell_angle_alpha	90.003462
_cell_angle_beta	83.614129
_cell_angle_gamma	89.996453
loop_
_atom_site_label
_atom_site_type_symbol
_atom_site_fract_x
_atom_site_fract_y
_atom_site_fract_z
O1	O	1.186941	0.114133	0.116561
O2	O	0.926541	0.114170	0.130520
O3	O	1.063720	0.114141	-0.006660
O4	O	1.049761	0.114162	0.253741
O5	O	1.063716	-0.114440	-0.006661
O6	O	0.926537	-0.114410	0.130519
O7	O	1.186937	-0.114448	0.116560
Zn8	Zn	1.056736	-0.150721	0.123539
Zn9	Zn	1.056741	0.150443	0.123541
O10	O	1.049757	-0.114418	0.253739
C11	C	0.893214	-0.000115	0.129895
C12	C	0.793917	-0.000101	0.128024
N13	N	1.056739	-0.356257	0.123537
C14	C	0.736692	-0.000096	0.208614
C15	C	0.643392	-0.000117	0.206850
C16	C	0.607320	-0.000133	0.124497
C17	C	0.664552	-0.000141	0.043902
C18	C	0.757850	-0.000131	0.045666
C19	C	0.470090	-0.000161	0.040231
C20	C	0.376786	-0.000169	0.038466
C21	C	0.355632	-0.000147	0.201415
C22	C	0.448930	-0.000136	0.203179
C23	C	0.506156	-0.000143	0.122584
C24	C	1.178260	-0.356274	0.002100
C25	C	1.239027	-0.428222	-0.058616
C26	C	1.239037	-0.572102	-0.058617
C27	C	1.178270	-0.644037	0.002104
C28	C	1.117503	-0.572089	0.062820
C29	C	1.117503	-0.428206	0.062816
C30	C	0.995979	-0.572072	0.184251
C31	C	0.995973	-0.428192	0.184258
C32	C	0.935213	-0.644007	0.244972
C33	C	0.874449	-0.572058	0.305694
C34	C	0.874443	-0.428170	0.305692
C35	C	0.935206	-0.356244	0.244974
C36	C	1.220263	-0.000159	0.117185
C37	C	1.319561	-0.000164	0.119056
C38	C	1.063094	-0.000149	-0.039985
C39	C	1.061223	-0.000148	-0.139282
N40	N	1.056746	0.355980	0.123535
C41	C	1.141812	-0.000160	-0.196507
C42	C	1.140049	-0.000146	-0.289807
C43	C	1.057696	-0.000129	-0.325879
C44	C	0.977101	-0.000112	-0.268646
C45	C	0.978865	-0.000117	-0.175349
C46	C	0.973430	-0.000107	-0.463109
C47	C	0.971665	-0.000105	-0.556413
C48	C	1.134614	-0.000136	-0.577567
C49	C	1.136378	-0.000141	-0.484269
C50	C	1.055782	-0.000126	-0.427043
C51	C	1.050384	-0.000125	0.287065
C52	C	1.052254	-0.000118	0.386362
H53	H	0.766054	-0.000083	0.275675
H54	H	0.804443	-0.000134	-0.019958
C55	C	0.807607	-0.349038	0.372501
N56	N	0.757272	-0.289441	0.422829
H57	H	1.178274	-0.761191	0.002092
H58	H	0.935209	-0.239089	0.244971
H59	H	1.178267	-0.239120	0.002102
H60	H	1.288501	-0.369641	-0.108056
H61	H	0.309033	-0.000148	0.267039
H62	H	0.596802	-0.000112	0.272474
C63	C	1.228704	-0.000182	-0.352751
N64	N	1.295483	-0.000216	-0.400161
C65	C	0.488607	-0.000125	0.293772
N66	N	0.518491	-0.000124	0.362008
C67	C	0.881072	-0.000069	-0.596090
N68	N	0.812837	-0.000037	-0.625975
C69	C	0.533037	-0.000162	-0.048429
N70	N	0.580449	-0.000154	-0.115207
H71	H	1.288515	-0.630683	-0.108060
C72	C	0.884769	-0.000098	-0.400162
N73	N	0.817992	-0.000102	-0.352750
C74	C	0.935213	-0.802278	0.244958
N75	N	0.935211	-0.921491	0.244947
C76	C	0.337109	-0.000189	-0.052126
N77	N	0.307224	-0.000203	-0.120362
H78	H	0.824973	-0.630637	0.355124
H79	H	0.635175	-0.000174	-0.023152
H80	H	1.208874	-0.000182	-0.167145
H81	H	1.203437	-0.000164	-0.454903
H82	H	1.200238	-0.000144	-0.624165
H83	H	0.910047	-0.000090	-0.298024
H84	H	0.913240	-0.000106	-0.128756
