data_functionalizedCrystal
_audit_creation_method	'MofGen! by Chris Wilmer'
_symmetry_space_group_name_H-M	'P1'
_symmetry_Int_Tables_number	1
_symmetry_cell_setting	triclinic
loop_
_symmetry_equiv_pos_as_xyz
  x,y,z
_cell_length_a	18.101395
_cell_length_b	16.959455
_cell_length_c	16.959447
_cell_angle_alpha	89.985678
_cell_angle_beta	90.029468
_cell_angle_gamma	89.971949
loop_
_atom_site_label
_atom_site_type_symbol
_atom_site_fract_x
_atom_site_fract_y
_atom_site_fract_z
Zn1	Zn	-0.294875	-1.208323	0.446913
Zn2	Zn	-0.418728	-1.208220	0.314737
Zn3	Zn	-0.294899	-1.076152	0.314751
Zn4	Zn	-0.418673	-1.076091	0.446875
O5	O	-0.356794	-1.142196	0.380819
O6	O	-0.311318	-1.318920	0.429390
O7	O	-0.402335	-1.190683	0.204128
O8	O	-0.191263	-1.093753	0.332304
O9	O	-0.402312	-1.318845	0.332280
O10	O	-0.191246	-1.190859	0.429404
O11	O	-0.311358	-1.093653	0.204138
O12	O	-0.311304	-0.965533	0.332267
O13	O	-0.402218	-1.093649	0.557491
O14	O	-0.402241	-0.965488	0.429339
O15	O	-0.311264	-1.190800	0.557519
O16	O	-0.522354	-1.190624	0.332243
O17	O	-0.522313	-1.093550	0.429325
C18	C	-0.356769	-0.936830	0.380801
C19	C	-0.356777	-0.848974	0.380812
C20	C	-0.549204	-1.142091	0.380796
C21	C	-0.631518	-1.142118	0.380812
C22	C	-0.356732	-1.142229	0.586987
C23	C	-0.356706	-1.142243	0.674844
C24	C	-0.930609	-1.142291	0.380855
C25	C	-0.899289	-1.081356	0.442088
C26	C	-0.813671	-1.081066	0.441896
C27	C	-0.782227	-1.142205	0.380834
C28	C	-0.813380	-1.119658	0.297530
C29	C	-0.899025	-1.119266	0.297896
C30	C	-0.898956	-1.225907	0.402193
C31	C	-0.813305	-1.225415	0.404020
C32	C	-0.698367	-1.142158	0.380818
C33	C	-1.014469	-1.142337	0.380866
C34	C	-0.163632	-1.142324	0.380860
C35	C	-0.081318	-1.142379	0.380877
C36	C	-0.356819	-1.348365	0.380838
C37	C	-0.356830	-1.436221	0.380846
C38	C	-0.309404	-0.477497	0.330380
C39	C	-0.404244	-0.477499	0.431304
C40	C	-0.404234	-0.560045	0.431299
C41	C	-0.356808	-0.601321	0.380833
C42	C	-0.309394	-0.560050	0.330372
C43	C	-0.451653	-0.601321	0.481754
C44	C	-0.451644	-0.683872	0.481750
C45	C	-0.404215	-0.725150	0.431287
C46	C	-0.356798	-0.683874	0.380825
C47	C	-0.309373	-0.725150	0.330359
C48	C	-0.261951	-0.683876	0.279899
C49	C	-0.261964	-0.601327	0.279909
C50	C	-0.404202	-0.807698	0.431278
C51	C	-0.309362	-0.807703	0.330351
C52	C	-0.356801	-1.142209	0.175453
C53	C	-0.356619	-1.142348	0.087597
C54	C	-0.403984	-1.091756	1.046308
C55	C	-0.309273	-1.192920	1.046332
C56	C	-0.309289	-1.192899	0.963786
C57	C	-0.356653	-1.142306	0.922497
C58	C	-0.404002	-1.091735	0.963754
C59	C	-0.261946	-1.243475	0.922523
C60	C	-0.261960	-1.243456	0.839972
C61	C	-0.309322	-1.192859	0.798681
C62	C	-0.356672	-1.142285	0.839944
C63	C	-0.404037	-1.091693	0.798655
C64	C	-0.451384	-1.041115	0.839915
C65	C	-0.451364	-1.041138	0.922464
C66	C	-0.309342	-1.192836	0.716133
C67	C	-0.404055	-1.091672	0.716101
H68	H	-0.792606	-1.095172	0.503666
Br69	Br	-0.933535	-1.104627	0.545379
Br70	Br	-0.244990	-0.863714	0.261864
H71	H	-0.270794	-1.234018	0.682542
Br72	Br	-0.197677	-1.312140	0.978560
H73	H	-0.442619	-1.050466	0.682489
Br74	Br	-0.935283	-0.978685	0.418848
H75	H	-0.793014	-1.162645	0.250663
Br76	Br	-0.934869	-1.260172	0.501714
H77	H	-0.490257	-0.717471	0.522838
Br78	Br	-0.197598	-0.739903	0.211405
Br79	Br	-0.197704	-1.312095	0.783982
H80	H	-0.490269	-0.567709	0.522835
H81	H	-0.489951	-0.999926	0.806287
H82	H	-0.919210	-1.271306	0.357595
H83	H	-0.223357	-0.567715	0.238827
Br84	Br	-0.468560	-0.863710	0.499745
H85	H	-0.270715	-1.234114	1.079954
H86	H	-0.793246	-1.019089	0.427762
H87	H	-0.792941	-1.242417	0.465328
H88	H	-0.919066	-1.058143	0.279821
H89	H	-0.270793	-0.443888	0.289299
Br90	Br	-0.777739	-1.018861	0.266859
Br91	Br	-0.468233	-1.023113	1.102300
Br92	Br	-0.933567	-1.190021	0.219258
Br93	Br	-0.777617	-1.305093	0.335111
H94	H	-0.442860	-0.443888	0.472386
H95	H	-0.489914	-0.999962	0.956066
