data_functionalizedCrystal
_audit_creation_method	'MofGen! by Chris Wilmer'
_symmetry_space_group_name_H-M	'P1'
_symmetry_Int_Tables_number	1
_symmetry_cell_setting	triclinic
loop_
_symmetry_equiv_pos_as_xyz
  x,y,z
_cell_length_a	11.169417
_cell_length_b	12.645330
_cell_length_c	11.169409
_cell_angle_alpha	89.967780
_cell_angle_beta	89.979436
_cell_angle_gamma	90.018570
loop_
_atom_site_label
_atom_site_type_symbol
_atom_site_fract_x
_atom_site_fract_y
_atom_site_fract_z
Zn1	Zn	1.834910	-0.421929	-0.678543
Zn2	Zn	2.334910	0.078071	-0.178543
Zn3	Zn	1.834771	-0.599240	-0.477860
Zn4	Zn	2.334771	-0.099240	0.022140
Zn5	Zn	1.634193	-0.421994	-0.477878
Zn6	Zn	2.134193	0.078006	0.022122
Zn7	Zn	1.634177	-0.599154	-0.678505
Zn8	Zn	2.134177	-0.099154	-0.178505
O9	O	1.734513	-0.510579	-0.578197
O10	O	2.234513	-0.010579	-0.078197
O11	O	2.002841	-0.445459	-0.651931
O12	O	2.502841	0.054541	-0.151931
O13	O	1.808112	-0.575791	-0.309913
O14	O	2.308112	-0.075791	0.190087
O15	O	1.660883	-0.273638	-0.504519
O16	O	2.160883	0.226362	-0.004519
O17	O	2.002739	-0.575728	-0.504490
O18	O	2.502739	-0.075728	-0.004490
O19	O	1.808349	-0.273591	-0.651948
O20	O	2.308349	0.226409	-0.151948
O21	O	1.660749	-0.445569	-0.309925
O22	O	2.160749	0.054431	0.190075
O23	O	1.466241	-0.445485	-0.504483
O24	O	1.966241	0.054515	-0.004483
O25	O	1.660857	-0.575582	-0.846460
O26	O	2.160857	-0.075582	-0.346460
O27	O	1.466230	-0.575644	-0.651883
O28	O	1.966230	-0.075644	-0.151883
O29	O	1.808334	-0.445375	-0.846488
O30	O	2.308334	0.054625	-0.346488
O31	O	1.808097	-0.747576	-0.504453
O32	O	2.308097	-0.247576	-0.004453
O33	O	1.660722	-0.747513	-0.651866
O34	O	2.160722	-0.247513	-0.151866
C35	C	1.422688	-0.510563	-0.578181
C36	C	1.922688	-0.010563	-0.078181
C37	C	1.289288	-0.510582	-0.578203
C38	C	1.789288	-0.010582	-0.078203
C39	C	1.734425	-0.786009	-0.578180
C40	C	2.234425	-0.286009	-0.078180
C41	C	1.734498	-0.903839	-0.578213
C42	C	2.234498	-0.403839	-0.078213
C43	C	1.642166	-1.071407	-0.671236
C44	C	2.142166	-0.571407	-0.171236
C45	C	1.641694	-0.948848	-0.670937
C46	C	2.141694	-0.448848	-0.170937
C47	C	1.700252	-0.948448	-0.451730
C48	C	2.200252	-0.448448	0.048270
C49	C	1.699689	-1.071046	-0.452295
C50	C	2.199689	-0.571046	0.047705
C51	C	1.861639	-1.070923	-0.610646
C52	C	2.361639	-0.570923	-0.110646
C53	C	1.860860	-0.948316	-0.613412
C54	C	2.360860	-0.448316	-0.113412
C55	C	2.047555	-0.510596	-0.578213
C56	C	2.547555	-0.010596	-0.078213
C57	C	2.180955	-0.510603	-0.578220
C58	C	2.680955	-0.010603	-0.078220
C59	C	1.734609	-0.510462	-0.891239
C60	C	2.234609	-0.010462	-0.391239
C61	C	1.734650	-0.510412	-1.024639
C62	C	2.234650	-0.010412	-0.524639
C63	C	1.734633	-0.234074	-0.578240
C64	C	2.234633	0.265926	-0.078240
C65	C	1.734685	-0.116244	-0.578258
C66	C	2.234685	0.383756	-0.078258
C67	C	1.734486	-0.510620	-0.266372
C68	C	2.234486	-0.010620	0.233628
C69	C	1.734678	-0.510371	-0.132972
C70	C	2.234678	-0.010371	0.367028
H71	H	1.663120	-0.918683	-0.764723
H72	H	2.163120	-0.418683	-0.264723
H73	H	1.933421	-0.917671	-0.550623
H74	H	2.433421	-0.417671	-0.050623
O75	O	1.943735	-1.105652	-0.529797
O76	O	2.443735	-0.605652	-0.029797
C77	C	1.886797	-1.170547	-0.444310
C78	C	2.386797	-0.670547	0.055690
H79	H	1.800756	-1.204071	-0.483951
H80	H	2.300756	-0.704071	0.016049
H81	H	1.949025	-1.238245	-0.418453
H82	H	2.449025	-0.738245	0.081547
H83	H	1.864569	-1.121802	-0.361402
H84	H	2.364569	-0.621802	0.138598
H85	H	1.663396	-1.100808	-0.765330
H86	H	2.163396	-0.600808	-0.265330
H87	H	1.606884	-1.099742	-0.424857
H88	H	2.106884	-0.599742	0.075143
O89	O	1.777927	-0.913668	-0.366675
O90	O	2.277927	-0.413668	0.133325
C91	C	1.714850	-0.855719	-0.279231
C92	C	2.214850	-0.355719	0.220769
H93	H	1.616721	-0.880529	-0.279805
H94	H	2.116721	-0.380529	0.220195
H95	H	1.754963	-0.872130	-0.187244
H96	H	2.254963	-0.372130	0.312756
H97	H	1.721859	-0.767643	-0.299934
H98	H	2.221859	-0.267643	0.200066
H99	H	1.892877	-1.101756	-0.701309
H100	H	2.392877	-0.601756	-0.201309
H101	H	1.548637	-1.102312	-0.650053
H102	H	2.048637	-0.602312	-0.150053
H103	H	1.764151	-1.100711	-0.380657
H104	H	2.264151	-0.600711	0.119343
O105	O	1.590591	-0.912070	-0.418546
O106	O	2.090591	-0.412070	0.081454
C107	C	1.504371	-0.944969	-0.502847
C108	C	2.004371	-0.444969	-0.002847
H109	H	1.538474	-1.017910	-0.552134
H110	H	2.038474	-0.517910	-0.052134
H111	H	1.417262	-0.965013	-0.454683
H112	H	1.917262	-0.465013	0.045317
H113	H	1.487657	-0.878588	-0.569890
H114	H	1.987657	-0.378588	-0.069890
O115	O	1.529333	-0.914096	-0.645472
O116	O	2.029333	-0.414096	-0.145472
C117	C	1.448992	-0.951662	-0.733016
C118	C	1.948992	-0.451662	-0.233016
H119	H	1.487894	-1.025256	-0.777249
H120	H	1.987894	-0.525256	-0.277249
H121	H	1.359891	-0.972267	-0.688977
H122	H	1.859891	-0.472267	-0.188977
H123	H	1.434222	-0.887842	-0.803611
H124	H	1.934222	-0.387842	-0.303611
O125	O	1.891523	-0.913388	-0.724446
O126	O	2.391523	-0.413388	-0.224446
C127	C	1.799135	-0.849064	-0.770184
C128	C	2.299135	-0.349064	-0.270184
H129	H	1.744049	-0.815884	-0.692919
H130	H	2.244049	-0.315884	-0.192919
H131	H	1.839737	-0.781109	-0.823645
H132	H	2.339737	-0.281109	-0.323645
H133	H	1.738914	-0.898180	-0.830971
H134	H	2.238914	-0.398180	-0.330971
