data_functionalizedCrystal
_audit_creation_method	'MofGen! by Chris Wilmer'
_symmetry_space_group_name_H-M	'P1'
_symmetry_Int_Tables_number	1
_symmetry_cell_setting	triclinic
loop_
_symmetry_equiv_pos_as_xyz
  x,y,z
_cell_length_a	12.645331
_cell_length_b	12.759399
_cell_length_c	12.759393
_cell_angle_alpha	89.969094
_cell_angle_beta	90.022936
_cell_angle_gamma	89.985905
loop_
_atom_site_label
_atom_site_type_symbol
_atom_site_fract_x
_atom_site_fract_y
_atom_site_fract_z
Zn1	Zn	1.620753	0.418244	0.594073
Zn2	Zn	1.620642	0.593960	0.418392
Zn3	Zn	1.443467	0.418292	0.418402
Zn4	Zn	1.443457	0.593878	0.594023
O5	O	1.532080	0.506094	0.506223
O6	O	1.769085	0.441567	0.570785
O7	O	1.597097	0.570711	0.271372
O8	O	1.467035	0.271265	0.441730
O9	O	1.769004	0.570664	0.441713
O10	O	1.597286	0.271229	0.570795
O11	O	1.466927	0.441649	0.271380
O12	O	1.295118	0.441570	0.441682
O13	O	1.467018	0.570526	0.741051
O14	O	1.295111	0.570573	0.570710
O15	O	1.597277	0.441488	0.741088
O16	O	1.597087	0.740970	0.441665
O17	O	1.466911	0.740910	0.570700
C18	C	1.532015	0.779061	0.506199
C19	C	1.532084	0.895838	0.506224
C20	C	1.256650	0.506069	0.506192
C21	C	1.138820	0.506083	0.506204
C22	C	1.532159	0.505993	0.780256
C23	C	1.532193	0.505950	0.897033
C24	C	0.971225	0.424554	0.425480
C25	C	1.093785	0.424765	0.425125
C26	C	1.094305	0.616761	0.475958
C27	C	0.971706	0.616316	0.475408
C28	C	0.971670	0.477988	0.617485
C29	C	1.094275	0.475515	0.616867
C30	C	1.808585	0.506119	0.506254
C31	C	1.926415	0.506130	0.506267
C32	C	1.532174	0.232060	0.506270
C33	C	1.532214	0.115284	0.506290
C34	C	1.599944	0.950696	0.439111
C35	C	1.600012	1.060420	0.439146
C36	C	1.464351	1.060418	0.573409
C37	C	1.464289	0.950696	0.573379
C38	C	1.532062	0.506118	0.233255
C39	C	1.532233	0.505865	0.116479
C40	C	1.600023	0.438749	0.951916
C41	C	1.600041	0.438704	1.061640
C42	C	1.464395	0.573069	1.061589
C43	C	1.464373	0.573108	0.951866
H44	H	0.941757	0.342236	0.444235
H45	H	0.940377	0.442950	0.343548
N46	N	0.933763	0.647914	0.367705
H47	H	0.889921	0.589480	0.336699
H48	H	0.889319	0.713449	0.373299
H49	H	1.655273	1.105080	0.384498
N50	N	1.133664	0.316054	0.450223
H51	H	1.107270	0.294225	0.521673
H52	H	1.106889	0.265187	0.395713
H53	H	1.409152	1.105097	0.628083
N54	N	1.132580	0.449397	0.315956
H55	H	1.070040	0.460168	0.267878
H56	H	1.176790	0.515284	0.317686
H57	H	1.123376	0.394069	0.639674
N58	N	0.932431	0.699546	0.549948
H59	H	0.994762	0.736366	0.583014
H60	H	0.888123	0.752086	0.510181
N61	N	1.391085	0.891527	0.645767
H62	H	1.341958	0.846076	0.603011
H63	H	1.434191	0.845990	0.694467
N64	N	1.391215	0.645601	0.892666
H65	H	1.401491	0.635432	0.814837
H66	H	1.315513	0.629235	0.911831
H67	H	1.123477	0.679166	0.532953
H68	H	1.124961	0.641036	0.395525
N69	N	0.930740	0.372953	0.653931
H70	H	0.882440	0.342547	0.598709
H71	H	0.992242	0.323896	0.666024
H72	H	1.124936	0.530596	0.680279
H73	H	1.655149	0.906033	0.384431
N74	N	1.673167	0.366317	0.892771
H75	H	1.716138	0.323738	0.944193
H76	H	1.630024	0.317708	0.847246
H77	H	1.655274	0.383980	1.106320
H78	H	0.942694	0.537404	0.677678
N79	N	1.391233	0.645485	1.120731
H80	H	1.401535	0.635261	1.198568
H81	H	1.407683	0.720535	1.101549
