data_functionalizedCrystal
_audit_creation_method	'MofGen! by Chris Wilmer'
_symmetry_space_group_name_H-M	'P1'
_symmetry_Int_Tables_number	1
_symmetry_cell_setting	triclinic
loop_
_symmetry_equiv_pos_as_xyz
  x,y,z
_cell_length_a	11.169417
_cell_length_b	16.625539
_cell_length_c	11.169416
_cell_angle_alpha	89.977153
_cell_angle_beta	90.011219
_cell_angle_gamma	89.982760
loop_
_atom_site_label
_atom_site_type_symbol
_atom_site_fract_x
_atom_site_fract_y
_atom_site_fract_z
Zn1	Zn	1.834932	-0.455868	-0.477777
Zn2	Zn	2.168265	-0.122535	-0.144444
Zn3	Zn	2.501598	0.210798	0.188890
Zn4	Zn	1.834830	-0.321048	-0.678489
Zn5	Zn	2.168163	0.012285	-0.345156
Zn6	Zn	2.501497	0.345618	-0.011823
Zn7	Zn	1.634227	-0.321057	-0.477822
Zn8	Zn	1.967560	0.012277	-0.144489
Zn9	Zn	2.300893	0.345610	0.188845
Zn10	Zn	1.634225	-0.455846	-0.678420
Zn11	Zn	1.967558	-0.122513	-0.345086
Zn12	Zn	2.300892	0.210821	-0.011753
O13	O	1.734553	-0.388455	-0.578127
O14	O	2.067887	-0.055122	-0.244794
O15	O	2.401220	0.278212	0.088540
O16	O	2.002868	-0.437990	-0.504412
O17	O	2.336201	-0.104657	-0.171079
O18	O	2.669535	0.228677	0.162255
O19	O	1.808178	-0.208217	-0.651918
O20	O	2.141511	0.125116	-0.318585
O21	O	2.474844	0.458450	0.014748
O22	O	1.660894	-0.338953	-0.309866
O23	O	1.994227	-0.005619	0.023467
O24	O	2.327560	0.327714	0.356800
O25	O	2.002793	-0.338938	-0.651875
O26	O	2.336127	-0.005605	-0.318541
O27	O	2.669460	0.327728	0.014792
O28	O	1.808351	-0.437998	-0.309833
O29	O	2.141684	-0.104665	0.023500
O30	O	2.475018	0.228669	0.356834
O31	O	1.660795	-0.208223	-0.504489
O32	O	1.994129	0.125110	-0.171156
O33	O	2.327462	0.458444	0.162178
O34	O	1.466277	-0.338931	-0.504421
O35	O	1.799610	-0.005598	-0.171088
O36	O	2.132943	0.327736	0.162245
O37	O	1.660891	-0.568682	-0.651756
O38	O	1.994224	-0.235348	-0.318423
O39	O	2.327558	0.097985	0.014911
O40	O	1.466276	-0.437960	-0.651800
O41	O	1.799609	-0.104627	-0.318466
O42	O	2.132942	0.228707	0.014867
O43	O	1.808349	-0.568698	-0.504345
O44	O	2.141683	-0.235365	-0.171011
O45	O	2.475016	0.097969	0.162322
O46	O	1.808176	-0.338917	-0.846430
O47	O	2.141510	-0.005584	-0.513096
O48	O	2.474843	0.327750	-0.179763
O49	O	1.660793	-0.437952	-0.846379
O50	O	1.994126	-0.104619	-0.513045
O51	O	2.327459	0.228715	-0.179712
C52	C	1.422729	-0.388445	-0.578109
C53	C	1.756062	-0.055111	-0.244775
C54	C	2.089395	0.278222	0.088558
C55	C	1.289329	-0.388459	-0.578130
C56	C	1.622662	-0.055126	-0.244797
C57	C	1.955995	0.278207	0.088537
C58	C	1.734631	-0.598764	-0.578038
C59	C	2.067965	-0.265431	-0.244704
C60	C	2.401298	0.067903	0.088629
C61	C	1.734665	-0.688385	-0.577999
C62	C	2.067998	-0.355052	-0.244666
C63	C	2.401331	-0.021718	0.088667
C64	C	1.734720	-1.016561	-0.577865
C65	C	2.068053	-0.683228	-0.244532
C66	C	2.401387	-0.349894	0.088802
C67	C	1.734701	-0.925252	-0.577906
C68	C	2.068035	-0.591919	-0.244573
C69	C	2.401368	-0.258586	0.088760
C70	C	1.734693	-0.852476	-0.577933
C71	C	2.068026	-0.519143	-0.244600
C72	C	2.401360	-0.185809	0.088733
C73	C	1.734673	-0.761162	-0.577973
C74	C	2.068006	-0.427828	-0.244639
C75	C	2.401340	-0.094495	0.088694
C76	C	2.047596	-0.388466	-0.578146
C77	C	2.380929	-0.055132	-0.244813
C78	C	2.714262	0.278201	0.088521
C79	C	2.180996	-0.388470	-0.578154
C80	C	2.514329	-0.055137	-0.244821
C81	C	2.847662	0.278196	0.088512
C82	C	1.734506	-0.388449	-0.889952
C83	C	2.067839	-0.055115	-0.556618
C84	C	2.401172	0.278218	-0.223285
C85	C	1.734595	-0.388473	-1.023352
C86	C	2.067929	-0.055140	-0.690018
C87	C	2.401262	0.278194	-0.356685
C88	C	1.734545	-0.178964	-0.578129
C89	C	2.067878	0.154369	-0.244796
C90	C	2.401211	0.487703	0.088537
C91	C	1.734744	-0.089343	-0.577829
C92	C	2.068077	0.243990	-0.244496
C93	C	2.401411	0.577323	0.088837
C94	C	1.734634	-0.388479	-0.265085
C95	C	2.067967	-0.055145	0.068249
C96	C	2.401300	0.278188	0.401582
C97	C	1.734668	-0.388489	-0.131685
C98	C	2.068001	-0.055156	0.201649
C99	C	2.401335	0.278178	0.534982
