data_functionalizedCrystal
_audit_creation_method	'MofGen! by Chris Wilmer'
_symmetry_space_group_name_H-M	'P1'
_symmetry_Int_Tables_number	1
_symmetry_cell_setting	triclinic
loop_
_symmetry_equiv_pos_as_xyz
  x,y,z
_cell_length_a	13.635800
_cell_length_b	27.923496
_cell_length_c	27.692826
_cell_angle_alpha	98.247464
_cell_angle_beta	84.885042
_cell_angle_gamma	81.036054
loop_
_atom_site_label
_atom_site_type_symbol
_atom_site_fract_x
_atom_site_fract_y
_atom_site_fract_z
V1	V	1.956224	-0.067794	-0.151574
V2	V	2.456224	0.432206	0.348426
O3	O	1.962542	0.002571	-0.148373
O4	O	2.462542	0.502571	0.351627
O5	O	1.921339	-0.133763	-0.150841
O6	O	2.421339	0.366237	0.349159
O7	O	1.912131	-0.067052	-0.217542
O8	O	2.412131	0.432948	0.282458
O9	O	1.971815	-0.064602	-0.081210
O10	O	2.471815	0.435398	0.418790
V11	V	2.202001	-0.059342	-0.143121
V12	V	2.702001	0.440658	0.356879
O13	O	2.078047	-0.086334	-0.170116
O14	O	2.578047	0.413666	0.329884
O15	O	2.305277	-0.040801	-0.124579
O16	O	2.805277	0.459199	0.375421
O17	O	2.125283	0.006628	-0.143854
O18	O	2.625283	0.506628	0.356146
O19	O	2.254381	-0.129707	-0.146322
O20	O	2.754381	0.370293	0.353678
O21	O	2.245109	-0.062534	-0.213485
O22	O	2.745109	0.437466	0.286515
O23	O	2.134491	-0.060083	-0.077153
O24	O	2.634491	0.439917	0.422847
V25	V	2.456224	-0.067794	-0.151574
V26	V	2.956224	0.432206	0.348426
O27	O	2.462542	0.002571	-0.148373
O28	O	2.962542	0.502571	0.351627
O29	O	2.421339	-0.133763	-0.150841
O30	O	2.921339	0.366237	0.349159
O31	O	2.412131	-0.067052	-0.217542
O32	O	2.912131	0.432948	0.282458
O33	O	2.471815	-0.064602	-0.081210
O34	O	2.971815	0.435398	0.418790
V35	V	2.702001	-0.059342	-0.143121
V36	V	3.202001	0.440658	0.356879
O37	O	2.578047	-0.086334	-0.170116
O38	O	3.078047	0.413666	0.329884
O39	O	2.805277	-0.040801	-0.124579
O40	O	3.305277	0.459199	0.375421
O41	O	2.625283	0.006628	-0.143854
O42	O	3.125283	0.506628	0.356146
O43	O	2.754381	-0.129707	-0.146322
O44	O	3.254381	0.370293	0.353678
O45	O	2.745109	-0.062534	-0.213485
O46	O	3.245109	0.437466	0.286515
O47	O	2.634491	-0.060083	-0.077153
O48	O	3.134491	0.439917	0.422847
C49	C	1.841884	-0.149836	-0.148528
C50	C	2.341884	0.350164	0.351472
C51	C	1.853872	-0.203769	-0.148368
C52	C	2.353872	0.296231	0.351632
C53	C	2.018236	-0.540704	-0.149863
C54	C	2.518236	-0.040704	0.350137
C55	C	2.063349	-0.743410	-0.149285
C56	C	2.563349	-0.243410	0.350715
O57	O	2.145648	-0.771735	-0.151300
O58	O	2.645648	-0.271735	0.348700
N59	N	1.979079	-0.766274	-0.146779
N60	N	2.479079	-0.266274	0.353221
C61	C	1.883523	-0.738458	-0.144420
C62	C	2.383523	-0.238458	0.355580
O63	O	1.812882	-0.762557	-0.142280
O64	O	2.312882	-0.262557	0.357720
C65	C	1.838412	-0.535753	-0.145001
C66	C	2.338412	-0.035753	0.354999
C67	C	1.922688	-0.512892	-0.147502
C68	C	2.422688	-0.012892	0.352498
C69	C	2.102505	-0.517842	-0.152365
C70	C	2.602505	-0.017842	0.347635
C71	C	2.091226	-0.467168	-0.152506
C72	C	2.591226	0.032832	0.347494
C73	C	1.995679	-0.439356	-0.150146
C74	C	2.495679	0.060644	0.349854
C75	C	1.911410	-0.462217	-0.147644
C76	C	2.411410	0.037783	0.352356
C77	C	1.742858	-0.507939	-0.142645
C78	C	2.242858	-0.007939	0.357355
C79	C	1.731588	-0.457260	-0.142792
C80	C	2.231588	0.042740	0.357208
C81	C	1.815864	-0.434398	-0.145294
C82	C	2.315864	0.065602	0.354706
C83	C	1.804583	-0.383731	-0.145425
C84	C	2.304583	0.116269	0.354575
N85	N	1.888853	-0.360868	-0.147932
N86	N	2.388853	0.139132	0.352068
C87	C	1.984401	-0.388680	-0.150292
C88	C	2.484401	0.111320	0.349708
C89	C	1.907214	-0.844881	-0.144114
C90	C	2.407214	-0.344881	0.355886
C91	C	1.918491	-0.895557	-0.143968
C92	C	2.418491	-0.395557	0.356032
C93	C	2.098317	-0.900506	-0.148834
C94	C	2.598317	-0.400506	0.351166
C95	C	2.087037	-0.849828	-0.148977
C96	C	2.587037	-0.349828	0.351023
C97	C	1.991484	-0.822018	-0.146621
C98	C	2.491484	-0.322018	0.353379
C99	C	1.960708	-0.282260	-0.150589
C100	C	2.460708	0.217740	0.349411
C101	C	1.949420	-0.231581	-0.150728
C102	C	2.449420	0.268419	0.349272
C103	C	1.769596	-0.226638	-0.145865
C104	C	2.269596	0.273362	0.354135
C105	C	1.780882	-0.277312	-0.145723
C106	C	2.280882	0.222688	0.354277
C107	C	1.876446	-0.305122	-0.148087
C108	C	2.376446	0.194878	0.351913
O109	O	1.722318	-0.355377	-0.143417
O110	O	2.222318	0.144623	0.356583
O111	O	2.055031	-0.364573	-0.152443
O112	O	2.555031	0.135427	0.347557
C113	C	2.029515	-0.591378	-0.149721
C114	C	2.529515	-0.091378	0.350279
C115	C	1.945246	-0.614240	-0.147219
C116	C	2.445246	-0.114240	0.352781
C117	C	1.849698	-0.586428	-0.144859
C118	C	2.349698	-0.086428	0.355141
C119	C	1.956523	-0.664915	-0.147073
C120	C	2.456523	-0.164915	0.352927
C121	C	2.052071	-0.692728	-0.149433
C122	C	2.552071	-0.192728	0.350567
C123	C	2.136342	-0.669864	-0.151940
C124	C	2.636342	-0.169864	0.348060
C125	C	2.125063	-0.619190	-0.152081
C126	C	2.625063	-0.119190	0.347919
C127	C	1.765428	-0.609291	-0.142352
C128	C	2.265428	-0.109291	0.357648
C129	C	1.776714	-0.659965	-0.142210
C130	C	2.276714	-0.159965	0.357790
C131	C	1.872262	-0.687778	-0.144571
C132	C	2.372262	-0.187778	0.355429
C133	C	1.830137	-0.064738	-0.233611
C134	C	2.330137	0.435262	0.266389
C135	C	1.834657	-0.064568	-0.287542
C136	C	2.334657	0.435432	0.212458
C137	C	2.036409	0.022698	-0.146165
C138	C	2.536409	0.522698	0.353835
C139	C	2.014039	0.076631	-0.146328
C140	C	2.514039	0.576631	0.353672
C141	C	2.048156	-0.062399	-0.061081
C142	C	2.548156	0.437601	0.438919
C143	C	2.033257	-0.062566	-0.007149
C144	C	2.533257	0.437434	0.492851
C145	C	2.341884	-0.149836	-0.148528
C146	C	2.841884	0.350164	0.351472
C147	C	2.353872	-0.203769	-0.148368
C148	C	2.853872	0.296231	0.351632
C149	C	1.947316	-0.108104	0.370879
C150	C	2.447316	0.391896	0.870879
C151	C	2.003254	-0.107538	0.168171
C152	C	2.503254	0.392462	0.668171
O153	O	2.027820	-0.145275	0.135902
O154	O	2.527820	0.354725	0.635902
N155	N	1.989912	-0.063005	0.149949
N156	N	2.489912	0.436995	0.649949
C157	C	1.962589	-0.018611	0.182407
C158	C	2.462589	0.481389	0.682407
O159	O	1.952534	0.019280	0.162257
O160	O	2.452534	0.519280	0.662257
C161	C	1.906658	-0.019178	0.385115
C162	C	2.406658	0.480822	0.885115
C163	C	1.919993	-0.063713	0.403334
C164	C	2.419993	0.436287	0.903334
C165	C	1.960650	-0.152636	0.389099
C166	C	2.460650	0.347364	0.889099
C167	C	1.946661	-0.152778	0.439773
C168	C	2.446661	0.347222	0.939773
C169	C	1.919337	-0.108387	0.472228
C170	C	2.419337	0.391613	0.972228
C171	C	1.906003	-0.063855	0.454008
C172	C	2.406003	0.436145	0.954008
C173	C	1.879342	0.025216	0.417573
C174	C	2.379342	0.525216	0.917573
C175	C	1.865363	0.025071	0.468253
C176	C	2.365363	0.525071	0.968253
C177	C	1.878698	-0.019465	0.486472
C178	C	2.378698	0.480535	0.986472
C179	C	1.864691	-0.019605	0.537137
C180	C	2.364691	0.480395	1.037137
N181	N	1.878033	-0.064138	0.555359
N182	N	2.378033	0.435862	1.055359
C183	C	1.905357	-0.108529	0.522904
C184	C	2.405357	0.391471	1.022904
C185	C	1.991953	-0.018317	0.075982
C186	C	2.491953	0.481683	0.575982
C187	C	2.005934	-0.018175	0.025305
C188	C	2.505934	0.481825	0.525305
C189	C	2.046600	-0.107102	0.011072
C190	C	2.546600	0.392898	0.511072
C191	C	2.032612	-0.107244	0.061750
C192	C	2.532612	0.392756	0.561750
C193	C	2.005295	-0.062849	0.094204
C194	C	2.505295	0.437151	0.594204
C195	C	1.875976	-0.108822	0.629324
C196	C	2.375976	0.391178	1.129324
C197	C	1.861980	-0.108959	0.680003
C198	C	2.361980	0.391041	1.180003
C199	C	1.821320	-0.020032	0.694232
C200	C	2.321320	0.479968	1.194232
C201	C	1.835310	-0.019895	0.643557
C202	C	2.335310	0.480105	1.143557
C203	C	1.862642	-0.064293	0.611104
C204	C	2.362642	0.435707	1.111104
O205	O	1.840136	0.018113	0.569433
O206	O	2.340136	0.518113	1.069433
O207	O	1.915428	-0.146413	0.543065
O208	O	2.415428	0.353587	1.043065
C209	C	1.961305	-0.107963	0.320205
C210	C	2.461305	0.392037	0.820205
C211	C	1.947971	-0.063431	0.301986
C212	C	2.447971	0.436569	0.801986
C213	C	1.920648	-0.019040	0.334440
C214	C	2.420648	0.480960	0.834440
C215	C	1.961952	-0.063289	0.251309
C216	C	2.461952	0.436711	0.751309
C217	C	1.989275	-0.107680	0.218855
C218	C	2.489275	0.392320	0.718855
C219	C	2.002617	-0.152213	0.237077
C220	C	2.502617	0.347787	0.737077
C221	C	1.988628	-0.152354	0.287751
C222	C	2.488628	0.347646	0.787751
C223	C	1.907305	0.025492	0.316218
C224	C	2.407305	0.525492	0.816218
C225	C	1.921295	0.025630	0.265544
C226	C	2.421295	0.525630	0.765544
C227	C	1.948618	-0.018761	0.233089
C228	C	2.448618	0.481239	0.733089
C229	C	2.449420	-0.231581	-0.150728
C230	C	2.949420	0.268419	0.349272
C231	C	2.460699	-0.282259	-0.150586
C232	C	2.960699	0.217741	0.349414
C233	C	2.376429	-0.305122	-0.148079
C234	C	2.876429	0.194878	0.351921
C235	C	2.280873	-0.277307	-0.145720
C236	C	2.780873	0.222693	0.354280
C237	C	2.269596	-0.226631	-0.145867
C238	C	2.769596	0.273369	0.354133
C239	C	2.330137	-0.064738	-0.233611
C240	C	2.830137	0.435262	0.266389
C241	C	2.334657	-0.064568	-0.287542
C242	C	2.834657	0.435432	0.212458
C243	C	2.536409	0.022698	-0.146165
C244	C	3.036409	0.522698	0.353835
C245	C	2.514039	0.076631	-0.146328
C246	C	3.014039	0.576631	0.353672
C247	C	2.548156	-0.062399	-0.061081
C248	C	3.048156	0.437601	0.438919
C249	C	2.533257	-0.062566	-0.007149
C250	C	3.033257	0.437434	0.492851
C251	C	2.426689	-0.066919	-0.315353
C252	C	2.926689	0.433081	0.184647
C253	C	2.430948	-0.066753	-0.366027
C254	C	2.930948	0.433247	0.133973
C255	C	2.343174	-0.064240	-0.388889
C256	C	2.843174	0.435760	0.111111
C257	C	2.251134	-0.061888	-0.361074
C258	C	2.751134	0.438112	0.138926
C259	C	2.246875	-0.062051	-0.310401
C260	C	2.746875	0.437949	0.189599
C261	C	2.590984	0.104443	-0.143969
C262	C	3.090984	0.604443	0.356031
C263	C	2.569976	0.155120	-0.144114
C264	C	3.069976	0.655120	0.355886
C265	C	2.472023	0.177983	-0.146622
C266	C	2.972023	0.677983	0.353378
C267	C	2.395072	0.150168	-0.148979
C268	C	2.895072	0.650168	0.351021
C269	C	2.416080	0.099492	-0.148831
C270	C	2.916080	0.599492	0.351169
C271	C	2.438797	-0.065073	0.015701
C272	C	2.938797	0.434927	0.515701
C273	C	2.424781	-0.065225	0.066376
C274	C	2.924781	0.434775	0.566376
C275	C	2.505227	-0.062873	0.094200
C276	C	3.005227	0.437127	0.594200
C277	C	2.599694	-0.060364	0.071347
C278	C	3.099694	0.439636	0.571347
C279	C	2.613707	-0.060209	0.020673
C280	C	3.113707	0.439791	0.520673
H281	H	2.018052	-0.212970	-0.152764
H282	H	2.518052	0.287030	0.347236
H283	H	1.799068	0.016109	0.720665
H284	H	2.299068	0.516109	1.220665
N285	N	2.215964	-0.594538	-0.154789
N286	N	2.715964	-0.094538	0.345211
H287	H	2.211598	-0.568781	-0.124723
H288	H	2.711598	-0.068781	0.375277
H289	H	2.278149	-0.619885	-0.156281
H290	H	2.778149	-0.119885	0.343719
N291	N	1.666546	-0.196635	-0.143325
N292	N	2.166546	0.303365	0.356675
H293	H	1.614865	-0.218804	-0.141719
H294	H	2.114865	0.281196	0.358281
H295	H	1.654234	-0.170658	-0.113043
H296	H	2.154234	0.329342	0.386957
H297	H	2.214141	-0.692517	-0.153857
H298	H	2.714141	-0.192517	0.346143
N299	N	2.166537	-0.196632	-0.143311
N300	N	2.666537	0.303368	0.356689
H301	H	2.161549	-0.180337	-0.173498
H302	H	2.661549	0.319663	0.326502
H303	H	2.114928	-0.218836	-0.141682
H304	H	2.614928	0.281164	0.358318
H305	H	1.708078	-0.678574	-0.140170
H306	H	2.208078	-0.178574	0.359830
H307	H	2.454931	0.219247	-0.146742
H308	H	2.954931	0.719247	0.353258
N309	N	2.521372	-0.069622	-0.290706
N310	N	3.021372	0.430378	0.209294
H311	H	2.516392	-0.039560	-0.264941
H312	H	3.016392	0.460440	0.235059
H313	H	2.530802	-0.100051	-0.274673
H314	H	3.030802	0.399949	0.225327
N315	N	2.189989	-0.301971	-0.143006
N316	N	2.689989	0.198029	0.356994
H317	H	2.152413	-0.296922	-0.172200
H318	H	2.652413	0.203078	0.327800
H319	H	2.211729	-0.338283	-0.143252
H320	H	2.711729	0.161717	0.356748
N321	N	2.156474	-0.059182	-0.385740
N322	N	2.656474	0.440818	0.114260
H323	H	2.123650	-0.088385	-0.380693
H324	H	2.623650	0.411615	0.119307
H325	H	2.109273	-0.027894	-0.370981
H326	H	2.609273	0.472106	0.129019
N327	N	1.906895	0.073671	0.245902
N328	N	2.406895	0.573671	0.745902
H329	H	1.955049	0.094734	0.259518
H330	H	2.455049	0.594734	0.759518
H331	H	1.919879	0.066992	0.208875
H332	H	2.419879	0.566992	0.708875
H333	H	2.347856	-0.067267	0.084975
H334	H	2.847856	0.432733	0.584975
H335	H	2.346656	-0.064108	-0.430151
H336	H	2.846656	0.435892	0.069849
H337	H	2.171930	-0.060138	-0.287762
H338	H	2.671930	0.439862	0.212238
H339	H	1.712258	-0.295927	-0.143689
H340	H	2.212258	0.204073	0.356311
H341	H	1.843122	0.061223	0.494675
H342	H	2.343122	0.561223	0.994675
N343	N	2.490105	-0.063038	0.148855
N344	N	2.990105	0.436962	0.648855
H345	H	2.418054	-0.064984	0.159105
H346	H	2.918054	0.435016	0.659105
H347	H	2.534947	-0.092358	0.157154
H348	H	3.034947	0.407642	0.657154
H349	H	2.315318	0.168791	-0.151021
H350	H	2.815318	0.668791	0.348979
N351	N	2.696638	0.079789	-0.141266
N352	N	3.196638	0.579789	0.358734
H353	H	2.742183	0.105103	-0.139791
H354	H	3.242183	0.605103	0.360209
H355	H	2.698835	0.063716	-0.110860
H356	H	3.198835	0.563716	0.389140
N357	N	1.662369	-0.579298	-0.139811
N358	N	2.162369	-0.079298	0.360189
H359	H	1.610704	-0.601477	-0.138202
H360	H	2.110704	-0.101477	0.361798
H361	H	1.650053	-0.553324	-0.109527
H362	H	2.150053	-0.053324	0.390473
H363	H	2.665187	-0.058447	0.094009
H364	H	3.165187	0.441553	0.594009
H365	H	2.505900	-0.068670	-0.388667
H366	H	3.005900	0.431330	0.111333
H367	H	1.872838	-0.145227	0.694833
H368	H	2.372838	0.354773	1.194833
H369	H	2.690629	-0.058170	0.002072
H370	H	3.190629	0.441830	0.502072
H371	H	2.353418	0.076851	-0.150756
H372	H	2.853418	0.576851	0.349244
H373	H	1.999489	-0.188619	0.302579
H374	H	2.499489	0.311381	0.802579
N375	N	2.076085	-0.154978	-0.023941
N376	N	2.576085	0.345022	0.476059
H377	H	2.142021	-0.172785	-0.016555
H378	H	2.642021	0.327215	0.483445
H379	H	2.023017	-0.176064	-0.019905
H380	H	2.523017	0.323936	0.480095
N381	N	1.827587	-0.920208	-0.141263
N382	N	2.327587	-0.420208	0.358737
H383	H	1.831965	-0.945966	-0.171329
H384	H	2.331965	-0.445966	0.328671
H385	H	1.824590	-0.936250	-0.110839
H386	H	2.324590	-0.436250	0.389161
H387	H	1.898230	-0.144975	0.602906
H388	H	2.398230	0.355025	1.102906
N389	N	2.652982	0.185113	-0.141579
N390	N	3.152982	0.685113	0.358421
H391	H	2.718221	0.162935	-0.139976
H392	H	3.218221	0.662935	0.360024
H393	H	2.658394	0.201399	-0.171774
H394	H	3.158394	0.701399	0.328226
H395	H	2.518048	-0.212972	-0.152766
H396	H	3.018048	0.287028	0.347234
H397	H	1.969709	0.017836	0.102403
H398	H	2.469709	0.517836	0.602403
H399	H	2.373282	-0.066988	-0.006947
H400	H	2.873282	0.433012	0.493053
H401	H	1.868475	0.061482	0.402749
H402	H	2.368475	0.561482	0.902749
H403	H	2.038523	-0.304898	-0.152515
H404	H	2.538523	0.195102	0.347485
H405	H	2.538512	-0.304899	-0.152506
H406	H	3.038512	0.195101	0.347494
N407	N	2.388600	-0.359780	-0.147922
N408	N	2.888600	0.140220	0.352078
H409	H	2.461920	-0.373926	-0.149796
H410	H	2.961920	0.126074	0.350204
H411	H	2.352253	-0.366132	-0.116692
H412	H	2.852253	0.133868	0.383308
H413	H	1.982901	-0.188787	0.362679
H414	H	2.482901	0.311213	0.862679
N415	N	2.182128	-0.442516	-0.155220
N416	N	2.682128	0.057484	0.344780
H417	H	2.244362	-0.467831	-0.156699
H418	H	2.744362	0.032169	0.343301
H419	H	2.185064	-0.426446	-0.185628
H420	H	2.685064	0.073554	0.314372
H421	H	2.155664	-0.831218	-0.151013
H422	H	2.655664	-0.331218	0.348987
N423	N	2.205557	-0.547839	-0.154891
N424	N	2.705557	-0.047839	0.345109
H425	H	2.217984	-0.573825	-0.185170
H426	H	2.717984	-0.073825	0.314830
H427	H	2.257166	-0.525631	-0.156474
H428	H	2.757166	-0.025631	0.343526
N429	N	2.201372	-0.930504	-0.151357
N430	N	2.701372	-0.430504	0.348643
H431	H	2.195719	-0.966074	-0.150878
H432	H	2.695719	-0.466074	0.349122
H433	H	2.242404	-0.927581	-0.182678
H434	H	2.742404	-0.427581	0.317322
H435	H	1.829400	-0.822242	-0.142194
H436	H	2.329400	-0.322242	0.357806
N437	N	1.961071	-0.200813	0.459419
N438	N	2.461071	0.299187	0.959419
H439	H	1.912928	-0.221884	0.445807
H440	H	2.412928	0.278116	0.945807
H441	H	2.031899	-0.218524	0.449158
H442	H	2.531899	0.281476	0.949158
N443	N	1.651957	-0.532589	-0.139947
N444	N	2.151957	-0.032589	0.360053
H445	H	1.589725	-0.507274	-0.138477
H446	H	2.089725	-0.007274	0.361523
H447	H	1.656430	-0.558348	-0.170019
H448	H	2.156430	-0.058348	0.329981
H449	H	1.653777	-0.434619	-0.140876
H450	H	2.153777	0.065381	0.359124
H451	H	2.043471	-0.143509	0.076580
H452	H	2.543471	0.356491	0.576580
H453	H	1.995060	0.018090	0.010476
H454	H	2.495060	0.518090	0.510476
H455	H	2.024862	-0.188357	0.210643
H456	H	2.524862	0.311643	0.710643
N457	N	1.820916	0.028138	0.623902
N458	N	2.320916	0.528138	1.123902
H459	H	1.801481	0.056237	0.652154
H460	H	2.301481	0.556237	1.152154
H461	H	1.885316	0.031785	0.604871
H462	H	2.385316	0.531785	1.104871
H463	H	1.885059	0.061642	0.342639
H464	H	2.385059	0.561642	0.842639
