data_functionalizedCrystal
_audit_creation_method	'MofGen! by Chris Wilmer'
_symmetry_space_group_name_H-M	'P1'
_symmetry_Int_Tables_number	1
_symmetry_cell_setting	triclinic
loop_
_symmetry_equiv_pos_as_xyz
  x,y,z
_cell_length_a	14.908571
_cell_length_b	12.645330
_cell_length_c	14.908694
_cell_angle_alpha	93.272100
_cell_angle_beta	83.592472
_cell_angle_gamma	86.714080
loop_
_atom_site_label
_atom_site_type_symbol
_atom_site_fract_x
_atom_site_fract_y
_atom_site_fract_z
Zn1	Zn	1.413365	-0.558110	-0.591537
Zn2	Zn	1.404540	-0.724539	-0.440180
Zn3	Zn	1.253266	-0.536427	-0.431471
Zn4	Zn	1.261972	-0.724457	-0.582779
O5	O	1.333286	-0.635883	-0.511491
O6	O	1.538861	-0.589296	-0.578769
O7	O	1.377136	-0.690546	-0.312359
O8	O	1.274553	-0.390961	-0.452724
O9	O	1.532378	-0.711571	-0.467568
O10	O	1.392177	-0.406891	-0.570324
O11	O	1.265996	-0.552340	-0.305960
O12	O	1.127753	-0.552261	-0.444232
O13	O	1.289391	-0.711431	-0.710606
O14	O	1.134150	-0.690406	-0.555397
O15	O	1.400619	-0.589217	-0.717041
O16	O	1.385578	-0.872871	-0.459076
O17	O	1.280834	-0.872811	-0.563842
C18	C	1.098108	-0.618972	-0.497919
C19	C	0.997499	-0.611764	-0.492135
C20	C	0.815145	-0.742270	-0.596865
C21	C	0.720614	-0.735501	-0.591433
C22	C	0.713906	-0.591454	-0.475844
C23	C	0.808437	-0.598223	-0.481276
C24	C	0.859053	-0.673634	-0.541788
C25	C	0.953585	-0.680407	-0.547215
C26	C	0.946875	-0.536356	-0.431630
C27	C	0.852345	-0.529587	-0.426198
C28	C	1.333219	-0.911308	-0.511475
C29	C	1.333275	-1.029143	-0.511503
C30	C	1.267681	-1.196749	-0.577644
C31	C	1.267312	-1.074148	-0.577398
C32	C	1.301951	-1.065043	-0.414623
C33	C	1.301551	-1.187642	-0.415025
C34	C	1.430573	-1.204873	-0.541493
C35	C	1.430106	-1.082373	-0.543545
C36	C	1.569381	-0.652862	-0.525117
C37	C	1.669991	-0.660097	-0.530923
C38	C	1.346960	-0.652733	-0.747585
C39	C	1.352788	-0.659914	-0.848194
C40	C	1.333378	-0.359387	-0.511529
C41	C	1.333418	-0.241561	-0.511545
C42	C	1.247986	-0.529494	-1.030586
C43	C	1.253459	-0.536237	-1.125117
C44	C	1.369199	-0.680147	-1.131788
C45	C	1.363727	-0.673404	-1.037257
C46	C	1.303120	-0.598074	-0.986659
C47	C	1.297653	-0.591327	-0.892127
C48	C	1.413388	-0.735241	-0.898800
C49	C	1.418860	-0.741984	-0.993330
C50	C	1.319716	-0.619026	-0.276319
C51	C	1.314064	-0.611560	-0.175721
H52	H	0.811120	-0.468187	-0.376933
Cl53	Cl	1.482704	-0.821459	-0.843572
Cl54	Cl	0.650260	-0.496644	-0.399792
Cl55	Cl	1.002079	-0.450074	-0.362377
Cl56	Cl	1.156279	-1.019342	-0.546098
Cl57	Cl	1.171806	-0.434787	-0.966975
H58	H	1.208564	-0.480392	-1.160878
Cl59	Cl	1.466427	-1.047300	-0.653666
Cl60	Cl	1.298548	-1.037209	-0.688041
Cl61	Cl	1.193138	-1.007779	-0.375930
Cl62	Cl	1.495045	-0.836682	-1.056947
Cl63	Cl	1.510392	-1.035873	-0.475311
H64	H	0.856357	-0.803678	-0.646132
H65	H	1.479616	-1.233933	-0.493417
H66	H	1.287781	-1.232399	-0.649530
H67	H	1.418531	-0.741490	-1.173000
H68	H	0.994795	-0.741813	-0.596485
H69	H	0.684868	-0.791390	-0.636285
H70	H	1.248306	-0.529986	-0.850932
Cl71	Cl	1.157355	-1.234891	-0.546720
Cl72	Cl	1.191647	-1.221892	-0.376847
Cl73	Cl	1.473030	-1.262672	-0.649158
Cl74	Cl	1.371793	-1.232845	-0.335931
Cl75	Cl	1.373152	-1.019543	-0.336132
