data_functionalizedCrystal
_audit_creation_method	'MofGen! by Chris Wilmer'
_symmetry_space_group_name_H-M	'P1'
_symmetry_Int_Tables_number	1
_symmetry_cell_setting	triclinic
loop_
_symmetry_equiv_pos_as_xyz
  x,y,z
_cell_length_a	21.295420
_cell_length_b	21.295417
_cell_length_c	16.959455
_cell_angle_alpha	90.017994
_cell_angle_beta	90.002746
_cell_angle_gamma	90.025484
loop_
_atom_site_label
_atom_site_type_symbol
_atom_site_fract_x
_atom_site_fract_y
_atom_site_fract_z
Zn1	Zn	0.962223	-0.250768	0.446912
Zn2	Zn	1.462223	0.249232	0.946912
Zn3	Zn	0.962167	-0.356015	0.314725
Zn4	Zn	1.462167	0.143985	0.814725
Zn5	Zn	0.856986	-0.250756	0.314747
Zn6	Zn	1.356986	0.249244	0.814747
Zn7	Zn	0.856917	-0.355996	0.446861
Zn8	Zn	1.356917	0.144004	0.946861
O9	O	0.909573	-0.303384	0.380811
O10	O	1.409573	0.196616	0.880811
O11	O	1.050305	-0.264742	0.429390
O12	O	1.550305	0.235258	0.929390
O13	O	0.948220	-0.342055	0.204117
O14	O	1.448220	0.157945	0.704117
O15	O	0.870999	-0.162668	0.332310
O16	O	1.370999	0.337332	0.832310
O17	O	1.050264	-0.342067	0.332272
O18	O	1.550264	0.157933	0.832272
O19	O	0.948316	-0.162677	0.429411
O20	O	1.448316	0.337323	0.929411
O21	O	0.870944	-0.264722	0.204133
O22	O	1.370944	0.235278	0.704133
O23	O	0.768888	-0.264703	0.332260
O24	O	1.268888	0.235297	0.832260
O25	O	0.870881	-0.342034	0.557478
O26	O	1.370881	0.157966	1.057478
O27	O	0.768837	-0.342022	0.429323
O28	O	1.268837	0.157978	0.929323
O29	O	0.948248	-0.264724	0.557516
O30	O	1.448248	0.235276	1.057516
O31	O	0.948153	-0.444102	0.332222
O32	O	1.448153	0.055898	0.832222
O33	O	0.870826	-0.444087	0.429302
O34	O	1.370826	0.055913	0.929302
C35	C	0.746022	-0.303360	0.380789
C36	C	1.246022	0.196640	0.880789
C37	C	0.676054	-0.303364	0.380798
C38	C	1.176054	0.196636	0.880798
C39	C	0.176617	-0.263216	0.431474
C40	C	0.676617	0.236784	0.931474
C41	C	0.242359	-0.263211	0.431474
C42	C	0.742359	0.236789	0.931474
C43	C	0.275214	-0.303403	0.380830
C44	C	0.775214	0.196597	0.880830
C45	C	0.242322	-0.343614	0.330196
C46	C	0.742322	0.156386	0.830196
C47	C	0.176580	-0.343622	0.330203
C48	C	0.676580	0.156378	0.830203
N49	N	0.378425	-0.308136	0.311618
N50	N	0.878425	0.191864	0.811618
N51	N	0.440877	-0.308125	0.311613
N52	N	0.940877	0.191875	0.811613
C53	C	0.473289	-0.303382	0.380806
C54	C	0.973289	0.196618	0.880806
N55	N	0.440891	-0.298639	0.450006
N56	N	0.940891	0.201361	0.950006
N57	N	0.378433	-0.298647	0.450009
N58	N	0.878433	0.201353	0.950009
C59	C	0.346500	-0.303399	0.380817
C60	C	0.846500	0.196601	0.880817
C61	C	0.577459	-0.263172	0.431441
C62	C	1.077459	0.236828	0.931441
C63	C	0.643203	-0.263171	0.431442
C64	C	1.143203	0.236829	0.931442
C65	C	0.643164	-0.343571	0.330157
C66	C	1.143164	0.156429	0.830157
C67	C	0.577422	-0.343574	0.330162
C68	C	1.077422	0.156426	0.830162
C69	C	0.544573	-0.303371	0.380803
C70	C	1.044573	0.196629	0.880803
C71	C	0.909493	-0.466935	0.380771
C72	C	1.409493	0.033065	0.880771
C73	C	0.909517	-0.536903	0.380781
C74	C	1.409517	-0.036903	0.880781
C75	C	0.949752	-0.569717	0.431377
C76	C	1.449752	-0.069717	0.931377
C77	C	0.949775	-0.635460	0.431397
C78	C	1.449775	-0.135460	0.931397
C79	C	0.909568	-0.668386	0.380805
C80	C	1.409568	-0.168386	0.880805
C81	C	0.869324	-0.635564	0.330205
C82	C	1.369324	-0.135564	0.830205
C83	C	0.869298	-0.569823	0.330193
C84	C	1.369298	-0.069823	0.830193
N85	N	0.904829	-0.771635	0.311629
N86	N	1.404829	-0.271635	0.811629
N87	N	0.904857	-0.834087	0.311644
N88	N	1.404857	-0.334087	0.811644
C89	C	0.909641	-0.866461	0.380841
C90	C	1.409641	-0.366461	0.880841
N91	N	0.914408	-0.834024	0.450026
N92	N	1.414408	-0.334024	0.950026
N93	N	0.914384	-0.771566	0.450011
N94	N	1.414384	-0.271566	0.950011
C95	C	0.909590	-0.739671	0.380814
C96	C	1.409590	-0.239671	0.880814
C97	C	0.949903	-0.970560	0.431463
C98	C	1.449903	-0.470560	0.931463
C99	C	0.949921	-1.036304	0.431484
C100	C	1.449921	-0.536304	0.931484
C101	C	0.869474	-1.036406	0.330285
C102	C	1.369474	-0.536406	0.830285
C103	C	0.869452	-0.970664	0.330272
C104	C	1.369452	-0.470664	0.830272
C105	C	0.909671	-0.937745	0.380859
C106	C	1.409671	-0.437745	0.880859
C107	C	1.073764	-0.303408	0.380834
C108	C	1.573764	0.196592	0.880834
C109	C	1.143732	-0.303419	0.380844
C110	C	1.643732	0.196581	0.880844
C111	C	0.909563	-0.303378	0.586979
C112	C	1.409563	0.196622	1.086979
C113	C	0.909559	-0.303375	0.674836
C114	C	1.409559	0.196625	1.174836
C115	C	0.909671	-0.139193	0.380869
C116	C	1.409671	0.360807	0.880869
C117	C	0.909713	-0.069225	0.380893
C118	C	1.409713	0.430775	0.880893
C119	C	0.869286	-0.343644	1.046294
C120	C	1.369286	0.156356	1.546294
C121	C	0.949850	-0.263141	1.046329
C122	C	1.449850	0.236859	1.546329
C123	C	0.949848	-0.263135	0.963783
C124	C	1.449848	0.236865	1.463783
C125	C	0.909565	-0.303386	0.922489
C126	C	1.409565	0.196614	1.422489
C127	C	0.869284	-0.343642	0.963741
C128	C	1.369284	0.156358	1.463741
C129	C	0.990132	-0.222885	0.922525
C130	C	1.490132	0.277115	1.422525
C131	C	0.990132	-0.222879	0.839974
C132	C	1.490132	0.277121	1.339974
C133	C	0.949846	-0.263126	0.798678
C134	C	1.449846	0.236874	1.298678
C135	C	0.909563	-0.303383	0.839935
C136	C	1.409563	0.196617	1.339935
C137	C	0.869280	-0.343634	0.798641
C138	C	1.369280	0.156366	1.298641
C139	C	0.828993	-0.383888	0.839897
C140	C	1.328993	0.116112	1.339897
C141	C	0.828998	-0.383889	0.922445
C142	C	1.328998	0.116111	1.422445
C143	C	0.949842	-0.263125	0.716130
C144	C	1.449842	0.236875	1.216130
C145	C	0.869278	-0.343631	0.716088
C146	C	1.369278	0.156369	1.216088
C147	C	0.909575	-0.303400	1.175445
C148	C	1.409575	0.196600	1.675445
C149	C	0.909569	-0.303394	1.087588
C150	C	1.409569	0.196606	1.587588
H151	H	0.550647	-0.376309	0.288930
H152	H	1.050647	0.123691	0.788930
C153	C	1.034439	-0.178597	0.794600
C154	C	1.534439	0.321403	1.294600
H155	H	1.058427	-0.154623	0.831017
H156	H	1.558427	0.345377	1.331017
H157	H	1.061852	-0.202675	0.762382
H158	H	1.561852	0.297325	1.262382
H159	H	1.010368	-0.151161	0.762415
H160	H	1.510368	0.348839	1.262415
H161	H	0.269139	-0.230470	0.472703
H162	H	0.769139	0.269530	0.972703
H163	H	0.982650	-0.230374	1.079955
H164	H	1.482650	0.269626	1.579955
H165	H	0.669977	-0.230435	0.472677
H166	H	1.169977	0.269565	0.972677
H167	H	0.982499	-0.542917	0.472571
H168	H	1.482499	-0.042917	0.972571
C169	C	0.278460	-0.387822	0.274486
C170	C	0.778460	0.112178	0.774486
H171	H	0.322323	-0.382054	0.281727
H172	H	0.822323	0.117946	0.781727
H173	H	0.267675	-0.430132	0.285959
H174	H	0.767675	0.069868	0.785959
H175	H	0.267681	-0.378544	0.221397
H176	H	0.767681	0.121456	0.721397
H177	H	0.982644	-0.230352	0.682543
H178	H	1.482644	0.269648	1.182543
C179	C	0.994042	-0.671563	0.487047
C180	C	1.494042	-0.171563	0.987047
H181	H	1.017994	-0.642542	0.517168
H182	H	1.517994	-0.142542	1.017168
H183	H	0.969955	-0.697220	0.521466
H184	H	1.469955	-0.197220	1.021466
H185	H	1.021499	-0.697193	0.456831
H186	H	1.521499	-0.197193	0.956831
C187	C	0.140406	-0.387843	0.274502
C188	C	0.640406	0.112157	0.774502
H189	H	0.169386	-0.411778	0.244335
H190	H	0.669386	0.088222	0.744335
H191	H	0.114751	-0.415307	0.304677
H192	H	0.614751	0.084693	0.804677
H193	H	0.114768	-0.363719	0.240114
H194	H	0.614768	0.136281	0.740114
C195	C	0.679294	-0.387784	0.274449
C196	C	1.179294	0.112216	0.774449
H197	H	0.650290	-0.411731	0.244297
H198	H	1.150290	0.088269	0.744297
H199	H	0.704947	-0.363663	0.240061
H200	H	1.204947	0.136337	0.740061
H201	H	0.704931	-0.415247	0.304628
H202	H	1.204931	0.084753	0.804628
C203	C	0.825243	-1.072617	0.274640
C204	C	1.325243	-0.572617	0.774640
H205	H	0.831021	-1.116470	0.281892
H206	H	1.331021	-0.616470	0.781892
H207	H	0.782937	-1.061871	0.286159
H208	H	1.282937	-0.561871	0.786159
H209	H	0.834490	-1.061857	0.221536
H210	H	1.334490	-0.561857	0.721536
C211	C	0.824974	-0.387922	1.091666
C212	C	1.324974	0.112078	1.591666
H213	H	0.800981	-0.411889	1.055248
H214	H	1.300981	0.088111	1.555248
H215	H	0.849035	-0.415354	1.123860
H216	H	1.349035	0.084646	1.623860
H217	H	0.797557	-0.363835	1.123874
H218	H	1.297557	0.136165	1.623874
H219	H	0.982686	-1.063020	0.472690
H220	H	1.482686	-0.563020	0.972690
H221	H	0.550713	-0.230436	0.472676
H222	H	1.050713	0.269564	0.972676
H223	H	0.836586	-0.662376	0.289015
H224	H	1.336586	-0.162376	0.789015
H225	H	0.149875	-0.230482	0.472714
H226	H	0.649875	0.269518	0.972714
C227	C	1.034431	-0.178606	0.967948
C228	C	1.534431	0.321394	1.467948
H229	H	1.028653	-0.184365	1.023019
H230	H	1.528653	0.315635	1.523019
H231	H	1.076724	-0.187816	0.954427
H232	H	1.576724	0.312184	1.454427
H233	H	1.025232	-0.136309	0.954431
H234	H	1.525232	0.363691	1.454431
H235	H	0.836469	-0.376403	0.682472
H236	H	1.336469	0.123597	1.182472
C237	C	0.825041	-0.533726	0.274529
C238	C	1.325041	-0.033726	0.774529
H239	H	0.801099	-0.562748	0.244397
H240	H	1.301099	-0.062748	0.744397
H241	H	0.797584	-0.508088	0.304726
H242	H	1.297584	-0.008088	0.804726
H243	H	0.849142	-0.508077	0.240108
H244	H	1.349142	-0.008077	0.740108
C245	C	0.994134	-0.934343	0.487111
C246	C	1.494134	-0.434343	0.987111
H247	H	0.988363	-0.890490	0.479849
H248	H	1.488363	-0.390490	0.979849
H249	H	0.984889	-0.945103	0.540211
H250	H	1.484889	-0.445103	1.040211
H251	H	1.036443	-0.945089	0.475590
H252	H	1.536443	-0.445089	0.975590
C253	C	0.825200	-0.934567	0.274605
C254	C	1.325200	-0.434567	0.774605
H255	H	0.801261	-0.963590	0.244472
H256	H	1.301261	-0.463590	0.744472
H257	H	0.797741	-0.908931	0.304801
H258	H	1.297741	-0.408931	0.804801
H259	H	0.849301	-0.908916	0.240186
H260	H	1.349301	-0.408916	0.740186
H261	H	0.796198	-0.416663	0.806265
H262	H	1.296198	0.083337	1.306265
C263	C	0.784691	-0.428170	0.967823
C264	C	1.284691	0.071830	1.467823
H265	H	0.760695	-0.452138	0.931410
H266	H	1.260695	0.047862	1.431410
H267	H	0.808759	-0.455601	1.000012
H268	H	1.308759	0.044399	1.500012
H269	H	0.757277	-0.404084	1.000038
H270	H	1.257277	0.095916	1.500038
