data_functionalizedCrystal
_audit_creation_method	'MofGen! by Chris Wilmer'
_symmetry_space_group_name_H-M	'P1'
_symmetry_Int_Tables_number	1
_symmetry_cell_setting	triclinic
loop_
_symmetry_equiv_pos_as_xyz
  x,y,z
_cell_length_a	19.077068
_cell_length_b	19.805407
_cell_length_c	19.805399
_cell_angle_alpha	89.980803
_cell_angle_beta	87.730571
_cell_angle_gamma	87.676776
loop_
_atom_site_label
_atom_site_type_symbol
_atom_site_fract_x
_atom_site_fract_y
_atom_site_fract_z
Zn1	Zn	-0.280290	-1.023901	0.393530
Zn2	Zn	-0.397988	-1.019266	0.284884
Zn3	Zn	-0.280301	-0.910715	0.280356
Zn4	Zn	-0.397943	-0.906132	0.398030
O5	O	-0.339131	-0.965004	0.339200
O6	O	-0.295917	-1.118002	0.379130
O7	O	-0.382401	-1.004846	0.189568
O8	O	-0.181809	-0.929588	0.291590
O9	O	-0.382390	-1.114597	0.299308
O10	O	-0.181800	-1.012745	0.374739
O11	O	-0.295936	-0.925094	0.186241
O12	O	-0.295892	-0.815391	0.295953
O13	O	-0.382312	-0.921775	0.492148
O14	O	-0.382323	-0.812024	0.382408
O15	O	-0.295873	-1.008300	0.488842
O16	O	-0.496473	-1.000401	0.303671
O17	O	-0.496440	-0.917281	0.386799
C18	C	-0.339105	-0.789149	0.339178
C19	C	-0.339111	-0.713916	0.339185
C20	C	-0.294163	-0.680343	0.380817
C21	C	-0.294165	-0.609654	0.380818
C22	C	-0.339119	-0.572540	0.339191
C23	C	-0.384069	-0.606119	0.297555
C24	C	-0.384062	-0.676806	0.297551
C25	C	-0.384094	-0.321045	0.297569
C26	C	-0.384099	-0.250352	0.297578
C27	C	-0.294197	-0.253893	0.380837
C28	C	-0.294191	-0.324580	0.380832
C29	C	-0.339138	-0.358152	0.339194
C30	C	-0.339134	-0.434801	0.339193
C31	C	-0.339127	-0.495893	0.339195
C32	C	-0.521994	-0.957859	0.346229
C33	C	-0.600224	-0.954864	0.349259
C34	C	-0.636971	-0.996767	0.307439
C35	C	-0.710476	-0.993955	0.310293
C36	C	-0.747233	-0.949235	0.354964
C37	C	-0.710482	-0.907331	0.396789
C38	C	-0.636978	-0.910147	0.393939
C39	C	-0.967067	-0.936171	0.368131
C40	C	-1.040576	-0.933356	0.370977
C41	C	-1.040566	-1.019981	0.284481
C42	C	-0.967060	-1.022791	0.281631
C43	C	-0.930315	-0.980889	0.323459
N44	N	-0.822368	-0.946358	0.357881
N45	N	-0.855182	-0.983770	0.320545
C46	C	-0.155553	-0.972195	0.332157
C47	C	-0.077323	-0.975259	0.329156
C48	C	-0.339086	-0.965043	0.515741
C49	C	-0.339067	-0.965060	0.590972
C50	C	-0.339152	-0.141546	0.339216
C51	C	-0.339147	-0.216778	0.339206
C52	C	-0.339124	-0.965005	0.163344
C53	C	-0.338945	-0.965127	0.088105
C54	C	-0.294056	-1.010115	0.624596
C55	C	-0.294036	-1.010123	0.695284
C56	C	-0.339031	-0.965078	0.732346
C57	C	-0.384044	-0.920019	0.698718
C58	C	-0.384060	-0.920009	0.628031
C59	C	-0.383978	-0.920060	0.983789
C60	C	-0.383960	-0.920075	1.054480
C61	C	-0.293954	-1.010174	1.051041
C62	C	-0.293970	-1.010163	0.980355
C63	C	-0.338980	-0.965102	0.946732
C64	C	-0.339001	-0.965093	0.870084
C65	C	-0.339014	-0.965090	0.808993
H66	H	-0.420667	-0.575895	0.263658
O67	O	-0.427842	-0.214266	0.257235
C68	C	-0.473347	-0.171610	0.297449
H69	H	-0.477771	-0.192765	0.350918
H70	H	-0.527476	-0.168686	0.274960
H71	H	-0.451593	-0.118886	0.298988
O72	O	-0.427761	-0.709496	0.257208
C73	C	-0.473279	-0.748615	0.297419
H74	H	-0.448526	-0.760187	0.347800
H75	H	-0.482667	-0.797946	0.270193
H76	H	-0.525451	-0.719345	0.306779
O77	O	-0.250156	-1.053850	0.944384
C78	C	-0.180007	-1.041812	0.958984
H79	H	-0.176448	-0.987881	0.978267
H80	H	-0.145240	-1.048996	0.911169
H81	H	-0.161606	-1.078824	0.999319
O82	O	-0.601204	-0.869412	0.434466
C83	C	-0.558759	-0.827331	0.394248
H84	H	-0.547762	-0.851652	0.342549
H85	H	-0.507060	-0.820227	0.419807
H86	H	-0.587130	-0.776089	0.387866
O87	O	-0.931328	-1.066139	0.238164
C88	C	-0.888859	-1.029258	0.192774
H89	H	-0.911053	-0.975101	0.189406
H90	H	-0.888046	-1.053800	0.140676
H91	H	-0.833138	-1.029051	0.211536
O92	O	-0.250430	-0.716290	0.421275
C93	C	-0.210772	-0.671495	0.458032
H94	H	-0.208300	-0.621193	0.430218
H95	H	-0.155326	-0.694081	0.463209
H96	H	-0.236618	-0.662988	0.510390
H97	H	-0.607048	-1.033179	0.271059
H98	H	-0.740392	-1.028076	0.276237
O99	O	-0.250456	-0.360530	0.421288
C100	C	-0.210795	-0.315738	0.458045
H101	H	-0.208325	-0.265434	0.430235
H102	H	-0.155349	-0.338325	0.463218
H103	H	-0.236638	-0.307235	0.510405
O104	O	-0.427822	-0.353544	0.257107
C105	C	-0.467487	-0.305626	0.220357
H106	H	-0.469967	-0.255154	0.248180
H107	H	-0.522929	-0.323886	0.215176
H108	H	-0.441641	-0.299090	0.168001
O109	O	-1.076369	-1.060665	0.243929
C110	C	-1.149128	-1.048583	0.256011
H111	H	-1.159147	-1.025993	0.308611
H112	H	-1.177023	-1.098219	0.252559
H113	H	-1.170047	-1.011769	0.216636
H114	H	-0.257566	-0.582322	0.414719
H115	H	-0.420602	-0.883392	1.084655
O116	O	-0.931460	-0.895489	0.408851
C117	C	-0.949353	-0.909559	0.477019
H118	H	-1.002696	-0.933541	0.480515
H119	H	-0.951894	-0.860591	0.507415
H120	H	-0.907937	-0.945922	0.498252
H121	H	-0.257597	-0.226550	0.414738
H122	H	-0.740415	-0.870923	0.433165
H123	H	-1.070502	-0.896949	0.407366
H124	H	-0.420706	-0.883314	0.600656
H125	H	-0.257418	-1.046797	0.594424
O126	O	-0.250292	-1.053956	0.727840
C127	C	-0.210574	-1.093702	0.679970
H128	H	-0.239416	-1.094907	0.630689
H129	H	-0.203074	-1.147328	0.700116
H130	H	-0.157116	-1.071014	0.670395
H131	H	-0.257302	-1.046863	1.078425
O132	O	-0.427757	-0.876257	0.951240
C133	C	-0.467448	-0.836489	0.999113
H134	H	-0.469893	-0.864134	1.049594
H135	H	-0.522901	-0.827072	0.980810
H136	H	-0.441648	-0.786105	1.005645
H137	H	-0.420677	-0.883341	0.728900
