data_functionalizedCrystal
_audit_creation_method	'MofGen! by Chris Wilmer'
_symmetry_space_group_name_H-M	'P1'
_symmetry_Int_Tables_number	1
_symmetry_cell_setting	triclinic
loop_
_symmetry_equiv_pos_as_xyz
  x,y,z
_cell_length_a	13.635800
_cell_length_b	7.190339
_cell_length_c	7.076093
_cell_angle_alpha	109.695115
_cell_angle_beta	117.701465
_cell_angle_gamma	60.611724
loop_
_atom_site_label
_atom_site_type_symbol
_atom_site_fract_x
_atom_site_fract_y
_atom_site_fract_z
V1	V	-1.822569	0.291701	0.663510
V2	V	-1.322569	0.791701	1.163510
O3	O	-1.774576	-0.017518	0.652431
O4	O	-1.274576	0.482482	1.152431
O5	O	-1.843280	0.581760	0.657480
O6	O	-1.343280	1.081760	1.157480
O7	O	-1.695237	0.285678	0.953571
O8	O	-1.195237	0.785678	1.453571
O9	O	-1.923644	0.280614	0.354291
O10	O	-1.423644	0.780614	0.854291
V11	V	-2.071928	0.254896	0.626707
V12	V	-1.571928	0.754896	1.126707
O13	O	-1.936535	0.372435	0.744243
O14	O	-1.436535	0.872435	1.244243
O15	O	-2.183061	0.174162	0.545974
O16	O	-1.683061	0.674162	1.045974
O17	O	-1.939614	-0.035163	0.632737
O18	O	-1.439614	0.464837	1.132737
O19	O	-2.178619	0.564115	0.637786
O20	O	-1.678619	1.064115	1.137786
O21	O	-2.029551	0.265983	0.935926
O22	O	-1.529551	0.765983	1.435926
O23	O	-2.087657	0.260919	0.336646
O24	O	-1.587657	0.760919	0.836646
V25	V	-1.322569	0.291701	0.663510
V26	V	-0.822569	0.791701	1.163510
O27	O	-1.274576	-0.017518	0.652431
O28	O	-0.774576	0.482482	1.152431
O29	O	-1.343280	0.581760	0.657480
O30	O	-0.843280	1.081760	1.157480
O31	O	-1.195237	0.285678	0.953571
O32	O	-0.695237	0.785678	1.453571
O33	O	-1.423644	0.280614	0.354291
O34	O	-0.923644	0.780614	0.854291
V35	V	-1.571928	0.254896	0.626707
V36	V	-1.071928	0.754896	1.126707
O37	O	-1.436535	0.372435	0.744243
O38	O	-0.936535	0.872435	1.244243
O39	O	-1.683061	0.174162	0.545974
O40	O	-1.183061	0.674162	1.045974
O41	O	-1.439614	-0.035163	0.632737
O42	O	-0.939614	0.464837	1.132737
O43	O	-1.678619	0.564115	0.637786
O44	O	-1.178619	1.064115	1.137786
O45	O	-1.529551	0.265983	0.935926
O46	O	-1.029551	0.765983	1.435926
O47	O	-1.587657	0.260919	0.336646
O48	O	-1.087657	0.760919	0.836646
C49	C	-1.780048	0.652521	0.646638
C50	C	-1.280048	1.152521	1.146638
C51	C	-1.838005	0.894096	0.643590
C52	C	-1.338005	1.394096	1.143590
C53	C	-1.591204	0.274825	1.024318
C54	C	-1.091204	0.774825	1.524318
C55	C	-1.526846	0.271761	1.265891
C56	C	-1.026846	0.771761	1.765891
C57	C	-2.023363	0.271767	0.265887
C58	C	-1.523363	0.771767	0.765887
C59	C	-2.077145	0.274826	0.024313
C60	C	-1.577145	0.774826	0.524313
C61	C	-1.280048	0.652521	0.646638
C62	C	-0.780048	1.152521	1.146638
C63	C	-1.338005	0.894096	0.643590
C64	C	-0.838005	1.394096	1.143590
