data_functionalizedCrystal
_audit_creation_method	'MofGen! by Chris Wilmer'
_symmetry_space_group_name_H-M	'P1'
_symmetry_Int_Tables_number	1
_symmetry_cell_setting	triclinic
loop_
_symmetry_equiv_pos_as_xyz
  x,y,z
_cell_length_a	10.654562
_cell_length_b	27.731996
_cell_length_c	9.730223
_cell_angle_alpha	89.992740
_cell_angle_beta	89.996961
_cell_angle_gamma	83.555745
loop_
_atom_site_label
_atom_site_type_symbol
_atom_site_fract_x
_atom_site_fract_y
_atom_site_fract_z
O1	O	1.664937	0.067915	-0.114400
O2	O	1.299186	0.074376	-0.114385
O3	O	1.493455	0.000818	-0.114363
O4	O	1.470668	0.141473	-0.114422
O5	O	1.493452	0.000820	0.114216
O6	O	1.299183	0.074378	0.114195
O7	O	1.664934	0.067916	0.114180
Zn8	Zn	1.482059	0.071147	0.150479
Zn9	Zn	1.482062	0.071145	-0.150685
O10	O	1.470665	0.141474	0.114158
C11	C	1.252407	0.073901	-0.000093
C12	C	1.113025	0.072478	-0.000086
C13	C	1.047521	0.071815	0.124503
C14	C	0.916556	0.070482	0.124480
C15	C	0.916608	0.070476	-0.124730
C16	C	1.047573	0.071806	-0.124706
C17	C	1.047489	0.071820	0.268383
C18	C	0.916523	0.070487	0.268360
C19	C	1.492985	-0.017192	-0.000069
C20	C	1.491576	-0.070857	-0.000055
C21	C	1.482706	-0.403629	-0.124720
C22	C	1.477352	-0.605321	-0.124744
O23	O	1.476607	-0.631397	-0.230712
N24	N	1.476686	-0.630541	-0.000147
C25	C	1.477350	-0.605335	0.124466
O26	O	1.476647	-0.631414	0.230444
C27	C	1.482695	-0.403644	0.124489
C28	C	1.483374	-0.378427	-0.000117
C29	C	1.483384	-0.378412	-0.249316
C30	C	1.484729	-0.327993	-0.249309
C31	C	1.485397	-0.302790	-0.124706
C32	C	1.484719	-0.328007	-0.000110
C33	C	1.483350	-0.378438	0.249100
C34	C	1.484683	-0.328012	0.249094
C35	C	1.485362	-0.302795	0.124488
C36	C	1.486732	-0.252385	0.124500
N37	N	1.487398	-0.227165	-0.000098
C38	C	1.486731	-0.252367	-0.124701
C39	C	1.474546	-0.711226	0.124445
C40	C	1.473212	-0.761649	0.124440
C41	C	1.473212	-0.761631	-0.124771
C42	C	1.474555	-0.711208	-0.124764
C43	C	1.475212	-0.686006	-0.000152
C44	C	1.489557	-0.146483	-0.124676
C45	C	1.490908	-0.096059	-0.124658
C46	C	1.490901	-0.096081	0.124552
C47	C	1.489557	-0.146501	0.124535
C48	C	1.488881	-0.171700	-0.000090
O49	O	1.487464	-0.226277	0.230412
O50	O	1.487405	-0.226279	-0.230662
C51	C	1.481361	-0.454049	-0.124728
C52	C	1.480683	-0.479266	-0.000132
C53	C	1.481351	-0.454064	0.124471
C54	C	1.479349	-0.529689	-0.000137
C55	C	1.478682	-0.554891	-0.124740
C56	C	1.479348	-0.529671	-0.249338
C57	C	1.480693	-0.479251	-0.249331
C58	C	1.480685	-0.479284	0.249069
C59	C	1.479341	-0.529704	0.249052
C60	C	1.478673	-0.554906	0.124448
C61	C	1.711713	0.068391	-0.000116
C62	C	1.851095	0.069814	-0.000132
C63	C	1.471135	0.159484	-0.000140
C64	C	1.472545	0.213149	-0.000163
N65	N	1.482066	0.071149	0.356016
N66	N	1.482064	0.071140	-0.356221
C67	C	1.568109	0.038588	0.427951
C68	C	1.568106	0.038583	0.571834
C69	C	1.396011	0.103702	0.571833
C70	C	1.396010	0.103705	0.427953
C71	C	1.667471	0.000994	0.427953
C72	C	1.667468	0.000988	0.571836
H73	H	1.075564	0.107071	0.313011
Cl74	Cl	0.873126	0.016113	0.337607
Cl75	Cl	1.121112	0.020252	0.353708
H76	H	1.763627	0.009271	0.610879
Cl77	Cl	0.842858	0.122058	0.353614
H78	H	1.491463	-0.075530	-0.226131
H79	H	1.489000	-0.166994	-0.226158
Cl80	Cl	1.636803	-0.056363	0.367671
Cl81	Cl	1.622653	-0.053212	0.640756
Cl82	Cl	1.472365	-0.793323	-0.281414
H83	H	1.472679	-0.782177	0.225907
H84	H	1.325946	0.130208	0.630420
H85	H	1.475106	-0.690679	-0.226229
Cl86	Cl	1.129921	0.072628	-0.281338
Cl87	Cl	0.834319	0.069626	-0.281387
H88	H	1.475088	-0.690711	0.225925
H89	H	1.758154	0.012767	0.383317
H90	H	1.489016	-0.167034	0.225999
H91	H	1.485277	-0.307465	-0.350776
Cl92	Cl	1.482546	-0.410086	-0.405982
Cl93	Cl	1.482488	-0.410127	0.405758
Cl94	Cl	1.491741	-0.064388	0.281188
Cl95	Cl	1.485511	-0.296333	0.405760
H96	H	1.481245	-0.458724	-0.350798
H97	H	1.478810	-0.550200	-0.350794
H98	H	1.478798	-0.550231	0.350528
Cl99	Cl	1.481515	-0.447608	0.405730
Cl100	Cl	1.287821	0.144632	0.337518
