data_functionalizedCrystal
_audit_creation_method	'MofGen! by Chris Wilmer'
_symmetry_space_group_name_H-M	'P1'
_symmetry_Int_Tables_number	1
_symmetry_cell_setting	triclinic
loop_
_symmetry_equiv_pos_as_xyz
  x,y,z
_cell_length_a	29.839131
_cell_length_b	18.215407
_cell_length_c	18.215399
_cell_angle_alpha	90.017777
_cell_angle_beta	89.969127
_cell_angle_gamma	89.962959
loop_
_atom_site_label
_atom_site_type_symbol
_atom_site_fract_x
_atom_site_fract_y
_atom_site_fract_z
Zn1	Zn	-0.178910	-1.124987	-0.416060
Zn2	Zn	0.321090	-0.624987	0.083940
Zn3	Zn	-0.254040	-1.124860	-0.292988
Zn4	Zn	0.245960	-0.624860	0.207012
Zn5	Zn	-0.178919	-1.001920	-0.293012
Zn6	Zn	0.321081	-0.501920	0.206988
Zn7	Zn	-0.254008	-1.001850	-0.416017
Zn8	Zn	0.245992	-0.501850	0.083983
O9	O	-0.216469	-1.063404	-0.354519
O10	O	0.283531	-0.563404	0.145481
O11	O	-0.188886	-1.227955	-0.399743
O12	O	0.311114	-0.727955	0.100257
O13	O	-0.244091	-1.108528	-0.190007
O14	O	0.255909	-0.608528	0.309993
O15	O	-0.116051	-1.018327	-0.309363
O16	O	0.383949	-0.518327	0.190637
O17	O	-0.244083	-1.227861	-0.309322
O18	O	0.255917	-0.727861	0.190678
O19	O	-0.116044	-1.108744	-0.399766
O20	O	0.383956	-0.608744	0.100234
O21	O	-0.188900	-1.018204	-0.190025
O22	O	0.311100	-0.518204	0.309975
O23	O	-0.188870	-0.898926	-0.309321
O24	O	0.311130	-0.398926	0.190679
O25	O	-0.244030	-1.018209	-0.519007
O26	O	0.255970	-0.518209	-0.019007
O27	O	-0.244038	-0.898875	-0.399692
O28	O	0.255962	-0.398875	0.100308
O29	O	-0.188856	-1.108677	-0.519039
O30	O	0.311144	-0.608677	-0.019039
O31	O	-0.316903	-1.108460	-0.309280
O32	O	0.183097	-0.608460	0.190720
O33	O	-0.316880	-1.018085	-0.399669
O34	O	0.183120	-0.518085	0.100331
C35	C	-0.216452	-0.872198	-0.354505
C36	C	0.283548	-0.372198	0.145495
C37	C	-0.216455	-0.790399	-0.354517
C38	C	0.283545	-0.290399	0.145483
C39	C	-0.187770	-0.602253	-0.401672
C40	C	0.312230	-0.102253	0.098328
C41	C	-0.187772	-0.525394	-0.401674
C42	C	0.312228	-0.025394	0.098326
C43	C	-0.245162	-0.525308	-0.307373
C44	C	0.254838	-0.025308	0.192627
C45	C	-0.245157	-0.602165	-0.307368
C46	C	0.254843	-0.102165	0.192632
C47	C	-0.216462	-0.640636	-0.354521
C48	C	0.283538	-0.140636	0.145479
C49	C	-0.216469	-0.486920	-0.354528
C50	C	0.283531	0.013080	0.145472
C51	C	-0.216472	-0.403586	-0.354530
C52	C	0.283528	0.096414	0.145470
C53	C	-0.216458	-0.723975	-0.354519
C54	C	0.283542	-0.223975	0.145481
C55	C	-0.333192	-1.063272	-0.354483
C56	C	0.166808	-0.563272	0.145517
C57	C	-0.383126	-1.063282	-0.354492
C58	C	0.116874	-0.563282	0.145508
C59	C	-0.692769	-1.110548	-0.307523
C60	C	-0.192769	-0.610548	0.192477
C61	C	-0.880442	-1.110639	-0.307551
C62	C	-0.380442	-0.610639	0.192449
O63	O	-0.904706	-1.150721	-0.267588
O64	O	-0.404706	-0.650721	0.232412
N65	N	-0.903911	-1.063557	-0.354575
N66	N	-0.403911	-0.563557	0.145425
C67	C	-0.880460	-1.016452	-0.401598
C68	C	-0.380460	-0.516452	0.098402
O69	O	-0.904728	-0.976414	-0.441601
O70	O	-0.404728	-0.476414	0.058399
C71	C	-0.692787	-1.016366	-0.401573
C72	C	-0.192787	-0.516366	0.098427
C73	C	-0.669321	-1.063446	-0.354541
C74	C	-0.169321	-0.563446	0.145459
C75	C	-0.669302	-1.157625	-0.260495
C76	C	-0.169302	-0.657625	0.239505
C77	C	-0.622387	-1.157599	-0.260485
C78	C	-0.122387	-0.657599	0.239515
C79	C	-0.598938	-1.110496	-0.307504
C80	C	-0.098938	-0.610496	0.192496
C81	C	-0.622405	-1.063420	-0.354531
C82	C	-0.122405	-0.563420	0.145469
C83	C	-0.669336	-0.969265	-0.448600
C84	C	-0.169336	-0.469265	0.051400
C85	C	-0.622415	-0.969249	-0.448590
C86	C	-0.122415	-0.469249	0.051410
C87	C	-0.598949	-1.016329	-0.401558
C88	C	-0.098949	-0.516329	0.098442
C89	C	-0.552041	-1.016291	-0.401540
C90	C	-0.052041	-0.516291	0.098460
N91	N	-0.528572	-1.063373	-0.354516
N92	N	-0.028572	-0.563373	0.145484
C93	C	-0.552020	-1.110476	-0.307498
C94	C	-0.052020	-0.610476	0.192502
C95	C	-0.978990	-1.016500	-0.401607
C96	C	-0.478990	-0.516500	0.098393
C97	C	-1.025908	-1.016521	-0.401613
C98	C	-0.525908	-0.516521	0.098387
C99	C	-1.025887	-1.110709	-0.307566
C100	C	-0.525887	-0.610709	0.192434
C101	C	-0.978969	-1.110684	-0.307558
C102	C	-0.478969	-0.610684	0.192442
C103	C	-0.955521	-1.063582	-0.354584
C104	C	-0.455521	-0.563582	0.145416
C105	C	-0.453495	-1.110417	-0.307481
C106	C	0.046505	-0.610417	0.192519
C107	C	-0.406575	-1.110385	-0.307474
C108	C	0.093425	-0.610385	0.192526
C109	C	-0.406600	-1.016200	-0.401523
C110	C	0.093400	-0.516200	0.098477
C111	C	-0.453515	-1.016229	-0.401528
C112	C	0.046485	-0.516229	0.098472
C113	C	-0.476961	-1.063344	-0.354505
C114	C	0.023039	-0.563344	0.145495
O115	O	-0.527748	-0.976236	-0.441488
O116	O	-0.027748	-0.476236	0.058512
O117	O	-0.527744	-1.150520	-0.267513
O118	O	-0.027744	-0.650520	0.232487
C119	C	-0.739685	-1.110574	-0.307532
C120	C	-0.239685	-0.610574	0.192468
C121	C	-0.763151	-1.063498	-0.354560
C122	C	-0.263151	-0.563498	0.145440
C123	C	-0.739703	-1.016395	-0.401578
C124	C	-0.239703	-0.516395	0.098422
C125	C	-0.810069	-1.063518	-0.354565
C126	C	-0.310069	-0.563518	0.145435
C127	C	-0.833518	-1.110621	-0.307547
C128	C	-0.333518	-0.610621	0.192453
C129	C	-0.810049	-1.157703	-0.260523
C130	C	-0.310049	-0.657703	0.239477
C131	C	-0.763133	-1.157677	-0.260514
C132	C	-0.263133	-0.657677	0.239486
C133	C	-0.763172	-0.969313	-0.448602
C134	C	-0.263172	-0.469313	0.051398
C135	C	-0.810088	-0.969342	-0.448607
C136	C	-0.310088	-0.469342	0.051393
C137	C	-0.833536	-1.016445	-0.401589
C138	C	-0.333536	-0.516445	0.098411
C139	C	-0.099291	-1.063558	-0.354572
C140	C	0.400709	-0.563558	0.145428
C141	C	-0.049357	-1.063623	-0.354595
C142	C	0.450643	-0.563623	0.145405
C143	C	-0.216438	-1.063449	-0.546472
C144	C	0.283562	-0.563449	-0.046472
C145	C	-0.216425	-1.063468	-0.628271
C146	C	0.283575	-0.563468	-0.128271
C147	C	-0.216482	-0.255357	-0.354532
C148	C	0.283518	0.244643	0.145468
C149	C	-0.216475	-0.337156	-0.354533
C150	C	0.283525	0.162844	0.145467
C151	C	-0.187669	-1.110592	-0.816483
C152	C	0.312331	-0.610592	-0.316483
C153	C	-0.187656	-1.110601	-0.893342
C154	C	0.312344	-0.610601	-0.393342
C155	C	-0.245112	-1.016397	-0.893298
C156	C	0.254888	-0.516397	-0.393298
C157	C	-0.245122	-1.016385	-0.816440
C158	C	0.254878	-0.516385	-0.316440
C159	C	-0.216402	-1.063487	-0.778035
C160	C	0.283598	-0.563487	-0.278035
C161	C	-0.216378	-1.063507	-0.931751
C162	C	0.283622	-0.563507	-0.431751
C163	C	-0.216364	-1.063517	-1.015085
C164	C	0.283636	-0.563517	-0.515085
C165	C	-0.216415	-1.063477	-0.694696
C166	C	0.283585	-0.563477	-0.194696
C167	C	-0.216468	-1.063402	-0.163313
C168	C	0.283532	-0.563402	0.336687
C169	C	-0.216354	-1.063526	-0.081515
C170	C	0.283646	-0.563526	0.418485
H171	H	-0.472579	-1.148784	-0.269192
H172	H	0.027421	-0.648784	0.230808
C173	C	-0.156213	-0.483176	-0.453543
C174	C	0.343787	0.016824	0.046457
H175	H	-0.139126	-0.517098	-0.481627
H176	H	0.360874	-0.017098	0.018373
H177	H	-0.136617	-0.453201	-0.425454
H178	H	0.363383	0.046799	0.074546
H179	H	-0.173428	-0.453191	-0.485561
H180	H	0.326572	0.046809	0.014439
H181	H	-0.164402	-0.633573	-0.440065
H182	H	0.335598	-0.133573	0.059935
C183	C	-0.156056	-1.162424	-0.935635
C184	C	0.343944	-0.662424	-0.435635
H185	H	-0.160160	-1.155684	-0.986910
H186	H	0.339840	-0.655684	-0.486910
H187	H	-0.162641	-1.211858	-0.923042
H188	H	0.337359	-0.711858	-0.423042
H189	H	-0.125869	-1.151692	-0.923054
H190	H	0.374131	-0.651692	-0.423054
H191	H	-0.603283	-1.195937	-0.222190
H192	H	-0.103283	-0.695937	0.277810
C193	C	-0.276730	-0.482992	-0.255513
C194	C	0.223270	0.017008	0.244487
H195	H	-0.293814	-0.516861	-0.227427
H196	H	0.206186	-0.016861	0.272573
H197	H	-0.296327	-0.453003	-0.283610
H198	H	0.203673	0.046997	0.216390
H199	H	-0.259520	-0.453013	-0.223497
H200	H	0.240480	0.046987	0.276503
H201	H	-0.268523	-0.633417	-0.268969
H202	H	0.231477	-0.133417	0.231031
C203	C	-0.156076	-1.162395	-0.774236
C204	C	0.343924	-0.662395	-0.274236
H205	H	-0.160199	-1.155648	-0.722956
H206	H	0.339801	-0.655648	-0.222956
H207	H	-0.125889	-1.151664	-0.786846
H208	H	0.374111	-0.651664	-0.286846
H209	H	-0.162655	-1.211838	-0.786838
H210	H	0.337345	-0.711838	-0.286838
C211	C	-0.380764	-1.162178	-0.255740
C212	C	0.119236	-0.662178	0.244260
H213	H	-0.401451	-1.190239	-0.227746
H214	H	0.098549	-0.690239	0.272254
H215	H	-0.362490	-1.134039	-0.223644
H216	H	0.137510	-0.634039	0.276356
H217	H	-0.362432	-1.194221	-0.283922
H218	H	0.137568	-0.694221	0.216078
C219	C	-0.695089	-1.209438	-0.208766
C220	C	-0.195089	-0.709438	0.291234
H221	H	-0.674387	-1.237463	-0.180758
H222	H	-0.174387	-0.737463	0.319242
H223	H	-0.713365	-1.241502	-0.236937
H224	H	-0.213365	-0.741502	0.263063
H225	H	-0.713416	-1.181307	-0.176672
H226	H	-0.213416	-0.681307	0.323328
C227	C	-0.953159	-1.162477	-0.255829
C228	C	-0.453159	-0.662477	0.244171
H229	H	-0.973848	-1.190532	-0.227833
H230	H	-0.473848	-0.690532	0.272167
H231	H	-0.934882	-1.134341	-0.223735
H232	H	-0.434882	-0.634341	0.276265
H233	H	-0.934831	-1.194524	-0.284012
H234	H	-0.434831	-0.694524	0.215988
C235	C	-0.276706	-0.964593	-0.935542
C236	C	0.223294	-0.464593	-0.435542
H237	H	-0.293817	-0.936533	-0.901634
H238	H	0.206183	-0.436533	-0.401634
H239	H	-0.296278	-0.992726	-0.965518
H240	H	0.203722	-0.492726	-0.465518
H241	H	-0.259512	-0.932551	-0.965528
H242	H	0.240488	-0.432551	-0.465528
H243	H	-1.044987	-1.149062	-0.269283
H244	H	-0.544987	-0.649062	0.230717
C245	C	-1.051717	-0.964729	-0.453344
C246	C	-0.551717	-0.464729	0.046656
H247	H	-1.031028	-0.936681	-0.481348
H248	H	-0.531028	-0.436681	0.018652
H249	H	-1.070049	-0.932685	-0.425172
H250	H	-0.570049	-0.432685	0.074828
H251	H	-1.069989	-0.992875	-0.485441
H252	H	-0.569989	-0.492875	0.014559
H253	H	-0.268519	-0.978021	-0.785135
H254	H	0.231481	-0.478021	-0.285135
C255	C	-0.380800	-0.964395	-0.453242
C256	C	0.119200	-0.464395	0.046758
H257	H	-0.349498	-0.971133	-0.446503
H258	H	0.150502	-0.471133	0.053497
H259	H	-0.388519	-0.914955	-0.442438
H260	H	0.111481	-0.414955	0.057562
H261	H	-0.388463	-0.975151	-0.502701
H262	H	0.111537	-0.475151	-0.002701
H263	H	-0.959902	-0.978143	-0.439902
H264	H	-0.459902	-0.478143	0.060098
C265	C	-0.695140	-0.917482	-0.500341
C266	C	-0.195140	-0.417482	-0.000341
H267	H	-0.674449	-0.889438	-0.528345
H268	H	-0.174449	-0.389438	-0.028345
H269	H	-0.713474	-0.885434	-0.472176
H270	H	-0.213474	-0.385434	0.027824
H271	H	-0.713411	-0.945631	-0.532439
H272	H	-0.213411	-0.445631	-0.032439
H273	H	-0.472623	-0.977895	-0.439827
H274	H	0.027377	-0.477895	0.060173
C275	C	-0.596623	-0.917437	-0.500318
C276	C	-0.096623	-0.417437	-0.000318
H277	H	-0.565319	-0.924165	-0.493585
H278	H	-0.065319	-0.424165	0.006415
H279	H	-0.604347	-0.868000	-0.489509
H280	H	-0.104347	-0.368000	0.010491
H281	H	-0.604288	-0.928192	-0.549777
H282	H	-0.104288	-0.428192	-0.049777
C283	C	-0.835846	-1.209516	-0.208803
C284	C	-0.335846	-0.709516	0.291197
H285	H	-0.815153	-1.237552	-0.180787
H286	H	-0.315153	-0.737552	0.319213
H287	H	-0.854119	-1.241569	-0.236991
H288	H	-0.354119	-0.741569	0.263009
H289	H	-0.854177	-1.181385	-0.176716
H290	H	-0.354177	-0.681385	0.323284
C291	C	-0.835896	-0.917552	-0.500347
C292	C	-0.335896	-0.417552	-0.000347
H293	H	-0.815207	-0.889504	-0.528351
H294	H	-0.315207	-0.389504	-0.028351
H295	H	-0.854232	-0.885509	-0.472181
H296	H	-0.354232	-0.385509	0.027819
H297	H	-0.854166	-0.945704	-0.532445
H298	H	-0.354166	-0.445704	-0.032445
H299	H	-0.744084	-0.930957	-0.486891
H300	H	-0.244084	-0.430957	0.013109
H301	H	-0.744030	-1.196014	-0.222216
H302	H	-0.244030	-0.696014	0.277784
