data_functionalizedCrystal
_audit_creation_method	'MofGen! by Chris Wilmer'
_symmetry_space_group_name_H-M	'P1'
_symmetry_Int_Tables_number	1
_symmetry_cell_setting	triclinic
loop_
_symmetry_equiv_pos_as_xyz
  x,y,z
_cell_length_a	16.109301
_cell_length_b	16.109304
_cell_length_c	9.730223
_cell_angle_alpha	89.998411
_cell_angle_beta	89.999429
_cell_angle_gamma	83.462059
loop_
_atom_site_label
_atom_site_type_symbol
_atom_site_fract_x
_atom_site_fract_y
_atom_site_fract_z
O1	O	1.103132	0.106867	-0.114194
O2	O	1.603132	0.606867	0.385806
O3	O	0.861070	0.120166	-0.114215
O4	O	1.361070	0.620166	0.385785
O5	O	0.988749	-0.007514	-0.114205
O6	O	1.488749	0.492486	0.385795
O7	O	0.975452	0.234547	-0.114204
O8	O	1.475452	0.734547	0.385796
O9	O	0.988741	-0.007518	0.114375
O10	O	1.488741	0.492482	0.614375
O11	O	0.861062	0.120163	0.114365
O12	O	1.361062	0.620163	0.614365
O13	O	1.103123	0.106863	0.114386
O14	O	1.603123	0.606863	0.614386
Zn15	Zn	0.982091	0.113512	0.150667
Zn16	Zn	1.482091	0.613512	0.650667
Zn17	Zn	0.982102	0.113517	-0.150497
Zn18	Zn	1.482102	0.613517	0.349503
O19	O	0.975444	0.234544	0.114375
O20	O	1.475444	0.734544	0.614375
C21	C	0.830091	0.119626	0.000072
C22	C	1.330091	0.619626	0.500072
C23	C	0.737795	0.118010	0.000064
C24	C	1.237795	0.618010	0.500064
C25	C	0.515524	0.190018	0.000080
C26	C	1.015524	0.690018	0.500080
C27	C	0.428803	0.188494	0.000089
C28	C	0.928803	0.688494	0.500089
C29	C	0.448676	0.037005	0.000083
C30	C	0.948676	0.537005	0.500083
C31	C	0.535395	0.038530	0.000084
C32	C	1.035395	0.538530	0.500084
C33	C	0.568816	0.115039	0.000075
C34	C	1.068816	0.615039	0.500075
C35	C	0.395377	0.111990	0.000083
C36	C	0.895377	0.611990	0.500083
C37	C	0.301351	0.110337	0.000093
C38	C	0.801351	0.610337	0.500093
C39	C	0.662848	0.116693	0.000068
C40	C	1.162848	0.616693	0.500068
C41	C	0.988206	-0.038491	0.000082
C42	C	1.488206	0.461509	0.500082
C43	C	0.986590	-0.130786	0.000072
C44	C	1.486590	0.369214	0.500072
C45	C	0.982861	-0.343122	-0.124522
C46	C	1.482861	0.156878	0.375478
C47	C	0.981335	-0.429842	-0.124521
C48	C	1.481335	0.070158	0.375479
C49	C	0.981330	-0.429843	0.124690
C50	C	1.481330	0.070157	0.624690
C51	C	0.982850	-0.343123	0.124687
C52	C	1.482850	0.156877	0.624687
C53	C	0.983620	-0.299766	0.000077
C54	C	1.483620	0.200234	0.500077
C55	C	0.980573	-0.473205	0.000081
C56	C	1.480573	0.026795	0.500081
C57	C	0.978919	-0.567231	0.000083
C58	C	1.478919	-0.067231	0.500083
C59	C	0.985273	-0.205734	0.000075
C60	C	1.485273	0.294266	0.500075
C61	C	1.134102	0.107404	0.000095
C62	C	1.634102	0.607404	0.500095
C63	C	1.226398	0.109019	0.000095
C64	C	1.726398	0.609019	0.500095
C65	C	0.975987	0.265520	0.000086
C66	C	1.475987	0.765520	0.500086
C67	C	0.977603	0.357816	0.000086
C68	C	1.477603	0.857816	0.500086
N69	N	0.982090	0.113509	0.356204
N70	N	1.482090	0.613509	0.856204
N71	N	0.982110	0.113514	-0.356033
N72	N	1.482110	0.613514	0.143967
C73	C	1.038645	0.056996	0.428134
C74	C	1.538645	0.556996	0.928134
C75	C	1.038654	0.056996	0.572017
C76	C	1.538654	0.556996	1.072017
C77	C	0.925548	0.170030	0.572026
C78	C	1.425548	0.670030	1.072026
C79	C	0.925537	0.170025	0.428146
C80	C	1.425537	0.670025	0.928146
H81	H	0.578788	-0.022530	0.000084
H82	H	1.078788	0.477470	0.500084
H83	H	0.385416	0.249550	0.000095
H84	H	0.885416	0.749550	0.500095
H85	H	0.542732	0.252316	0.000083
H86	H	1.042732	0.752316	0.500083
H87	H	0.983485	-0.307822	-0.225987
H88	H	1.483485	0.192178	0.274013
H89	H	0.879478	0.216045	0.369576
H90	H	1.379478	0.716045	0.869576
H91	H	1.084705	0.010977	0.630579
H92	H	1.584705	0.510977	1.130579
Br93	Br	0.848802	0.246729	0.669667
Br94	Br	1.348802	0.746729	1.169667
H95	H	0.980715	-0.465138	-0.225982
H96	H	1.480715	0.034862	0.274018
Br97	Br	0.403313	-0.066823	0.000089
Br98	Br	0.903313	0.433177	0.500089
H99	H	0.980705	-0.465155	0.226143
H100	H	1.480705	0.034845	0.726143
Br101	Br	1.115394	-0.019706	0.330503
Br102	Br	1.615394	0.480294	0.830503
H103	H	0.983463	-0.307821	0.226157
H104	H	1.483463	0.192179	0.726157
