data_functionalizedCrystal
_audit_creation_method	'MofGen! by Chris Wilmer'
_symmetry_space_group_name_H-M	'P1'
_symmetry_Int_Tables_number	1
_symmetry_cell_setting	triclinic
loop_
_symmetry_equiv_pos_as_xyz
  x,y,z
_cell_length_a	16.120530
_cell_length_b	21.295417
_cell_length_c	16.120297
_cell_angle_alpha	92.867002
_cell_angle_beta	90.128140
_cell_angle_gamma	87.125778
loop_
_atom_site_label
_atom_site_type_symbol
_atom_site_fract_x
_atom_site_fract_y
_atom_site_fract_z
Zn1	Zn	1.247391	-0.318915	-0.534523
Zn2	Zn	1.747391	0.181085	-0.034523
Zn3	Zn	1.254326	-0.419125	-0.395453
Zn4	Zn	1.754326	0.080875	0.104547
Zn5	Zn	1.115383	-0.308278	-0.388443
Zn6	Zn	1.615383	0.191722	0.111557
Zn7	Zn	1.108282	-0.418545	-0.527422
Zn8	Zn	1.608282	0.081455	-0.027422
O9	O	1.181345	-0.366216	-0.461460
O10	O	1.681345	0.133784	0.038540
O11	O	1.364676	-0.336903	-0.521981
O12	O	1.864676	0.163097	-0.021981
O13	O	1.241769	-0.400212	-0.278158
O14	O	1.741769	0.099788	0.221842
O15	O	1.132963	-0.221604	-0.407859
O16	O	1.632963	0.278396	0.092141
O17	O	1.369771	-0.410526	-0.419806
O18	O	1.869771	0.089474	0.080194
O19	O	1.229949	-0.229419	-0.515184
O20	O	1.729949	0.270581	-0.015184
O21	O	1.139688	-0.318773	-0.273008
O22	O	1.639688	0.181227	0.226992
O23	O	0.998075	-0.318211	-0.400973
O24	O	1.498075	0.181789	0.099027
O25	O	1.120862	-0.409538	-0.644729
O26	O	1.620862	0.090462	-0.144729
O27	O	0.992859	-0.399224	-0.503081
O28	O	1.492859	0.100776	-0.003081
O29	O	1.223064	-0.336340	-0.649946
O30	O	1.723064	0.163660	-0.149946
O31	O	1.234884	-0.507133	-0.412921
O32	O	1.734884	-0.007133	0.087079
O33	O	1.127586	-0.506707	-0.509878
O34	O	1.627586	-0.006707	-0.009878
C35	C	0.965295	-0.357501	-0.450496
C36	C	1.465295	0.142499	0.049504
C37	C	0.872866	-0.353788	-0.445825
C38	C	1.372866	0.146212	0.054175
C39	C	0.703638	-0.346996	-0.437305
C40	C	1.203638	0.153004	0.062695
C41	C	0.659891	-0.385485	-0.485677
C42	C	1.159891	0.114515	0.014323
C43	C	0.565726	-0.381705	-0.480936
C44	C	1.065726	0.118295	0.019064
C45	C	0.797811	-0.350774	-0.442045
C46	C	1.297811	0.149226	0.057955
C47	C	1.181239	-0.529761	-0.461409
C48	C	1.681239	-0.029761	0.038591
C49	C	1.181268	-0.599731	-0.461418
C50	C	1.681268	-0.099731	0.038582
C51	C	1.237182	-0.632802	-0.410990
C52	C	1.737182	-0.132802	0.089010
C53	C	1.237220	-0.698547	-0.411010
C54	C	1.737220	-0.198547	0.088990
C55	C	1.181329	-0.731217	-0.461450
C56	C	1.681329	-0.231217	0.038550
C57	C	1.125411	-0.698138	-0.511889
C58	C	1.625411	-0.198138	-0.011889
C59	C	1.125380	-0.632395	-0.511873
C60	C	1.625380	-0.132395	-0.011873
N61	N	1.108264	-0.831783	-0.464098
N62	N	1.608264	-0.331783	0.035902
N63	N	1.108296	-0.894236	-0.464108
N64	N	1.608296	-0.394236	0.035892
C65	C	1.181420	-0.929297	-0.461503
C66	C	1.681420	-0.429297	0.038497
N67	N	1.254514	-0.899546	-0.458870
N68	N	1.754514	-0.399546	0.041130
N69	N	1.254481	-0.837087	-0.458855
N70	N	1.754481	-0.337087	0.041145
C71	C	1.181357	-0.802504	-0.461473
C72	C	1.681357	-0.302504	0.038527
C73	C	1.237380	-1.033657	-0.411094
C74	C	1.737380	-0.533657	0.088906
C75	C	1.237419	-1.099403	-0.411120
C76	C	1.737419	-0.599403	0.088880
C77	C	1.125603	-1.098992	-0.511994
C78	C	1.625603	-0.598992	-0.011994
C79	C	1.125571	-1.033248	-0.511973
C80	C	1.625571	-0.533248	-0.011973
C81	C	1.181459	-1.000584	-0.461518
C82	C	1.681459	-0.500584	0.038482
C83	C	1.398240	-0.374966	-0.472468
C84	C	1.898240	0.125034	0.027532
C85	C	1.490667	-0.378694	-0.477159
C86	C	1.990667	0.121306	0.022841
C87	C	1.170397	-0.374061	-0.678353
C88	C	1.670397	0.125939	-0.178353
C89	C	1.165731	-0.377404	-0.770780
C90	C	1.665731	0.122596	-0.270780
C91	C	1.181474	-0.202033	-0.461531
C92	C	1.681474	0.297967	0.038469
C93	C	1.181529	-0.132068	-0.461562
C94	C	1.681529	0.367932	0.038438
C95	C	1.157183	-0.383493	-0.940004
C96	C	1.657183	0.116507	-0.440004
C97	C	1.205672	-0.348757	-0.983777
C98	C	1.705672	0.151243	-0.483777
C99	C	1.200915	-0.352144	-1.077938
C100	C	1.700915	0.147856	-0.577938
C101	C	1.161938	-0.380106	-0.845834
C102	C	1.661938	0.119894	-0.345834
C103	C	1.192299	-0.358358	-0.245413
C104	C	1.692299	0.141642	0.254587
C105	C	1.197126	-0.354844	-0.152995
C106	C	1.697126	0.145156	0.347005
H107	H	0.693157	-0.421274	-0.530651
H108	H	1.193157	0.078726	-0.030651
F109	F	1.264616	-0.306571	-0.940328
F110	F	1.764616	0.193429	-0.440328
H111	H	1.282890	-1.007061	-0.370013
H112	H	1.782890	-0.507061	0.129987
F113	F	0.660159	-0.300219	-0.378525
F114	F	1.160159	0.199781	0.121475
F115	F	1.098259	-0.425689	-0.983453
F116	F	1.598259	0.074311	-0.483453
H117	H	1.282691	-0.606210	-0.369908
H118	H	1.782691	-0.106210	0.130092
H119	H	1.282755	-0.725479	-0.369945
H120	H	1.782755	-0.225479	0.130055
H121	H	1.079906	-0.724742	-0.552959
H122	H	1.579906	-0.224742	-0.052959
H123	H	1.282957	-1.126329	-0.370057
H124	H	1.782957	-0.626329	0.129943
F125	F	1.065866	-0.597197	-0.565549
F126	F	1.565866	-0.097197	-0.065549
H127	H	1.080099	-1.125592	-0.553068
H128	H	1.580099	-0.625592	-0.053068
F129	F	1.066055	-0.998049	-0.565643
F130	F	1.566055	-0.498049	-0.065643
