data_functionalizedCrystal
_audit_creation_method	'MofGen! by Chris Wilmer'
_symmetry_space_group_name_H-M	'P1'
_symmetry_Int_Tables_number	1
_symmetry_cell_setting	triclinic
loop_
_symmetry_equiv_pos_as_xyz
  x,y,z
_cell_length_a	10.540539
_cell_length_b	10.540539
_cell_length_c	13.596369
_cell_angle_alpha	89.996161
_cell_angle_beta	89.996748
_cell_angle_gamma	84.525492
loop_
_atom_site_label
_atom_site_type_symbol
_atom_site_fract_x
_atom_site_fract_y
_atom_site_fract_z
O1	O	1.685889	0.178903	-0.081740
O2	O	2.185889	0.678903	0.418260
O3	O	1.316476	0.195758	-0.081752
O4	O	1.816476	0.695758	0.418248
O5	O	1.509610	0.002624	-0.081744
O6	O	2.009610	0.502624	0.418256
O7	O	1.492754	0.372037	-0.081747
O8	O	1.992754	0.872037	0.418253
O9	O	1.509591	0.002614	0.081839
O10	O	2.009591	0.502614	0.581839
O11	O	1.316456	0.195748	0.081831
O12	O	1.816456	0.695748	0.581831
O13	O	1.685869	0.178892	0.081843
O14	O	2.185869	0.678892	0.581843
Zn15	Zn	1.501159	0.187318	0.107809
Zn16	Zn	2.001159	0.687318	0.607809
Zn17	Zn	1.501185	0.187332	-0.107718
Zn18	Zn	2.001185	0.687332	0.392282
O19	O	1.492735	0.372027	0.081836
O20	O	1.992735	0.872027	0.581836
C21	C	1.269163	0.194489	0.000038
C22	C	1.769163	0.694489	0.500038
C23	C	1.128215	0.190707	0.000034
C24	C	1.628215	0.690707	0.500034
C25	C	0.944788	0.045790	0.000417
C26	C	1.444788	0.545790	0.500417
C27	C	1.091406	0.049624	0.000038
C28	C	1.591406	0.549624	0.500038
C29	C	1.066553	0.258608	-0.093377
C30	C	1.566553	0.758608	0.406623
C31	C	0.920009	0.253793	-0.093445
C32	C	1.420009	0.753793	0.406555
C33	C	0.919498	0.256652	0.092579
C34	C	1.419498	0.756652	0.592579
C35	C	1.066480	0.257951	0.093804
C36	C	1.566480	0.757951	0.593804
C37	C	1.508336	-0.044684	0.000045
C38	C	2.008336	0.455316	0.500045
C39	C	1.504554	-0.185632	0.000040
C40	C	2.004554	0.314368	0.500040
C41	C	1.359637	-0.369059	-0.000332
C42	C	1.859637	0.130941	0.499668
C43	C	1.363471	-0.222441	0.000037
C44	C	1.863471	0.277559	0.500037
C45	C	1.572439	-0.247296	0.093456
C46	C	2.072439	0.252704	0.593456
C47	C	1.567624	-0.393840	0.093534
C48	C	2.067624	0.106160	0.593534
C49	C	1.570515	-0.394347	-0.092490
C50	C	2.070515	0.105653	0.407510
C51	C	1.571815	-0.247365	-0.093725
C52	C	2.071815	0.252635	0.406275
C53	C	1.733182	0.180161	0.000051
C54	C	2.233182	0.680161	0.500051
C55	C	1.874130	0.183943	0.000049
C56	C	2.374130	0.683943	0.500049
C57	C	1.494008	0.419335	0.000044
C58	C	1.994008	0.919335	0.500044
C59	C	1.497790	0.560283	0.000043
C60	C	1.997790	1.060283	0.500043
N61	N	1.501151	0.187308	0.254901
N62	N	2.001151	0.687308	0.754901
N63	N	1.501203	0.187332	-0.254810
N64	N	2.001203	0.687332	0.245190
C65	C	1.501183	0.187334	0.656192
C66	C	2.001183	0.687334	1.156192
C67	C	1.501171	0.187331	0.544541
C68	C	2.001171	0.687331	1.044541
C69	C	1.501168	0.187322	0.455550
C70	C	2.001168	0.687322	0.955550
C71	C	1.501154	0.187317	0.343892
C72	C	2.001154	0.687317	0.843892
H73	H	0.887943	0.210989	0.163384
H74	H	1.387943	0.710989	0.663384
H75	H	0.914589	-0.009706	-0.066199
H76	H	1.414589	0.490294	0.433801
F77	F	1.119883	0.193011	0.184129
F78	F	1.619883	0.693011	0.684129
F79	F	1.507401	-0.193360	-0.184066
F80	F	2.007401	0.306640	0.315934
F81	F	1.286798	-0.406432	-0.087894
F82	F	1.786798	0.093568	0.412106
H83	H	1.674676	-0.223143	-0.099362
H84	H	2.174676	0.276857	0.400638
F85	F	1.098136	0.392399	0.101174
F86	F	1.598136	0.892399	0.601174
F87	F	1.510783	-0.191625	0.184318
F88	F	2.010783	0.308375	0.684318
F89	F	1.703710	-0.456075	-0.093309
F90	F	2.203710	0.043925	0.406691
H91	H	1.669089	-0.441809	0.097776
H92	H	2.169089	0.058191	0.597776
F93	F	1.510835	-0.435569	-0.185036
F94	F	2.010835	0.064431	0.314964
F95	F	1.293138	-0.167862	0.087703
F96	F	1.793138	0.332138	0.587703
H97	H	1.517438	-0.422044	0.163362
H98	H	2.017438	0.077956	0.663362
H99	H	1.134012	-0.003803	0.066999
H100	H	1.634012	0.496197	0.566999
H101	H	0.916195	-0.009950	0.067407
H102	H	1.416195	0.490050	0.567407
F103	F	1.145951	-0.020405	-0.087773
F104	F	1.645951	0.479595	0.412227
H105	H	0.872271	0.358555	0.093209
H106	H	1.372271	0.858555	0.593209
F107	F	1.095799	0.394022	-0.097940
F108	F	1.595799	0.894022	0.402060
F109	F	1.293652	-0.166746	-0.087491
F110	F	1.793652	0.333254	0.412509
F111	F	1.707862	-0.218081	0.098004
F112	F	2.207862	0.281919	0.598004
H113	H	0.891807	0.203617	-0.163270
H114	H	1.391807	0.703617	0.336730
H115	H	0.872040	0.355259	-0.097686
H116	H	1.372040	0.855259	0.402314
H117	H	1.304125	-0.399271	0.066280
H118	H	1.804125	0.100729	0.566280
H119	H	1.109150	0.211449	-0.162895
H120	H	1.609150	0.711449	0.337105
