data_functionalizedCrystal
_audit_creation_method	'MofGen! by Chris Wilmer'
_symmetry_space_group_name_H-M	'P1'
_symmetry_Int_Tables_number	1
_symmetry_cell_setting	triclinic
loop_
_symmetry_equiv_pos_as_xyz
  x,y,z
_cell_length_a	27.732064
_cell_length_b	10.540539
_cell_length_c	9.616153
_cell_angle_alpha	90.003589
_cell_angle_beta	90.005401
_cell_angle_gamma	96.412542
loop_
_atom_site_label
_atom_site_type_symbol
_atom_site_fract_x
_atom_site_fract_y
_atom_site_fract_z
O1	O	-0.641872	0.151131	0.115389
O2	O	-0.501224	0.174072	0.115445
O3	O	-0.574757	-0.022244	0.115417
O4	O	-0.568339	0.347447	0.115417
O5	O	-0.574754	-0.022257	-0.115874
O6	O	-0.501221	0.174059	-0.115846
O7	O	-0.641869	0.151117	-0.115902
Zn8	Zn	-0.571544	0.162586	-0.152597
Zn9	Zn	-0.571548	0.162604	0.152140
O10	O	-0.568336	0.347433	-0.115874
C11	C	-0.483213	0.173581	-0.000193
C12	C	-0.429549	0.172121	-0.000172
C13	C	-0.574274	-0.069533	-0.000225
C14	C	-0.572834	-0.210418	-0.000215
C15	C	-0.659880	0.151609	-0.000261
C16	C	-0.713544	0.153069	-0.000273
C17	C	-0.051683	0.046170	-0.000251
C18	C	-0.253377	0.051543	-0.000215
O19	O	-0.284014	-0.046191	-0.000267
N20	N	-0.273238	0.167955	-0.000208
C21	C	-0.242671	0.283032	-0.000220
O22	O	-0.264192	0.382170	-0.000228
C23	C	-0.040978	0.277657	-0.000266
C24	C	-0.021121	0.161238	-0.000259
C25	C	-0.031825	-0.070240	-0.000245
C26	C	0.018595	-0.071582	-0.000246
C27	C	0.049158	0.043486	-0.000254
C28	C	0.029300	0.159896	-0.000260
C29	C	-0.010413	0.392733	-0.000288
C30	C	0.040013	0.391379	-0.000303
C31	C	0.059871	0.274959	-0.000295
C32	C	0.110283	0.273622	-0.000269
N33	N	0.130144	0.157210	-0.000276
C34	C	0.099581	0.042142	-0.000268
C35	C	-0.348563	0.285845	-0.000193
C36	C	-0.398986	0.287189	-0.000179
C37	C	-0.409689	0.055700	-0.000176
C38	C	-0.359265	0.054357	-0.000180
C39	C	-0.328703	0.169433	-0.000200
C40	C	0.205468	0.039332	-0.000270
C41	C	0.255894	0.038001	-0.000265
C42	C	0.266592	0.269489	-0.000276
C43	C	0.216171	0.270822	-0.000273
C44	C	0.185610	0.155733	-0.000274
O45	O	0.140949	0.371304	-0.000233
O46	O	0.121111	-0.056982	-0.000291
C47	C	-0.102104	0.047512	-0.000249
C48	C	-0.121962	0.163922	-0.000256
C49	C	-0.091399	0.278990	-0.000263
C50	C	-0.172385	0.165266	-0.000242
C51	C	-0.202947	0.050198	-0.000234
C52	C	-0.183087	-0.066214	-0.000240
C53	C	-0.132666	-0.067556	-0.000242
C54	C	-0.111260	0.395402	-0.000257
C55	C	-0.161681	0.396734	-0.000254
C56	C	-0.192243	0.281666	-0.000246
N57	N	-0.571545	0.162573	-0.360571
C58	C	-0.568819	0.394722	-0.000229
C59	C	-0.570259	0.535608	-0.000230
C60	C	-0.625433	0.716648	0.000283
C61	C	-0.623974	0.570093	-0.000248
C62	C	-0.544407	0.598385	-0.132294
C63	C	-0.546240	0.744850	-0.132394
C64	C	-0.545151	0.745414	0.130628
C65	C	-0.544656	0.598454	0.132363
C66	C	-0.611028	0.057907	-0.580913
C67	C	-0.610921	0.057519	-0.419746
C68	C	-0.521020	0.134628	-0.419082
C69	C	-0.521255	0.133896	-0.580299
C70	C	-0.582146	0.295563	-0.580450
C71	C	-0.583286	0.294641	-0.419223
N72	N	-0.571551	0.162607	0.360114
H73	H	0.272059	-0.056806	-0.000255
F74	F	-0.182808	0.520653	-0.000251
F75	F	-0.064345	-0.192723	-0.000240
H76	H	0.034758	-0.166383	-0.000246
F77	F	-0.078739	0.517880	-0.000262
F78	F	-0.653055	0.754932	-0.122830
H79	H	-0.563547	0.556701	0.230063
F80	F	-0.481671	0.231694	-0.368984
H81	H	-0.644318	0.526608	0.094415
F82	F	-0.660265	0.079108	-0.631584
H83	H	0.180591	-0.054384	-0.000271
F84	F	-0.338136	-0.069551	-0.000177
H85	H	0.291485	0.363174	-0.000275
F86	F	-0.494438	0.809329	0.131810
H87	H	0.200002	0.365620	-0.000277
F88	F	-0.548184	0.401148	-0.366572
H89	H	-0.648464	0.074014	-0.380186
F90	F	-0.111539	-0.191467	-0.000228
F91	F	-0.567872	0.785684	0.261471
F92	F	-0.442224	-0.066765	-0.000165
F93	F	-0.420114	0.411098	-0.000161
F94	F	-0.509141	0.007197	-0.629467
F95	F	-0.544526	0.397388	-0.630303
F96	F	-0.316042	0.408333	-0.000206
H97	H	-0.507609	0.794490	-0.138384
F98	F	-0.215623	-0.188678	-0.000226
H99	H	-0.646651	0.744314	0.095005
F100	F	-0.602244	-0.070359	-0.633874
H101	H	-0.026571	0.487534	-0.000288
H102	H	-0.490973	0.207305	-0.619311
H103	H	-0.511535	0.038800	-0.378714
H104	H	-0.604104	-0.041174	-0.381189
H105	H	0.064895	0.485090	-0.000325
H106	H	-0.618227	0.322668	-0.621114
H107	H	-0.565344	0.772223	-0.231129
F108	F	-0.650742	0.514351	-0.124226
F109	F	-0.492846	0.571402	-0.138700
F110	F	-0.631869	0.322398	-0.369230
H111	H	-0.562367	0.555021	-0.230593
F112	F	-0.493482	0.568905	0.142883
