data_functionalizedCrystal
_audit_creation_method	'MofGen! by Chris Wilmer'
_symmetry_space_group_name_H-M	'P1'
_symmetry_Int_Tables_number	1
_symmetry_cell_setting	triclinic
loop_
_symmetry_equiv_pos_as_xyz
  x,y,z
_cell_length_a	18.215407
_cell_length_b	13.032721
_cell_length_c	18.215399
_cell_angle_alpha	97.154738
_cell_angle_beta	89.982632
_cell_angle_gamma	97.201717
loop_
_atom_site_label
_atom_site_type_symbol
_atom_site_fract_x
_atom_site_fract_y
_atom_site_fract_z
Zn1	Zn	1.087874	-0.416122	-0.453281
Zn2	Zn	1.072159	-0.590884	-0.345843
Zn3	Zn	0.964804	-0.416147	-0.330236
Zn4	Zn	0.949156	-0.590817	-0.468867
O5	O	1.018498	-0.503493	-0.399557
O6	O	1.188772	-0.439322	-0.439038
O7	O	1.057891	-0.567744	-0.240792
O8	O	0.994255	-0.269905	-0.333503
O9	O	1.177227	-0.567719	-0.360104
O10	O	1.084673	-0.269887	-0.423904
O11	O	0.979017	-0.439365	-0.229325
O12	O	0.859745	-0.439300	-0.348617
O13	O	0.967584	-0.567605	-0.569781
O14	O	0.848249	-0.567629	-0.450469
O15	O	1.069500	-0.439257	-0.558329
O16	O	1.042717	-0.737114	-0.375218
O17	O	0.952347	-0.737064	-0.465603
C18	C	0.827295	-0.503460	-0.399541
C19	C	0.745495	-0.503472	-0.399554
C20	C	0.563299	-0.436753	-0.440742
C21	C	0.486440	-0.436762	-0.440745
C22	C	0.474447	-0.570261	-0.358388
C23	C	0.551305	-0.570246	-0.358381
C24	C	0.595729	-0.503494	-0.399562
C25	C	0.442011	-0.503518	-0.399572
C26	C	0.358677	-0.503528	-0.399575
C27	C	0.679069	-0.503482	-0.399558
C28	C	0.994149	-0.775007	-0.423811
C29	C	0.983800	-0.891162	-0.434212
C30	C	1.023939	-0.942938	-0.394162
C31	C	1.013243	-1.062990	-0.404910
C32	C	1.210448	-0.503526	-0.399573
C33	C	1.292246	-0.503540	-0.399580
C34	C	1.018549	-0.503421	-0.591503
C35	C	1.018571	-0.503390	-0.673300
C36	C	1.042962	-0.230918	-0.375224
C37	C	1.053388	-0.114763	-0.364854
C38	C	1.071661	-0.436497	-0.855526
C39	C	1.071673	-0.436466	-0.932382
C40	C	0.965548	-0.570121	-0.944296
C41	C	0.965534	-0.570146	-0.867441
C42	C	1.018594	-0.503335	-0.823058
C43	C	1.018620	-0.503280	-0.976769
C44	C	1.018632	-0.503248	-1.060100
C45	C	1.018582	-0.503366	-0.739722
C46	C	1.018496	-0.503489	-0.208350
C47	C	1.018643	-0.503225	-0.126528
H48	H	0.460039	-0.382414	-0.474276
N49	N	1.128892	-0.364443	-0.807658
H50	H	1.120837	-0.374605	-0.754044
H51	H	1.179988	-0.380725	-0.822561
N52	N	0.611214	-0.364761	-0.485158
H53	H	0.647439	-0.316275	-0.450977
H54	H	0.639251	-0.407370	-0.523007
N55	N	0.908321	-0.642193	-0.992158
H56	H	0.857196	-0.625955	-0.977322
H57	H	0.916441	-0.632015	-1.045759
H58	H	0.438267	-0.624610	-0.324860
N59	N	1.079946	-0.883927	-0.338200
H60	H	1.066866	-0.902927	-0.287297
H61	H	1.130831	-0.902817	-0.351417
H62	H	0.577710	-0.624596	-0.324843
H63	H	0.970960	-1.107537	-0.447162
N64	N	1.109406	-1.055769	-0.308893
H65	H	1.109110	-0.978371	-0.309147
H66	H	1.096295	-1.074853	-0.258020
N67	N	0.927793	-0.950162	-0.490178
H68	H	0.928092	-1.027560	-0.489924
H69	H	0.876916	-0.931210	-0.476992
H70	H	1.114884	-0.382038	-0.958814
N71	N	0.908282	-0.642218	-0.832413
H72	H	0.874670	-0.684538	-0.872190
H73	H	0.933880	-0.690597	-0.804838
