data_functionalizedCrystal
_audit_creation_method	'MofGen! by Chris Wilmer'
_symmetry_space_group_name_H-M	'P1'
_symmetry_Int_Tables_number	1
_symmetry_cell_setting	triclinic
loop_
_symmetry_equiv_pos_as_xyz
  x,y,z
_cell_length_a	6.817900
_cell_length_b	13.563541
_cell_length_c	12.200875
_cell_angle_alpha	108.300657
_cell_angle_beta	107.143593
_cell_angle_gamma	104.704624
loop_
_atom_site_label
_atom_site_type_symbol
_atom_site_fract_x
_atom_site_fract_y
_atom_site_fract_z
V1	V	-4.106376	-0.153902	-0.406374
O2	O	-4.053275	0.007136	-0.348594
O3	O	-4.094953	-0.304912	-0.451726
O4	O	-4.075542	-0.151648	-0.561649
O5	O	-4.072820	-0.147188	-0.237910
V6	V	-4.582937	-0.134626	-0.380378
O7	O	-4.382908	-0.196184	-0.463400
O8	O	-4.756603	-0.092344	-0.323352
O9	O	-4.371153	0.016384	-0.335026
O10	O	-4.753435	-0.295664	-0.438158
O11	O	-4.733890	-0.141340	-0.548842
O12	O	-4.390564	-0.136880	-0.225103
C13	C	-3.948381	-0.341721	-0.457735
C14	C	-4.020446	-0.465174	-0.495851
C15	C	-3.997989	-0.749431	-0.162903
C16	C	-3.930266	-0.633440	-0.127089
C17	C	-3.952808	-0.591367	-0.219276
C18	C	-4.043078	-0.665298	-0.347284
C19	C	-4.110792	-0.781300	-0.383101
C20	C	-4.065611	-0.623237	-0.439474
C21	C	-4.155881	-0.697168	-0.567482
C22	C	-4.223588	-0.813158	-0.603293
C23	C	-4.201046	-0.855230	-0.511106
C24	C	-3.997897	-0.507235	-0.403657
C25	C	-4.110700	-0.539104	-0.623855
C26	C	-4.178423	-0.655096	-0.659669
C27	C	-3.923619	-0.146217	-0.597951
C28	C	-3.979937	-0.145374	-0.725205
C29	C	-4.083007	-0.143831	-0.958191
C30	C	-4.025643	-0.144689	-0.828541
C31	C	-4.181068	0.053187	-0.329016
C32	C	-4.088244	0.176639	-0.290908
C33	C	-4.205830	-0.142315	-0.188796
C34	C	-4.128749	-0.143152	-0.061539
H35	H	-4.129053	-0.504851	-0.698922
H36	H	-3.897653	-0.496921	-0.190108
H37	H	-4.256200	-0.949679	-0.540260
O38	O	-3.910471	-0.435323	-0.279372
C39	C	-4.042955	-0.372673	-0.259200
H40	H	-4.140114	-0.370919	-0.351804
H41	H	-3.932120	-0.283153	-0.185811
H42	H	-4.163755	-0.413284	-0.223674
H43	H	-3.856775	-0.573253	-0.022866
O44	O	-4.311567	-0.885092	-0.727609
C45	C	-4.529117	-0.958500	-0.762059
H46	H	-4.548630	-0.963839	-0.674214
H47	H	-4.561249	-1.045602	-0.832237
H48	H	-4.653388	-0.925422	-0.807582
H49	H	-3.979634	-0.783698	-0.087858
O50	O	-4.266402	-0.727037	-0.783983
C51	C	-4.483950	-0.800443	-0.818426
H52	H	-4.503460	-0.805770	-0.730576
H53	H	-4.516079	-0.887549	-0.888594
H54	H	-4.608224	-0.767371	-0.863958
