data_functionalizedCrystal
_audit_creation_method	'MofGen! by Chris Wilmer'
_symmetry_space_group_name_H-M	'P1'
_symmetry_Int_Tables_number	1
_symmetry_cell_setting	triclinic
loop_
_symmetry_equiv_pos_as_xyz
  x,y,z
_cell_length_a	15.298068
_cell_length_b	18.050590
_cell_length_c	15.296720
_cell_angle_alpha	80.356428
_cell_angle_beta	91.645182
_cell_angle_gamma	99.677990
loop_
_atom_site_label
_atom_site_type_symbol
_atom_site_fract_x
_atom_site_fract_y
_atom_site_fract_z
Zn1	Zn	1.253397	-0.220923	0.727357
Zn2	Zn	1.278668	-0.320662	0.580884
Zn3	Zn	1.132277	-0.213707	0.555523
Zn4	Zn	1.106901	-0.362295	0.701906
O5	O	1.192811	-0.279397	0.641418
O6	O	1.379324	-0.219750	0.729191
O7	O	1.280445	-0.286031	0.454959
O8	O	1.148388	-0.110739	0.578355
O9	O	1.397890	-0.293028	0.621578
O10	O	1.237375	-0.116040	0.704600
O11	O	1.172892	-0.207451	0.436327
O12	O	1.006336	-0.247821	0.553677
O13	O	1.105138	-0.363985	0.827843
O14	O	0.987692	-0.356988	0.661224
O15	O	1.212769	-0.260120	0.846541
O16	O	1.255839	-0.430110	0.596900
O17	O	1.129642	-0.460698	0.685815
C18	C	0.965232	-0.306140	0.601937
C19	C	0.867869	-0.317602	0.585068
C20	C	0.554695	-0.197662	0.761986
C21	C	0.646171	-0.186895	0.777840
C22	C	0.701600	-0.219571	0.729648
C23	C	0.665544	-0.263015	0.665600
C24	C	0.574058	-0.273787	0.649749
C25	C	0.720963	-0.295696	0.617411
C26	C	0.684907	-0.339141	0.553362
C27	C	0.593429	-0.349910	0.537514
C28	C	0.538000	-0.317235	0.585706
C29	C	0.812449	-0.284924	0.633262
C30	C	0.831812	-0.361050	0.521025
C31	C	0.740335	-0.371816	0.505171
C32	C	1.192750	-0.472351	0.641371
C33	C	1.192798	-0.554893	0.641394
C34	C	1.261532	-0.737683	0.593145
C35	C	1.269086	-0.797852	0.676786
C36	C	1.192842	-0.706023	0.641438
C37	C	1.185370	-0.792931	0.557848
C38	C	1.192887	-0.852007	0.641473
C39	C	1.200430	-0.765108	0.725128
C40	C	1.116687	-0.760178	0.606129
C41	C	1.124201	-0.820338	0.689820
C42	C	1.192818	-0.621925	0.641417
C43	C	1.192909	-0.936105	0.641503
C44	C	1.421278	-0.252550	0.681053
C45	C	1.518637	-0.241109	0.697943
C46	C	1.153304	-0.317501	0.869859
C47	C	1.136468	-0.333739	0.967208
C48	C	1.192893	-0.085689	0.641488
C49	C	1.192928	-0.003143	0.641517
C50	C	1.232214	-0.241381	0.413873
C51	C	1.249219	-0.224914	0.316555
C52	C	1.313169	-0.163208	1.280559
C53	C	1.328992	-0.147952	1.189096
C54	C	1.280863	-0.194397	1.133620
C55	C	1.216907	-0.256101	1.169615
C56	C	1.201087	-0.271362	1.261087
C57	C	1.168781	-0.302552	1.114148
C58	C	1.104825	-0.364256	1.150143
C59	C	1.089008	-0.379513	1.241606
C60	C	1.137138	-0.333068	1.297083
C61	C	1.184601	-0.287291	1.022675
C62	C	1.072519	-0.395445	1.003204
C63	C	1.056696	-0.410701	1.094666
H64	H	0.675521	-0.151526	0.829991
O65	O	1.121773	-0.348023	1.385934
C66	C	1.121599	-0.438447	1.521086
C67	C	1.139007	-0.421621	1.420465
H68	H	1.135543	-0.497944	1.549039
H69	H	1.049467	-0.435207	1.534205
H70	H	1.166961	-0.394617	1.554519
H71	H	1.093701	-0.465435	1.386965
H72	H	1.211160	-0.424835	1.407411
H73	H	0.841797	-0.249550	0.685410
H74	H	1.206693	-0.752641	0.795880
O75	O	0.705454	-0.414016	0.442903
C76	C	0.734299	-0.488429	0.333291
C77	C	0.773921	-0.440641	0.403767
H78	H	0.789633	-0.509982	0.301644
H79	H	0.699407	-0.451711	0.280094
H80	H	0.684504	-0.539022	0.366013
H81	H	0.823751	-0.390044	0.371125
H82	H	0.808757	-0.477412	0.456957
O83	O	1.039830	-0.740289	0.570398
C84	C	0.899156	-0.781903	0.504219
C85	C	0.986162	-0.804529	0.544658
H86	H	0.855733	-0.833832	0.483414
H87	H	0.914755	-0.735489	0.443773
H88	H	0.862541	-0.759640	0.555596
H89	H	1.022820	-0.826826	0.493347
H90	H	0.970503	-0.850914	0.605122
O91	O	0.558552	-0.392109	0.475243
C92	C	0.587408	-0.466514	0.365628
C93	C	0.627023	-0.418728	0.436108
H94	H	0.642746	-0.488063	0.333981
H95	H	0.552517	-0.429796	0.312430
H96	H	0.537614	-0.517110	0.398344
H97	H	0.676852	-0.368129	0.403471
H98	H	0.661859	-0.455500	0.489298
H99	H	1.066122	-0.855959	0.730732
H100	H	1.033329	-0.433266	0.958035
O101	O	0.885776	-0.392713	0.474258
C102	C	1.035286	-0.409895	0.448977
C103	C	0.974270	-0.373979	0.501980
H104	H	1.106843	-0.394775	0.471383
H105	H	1.029565	-0.387093	0.375255
H106	H	1.014604	-0.474458	0.461095
H107	H	0.994912	-0.309415	0.489936
H108	H	0.979998	-0.396841	0.575683
O109	O	1.177914	-0.807824	0.473449
C110	C	1.241929	-0.782162	0.327169
C111	C	1.250461	-0.765218	0.422712
H112	H	1.300584	-0.747736	0.286126
H113	H	1.177585	-0.765818	0.296590
H114	H	1.241326	-0.845527	0.328079
H115	H	1.251102	-0.701860	0.421881
H116	H	1.314795	-0.781614	0.453252
H117	H	1.236673	-0.237050	0.993378
H118	H	1.293750	-0.181972	1.059147
H119	H	0.776084	-0.210799	0.742558
O120	O	1.359815	-0.118156	1.334568
C121	C	1.385159	-0.093777	1.484123
C122	C	1.332248	-0.144850	1.423055
H123	H	1.362905	-0.115349	1.555679
H124	H	1.372908	-0.032692	1.463569
H125	H	1.458892	-0.095508	1.478331
H126	H	1.258500	-0.143183	1.428816
H127	H	1.344574	-0.205911	1.443626
H128	H	1.036938	-0.429762	1.270911
O129	O	1.330937	-0.695073	0.544607
C130	C	1.489668	-0.665842	0.527014
C131	C	1.411150	-0.714133	0.582068
H132	H	1.554539	-0.681246	0.557269
H133	H	1.488711	-0.602816	0.526947
H134	H	1.483873	-0.677751	0.456022
H135	H	1.416893	-0.702290	0.653085
H136	H	1.412133	-0.777144	0.582061
O137	O	0.994635	-0.470631	1.129787
C138	C	0.920561	-0.542037	1.262066
C139	C	0.990882	-0.474154	1.222411
H140	H	0.917490	-0.544898	1.336956
H141	H	0.939015	-0.597142	1.246796
H142	H	0.853064	-0.534293	1.231785
H143	H	1.058404	-0.481823	1.252669
H144	H	0.972352	-0.419074	1.237673
H145	H	1.381067	-0.097714	1.159796
O146	O	0.500732	-0.165952	0.808688
C147	C	0.351206	-0.148858	0.834047
C148	C	0.412221	-0.184799	0.781073
H149	H	0.279630	-0.164095	0.811753
H150	H	0.371767	-0.084281	0.821902
H151	H	0.357050	-0.171634	0.907759
H152	H	0.406407	-0.162082	0.707345
H153	H	0.391642	-0.249372	0.793292
O154	O	1.345856	-0.817888	0.712588
C155	C	1.413577	-0.896988	0.828655
C156	C	1.326568	-0.874371	0.788213
H157	H	1.398012	-0.942668	0.889794
H158	H	1.457532	-0.844847	0.848378
H159	H	1.449604	-0.920229	0.777685
H160	H	1.290468	-0.851145	0.839138
H161	H	1.282677	-0.926533	0.768469
H162	H	0.463511	-0.326005	0.572806
