data_functionalizedCrystal
_audit_creation_method	'MofGen! by Chris Wilmer'
_symmetry_space_group_name_H-M	'P1'
_symmetry_Int_Tables_number	1
_symmetry_cell_setting	triclinic
loop_
_symmetry_equiv_pos_as_xyz
  x,y,z
_cell_length_a	21.395362
_cell_length_b	10.686154
_cell_length_c	21.395355
_cell_angle_alpha	85.657835
_cell_angle_beta	89.982663
_cell_angle_gamma	85.591074
loop_
_atom_site_label
_atom_site_type_symbol
_atom_site_fract_x
_atom_site_fract_y
_atom_site_fract_z
Zn1	Zn	-0.175940	-1.929063	-0.280930
Zn2	Zn	-0.280707	-1.928875	-0.176162
Zn3	Zn	-0.183988	-1.718036	-0.184189
Zn4	Zn	-0.288734	-1.717982	-0.288919
O5	O	-0.232342	-1.823489	-0.232550
O6	O	-0.183110	-2.105614	-0.260329
O7	O	-0.267886	-1.900851	-0.089551
O8	O	-0.095239	-1.746130	-0.197038
O9	O	-0.260082	-2.105476	-0.183356
O10	O	-0.089326	-1.901171	-0.268113
O11	O	-0.196827	-1.745948	-0.095449
O12	O	-0.204611	-1.541453	-0.204785
O13	O	-0.273763	-1.746039	-0.375535
O14	O	-0.281567	-1.541414	-0.281730
O15	O	-0.190893	-1.901119	-0.369665
O16	O	-0.369453	-1.900799	-0.191103
O17	O	-0.375351	-1.745856	-0.273946
C18	C	-0.244833	-1.495649	-0.244996
C19	C	-0.250192	-1.355398	-0.250335
C20	C	-0.395136	-1.823336	-0.232533
C21	C	-0.464775	-1.823386	-0.232542
C22	C	-0.963429	-1.904376	-0.269633
C23	C	-0.897995	-1.904339	-0.269625
C24	C	-0.868403	-1.823661	-0.232583
C25	C	-0.904249	-1.743037	-0.195534
C26	C	-0.969681	-1.743085	-0.195539
C27	C	-0.769125	-1.709905	-0.231897
C28	C	-0.703694	-1.709855	-0.231897
C29	C	-0.666588	-1.823513	-0.232564
C30	C	-0.694921	-1.937224	-0.233245
C31	C	-0.760353	-1.937273	-0.233250
C32	C	-0.797453	-1.823600	-0.232573
C33	C	-0.559798	-1.904098	-0.269598
C34	C	-0.494363	-1.904063	-0.269585
C35	C	-0.500618	-1.742749	-0.195498
C36	C	-0.566052	-1.742796	-0.195508
C37	C	-0.595638	-1.823468	-0.232561
C38	C	-0.068912	-1.823677	-0.232580
C39	C	0.000733	-1.823757	-0.232592
C40	C	-0.232326	-1.823594	-0.395969
C41	C	-0.232318	-1.823638	-0.465609
C42	C	-0.219799	-1.152609	-0.220049
C43	C	-0.214446	-1.292860	-0.214705
C44	C	-0.189167	-1.904385	-0.495267
C45	C	-0.189140	-1.904384	-0.560702
C46	C	-0.232275	-1.823648	-0.596477
C47	C	-0.275430	-1.742886	-0.566812
C48	C	-0.275452	-1.742881	-0.501378
C49	C	-0.289073	-1.813632	-0.700524
C50	C	-0.289052	-1.813646	-0.765957
C51	C	-0.232209	-1.823656	-0.798298
C52	C	-0.175384	-1.833679	-0.765197
C53	C	-0.175405	-1.833674	-0.699763
C54	C	-0.232257	-1.823644	-0.667430
C55	C	-0.189025	-1.904405	-0.898908
C56	C	-0.188997	-1.904395	-0.964345
C57	C	-0.275293	-1.742904	-0.970453
C58	C	-0.275315	-1.742907	-0.905017
C59	C	-0.232182	-1.823665	-0.869249
C60	C	-0.232311	-1.823457	-0.069764
C61	C	-0.232132	-1.823657	-0.000115
H62	H	-0.284897	-1.301643	-0.284924
H63	H	-0.335362	-1.805142	-0.674211
C64	C	-0.605476	-1.654095	-0.154766
N65	N	-0.635170	-1.587282	-0.124077
H66	H	-0.179743	-1.346622	-0.180109
H67	H	-0.153854	-1.970147	-0.988491
H68	H	-0.987514	-1.970076	-0.299800
C69	C	-0.858566	-1.993018	-0.310380
N70	N	-0.828870	-2.059807	-0.341080
H71	H	-0.310408	-1.677154	-0.999581
H72	H	-0.310457	-1.677162	-0.880870
C73	C	-0.322925	-1.654052	-0.468753
N74	N	-0.358684	-1.587146	-0.444180
C75	C	-0.322877	-1.654071	-0.606165
N76	N	-0.358613	-1.587168	-0.635807
C77	C	-0.791517	-2.062354	-0.233989
N78	N	-0.814989	-2.156568	-0.234542
C79	C	-0.654109	-2.062259	-0.233978
N80	N	-0.623367	-2.156431	-0.234530
C81	C	-0.592345	-1.992849	-0.310352
N82	N	-0.616857	-2.059698	-0.341047
H83	H	-0.465182	-1.969719	-0.299746
C84	C	-0.468071	-1.654004	-0.154750
N85	N	-0.443552	-1.587160	-0.124057
H86	H	-0.680628	-1.617267	-0.231346
H87	H	-0.129137	-1.841832	-0.672815
C88	C	-0.809935	-1.584864	-0.231165
N89	N	-0.840673	-1.490686	-0.230614
H90	H	-0.998861	-1.677433	-0.165375
C91	C	-0.871696	-1.654288	-0.154789
N92	N	-0.847177	-1.587441	-0.124098
C93	C	-0.141572	-1.993228	-0.859560
N94	N	-0.105830	-2.060129	-0.829926
C95	C	-0.141672	-1.993223	-0.593333
N96	N	-0.105920	-2.060140	-0.617908
C97	C	-0.141711	-1.993205	-0.455925
N98	N	-0.105964	-2.060099	-0.426293
C99	C	-0.112851	-1.844689	-0.800766
N100	N	-0.065753	-1.852983	-0.827560
H101	H	-0.335322	-1.805492	-0.792902
