data_functionalizedCrystal
_audit_creation_method	'MofGen! by Chris Wilmer'
_symmetry_space_group_name_H-M	'P1'
_symmetry_Int_Tables_number	1
_symmetry_cell_setting	triclinic
loop_
_symmetry_equiv_pos_as_xyz
  x,y,z
_cell_length_a	14.519731
_cell_length_b	17.019294
_cell_length_c	13.596369
_cell_angle_alpha	86.115041
_cell_angle_beta	89.994584
_cell_angle_gamma	83.541199
loop_
_atom_site_label
_atom_site_type_symbol
_atom_site_fract_x
_atom_site_fract_y
_atom_site_fract_z
O1	O	1.223521	0.103487	-0.090557
O2	O	1.556854	0.436820	0.242777
O3	O	1.890187	0.770154	0.576110
O4	O	0.955007	0.115647	-0.091588
O5	O	1.288340	0.448980	0.241745
O6	O	1.621674	0.782314	0.575079
O7	O	1.096754	-0.005255	-0.081343
O8	O	1.430088	0.328078	0.251991
O9	O	1.763421	0.661412	0.585324
O10	O	1.081774	0.224389	-0.100802
O11	O	1.415107	0.557722	0.232531
O12	O	1.748440	0.891056	0.565865
O13	O	1.096740	-0.005261	0.082241
O14	O	1.430074	0.328072	0.415574
O15	O	1.763407	0.661405	0.748907
O16	O	0.954993	0.115640	0.071995
O17	O	1.288326	0.448974	0.405329
O18	O	1.621660	0.782307	0.738662
O19	O	1.223507	0.103481	0.073027
O20	O	1.556840	0.436814	0.406360
O21	O	1.890173	0.770147	0.739693
Zn22	Zn	1.089248	0.109560	0.098483
Zn23	Zn	1.422581	0.442893	0.431817
Zn24	Zn	1.755914	0.776226	0.765150
Zn25	Zn	1.089266	0.109568	-0.117045
Zn26	Zn	1.422600	0.442901	0.216289
Zn27	Zn	1.755933	0.776235	0.549622
O28	O	1.081759	0.224382	0.062781
O29	O	1.415093	0.557716	0.396115
O30	O	1.748426	0.891049	0.729448
C31	C	0.920643	0.115074	-0.009748
C32	C	1.253976	0.448407	0.323585
C33	C	1.587309	0.781741	0.656919
C34	C	0.818268	0.113367	-0.009604
C35	C	1.151601	0.446700	0.323729
C36	C	1.484935	0.780033	0.657063
C37	C	0.735128	0.111979	-0.009490
C38	C	1.068461	0.445313	0.323843
C39	C	1.401795	0.778646	0.657176
C40	C	0.630825	0.110246	-0.009344
C41	C	0.964158	0.443579	0.323989
C42	C	1.297492	0.776912	0.657323
C43	C	0.547690	0.108870	-0.009227
C44	C	0.881024	0.442203	0.324106
C45	C	1.214357	0.775537	0.657439
C46	C	0.443381	0.107137	-0.009083
C47	C	0.776714	0.440470	0.324251
C48	C	1.110047	0.773803	0.657584
C49	C	1.096179	-0.034648	0.002937
C50	C	1.429513	0.298685	0.336271
C51	C	1.762846	0.632018	0.669604
C52	C	1.094475	-0.122221	0.010352
C53	C	1.427808	0.211112	0.343685
C54	C	1.761142	0.544445	0.677018
C55	C	1.093684	-0.163355	-0.075334
C56	C	1.427017	0.169978	0.258000
C57	C	1.760351	0.503311	0.591333
C58	C	1.092077	-0.245639	-0.068364
C59	C	1.425410	0.087694	0.264969
C60	C	1.758743	0.421028	0.598303
C61	C	1.091267	-0.286788	0.024292
C62	C	1.424600	0.046546	0.357625
C63	C	1.757934	0.379879	0.690959
C64	C	1.092055	-0.245648	0.109984
C65	C	1.425389	0.087686	0.443317
C66	C	1.758722	0.421019	0.776650
C67	C	1.093656	-0.163365	0.103013
C68	C	1.426989	0.169969	0.436346
C69	C	1.760323	0.503302	0.769680
C70	C	1.086428	-0.535228	0.049800
C71	C	1.419761	-0.201895	0.383133
C72	C	1.753094	0.131438	0.716466
C73	C	1.084830	-0.617517	0.056764
C74	C	1.418163	-0.284184	0.390097
C75	C	1.751497	0.049150	0.723430
C76	C	1.084850	-0.617503	-0.121585
C77	C	1.418183	-0.284169	0.211748
C78	C	1.751516	0.049164	0.545082
C79	C	1.086456	-0.535219	-0.128547
C80	C	1.419789	-0.201886	0.204786
C81	C	1.753123	0.131448	0.538119
C82	C	1.087239	-0.494085	-0.042856
C83	C	1.420572	-0.160752	0.290478
C84	C	1.753906	0.172581	0.623811
C85	C	1.089627	-0.370895	0.031418
C86	C	1.422960	-0.037562	0.364752
C87	C	1.756294	0.295772	0.698085
C88	C	1.088872	-0.409979	-0.049983
C89	C	1.422206	-0.076646	0.283351
C90	C	1.755539	0.256688	0.616684
C91	C	1.257871	0.104054	-0.008815
C92	C	1.591205	0.437387	0.324518
C93	C	1.924538	0.770720	0.657851
C94	C	1.360246	0.105761	-0.008966
C95	C	1.693579	0.439094	0.324367
C96	C	2.026913	0.772428	0.657701
C97	C	1.082335	0.253776	-0.021501
C98	C	1.415668	0.587109	0.311833
C99	C	1.749001	0.920442	0.645166
C100	C	1.084039	0.341349	-0.028922
C101	C	1.417372	0.674682	0.304412
C102	C	1.750706	1.008015	0.637745
N103	N	1.089242	0.109553	0.245576
N104	N	1.422575	0.442887	0.578909
N105	N	1.755908	0.776220	0.912242
N106	N	1.089279	0.109568	-0.264137
N107	N	1.422613	0.442901	0.069197
N108	N	1.755946	0.776235	0.402530
C109	C	1.089265	0.109569	0.646865
C110	C	1.422598	0.442902	0.980199
C111	C	1.755932	0.776235	1.313532
C112	C	1.089256	0.109567	0.535214
C113	C	1.422589	0.442900	0.868548
C114	C	1.755922	0.776234	1.201881
C115	C	1.089254	0.109562	0.446224
C116	C	1.422587	0.442895	0.779557
C117	C	1.755920	0.776228	1.112891
C118	C	1.089244	0.109559	0.334566
C119	C	1.422577	0.442892	0.667899
C120	C	1.755910	0.776225	1.001233
H121	H	1.094348	-0.129859	-0.150784
H122	H	1.427682	0.203475	0.182549
H123	H	1.761015	0.536808	0.515882
H124	H	1.091437	-0.279127	-0.138138
H125	H	1.424770	0.054206	0.195195
H126	H	1.758103	0.387540	0.528528
H127	H	1.084210	-0.651002	-0.191350
H128	H	1.417544	-0.317669	0.141983
H129	H	1.750877	0.015664	0.475317
O130	O	1.083964	-0.661891	0.156713
O131	O	1.417297	-0.328558	0.490046
O132	O	1.750631	0.004775	0.823380
H133	H	1.146072	-0.706304	0.164743
H134	H	1.479406	-0.372971	0.498076
H135	H	1.812739	-0.039637	0.831409
O136	O	1.087310	-0.490834	-0.228483
O137	O	1.420644	-0.157501	0.104850
O138	O	1.753977	0.175833	0.438184
H139	H	1.086478	-0.533260	-0.286897
H140	H	1.419811	-0.199927	0.046436
H141	H	1.753144	0.133406	0.379770
O142	O	1.087296	-0.490869	0.142219
O143	O	1.420630	-0.157536	0.475553
O144	O	1.753963	0.175797	0.808886
H145	H	1.086481	-0.533311	0.207817
H146	H	1.419814	-0.199977	0.541150
H147	H	1.753148	0.133356	0.874484
H148	H	1.091390	-0.279157	0.185426
H149	H	1.424724	0.054177	0.518760
H150	H	1.758057	0.387510	0.852093
H151	H	1.094287	-0.129873	0.172787
H152	H	1.427620	0.203460	0.506121
H153	H	1.760954	0.536794	0.839454
H154	H	1.089525	-0.376471	-0.125423
H155	H	1.422859	-0.043138	0.207910
H156	H	1.756192	0.290195	0.541244
H157	H	1.088971	-0.404408	0.106859
H158	H	1.422304	-0.071075	0.440192
H159	H	1.755637	0.262259	0.773526
