data_functionalizedCrystal
_audit_creation_method	'MofGen! by Chris Wilmer'
_symmetry_space_group_name_H-M	'P1'
_symmetry_Int_Tables_number	1
_symmetry_cell_setting	triclinic
loop_
_symmetry_equiv_pos_as_xyz
  x,y,z
_cell_length_a	17.699104
_cell_length_b	17.699083
_cell_length_c	16.776229
_cell_angle_alpha	90.007545
_cell_angle_beta	90.008863
_cell_angle_gamma	83.287266
loop_
_atom_site_label
_atom_site_type_symbol
_atom_site_fract_x
_atom_site_fract_y
_atom_site_fract_z
O1	O	-1.004069	-0.095788	-0.066321
O2	O	-0.783692	-0.108224	-0.066316
O3	O	-0.900107	0.008183	-0.066312
O4	O	-0.887654	-0.212195	-0.066326
O5	O	-0.900091	0.008190	0.066265
O6	O	-0.783677	-0.108217	0.066260
O7	O	-1.004053	-0.095781	0.066255
Zn8	Zn	-0.893863	-0.101998	0.087307
Zn9	Zn	-0.893883	-0.102007	-0.087368
O10	O	-0.887639	-0.212188	0.066251
C11	C	-0.755488	-0.107772	-0.000027
C12	C	-0.671471	-0.106427	-0.000025
C13	C	-0.146600	-0.167171	-0.000029
C14	C	-0.225543	-0.168430	-0.000033
C15	C	-0.274161	-0.100095	-0.000029
C16	C	-0.243831	-0.030496	-0.000030
C17	C	-0.164889	-0.029238	-0.000032
C18	C	-0.562197	-0.035569	-0.000022
C19	C	-0.641144	-0.036833	-0.000018
C20	C	-0.622852	-0.174762	-0.000023
C21	C	-0.543909	-0.173503	-0.000025
C22	C	-0.513587	-0.103905	-0.000030
C23	C	-0.427987	-0.102541	-0.000028
C24	C	-0.359759	-0.101459	-0.000026
C25	C	-0.899653	0.036383	-0.000024
C26	C	-0.898314	0.120402	-0.000023
N27	N	-0.893854	-0.101991	0.206518
C28	C	-0.032258	-0.096233	-0.000032
C29	C	-0.116275	-0.097578	-0.000028
C30	C	-0.888093	-0.240388	-0.000039
C31	C	-0.889431	-0.324406	-0.000045
C32	C	-0.966647	0.169017	-0.000024
C33	C	-0.965385	0.247961	-0.000031
C34	C	-0.895789	0.278287	-0.000031
C35	C	-0.827451	0.229665	-0.000033
C36	C	-0.828714	0.150723	-0.000032
C37	C	-0.822356	0.548028	-0.000040
C38	C	-0.821098	0.626976	-0.000039
C39	C	-0.959026	0.645266	-0.000038
C40	C	-0.960289	0.566324	-0.000037
C41	C	-0.891952	0.517709	-0.000043
C42	C	-0.893321	0.432110	-0.000037
C43	C	-0.894419	0.363885	-0.000032
N44	N	-0.893897	-0.102008	-0.206579
C45	C	-0.945418	-0.050467	0.248237
C46	C	-0.945422	-0.050466	0.331690
C47	C	-0.893866	-0.101994	0.373421
C48	C	-0.842296	-0.153520	0.331696
C49	C	-0.842289	-0.153516	0.248246
C50	C	-0.842324	-0.153535	0.668244
C51	C	-0.842336	-0.153536	0.751700
C52	C	-0.945457	-0.050485	0.751687
C53	C	-0.945450	-0.050481	0.668237
C54	C	-0.893878	-0.102004	0.626519
C55	C	-0.893873	-0.102004	0.536031
C56	C	-0.893874	-0.101999	0.463908
H57	H	-0.107020	-0.222818	-0.000026
H58	H	-0.537518	0.021102	-0.000024
H59	H	-0.987434	-0.008525	0.634261
H60	H	-1.014670	0.684858	-0.000037
Cl61	Cl	-0.702264	0.049081	-0.000014
H62	H	-0.800314	-0.195472	0.365679
Cl63	Cl	-0.777460	-0.218290	0.195800
Cl64	Cl	-1.054144	0.130902	-0.000014
Cl65	Cl	-0.263662	-0.255923	-0.000039
H66	H	-0.800334	-0.195488	0.634284
H67	H	-0.764421	0.651664	-0.000038
Cl68	Cl	-0.482794	-0.259414	-0.000028
Cl69	Cl	-0.777516	-0.218317	0.804162
H70	H	-0.647550	-0.231432	-0.000023
Cl71	Cl	-0.304951	0.055412	-0.000027
Cl72	Cl	-0.736445	0.486922	-0.000049
Cl73	Cl	-0.126766	0.058255	-0.000030
H74	H	-0.770785	0.254362	-0.000039
H75	H	-0.987447	-0.008529	0.785663
H76	H	-0.773070	0.111140	-0.000032
Cl77	Cl	-1.010246	0.014308	0.384138
Cl78	Cl	-1.047784	0.528205	-0.000039
Cl79	Cl	-1.010240	0.014311	0.195783
Cl80	Cl	-1.051293	0.309075	-0.000029
