data_functionalizedCrystal
_audit_creation_method	'MofGen! by Chris Wilmer'
_symmetry_space_group_name_H-M	'P1'
_symmetry_Int_Tables_number	1
_symmetry_cell_setting	triclinic
loop_
_symmetry_equiv_pos_as_xyz
  x,y,z
_cell_length_a	15.944493
_cell_length_b	19.188924
_cell_length_c	17.666332
_cell_angle_alpha	90.008552
_cell_angle_beta	90.008786
_cell_angle_gamma	83.308504
loop_
_atom_site_label
_atom_site_type_symbol
_atom_site_fract_x
_atom_site_fract_y
_atom_site_fract_z
O1	O	1.114221	0.089857	0.062942
O2	O	0.869623	0.101001	0.062946
O3	O	0.998984	-0.006210	0.062935
O4	O	0.984861	0.197068	0.062953
O5	O	0.998961	-0.006216	-0.062962
O6	O	0.869600	0.100995	-0.062951
O7	O	1.114199	0.089851	-0.062955
Cu8	Cu	0.991898	0.095423	-0.074448
Cu9	Cu	0.991924	0.095429	0.074439
O10	O	0.984838	0.197062	-0.062944
C11	C	0.838319	0.100543	-0.000002
C12	C	0.745075	0.099177	-0.000001
C13	C	0.509077	0.162284	0.000005
C14	C	0.458636	0.128250	-0.062075
C15	C	0.574364	0.096647	-0.000002
C16	C	0.458663	0.128240	0.062050
C17	C	0.409463	0.094207	-0.000001
C18	C	0.525151	0.062631	-0.062134
C19	C	0.525181	0.062630	0.062046
C20	C	0.474773	0.028548	-0.000049
C21	C	0.669358	0.098054	-0.000004
C22	C	0.314472	0.092795	-0.000005
C23	C	0.998516	-0.032225	-0.000014
C24	C	0.997146	-0.109733	-0.000016
C25	C	0.996519	-0.146131	0.068610
C26	C	0.995220	-0.218956	0.068616
C27	C	0.994565	-0.255384	-0.000009
C28	C	0.995187	-0.218977	-0.068644
C29	C	0.996478	-0.146152	-0.068648
N30	N	1.040330	-0.374939	-0.051085
N31	N	1.039105	-0.444120	-0.051077
C32	C	0.990674	-0.474803	-0.000001
N33	N	0.943523	-0.433691	0.051077
N34	N	0.944752	-0.364504	0.051071
C35	C	0.993164	-0.334351	-0.000012
C36	C	0.988637	-0.590166	0.068636
C37	C	0.987332	-0.662992	0.068639
C38	C	0.987308	-0.663013	-0.068623
C39	C	0.988604	-0.590187	-0.068624
C40	C	0.989272	-0.553768	0.000008
C41	C	1.145503	0.090309	-0.000005
C42	C	1.238747	0.091675	-0.000002
C43	C	0.985306	0.223077	0.000007
C44	C	0.986676	0.300585	0.000014
N45	N	0.991885	0.095417	-0.179168
C46	C	1.049184	0.047968	-0.218782
C47	C	1.049189	0.047964	-0.298030
C48	C	0.991903	0.095423	-0.337660
C49	C	0.934593	0.142876	-0.298036
C50	C	0.934584	0.142873	-0.218790
N51	N	0.980981	0.157204	-0.462073
N52	N	0.980995	0.157204	-0.537353
C53	C	0.991925	0.095432	-0.576424
N54	N	1.002857	0.033658	-0.537370
N55	N	1.002848	0.033659	-0.462083
C56	C	0.991906	0.095431	-0.423589
C57	C	1.049233	0.047975	-0.701968
C58	C	1.049232	0.047971	-0.781217
C59	C	0.934639	0.142889	-0.781221
C60	C	0.934636	0.142887	-0.701974
C61	C	0.991937	0.095431	-0.662352
N62	N	0.991944	0.095429	0.179159
H63	H	0.429585	0.155967	-0.114553
H64	H	0.986817	-0.692625	0.124525
O65	O	0.878911	0.188882	-0.336613
C66	C	0.827229	0.151471	-0.382460
H67	H	0.860892	0.096849	-0.394335
H68	H	0.813839	0.180611	-0.438183
H69	H	0.765165	0.146702	-0.351937
H70	H	0.989176	-0.560512	0.124520
H71	H	1.095840	0.009324	-0.186525
H72	H	0.997061	-0.116483	0.124496
O73	O	0.559920	0.029492	0.124574
C74	C	0.617842	-0.028022	0.102320
H75	H	0.601508	-0.045293	0.042899
H76	H	0.614389	-0.073320	0.143517
H77	H	0.684465	-0.011962	0.102551
O78	O	0.879040	0.189002	-0.180222
C79	C	0.923860	0.232105	-0.134383
H80	H	0.989689	0.204319	-0.122504
H81	H	0.888758	0.243139	-0.078661
H82	H	0.929375	0.283709	-0.164915
O83	O	0.424125	0.161417	0.124642
C84	C	0.441219	0.231871	0.124403
H85	H	0.499266	0.236946	0.088057
H86	H	0.453544	0.249047	0.184772
H87	H	0.384674	0.266589	0.100188
O88	O	0.986636	-0.698278	-0.135354
C89	C	0.987494	-0.650534	-0.195929
H90	H	0.961833	-0.595723	-0.175811
H91	H	0.946339	-0.667143	-0.243925
H92	H	1.055001	-0.650129	-0.217032
H93	H	0.524488	0.218823	-0.000048
H94	H	1.095888	0.009331	-0.669706
O95	O	0.878909	0.189017	-0.819591
C96	C	0.828350	0.230914	-0.767627
H97	H	0.827504	0.202287	-0.711143
H98	H	0.761233	0.241543	-0.790535
H99	H	0.855427	0.282791	-0.759183
O100	O	1.104978	0.001850	-0.819584
C101	C	1.155535	-0.040043	-0.767615
H102	H	1.156366	-0.011417	-0.711120
H103	H	1.222656	-0.050663	-0.790500
H104	H	1.128467	-0.091925	-0.759203
O105	O	0.989076	-0.554782	-0.135270
C106	C	0.917102	-0.504725	-0.139373
H107	H	0.865882	-0.521129	-0.100427
H108	H	0.892695	-0.501252	-0.200071
H109	H	0.934529	-0.451320	-0.120939
H110	H	1.095851	0.009323	-0.330290
O111	O	0.994719	-0.254401	0.135241
C112	C	1.066714	-0.304433	0.139366
H113	H	1.090757	-0.318004	0.079783
H114	H	1.049452	-0.353852	0.168426
H115	H	1.118149	-0.281901	0.173224
O116	O	0.559780	0.029633	-0.124790
C117	C	0.647939	0.031351	-0.124040
H118	H	0.663754	0.076854	-0.087248
H119	H	0.671169	0.038666	-0.184223
H120	H	0.680182	-0.020077	-0.100043
H121	H	0.887981	0.181528	-0.669717
O122	O	0.994436	-0.254423	-0.135259
C123	C	0.920947	-0.288617	-0.139367
H124	H	0.896520	-0.296879	-0.079780
H125	H	0.936391	-0.341612	-0.168413
H126	H	0.870506	-0.255011	-0.173231
O127	O	0.456609	-0.038962	-0.000228
C128	C	0.490807	-0.073310	-0.065753
H129	H	0.499871	-0.032768	-0.111285
H130	H	0.445830	-0.110838	-0.087423
H131	H	0.554371	-0.104097	-0.051535
O132	O	0.997125	-0.110904	-0.135383
C133	C	0.996240	-0.158665	-0.195955
H134	H	1.021910	-0.213470	-0.175836
H135	H	1.037374	-0.142070	-0.243957
H136	H	0.928724	-0.159076	-0.217051
