data_functionalizedCrystal
_audit_creation_method	'MofGen! by Chris Wilmer'
_symmetry_space_group_name_H-M	'P1'
_symmetry_Int_Tables_number	1
_symmetry_cell_setting	triclinic
loop_
_symmetry_equiv_pos_as_xyz
  x,y,z
_cell_length_a	23.532407
_cell_length_b	8.559649
_cell_length_c	7.681481
_cell_angle_alpha	85.086760
_cell_angle_beta	84.289450
_cell_angle_gamma	103.686329
loop_
_atom_site_label
_atom_site_type_symbol
_atom_site_fract_x
_atom_site_fract_y
_atom_site_fract_z
O1	O	-0.013278	-2.105234	-0.146397
O2	O	0.016154	-1.639561	-0.146414
O3	O	-0.082081	-1.886443	-0.146373
O4	O	0.084957	-1.858352	-0.146438
O5	O	-0.094196	-1.916831	0.146490
O6	O	0.004039	-1.669949	0.146449
O7	O	-0.025394	-2.135622	0.146466
Zn8	Zn	-0.012601	-1.907610	0.192956
Zn9	Zn	0.003362	-1.867573	-0.192904
O10	O	0.072842	-1.888739	0.146425
C11	C	0.012327	-1.595190	0.000016
C12	C	0.018967	-1.417704	0.000010
C13	C	-0.109325	-1.900922	0.000063
C14	C	-0.172453	-1.898774	0.000077
N15	N	-0.023496	-1.934946	0.456295
C16	C	-0.577085	-2.031375	-0.000015
C17	C	-0.636401	-2.029376	-0.000028
O18	O	-0.678272	-2.152301	-0.000089
N19	N	-0.652904	-1.882607	-0.000032
C20	C	-0.610085	-1.737825	-0.000041
O21	O	-0.629568	-1.612803	-0.000048
C22	C	-0.550770	-1.739824	-0.000040
C23	C	-0.534272	-1.886605	-0.000018
C24	C	-0.560586	-2.178143	0.000005
C25	C	-0.501274	-2.180142	0.000022
C26	C	-0.458460	-2.035372	0.000019
C27	C	-0.474960	-1.888603	-0.000002
C28	C	-0.507952	-1.595043	-0.000062
C29	C	-0.448633	-1.597055	-0.000062
C30	C	-0.432135	-1.743835	-0.000040
C31	C	-0.372834	-1.745832	0.000012
N32	N	-0.356332	-1.892601	0.000016
C33	C	-0.399145	-2.037371	0.000019
C34	C	-0.734653	-1.733637	-0.000046
C35	C	-0.793968	-1.731638	-0.000034
C36	C	-0.820279	-2.023189	-0.000025
C37	C	-0.760964	-2.025188	-0.000024
C38	C	-0.718150	-1.880407	-0.000042
C39	C	-0.274584	-2.041557	0.000056
C40	C	-0.215266	-2.043544	0.000080
C41	C	-0.188959	-1.751992	0.000061
C42	C	-0.248272	-1.750006	0.000046
C43	C	-0.291084	-1.894801	0.000038
O44	O	-0.330931	-1.622970	0.000065
O45	O	-0.379651	-2.162370	0.000003
C46	C	0.100086	-1.874260	-0.000015
C47	C	0.163214	-1.876408	-0.000040
C48	C	-0.021566	-2.179993	0.000033
C49	C	-0.028205	-2.357478	0.000026
N50	N	0.014252	-1.840250	-0.456243
H51	H	-0.201838	-2.163075	0.000103
H52	H	-0.062024	-2.031629	0.531517
H53	H	-0.309436	-2.159463	0.000042
F54	F	0.078398	-1.307615	-0.000029
H55	H	-0.487847	-2.299665	0.000033
F56	F	-0.689091	-1.579532	-0.000049
F57	F	-0.606144	-2.332242	0.000008
F58	F	0.064613	-1.713900	0.445450
F59	F	-0.087632	-1.467556	0.000040
H60	H	-0.747536	-2.144710	-0.000007
H61	H	-0.855149	-2.141068	-0.000029
H62	H	-0.807395	-1.612118	-0.000022
H63	H	-0.521372	-1.475518	-0.000090
H64	H	-0.413775	-1.479153	-0.000079
H65	H	-0.261707	-1.630490	0.000077
H66	H	-0.154090	-1.634125	0.000065
