data_functionalizedCrystal
_audit_creation_method	'MofGen! by Chris Wilmer'
_symmetry_space_group_name_H-M	'P1'
_symmetry_Int_Tables_number	1
_symmetry_cell_setting	triclinic
loop_
_symmetry_equiv_pos_as_xyz
  x,y,z
_cell_length_a	13.032721
_cell_length_b	12.759401
_cell_length_c	12.759393
_cell_angle_alpha	89.979062
_cell_angle_beta	82.850774
_cell_angle_gamma	82.794169
loop_
_atom_site_label
_atom_site_type_symbol
_atom_site_fract_x
_atom_site_fract_y
_atom_site_fract_z
Zn1	Zn	-0.415945	-1.553113	0.647098
Zn2	Zn	-0.590725	-1.530669	0.493722
Zn3	Zn	-0.416001	-1.377404	0.471441
Zn4	Zn	-0.590652	-1.355078	0.669350
O5	O	-0.503331	-1.454066	0.570403
O6	O	-0.439137	-1.697156	0.626765
O7	O	-0.567601	-1.510289	0.343752
O8	O	-0.269756	-1.419449	0.476105
O9	O	-0.567547	-1.680666	0.514080
O10	O	-0.269715	-1.548541	0.605160
O11	O	-0.439232	-1.397686	0.327382
O12	O	-0.439161	-1.227423	0.497681
O13	O	-0.567423	-1.381397	0.813412
O14	O	-0.567477	-1.211019	0.643084
O15	O	-0.439067	-1.526892	0.797064
O16	O	-0.736953	-1.488640	0.535656
O17	O	-0.736899	-1.359634	0.664689
C18	C	-0.503318	-1.181100	0.570380
C19	C	-0.503338	-1.064321	0.570399
C20	C	-0.774844	-1.419307	0.605028
C21	C	-0.890999	-1.404533	0.619876
C22	C	-0.503230	-1.454157	0.844423
C23	C	-0.503188	-1.454196	0.961194
C24	C	-0.942776	-1.461832	0.562700
C25	C	-1.062828	-1.446564	0.578045
C26	C	-0.230757	-1.488989	0.535665
C27	C	-0.114602	-1.503872	0.520862
C28	C	-0.503344	-1.728097	0.570426
C29	C	-0.503350	-1.844873	0.570436
C30	C	-0.570253	-1.000932	0.646017
C31	C	-0.570257	-0.891208	0.646038
C32	C	-0.436427	-0.908271	0.494813
C33	C	-0.436419	-1.017994	0.494797
C34	C	-0.503355	-1.454045	0.297438
C35	C	-0.503104	-1.454247	0.180630
C36	C	-0.436342	-1.529962	1.007544
C37	C	-0.436297	-1.529986	1.117263
C38	C	-0.569952	-1.378473	1.134273
C39	C	-0.569991	-1.378446	1.024556
H40	H	-1.107373	-1.386205	0.638364
H41	H	-1.070058	-1.564240	0.460551
H42	H	-0.624344	-1.316802	1.185875
H43	H	-0.381946	-0.870537	0.433260
H44	H	-0.935548	-1.344178	0.680190
C45	C	-0.362852	-1.613278	0.937846
C46	C	-0.408163	-1.689946	0.868205
C47	C	-0.334668	-1.773263	0.798510
C48	C	-0.215863	-1.779911	0.798455
C49	C	-0.170546	-1.703240	0.868098
C50	C	-0.244040	-1.619924	0.937793
H51	H	-0.496115	-1.685027	0.868243
H52	H	-0.368215	-1.830019	0.746955
H53	H	-0.161457	-1.841587	0.746862
H54	H	-0.082593	-1.708160	0.868060
H55	H	-0.210493	-1.563167	0.989348
H56	H	-0.381922	-1.069608	0.433219
H57	H	-0.624740	-1.038649	0.707579
H58	H	-0.624745	-0.839601	0.707616
H59	H	-0.624424	-1.316741	0.986817
C60	C	-0.882602	-1.543380	0.481226
C61	C	-0.807636	-1.507368	0.389188
C62	C	-0.747463	-1.588920	0.307713
C63	C	-0.762256	-1.706483	0.318275
C64	C	-0.837225	-1.742501	0.410316
C65	C	-0.897398	-1.660950	0.491791
H66	H	-0.796683	-1.420335	0.381366
H67	H	-0.691967	-1.562256	0.239578
H68	H	-0.717713	-1.766852	0.257962
H69	H	-0.848178	-1.829534	0.418138
H70	H	-0.952894	-1.687613	0.559926
C71	C	-0.362767	-1.613331	1.168248
C72	C	-0.289287	-1.696647	1.098549
C73	C	-0.215751	-1.779995	1.149532
C74	C	-0.215695	-1.780026	1.270215
C75	C	-0.289178	-1.696707	1.339922
C76	C	-0.362714	-1.613359	1.288938
H77	H	-0.289326	-1.696627	1.009206
H78	H	-0.161355	-1.841673	1.097931
H79	H	-0.161260	-1.841725	1.307957
H80	H	-0.289139	-1.696727	1.429265
H81	H	-0.417110	-1.551681	1.340540
