data_functionalizedCrystal
_audit_creation_method	'MofGen! by Chris Wilmer'
_symmetry_space_group_name_H-M	'P1'
_symmetry_Int_Tables_number	1
_symmetry_cell_setting	triclinic
loop_
_symmetry_equiv_pos_as_xyz
  x,y,z
_cell_length_a	12.827893
_cell_length_b	12.827892
_cell_length_c	18.215399
_cell_angle_alpha	89.976162
_cell_angle_beta	89.982485
_cell_angle_gamma	90.015553
loop_
_atom_site_label
_atom_site_type_symbol
_atom_site_fract_x
_atom_site_fract_y
_atom_site_fract_z
Zn1	Zn	1.597653	-0.416039	-0.416091
Zn2	Zn	2.097653	0.083961	0.083909
Zn3	Zn	1.597552	-0.590799	-0.293034
Zn4	Zn	2.097552	-0.090799	0.206966
Zn5	Zn	1.422900	-0.416073	-0.293044
Zn6	Zn	1.922900	0.083927	0.206956
Zn7	Zn	1.422880	-0.590739	-0.416064
Zn8	Zn	1.922880	-0.090739	0.083936
O9	O	1.510246	-0.503412	-0.354558
O10	O	2.010246	-0.003412	0.145442
O11	O	1.743876	-0.439232	-0.399775
O12	O	2.243876	0.060768	0.100225
O13	O	1.574350	-0.567659	-0.190051
O14	O	2.074350	-0.067659	0.309949
O15	O	1.446132	-0.269832	-0.309382
O16	O	1.946132	0.230168	0.190618
O17	O	1.743802	-0.567627	-0.309365
O18	O	2.243802	-0.067627	0.190635
O19	O	1.574522	-0.269808	-0.399784
O20	O	2.074522	0.230192	0.100216
O21	O	1.446034	-0.439289	-0.190058
O22	O	1.946034	0.060711	0.309942
O23	O	1.276661	-0.439232	-0.309355
O24	O	1.776661	0.060768	0.190645
O25	O	1.446098	-0.567526	-0.519052
O26	O	1.946098	-0.067526	-0.019052
O27	O	1.276647	-0.567559	-0.399738
O28	O	1.776647	-0.067559	0.100262
O29	O	1.574504	-0.439175	-0.519072
O30	O	2.074504	0.060825	-0.019072
O31	O	1.574331	-0.737027	-0.309338
O32	O	2.074331	-0.237027	0.190662
O33	O	1.446000	-0.736983	-0.399728
O34	O	1.946000	-0.236983	0.100272
C35	C	1.238736	-0.503393	-0.354545
C36	C	1.738736	-0.003393	0.145455
C37	C	1.122583	-0.503410	-0.354557
C38	C	1.622583	-0.003410	0.145443
C39	C	0.950775	-0.567026	-0.399223
C40	C	1.450775	-0.067026	0.100777
C41	C	1.070825	-0.567010	-0.399212
C42	C	1.570825	-0.067010	0.100788
C43	C	1.510181	-0.774922	-0.354545
C44	C	2.010181	-0.274922	0.145455
C45	C	1.510249	-0.891075	-0.354564
C46	C	2.010249	-0.391075	0.145436
C47	C	1.573826	-0.942847	-0.309886
C48	C	2.073826	-0.442847	0.190114
C49	C	1.573898	-1.062897	-0.309905
C50	C	2.073898	-0.562897	0.190095
C51	C	1.782816	-0.503433	-0.354572
C52	C	2.282816	-0.003433	0.145428
C53	C	1.898970	-0.503441	-0.354578
C54	C	2.398970	-0.003441	0.145422
C55	C	1.510310	-0.503340	-0.546511
C56	C	2.010310	-0.003340	-0.046511
C57	C	1.510337	-0.503310	-0.628310
C58	C	2.010337	-0.003310	-0.128310
C59	C	1.510340	-0.230842	-0.354587
C60	C	2.010340	0.269158	0.145413
C61	C	1.510381	-0.114689	-0.354600
C62	C	2.010381	0.385311	0.145400
C63	C	1.577222	-0.436415	-0.816516
C64	C	2.077222	0.063585	-0.316516
C65	C	1.577234	-0.436384	-0.893375
C66	C	2.077234	0.063616	-0.393375
C67	C	1.443526	-0.570043	-0.893342
C68	C	1.943526	-0.070043	-0.393342
C69	C	1.443509	-0.570068	-0.816485
C70	C	1.943509	-0.070068	-0.316485
C71	C	1.510363	-0.503255	-0.778074
C72	C	2.010363	-0.003255	-0.278074
C73	C	1.510392	-0.503200	-0.931790
C74	C	2.010392	-0.003200	-0.431790
C75	C	1.510405	-0.503167	-1.015124
C76	C	2.010405	-0.003167	-0.515124
C77	C	1.510349	-0.503286	-0.694735
C78	C	2.010349	-0.003286	-0.194735
C79	C	1.510243	-0.503409	-0.163352
C80	C	2.010243	-0.003409	0.336648
C81	C	1.510418	-0.503145	-0.081553
C82	C	2.010418	-0.003145	0.418447
H83	H	1.078039	-0.448966	-0.316336
H84	H	1.578039	0.051034	0.183664
N85	N	1.438211	-0.950071	-0.405255
N86	N	1.938211	-0.450071	0.094745
H87	H	1.480717	-0.995289	-0.439365
H88	H	1.980717	-0.495289	0.060635
H89	H	1.389889	-0.995366	-0.375244
H90	H	1.889889	-0.495366	0.124756
N91	N	1.371440	-0.642116	-0.934774
N92	N	1.871440	-0.142116	-0.434774
H93	H	1.329081	-0.684462	-0.898757
H94	H	1.829081	-0.184462	-0.398757
H95	H	1.323098	-0.599571	-0.966666
H96	H	1.823098	-0.099571	-0.466666
N97	N	0.957937	-0.431302	-0.303944
N98	N	1.457937	0.068698	0.196056
H99	H	0.906872	-0.388868	-0.274153
H100	H	1.406872	0.111132	0.225847
H101	H	1.003200	-0.473806	-0.269858
H102	H	1.503200	0.026194	0.230142
N103	N	1.371373	-0.642142	-0.775016
N104	N	1.871373	-0.142142	-0.275016
H105	H	1.329024	-0.684463	-0.811010
H106	H	1.829024	-0.184463	-0.311010
H107	H	1.413872	-0.690518	-0.743116
H108	H	1.913872	-0.190518	-0.243116
N109	N	1.129835	-0.639123	-0.449840
N110	N	1.629835	-0.139123	0.050160
H111	H	1.110876	-0.713786	-0.438332
H112	H	1.610876	-0.213786	0.061668
H113	H	1.110908	-0.622923	-0.502436
H114	H	1.610908	-0.122923	-0.002436
N115	N	0.891807	-0.639146	-0.449870
N116	N	1.391807	-0.139146	0.050130
H117	H	0.942873	-0.681576	-0.479663
H118	H	1.442873	-0.181576	0.020337
H119	H	0.846495	-0.687419	-0.419833
H120	H	1.346495	-0.187419	0.080167
N121	N	1.645870	-0.883845	-0.259203
N122	N	2.145870	-0.383845	0.240797
H123	H	1.635609	-0.806448	-0.266376
H124	H	2.135609	-0.306448	0.233624
H125	H	1.629679	-0.902927	-0.206623
H126	H	2.129679	-0.402927	0.293377
N127	N	1.645991	-1.121870	-0.259232
N128	N	2.145991	-0.621870	0.240768
H129	H	1.694379	-1.167090	-0.289204
H130	H	2.194379	-0.667090	0.210796
H131	H	1.688300	-1.070746	-0.229410
H132	H	2.188300	-0.570746	0.270590
H133	H	1.631655	-0.382008	-0.785244
H134	H	2.131655	0.117992	-0.285244
N135	N	1.438276	-1.055723	-0.405270
N136	N	1.938276	-0.555723	0.094730
H137	H	1.454456	-1.074600	-0.457877
H138	H	1.954456	-0.574600	0.042123
H139	H	1.363642	-1.074761	-0.393746
H140	H	1.863642	-0.574761	0.106254
H141	H	1.631676	-0.381954	-0.924671
H142	H	2.131676	0.118046	-0.424671
