data_functionalizedCrystal
_audit_creation_method	'MofGen! by Chris Wilmer'
_symmetry_space_group_name_H-M	'P1'
_symmetry_Int_Tables_number	1
_symmetry_cell_setting	triclinic
loop_
_symmetry_equiv_pos_as_xyz
  x,y,z
_cell_length_a	19.805407
_cell_length_b	12.827892
_cell_length_c	19.805399
_cell_angle_alpha	89.976064
_cell_angle_beta	89.983114
_cell_angle_gamma	90.015392
loop_
_atom_site_label
_atom_site_type_symbol
_atom_site_fract_x
_atom_site_fract_y
_atom_site_fract_z
Zn1	Zn	1.034770	-0.416043	-0.382743
Zn2	Zn	1.034711	-0.590802	-0.269565
Zn3	Zn	0.921590	-0.416076	-0.269568
Zn4	Zn	0.921569	-0.590742	-0.382712
O5	O	0.978160	-0.503416	-0.326147
O6	O	1.129478	-0.439236	-0.367742
O7	O	1.019690	-0.567663	-0.174849
O8	O	0.936636	-0.269835	-0.284595
O9	O	1.129436	-0.567631	-0.284590
O10	O	1.019789	-0.269811	-0.367745
O11	O	0.936579	-0.439293	-0.174851
O12	O	0.826870	-0.439235	-0.284565
O13	O	0.936602	-0.567529	-0.477433
O14	O	0.826856	-0.567561	-0.367691
O15	O	1.019769	-0.439178	-0.477456
O16	O	1.019670	-0.737030	-0.284560
O17	O	0.936545	-0.736986	-0.367688
C18	C	0.802304	-0.503396	-0.326125
C19	C	0.727072	-0.503412	-0.326132
C20	C	0.691738	-0.570333	-0.369346
C21	C	0.621049	-0.570335	-0.369355
C22	C	0.585696	-0.503421	-0.326147
C23	C	0.621035	-0.436493	-0.282931
C24	C	0.691723	-0.436487	-0.282926
C25	C	0.335962	-0.436516	-0.282954
C26	C	0.265270	-0.436530	-0.282961
C27	C	0.265289	-0.570364	-0.369383
C28	C	0.335976	-0.570358	-0.369378
C29	C	0.371309	-0.503427	-0.326165
C30	C	0.447957	-0.503424	-0.326156
C31	C	0.509049	-0.503428	-0.326152
C32	C	0.978118	-0.774926	-0.326135
C33	C	0.978161	-0.891079	-0.326153
C34	C	1.019343	-0.942851	-0.285064
C35	C	1.019389	-1.062901	-0.285081
C36	C	1.154703	-0.503437	-0.326169
C37	C	1.229935	-0.503446	-0.326179
C38	C	0.978190	-0.503343	-0.502690
C39	C	0.978202	-0.503312	-0.577922
C40	C	0.978221	-0.230846	-0.326174
C41	C	0.978247	-0.114693	-0.326185
C42	C	0.934939	-0.436463	-0.613267
C43	C	0.934948	-0.436443	-0.683955
C44	C	0.978225	-0.503267	-0.719298
C45	C	1.021490	-0.570124	-0.683948
C46	C	1.021477	-0.570148	-0.613261
C47	C	1.021544	-0.570026	-0.969021
C48	C	1.021555	-0.569994	-1.039713
C49	C	0.935015	-0.436321	-1.039716
C50	C	0.935002	-0.436345	-0.969029
C51	C	0.978264	-0.503205	-0.933685
C52	C	0.978253	-0.503228	-0.857037
C53	C	0.978240	-0.503240	-0.795945
C54	C	0.978169	-0.503413	-0.150291
C55	C	0.978288	-0.503149	-0.075060
H56	H	0.236488	-0.382034	-0.247776
O57	O	0.888292	-0.364333	-0.722080
H58	H	0.858206	-0.317859	-0.685628
H59	H	0.899787	-0.381883	-1.068501
O60	O	0.374057	-0.364352	-0.236325
H61	H	0.360499	-0.282356	-0.248009
O62	O	0.583007	-0.642709	-0.415893
H63	H	0.596588	-0.625048	-0.469058
H64	H	1.054569	-0.898300	-0.249875
O65	O	1.066092	-1.121871	-0.238480
H66	H	1.096218	-1.065664	-0.208364
H67	H	1.056723	-0.624538	-0.712729
H68	H	0.942985	-1.070178	-0.361363
H69	H	1.056797	-0.624414	-1.068487
O70	O	0.931496	-0.950086	-0.372763
H71	H	0.961813	-0.999750	-0.407203
H72	H	1.056763	-0.624478	-0.940253
O73	O	0.888266	-0.364378	-0.575152
H74	H	0.853815	-0.411151	-0.542931
O75	O	0.729830	-0.364310	-0.236310
H76	H	0.762048	-0.311190	-0.266659
H77	H	0.364757	-0.624850	-0.404560
O78	O	0.888332	-0.364263	-0.930907
H79	H	0.858247	-0.317777	-0.967361
H80	H	1.056711	-0.624576	-0.584484
O81	O	0.582898	-0.364347	-0.236316
H82	H	0.550698	-0.311249	-0.266661
O83	O	0.729872	-0.642492	-0.415955
H84	H	0.716291	-0.724491	-0.404268
O85	O	0.227182	-0.642546	-0.416003
H86	H	0.172089	-0.631304	-0.408757
