data_functionalizedCrystal
_audit_creation_method	'MofGen! by Chris Wilmer'
_symmetry_space_group_name_H-M	'P1'
_symmetry_Int_Tables_number	1
_symmetry_cell_setting	triclinic
loop_
_symmetry_equiv_pos_as_xyz
  x,y,z
_cell_length_a	11.792254
_cell_length_b	17.019294
_cell_length_c	10.268362
_cell_angle_alpha	86.115747
_cell_angle_beta	89.995475
_cell_angle_gamma	83.795489
loop_
_atom_site_label
_atom_site_type_symbol
_atom_site_fract_x
_atom_site_fract_y
_atom_site_fract_z
O1	O	1.505768	0.108168	-0.120427
O2	O	2.005768	0.608168	0.379573
O3	O	1.175312	0.119300	-0.121679
O4	O	1.675312	0.619300	0.378321
O5	O	1.349758	-0.001059	-0.108173
O6	O	1.849758	0.498941	0.391827
O7	O	1.331321	0.228527	-0.133933
O8	O	1.831321	0.728527	0.366067
O9	O	1.349743	-0.001064	0.108428
O10	O	1.849743	0.498936	0.608428
O11	O	1.175297	0.119295	0.094923
O12	O	1.675297	0.619295	0.594923
O13	O	1.505752	0.108163	0.096174
O14	O	2.005752	0.608163	0.596174
Cu15	Cu	1.340523	0.113728	0.115326
Cu16	Cu	1.840523	0.613728	0.615326
Cu17	Cu	1.340541	0.113734	-0.140830
Cu18	Cu	1.840541	0.613734	0.359170
O19	O	1.331306	0.228522	0.082668
O20	O	1.831306	0.728522	0.582668
C21	C	1.133021	0.118596	-0.013300
C22	C	1.633021	0.618596	0.486700
C23	C	1.007030	0.116497	-0.013065
C24	C	1.507030	0.616497	0.486935
C25	C	0.904711	0.114792	-0.012879
C26	C	1.404711	0.614792	0.487121
C27	C	0.776347	0.112659	-0.012641
C28	C	1.276347	0.612659	0.487359
C29	C	1.349051	-0.030454	0.003422
C30	C	1.849051	0.469546	0.503422
C31	C	1.346954	-0.118033	0.013241
C32	C	1.846954	0.381967	0.513241
C33	C	1.345980	-0.159171	-0.100215
C34	C	1.845980	0.340829	0.399785
C35	C	1.344002	-0.241461	-0.090986
C36	C	1.844002	0.258539	0.409014
C37	C	1.343006	-0.282612	0.031700
C38	C	1.843006	0.217388	0.531700
C39	C	1.343977	-0.241468	0.145165
C40	C	1.843977	0.258532	0.645165
C41	C	1.345947	-0.159179	0.135934
C42	C	1.845947	0.340821	0.635934
C43	C	1.337051	-0.531071	0.065477
C44	C	1.837051	-0.031071	0.565477
C45	C	1.335085	-0.613366	0.074699
C46	C	1.835085	-0.113366	0.574699
C47	C	1.335107	-0.613353	-0.161453
C48	C	1.835107	-0.113353	0.338547
C49	C	1.337083	-0.531063	-0.170672
C50	C	1.837083	-0.031063	0.329328
C51	C	1.338048	-0.489926	-0.057208
C52	C	1.838048	0.010074	0.442792
C53	C	1.340988	-0.366726	0.041137
C54	C	1.840988	0.133274	0.541137
C55	C	1.340058	-0.405813	-0.066646
C56	C	1.840058	0.094187	0.433354
C57	C	1.548043	0.108867	-0.012208
C58	C	2.048043	0.608867	0.487792
C59	C	1.674034	0.110966	-0.012451
C60	C	2.174034	0.610966	0.487549
C61	C	1.332013	0.257917	-0.028930
C62	C	1.832013	0.757917	0.471070
C63	C	1.334110	0.345496	-0.038757
C64	C	1.834110	0.845496	0.461243
N65	N	1.340519	0.113724	0.295492
N66	N	1.840519	0.613724	0.795492
N67	N	1.340554	0.113733	-0.320996
N68	N	1.840554	0.613733	0.179004
C69	C	1.340535	0.113733	0.561162
C70	C	1.840535	0.613733	1.061162
C71	C	1.340522	0.113730	0.413324
C72	C	1.840522	0.613730	0.913324
H73	H	1.343213	-0.274952	-0.183374
H74	H	1.843213	0.225048	0.316626
H75	H	1.337859	-0.497589	0.157868
H76	H	1.837859	0.002411	0.657868
H77	H	1.343160	-0.274979	0.245059
H78	H	1.843160	0.225021	0.745059
C79	C	1.336890	-0.539318	-0.403172
C80	C	1.836890	-0.039318	0.096828
C81	C	1.338168	-0.485831	-0.305534
C82	C	1.838168	0.014169	0.194466
H83	H	1.337555	-0.511391	-0.486429
H84	H	1.837555	-0.011391	0.013571
H85	H	1.402270	-0.577141	-0.394021
H86	H	1.902270	-0.077141	0.105979
H87	H	1.269964	-0.565685	-0.395294
H88	H	1.769964	-0.065685	0.104706
H89	H	1.405098	-0.459468	-0.313406
H90	H	1.905098	0.040532	0.186594
H91	H	1.272781	-0.447994	-0.314689
H92	H	1.772781	0.052006	0.185311
C93	C	1.345714	-0.167451	0.370285
C94	C	1.845714	0.332549	0.870285
C95	C	1.347006	-0.113956	0.260648
C96	C	1.847006	0.386044	0.760648
H97	H	1.346366	-0.139531	0.447278
H98	H	1.846366	0.360469	0.947278
H99	H	1.278804	-0.193821	0.368317
H100	H	1.778804	0.306179	0.868317
H101	H	1.411110	-0.205273	0.369621
H102	H	1.911110	0.294727	0.869621
H103	H	1.281606	-0.076137	0.261306
H104	H	1.781606	0.423863	0.761306
H105	H	1.413924	-0.087573	0.262617
H106	H	1.913924	0.412427	0.762617
C107	C	1.244745	-0.304830	-0.214959
C108	C	1.744745	0.195170	0.285041
C109	C	1.341136	-0.360586	-0.201506
C110	C	1.841136	0.139414	0.298494
H111	H	1.245415	-0.276902	-0.298215
H112	H	1.745415	0.223098	0.201785
H113	H	1.177842	-0.331209	-0.207093
H114	H	1.677842	0.168791	0.292907
H115	H	1.245621	-0.268556	-0.148702
H116	H	1.745621	0.231444	0.351298
H117	H	1.340256	-0.396863	-0.267757
H118	H	1.840256	0.103137	0.232243
H119	H	1.408057	-0.334205	-0.209385
H120	H	1.908057	0.165795	0.290615
C121	C	1.332086	-0.739489	-0.252165
C122	C	1.832086	-0.239489	0.247835
C123	C	1.334030	-0.658571	-0.286167
C124	C	1.834030	-0.158571	0.213833
H125	H	1.331411	-0.767402	-0.329165
H126	H	1.831411	-0.267402	0.170835
H127	H	1.397911	-0.758703	-0.201510
H128	H	1.897911	-0.258703	0.298490
H129	H	1.265605	-0.747238	-0.202778
H130	H	1.765605	-0.247238	0.297222
H131	H	1.400516	-0.650822	-0.335547
H132	H	1.900516	-0.150822	0.164453
H133	H	1.268199	-0.639351	-0.336844
H134	H	1.768199	-0.139351	0.163156
C135	C	1.348975	-0.033022	-0.219226
C136	C	1.848975	0.466978	0.280774
C137	C	1.347047	-0.113939	-0.235077
C138	C	1.847047	0.386061	0.264923
H139	H	1.349630	-0.005100	-0.302488
H140	H	1.849630	0.494900	0.197512
H141	H	1.283154	-0.013820	-0.172855
H142	H	1.783154	0.486180	0.327145
H143	H	1.415461	-0.025269	-0.171603
H144	H	1.915461	0.474731	0.328397
H145	H	1.280557	-0.121692	-0.282693
H146	H	1.780557	0.378308	0.217307
H147	H	1.412874	-0.133147	-0.281468
H148	H	1.912874	0.366853	0.218532
H149	H	1.334268	-0.646868	0.174610
H150	H	1.834268	-0.146868	0.674610
C151	C	1.241277	-0.450847	0.187562
C152	C	1.741277	0.049153	0.687562
C153	C	1.339920	-0.411971	0.175988
C154	C	1.839920	0.088029	0.675988
H155	H	1.240626	-0.478786	0.270809
H156	H	1.740626	0.021214	0.770809
H157	H	1.175902	-0.413017	0.178445
H158	H	1.675902	0.086983	0.678445
H159	H	1.240416	-0.487113	0.121291
H160	H	1.740416	0.012887	0.621291
H161	H	1.340776	-0.375700	0.242254
H162	H	1.840776	0.124300	0.742254
H163	H	1.405312	-0.449805	0.185119
H164	H	1.905312	0.050195	0.685119
