data_functionalizedCrystal
_audit_creation_method	'MofGen! by Chris Wilmer'
_symmetry_space_group_name_H-M	'P1'
_symmetry_Int_Tables_number	1
_symmetry_cell_setting	triclinic
loop_
_symmetry_equiv_pos_as_xyz
  x,y,z
_cell_length_a	17.699083
_cell_length_b	9.130313
_cell_length_c	17.699083
_cell_angle_alpha	90.002131
_cell_angle_beta	83.283015
_cell_angle_gamma	89.994200
loop_
_atom_site_label
_atom_site_type_symbol
_atom_site_fract_x
_atom_site_fract_y
_atom_site_fract_z
O1	O	1.004072	0.121597	0.095708
O2	O	0.783693	0.121645	0.108160
O3	O	0.900109	0.121607	-0.008255
O4	O	0.887656	0.121635	0.212123
O5	O	0.900107	-0.121992	-0.008252
O6	O	0.783692	-0.121954	0.108163
O7	O	1.004070	-0.122002	0.095711
Cu8	Cu	0.893881	-0.144220	0.101937
Cu9	Cu	0.893882	0.143864	0.101934
O10	O	0.887655	-0.121963	0.212126
C11	C	0.755495	-0.000148	0.107716
C12	C	0.671477	-0.000130	0.106377
N13	N	0.893885	-0.346843	0.101940
C14	C	0.622856	-0.000122	0.174710
C15	C	0.543913	-0.000141	0.173448
C16	C	0.513592	-0.000158	0.103852
C17	C	0.562219	-0.000171	0.035513
C18	C	0.641161	-0.000162	0.036776
C19	C	0.243856	-0.000207	0.030418
C20	C	0.164908	-0.000212	0.029160
C21	C	0.146608	-0.000186	0.167090
C22	C	0.225550	-0.000178	0.168353
C23	C	0.274170	-0.000198	0.100015
C24	C	0.359769	-0.000180	0.101384
C25	C	0.427995	-0.000165	0.102481
C26	C	0.945447	-0.423512	0.050408
C27	C	0.945445	-0.576849	0.050399
C28	C	0.842317	-0.576834	0.153460
C29	C	0.842316	-0.423500	0.153464
C30	C	0.997016	-0.346855	-0.001117
C31	C	1.048583	-0.423524	-0.052652
C32	C	1.048581	-0.576861	-0.052661
C33	C	0.997012	-0.653528	-0.001135
C34	C	1.032268	-0.000205	0.096156
C35	C	1.116286	-0.000214	0.097494
C36	C	0.899662	-0.000193	-0.036451
C37	C	0.898323	-0.000193	-0.120469
N38	N	0.893884	0.346486	0.101926
C39	C	0.966656	-0.000210	-0.169090
C40	C	0.965394	-0.000197	-0.248033
C41	C	0.895798	-0.000177	-0.278354
C42	C	0.827459	-0.000156	-0.229727
C43	C	0.828722	-0.000158	-0.150785
C44	C	0.822364	-0.000143	-0.548090
C45	C	0.821106	-0.000144	-0.627038
C46	C	0.959036	-0.000181	-0.645338
C47	C	0.960299	-0.000184	-0.566396
C48	C	0.891961	-0.000155	-0.517776
C49	C	0.893330	-0.000166	-0.432177
C50	C	0.894427	-0.000176	-0.363951
C51	C	0.888102	-0.000161	0.240322
C52	C	0.889440	-0.000151	0.324340
H53	H	0.504328	-0.000132	0.229092
O54	O	0.792307	-0.349077	0.203627
C55	C	0.804452	-0.386570	0.278537
H56	H	0.865044	-0.428739	0.278834
H57	H	0.795676	-0.285726	0.316532
H58	H	0.762458	-0.475560	0.300819
H59	H	1.090564	-0.361093	-0.094607
O60	O	0.792200	-0.651468	0.203408
C61	C	0.745577	-0.740128	0.162928
H62	H	0.775833	-0.763097	0.103663
H63	H	0.733548	-0.847954	0.194530
H64	H	0.689650	-0.681029	0.157859
O65	O	0.254877	-0.000227	0.236025
C66	C	0.195033	-0.000190	0.296069
H67	H	0.141447	-0.046314	0.274952
H68	H	0.211447	-0.070907	0.344668
H69	H	0.183816	0.116678	0.317141
H70	H	0.283434	-0.000225	-0.025228
O71	O	0.688286	-0.000097	-0.029673
C72	C	0.644599	-0.000147	-0.091372
H73	H	0.585639	0.045969	-0.072055
H74	H	0.673804	0.070572	-0.139243
H75	H	0.639027	-0.117018	-0.112711
H76	H	0.997024	-0.222000	-0.001112
H77	H	1.090563	-0.639283	-0.094627
H78	H	1.023330	-0.000235	-0.144409
H79	H	0.537526	-0.000205	-0.021154
O80	O	0.997128	-0.802481	-0.001227
C81	C	1.053678	-0.853717	-0.057778
H82	H	1.098792	-0.765369	-0.071028
H83	H	1.081207	-0.956316	-0.036499
H84	H	1.026766	-0.880898	-0.111533
O85	O	1.031843	-0.000289	-0.295155
C86	C	1.093541	-0.000283	-0.251465
H87	H	1.074218	-0.046396	-0.192511
H88	H	1.141407	-0.071026	-0.280677
H89	H	1.114888	0.116574	-0.245880
O90	O	1.027971	-0.000137	-0.537069
C91	C	1.088015	-0.000184	-0.596913
H92	H	1.066898	0.045938	-0.650502
H93	H	1.136614	0.070531	-0.580502
H94	H	1.109088	-0.117054	-0.608124
O95	O	0.759900	0.000060	-0.259268
C96	C	0.755036	0.126240	-0.304368
H97	H	0.814727	0.168287	-0.324139
H98	H	0.724960	0.097870	-0.356007
H99	H	0.721489	0.214592	-0.269427
H100	H	0.766718	-0.000119	-0.508512
O101	O	1.025352	-0.000128	-0.692677
C102	C	1.009320	-0.000151	-0.768856
H103	H	0.949878	0.045987	-0.771773
H104	H	1.052889	0.070562	-0.804698
H105	H	1.012228	-0.117016	-0.791697
H106	H	0.764429	-0.000131	-0.651721
H107	H	0.140225	-0.000228	-0.027517
O108	O	0.652181	-0.000168	0.242384
C109	C	0.592334	-0.000130	0.302425
H110	H	0.538750	-0.046258	0.281306
H111	H	0.608746	-0.070844	0.351026
H112	H	0.581114	0.116738	0.323495
O113	O	0.762364	0.000114	-0.103520
C114	C	0.758979	0.126260	-0.057295
H115	H	0.797737	0.214428	-0.086279
H116	H	0.697998	0.168626	-0.048303
H117	H	0.778466	0.097732	0.000074
H118	H	0.107012	-0.000177	0.222734
