data_functionalizedCrystal
_audit_creation_method	'MofGen! by Chris Wilmer'
_symmetry_space_group_name_H-M	'P1'
_symmetry_Int_Tables_number	1
_symmetry_cell_setting	triclinic
loop_
_symmetry_equiv_pos_as_xyz
  x,y,z
_cell_length_a	15.944545
_cell_length_b	15.538191
_cell_length_c	14.750779
_cell_angle_alpha	97.569385
_cell_angle_beta	102.645255
_cell_angle_gamma	114.615867
loop_
_atom_site_label
_atom_site_type_symbol
_atom_site_fract_x
_atom_site_fract_y
_atom_site_fract_z
O1	O	1.053046	-0.141882	-0.079756
O2	O	0.803922	-0.156870	-0.079771
O3	O	0.976977	-0.012249	-0.079765
O4	O	0.879991	-0.286503	-0.079762
O5	O	1.025896	0.028629	0.079887
O6	O	0.852841	-0.115992	0.079881
O7	O	1.101965	-0.101004	0.079896
Zn8	Zn	0.985170	-0.102008	0.105236
Zn9	Zn	0.920717	-0.155867	-0.105112
O10	O	0.928910	-0.245625	0.079890
C11	C	0.797276	-0.135811	0.000053
C12	C	0.704596	-0.133950	0.000047
C13	C	0.462997	-0.038743	0.000056
C14	C	0.523703	-0.064487	0.078776
C15	C	0.370982	-0.127306	0.000063
C16	C	0.475446	-0.104814	-0.078629
C17	C	0.534899	-0.130566	0.000054
C18	C	0.430486	-0.153011	0.078848
C19	C	0.382208	-0.193342	-0.078627
C20	C	0.442866	-0.219147	0.000112
C21	C	0.276554	-0.125426	0.000070
C22	C	0.629323	-0.132452	0.000054
C23	C	1.011583	0.043285	0.000058
C24	C	1.041806	0.147855	0.000050
C25	C	1.108610	-0.122064	0.000069
C26	C	1.201289	-0.123926	0.000069
C27	C	0.894304	-0.301159	0.000064
C28	C	0.864078	-0.405731	0.000066
N29	N	1.029164	-0.065250	0.248794
C30	C	0.741524	0.435658	0.000053
C31	C	0.769947	0.533923	0.000057
C32	C	0.929821	0.556363	0.000066
C33	C	0.901409	0.458096	0.000057
C34	C	0.807260	0.397751	0.000052
C35	C	0.967145	0.420189	0.000056
C36	C	0.938737	0.321932	0.000053
C37	C	0.844592	0.261581	0.000050
C38	C	0.778851	0.299494	0.000049
C39	C	1.061297	0.480537	0.000069
C40	C	1.127033	0.442630	0.000068
C41	C	1.098623	0.344369	0.000057
C42	C	1.004478	0.284019	0.000055
C43	C	1.164364	0.306457	0.000059
C44	C	1.135956	0.208200	0.000056
C45	C	0.976070	0.185762	0.000051
N46	N	0.876732	-0.192617	-0.248669
C47	C	0.753876	-0.295235	0.600603
C48	C	0.784708	-0.269483	0.701103
C49	C	0.937958	-0.141468	0.701071
C50	C	0.907136	-0.167206	0.600568
C51	C	0.815095	-0.244090	0.550342
C52	C	0.968355	-0.116061	0.550308
C53	C	0.937538	-0.141800	0.449815
C54	C	0.845502	-0.218684	0.399582
C55	C	0.784278	-0.269829	0.449849
C56	C	1.060399	-0.039182	0.600536
C57	C	1.121618	0.011963	0.550276
C58	C	1.090798	-0.013772	0.449780
C59	C	0.998762	-0.090655	0.399547
C60	C	1.152022	0.037374	0.399513
C61	C	1.121205	0.011635	0.299020
C62	C	0.967945	-0.116394	0.299054
H63	H	0.321473	-0.247754	-0.145180
H64	H	0.495383	-0.084434	-0.145176
H65	H	1.189485	0.177336	0.000056
H66	H	0.892992	-0.178995	0.258158
H67	H	0.664855	0.386519	0.000042
N68	N	0.604156	0.007626	0.166921
H69	H	0.631725	-0.028258	0.206350
H70	H	0.577691	0.042067	0.206558
N71	N	0.812247	-0.246458	0.291192
H72	H	0.857691	-0.266407	0.266967
H73	H	0.812109	-0.188620	0.267057
N74	N	1.228576	0.507727	0.000079
H75	H	1.225790	0.533846	-0.059101
H76	H	1.265856	0.468748	0.000114
H77	H	0.709325	-0.332430	0.408953
N78	N	0.654597	-0.378152	0.546419
H79	H	0.620485	-0.406646	0.593506
H80	H	0.661259	-0.430500	0.504719
H81	H	0.899402	0.136623	0.000040
N82	N	0.813938	0.155602	0.000047
H83	H	0.856613	0.151484	0.059229
H84	H	0.820335	0.121247	-0.059176
H85	H	1.241023	0.355607	0.000073
H86	H	0.734849	-0.311139	0.742020
H87	H	0.702183	0.250355	0.000037
H88	H	0.435096	-0.295468	0.000159
H89	H	1.226967	0.099968	0.440420
H90	H	1.171057	0.053281	0.258097
H91	H	0.410693	-0.173328	0.145471
H92	H	0.716414	0.564785	0.000072
N93	N	1.031367	0.621453	0.000081
H94	H	1.039392	0.689452	0.000087
H95	H	1.043177	0.594029	-0.059104
N96	N	1.091935	0.586514	0.000072
H97	H	1.112037	0.599438	-0.059105
H98	H	1.148267	0.629669	0.059300
H99	H	1.012900	-0.078870	0.741976
N100	N	1.220889	0.094881	0.604450
H101	H	1.231125	0.103426	0.675739
H102	H	1.226176	0.157215	0.586884
H103	H	1.085488	-0.018231	0.682364
H104	H	0.470626	0.037550	0.000132
