data_functionalizedCrystal
_audit_creation_method	'MofGen! by Chris Wilmer'
_symmetry_space_group_name_H-M	'P1'
_symmetry_Int_Tables_number	1
_symmetry_cell_setting	triclinic
loop_
_symmetry_equiv_pos_as_xyz
  x,y,z
_cell_length_a	21.395362
_cell_length_b	15.297327
_cell_length_c	21.395356
_cell_angle_alpha	99.650480
_cell_angle_beta	89.957023
_cell_angle_gamma	99.725883
loop_
_atom_site_label
_atom_site_type_symbol
_atom_site_fract_x
_atom_site_fract_y
_atom_site_fract_z
Zn1	Zn	0.914748	-0.358826	-0.397682
Zn2	Zn	1.414748	0.141174	0.102318
Zn3	Zn	0.896527	-0.509702	-0.311025
Zn4	Zn	1.396527	-0.009702	0.188975
Zn5	Zn	0.809956	-0.358892	-0.292891
Zn6	Zn	1.309956	0.141108	0.207109
Zn7	Zn	0.791807	-0.509697	-0.415729
Zn8	Zn	1.291807	-0.009697	0.084271
O9	O	0.853260	-0.434279	-0.354332
O10	O	1.353260	0.065721	0.145668
O11	O	1.000011	-0.378815	-0.386223
O12	O	1.500011	0.121185	0.113777
O13	O	0.885013	-0.489727	-0.220945
O14	O	1.385013	0.010273	0.279055
O15	O	0.839078	-0.232629	-0.291650
O16	O	1.339078	0.267371	0.208350
O17	O	0.986625	-0.489663	-0.322557
O18	O	1.486625	0.010337	0.177443
O19	O	0.916067	-0.232581	-0.368639
O20	O	1.416067	0.267419	0.131361
O21	O	0.821410	-0.378928	-0.207622
O22	O	1.321410	0.121072	0.292378
O23	O	0.719868	-0.378922	-0.309150
O24	O	1.219868	0.121078	0.190850
O25	O	0.808146	-0.489653	-0.501009
O26	O	1.308146	0.010347	-0.001009
O27	O	0.706534	-0.489717	-0.399398
O28	O	1.206534	0.010283	0.100602
O29	O	0.898469	-0.378809	-0.487750
O30	O	1.398469	0.121191	0.012250
O31	O	0.867415	-0.635956	-0.340056
O32	O	1.367415	-0.135956	0.159944
O33	O	0.790478	-0.635952	-0.416982
O34	O	1.290478	-0.135952	0.083018
C35	C	0.690466	-0.434327	-0.354265
C36	C	1.190466	0.065673	0.145735
C37	C	0.620820	-0.434369	-0.354254
C38	C	1.120820	0.065631	0.145746
C39	C	0.581171	-0.492137	-0.401195
C40	C	1.081171	0.007863	0.098805
C41	C	0.515738	-0.492115	-0.401221
C42	C	1.015738	0.007885	0.098779
C43	C	0.489956	-0.434334	-0.354294
C44	C	0.989956	0.065666	0.145706
C45	C	0.529614	-0.376556	-0.307348
C46	C	1.029614	0.123444	0.192652
C47	C	0.595046	-0.376573	-0.307328
C48	C	1.095046	0.123427	0.192672
C49	C	0.387103	-0.427079	-0.297018
C50	C	0.887103	0.072921	0.202982
C51	C	0.321672	-0.427068	-0.297037
C52	C	0.821672	0.072932	0.202963
C53	C	0.288142	-0.434276	-0.354356
C54	C	0.788142	0.065724	0.145644
C55	C	0.320050	-0.441513	-0.411659
C56	C	0.820050	0.058487	0.088341
C57	C	0.385482	-0.441530	-0.411639
C58	C	0.885482	0.058470	0.088361
C59	C	0.419006	-0.434309	-0.354311
C60	C	0.919006	0.065691	0.145689
C61	C	0.177543	-0.492022	-0.401329
C62	C	0.677543	0.007978	0.098671
C63	C	0.112110	-0.491994	-0.401355
C64	C	0.612110	0.008006	0.098645
C65	C	0.125986	-0.376440	-0.307477
C66	C	0.625986	0.123560	0.192523
C67	C	0.191419	-0.376463	-0.307457
C68	C	0.691419	0.123537	0.192543
C69	C	0.217193	-0.434259	-0.354382
C70	C	0.717193	0.065741	0.145618
C71	C	0.825017	-0.668690	-0.382459
C72	C	1.325017	-0.168690	0.117541
C73	C	0.812992	-0.768972	-0.394513
C74	C	1.312992	-0.268972	0.105487
C75	C	0.939462	-1.051533	-0.268395
C76	C	1.439462	-0.551533	0.231605
C77	C	0.950760	-0.957313	-0.257066
C78	C	1.450760	-0.457313	0.242934
C79	C	0.916319	-0.910223	-0.291427
C80	C	1.416319	-0.410223	0.208573
C81	C	0.870578	-0.957362	-0.337118
C82	C	1.370578	-0.457362	0.162882
C83	C	0.859276	-1.051591	-0.348444
C84	C	1.359276	-0.551591	0.151556
C85	C	0.836133	-0.910281	-0.371476
C86	C	1.336133	-0.410281	0.128524
C87	C	0.790392	-0.957420	-0.417167
C88	C	1.290392	-0.457420	0.082833
C89	C	0.779092	-1.051640	-0.428491
C90	C	1.279092	-0.551640	0.071509
C91	C	0.813533	-1.098730	-0.394131
C92	C	1.313533	-0.598730	0.105869
C93	C	0.847435	-0.816052	-0.360150
C94	C	1.347435	-0.316052	0.139850
C95	C	0.767249	-0.816111	-0.440200
C96	C	1.267249	-0.316111	0.059800
C97	C	0.755951	-0.910330	-0.451528
C98	C	1.255951	-0.410330	0.048472
C99	C	1.016689	-0.434232	-0.354399
C100	C	1.516689	0.065768	0.145601
C101	C	1.086332	-0.434212	-0.354428
C102	C	1.586332	0.065788	0.145572
C103	C	0.853316	-0.434223	-0.517748
C104	C	1.353316	0.065777	-0.017748
C105	C	0.853339	-0.434200	-0.587387
C106	C	1.353339	0.065800	-0.087387
C107	C	0.881630	-0.198953	-0.326109
C108	C	1.381630	0.301047	0.173891
C109	C	0.893719	-0.098672	-0.314081
C110	C	1.393719	0.401328	0.185919
C111	C	0.820233	-0.376500	-0.613152
C112	C	1.320233	0.123500	-0.113152
C113	C	0.820233	-0.376483	-0.678586
C114	C	1.320233	0.123517	-0.178586
C115	C	0.853352	-0.434157	-0.718250
C116	C	1.353352	0.065843	-0.218250
C117	C	0.886460	-0.491868	-0.692478
C118	C	1.386460	0.008132	-0.192478
C119	C	0.886454	-0.491889	-0.627047
C120	C	1.386454	0.008111	-0.127047
C121	C	0.908954	-0.441227	-0.822805
C122	C	1.408954	0.058773	-0.322805
C123	C	0.908962	-0.441200	-0.888234
C124	C	1.408962	0.058800	-0.388234
C125	C	0.853369	-0.434096	-0.920064
C126	C	1.353369	0.065904	-0.420064
C127	C	0.797769	-0.427001	-0.886453
C128	C	1.297769	0.072999	-0.386453
C129	C	0.797763	-0.427022	-0.821021
C130	C	1.297763	0.072978	-0.321021
C131	C	0.853361	-0.434140	-0.789201
C132	C	1.353361	0.065860	-0.289201
C133	C	0.820259	-0.376375	-1.016779
C134	C	1.320259	0.123625	-0.516779
C135	C	0.820257	-0.376364	-1.082214
C136	C	1.320257	0.123636	-0.582214
C137	C	0.886491	-0.491744	-1.096105
C138	C	1.386491	0.008256	-0.596105
C139	C	0.886486	-0.491759	-1.030672
C140	C	1.386486	0.008241	-0.530672
C141	C	0.853372	-0.434070	-0.991012
C142	C	1.353372	0.065930	-0.491012
C143	C	0.853248	-0.434270	-0.191543
C144	C	1.353248	0.065730	0.308457
C145	C	0.853376	-0.434040	-0.121875
C146	C	1.353376	0.065960	0.378125
H147	H	0.411459	-0.447421	-0.458297
H148	H	0.911459	0.052579	0.041703
H149	H	0.741839	-1.090018	-0.465689
H150	H	1.241839	-0.590018	0.034311
H151	H	0.627329	-0.329529	-0.269102
H152	H	1.127329	0.170471	0.230898
H153	H	0.508618	-0.329509	-0.269141
H154	H	1.008618	0.170491	0.230859
H155	H	0.925520	-0.833505	-0.282200
H156	H	1.425520	-0.333505	0.217800
H157	H	0.884678	-0.777680	-0.322948
H158	H	1.384678	-0.277680	0.177052
H159	H	0.804338	-1.175452	-0.403353
H160	H	1.304338	-0.675452	0.096647
H161	H	0.954235	-0.446972	-0.915595
H162	H	1.454235	0.053028	-0.415595
H163	H	0.967495	-1.089882	-0.240419
H164	H	1.467495	-0.589882	0.259581
H165	H	0.198530	-0.539079	-0.439541
H166	H	0.698530	-0.039079	0.060459
H167	H	0.295697	-0.421181	-0.250379
H168	H	0.795697	0.078819	0.249621
H169	H	0.793293	-0.329381	-1.103191
H170	H	1.293293	0.170619	-0.603191
H171	H	0.988001	-0.918936	-0.219865
H172	H	1.488001	-0.418936	0.280135
H173	H	0.414399	-0.421206	-0.250338
H174	H	0.914399	0.078794	0.249662
H175	H	0.104995	-0.329390	-0.269271
H176	H	0.604995	0.170610	0.230729
H177	H	0.483450	-0.539155	-0.439448
H178	H	0.983450	-0.039155	0.060552
H179	H	0.079828	-0.539033	-0.439584
H180	H	0.579828	-0.039033	0.060416
H181	H	0.739203	-0.777771	-0.468178
H182	H	1.239203	-0.277771	0.031822
H183	H	0.718708	-0.948724	-0.488730
H184	H	1.218708	-0.448724	0.011270
H185	H	0.292751	-0.447380	-0.458334
H186	H	0.792751	0.052620	0.041666
H187	H	0.223701	-0.329427	-0.269229
H188	H	0.723701	0.170573	0.230771
H189	H	0.913458	-0.538701	-1.128399
H190	H	1.413458	-0.038701	-0.628399
H191	H	0.793266	-0.329528	-0.580865
H192	H	1.293266	0.170472	-0.080865
H193	H	0.793275	-0.329493	-0.699567
H194	H	1.293275	0.170507	-0.199567
H195	H	0.752491	-0.421247	-0.793658
H196	H	1.252491	0.078753	-0.293658
H197	H	0.752501	-0.421210	-0.912366
H198	H	1.252501	0.078790	-0.412366
H199	H	0.793295	-0.329401	-0.984486
H200	H	1.293295	0.170599	-0.484486
H201	H	0.913447	-0.538742	-1.009694
H202	H	1.413447	-0.038742	-0.509694
H203	H	0.954229	-0.447005	-0.796894
H204	H	1.454229	0.052995	-0.296894
H205	H	0.602152	-0.539198	-0.439407
H206	H	1.102152	-0.039198	0.060593
H207	H	0.913425	-0.538826	-0.724778
H208	H	1.413425	-0.038826	-0.224778
H209	H	0.913416	-0.538874	-0.606070
H210	H	1.413416	-0.038874	-0.106070
