data_functionalizedCrystal
_audit_creation_method	'MofGen! by Chris Wilmer'
_symmetry_space_group_name_H-M	'P1'
_symmetry_Int_Tables_number	1
_symmetry_cell_setting	triclinic
loop_
_symmetry_equiv_pos_as_xyz
  x,y,z
_cell_length_a	13.033293
_cell_length_b	13.032721
_cell_length_c	10.686551
_cell_angle_alpha	86.664748
_cell_angle_beta	100.972412
_cell_angle_gamma	105.184121
loop_
_atom_site_label
_atom_site_type_symbol
_atom_site_fract_x
_atom_site_fract_y
_atom_site_fract_z
Zn1	Zn	1.642199	-0.144813	0.987968
Zn2	Zn	1.605871	-0.336106	0.800702
Zn3	Zn	1.447452	-0.184502	0.753144
Zn4	Zn	1.441968	-0.344929	0.987822
O5	O	1.534373	-0.252587	0.882409
O6	O	1.787477	-0.149885	0.983091
O7	O	1.571949	-0.328913	0.617809
O8	O	1.490784	-0.032041	0.764452
O9	O	1.760787	-0.290428	0.845508
O10	O	1.633864	-0.002881	0.936975
O11	O	1.455558	-0.217530	0.582868
O12	O	1.296628	-0.226085	0.764311
O13	O	1.481437	-0.305465	1.164426
O14	O	1.292598	-0.343950	0.936728
O15	O	1.628546	-0.158441	1.164533
O16	O	1.566631	-0.484473	0.845367
O17	O	1.446211	-0.490955	0.982843
C18	C	1.255695	-0.290283	0.845344
C19	C	1.136474	-0.306432	0.829520
C20	C	1.096524	-0.244185	0.890671
C21	C	0.973304	-0.260875	0.874318
C22	C	1.501915	-0.525874	0.919281
C23	C	1.488130	-0.642771	0.935110
C24	C	1.541628	-0.691633	0.874212
C25	C	1.527382	-0.812452	0.890571
C26	C	1.814139	-0.214745	0.919620
C27	C	1.933358	-0.198619	0.935478
C28	C	1.558432	-0.228510	1.211547
C29	C	1.568685	-0.218250	1.351805
C30	C	1.566988	0.021773	0.845425
C31	C	1.580887	0.138688	0.829664
C32	C	1.510477	-0.276487	0.554550
C33	C	1.500467	-0.286423	0.414280
H34	H	1.153545	-0.178534	0.955126
H35	H	0.990375	-0.132961	0.999935
O36	O	1.421404	-0.365515	1.350294
C37	C	1.360022	-0.426825	1.436532
H38	H	1.410310	-0.417721	1.536852
H39	H	1.335980	-0.514011	1.408010
H40	H	1.284142	-0.398323	1.434468
H41	H	0.916286	-0.326525	0.809851
O42	O	1.460015	-0.869149	0.967130
C43	C	1.354222	-0.859000	0.921632
H44	H	1.357821	-0.783085	0.862104
H45	H	1.313143	-0.855225	1.005764
H46	H	1.306156	-0.930481	0.860239
H47	H	1.431788	-0.690383	0.999364
H48	H	1.634941	-0.152034	1.405628
H49	H	1.079453	-0.372078	0.765057
H50	H	1.637243	-0.813703	0.765416
O51	O	1.608693	-0.634824	0.797400
C52	C	1.549153	-0.585563	0.699216
H53	H	1.460213	-0.630814	0.684575
H54	H	1.581076	-0.586045	0.607125
H55	H	1.558024	-0.500000	0.726550
