data_functionalizedCrystal
_audit_creation_method	'MofGen! by Chris Wilmer'
_symmetry_space_group_name_H-M	'P1'
_symmetry_Int_Tables_number	1
_symmetry_cell_setting	triclinic
loop_
_symmetry_equiv_pos_as_xyz
  x,y,z
_cell_length_a	6.394989
_cell_length_b	10.654550
_cell_length_c	9.730223
_cell_angle_alpha	90.004253
_cell_angle_beta	90.002753
_cell_angle_gamma	85.491321
loop_
_atom_site_label
_atom_site_type_symbol
_atom_site_fract_x
_atom_site_fract_y
_atom_site_fract_z
O1	O	-2.774472	-0.205783	-0.114276
O2	O	-2.166494	-0.216150	-0.114281
O3	O	-2.484462	-0.028376	-0.114270
O4	O	-2.456505	-0.393558	-0.114287
O5	O	-2.484441	-0.028370	0.114310
O6	O	-2.166473	-0.216145	0.114299
O7	O	-2.774452	-0.205778	0.114304
Zn8	Zn	-2.470459	-0.210960	0.150593
Zn9	Zn	-2.470486	-0.210968	-0.150570
O10	O	-2.456484	-0.393552	0.114293
C11	C	-2.482399	0.018447	0.000020
C12	C	-2.476257	0.157955	0.000017
C13	C	-2.458547	-0.440375	0.000000
C14	C	-2.464689	-0.579883	-0.000006
N15	N	-2.470456	-0.210955	0.356130
C16	C	-2.088633	-0.214098	0.000015
C17	C	-1.852307	-0.207833	0.000021
N18	N	-2.470506	-0.210963	-0.356107
C19	C	-2.663471	0.235458	0.000019
C20	C	-2.657688	0.366540	0.000002
C21	C	-2.277460	0.342604	-0.000012
C22	C	-2.283245	0.211524	-0.000005
C23	C	-2.611301	-0.127845	0.428061
C24	C	-2.611321	-0.127846	0.571944
C25	C	-2.329647	-0.294077	0.571952
C26	C	-2.329617	-0.294070	0.428072
H27	H	-2.820634	0.191847	0.000034
C28	C	-2.764282	-0.037460	0.350200
C29	C	-2.887591	0.035347	0.443997
C30	C	-3.028519	0.118639	0.372327
H31	H	-2.852086	-0.083905	0.294048
H32	H	-2.688416	0.016117	0.294120
H33	H	-2.963451	-0.018223	0.500054
H34	H	-2.799843	0.081818	0.500152
H35	H	-2.952654	0.172216	0.316247
H36	H	-3.116309	0.072184	0.316178
H37	H	-3.112187	0.168057	0.435957
H38	H	-2.130783	0.148418	-0.000010
C39	C	-2.176654	-0.384117	0.650244
C40	C	-2.047865	-0.315138	0.732903
C41	C	-1.906924	-0.398044	0.805057
H42	H	-2.092558	-0.433647	0.586955
H43	H	-2.252518	-0.437607	0.706432
H44	H	-1.972007	-0.261670	0.676720
H45	H	-2.131903	-0.265612	0.796217
H46	H	-1.982788	-0.451534	0.861244
H47	H	-1.822844	-0.447569	0.741758
H48	H	-1.819538	-0.351254	0.861158
C49	C	-2.176935	-0.384518	0.350039
C50	C	-2.212628	-0.508507	0.384983
C51	C	-2.072039	-0.591855	0.313114
H52	H	-2.037226	-0.368789	0.373579
H53	H	-2.197095	-0.372692	0.254033
H54	H	-2.192451	-0.520328	0.480968
H55	H	-2.352310	-0.524276	0.361440
H56	H	-2.092199	-0.580029	0.217108
H57	H	-1.932340	-0.576114	0.336659
H58	H	-2.096251	-0.675990	0.336803
C59	C	-2.068121	0.401008	0.000050
C60	C	-2.103119	0.532391	0.000085
C61	C	-1.910323	0.586232	0.000165
H62	H	-1.990800	0.374745	-0.079640
H63	H	-1.990930	0.374686	0.079792
H64	H	-2.180278	0.558703	-0.079650
H65	H	-2.180409	0.558690	0.079768
H66	H	-1.833132	0.559909	0.079908
H67	H	-1.833016	0.559959	-0.079526
H68	H	-1.934043	0.675380	0.000201
C69	C	-2.763908	-0.037463	0.650113
C70	C	-2.651540	0.041258	0.732708
C71	C	-2.792035	0.124550	0.804722
H72	H	-2.851582	-0.083913	0.706339
H73	H	-2.847744	0.012108	0.586699
H74	H	-2.567740	-0.008307	0.796114
H75	H	-2.563874	0.087736	0.676516
H76	H	-2.875871	0.174121	0.741308
H77	H	-2.879702	0.078090	0.860940
H78	H	-2.715814	0.177979	0.860761
H79	H	-2.810138	0.429638	-0.000000
