data_functionalizedCrystal
_audit_creation_method	'MofGen! by Chris Wilmer'
_symmetry_space_group_name_H-M	'P1'
_symmetry_Int_Tables_number	1
_symmetry_cell_setting	triclinic
loop_
_symmetry_equiv_pos_as_xyz
  x,y,z
_cell_length_a	6.817900
_cell_length_b	17.284672
_cell_length_c	11.168136
_cell_angle_alpha	90.674134
_cell_angle_beta	108.508683
_cell_angle_gamma	103.040903
loop_
_atom_site_label
_atom_site_type_symbol
_atom_site_fract_x
_atom_site_fract_y
_atom_site_fract_z
V1	V	-4.075818	-0.109070	-0.382935
O2	O	-4.071099	0.005229	-0.386721
O3	O	-4.018630	-0.216255	-0.369664
O4	O	-4.052631	-0.107397	-0.554806
O5	O	-4.036863	-0.104382	-0.200298
V6	V	-4.557317	-0.095398	-0.362384
O7	O	-4.341515	-0.139060	-0.428015
O8	O	-4.741818	-0.065407	-0.317304
O9	O	-4.391299	0.011788	-0.375655
O10	O	-4.679433	-0.209696	-0.358598
O11	O	-4.713669	-0.100085	-0.545022
O12	O	-4.357298	-0.097070	-0.190513
C13	C	-3.860677	-0.242384	-0.360875
C14	C	-3.895374	-0.330010	-0.351170
C15	C	-3.904047	-0.103524	-0.597040
C16	C	-3.966315	-0.102866	-0.737475
C17	C	-3.967941	-0.382439	-0.461129
C18	C	-4.000518	-0.464771	-0.451998
C19	C	-3.960542	-0.494672	-0.332908
C20	C	-3.887962	-0.442236	-0.222941
C21	C	-3.855372	-0.359906	-0.232072
C22	C	-4.051965	-0.739696	-0.293317
C23	C	-4.084568	-0.822033	-0.284194
C24	C	-4.197118	-0.844562	-0.513253
C25	C	-4.164534	-0.762229	-0.522374
C26	C	-4.091947	-0.709800	-0.412407
N27	N	-3.993846	-0.578829	-0.323572
N28	N	-4.058630	-0.625645	-0.421743
C29	C	-4.167747	-0.106311	-0.805827
C30	C	-4.232107	-0.105631	-0.950975
C31	C	-4.212593	0.037913	-0.384441
C32	C	-4.157135	0.125538	-0.394153
C33	C	-4.169222	-0.100945	-0.148272
C34	C	-4.086194	-0.101599	-0.007836
H35	H	-4.059607	-0.507456	-0.541539
H36	H	-4.292549	-0.109759	-0.756888
H37	H	-4.404670	-0.108585	-1.009734
O38	O	-4.275397	-0.901107	-0.631858
H39	H	-4.291334	-0.963381	-0.605507
O40	O	-4.041431	-0.854289	-0.155741
H41	H	-3.985460	-0.804000	-0.080806
H42	H	-4.000525	-0.358101	-0.558106
O43	O	-3.973693	-0.683158	-0.174710
H44	H	-3.957717	-0.620883	-0.201055
H45	H	-3.855404	-0.466588	-0.125974
O46	O	-3.857602	-0.097678	-0.930010
H47	H	-3.850149	-0.151740	-0.877742
O48	O	-4.207630	-0.729976	-0.650820
H49	H	-4.263545	-0.780266	-0.725750
O50	O	-3.777096	-0.303351	-0.113476
H51	H	-3.754785	-0.337974	-0.029130
O52	O	-3.800748	-0.098380	-0.802092
H53	H	-3.790585	-0.043965	-0.853820
