data_functionalizedCrystal
_audit_creation_method	'MofGen! by Chris Wilmer'
_symmetry_space_group_name_H-M	'P1'
_symmetry_Int_Tables_number	1
_symmetry_cell_setting	triclinic
loop_
_symmetry_equiv_pos_as_xyz
  x,y,z
_cell_length_a	16.992694
_cell_length_b	14.853576
_cell_length_c	16.053802
_cell_angle_alpha	92.570318
_cell_angle_beta	87.249047
_cell_angle_gamma	87.153353
loop_
_atom_site_label
_atom_site_type_symbol
_atom_site_fract_x
_atom_site_fract_y
_atom_site_fract_z
O1	O	1.043903	0.187626	-0.069321
O2	O	0.815617	0.185527	-0.069346
O3	O	0.935854	0.055778	-0.069330
O4	O	0.923666	0.317375	-0.069338
O5	O	0.929236	0.062888	0.069528
O6	O	0.808999	0.192637	0.069512
O7	O	1.037285	0.194736	0.069537
Zn8	Zn	0.922091	0.194816	0.091571
Zn9	Zn	0.930811	0.185447	-0.091380
O10	O	0.917048	0.324485	0.069520
C11	C	0.783092	0.186384	0.000080
C12	C	0.696040	0.178333	0.000071
C13	C	0.931992	0.025705	0.000098
C14	C	0.930333	-0.074495	0.000095
C15	C	0.645886	0.256008	0.000069
C16	C	0.564090	0.248439	0.000081
C17	C	0.532450	0.163194	0.000088
C18	C	0.582610	0.085513	0.000092
C19	C	0.664404	0.093083	0.000086
C20	C	0.288817	0.131819	0.000111
C21	C	0.207017	0.124254	0.000115
C22	C	0.188502	0.287181	0.000105
C23	C	0.270299	0.294744	0.000094
C24	C	0.320451	0.217063	0.000102
N25	N	0.448843	0.155455	0.000097
N26	N	0.404057	0.224803	0.000099
C27	C	0.933161	-0.125442	-0.075600
C28	C	0.925954	-0.117702	0.075788
C29	C	0.924400	-0.211846	0.075788
C30	C	0.927227	-0.262792	0.000093
C31	C	0.931609	-0.219595	-0.075602
C32	C	0.920026	-0.255052	0.151482
C33	C	0.918473	-0.349201	0.151485
C34	C	0.921295	-0.400149	0.075789
C35	C	0.925675	-0.356945	0.000091
C36	C	0.928503	-0.407891	-0.075605
C37	C	0.932878	-0.364689	-0.151304
C38	C	0.934430	-0.270542	-0.151299
C39	C	0.919742	-0.494296	0.075783
C40	C	0.926951	-0.502044	-0.075607
C41	C	1.069810	0.193879	0.000109
C42	C	1.156863	0.201930	0.000113
C43	C	0.920911	0.354558	0.000091
C44	C	0.922569	0.454758	0.000088
N45	N	0.916146	0.201209	0.216431
N46	N	0.936763	0.179047	-0.216240
C47	C	0.967326	0.146023	0.260131
C48	C	0.963174	0.150504	0.347538
C49	C	0.907846	0.210177	0.391241
C50	C	0.856661	0.265365	0.347534
C51	C	0.860809	0.260879	0.260130
C52	C	0.889726	0.229749	0.652649
C53	C	0.885583	0.234234	0.740059
C54	C	0.992096	0.119370	0.740056
C55	C	0.996242	0.114893	0.652650
C56	C	0.945054	0.170078	0.608951
N57	N	0.903603	0.214761	0.480585
N58	N	0.949294	0.165489	0.519609
H59	H	0.671641	0.325424	0.000062
H60	H	1.033770	0.074440	0.775644
C61	C	0.548411	-0.007120	0.000139
C62	C	0.609843	-0.073523	0.000161
C63	C	0.578371	-0.158868	0.000212
H64	H	0.519202	-0.016065	-0.048270
H65	H	0.514607	-0.011027	0.048582
H66	H	0.643633	-0.069618	-0.048277
H67	H	0.639057	-0.064607	0.048567
H68	H	0.544567	-0.162775	0.048655
H69	H	0.549162	-0.167804	-0.048198
H70	H	0.620046	-0.203932	0.000234
C71	C	0.796670	0.330129	0.395132
C72	C	0.804005	0.322267	0.481032
C73	C	0.748762	0.381925	0.524903
H74	H	0.744966	0.315859	0.380919
H75	H	0.805935	0.390208	0.380844
H76	H	0.794734	0.262201	0.495314
H77	H	0.855696	0.336544	0.495270
H78	H	0.758028	0.442004	0.510615
H79	H	0.697063	0.367650	0.510683
H80	H	0.753737	0.376604	0.583190
C81	C	1.018777	0.090746	0.395096
C82	C	1.064425	0.144848	0.445280
C83	C	1.115648	0.089829	0.489113
H84	H	1.052400	0.054551	0.356650
H85	H	0.988931	0.052928	0.429249
H86	H	1.094268	0.182650	0.411130
H87	H	1.030823	0.181041	0.483742
H88	H	1.085802	0.052010	0.523266
H89	H	1.149266	0.053636	0.450661
H90	H	1.146621	0.126528	0.523174
H91	H	0.181259	0.054834	0.000120
C92	C	0.930054	-0.557198	-0.157881
C93	C	0.934230	-0.499211	-0.224168
C94	C	0.937094	-0.549986	-0.299970
H95	H	0.883922	-0.590515	-0.161139
H96	H	0.975309	-0.597651	-0.161083
H97	H	0.888979	-0.458773	-0.220967
H98	H	0.980360	-0.465893	-0.220937
H99	H	0.982349	-0.590439	-0.303172
H100	H	0.890961	-0.583301	-0.303219
H101	H	0.939935	-0.510650	-0.344954
H102	H	0.819132	0.305816	0.224549
C103	C	0.914952	-0.541031	0.158048
C104	C	0.912794	-0.476263	0.224339
C105	C	0.908369	-0.519280	0.300138
H106	H	0.959869	-0.581175	0.161312
H107	H	0.868483	-0.573993	0.161241
H108	H	0.959258	-0.443316	0.221148
H109	H	0.867879	-0.436116	0.221104
H110	H	0.861901	-0.552242	0.303330
H111	H	0.953288	-0.559422	0.303392
H112	H	0.906898	-0.475341	0.345125
H113	H	0.523258	0.311691	0.000078
C114	C	0.304494	0.387381	0.000133
C115	C	0.243062	0.453789	0.000157
C116	C	0.274532	0.539137	0.000202
H117	H	0.338305	0.391369	-0.048278
H118	H	0.333693	0.396247	0.048574
H119	H	0.213876	0.444926	-0.048278
H120	H	0.209246	0.449830	0.048565
H121	H	0.303731	0.548003	0.048642
H122	H	0.308344	0.543115	-0.048211
H123	H	0.232856	0.584205	0.000225
H124	H	0.840525	0.282830	0.775639
C125	C	0.939266	-0.223476	-0.233393
C126	C	0.940064	-0.130126	-0.217187
C127	C	0.944550	-0.086739	-0.292790
H128	H	0.894833	-0.236793	-0.264590
H129	H	0.986215	-0.244043	-0.264470
H130	H	0.893121	-0.109566	-0.186123
H131	H	0.984495	-0.116783	-0.186002
H132	H	0.991499	-0.107306	-0.323867
H133	H	0.900116	-0.100062	-0.323981
H134	H	0.945099	-0.023397	-0.281804
C135	C	1.027426	0.081143	0.212837
C136	C	1.071343	0.033755	0.269821
C137	C	1.126706	-0.026032	0.226286
H138	H	1.061796	0.114097	0.178728
H139	H	1.000815	0.039762	0.178767
H140	H	1.097952	0.075130	0.303875
H141	H	1.036994	0.000782	0.303931
H142	H	1.100096	-0.067413	0.192217
H143	H	1.161071	0.006930	0.192179
H144	H	1.156506	-0.058198	0.264943
H145	H	0.147659	0.350424	0.000099
H146	H	0.848048	0.274685	0.617075
C147	C	0.343228	0.047439	-0.000058
C148	C	0.332323	-0.007194	-0.071506
C149	C	0.382443	-0.084931	-0.071696
H150	H	0.331370	0.015101	0.048309
H151	H	0.396489	0.064106	-0.000104
H152	H	0.279074	-0.023863	-0.071452
H153	H	0.344187	0.025115	-0.119885
H154	H	0.435704	-0.068264	-0.071743
H155	H	0.370581	-0.117261	-0.023326
H156	H	0.375056	-0.122005	-0.120176
C157	C	0.718960	0.008819	-0.000045
C158	C	0.769868	0.004758	-0.071475
C159	C	0.820142	-0.072849	-0.071615
H160	H	0.688505	-0.043105	-0.000084
H161	H	0.748998	0.010863	0.048352
H162	H	0.739833	0.002706	-0.119860
H163	H	0.800340	0.056663	-0.071451
H164	H	0.850180	-0.070805	-0.023218
H165	H	0.789680	-0.124767	-0.071652
H166	H	0.854693	-0.075610	-0.120075
C167	C	0.922721	-0.062324	0.157937
C168	C	0.855981	-0.002784	0.162350
C169	C	0.852967	0.048244	0.238019
H170	H	0.968812	-0.028932	0.161167
H171	H	0.919843	-0.101495	0.203049
H172	H	0.858865	0.036382	0.117252
H173	H	0.809879	-0.036153	0.159136
H174	H	0.850089	0.009073	0.283131
H175	H	0.899061	0.081631	0.241242
H176	H	0.807681	0.088642	0.241027
C177	C	0.916791	-0.199666	0.233627
C178	C	0.850045	-0.140136	0.238036
C179	C	0.847027	-0.089098	0.313700
H180	H	0.962878	-0.166266	0.236851
H181	H	0.913919	-0.238831	0.278743
H182	H	0.852923	-0.100975	0.192933
H183	H	0.803947	-0.173512	0.234827
H184	H	0.844155	-0.128263	0.358816
H185	H	0.893118	-0.055704	0.316917
H186	H	0.801737	-0.048706	0.316705
H187	H	0.935184	-0.406182	-0.212935
H188	H	0.914910	-0.384368	0.213124
H189	H	0.936720	-0.090262	-0.137233
H190	H	1.041295	0.066303	0.617068
