data_functionalizedCrystal
_audit_creation_method	'MofGen! by Chris Wilmer'
_symmetry_space_group_name_H-M	'P1'
_symmetry_Int_Tables_number	1
_symmetry_cell_setting	triclinic
loop_
_symmetry_equiv_pos_as_xyz
  x,y,z
_cell_length_a	12.759401
_cell_length_b	29.839131
_cell_length_c	12.759393
_cell_angle_alpha	90.037890
_cell_angle_beta	90.018567
_cell_angle_gamma	90.040464
loop_
_atom_site_label
_atom_site_type_symbol
_atom_site_fract_x
_atom_site_fract_y
_atom_site_fract_z
Zn1	Zn	1.606060	-0.178838	0.593937
Zn2	Zn	1.605873	-0.253977	0.418238
Zn3	Zn	1.430362	-0.178860	0.418276
Zn4	Zn	1.430269	-0.253941	0.593879
O5	O	1.518141	-0.216404	0.506083
O6	O	1.753056	-0.188811	0.570638
O7	O	1.582551	-0.244037	0.271222
O8	O	1.453787	-0.115990	0.441618
O9	O	1.752919	-0.244015	0.441553
O10	O	1.582871	-0.115974	0.570676
O11	O	1.453605	-0.188849	0.271250
O12	O	1.283329	-0.188814	0.441562
O13	O	1.453628	-0.243954	0.740908
O14	O	1.283260	-0.243975	0.570577
O15	O	1.582781	-0.188776	0.740951
O16	O	1.582461	-0.316839	0.441497
O17	O	1.453446	-0.316813	0.570539
C18	C	1.245174	-0.216394	0.506068
C19	C	1.128397	-0.216400	0.506087
C20	C	1.073600	-0.187709	0.573406
C21	C	0.963876	-0.187718	0.573412
C22	C	0.963756	-0.245111	0.438778
C23	C	1.073478	-0.245100	0.438767
C24	C	1.128519	-0.159009	0.640725
C25	C	1.073722	-0.130317	0.708051
C26	C	0.963998	-0.130325	0.708057
C27	C	0.909071	-0.159026	0.640739
C28	C	1.517951	-0.333127	0.506030
C29	C	1.517966	-0.383061	0.506043
C30	C	1.585441	-0.692706	0.438988
C31	C	1.585571	-0.880379	0.439029
O32	O	1.642790	-0.904644	0.381976
N33	N	1.518359	-0.903846	0.506162
C34	C	1.451114	-0.880392	0.573294
O35	O	1.393957	-0.904659	0.630403
C36	C	1.450991	-0.692720	0.573258
C37	C	1.518200	-0.669255	0.506113
C38	C	1.652646	-0.669240	0.371850
C39	C	1.652609	-0.622325	0.371836
C40	C	1.585367	-0.598875	0.438961
C41	C	1.518163	-0.622340	0.506099
C42	C	1.383752	-0.669267	0.640395
C43	C	1.383729	-0.622346	0.640382
C44	C	1.450938	-0.598881	0.573237
C45	C	1.450884	-0.551974	0.573211
N46	N	1.518096	-0.528506	0.506078
C47	C	1.585338	-0.551957	0.438953
C48	C	1.451183	-0.978923	0.573307
C49	C	1.451212	-1.025841	0.573315
C50	C	1.585670	-1.025824	0.439051
C51	C	1.585635	-0.978905	0.439038
C52	C	1.518395	-0.955456	0.506174
C53	C	1.585254	-0.453431	0.438929
C54	C	1.585208	-0.406511	0.438918
C55	C	1.450754	-0.406533	0.573186
C56	C	1.450796	-0.453448	0.573193
C57	C	1.518054	-0.476896	0.506061
O58	O	1.393703	-0.527679	0.630242
O59	O	1.642503	-0.527682	0.381869
C60	C	1.585479	-0.739621	0.439002
C61	C	1.518274	-0.763086	0.506140
C62	C	1.451033	-0.739636	0.573265
C63	C	1.518304	-0.810004	0.506148
C64	C	1.585545	-0.833454	0.439023
C65	C	1.652757	-0.809987	0.371890
C66	C	1.652720	-0.763071	0.371877
C67	C	1.383820	-0.763103	0.640398
C68	C	1.383862	-0.810019	0.640405
C69	C	1.451104	-0.833469	0.573280
C70	C	1.792174	-0.216415	0.506098
C71	C	1.908951	-0.216420	0.506104
C72	C	1.518215	-0.216359	0.780116
C73	C	1.518246	-0.216339	0.896893
C74	C	1.518360	-0.099226	0.506158
C75	C	1.518454	-0.049291	0.506190
C76	C	1.518128	-0.216417	0.233115
C77	C	1.518301	-0.216310	0.116339
C78	C	1.585505	-0.187606	0.951779
C79	C	1.585530	-0.187590	1.061503
C80	C	1.451034	-0.245044	1.061445
C81	C	1.451004	-0.245058	0.951723
C82	C	1.652747	-0.158887	0.896948
C83	C	1.720013	-0.130151	0.951834
C84	C	1.720038	-0.130135	1.061558
C85	C	1.652797	-0.158855	1.116396
H86	H	1.217862	-0.158999	0.640727
H87	H	1.396289	-0.268426	1.106103
H88	H	1.118450	-0.106947	0.762852
C89	C	0.903339	-0.276684	0.364746
H90	H	0.830144	-0.272585	0.374402
H91	H	0.921293	-0.270074	0.294179
H92	H	0.921297	-0.306876	0.380001
C93	C	1.309842	-0.737314	0.714231
H94	H	1.269817	-0.758014	0.754203
H95	H	1.349977	-0.718976	0.760045
H96	H	1.264067	-0.719048	0.673985
H97	H	1.640363	-0.959803	0.384364
H98	H	1.396220	-0.268449	0.907034
C99	C	1.652827	-0.158837	1.237091
H100	H	1.702518	-0.137612	1.261928
H101	H	1.585051	-0.151063	1.261918
H102	H	1.670955	-0.187828	1.261885
H103	H	1.640421	-1.044925	0.384395
H104	H	1.652737	-0.158898	0.807605
C105	C	1.794023	-0.098528	1.121931
H106	H	1.834068	-0.081430	1.073558
H107	H	1.753888	-0.078944	1.164748
H108	H	1.839780	-0.115714	1.164720
H109	H	0.919384	-0.106959	0.762869
C110	C	1.133759	-0.276664	0.364730
H111	H	1.085338	-0.293764	0.324652
H112	H	1.176567	-0.259454	0.319023
H113	H	1.176551	-0.296254	0.404847
C114	C	0.788377	-0.159036	0.640749
H115	H	0.763605	-0.137840	0.690488
H116	H	0.763531	-0.151237	0.572988
H117	H	0.763535	-0.188041	0.658804
C118	C	1.659146	-0.380702	0.365061
H119	H	1.699204	-0.401391	0.325096
H120	H	1.618973	-0.362432	0.319241
H121	H	1.704892	-0.362367	0.405293
C122	C	1.726552	-0.596519	0.297989
H123	H	1.766607	-0.617211	0.258028
H124	H	1.686390	-0.578247	0.252165
H125	H	1.772301	-0.578187	0.338224
C126	C	1.726612	-0.695029	0.297999
H127	H	1.766620	-0.674328	0.258014
H128	H	1.772388	-0.713302	0.338215
H129	H	1.686451	-0.713359	0.252182
C130	C	1.659229	-0.479217	0.365078
H131	H	1.699235	-0.458517	0.325089
H132	H	1.705006	-0.497488	0.405299
H133	H	1.619069	-0.497550	0.319265
C134	C	1.309931	-0.835827	0.714270
H135	H	1.319573	-0.867129	0.704670
H136	H	1.325272	-0.828103	0.784867
H137	H	1.239338	-0.828175	0.698831
C138	C	1.377276	-1.051647	0.647167
H139	H	1.337236	-1.030957	0.687147
H140	H	1.331528	-1.069983	0.606950
H141	H	1.417459	-1.069917	0.692989
H142	H	1.396425	-0.959834	0.627978
H143	H	1.707448	-0.743969	0.317201
H144	H	1.329018	-0.688365	0.695066
C145	C	1.309764	-0.596555	0.714234
H146	H	1.269742	-0.617252	0.754214
H147	H	1.349916	-0.578219	0.760039
H148	H	1.263985	-0.578286	0.674000
H149	H	1.396072	-0.472554	0.627871
C150	C	1.376799	-0.380731	0.647022
H151	H	1.386418	-0.349429	0.637401
H152	H	1.306217	-0.388452	0.631600
H153	H	1.392157	-0.388390	0.717631
C154	C	1.726720	-0.835788	0.298054
H155	H	1.717113	-0.867091	0.307690
H156	H	1.711382	-0.828132	0.227445
H157	H	1.797302	-0.828066	0.313496
H158	H	1.774751	-0.106766	0.907178
