data_functionalizedCrystal
_audit_creation_method	'MofGen! by Chris Wilmer'
_symmetry_space_group_name_H-M	'P1'
_symmetry_Int_Tables_number	1
_symmetry_cell_setting	triclinic
loop_
_symmetry_equiv_pos_as_xyz
  x,y,z
_cell_length_a	9.065218
_cell_length_b	19.288865
_cell_length_c	17.766277
_cell_angle_alpha	89.993249
_cell_angle_beta	90.006716
_cell_angle_gamma	95.923934
loop_
_atom_site_label
_atom_site_type_symbol
_atom_site_fract_x
_atom_site_fract_y
_atom_site_fract_z
O1	O	1.956839	-0.101837	0.062606
O2	O	1.527262	-0.110191	0.062608
O3	O	1.754463	-0.004980	0.062592
O4	O	1.729638	-0.207048	0.062622
O5	O	1.754433	-0.004984	-0.062596
O6	O	1.527231	-0.110194	-0.062580
O7	O	1.956809	-0.101841	-0.062582
Cu8	Cu	1.742017	-0.106018	-0.074012
Cu9	Cu	1.742053	-0.106014	0.074038
O10	O	1.729607	-0.207052	-0.062566
C11	C	1.472288	-0.109390	0.000014
C12	C	1.308529	-0.106989	0.000014
N13	N	1.742003	-0.106021	-0.178142
C14	C	1.753649	0.020901	-0.000004
C15	C	1.751251	0.098023	-0.000011
C16	C	2.011782	-0.102642	0.000014
C17	C	2.175541	-0.105043	0.000019
C18	C	1.730421	-0.232933	0.000032
C19	C	1.732819	-0.310055	0.000043
C20	C	1.884563	0.141684	-0.000015
C21	C	1.882310	0.214149	-0.000003
C22	C	1.746738	0.242949	-0.000002
C23	C	1.613409	0.199278	0.000006
C24	C	1.615666	0.126815	0.000002
C25	C	1.640152	0.352062	-0.043852
C26	C	1.637901	0.424524	-0.043853
C27	C	1.739773	0.466448	0.000015
C28	C	1.843920	0.435903	0.043873
C29	C	1.846177	0.363440	0.043868
C30	C	1.744276	0.321522	0.000003
C31	C	1.870651	0.588685	0.000025
C32	C	1.868392	0.661150	0.000041
C33	C	1.599488	0.646278	0.000043
C34	C	1.601750	0.573814	0.000034
C35	C	1.737335	0.545022	0.000021
C36	C	1.831267	-0.148712	-0.782424
C37	C	1.831252	-0.148719	-0.703622
C38	C	1.742067	-0.106006	-0.664231
C39	C	1.652861	-0.063297	-0.703648
C40	C	1.652868	-0.063297	-0.782449
C41	C	1.738400	-0.043353	-0.539396
C42	C	1.738405	-0.043352	-0.460597
C43	C	1.742040	-0.106008	-0.421185
C44	C	1.745701	-0.168665	-0.460581
C45	C	1.745707	-0.168665	-0.539381
C46	C	1.742050	-0.106002	-0.578785
C47	C	1.831216	-0.148725	-0.296331
C48	C	1.831191	-0.148733	-0.217528
C49	C	1.652809	-0.063305	-0.217555
C50	C	1.652825	-0.063303	-0.296357
C51	C	1.742037	-0.106012	-0.335740
N52	N	1.742079	-0.106006	0.178168
H53	H	1.994967	0.118247	-0.000023
C54	C	1.523338	0.458117	-0.092097
N55	N	1.437043	0.483417	-0.128435
H56	H	1.748684	-0.219684	-0.571454
H57	H	1.489102	0.669726	0.000048
C58	C	1.955983	0.482014	0.092134
N59	N	2.040386	0.516748	0.128483
C60	C	1.929311	-0.195715	-0.174180
N61	N	2.003220	-0.231102	-0.141529
H62	H	1.903908	-0.183490	-0.814485
C63	C	1.929378	-0.195697	-0.660265
N64	N	2.003290	-0.231080	-0.627611
H65	H	1.507104	0.091265	0.000005
H66	H	1.580237	-0.028519	-0.814534
H67	H	1.748661	-0.219686	-0.428493
H68	H	1.981053	0.565241	0.000017
H69	H	1.930974	0.338573	0.079581
H70	H	1.735427	0.007671	-0.571480
H71	H	1.580183	-0.028531	-0.185484
C72	C	1.554886	-0.016254	-0.660316
N73	N	1.481132	0.019201	-0.627679
H74	H	1.990872	0.249704	-0.000004
C75	C	2.015054	0.709178	0.000032
N76	N	2.125522	0.745354	0.000022
C77	C	1.528084	0.305953	-0.092117
N78	N	1.443678	0.271224	-0.128470
H79	H	1.503025	0.222732	0.000009
C80	C	1.929344	-0.195707	-0.339655
N81	N	2.003256	-0.231095	-0.372285
H82	H	1.493193	0.538264	0.000033
H83	H	1.580206	-0.028524	-0.328443
H84	H	1.735434	0.007668	-0.428527
