data_functionalizedCrystal
_audit_creation_method	'MofGen! by Chris Wilmer'
_symmetry_space_group_name_H-M	'P1'
_symmetry_Int_Tables_number	1
_symmetry_cell_setting	triclinic
loop_
_symmetry_equiv_pos_as_xyz
  x,y,z
_cell_length_a	10.540510
_cell_length_b	9.016244
_cell_length_c	14.971486
_cell_angle_alpha	89.997556
_cell_angle_beta	95.936280
_cell_angle_gamma	90.007604
loop_
_atom_site_label
_atom_site_type_symbol
_atom_site_fract_x
_atom_site_fract_y
_atom_site_fract_z
O1	O	1.684486	0.123350	-0.125923
O2	O	1.314933	0.123351	-0.137827
O3	O	1.509615	0.123340	-0.001730
O4	O	1.489805	0.123362	-0.262020
O5	O	1.509586	-0.123340	-0.001733
O6	O	1.314905	-0.123329	-0.137830
O7	O	1.684458	-0.123330	-0.125926
Cu8	Cu	1.499678	-0.145854	-0.131878
Cu9	Cu	1.499712	0.145875	-0.131875
O10	O	1.489776	-0.123319	-0.262023
C11	C	1.267625	0.000011	-0.136942
C12	C	1.126706	0.000011	-0.134288
C13	C	0.908177	0.000586	-0.228834
C14	C	1.054741	0.000021	-0.231665
C15	C	1.082495	-0.140856	-0.084442
C16	C	0.935758	-0.140965	-0.082300
C17	C	0.936008	0.139557	-0.080269
C18	C	1.082297	0.141410	-0.084888
N19	N	1.499664	-0.351040	-0.131880
C20	C	1.395208	-0.586067	-0.204439
C21	C	1.395434	-0.414175	-0.204711
C22	C	1.632148	-0.413377	-0.153103
C23	C	1.631576	-0.585321	-0.153616
C24	C	1.472957	-0.585591	-0.037862
C25	C	1.469905	-0.413637	-0.038471
C26	C	1.731765	0.000013	-0.126812
C27	C	1.872685	0.000023	-0.129466
C28	C	1.508714	0.000000	0.031598
C29	C	1.506059	0.000002	0.130910
N30	N	1.499737	0.351061	-0.131866
C31	C	1.490676	0.000024	-0.295351
C32	C	1.493331	0.000032	-0.394663
C33	C	1.620430	0.000000	0.187499
C34	C	1.617927	0.000015	0.280813
C35	C	1.501054	0.000021	0.317535
C36	C	1.386675	0.000027	0.260938
C37	C	1.389179	0.000022	0.167626
C38	C	1.381465	0.000032	0.455429
C39	C	1.378961	0.000034	0.548747
C40	C	1.610214	0.000025	0.568616
C41	C	1.612718	0.000021	0.475304
C42	C	1.498338	0.000024	0.418714
H43	H	1.130698	-0.146101	-0.012754
H44	H	1.291514	0.000041	0.290844
H45	H	1.715601	-0.000013	0.157608
Cl46	Cl	0.901523	-0.150942	0.030141
Cl47	Cl	1.755168	-0.649536	-0.075091
Cl48	Cl	1.242682	-0.649940	-0.185019
H49	H	1.412088	-0.629254	-0.273787
H50	H	1.372448	-0.372896	-0.022385
H51	H	1.288325	0.000039	0.409355
Cl52	Cl	1.245393	0.000030	0.096484
H53	H	1.283793	0.000015	0.578643
H54	H	1.083656	0.101004	-0.270661
H55	H	0.865805	0.101610	-0.266770
H56	H	1.711788	-0.372476	-0.101686
Cl57	Cl	0.873045	-0.303527	-0.134902
Cl58	Cl	0.840327	-0.154490	-0.287076
Cl59	Cl	1.421797	-0.350628	-0.312399
H60	H	1.711059	0.000011	0.326885
Cl61	Cl	1.097899	-0.156144	-0.292234
H62	H	0.893123	0.246327	-0.110976
Cl63	Cl	1.129500	-0.302707	-0.137890
H64	H	1.110515	0.245623	-0.121155
Cl65	Cl	1.759646	0.000021	0.429141
H66	H	1.132172	0.149911	-0.013795
Cl67	Cl	0.903093	0.141015	0.032609
Cl68	Cl	1.669406	-0.346865	-0.257792
Cl69	Cl	1.754005	0.000029	0.639757
H70	H	1.296961	-0.372032	-0.191943
H71	H	1.655153	-0.625405	-0.222199
Cl72	Cl	1.579799	-0.347316	0.048916
Cl73	Cl	1.327015	-0.652620	-0.006691
H74	H	1.549183	-0.626248	0.016155
