data_functionalizedCrystal
_audit_creation_method	'MofGen! by Chris Wilmer'
_symmetry_space_group_name_H-M	'P1'
_symmetry_Int_Tables_number	1
_symmetry_cell_setting	triclinic
loop_
_symmetry_equiv_pos_as_xyz
  x,y,z
_cell_length_a	15.698487
_cell_length_b	17.052862
_cell_length_c	17.052862
_cell_angle_alpha	118.506848
_cell_angle_beta	90.001345
_cell_angle_gamma	70.264957
loop_
_atom_site_label
_atom_site_type_symbol
_atom_site_fract_x
_atom_site_fract_y
_atom_site_fract_z
Zr1	Zr	0.987250	0.816703	0.200479
O2	O	0.893180	0.944595	0.328605
O3	O	0.995376	0.665981	0.146288
O4	O	1.041023	0.783785	0.307101
O5	O	0.835086	0.860718	0.057903
O6	O	1.181205	0.783788	0.307103
O7	O	0.847532	0.826791	0.167791
O8	O	1.099550	0.573058	0.019437
O9	O	0.916740	1.071448	0.345569
O10	O	1.128481	0.736432	0.141196
O11	O	1.014576	0.761749	0.059186
O12	O	1.068320	0.900448	0.248523
O13	O	0.954415	0.925765	0.166513
Zr14	Zr	1.190973	0.870816	0.025224
Zr15	Zr	1.210824	0.816707	0.200482
Zr16	Zr	0.967399	0.870812	0.025220
Zr17	Zr	1.024826	1.019017	0.227535
Zr18	Zr	1.153397	0.668501	-0.001833
O19	O	1.182847	1.021537	0.079414
O20	O	1.211073	0.944601	0.328610
O21	O	0.864954	1.021531	0.079410
O22	O	1.285043	0.742923	-0.102903
O23	O	1.313269	0.665987	0.146293
O24	O	0.967150	0.742917	-0.102907
O25	O	1.343137	0.826800	0.167799
O26	O	1.137200	0.903733	-0.081399
O27	O	0.997018	0.903731	-0.081401
O28	O	1.330690	0.860727	0.057911
O29	O	1.094452	1.071451	0.345572
O30	O	1.083771	0.616067	-0.119870
O31	O	1.261483	0.616071	-0.119867
O32	O	1.277262	0.573061	0.019440
O33	O	0.900961	1.114457	0.206262
O34	O	1.078673	1.114460	0.206265
O35	O	1.109903	0.787070	-0.022821
O36	O	1.223808	0.761753	0.059189
O37	O	1.163647	0.925769	0.166516
O38	O	1.049742	0.951086	0.084507
C39	C	1.042109	0.590694	0.079008
C40	C	1.026157	0.504806	0.067522
C41	C	0.809455	0.843754	0.112847
C42	C	0.714542	0.843752	0.112846
C43	C	1.219019	0.209845	0.206389
C44	C	1.234005	0.290544	0.217187
C45	C	1.182045	0.344113	0.179772
C46	C	1.115095	0.316976	0.131557
C47	C	1.100102	0.236274	0.120764
C48	C	1.063128	0.370542	0.094146
C49	C	0.996178	0.343405	0.045931
C50	C	0.981189	0.262710	0.035139
C51	C	1.033149	0.209141	0.072555
C52	C	1.078121	0.451244	0.104939
C53	C	0.959204	0.477673	0.019313
C54	C	0.944218	0.396974	0.008515
C55	C	0.540761	0.843769	0.112856
C56	C	0.637463	0.843764	0.112853
C57	C	1.368768	0.843764	0.112855
C58	C	1.463681	0.843766	0.112857
C59	C	1.113942	0.776077	0.332073
C60	C	1.122369	0.753106	0.406475
C61	C	1.136114	1.096824	0.146695
C62	C	1.152066	1.182712	0.158181
C63	C	1.020496	1.030823	0.840302
C64	C	1.012573	1.052408	0.770400
C65	C	1.040021	0.977585	0.679416
C66	C	1.075394	0.881172	0.658340
C67	C	1.083312	0.859584	0.728249
C68	C	1.102837	0.806346	0.567363
C69	C	1.138210	0.709934	0.546286
C70	C	1.146127	0.688351	0.616190
C71	C	1.118678	0.763174	0.707174
C72	C	1.094920	0.827934	0.497453
C73	C	1.157736	0.656696	0.385400
C74	C	1.165659	0.635110	0.455302
C75	C	1.064283	0.911441	0.893629
C76	C	1.055862	0.934412	0.819227
C77	C	1.321766	0.590699	0.079012
C78	C	1.400727	0.504813	0.067527
C79	C	1.017279	0.658376	-0.140214
C80	C	0.992899	0.595459	-0.226102
C81	C	1.296935	0.658381	-0.140210
C82	C	1.367469	0.595466	-0.226097
C83	C	0.881288	1.029137	0.365912
C84	C	0.810754	1.092053	0.451799
C85	C	0.856457	1.096819	0.146690
C86	C	0.777496	1.182705	0.158175
C87	C	1.160944	1.029142	0.365916
C88	C	1.185324	1.092059	0.451805
C89	C	1.388049	0.451260	0.104948
C90	C	1.462236	0.370567	0.094174
C91	C	1.549100	0.343424	0.045975
C92	C	1.561777	0.396985	0.008554
C93	C	1.487592	0.477681	0.019333
C94	C	1.031209	0.579132	-0.309250
C95	C	1.008300	0.520028	-0.389956
C96	C	0.947085	0.477246	-0.387513
C97	C	0.908770	0.493579	-0.304356
C98	C	0.931675	0.552687	-0.223651
C99	C	1.460059	0.552705	-0.223622
C100	C	1.526344	0.493598	-0.304313
C101	C	1.500036	0.477248	-0.387479
C102	C	1.407438	0.520017	-0.389951
C103	C	1.341155	0.579128	-0.309260
C104	C	0.718166	1.134823	0.449325
C105	C	0.651885	1.193955	0.530020
C106	C	0.678194	1.210309	0.613187
C107	C	0.770792	1.167535	0.615658
C108	C	0.837071	1.108410	0.534965
C109	C	0.790177	1.236264	0.120763
C110	C	0.715995	1.316974	0.131559
C111	C	0.629133	1.344119	0.179761
C112	C	0.616454	1.290555	0.217178
C113	C	0.690636	1.209851	0.206388
C114	C	1.246542	1.134823	0.449332
C115	C	1.269466	1.193932	0.530025
C116	C	1.231167	1.210281	0.613190
C117	C	1.169946	1.167510	0.615660
C118	C	1.147027	1.108396	0.534967
H119	H	1.132632	0.473332	0.144196
H120	H	0.860897	1.214172	0.081507
H121	H	1.194251	0.409821	0.188566
O122	O	1.287870	1.117193	0.359641
H123	H	1.231785	1.143155	0.327810
O124	O	0.922399	0.413475	-0.474565
H125	H	0.959340	0.409302	-0.532791
O126	O	1.626217	0.447510	-0.301624
H127	H	1.667901	0.403682	-0.371698
O128	O	1.335494	1.240062	0.527352
H129	H	1.358259	1.218771	0.455965
O130	O	1.571529	0.413476	-0.474510
H131	H	1.624383	0.444432	-0.470314
O132	O	0.842774	0.447403	-0.301730
H133	H	0.833308	0.403542	-0.371825
O134	O	1.097236	0.625266	-0.311905
H135	H	1.106743	0.669107	-0.241823
H136	H	1.451896	0.326966	0.124649
H137	H	0.792203	1.180859	0.683382
O138	O	1.203811	0.531121	0.432564
H139	H	1.151177	0.517180	0.461721
O140	O	0.606705	1.274092	0.700220
H141	H	0.537904	1.301081	0.684519
H142	H	1.317329	0.473354	0.144207
H143	H	1.481496	0.566006	-0.155912
O144	O	1.049645	0.502401	-0.479643
H145	H	1.096074	0.542064	-0.467777
O146	O	0.974419	1.156389	0.793134
H147	H	1.027046	1.170328	0.763964
H148	H	0.916892	0.521291	-0.011151
H149	H	0.912460	1.073584	0.536989
H150	H	1.609498	0.277714	0.037204
H151	H	1.497926	0.521276	-0.011146
O152	O	1.255877	1.274053	0.700223
H153	H	1.304872	1.301050	0.684524
H154	H	1.138768	1.180830	0.683384
H155	H	0.568737	1.409835	0.188541
H156	H	1.097176	1.073583	0.536993
O157	O	0.890491	0.570143	-0.133990
H158	H	0.844134	0.530401	-0.145868
H159	H	1.386030	0.506696	-0.457676
H160	H	1.174921	0.609845	0.599023
O161	O	0.990904	1.111519	0.938427
H162	H	1.002362	1.080308	0.983493
O163	O	0.729677	1.374724	0.091181
H164	H	0.782629	1.403832	0.120817
O165	O	1.306208	0.319816	0.269187
H166	H	1.339826	0.269007	0.293385
H167	H	1.265764	0.613937	-0.311288
O168	O	0.552016	1.240078	0.527344
H169	H	0.509269	1.215401	0.555088
H170	H	0.680298	1.166245	0.236852
O171	O	1.275046	0.152082	0.246755
H172	H	1.253371	0.091411	0.231150
O173	O	1.016976	0.122104	0.060913
H174	H	1.064354	0.089419	0.095033
O175	O	0.522765	1.319837	0.269168
H176	H	0.473319	1.384948	0.270372
H177	H	0.926667	0.240624	-0.004112
O178	O	0.872000	0.367711	-0.043477
H179	H	0.870303	0.302602	-0.044687
H180	H	1.632511	0.374873	-0.030690
H181	H	1.066117	0.906434	0.514623
O182	O	0.689781	1.117198	0.359630
H183	H	0.614262	1.156890	0.371483
H184	H	1.180083	0.595768	0.311317
H185	H	1.125129	0.745605	0.764099
O186	O	1.031363	1.000858	0.604016
H187	H	1.002118	1.080469	0.633956
