data_functionalizedCrystal
_audit_creation_method	'MofGen! by Chris Wilmer'
_symmetry_space_group_name_H-M	'P1'
_symmetry_Int_Tables_number	1
_symmetry_cell_setting	triclinic
loop_
_symmetry_equiv_pos_as_xyz
  x,y,z
_cell_length_a	20.875641
_cell_length_b	20.875641
_cell_length_c	20.875641
_cell_angle_alpha	60.089808
_cell_angle_beta	90.154292
_cell_angle_gamma	60.088404
loop_
_atom_site_label
_atom_site_type_symbol
_atom_site_fract_x
_atom_site_fract_y
_atom_site_fract_z
Zr1	Zr	0.669192	0.647095	-0.080423
O2	O	0.572011	0.780198	-0.187368
O3	O	0.695347	0.513993	-0.044500
O4	O	0.705113	0.637327	-0.177603
O5	O	0.558678	0.664569	0.047158
O6	O	0.814243	0.629621	-0.173469
O7	O	0.562245	0.656864	-0.054266
O8	O	0.796773	0.409000	0.064627
O9	O	0.576147	0.885191	-0.190937
O10	O	0.792337	0.562989	-0.029886
O11	O	0.708233	0.574490	0.042721
O12	O	0.719731	0.719700	-0.113990
O13	O	0.635627	0.731201	-0.041383
Zr14	Zr	0.837552	0.647095	0.087930
Zr15	Zr	0.843241	0.634806	-0.073830
Zr16	Zr	0.663503	0.659384	0.081337
Zr17	Zr	0.675789	0.814547	-0.086115
Zr18	Zr	0.830955	0.479643	0.093622
O19	O	0.811396	0.780197	0.052007
O20	O	0.819486	0.762723	-0.177994
O21	O	0.563921	0.797671	0.042633
O22	O	0.934733	0.513993	0.194875
O23	O	0.942822	0.496519	-0.035126
O24	O	0.687257	0.531467	0.185501
O25	O	0.948066	0.629621	-0.039651
O26	O	0.801630	0.656863	0.185110
O27	O	0.692501	0.664569	0.180976
O28	O	0.944499	0.637326	0.061773
O29	O	0.714493	0.875422	-0.185697
O30	O	0.792251	0.418768	0.193204
O31	O	0.930596	0.408999	0.198444
O32	O	0.935119	0.399231	0.069867
O33	O	0.571625	0.894959	-0.062360
O34	O	0.709970	0.885190	-0.057120
O35	O	0.787013	0.574490	0.121497
O36	O	0.871117	0.562989	0.048890
O37	O	0.798511	0.719700	-0.035214
O38	O	0.714406	0.731201	0.037393
C39	C	0.745120	0.437638	0.010874
C40	C	0.742320	0.366551	0.013291
C41	C	0.784904	0.327150	-0.023474
C42	C	0.782274	0.260351	-0.021196
C43	C	0.737056	0.232959	0.017843
C44	C	0.694471	0.272362	0.054612
C45	C	0.697105	0.339155	0.052338
C46	C	0.724473	0.033836	0.028712
C47	C	0.721840	-0.032960	0.030981
C48	C	0.809645	-0.044968	-0.044826
C49	C	0.812272	0.021831	-0.047101
C50	C	0.769690	0.061225	-0.010328
N51	N	0.734365	0.164682	0.020170
N52	N	0.772386	0.129496	-0.012651
C53	C	0.535663	0.662467	-0.004493
C54	C	0.461775	0.667685	-0.007292
C55	C	0.464960	0.588336	0.035291
C56	C	0.395531	0.593244	0.032659
C57	C	0.322919	0.677500	-0.012560
C58	C	0.319736	0.756855	-0.055144
C59	C	0.389163	0.751947	-0.052507
C60	C	0.111213	0.700952	-0.025149
C61	C	0.041784	0.705854	-0.027784
C62	C	0.117584	0.542242	0.060021
C63	C	0.187010	0.537341	0.062649
C64	C	0.183821	0.616696	0.020069
N65	N	0.251951	0.682519	-0.015253
N66	N	0.254788	0.611677	0.022767
C67	C	0.971081	0.631723	0.012000
C68	C	1.044969	0.626505	0.014799
C69	C	0.760489	0.631723	-0.198583
C70	C	0.762904	0.626506	-0.267254
C71	C	0.761623	0.856552	-0.003367
C72	C	0.764424	0.927640	-0.005784
C73	C	0.726140	0.705854	-0.343417
C74	C	0.728420	0.700947	-0.407938
C75	C	0.767459	0.616690	-0.396294
C76	C	0.804228	0.537336	-0.320123
C77	C	0.801952	0.542244	-0.255604
C78	C	0.778333	0.593238	-0.584548
C79	C	0.780603	0.588336	-0.649076
C80	C	0.704797	0.751947	-0.736886
C81	C	0.702521	0.756848	-0.672362
C82	C	0.739293	0.677494	-0.596197
N83	N	0.769788	0.611671	-0.462244
N84	N	0.736968	0.682513	-0.530249
C85	C	0.746255	0.662467	0.206090
C86	C	0.743840	0.667684	0.274761
C87	C	0.962829	0.422266	0.019121
C88	C	1.033917	0.345961	0.024336
C89	C	0.738004	0.453010	0.213211
C90	C	0.732788	0.387139	0.284299
C91	C	0.955712	0.437638	0.221457
C92	C	1.024385	0.366550	0.295344
C93	C	0.551031	0.856552	-0.213950
C94	C	0.482359	0.927640	-0.287837
C95	C	0.543915	0.871924	-0.011614
C96	C	0.472827	0.948229	-0.016829
C97	C	0.768740	0.841180	-0.205704
C98	C	0.773956	0.907051	-0.276792
C99	C	1.026179	0.310127	-0.014342
C100	C	1.092967	0.238439	-0.009457
C101	C	1.167494	0.202582	0.034111
C102	C	1.175231	0.238423	0.072790
C103	C	1.108443	0.310114	0.067900
C104	C	0.771460	0.356206	0.358810
C105	C	0.766557	0.294324	0.425610
C106	C	0.722984	0.263371	0.417898
C107	C	0.684307	0.294310	0.343379
C108	C	0.689207	0.356196	0.276580
C109	C	1.100543	0.327162	0.292142
C110	C	1.165075	0.260376	0.361560
C111	C	1.153448	0.232974	0.434179
C112	C	1.077281	0.272368	0.437379
C113	C	1.012751	0.339158	0.367962
C114	C	0.406201	0.967036	-0.284635
C115	C	0.341669	1.033843	-0.354054
C116	C	0.353297	1.061249	-0.426674
C117	C	0.429463	1.021850	-0.429873
C118	C	0.493993	0.955049	-0.360455
C119	C	0.480566	0.984070	0.021842
C120	C	0.413778	1.055775	0.016939
C121	C	0.339252	1.091634	-0.026631
C122	C	0.331515	1.055790	-0.065307
C123	C	0.398302	0.984091	-0.060408
C124	C	0.817535	0.937984	-0.269054
C125	C	0.822451	0.999867	-0.335842
C126	C	0.783783	1.030820	-0.410366
C127	C	0.740203	0.999881	-0.418102
C128	C	0.735292	0.937994	-0.351315
H129	H	0.844314	-0.077050	-0.074764
F130	F	0.260615	1.075761	-0.350632
F131	F	0.264287	0.447664	0.110778
H132	H	0.950741	0.371220	0.370579
F133	F	-0.035498	0.795535	-0.075921
F134	F	0.688901	0.905086	-0.359562
F135	F	0.717777	0.197505	0.488999
F136	F	1.116690	0.348239	0.109074
F137	F	1.246130	0.218458	0.358138
F138	F	0.807727	0.261404	0.504911
F139	F	0.637937	0.261358	0.335184
F140	F	0.398926	0.508791	0.077988
H141	H	0.300746	1.115643	-0.483192
F142	F	1.084716	0.200305	-0.050625
F143	F	0.441827	1.051025	-0.507167
H144	H	0.270827	1.084998	-0.100782
H145	H	0.396718	0.944727	-0.225512
F146	F	0.559876	0.945921	0.068215
H147	H	0.120171	0.477636	0.094688
H148	H	0.689803	0.065900	0.058658
H149	H	0.420093	1.084947	0.048437
F150	F	0.648047	0.389107	0.197282
F151	F	0.822157	0.498654	-0.636677
F152	F	0.575045	0.913122	-0.363874
H153	H	0.698485	0.765560	-0.469952
F154	F	0.390053	0.945949	-0.101566
F155	F	0.268178	1.167943	-0.031838
F156	F	1.064918	0.243195	0.514673
H157	H	1.110026	0.349462	0.233019
F158	F	0.858695	0.905052	-0.189746
H159	H	1.205999	0.178588	0.490698
F160	F	1.238569	0.126280	0.039309
H161	H	0.857937	1.025052	-0.329528
H162	H	0.787788	1.081213	-0.464742
F163	F	0.817841	0.389135	0.367035
H164	H	0.708721	1.025093	-0.478788
F165	F	0.665665	0.836396	-0.817948
H166	H	0.816950	0.228271	-0.051132
F167	F	0.860395	0.050983	-0.088655
F168	F	0.673708	-0.062109	0.072531
F169	F	0.646356	0.243197	0.096171
F170	F	0.833028	0.356301	-0.065029
F171	F	0.107810	0.785408	-0.070469
F172	F	0.684587	0.795533	-0.355819
F173	F	0.542236	0.498658	0.083415
F174	F	0.651783	0.381087	0.091470
H175	H	0.260609	0.825459	-0.091958
H176	H	0.386565	0.816561	-0.087173
F177	F	0.660940	0.846528	-0.684763
H178	H	0.808275	0.528622	-0.522540
F179	F	0.845778	0.447663	-0.307732
H180	H	0.831889	0.477630	-0.193588
H181	H	1.235919	0.209217	0.108262
F182	F	0.946869	0.348278	-0.060717
