data_functionalizedCrystal
_audit_creation_method	'MofGen! by Chris Wilmer'
_symmetry_space_group_name_H-M	'P1'
_symmetry_Int_Tables_number	1
_symmetry_cell_setting	triclinic
loop_
_symmetry_equiv_pos_as_xyz
  x,y,z
_cell_length_a	18.215407
_cell_length_b	19.121063
_cell_length_c	18.215399
_cell_angle_alpha	92.409843
_cell_angle_beta	89.980167
_cell_angle_gamma	92.469446
loop_
_atom_site_label
_atom_site_type_symbol
_atom_site_fract_x
_atom_site_fract_y
_atom_site_fract_z
Zn1	Zn	1.112559	-0.279613	-0.428596
Zn2	Zn	1.107212	-0.397068	-0.310772
Zn3	Zn	0.989491	-0.279636	-0.305544
Zn4	Zn	0.984203	-0.397029	-0.433795
O5	O	1.048366	-0.338336	-0.369677
O6	O	1.214834	-0.295200	-0.412978
O7	O	1.091570	-0.381516	-0.207095
O8	O	1.010267	-0.181348	-0.317504
O9	O	1.210905	-0.381494	-0.326414
O10	O	1.100685	-0.181331	-0.407909
O11	O	1.005081	-0.295240	-0.203255
O12	O	0.885805	-0.295202	-0.322545
O13	O	1.001255	-0.381427	-0.536089
O14	O	0.881921	-0.381450	-0.416771
O15	O	1.095558	-0.295162	-0.532269
O16	O	1.086443	-0.495348	-0.331455
O17	O	0.996070	-0.495319	-0.421840
C18	C	0.857160	-0.338324	-0.369655
C19	C	0.775361	-0.338336	-0.369664
C20	C	0.585160	-0.383316	-0.418671
C21	C	0.508302	-0.383318	-0.418681
C22	C	0.512323	-0.293369	-0.320699
C23	C	0.589181	-0.293364	-0.320694
C24	C	0.625597	-0.338342	-0.369679
C25	C	0.471881	-0.338349	-0.369694
C26	C	0.388547	-0.338351	-0.369703
C27	C	0.708936	-0.338339	-0.369671
C28	C	1.040122	-0.520817	-0.377795
C29	C	1.036663	-0.598883	-0.381293
C30	C	1.082127	-0.635551	-0.335916
C31	C	1.078878	-0.708902	-0.339210
C32	C	1.030161	-0.745585	-0.387877
C33	C	0.984695	-0.708912	-0.433258
C34	C	0.987948	-0.635562	-0.429968
C35	C	1.017985	-0.967055	-0.400168
C36	C	1.014733	-1.040410	-0.403454
C37	C	1.108918	-1.040394	-0.309406
C38	C	1.112164	-0.967043	-0.306117
C39	C	1.066701	-0.930377	-0.351501
C40	C	1.026837	-0.820561	-0.391243
C41	C	1.070029	-0.855401	-0.348138
C42	C	1.240319	-0.338349	-0.369699
C43	C	1.322117	-0.338354	-0.369709
C44	C	1.048413	-0.338288	-0.561628
C45	C	1.048433	-0.338267	-0.643426
C46	C	1.056662	-0.155143	-0.361543
C47	C	1.060197	-0.077077	-0.358077
C48	C	1.097555	-0.293307	-0.829630
C49	C	1.097565	-0.293287	-0.906488
C50	C	0.999368	-0.383119	-0.910455
C51	C	0.999355	-0.383135	-0.833598
C52	C	1.048453	-0.338231	-0.793188
C53	C	1.048476	-0.338194	-0.946902
C54	C	1.048486	-0.338172	-1.030235
C55	C	1.048442	-0.338251	-0.709850
C56	C	1.048364	-0.338334	-0.178471
C57	C	1.048495	-0.338157	-0.096664
H58	H	1.121795	-0.605688	-0.296283
O59	O	1.153059	-1.076121	-0.265407
C60	C	1.139734	-1.148727	-0.278733
H61	H	1.115147	-1.158727	-0.335950
H62	H	1.193630	-1.176560	-0.275051
H63	H	1.099651	-1.169607	-0.235976
H64	H	1.115899	-0.738753	-0.302259
H65	H	1.151834	-0.937177	-0.266488
H66	H	1.137532	-0.256741	-0.796730
O67	O	0.951714	-0.426839	-0.949635
C68	C	0.964640	-0.496845	-0.933975
H69	H	0.992853	-0.498312	-0.878241
H70	H	0.910102	-0.528338	-0.932734
H71	H	1.001415	-0.520492	-0.978286
H72	H	0.614808	-0.419938	-0.458560
O73	O	0.477024	-0.249720	-0.273013
C74	C	0.495071	-0.264991	-0.200317
H75	H	0.549657	-0.291983	-0.199942
H76	H	0.499974	-0.214263	-0.165145
H77	H	0.450177	-0.301076	-0.177078
O78	O	0.967491	-1.076016	-0.450838
C79	C	0.984325	-1.058025	-0.523394
H80	H	1.044010	-1.037808	-0.526253
H81	H	0.975833	-1.106248	-0.561904
H82	H	0.946743	-1.015471	-0.540695
H83	H	0.475381	-0.419940	-0.458576
H84	H	0.622106	-0.256736	-0.280798
H85	H	0.980966	-0.937207	-0.437120
O86	O	0.951756	-0.426812	-0.798113
C87	C	0.991597	-0.472195	-0.755689
H88	H	1.048488	-0.447428	-0.743091
H89	H	0.961188	-0.481615	-0.702053
H90	H	0.997331	-0.524240	-0.787617
H91	H	0.945031	-0.738785	-0.472887
H92	H	0.950927	-0.605708	-0.466919
O93	O	1.117310	-0.819848	-0.300764
C94	C	1.100453	-0.837815	-0.228206
H95	H	1.069806	-0.891098	-0.229043
H96	H	1.153472	-0.840297	-0.195361
H97	H	1.064453	-0.796581	-0.201543
H98	H	1.137548	-0.256705	-0.936156
O99	O	0.979608	-0.856275	-0.438551
C100	C	1.019603	-0.898625	-0.488033
H101	H	1.074908	-0.909578	-0.462624
H102	H	0.987339	-0.950227	-0.500175
H103	H	1.028905	-0.870318	-0.541312
