data_functionalizedCrystal
_audit_creation_method	'MofGen! by Chris Wilmer'
_symmetry_space_group_name_H-M	'P1'
_symmetry_Int_Tables_number	1
_symmetry_cell_setting	triclinic
loop_
_symmetry_equiv_pos_as_xyz
  x,y,z
_cell_length_a	29.839135
_cell_length_b	29.839131
_cell_length_c	12.645323
_cell_angle_alpha	90.032712
_cell_angle_beta	90.025719
_cell_angle_gamma	90.043950
loop_
_atom_site_label
_atom_site_type_symbol
_atom_site_fract_x
_atom_site_fract_y
_atom_site_fract_z
Zn1	Zn	0.686765	-0.178819	0.599475
Zn2	Zn	0.686684	-0.253951	0.422190
Zn3	Zn	0.611634	-0.178839	0.422209
Zn4	Zn	0.611596	-0.253926	0.599396
O5	O	0.649170	-0.216384	0.510818
O6	O	0.749621	-0.188788	0.575982
O7	O	0.676711	-0.244006	0.273845
O8	O	0.621651	-0.115970	0.445765
O9	O	0.749562	-0.243987	0.445732
O10	O	0.676849	-0.115955	0.576001
O11	O	0.621572	-0.188822	0.273860
O12	O	0.548762	-0.188798	0.445689
O13	O	0.621585	-0.243945	0.747754
O14	O	0.548734	-0.243964	0.575867
O15	O	0.676811	-0.188764	0.747812
O16	O	0.676673	-0.316815	0.445656
O17	O	0.621506	-0.316797	0.575849
C18	C	0.532447	-0.216381	0.510772
C19	C	0.482513	-0.216390	0.510778
C20	C	0.649089	-0.333107	0.510765
C21	C	0.649095	-0.383041	0.510778
C22	C	0.172897	-0.187686	0.578739
C23	C	-0.014776	-0.187689	0.578769
O24	O	-0.039017	-0.163273	0.636501
N25	N	-0.038272	-0.216385	0.510857
C26	C	-0.014848	-0.245080	0.442927
O27	O	-0.039140	-0.269484	0.385156
C28	C	0.172824	-0.245074	0.442892
C29	C	0.196319	-0.216379	0.510817
C30	C	0.196392	-0.158993	0.646657
C31	C	0.243307	-0.158994	0.646653
C32	C	0.266728	-0.187688	0.578730
C33	C	0.243234	-0.216381	0.510812
C34	C	0.196248	-0.273767	0.374958
C35	C	0.243169	-0.273762	0.374954
C36	C	0.266663	-0.245067	0.442878
C37	C	0.313571	-0.245076	0.442886
N38	N	0.337067	-0.216380	0.510798
C39	C	0.313646	-0.187686	0.578721
C40	C	-0.113379	-0.245081	0.442951
C41	C	-0.160296	-0.245083	0.442961
C42	C	-0.160221	-0.187692	0.578802
C43	C	-0.113302	-0.187692	0.578797
C44	C	-0.089882	-0.216385	0.510864
C45	C	0.412172	-0.187691	0.578707
C46	C	0.459092	-0.187696	0.578700
C47	C	0.459012	-0.245086	0.442856
C48	C	0.412096	-0.245083	0.442867
C49	C	0.388678	-0.216382	0.510796
O50	O	0.337840	-0.269475	0.385176
O51	O	0.337946	-0.163278	0.636466
C52	C	0.125982	-0.187684	0.578743
C53	C	0.102488	-0.216377	0.510825
C54	C	0.125909	-0.245071	0.442903
C55	C	0.055570	-0.216379	0.510835
C56	C	0.032149	-0.187685	0.578757
C57	C	0.055645	-0.158989	0.646669
C58	C	0.102561	-0.158990	0.646665
C59	C	0.102412	-0.273767	0.374990
C60	C	0.055496	-0.273763	0.375001
C61	C	0.032075	-0.245070	0.442923
C62	C	0.677947	-0.692681	0.443126
C63	C	0.678003	-0.880354	0.443167
O64	O	0.702470	-0.904616	0.385606
N65	N	0.649263	-0.903826	0.510898
C66	C	0.620509	-0.880377	0.578628
O67	O	0.596068	-0.904647	0.636246
C68	C	0.620456	-0.692705	0.578591
C69	C	0.649195	-0.669235	0.510848
C70	C	0.706684	-0.669212	0.375389
C71	C	0.706668	-0.622296	0.375375
C72	C	0.677916	-0.598850	0.443098
C73	C	0.649179	-0.622320	0.510835
C74	C	0.591705	-0.669256	0.646326
C75	C	0.591695	-0.622335	0.646313
C76	C	0.620434	-0.598866	0.578570
C77	C	0.620411	-0.551958	0.578544
N78	N	0.649151	-0.528487	0.510813
C79	C	0.677903	-0.551933	0.443090
C80	C	0.620538	-0.978907	0.578641
C81	C	0.620551	-1.025825	0.578649
C82	C	0.678045	-1.025799	0.443189
C83	C	0.678030	-0.978881	0.443176
C84	C	0.649278	-0.955436	0.510910
C85	C	0.677867	-0.453407	0.443066
C86	C	0.677847	-0.406487	0.443055
C87	C	0.620355	-0.406517	0.578519
C88	C	0.620373	-0.453432	0.578526
C89	C	0.649133	-0.476876	0.510796
O90	O	0.595960	-0.527667	0.636083
O91	O	0.702347	-0.527654	0.385497
C92	C	0.677963	-0.739597	0.443139
C93	C	0.649227	-0.763066	0.510876
C94	C	0.620474	-0.739620	0.578599
C95	C	0.649239	-0.809984	0.510884
C96	C	0.677992	-0.833430	0.443161
C97	C	0.706732	-0.809958	0.375430
C98	C	0.706716	-0.763043	0.375416
C99	C	0.591734	-0.763092	0.646330
C100	C	0.591752	-0.810007	0.646337
C101	C	0.620504	-0.833453	0.578614
C102	C	0.766348	-0.216388	0.510864
C103	C	0.816282	-0.216389	0.510883
C104	C	0.649203	-0.216349	0.787323
C105	C	0.649217	-0.216335	0.905153
C106	C	0.649263	-0.099206	0.510894
C107	C	0.649303	-0.049271	0.510926
C108	C	0.649163	-0.216386	0.235388
C109	C	0.649236	-0.216275	0.117558
C110	C	0.614367	-0.250885	1.072681
C111	C	0.614458	-0.251056	0.950121
C112	C	0.696548	-0.229181	0.949675
C113	C	0.696357	-0.229398	1.072273
C114	C	0.637184	-0.168744	1.072365
C115	C	0.636127	-0.169029	0.949758
H116	H	0.478219	-0.164329	0.634016
O117	O	0.563822	-0.740370	0.712262
C118	C	0.541975	-0.725976	0.892531
C119	C	0.573612	-0.751740	0.817984
H120	H	0.549885	-0.735152	0.978024
H121	H	0.505752	-0.735260	0.873909
H122	H	0.546886	-0.688412	0.880843
H123	H	0.568740	-0.789310	0.829631
H124	H	0.609823	-0.742419	0.836625
H125	H	0.622244	-0.285901	1.103490
O126	O	0.596765	-0.154716	1.109338
C127	C	0.556476	-0.098518	1.207706
C128	C	0.602281	-0.114354	1.165919
H129	H	0.560919	-0.065879	1.253441
H130	H	0.541815	-0.125169	1.262238
H131	H	0.532777	-0.092767	1.138299
H132	H	0.626014	-0.120101	1.235259
H133	H	0.616905	-0.087695	1.111356
H134	H	0.723224	-0.204769	0.920551
O135	O	0.125208	-0.301666	0.309159
C136	C	0.178097	-0.362342	0.294639
C137	C	0.152320	-0.330762	0.369310
H138	H	0.200016	-0.385880	0.343242
H139	H	0.200099	-0.341718	0.239301
H140	H	0.153231	-0.382828	0.246085
H141	H	0.177154	-0.310269	0.417933
H142	H	0.130311	-0.351411	0.424578
H143	H	0.701250	-0.387380	0.387887
H144	H	0.659670	-0.141879	0.919149
O145	O	0.125430	-0.131092	0.712496
C146	C	0.178421	-0.070420	0.727020
C147	C	0.152562	-0.101995	0.652346
H148	H	0.200357	-0.046881	0.678419
H149	H	0.200413	-0.091047	0.782349
H150	H	0.153607	-0.049935	0.775583
H151	H	0.177344	-0.122487	0.603714
H152	H	0.130563	-0.081343	0.597087
H153	H	0.662581	-0.142958	1.101390
H154	H	0.730118	-0.743937	0.320254
O155	O	0.734659	-0.832808	0.309769
C156	C	0.760163	-0.905083	0.249793
C157	C	0.728513	-0.879259	0.324196
H158	H	0.755198	-0.942643	0.261415
H159	H	0.796386	-0.895841	0.268529
H160	H	0.752313	-0.895876	0.164287
H161	H	0.736322	-0.888452	0.409727
H162	H	0.692299	-0.888503	0.305369
H163	H	0.579360	-0.243018	0.920017
O164	O	0.734546	-0.599432	0.309610
C165	C	0.760037	-0.527149	0.249590
C166	C	0.728432	-0.552982	0.324105
H167	H	0.755112	-0.489590	0.261299
H168	H	0.752170	-0.536375	0.164071
H169	H	0.796254	-0.536362	0.268288
H170	H	0.692205	-0.543784	0.305503
H171	H	0.736338	-0.543754	0.409602
H172	H	0.723217	-0.205283	1.101963
H173	H	0.730100	-0.688297	0.320240
O174	O	0.265899	-0.301701	0.309078
C175	C	0.280158	-0.378092	0.257242
C176	C	0.254398	-0.346501	0.331921
H177	H	0.270862	-0.414319	0.275669
H178	H	0.317733	-0.373205	0.268904
H179	H	0.270927	-0.370133	0.171804
H180	H	0.263592	-0.354441	0.417387
H181	H	0.216829	-0.351394	0.320167
O182	O	0.594544	-0.157483	0.915218
C183	C	0.518947	-0.137849	0.963449
C184	C	0.566016	-0.150929	1.002719
H185	H	0.495871	-0.132538	1.034174
H186	H	0.504964	-0.165763	0.911396
H187	H	0.521171	-0.105531	0.915696
H188	H	0.563830	-0.183237	1.050516
H189	H	0.579981	-0.122989	1.054717
H190	H	0.579164	-0.242924	1.102153
O191	O	0.705989	-1.048649	0.377565
C192	C	0.731528	-1.120923	0.317670
C193	C	0.699849	-1.095100	0.392006
H194	H	0.726568	-1.158484	0.329304
H195	H	0.767743	-1.111671	0.336463
H196	H	0.723702	-1.111727	0.232146
H197	H	0.707634	-1.104283	0.477555
H198	H	0.663643	-1.104354	0.373122
H199	H	0.701287	-0.472489	0.387916
H200	H	-0.179422	-0.268454	0.387662
O201	O	0.592679	-1.048600	0.644599
C202	C	0.570817	-1.062898	0.824878
C203	C	0.602416	-1.037088	0.750303
H204	H	0.578673	-1.053593	0.910354
H205	H	0.575763	-1.100466	0.813353
H206	H	0.534597	-1.053719	0.806122
H207	H	0.638648	-1.046230	0.769013
H208	H	0.597431	-0.999527	0.761841
O209	O	-0.090701	-0.273000	0.376927
C210	C	-0.095740	-0.329907	0.242155
C211	C	-0.121475	-0.298318	0.316885
H212	H	-0.120609	-0.350378	0.193576
H213	H	-0.073793	-0.353455	0.290664
H214	H	-0.073760	-0.309248	0.186845
H215	H	-0.143480	-0.318941	0.372210
H216	H	-0.143393	-0.274769	0.268310
O217	O	0.563895	-0.832852	0.712202
C218	C	0.557844	-0.885757	0.855394
C219	C	0.589436	-0.859924	0.780847
H220	H	0.578482	-0.907644	0.910927
H221	H	0.534375	-0.907795	0.806750
H222	H	0.537285	-0.860926	0.903744
H223	H	0.610025	-0.884723	0.732481
H224	H	0.612876	-0.837879	0.829551
H225	H	0.393110	-0.164318	0.634019
H226	H	0.478090	-0.268449	0.387558
O227	O	0.266076	-0.131137	0.712772
C228	C	0.280495	-0.109430	0.893188
C229	C	0.254679	-0.141004	0.818428
H230	H	0.271298	-0.117402	0.978627
H231	H	0.271278	-0.073191	0.874804
H232	H	0.318051	-0.114344	0.881474
H233	H	0.217117	-0.136130	0.830100
H234	H	0.263933	-0.177231	0.836831
O235	O	0.173596	-0.131181	0.712699
C236	C	0.120696	-0.125219	0.855934
C237	C	0.146472	-0.156764	0.781177
H238	H	0.098767	-0.145890	0.911332
H239	H	0.098705	-0.101705	0.807447
H240	H	0.145564	-0.104705	0.904418
H241	H	0.121636	-0.177307	0.732677
H242	H	0.168470	-0.180248	0.829725
H243	H	0.597124	-0.959821	0.633799
H244	H	-0.094176	-0.164325	0.634105
H245	H	0.706941	-0.263562	0.918976
O246	O	0.032820	-0.131130	0.712550
C247	C	-0.039433	-0.105720	0.772783
C248	C	-0.013637	-0.137286	0.698114
H249	H	-0.076998	-0.110693	0.761153
H250	H	-0.030221	-0.069475	0.754319
H251	H	-0.030173	-0.113647	0.858220
H252	H	-0.022883	-0.129399	0.612651
H253	H	-0.022851	-0.173522	0.716668
O254	O	-0.183046	-0.159831	0.644681
C255	C	-0.255298	-0.134422	0.704917
C256	C	-0.229503	-0.165989	0.630251
H257	H	-0.292863	-0.139396	0.693292
H258	H	-0.246087	-0.098176	0.686446
H259	H	-0.246037	-0.142346	0.790355
H260	H	-0.238751	-0.158105	0.544788
H261	H	-0.238716	-0.202225	0.648813
H262	H	0.177127	-0.297132	0.319646
H263	H	0.706575	-0.264143	1.100874
O264	O	0.389341	-0.272974	0.376797
C265	C	0.394223	-0.329920	0.242111
C266	C	0.420045	-0.298351	0.316871
H267	H	0.419036	-0.350452	0.193657
H268	H	0.372277	-0.309287	0.186694
H269	H	0.372235	-0.353415	0.290698
H270	H	0.442058	-0.274849	0.268369
H271	H	0.441963	-0.319012	0.372291
O272	O	0.592469	-0.383667	0.644270
C273	C	0.566959	-0.311393	0.704237
C274	C	0.598566	-0.337216	0.629731
H275	H	0.571870	-0.273833	0.692492
H276	H	0.574835	-0.320550	0.789761
H277	H	0.530743	-0.320686	0.685562
H278	H	0.634792	-0.327937	0.648310
H279	H	0.590651	-0.328057	0.544229
H280	H	0.036371	-0.297134	0.319691
O281	O	0.624002	-0.293106	0.915307
C282	C	0.641201	-0.369342	0.963102
C283	C	0.630399	-0.321739	1.002673
H284	H	0.646367	-0.392507	1.033717
H285	H	0.673030	-0.368501	0.913304
H286	H	0.612169	-0.382265	0.912978
H287	H	0.659403	-0.308786	1.052840
H288	H	0.598555	-0.322607	1.052414
O289	O	0.563744	-0.692068	0.711989
C290	C	0.503119	-0.745117	0.726178
C291	C	0.534749	-0.719303	0.651686
H292	H	0.479675	-0.767149	0.677454
H293	H	0.482539	-0.720314	0.774563
H294	H	0.523752	-0.767022	0.781682
H295	H	0.514151	-0.697397	0.596118
H296	H	0.555330	-0.744129	0.603376
O297	O	0.563723	-0.599631	0.712149
C298	C	0.506726	-0.604612	0.846572
C299	C	0.538373	-0.630379	0.772052
H300	H	0.486229	-0.629461	0.895039
H301	H	0.483206	-0.582697	0.797904
H302	H	0.527342	-0.582597	0.901997
H303	H	0.517793	-0.652419	0.716612
H304	H	0.561894	-0.652266	0.820785
H305	H	0.596973	-0.472542	0.633691
H306	H	0.701432	-0.959775	0.388015
