data_functionalizedCrystal
_audit_creation_method	'MofGen! by Chris Wilmer'
_symmetry_space_group_name_H-M	'P1'
_symmetry_Int_Tables_number	1
_symmetry_cell_setting	triclinic
loop_
_symmetry_equiv_pos_as_xyz
  x,y,z
_cell_length_a	10.654554
_cell_length_b	15.944493
_cell_length_c	9.730223
_cell_angle_alpha	90.004543
_cell_angle_beta	89.999030
_cell_angle_gamma	83.980943
loop_
_atom_site_label
_atom_site_type_symbol
_atom_site_fract_x
_atom_site_fract_y
_atom_site_fract_z
O1	O	1.666267	0.117995	-0.114295
O2	O	1.300641	0.129231	-0.114290
O3	O	1.493476	0.001393	-0.114304
O4	O	1.473431	0.245833	-0.114281
O5	O	1.493474	0.001396	0.114276
O6	O	1.300638	0.129234	0.114290
O7	O	1.666265	0.117998	0.114285
Zn8	Zn	1.483451	0.123617	0.150580
Zn9	Zn	1.483454	0.123612	-0.150584
O10	O	1.473429	0.245836	0.114299
C11	C	1.253852	0.128407	0.000000
C12	C	1.114442	0.125936	0.000001
C13	C	0.932939	0.046021	-0.000025
C14	C	1.063930	0.048342	-0.000010
C15	C	1.033956	0.201214	0.000012
C16	C	0.902968	0.198892	0.000007
C17	C	0.950246	-0.042239	-0.000043
C18	C	1.081237	-0.039918	-0.000029
C19	C	1.492656	-0.029905	-0.000020
C20	C	1.490200	-0.123168	-0.000037
C21	C	1.603707	-0.358270	-0.000013
C22	C	1.542498	-0.409194	-0.112713
C23	C	1.485648	-0.293915	-0.000020
C24	C	1.542468	-0.409167	0.112649
C25	C	1.481261	-0.458851	0.000002
C26	C	1.424471	-0.343612	-0.112814
C27	C	1.424459	-0.343581	0.112649
C28	C	1.363163	-0.394473	-0.000078
C29	C	1.488179	-0.198901	-0.000034
C30	C	1.478721	-0.553862	0.000006
C31	C	1.713053	0.118822	-0.000008
C32	C	1.852463	0.121293	-0.000018
C33	C	1.474250	0.277134	0.000012
C34	C	1.476706	0.370397	0.000020
N35	N	1.483458	0.123619	0.356116
N36	N	1.483457	0.123603	-0.356121
C37	C	1.568868	0.067032	0.428036
C38	C	1.568865	0.067021	0.571919
C39	C	1.398039	0.180193	0.571949
C40	C	1.398037	0.180199	0.428069
C41	C	1.667497	0.001695	0.428020
C42	C	1.667493	0.001685	0.571902
H43	H	0.921339	-0.076757	0.095607
H44	H	1.758409	0.022154	0.383394
H45	H	1.328479	0.226269	0.369513
H46	H	0.914991	-0.070345	-0.098743
Cl47	Cl	1.290657	0.251318	0.662413
Cl48	Cl	0.801801	0.293524	0.000037
Cl49	Cl	1.347545	-0.299570	-0.260081
H50	H	1.261391	-0.410530	-0.000139
Cl51	Cl	1.097457	0.298762	0.000041
Cl52	Cl	1.152253	-0.081088	0.152347
Cl53	Cl	1.619477	-0.453384	0.259746
H54	H	1.637789	-0.059327	0.616512
H55	H	1.123435	-0.073170	-0.095694
H56	H	1.705400	-0.342051	-0.000127
H57	H	1.592357	-0.437852	-0.207995
H58	H	1.646909	-0.062868	0.388960
H59	H	1.374643	-0.314908	0.207935
Cl60	Cl	1.816202	0.023899	0.632205
