data_functionalizedCrystal
_audit_creation_method	'MofGen! by Chris Wilmer'
_symmetry_space_group_name_H-M	'P1'
_symmetry_Int_Tables_number	1
_symmetry_cell_setting	triclinic
loop_
_symmetry_equiv_pos_as_xyz
  x,y,z
_cell_length_a	16.992694
_cell_length_b	13.596369
_cell_length_c	16.992695
_cell_angle_alpha	90.006189
_cell_angle_beta	90.668223
_cell_angle_gamma	89.999564
loop_
_atom_site_label
_atom_site_type_symbol
_atom_site_fract_x
_atom_site_fract_y
_atom_site_fract_z
O1	O	1.050851	0.081669	0.166918
O2	O	1.550851	0.581669	0.666918
O3	O	0.822451	0.081698	0.165087
O4	O	1.322451	0.581698	0.665087
O5	O	0.935736	0.081676	0.051802
O6	O	1.435736	0.581676	0.551802
O7	O	0.937567	0.081691	0.280202
O8	O	1.437567	0.581691	0.780202
O9	O	0.935723	-0.081907	0.051795
O10	O	1.435723	0.418093	0.551795
O11	O	0.822439	-0.081885	0.165080
O12	O	1.322439	0.418115	0.665080
O13	O	1.050839	-0.081914	0.166911
O14	O	1.550839	0.418086	0.666911
Zn15	Zn	0.936637	-0.107872	0.165994
Zn16	Zn	1.436637	0.392128	0.665994
Zn17	Zn	0.936653	0.107656	0.166003
Zn18	Zn	1.436653	0.607656	0.666003
O19	O	0.937555	-0.081892	0.280195
O20	O	1.437555	0.418108	0.780195
C21	C	0.793085	-0.000090	0.162727
C22	C	1.293085	0.499910	0.662727
C23	C	0.705600	-0.000079	0.155699
C24	C	1.205600	0.499921	0.655699
N25	N	0.936632	-0.254964	0.165988
N26	N	1.436632	0.245036	0.665988
C27	C	0.659610	-0.000075	0.223517
C28	C	1.159610	0.499925	0.723517
C29	C	0.577409	-0.000089	0.216908
C30	C	1.077409	0.499911	0.716908
C31	C	0.541201	-0.000100	0.142480
C32	C	1.041201	0.499900	0.642480
C33	C	0.587198	-0.000107	0.074657
C34	C	1.087198	0.499893	0.574657
C35	C	0.669397	-0.000100	0.081267
C36	C	1.169397	0.499900	0.581267
C37	C	0.295886	-0.000128	0.115086
C38	C	0.795886	0.499872	0.615086
C39	C	0.213681	-0.000132	0.108481
C40	C	0.713681	0.499868	0.608481
C41	C	0.203898	-0.000116	0.250732
C42	C	0.703898	0.499884	0.750732
C43	C	0.286099	-0.000104	0.257335
C44	C	0.786099	0.499896	0.757335
C45	C	0.332089	-0.000115	0.189512
C46	C	0.832089	0.499885	0.689512
N47	N	0.457178	-0.000111	0.135723
N48	N	0.957178	0.499889	0.635723
N49	N	0.416110	-0.000111	0.196270
N50	N	0.916110	0.499889	0.696270
C51	C	0.936652	-0.656254	0.166004
C52	C	1.436652	-0.156254	0.666004
C53	C	0.936644	-0.544603	0.166002
C54	C	1.436644	-0.044603	0.666002
C55	C	0.936642	-0.455613	0.165997
C56	C	1.436642	0.044387	0.665997
C57	C	0.936634	-0.343954	0.165993
C58	C	1.436634	0.156046	0.665993
C59	C	1.080205	-0.000124	0.169270
C60	C	1.580205	0.499876	0.669270
C61	C	1.167690	-0.000128	0.176299
C62	C	1.667690	0.499872	0.676299
C63	C	0.933374	-0.000115	0.022439
C64	C	1.433374	0.499885	0.522439
C65	C	0.926345	-0.000114	-0.065046
C66	C	1.426345	0.499886	0.434954
N67	N	0.936665	0.254748	0.166004
N68	N	1.436665	0.754748	0.666004
C69	C	0.994163	-0.000124	-0.111037
C70	C	1.494163	0.499876	0.388963
C71	C	0.987554	-0.000114	-0.193238
C72	C	1.487554	0.499886	0.306762
C73	C	0.913127	-0.000101	-0.229446
C74	C	1.413127	0.499899	0.270554
C75	C	0.845303	-0.000088	-0.183449
C76	C	1.345303	0.499912	0.316551
C77	C	0.851913	-0.000091	-0.101250
C78	C	1.351913	0.499909	0.398750
C79	C	0.885732	-0.000084	-0.474760
C80	C	1.385732	0.499916	0.025240
C81	C	0.879127	-0.000084	-0.556966
C82	C	1.379127	0.499916	-0.056966
C83	C	1.021379	-0.000107	-0.566749
C84	C	1.521379	0.499893	-0.066749
C85	C	1.027982	-0.000116	-0.484547
C86	C	1.527982	0.499884	0.015453
C87	C	0.960159	-0.000098	-0.438558
C88	C	1.460159	0.499902	0.061442
N89	N	0.906369	-0.000093	-0.313468
N90	N	1.406369	0.499907	0.186532
N91	N	0.966917	-0.000099	-0.354537
N92	N	1.466917	0.499901	0.145463
C93	C	0.939917	-0.000098	0.309559
C94	C	1.439917	0.499902	0.809559
C95	C	0.946945	-0.000093	0.397044
C96	C	1.446945	0.499907	0.897044
H97	H	0.689084	-0.000066	0.284124
H98	H	1.189084	0.499934	0.784124
Cl99	Cl	0.168163	-0.000168	0.014908
Cl100	Cl	0.668163	0.499832	0.514908
Cl101	Cl	0.146078	-0.000105	0.335990
Cl102	Cl	0.646078	0.499895	0.835990
Cl103	Cl	0.353691	-0.000142	0.029821
Cl104	Cl	0.853691	0.499858	0.529821
H105	H	0.557710	-0.000129	0.014056
H106	H	1.057710	0.499871	0.514056
H107	H	1.076596	-0.000120	-0.604202
H108	H	1.576596	0.499880	-0.104202
Cl109	Cl	0.727214	-0.000109	-0.003994
Cl110	Cl	1.227214	0.499891	0.496006
H111	H	0.539966	-0.000085	0.272133
H112	H	1.039966	0.499915	0.772133
H113	H	0.315574	-0.000083	0.317942
H114	H	0.815574	0.499917	0.817942
H115	H	1.054770	-0.000140	-0.081563
H116	H	1.554770	0.499860	0.418437
Cl117	Cl	1.072816	-0.000129	-0.251052
Cl118	Cl	1.572816	0.499871	0.248948
Cl119	Cl	1.121552	-0.000100	-0.439035
Cl120	Cl	1.621552	0.499900	0.060965
H121	H	0.818516	-0.000089	-0.586443
H122	H	1.318516	0.499911	-0.086443
Cl123	Cl	0.800468	-0.000059	-0.416955
Cl124	Cl	1.300468	0.499941	0.083045
H125	H	0.784703	-0.000072	-0.212936
H126	H	1.284703	0.499928	0.287064
H127	H	0.796688	-0.000083	-0.063804
H128	H	1.296688	0.499917	0.436196
