data_functionalizedCrystal
_audit_creation_method	'MofGen! by Chris Wilmer'
_symmetry_space_group_name_H-M	'P1'
_symmetry_Int_Tables_number	1
_symmetry_cell_setting	triclinic
loop_
_symmetry_equiv_pos_as_xyz
  x,y,z
_cell_length_a	17.699083
_cell_length_b	16.992695
_cell_length_c	16.776229
_cell_angle_alpha	89.993259
_cell_angle_beta	89.998886
_cell_angle_gamma	86.975619
loop_
_atom_site_label
_atom_site_type_symbol
_atom_site_fract_x
_atom_site_fract_y
_atom_site_fract_z
O1	O	1.010251	0.099146	-0.066177
O2	O	1.510251	0.599146	0.433823
O3	O	0.790676	0.112045	-0.066203
O4	O	1.290676	0.612045	0.433797
O5	O	0.899583	-0.008546	-0.066184
O6	O	1.399583	0.491454	0.433816
O7	O	0.901344	0.219736	-0.066196
O8	O	1.401344	0.719736	0.433804
O9	O	0.899568	-0.008553	0.066393
O10	O	1.399568	0.491447	0.566393
O11	O	0.790660	0.112037	0.066374
O12	O	1.290660	0.612037	0.566374
O13	O	1.010235	0.099138	0.066400
O14	O	1.510235	0.599138	0.566400
Zn15	Zn	0.900445	0.105587	0.087436
Zn16	Zn	1.400445	0.605587	0.587436
Zn17	Zn	0.900466	0.105596	-0.087239
Zn18	Zn	1.400466	0.605596	0.412761
O19	O	0.901328	0.219729	0.066381
O20	O	1.401328	0.719729	0.566381
C21	C	0.762442	0.111579	0.000082
C22	C	1.262442	0.611579	0.500082
C23	C	0.678338	0.110192	0.000072
C24	C	1.178338	0.610192	0.500072
C25	C	0.897311	-0.037758	0.000104
C26	C	1.397311	0.462242	0.500104
C27	C	0.890554	-0.124789	0.000103
C28	C	1.390554	0.375211	0.500103
C29	C	0.634124	0.180976	0.000069
C30	C	1.134124	0.680976	0.500069
C31	C	0.555099	0.179669	0.000079
C32	C	1.055099	0.679669	0.500079
C33	C	0.520290	0.107576	0.000087
C34	C	1.020290	0.607576	0.500087
C35	C	0.564510	0.036787	0.000093
C36	C	1.064510	0.536787	0.500093
C37	C	0.643533	0.038095	0.000089
C38	C	1.143533	0.538095	0.500089
C39	C	0.245818	0.031509	0.000113
C40	C	0.745818	0.531509	0.500113
C41	C	0.166789	0.030206	0.000116
C42	C	0.666789	0.530206	0.500116
C43	C	0.157384	0.173082	0.000104
C44	C	0.657384	0.673082	0.500104
C45	C	0.236408	0.174391	0.000099
C46	C	0.736408	0.674391	0.500099
C47	C	0.280621	0.103602	0.000109
C48	C	0.780621	0.603602	0.500109
C49	C	0.366308	0.105020	0.000099
C50	C	0.866308	0.605020	0.500099
C51	C	0.434604	0.106157	0.000091
C52	C	0.934604	0.606157	0.500091
C53	C	0.955751	-0.175154	0.000112
C54	C	1.455751	0.324846	0.500112
C55	C	0.949398	-0.256928	0.000104
C56	C	1.449398	0.243072	0.500104
C57	C	0.877846	-0.288336	0.000092
C58	C	1.377846	0.211664	0.500092
C59	C	0.812643	-0.237965	0.000081
C60	C	1.312643	0.262035	0.500081
C61	C	0.818998	-0.156192	0.000084
C62	C	1.318998	0.343808	0.500084
C63	C	0.851510	-0.531884	0.000078
C64	C	1.351510	-0.031884	0.500078
C65	C	0.845160	-0.613663	0.000078
C66	C	1.345160	-0.113663	0.500078
C67	C	0.981915	-0.632621	0.000099
C68	C	1.481915	-0.132621	0.500099
C69	C	0.988263	-0.550845	0.000106
C70	C	1.488263	-0.050845	0.500106
C71	C	0.923061	-0.500481	0.000091
C72	C	1.423061	-0.000481	0.500091
N73	N	0.871350	-0.371923	0.000086
N74	N	1.371350	0.128077	0.500086
N75	N	0.929558	-0.416897	0.000091
N76	N	1.429558	0.083103	0.500091
C77	C	1.038469	0.099604	0.000113
C78	C	1.538469	0.599604	0.500113
C79	C	1.122574	0.100991	0.000118
C80	C	1.622574	0.600991	0.500118
C81	C	0.903601	0.248941	0.000091
C82	C	1.403601	0.748941	0.500091
C83	C	0.910358	0.335972	0.000087
C84	C	1.410358	0.835972	0.500087
N85	N	0.900437	0.105579	0.206647
N86	N	1.400437	0.605579	0.706647
N87	N	0.900481	0.105597	-0.206450
N88	N	1.400481	0.605597	0.293550
C89	C	0.948678	0.052204	0.248373
C90	C	1.448678	0.552204	0.748373
C91	C	0.948682	0.052203	0.331825
C92	C	1.448682	0.552203	0.831825
C93	C	0.900448	0.105582	0.373550
C94	C	1.400448	0.605582	0.873550
C95	C	0.852202	0.158961	0.331819
C96	C	1.352202	0.658961	0.831819
C97	C	0.852194	0.158957	0.248368
C98	C	1.352194	0.658957	0.748368
C99	C	0.852230	0.158976	0.668366
C100	C	1.352230	0.658976	1.168366
C101	C	0.852243	0.158977	0.751822
C102	C	1.352243	0.658977	1.251822
C103	C	0.948718	0.052222	0.751823
C104	C	1.448718	0.552222	1.251823
C105	C	0.948710	0.052219	0.668372
C106	C	1.448710	0.552219	1.168372
C107	C	0.900461	0.105594	0.626648
C108	C	1.400461	0.605594	1.126648
C109	C	0.900456	0.105593	0.536160
C110	C	1.400456	0.605593	1.036160
C111	C	0.900456	0.105588	0.464037
C112	C	1.400456	0.605588	0.964037
H113	H	0.519103	0.237308	0.000075
H114	H	1.019103	0.737308	0.500075
C115	C	0.032070	0.234531	0.000116
C116	C	0.532070	0.734531	0.500116
C117	C	0.108783	0.250898	0.000104
C118	C	0.608783	0.750898	0.500104
H119	H	0.002069	0.282571	0.000119
H120	H	0.502069	0.782571	0.500119
H121	H	0.021052	0.204971	-0.046109
H122	H	0.521052	0.704971	0.453891
H123	H	0.021062	0.204963	0.046356
H124	H	0.521062	0.704963	0.546356
H125	H	0.119792	0.280461	-0.046140
H126	H	0.619792	0.780461	0.453860
H127	H	0.119805	0.280471	0.046333
H128	H	0.619805	0.780471	0.546333
H129	H	1.046528	-0.525279	0.000115
H130	H	1.546528	-0.025279	0.500115
H131	H	0.786891	-0.639232	0.000082
H132	H	1.286891	-0.139232	0.500082
H133	H	0.264745	0.233096	0.000089
H134	H	0.764745	0.733096	0.500089
C135	C	0.756874	0.264507	0.676760
C136	C	1.256874	0.764507	1.176760
C137	C	0.799202	0.217651	0.622510
C138	C	1.299202	0.717651	1.122510
H139	H	0.724140	0.300735	0.648446
H140	H	1.224140	0.800735	1.148446
H141	H	0.727686	0.231908	0.709316
H142	H	1.227686	0.731908	1.209316
H143	H	0.790093	0.292665	0.709300
H144	H	1.290093	0.792665	1.209300
H145	H	0.765983	0.189489	0.589973
H146	H	1.265983	0.689489	1.089973
H147	H	0.828392	0.250255	0.589940
H148	H	1.328392	0.750255	1.089940
C149	C	0.694138	-0.246980	-0.068095
C150	C	1.194138	0.253020	0.431905
C151	C	0.733992	-0.272490	0.000065
C152	C	1.233992	0.227510	0.500065
H153	H	0.645583	-0.268298	-0.068105
H154	H	1.145583	0.231702	0.431895
H155	H	0.688590	-0.191078	-0.068090
H156	H	1.188590	0.308922	0.431910
H157	H	0.721207	-0.264276	-0.114317
H158	H	1.221207	0.235724	0.385683
H159	H	0.706926	-0.255188	0.046287
H160	H	1.206926	0.244812	0.546287
H161	H	0.739537	-0.328404	0.000067
H162	H	1.239537	0.171596	0.500067
C163	C	1.117728	-0.643144	0.000117
C164	C	1.617728	-0.143144	0.500117
C165	C	1.053584	-0.687981	0.000107
C166	C	1.553584	-0.187981	0.500107
H167	H	1.161974	-0.677322	0.000125
H168	H	1.661974	-0.177322	0.500125
H169	H	1.117365	-0.610850	-0.046111
H170	H	1.617365	-0.110850	0.453889
H171	H	1.117351	-0.610859	0.046354
H172	H	1.617351	-0.110859	0.546354
H173	H	1.053957	-0.720261	-0.046133
H174	H	1.553957	-0.220261	0.453867
H175	H	1.053947	-0.720289	0.046340
H176	H	1.553947	-0.220289	0.546340
H177	H	0.281807	-0.026132	0.000122
H178	H	0.781807	0.473868	0.500122
H179	H	0.987989	0.008755	0.634402
H180	H	1.487989	0.508755	1.134402
H181	H	0.812910	0.202420	0.214396
H182	H	1.312910	0.702420	0.714396
H183	H	0.536162	-0.021912	0.000112
H184	H	1.036162	0.478088	0.500112
C185	C	0.746819	-0.053228	-0.068080
C186	C	1.246819	0.446772	0.431920
C187	C	0.747330	-0.100828	0.000074
C188	C	1.247330	0.399172	0.500074
H189	H	0.702570	-0.019053	-0.068090
H190	H	1.202570	0.480947	0.431910
H191	H	0.790336	-0.022824	-0.068067
H192	H	1.290336	0.477176	0.431933
H193	H	0.747190	-0.085527	-0.114306
H194	H	1.247190	0.414473	0.385694
H195	H	0.746965	-0.068529	0.046301
H196	H	1.246965	0.431471	0.546301
H197	H	0.703801	-0.131235	0.000069
H198	H	1.203801	0.368765	0.500069
C199	C	1.044037	-0.053327	0.256764
C200	C	1.544037	0.446673	0.756764
C201	C	1.001697	-0.006475	0.202513
C202	C	1.501697	0.493525	0.702513
H203	H	1.076765	-0.089558	0.228452
H204	H	1.576765	0.410442	0.728452
H205	H	1.073233	-0.020726	0.289302
H206	H	1.573233	0.479274	0.789302
H207	H	1.010825	-0.081483	0.289324
H208	H	1.510825	0.418517	0.789324
H209	H	1.034909	0.021685	0.169957
H210	H	1.534909	0.521685	0.669957
H211	H	0.972499	-0.039080	0.169962
H212	H	1.472499	0.460920	0.669962
C213	C	0.715697	-0.521371	0.000076
C214	C	1.215697	-0.021371	0.500076
C215	C	0.779839	-0.476531	0.000077
C216	C	1.279839	0.023469	0.500077
H217	H	0.671450	-0.487194	0.000083
H218	H	1.171450	0.012806	0.500083
H219	H	0.716067	-0.553650	-0.046155
H220	H	1.216067	-0.053650	0.453845
H221	H	0.716070	-0.553671	0.046310
H222	H	1.216070	-0.053671	0.546310
H223	H	0.779469	-0.444236	-0.046160
H224	H	1.279469	0.055764	0.453840
H225	H	0.779470	-0.444239	0.046313
H226	H	1.279470	0.055761	0.546313
C227	C	0.675889	-0.083280	-0.068064
C228	C	1.175889	0.416720	0.431936
C229	C	0.692139	-0.039711	0.000086
C230	C	1.192139	0.460289	0.500086
H231	H	0.705900	-0.131313	-0.068064
H232	H	1.205900	0.368687	0.431936
H233	H	0.623851	-0.094377	-0.068054
H234	H	1.123851	0.405623	0.431946
H235	H	0.686907	-0.053700	-0.114293
H236	H	1.186907	0.446300	0.385707
H237	H	0.681115	-0.069289	0.046316
H238	H	1.181115	0.430711	0.546316
H239	H	0.744188	-0.028616	0.000084
H240	H	1.244188	0.471384	0.500084
C241	C	0.809380	0.206376	0.459741
C242	C	1.309380	0.706376	0.959741
C243	C	0.799183	0.217639	0.377681
C244	C	1.299183	0.717639	0.877681
H245	H	0.776652	0.242608	0.488051
H246	H	1.276652	0.742608	0.988051
H247	H	0.797998	0.154069	0.473425
H248	H	1.297998	0.654069	0.973425
H249	H	0.860405	0.214827	0.473399
H250	H	1.360405	0.714827	0.973399
H251	H	0.748159	0.209182	0.364022
H252	H	1.248159	0.709182	0.864022
H253	H	0.810560	0.269958	0.363992
H254	H	1.310560	0.769958	0.863992
H255	H	0.987963	0.008740	0.365798
H256	H	1.487963	0.508740	0.865798
C257	C	0.958703	-0.054509	0.845679
C258	C	1.458703	0.445491	1.345679
C259	C	1.001747	-0.006459	0.797689
C260	C	1.501747	0.493541	1.297689
H261	H	0.991442	-0.090736	0.873989
H262	H	1.491442	0.409264	1.373989
H263	H	0.929985	-0.022719	0.882468
H264	H	1.429985	0.477281	1.382468
H265	H	0.925499	-0.082668	0.813122
H266	H	1.425499	0.417332	1.313122
H267	H	1.034947	0.021705	0.830248
H268	H	1.534947	0.521705	1.330248
H269	H	1.030478	-0.038252	0.760896
H270	H	1.530478	0.461748	1.260896
C271	C	1.074273	-0.166127	-0.068032
C272	C	1.574273	0.333873	0.431968
C273	C	1.034403	-0.140631	0.000120
C274	C	1.534403	0.359369	0.500120
H275	H	1.122828	-0.144810	-0.068030
H276	H	1.622828	0.355190	0.431970
H277	H	1.079818	-0.222029	-0.068025
H278	H	1.579818	0.277971	0.431975
H279	H	1.047215	-0.148819	-0.114260
H280	H	1.547215	0.351181	0.385740
H281	H	1.061459	-0.157944	0.046348
H282	H	1.561459	0.342056	0.546348
H283	H	1.028860	-0.084717	0.000121
H284	H	1.528860	0.415283	0.500121
C285	C	0.616882	0.322076	0.000065
C286	C	1.116882	0.822076	0.500065
C287	C	0.672382	0.260224	0.000062
C288	C	1.172382	0.760224	0.500062
H289	H	0.640501	0.371001	0.000068
H290	H	1.140501	0.871001	0.500068
H291	H	0.586256	0.318598	-0.046163
H292	H	1.086256	0.818598	0.453837
H293	H	0.586256	0.318583	0.046303
H294	H	1.086256	0.818583	0.546303
H295	H	0.703005	0.263713	-0.046179
H296	H	1.203005	0.763713	0.453821
H297	H	0.703021	0.263704	0.046294
H298	H	1.203021	0.763704	0.546294
C299	C	0.083380	-0.054160	-0.068024
C300	C	0.583380	0.445840	0.431976
C301	C	0.128526	-0.049045	0.000128
C302	C	0.628526	0.450955	0.500128
H303	H	0.059762	-0.103086	-0.068018
H304	H	0.559762	0.396914	0.431982
H305	H	0.045743	-0.012194	-0.068025
H306	H	0.545743	0.487806	0.431975
H307	H	0.114022	-0.050683	-0.114252
H308	H	0.614022	0.449317	0.385748
H309	H	0.097883	-0.052516	0.046356
H310	H	0.597883	0.447484	0.546356
H311	H	0.166168	-0.091023	0.000136
H312	H	0.666168	0.408977	0.500136
C313	C	1.021606	-0.359865	-0.068048
C314	C	1.521606	0.140135	0.431952
C315	C	1.021068	-0.312285	0.000110
C316	C	1.521068	0.187715	0.500110
H317	H	1.065859	-0.394035	-0.068047
H318	H	1.565859	0.105965	0.431953
H319	H	0.978092	-0.390275	-0.068052
H320	H	1.478092	0.109725	0.431948
H321	H	1.021245	-0.327552	-0.114272
H322	H	1.521245	0.172448	0.385728
H323	H	1.021424	-0.344598	0.046334
H324	H	1.521424	0.155402	0.546334
H325	H	1.064594	-0.281873	0.000121
H326	H	1.564594	0.218127	0.500121
H327	H	0.812962	0.202447	0.785794
H328	H	1.312962	0.702447	1.285794
