data_functionalizedCrystal
_audit_creation_method	'MofGen! by Chris Wilmer'
_symmetry_space_group_name_H-M	'P1'
_symmetry_Int_Tables_number	1
_symmetry_cell_setting	triclinic
loop_
_symmetry_equiv_pos_as_xyz
  x,y,z
_cell_length_a	6.817900
_cell_length_b	15.866870
_cell_length_c	12.200875
_cell_angle_alpha	111.092108
_cell_angle_beta	107.143593
_cell_angle_gamma	102.655915
loop_
_atom_site_label
_atom_site_type_symbol
_atom_site_fract_x
_atom_site_fract_y
_atom_site_fract_z
V1	V	-4.100361	-0.132887	-0.413851
O2	O	-4.053554	0.006162	-0.348247
O3	O	-4.083035	-0.263278	-0.466540
O4	O	-4.069614	-0.130942	-0.569017
O5	O	-4.067067	-0.127091	-0.245061
V6	V	-4.577674	-0.116244	-0.386918
O7	O	-4.375239	-0.169396	-0.472932
O8	O	-4.752993	-0.079735	-0.327838
O9	O	-4.371794	0.014146	-0.334230
O10	O	-4.741878	-0.255293	-0.452523
O11	O	-4.728365	-0.122041	-0.555709
O12	O	-4.385214	-0.118190	-0.231753
C13	C	-3.935024	-0.295061	-0.474337
C14	C	-4.002262	-0.401657	-0.518451
C15	C	-3.917903	-0.126252	-0.605055
C16	C	-3.974254	-0.125524	-0.732268
C17	C	-3.944608	-0.683492	-0.109260
C18	C	-4.007802	-0.783660	-0.150750
C19	C	-4.119320	-0.811148	-0.372465
C20	C	-4.056123	-0.710980	-0.330993
C21	C	-3.968772	-0.647159	-0.199389
C22	C	-4.080288	-0.674647	-0.421122
C23	C	-4.017108	-0.574488	-0.379654
C24	C	-3.929762	-0.510662	-0.248056
C25	C	-3.905592	-0.547000	-0.157921
C26	C	-4.167654	-0.738470	-0.552726
C27	C	-4.191819	-0.702137	-0.642856
C28	C	-4.128623	-0.601976	-0.601387
C29	C	-4.041278	-0.538149	-0.469789
C30	C	-4.152794	-0.565637	-0.691523
C31	C	-4.089613	-0.465478	-0.650054
C32	C	-3.978098	-0.437990	-0.428321
C33	C	-4.077385	-0.124192	-0.965179
C34	C	-4.019987	-0.124933	-0.835571
C35	C	-4.183148	0.045925	-0.326432
C36	C	-4.095148	0.152520	-0.282326
C37	C	-4.200267	-0.122882	-0.195710
C38	C	-4.123153	-0.123606	-0.068494
H39	H	-3.906935	-0.386022	-0.321155
H40	H	-4.109323	-0.435897	-0.723448
C41	C	-3.801732	-0.529878	0.057103
C42	C	-3.809599	-0.476839	-0.013259
H43	H	-3.742497	-0.486562	0.146404
H44	H	-3.710989	-0.566375	0.041323
H45	H	-3.946390	-0.572655	0.031311
H46	H	-3.664939	-0.434067	0.012526
H47	H	-3.900343	-0.440326	0.002529
C48	C	-4.105668	-0.795683	0.018136
C49	C	-3.981224	-0.823601	-0.051672
H50	H	-4.089250	-0.820339	0.079302
H51	H	-4.256599	-0.820876	-0.039199
H52	H	-4.055521	-0.726897	0.061664
H53	H	-4.031381	-0.892388	-0.095207
H54	H	-3.830262	-0.798412	0.005671
H55	H	-4.190456	-0.863124	-0.479617
H56	H	-4.262955	-0.754113	-0.750009
H57	H	-3.878328	-0.429106	-0.214295
C58	C	-4.054315	-0.869860	-0.544446
C59	C	-4.237103	-0.848568	-0.598320
H60	H	-4.097192	-0.937831	-0.572603
H61	H	-3.998849	-0.837059	-0.453183
H62	H	-3.942953	-0.849142	-0.571037
H63	H	-4.348461	-0.869280	-0.571722
H64	H	-4.292602	-0.881381	-0.689603
H65	H	-4.223942	-0.617615	-0.798676
H66	H	-3.873445	-0.631524	-0.002094
