data_functionalizedCrystal
_audit_creation_method	'MofGen! by Chris Wilmer'
_symmetry_space_group_name_H-M	'P1'
_symmetry_Int_Tables_number	1
_symmetry_cell_setting	triclinic
loop_
_symmetry_equiv_pos_as_xyz
  x,y,z
_cell_length_a	14.044220
_cell_length_b	16.109301
_cell_length_c	14.586319
_cell_angle_alpha	89.994786
_cell_angle_beta	90.001391
_cell_angle_gamma	88.325179
loop_
_atom_site_label
_atom_site_type_symbol
_atom_site_fract_x
_atom_site_fract_y
_atom_site_fract_z
O1	O	1.257643	0.200436	-0.076149
O2	O	1.590977	0.533769	0.257185
O3	O	1.924310	0.867102	0.590518
O4	O	0.981677	0.193203	-0.076172
O5	O	1.315010	0.526536	0.257162
O6	O	1.648343	0.859870	0.590495
O7	O	1.127241	0.076352	-0.076150
O8	O	1.460574	0.409686	0.257183
O9	O	1.793908	0.743019	0.590517
O10	O	1.112079	0.317286	-0.076170
O11	O	1.445412	0.650620	0.257163
O12	O	1.778746	0.983953	0.590497
O13	O	1.127231	0.076350	0.076331
O14	O	1.460564	0.409683	0.409664
O15	O	1.793898	0.743016	0.742997
O16	O	0.981666	0.193200	0.076309
O17	O	1.315000	0.526534	0.409643
O18	O	1.648333	0.859867	0.742976
O19	O	1.257633	0.200433	0.076332
O20	O	1.590967	0.533766	0.409666
O21	O	1.924300	0.867100	0.742999
Cu22	Cu	1.119649	0.196816	0.090243
Cu23	Cu	1.452982	0.530150	0.423577
Cu24	Cu	1.786316	0.863483	0.756910
Cu25	Cu	1.119661	0.196820	-0.090083
Cu26	Cu	1.452994	0.530153	0.243251
Cu27	Cu	1.786328	0.863486	0.576584
O28	O	1.112069	0.317284	0.076311
O29	O	1.445402	0.650617	0.409644
O30	O	1.778736	0.983950	0.742977
C31	C	1.126622	0.045330	0.000091
C32	C	1.459955	0.378664	0.333424
C33	C	1.793289	0.711997	0.666757
C34	C	1.124781	-0.047102	0.000092
C35	C	1.458114	0.286231	0.333425
C36	C	1.791447	0.619565	0.666759
C37	C	0.946358	0.190036	0.000066
C38	C	1.279691	0.523369	0.333399
C39	C	1.613025	0.856702	0.666733
C40	C	0.841135	0.180592	0.000058
C41	C	1.174468	0.513925	0.333391
C42	C	1.507802	0.847258	0.666724
C43	C	1.206874	-0.263266	0.000084
C44	C	1.540207	0.070067	0.333418
C45	C	1.873541	0.403400	0.666751
C46	C	1.205137	-0.350116	0.000076
C47	C	1.538470	-0.016783	0.333410
C48	C	1.871803	0.316551	0.666743
C49	C	1.032429	-0.343091	0.000066
C50	C	1.365763	-0.009758	0.333399
C51	C	1.699096	0.323575	0.666732
C52	C	1.034168	-0.256243	0.000067
C53	C	1.367501	0.077090	0.333400
C54	C	1.700834	0.410423	0.666733
C55	C	1.121393	-0.216333	0.000081
C56	C	1.454726	0.117000	0.333414
C57	C	1.788060	0.450334	0.666747
C58	C	1.117917	-0.390031	0.000072
C59	C	1.451250	-0.056698	0.333405
C60	C	1.784584	0.276636	0.666739
C61	C	1.116032	-0.484197	0.000064
C62	C	1.449366	-0.150864	0.333397
C63	C	1.782699	0.182470	0.666730
C64	C	1.123278	-0.122161	0.000087
C65	C	1.456611	0.211172	0.333421
C66	C	1.789945	0.544506	0.666754
C67	C	0.648479	0.163326	0.000077
C68	C	0.981812	0.496660	0.333410
C69	C	1.315146	0.829993	0.666744
C70	C	0.590825	0.230306	0.000075
C71	C	0.924159	0.563639	0.333409
C72	C	1.257492	0.896972	0.666742
C73	C	0.483625	0.220699	0.000086
C74	C	0.816958	0.554032	0.333420
C75	C	1.150291	0.887366	0.666753
C76	C	0.755690	0.172932	0.000066
C77	C	1.089023	0.506265	0.333400
C78	C	1.422356	0.839598	0.666733
C79	C	1.292952	0.203600	0.000093
C80	C	1.626285	0.536934	0.333426
C81	C	1.959619	0.870267	0.666759
C82	C	1.398175	0.213044	0.000095
C83	C	1.731508	0.546378	0.333428
C84	C	2.064841	0.879711	0.666762
C85	C	1.112688	0.348306	0.000068
C86	C	1.446021	0.681639	0.333401
C87	C	1.779355	1.014972	0.666735
C88	C	1.114529	0.440738	0.000061
C89	C	1.447863	0.774071	0.333394
C90	C	1.781196	1.107404	0.666727
N91	N	1.119647	0.196814	0.217075
N92	N	1.452981	0.530148	0.550409
N93	N	1.786314	0.863481	0.883742
N94	N	1.119670	0.196816	-0.216915
N95	N	1.453003	0.530149	0.116419
N96	N	1.786337	0.863482	0.449752
C97	C	1.184125	0.145093	0.452091
C98	C	1.517458	0.478427	0.785424
C99	C	1.850791	0.811760	1.118758
C100	C	1.184128	0.145092	0.548072
C101	C	1.517461	0.478425	0.881406
C102	C	1.850794	0.811758	1.214739
C103	C	1.055186	0.248539	0.548063
C104	C	1.388519	0.581872	0.881396
C105	C	1.721852	0.915205	1.214729
C106	C	1.055179	0.248536	0.452083
C107	C	1.388513	0.581869	0.785417
C108	C	1.721846	0.915202	1.118750
C109	C	1.119654	0.196814	0.404100
C110	C	1.452987	0.530148	0.737433
C111	C	1.786321	0.863481	1.070767
C112	C	1.119663	0.196816	0.596061
C113	C	1.452997	0.530149	0.929394
C114	C	1.786330	0.863482	1.262727
C115	C	1.119666	0.196814	0.700128
C116	C	1.452999	0.530147	1.033461
C117	C	1.786333	0.863481	1.366795
C118	C	1.119651	0.196815	0.300026
C119	C	1.452984	0.530148	0.633360
C120	C	1.786317	0.863481	0.966693
H121	H	1.277898	-0.230774	0.000094
H122	H	1.611232	0.102559	0.333427
H123	H	1.944565	0.435892	0.666760
H124	H	0.621976	0.294863	0.000066
H125	H	0.955310	0.628197	0.333399
H126	H	1.288643	0.961530	0.666732
C127	C	1.255049	0.088202	0.600859
C128	C	1.588382	0.421535	0.934192
C129	C	1.921716	0.754869	1.267526
H130	H	1.293448	0.057405	0.558532
H131	H	1.626782	0.390738	0.891866
H132	H	1.960115	0.724072	1.225199
H133	H	1.220972	0.051046	0.638306
H134	H	1.554305	0.384380	0.971640
H135	H	1.887638	0.717713	1.304973
H136	H	1.294498	0.121062	0.638294
H137	H	1.627831	0.454396	0.971627
H138	H	1.961164	0.787729	1.304961
H139	H	1.274744	-0.388326	0.000077
H140	H	1.608077	-0.054992	0.333411
H141	H	1.941411	0.278341	0.666744
H142	H	1.002693	0.290650	0.587140
H143	H	1.336026	0.623984	0.920474
H144	H	1.669360	0.957317	1.253807
H145	H	0.617330	0.098774	0.000087
H146	H	0.950663	0.432107	0.333421
H147	H	1.283996	0.765441	0.666754
H148	H	0.961413	-0.375597	0.000056
H149	H	1.294747	-0.042263	0.333390
H150	H	1.628080	0.291070	0.666723
H151	H	1.236623	0.102977	0.413025
H152	H	1.569956	0.436311	0.746359
H153	H	1.903289	0.769644	1.079692
H154	H	1.002675	0.290653	0.413006
H155	H	1.336008	0.623986	0.746340
H156	H	1.669342	0.957320	1.079673
H157	H	0.964554	-0.218029	0.000061
H158	H	1.297888	0.115305	0.333395
H159	H	1.631221	0.448638	0.666728
