data_functionalizedCrystal
_audit_creation_method	'MofGen! by Chris Wilmer'
_symmetry_space_group_name_H-M	'P1'
_symmetry_Int_Tables_number	1
_symmetry_cell_setting	triclinic
loop_
_symmetry_equiv_pos_as_xyz
  x,y,z
_cell_length_a	18.215407
_cell_length_b	12.827892
_cell_length_c	12.827885
_cell_angle_alpha	90.029786
_cell_angle_beta	90.021400
_cell_angle_gamma	90.015840
loop_
_atom_site_label
_atom_site_type_symbol
_atom_site_fract_x
_atom_site_fract_y
_atom_site_fract_z
Zn1	Zn	1.125132	-0.415970	0.590908
Zn2	Zn	1.375132	-0.165970	0.840908
Zn3	Zn	1.625132	0.084030	1.090908
Zn4	Zn	1.875132	0.334030	1.340908
Zn5	Zn	1.125057	-0.590747	0.416168
Zn6	Zn	1.375057	-0.340747	0.666168
Zn7	Zn	1.625057	-0.090747	0.916168
Zn8	Zn	1.875057	0.159253	1.166168
Zn9	Zn	1.002061	-0.416022	0.416175
Zn10	Zn	1.252061	-0.166022	0.666175
Zn11	Zn	1.502061	0.083978	0.916175
Zn12	Zn	1.752061	0.333978	1.166175
Zn13	Zn	1.002051	-0.590671	0.590862
Zn14	Zn	1.252051	-0.340671	0.840862
Zn15	Zn	1.502051	-0.090671	1.090862
Zn16	Zn	1.752051	0.159329	1.340862
O17	O	1.063575	-0.503353	0.503528
O18	O	1.313575	-0.253353	0.753528
O19	O	1.563575	-0.003353	1.003528
O20	O	1.813575	0.246647	1.253528
O21	O	1.228106	-0.439165	0.567745
O22	O	1.478106	-0.189165	0.817745
O23	O	1.728106	0.060835	1.067745
O24	O	1.978106	0.310835	1.317745
O25	O	1.108715	-0.567623	0.269933
O26	O	1.358715	-0.317623	0.519933
O27	O	1.608715	-0.067623	0.769933
O28	O	1.858715	0.182377	1.019933
O29	O	1.018422	-0.269779	0.439376
O30	O	1.268422	-0.019779	0.689376
O31	O	1.518422	0.230221	0.939376
O32	O	1.768422	0.480221	1.189376
O33	O	1.228051	-0.567573	0.439364
O34	O	1.478051	-0.317573	0.689364
O35	O	1.728051	-0.067573	0.939364
O36	O	1.978051	0.182427	1.189364
O37	O	1.108842	-0.269741	0.567752
O38	O	1.358842	-0.019741	0.817752
O39	O	1.608842	0.230259	1.067752
O40	O	1.858842	0.480259	1.317752
O41	O	1.018350	-0.439254	0.269938
O42	O	1.268350	-0.189254	0.519938
O43	O	1.518350	0.060746	0.769938
O44	O	1.768350	0.310746	1.019938
O45	O	0.899075	-0.439180	0.439331
O46	O	1.149075	-0.189180	0.689331
O47	O	1.399075	0.060820	0.939331
O48	O	1.649075	0.310820	1.189331
O49	O	1.018405	-0.567443	0.737104
O50	O	1.268405	-0.317443	0.987104
O51	O	1.518405	-0.067443	1.237104
O52	O	1.768405	0.182557	1.487104
O53	O	0.899068	-0.567493	0.567673
O54	O	1.149068	-0.317493	0.817673
O55	O	1.399068	-0.067493	1.067673
O56	O	1.649068	0.182507	1.317673
O57	O	1.108832	-0.439091	0.737138
O58	O	1.358832	-0.189091	0.987138
O59	O	1.608832	0.060909	1.237138
O60	O	1.858832	0.310909	1.487138
O61	O	1.108705	-0.736973	0.439320
O62	O	1.358705	-0.486973	0.689320
O63	O	1.608705	-0.236973	0.939320
O64	O	1.858705	0.013027	1.189320
O65	O	1.018332	-0.736917	0.567666
O66	O	1.268332	-0.486917	0.817666
O67	O	1.518332	-0.236917	1.067666
O68	O	1.768332	0.013083	1.317666
C69	C	0.872369	-0.503335	0.503498
C70	C	1.122369	-0.253335	0.753498
C71	C	1.372369	-0.003335	1.003498
C72	C	1.622369	0.246665	1.253498
C73	C	0.790570	-0.503352	0.503510
C74	C	1.040570	-0.253352	0.753510
C75	C	1.290570	-0.003352	1.003510
C76	C	1.540570	0.246648	1.253510
C77	C	0.602391	-0.570270	0.570254
C78	C	0.852391	-0.320270	0.820254
C79	C	1.102391	-0.070270	1.070254
C80	C	1.352391	0.179730	1.320254
C81	C	0.525533	-0.570274	0.570267
C82	C	0.775533	-0.320274	0.820267
C83	C	1.025533	-0.070274	1.070267
C84	C	1.275533	0.179726	1.320267
C85	C	0.525511	-0.436454	0.436826
C86	C	0.775511	-0.186454	0.686826
C87	C	1.025511	0.063546	0.936826
C88	C	1.275511	0.313546	1.186826
C89	C	0.602368	-0.436446	0.436819
C90	C	0.852368	-0.186446	0.686819
C91	C	1.102368	0.063554	0.936819
C92	C	1.352368	0.313554	1.186819
C93	C	0.640807	-0.503360	0.503531
C94	C	0.890807	-0.253360	0.753531
C95	C	1.140807	-0.003360	1.003531
C96	C	1.390807	0.246640	1.253531
C97	C	0.487091	-0.503371	0.503551
C98	C	0.737091	-0.253371	0.753551
C99	C	0.987091	-0.003371	1.003551
C100	C	1.237091	0.246629	1.253551
C101	C	0.403757	-0.503374	0.503565
C102	C	0.653757	-0.253374	0.753565
C103	C	0.903757	-0.003374	1.003565
C104	C	1.153757	0.246626	1.253565
C105	C	0.724146	-0.503356	0.503519
C106	C	0.974146	-0.253356	0.753519
C107	C	1.224146	-0.003356	1.003519
C108	C	1.474146	0.246644	1.253519
C109	C	1.063529	-0.774863	0.503510
C110	C	1.313529	-0.524863	0.753510
C111	C	1.563529	-0.274863	1.003510
C112	C	1.813529	-0.024863	1.253510
C113	C	1.063577	-0.891016	0.503537
C114	C	1.313577	-0.641016	0.753537
C115	C	1.563577	-0.391016	1.003537
C116	C	1.813577	-0.141016	1.253537
C117	C	1.108349	-0.942793	0.440098
C118	C	1.358349	-0.692793	0.690098
C119	C	1.608349	-0.442793	0.940098
C120	C	1.858349	-0.192793	1.190098
C121	C	1.108399	-1.062844	0.440124
C122	C	1.358399	-0.812844	0.690124
C123	C	1.608399	-0.562844	0.940124
C124	C	1.858399	-0.312844	1.190124
C125	C	1.255528	-0.503371	0.503559
C126	C	1.505528	-0.253371	0.753559
C127	C	1.755528	-0.003371	1.003559
C128	C	2.005528	0.246629	1.253559
C129	C	1.337327	-0.503379	0.503572
C130	C	1.587327	-0.253379	0.753572
C131	C	1.837327	-0.003379	1.003572
C132	C	2.087327	0.246621	1.253572
C133	C	1.063625	-0.503252	0.776099
C134	C	1.313625	-0.253252	1.026099
C135	C	1.563625	-0.003252	1.276099
C136	C	1.813625	0.246748	1.526099
C137	C	1.063647	-0.503209	0.892252
C138	C	1.313647	-0.253209	1.142252
C139	C	1.563647	-0.003209	1.392252
C140	C	1.813647	0.246791	1.642252
C141	C	1.063642	-0.230782	0.503570
C142	C	1.313642	0.019218	0.753570
C143	C	1.563642	0.269218	1.003570
C144	C	1.813642	0.519218	1.253570
C145	C	1.063670	-0.114629	0.503587
C146	C	1.313670	0.135371	0.753587
C147	C	1.563670	0.385371	1.003587
C148	C	1.813670	0.635371	1.253587
C149	C	1.063568	-0.503377	0.232018
C150	C	1.313568	-0.253377	0.482018
C151	C	1.563568	-0.003377	0.732018
C152	C	1.813568	0.246623	0.982018
C153	C	1.063689	-0.503126	0.115866
C154	C	1.313689	-0.253126	0.365866
C155	C	1.563689	-0.003126	0.615866
C156	C	1.813689	0.246874	0.865866
C157	C	1.018938	-0.566651	1.064064
C158	C	1.268938	-0.316651	1.314064
C159	C	1.518938	-0.066651	1.564064
C160	C	1.768938	0.183349	1.814064
C161	C	1.018915	-0.566696	0.944014
C162	C	1.268915	-0.316696	1.194014
C163	C	1.518915	-0.066696	1.444014
C164	C	1.768915	0.183304	1.694014
H165	H	0.494259	-0.624757	0.624601
H166	H	0.744259	-0.374757	0.874601
H167	H	0.994259	-0.124757	1.124601
H168	H	1.244259	0.125243	1.374601
F169	F	0.484596	-0.365245	0.365828
F170	F	0.734596	-0.115245	0.615828
F171	F	0.984596	0.134755	0.865828
F172	F	1.234596	0.384755	1.115828
H173	H	0.633647	-0.381953	0.382485
H174	H	0.883647	-0.131953	0.632485
H175	H	1.133647	0.118047	0.882485
H176	H	1.383647	0.368047	1.132485
H177	H	0.633686	-0.624753	0.624578
H178	H	0.883686	-0.374753	0.874578
H179	H	1.133686	-0.124753	1.124578
H180	H	1.383686	0.125247	1.374578
H181	H	1.025286	-0.935563	0.557873
H182	H	1.275286	-0.685563	0.807873
H183	H	1.525286	-0.435563	1.057873
H184	H	1.775286	-0.185563	1.307873
F185	F	1.013560	-1.056439	0.574578
F186	F	1.263560	-0.806439	0.824578
F187	F	1.513560	-0.556439	1.074578
F188	F	1.763560	-0.306439	1.324578
H189	H	1.146646	-0.898248	0.385768
H190	H	1.396646	-0.648248	0.635768
H191	H	1.646646	-0.398248	0.885768
H192	H	1.896646	-0.148248	1.135768
H193	H	1.146728	-1.107372	0.385808
H194	H	1.396728	-0.857372	0.635808
H195	H	1.646728	-0.607372	0.885808
H196	H	1.896728	-0.357372	1.135808
H197	H	1.101982	-0.448768	1.071338
H198	H	1.351982	-0.198768	1.321338
H199	H	1.601982	0.051232	1.571338
H200	H	1.851982	0.301232	1.821338
F201	F	0.968877	-0.637692	1.122260
F202	F	1.218877	-0.387692	1.372260
F203	F	1.468877	-0.137692	1.622260
F204	F	1.718877	0.112308	1.872260
F205	F	0.968839	-0.637791	0.885790
F206	F	1.218839	-0.387791	1.135790
F207	F	1.468839	-0.137791	1.385790
F208	F	1.718839	0.112209	1.635790
H209	H	1.101964	-0.448824	0.936793
H210	H	1.351964	-0.198824	1.186793
H211	H	1.601964	0.051176	1.436793
H212	H	1.851964	0.301176	1.686793
