data_functionalizedCrystal
_audit_creation_method	'MofGen! by Chris Wilmer'
_symmetry_space_group_name_H-M	'P1'
_symmetry_Int_Tables_number	1
_symmetry_cell_setting	triclinic
loop_
_symmetry_equiv_pos_as_xyz
  x,y,z
_cell_length_a	17.699077
_cell_length_b	14.519731
_cell_length_c	16.176319
_cell_angle_alpha	89.992219
_cell_angle_beta	89.993140
_cell_angle_gamma	83.484715
loop_
_atom_site_label
_atom_site_type_symbol
_atom_site_fract_x
_atom_site_fract_y
_atom_site_fract_z
O1	O	1.004423	0.116597	-0.068737
O2	O	1.337756	0.449930	0.264596
O3	O	1.671089	0.783264	0.597929
O4	O	0.784088	0.131776	-0.068742
O5	O	1.117421	0.465109	0.264592
O6	O	1.450755	0.798442	0.597925
O7	O	0.900089	-0.010076	-0.068732
O8	O	1.233422	0.323258	0.264601
O9	O	1.566756	0.656591	0.597935
O10	O	0.888422	0.258448	-0.068747
O11	O	1.221755	0.591782	0.264586
O12	O	1.555089	0.925115	0.597919
O13	O	0.900073	-0.010085	0.068761
O14	O	1.233406	0.323249	0.402095
O15	O	1.566740	0.656582	0.735428
O16	O	0.784072	0.131767	0.068751
O17	O	1.117405	0.465100	0.402085
O18	O	1.450739	0.798433	0.735418
O19	O	1.004407	0.116588	0.068756
O20	O	1.337740	0.449921	0.402089
O21	O	1.671073	0.783255	0.735422
Cu22	Cu	0.894238	0.124177	0.081308
Cu23	Cu	1.227571	0.457510	0.414641
Cu24	Cu	1.560905	0.790843	0.747975
Cu25	Cu	0.894257	0.124187	-0.081294
Cu26	Cu	1.227590	0.457521	0.252040
Cu27	Cu	1.560924	0.790854	0.585373
O28	O	0.888406	0.258439	0.068746
O29	O	1.221739	0.591773	0.402079
O30	O	1.555073	0.925106	0.735413
C31	C	0.755881	0.131228	0.000004
C32	C	1.089215	0.464562	0.333338
C33	C	1.422548	0.797895	0.666671
C34	C	0.671858	0.129599	0.000003
C35	C	1.005192	0.462933	0.333336
C36	C	1.338525	0.796266	0.666670
C37	C	0.632380	0.128827	0.074951
C38	C	0.965713	0.462160	0.408285
C39	C	1.299047	0.795494	0.741618
C40	C	0.553433	0.127282	0.074952
C41	C	0.886766	0.460615	0.408286
C42	C	1.220100	0.793948	0.741619
C43	C	0.513965	0.126516	0.000004
C44	C	0.847298	0.459849	0.333337
C45	C	1.180632	0.793182	0.666671
C46	C	0.553449	0.127285	-0.074950
C47	C	0.886783	0.460619	0.258383
C48	C	1.220116	0.793952	0.591716
C49	C	0.632395	0.128824	-0.074950
C50	C	0.965729	0.462157	0.258383
C51	C	1.299062	0.795491	0.591716
C52	C	0.235068	0.121079	-0.074951
C53	C	0.568401	0.454413	0.258382
C54	C	0.901734	0.787746	0.591715
C55	C	0.156116	0.119543	-0.074946
C56	C	0.489449	0.452877	0.258388
C57	C	0.822782	0.786210	0.591721
C58	C	0.156105	0.119537	0.074951
C59	C	0.489439	0.452870	0.408285
C60	C	0.822772	0.786204	0.741618
C61	C	0.235052	0.121076	0.074951
C62	C	0.568385	0.454409	0.408285
C63	C	0.901718	0.787742	0.741618
C64	C	0.274529	0.121840	-0.000002
C65	C	0.607863	0.455174	0.333331
C66	C	0.941196	0.788507	0.666664
C67	C	0.360133	0.123514	-0.000003
C68	C	0.693466	0.456848	0.333331
C69	C	1.026800	0.790181	0.666664
C70	C	0.428362	0.124849	0.000003
C71	C	0.761696	0.458182	0.333337
C72	C	1.095029	0.791515	0.666670
C73	C	0.899534	-0.044437	0.000015
C74	C	1.232868	0.288896	0.333348
C75	C	1.566201	0.622229	0.666682
C76	C	0.897896	-0.146811	0.000015
C77	C	1.231229	0.186523	0.333349
C78	C	1.564563	0.519856	0.666682
C79	C	0.896565	-0.229949	0.000013
C80	C	1.229898	0.103384	0.333347
C81	C	1.563232	0.436718	0.666680
C82	C	0.894902	-0.334251	0.000007
C83	C	1.228235	-0.000917	0.333340
C84	C	1.561568	0.332416	0.666674
C85	C	0.893582	-0.417384	0.000002
C86	C	1.226915	-0.084051	0.333335
C87	C	1.560248	0.249283	0.666668
C88	C	0.891919	-0.521692	-0.000003
C89	C	1.225252	-0.188359	0.333330
C90	C	1.558585	0.144974	0.666664
C91	C	1.032613	0.117136	0.000008
C92	C	1.365947	0.450469	0.333341
C93	C	1.699280	0.783802	0.666675
C94	C	1.116636	0.118764	0.000004
C95	C	1.449970	0.452098	0.333337
C96	C	1.783303	0.785431	0.666671
C97	C	0.888961	0.292801	-0.000003
C98	C	1.222294	0.626134	0.333331
C99	C	1.555627	0.959468	0.666664
C100	C	0.890599	0.395174	-0.000008
C101	C	1.223932	0.728508	0.333325
C102	C	1.557265	1.061841	0.666658
N103	N	0.894230	0.124168	0.195673
N104	N	1.227564	0.457502	0.529006
N105	N	1.560897	0.790835	0.862340
N106	N	0.894271	0.124188	-0.195659
N107	N	1.227604	0.457521	0.137674
N108	N	1.560937	0.790855	0.471008
C109	C	0.945611	0.061382	0.238942
C110	C	1.278944	0.394716	0.572275
C111	C	1.612278	0.728049	0.905608
C112	C	0.945615	0.061381	0.325489
C113	C	1.278948	0.394715	0.658822
C114	C	1.612281	0.728048	0.992155
C115	C	0.894241	0.124172	0.368766
C116	C	1.227574	0.457505	0.702099
C117	C	1.560908	0.790838	1.035432
C118	C	0.842855	0.186961	0.325491
C119	C	1.176188	0.520294	0.658824
C120	C	1.509521	0.853628	0.992158
C121	C	0.842848	0.186957	0.238946
C122	C	1.176181	0.520290	0.572279
C123	C	1.509515	0.853623	0.905612
C124	C	0.842881	0.186978	0.674519
C125	C	1.176214	0.520311	1.007853
C126	C	1.509547	0.853645	1.341186
C127	C	0.842893	0.186979	0.761071
C128	C	1.176226	0.520313	1.094404
C129	C	1.509560	0.853646	1.427738
C130	C	0.945648	0.061403	0.761062
C131	C	1.278981	0.394736	1.094396
C132	C	1.612314	0.728069	1.427729
C133	C	0.945641	0.061399	0.674517
C134	C	1.278974	0.394732	1.007850
C135	C	1.612307	0.728065	1.341184
C136	C	0.894252	0.124184	0.631250
C137	C	1.227586	0.457517	0.964583
C138	C	1.560919	0.790851	1.297917
C139	C	0.894248	0.124183	0.537406
C140	C	1.227581	0.457517	0.870739
C141	C	1.560914	0.790850	1.204072
C142	C	0.894248	0.124178	0.462608
C143	C	1.227582	0.457511	0.795942
C144	C	1.560915	0.790844	1.129275
H145	H	0.123983	0.118919	-0.135981
H146	H	0.457316	0.452252	0.197352
H147	H	0.790650	0.785585	0.530685
N148	N	0.674975	0.129652	-0.155790
N149	N	1.008308	0.462985	0.177543
N150	N	1.341642	0.796319	0.510876
H151	H	0.655184	0.186531	-0.188564
H152	H	0.988517	0.519864	0.144770
H153	H	1.321851	0.853198	0.478103
H154	H	0.730966	0.130703	-0.144353
H155	H	1.064300	0.464037	0.188981
H156	H	1.397633	0.797370	0.522314
H157	H	0.987448	0.010255	0.203711
H158	H	1.320782	0.343588	0.537044
H159	H	1.654115	0.676922	0.870378
N160	N	0.510850	0.126445	0.155788
N161	N	0.844183	0.459779	0.489121
N162	N	1.177517	0.793112	0.822455
H163	H	0.547897	0.126515	0.203267
H164	H	0.881230	0.459848	0.536601
H165	H	1.214563	0.793181	0.869934
H166	H	0.472400	0.183285	0.159300
H167	H	0.805733	0.516618	0.492633
H168	H	1.139066	0.849952	0.825966
H169	H	0.267201	0.121699	-0.135983
H170	H	0.600535	0.455032	0.197350
H171	H	0.933868	0.788366	0.530683
H172	H	0.664508	0.129458	0.135983
H173	H	0.997842	0.462792	0.469317
H174	H	1.331175	0.796125	0.802650
N175	N	0.277620	0.121912	0.155788
N176	N	0.610953	0.455245	0.489121
N177	N	0.944286	0.788578	0.822454
H178	H	0.240630	0.121187	0.203269
H179	H	0.573964	0.454521	0.536602
H180	H	0.907297	0.787854	0.869936
H181	H	0.316434	0.065403	0.159056
H182	H	0.649767	0.398736	0.492389
H183	H	0.983101	0.732070	0.825723
H184	H	0.987452	0.010256	0.360718
H185	H	1.320785	0.343589	0.694051
H186	H	1.654119	0.676922	1.027384
H187	H	0.123953	0.118910	0.135982
H188	H	0.457287	0.452244	0.469316
H189	H	0.790620	0.785577	0.802649
N190	N	0.787471	0.254700	0.807746
N191	N	1.120804	0.588033	1.141079
N192	N	1.454138	0.921367	1.474413
H193	H	0.753925	0.219501	0.843669
H194	H	1.087258	0.552835	1.177003
H195	H	1.420592	0.886168	1.510336
H196	H	0.816501	0.295479	0.843592
H197	H	1.149835	0.628812	1.176925
H198	H	1.483168	0.962146	1.510259
N199	N	0.510886	0.126448	-0.155789
N200	N	0.844219	0.459781	0.177544
N201	N	1.177552	0.793114	0.510877
H202	H	0.454882	0.125357	-0.144418
H203	H	0.788216	0.458691	0.188915
H204	H	1.121549	0.792024	0.522249
H205	H	0.518631	0.183864	-0.188526
H206	H	0.851964	0.517197	0.144808
H207	H	1.185298	0.850531	0.478141
H208	H	0.987476	0.010272	0.639283
H209	H	1.320810	0.343605	0.972617
H210	H	1.654143	0.676939	1.305950
N211	N	1.001071	-0.006320	0.807733
N212	N	1.334404	0.327013	1.141067
N213	N	1.667738	0.660346	1.474400
H214	H	0.992271	-0.071763	0.792682
H215	H	1.325604	0.261570	1.126015
H216	H	1.658938	0.594904	1.459349
H217	H	1.054771	0.004307	0.792637
H218	H	1.388105	0.337641	1.125970
H219	H	1.721438	0.670974	1.459304
N220	N	0.787453	0.254689	0.627859
N221	N	1.120787	0.588022	0.961192
N222	N	1.454120	0.921355	1.294526
H223	H	0.754912	0.294465	0.668410
H224	H	1.088245	0.627798	1.001743
H225	H	1.421579	0.961132	1.335076
H226	H	0.816472	0.295417	0.591932
H227	H	1.149806	0.628750	0.925265
H228	H	1.483139	0.962083	1.258599
N229	N	0.787438	0.254680	0.372164
N230	N	1.120771	0.588013	0.705497
N231	N	1.454104	0.921347	1.038830
H232	H	0.795239	0.245158	0.433556
H233	H	1.128572	0.578491	0.766889
H234	H	1.461905	0.911825	1.100223
H235	H	0.796266	0.320090	0.357022
H236	H	1.129600	0.653423	0.690355
H237	H	1.462933	0.986757	1.023689
N238	N	0.787427	0.254671	0.192273
N239	N	1.120760	0.588004	0.525606
N240	N	1.454093	0.921337	0.858940
H241	H	0.754882	0.294450	0.232820
H242	H	1.088216	0.627783	0.566153
H243	H	1.421549	0.961117	0.899486
H244	H	0.816450	0.295396	0.156348
H245	H	1.149783	0.628730	0.489681
H246	H	1.483116	0.962063	0.823015
