data_functionalizedCrystal
_audit_creation_method	'MofGen! by Chris Wilmer'
_symmetry_space_group_name_H-M	'P1'
_symmetry_Int_Tables_number	1
_symmetry_cell_setting	triclinic
loop_
_symmetry_equiv_pos_as_xyz
  x,y,z
_cell_length_a	14.519709
_cell_length_b	22.010155
_cell_length_c	14.519709
_cell_angle_alpha	90.005419
_cell_angle_beta	83.680145
_cell_angle_gamma	90.010093
loop_
_atom_site_label
_atom_site_type_symbol
_atom_site_fract_x
_atom_site_fract_y
_atom_site_fract_z
O1	O	1.223883	0.050447	0.120889
O2	O	0.955406	0.050466	0.135126
O3	O	1.096763	0.050451	-0.006231
O4	O	1.082526	0.050463	0.262246
O5	O	1.096720	-0.050600	-0.006231
O6	O	0.955363	-0.050584	0.135125
O7	O	1.223840	-0.050603	0.120889
Cu8	Cu	1.089598	-0.059820	0.128007
Cu9	Cu	1.089648	0.059683	0.128007
O10	O	1.082483	-0.050588	0.262246
C11	C	0.921025	-0.000057	0.134462
C12	C	0.818643	-0.000050	0.132474
C13	C	0.443748	-0.000078	0.125154
C14	C	0.548056	-0.000070	0.127187
C15	C	0.631192	-0.000063	0.128814
C16	C	0.735507	-0.000056	0.130847
N17	N	1.089569	-0.143873	0.128006
C18	C	1.145673	-0.563654	0.184056
C19	C	1.145684	-0.627261	0.184054
O20	O	1.193352	-0.660154	0.231704
N21	N	1.089666	-0.659080	0.127997
C22	C	1.033641	-0.627288	0.071931
O23	O	0.985995	-0.660192	0.024250
C24	C	1.033636	-0.563681	0.071929
C25	C	1.089650	-0.531866	0.127997
C26	C	1.201684	-0.531838	0.240119
C27	C	1.201671	-0.468235	0.240122
C28	C	1.145648	-0.436447	0.184063
C29	C	1.089638	-0.468263	0.128000
C30	C	0.977616	-0.531890	0.015860
C31	C	0.977616	-0.468279	0.015862
C32	C	1.033630	-0.436464	0.071930
C33	C	1.033602	-0.372872	0.071945
N34	N	1.089620	-0.341053	0.128002
C35	C	1.145643	-0.372841	0.184061
C36	C	1.033657	-0.760865	0.071939
C37	C	1.033657	-0.824471	0.071945
C38	C	1.145702	-0.824440	0.184067
C39	C	1.145696	-0.760834	0.184065
C40	C	1.089675	-0.729047	0.127996
C41	C	1.145612	-0.239270	0.184064
C42	C	1.145592	-0.175661	0.184065
C43	C	1.033551	-0.175697	0.071941
C44	C	1.033568	-0.239300	0.071943
C45	C	1.089605	-0.271085	0.128007
O46	O	0.985961	-0.339938	0.024317
O47	O	1.193290	-0.339928	0.231726
C48	C	1.258221	-0.000079	0.121553
C49	C	1.360602	-0.000082	0.123541
C50	C	1.096078	-0.000074	-0.040591
C51	C	1.094089	-0.000075	-0.142972
N52	N	1.089684	0.143736	0.128001
C53	C	1.086770	-0.000058	-0.517868
C54	C	1.088803	-0.000063	-0.413560
C55	C	1.090430	-0.000067	-0.330423
C56	C	1.092463	-0.000071	-0.226109
C57	C	1.083168	-0.000061	0.296606
C58	C	1.085156	-0.000057	0.398987
H59	H	1.191205	-0.149760	0.229727
H60	H	1.191318	-0.850333	0.229714
C61	C	0.971937	-0.274307	0.010293
C62	C	1.016165	-0.318035	-0.064732
C63	C	0.954536	-0.353040	-0.126382
C64	C	0.848678	-0.344317	-0.113007
C65	C	0.804444	-0.300587	-0.037979
C66	C	0.866074	-0.265582	0.023671
H67	H	1.094532	-0.324494	-0.074636
H68	H	0.987281	-0.385412	-0.181923
H69	H	0.803057	-0.370230	-0.158645
H70	H	0.726077	-0.294128	-0.028076
H71	H	0.833328	-0.233210	0.079212
H72	H	1.247309	-0.557713	0.285769
C73	C	1.263300	-0.433246	0.301789
C74	C	1.338349	-0.389513	0.257604
C75	C	1.399987	-0.354530	0.319271
C76	C	1.386574	-0.363279	0.425124
C77	C	1.311522	-0.407014	0.469315
C78	C	1.249885	-0.441997	0.407648
H79	H	1.348281	-0.383035	0.179240
H80	H	1.455545	-0.322155	0.286557
H81	H	1.432202	-0.337382	0.470774
H82	H	1.301591	-0.413492	0.547679
H83	H	1.194326	-0.474372	0.440362
H84	H	0.988034	-0.850369	0.026300
H85	H	1.191244	-0.265141	0.229717
C86	C	0.972017	-0.725902	0.010270
C87	C	0.896962	-0.682185	0.054455
C88	C	0.835323	-0.647226	-0.007213
C89	C	0.848740	-0.655984	-0.113066
C90	C	0.923798	-0.699702	-0.157257
C91	C	0.985437	-0.734662	-0.095589
H92	H	0.887027	-0.675701	0.132819
H93	H	0.779760	-0.614863	0.025500
H94	H	0.803111	-0.630105	-0.158717
H95	H	0.933733	-0.706187	-0.235621
H96	H	1.041000	-0.767025	-0.128302
H97	H	0.932004	-0.557783	-0.029798
C98	C	0.971932	-0.140721	0.010275
C99	C	1.016176	-0.096990	-0.064739
C100	C	0.954563	-0.062011	-0.126410
C101	C	0.848706	-0.070764	-0.113068
C102	C	0.804457	-0.114497	-0.038051
C103	C	0.866070	-0.149475	0.023621
H104	H	1.094543	-0.090509	-0.074618
H105	H	0.987320	-0.029638	-0.181943
H106	H	0.803097	-0.044871	-0.158721
H107	H	0.726090	-0.120978	-0.028171
H108	H	0.833313	-0.181849	0.079154
C109	C	1.207319	-0.725840	0.245733
C110	C	1.313174	-0.734576	0.232375
C111	C	1.374802	-0.699586	0.294044
C112	C	1.330574	-0.655859	0.369070
C113	C	1.224714	-0.647121	0.382431
C114	C	1.163086	-0.682111	0.320763
H115	H	1.345919	-0.766948	0.176833
H116	H	1.453167	-0.706055	0.284153
H117	H	1.376195	-0.629957	0.414721
H118	H	1.191969	-0.614750	0.437974
H119	H	1.084721	-0.675642	0.330654
H120	H	0.931996	-0.442402	-0.029798
