data_functionalizedCrystal
_audit_creation_method	'MofGen! by Chris Wilmer'
_symmetry_space_group_name_H-M	'P1'
_symmetry_Int_Tables_number	1
_symmetry_cell_setting	triclinic
loop_
_symmetry_equiv_pos_as_xyz
  x,y,z
_cell_length_a	14.519709
_cell_length_b	10.489741
_cell_length_c	13.596369
_cell_angle_alpha	89.994306
_cell_angle_beta	90.000291
_cell_angle_gamma	84.109659
loop_
_atom_site_label
_atom_site_type_symbol
_atom_site_fract_x
_atom_site_fract_y
_atom_site_fract_z
O1	O	1.224779	0.167203	-0.081663
O2	O	0.956410	0.186894	-0.081693
O3	O	1.096701	-0.008613	-0.081671
O4	O	1.084488	0.362710	-0.081684
O5	O	1.096687	-0.008623	0.081912
O6	O	0.956396	0.186883	0.081890
O7	O	1.224765	0.167193	0.081920
Zn8	Zn	1.090578	0.177037	0.107878
Zn9	Zn	1.090597	0.177050	-0.107650
O10	O	1.084474	0.362700	0.081899
C11	C	0.922038	0.185971	0.000095
C12	C	0.819642	0.183221	0.000084
C13	C	0.444691	0.173098	0.000129
C14	C	0.549014	0.175909	0.000116
C15	C	0.632163	0.178159	0.000105
C16	C	0.736493	0.180971	0.000094
C17	C	1.095772	-0.056140	0.000120
C18	C	1.093012	-0.197741	0.000118
C19	C	1.003749	-0.264951	0.000100
C20	C	1.045909	-0.357518	0.080760
C21	C	1.045944	-0.357482	-0.080520
C22	C	1.135209	-0.288443	0.080844
C23	C	1.135232	-0.288398	-0.080509
C24	C	1.177457	-0.380938	0.000171
C25	C	1.259137	0.168116	0.000130
C26	C	1.361533	0.170866	0.000135
C27	C	1.085403	0.410227	0.000106
C28	C	1.088163	0.551828	0.000101
N29	N	1.090572	0.177026	0.254969
N30	N	1.090610	0.177050	-0.254742
C31	C	1.090596	0.177052	0.656260
C32	C	1.090586	0.177049	0.544609
C33	C	1.090584	0.177040	0.455618
C34	C	1.090574	0.177035	0.343960
H35	H	0.930357	-0.214534	0.000173
H36	H	1.250914	-0.431128	0.000224
C37	C	0.995735	-0.398214	-0.171568
C38	C	1.041792	-0.361512	-0.255818
C39	C	0.995567	-0.399021	-0.339703
H40	H	0.934025	-0.358130	-0.171612
H41	H	0.994861	-0.488651	-0.171284
H42	H	1.042655	-0.271092	-0.256101
H43	H	1.103498	-0.401591	-0.255807
H44	H	0.994693	-0.489459	-0.339419
H45	H	0.933859	-0.358935	-0.339737
H46	H	1.026814	-0.374135	-0.396876
C47	C	0.995372	-0.398258	0.171591
C48	C	0.904460	-0.339008	0.171201
C49	C	0.857870	-0.376514	0.254847
H50	H	1.026375	-0.373477	0.228941
H51	H	0.994419	-0.488682	0.171235
H52	H	0.905418	-0.248603	0.171566
H53	H	0.873432	-0.363782	0.113870
H54	H	0.856916	-0.466938	0.254492
H55	H	0.888880	-0.351730	0.312191
H56	H	0.796179	-0.336328	0.254590
H57	H	1.172940	-0.258009	0.149112
H58	H	1.172975	-0.257742	-0.148696
