data_functionalizedCrystal
_audit_creation_method	'MofGen! by Chris Wilmer'
_symmetry_space_group_name_H-M	'P1'
_symmetry_Int_Tables_number	1
_symmetry_cell_setting	triclinic
loop_
_symmetry_equiv_pos_as_xyz
  x,y,z
_cell_length_a	15.944551
_cell_length_b	10.654550
_cell_length_c	9.130313
_cell_angle_alpha	90.003780
_cell_angle_beta	89.997799
_cell_angle_gamma	96.008180
loop_
_atom_site_label
_atom_site_type_symbol
_atom_site_fract_x
_atom_site_fract_y
_atom_site_fract_z
O1	O	0.117973	-1.666308	-0.121923
O2	O	0.129213	-1.300684	-0.121900
O3	O	0.001376	-1.493480	-0.121899
O4	O	0.245810	-1.473511	-0.121924
O5	O	0.001379	-1.493478	0.121700
O6	O	0.129216	-1.300681	0.121699
O7	O	0.117976	-1.666305	0.121676
Cu8	Cu	0.123596	-1.483493	0.143930
Cu9	Cu	0.123592	-1.483496	-0.144154
O10	O	0.245813	-1.473509	0.121675
C11	C	0.128389	-1.253895	-0.000098
C12	C	0.125920	-1.114484	-0.000088
C13	C	-0.029921	-1.492650	-0.000099
C14	C	-0.123182	-1.490165	-0.000098
C15	C	0.118800	-1.713094	-0.000130
C16	C	0.121269	-1.852505	-0.000149
C17	C	-0.338765	-1.364720	-0.000111
C18	C	-0.399443	-1.422971	0.119995
C19	C	-0.293934	-1.485668	-0.000109
C20	C	-0.399430	-1.423002	-0.120175
C21	C	-0.458872	-1.481317	-0.000126
C22	C	-0.353384	-1.543953	0.120095
C23	C	-0.353364	-1.543967	-0.120182
C24	C	-0.414024	-1.602306	-0.000048
C25	C	-0.198917	-1.488172	-0.000098
C26	C	-0.553887	-1.478822	-0.000127
C27	C	0.277110	-1.474339	-0.000128
C28	C	0.370371	-1.476824	-0.000139
N29	N	0.123599	-1.483500	0.346552
C30	C	0.201188	-1.034024	-0.000117
C31	C	0.198863	-0.903034	-0.000142
C32	C	0.045995	-0.932975	-0.000116
C33	C	0.048321	-1.063963	-0.000080
C34	C	0.289446	-1.016737	-0.000139
C35	C	0.287121	-0.885746	-0.000164
N36	N	0.123583	-1.483499	-0.346777
C37	C	0.067012	-1.568892	0.423205
C38	C	0.067002	-1.568889	0.576542
C39	C	0.180173	-1.398098	0.576560
C40	C	0.180178	-1.398096	0.423226
C41	C	0.001676	-1.667501	0.423195
C42	C	0.001666	-1.667498	0.576532
H43	H	-0.306038	-1.264327	0.000016
Br44	Br	-0.105927	-1.633157	0.353825
Br45	Br	0.336278	-1.075575	-0.175435
H46	H	0.313795	-0.839729	0.105001
H47	H	0.320373	-0.843584	-0.102121
Br48	Br	-0.433449	-1.337712	0.289248
Br49	Br	-0.468325	-1.769778	0.000044
H50	H	-0.017184	-0.891824	-0.000131
Br51	Br	-0.319577	-1.629151	0.289518
Br52	Br	0.035788	-1.819025	0.343899
H53	H	-0.332939	-1.595080	-0.221733
Br54	Br	-0.433415	-1.337704	-0.289398
H55	H	-0.012970	-1.129470	-0.000035
H56	H	-0.059344	-1.637774	0.624087
H57	H	0.016057	-1.763823	0.618141
H58	H	0.226248	-1.328553	0.360817
H59	H	0.323965	-1.045620	0.101809
Br60	Br	0.256954	-1.282194	0.680625
