data_functionalizedCrystal
_audit_creation_method	'MofGen! by Chris Wilmer'
_symmetry_space_group_name_H-M	'P1'
_symmetry_Int_Tables_number	1
_symmetry_cell_setting	triclinic
loop_
_symmetry_equiv_pos_as_xyz
  x,y,z
_cell_length_a	16.625548
_cell_length_b	21.295417
_cell_length_c	21.295396
_cell_angle_alpha	89.893877
_cell_angle_beta	89.929970
_cell_angle_gamma	90.031575
loop_
_atom_site_label
_atom_site_type_symbol
_atom_site_fract_x
_atom_site_fract_y
_atom_site_fract_z
Zn1	Zn	1.233029	-0.250138	-0.355912
Zn2	Zn	1.232797	-0.355545	-0.250637
Zn3	Zn	1.098075	-0.250296	-0.250657
Zn4	Zn	1.098143	-0.355375	-0.355869
O5	O	1.165511	-0.302839	-0.303269
O6	O	1.345831	-0.264126	-0.341957
O7	O	1.214800	-0.341721	-0.162550
O8	O	1.116045	-0.162185	-0.264645
O9	O	1.345660	-0.341568	-0.264612
O10	O	1.215196	-0.162070	-0.341976
O11	O	1.115820	-0.264394	-0.162564
O12	O	0.985251	-0.264230	-0.264604
O13	O	1.116161	-0.341278	-0.443964
O14	O	0.985301	-0.341431	-0.341903
O15	O	1.215262	-0.263961	-0.443996
O16	O	1.214866	-0.443612	-0.264570
O17	O	1.115936	-0.443487	-0.341884
C18	C	0.956020	-0.302830	-0.303251
C19	C	0.866399	-0.302841	-0.303258
C20	C	1.165405	-0.466390	-0.303234
C21	C	1.165434	-0.536358	-0.303240
C22	C	0.538223	-0.302845	-0.303285
C23	C	0.629532	-0.302842	-0.303276
C24	C	0.702308	-0.302843	-0.303271
C25	C	0.793622	-0.302840	-0.303263
C26	C	1.216992	-0.569269	-0.263024
C27	C	1.217030	-0.635011	-0.263038
C28	C	1.165495	-0.667841	-0.303262
C29	C	1.113933	-0.634922	-0.343485
C30	C	1.113902	-0.569181	-0.343474
N31	N	1.094965	-0.771101	-0.308055
N32	N	1.094997	-0.833553	-0.308061
C33	C	1.165585	-0.865915	-0.303298
N34	N	1.236143	-0.833467	-0.298515
N35	N	1.236111	-0.771010	-0.298505
C36	C	1.165523	-0.739126	-0.303278
C37	C	1.217189	-0.970112	-0.263095
C38	C	1.217229	-1.035855	-0.263114
C39	C	1.114124	-1.035765	-0.343557
C40	C	1.114092	-0.970022	-0.343542
C41	C	1.165623	-0.937200	-0.303308
C42	C	1.375820	-0.302848	-0.303287
C43	C	1.465441	-0.302852	-0.303294
C44	C	1.165745	-0.302583	-0.467459
C45	C	1.165845	-0.302474	-0.537428
C46	C	1.165639	-0.138648	-0.303317
C47	C	1.165694	-0.068680	-0.303338
C48	C	1.165324	-0.303048	-0.139717
C49	C	1.165381	-0.302979	-0.069749
C50	C	1.113918	-0.262536	0.429671
C51	C	1.113855	-0.262600	0.363929
C52	C	1.165733	-0.302596	0.331090
C53	C	1.217663	-0.342543	0.363999
C54	C	1.217719	-0.342482	0.429740
N55	N	1.236264	-0.307124	0.227779
N56	N	1.236209	-0.307179	0.165327
C57	C	1.165567	-0.302784	0.133016
N58	N	1.094980	-0.298320	0.165515
N59	N	1.095037	-0.298262	0.227972
C60	C	1.165678	-0.302667	0.259805
C61	C	1.113568	-0.262913	0.028829
C62	C	1.113503	-0.262982	-0.036914
C63	C	1.217318	-0.342921	-0.036843
C64	C	1.217375	-0.342856	0.028899
C65	C	1.165501	-0.302848	0.061732
H66	H	1.258955	-0.542547	-0.230264
H67	H	1.071572	-0.230074	0.337136
O68	O	1.058337	-0.670325	-0.386864
H69	H	1.067011	-0.721569	-0.380109
O70	O	1.057497	-0.219901	-0.072406
H71	H	1.021445	-0.192068	-0.038528
H72	H	1.259662	-0.375376	0.055688
O73	O	1.058533	-1.071166	-0.386939
H74	H	1.094646	-1.101031	-0.418994
H75	H	1.259018	-0.661813	-0.230290
H76	H	1.260007	-0.375004	0.456528
O77	O	1.057615	-0.219766	0.064244
H78	H	1.066387	-0.226425	0.115486
H79	H	1.259560	-0.375486	-0.063580
H80	H	1.071916	-0.542385	-0.376224
H81	H	1.259152	-0.943386	-0.230335
H82	H	1.259219	-1.062650	-0.230366
H83	H	1.072104	-0.943225	-0.376287
H84	H	1.259902	-0.375108	0.337257
H85	H	1.071675	-0.229961	0.456399
