data_functionalizedCrystal
_audit_creation_method	'MofGen! by Chris Wilmer'
_symmetry_space_group_name_H-M	'P1'
_symmetry_Int_Tables_number	1
_symmetry_cell_setting	triclinic
loop_
_symmetry_equiv_pos_as_xyz
  x,y,z
_cell_length_a	11.026607
_cell_length_b	17.038272
_cell_length_c	10.065875
_cell_angle_alpha	99.426590
_cell_angle_beta	79.302338
_cell_angle_gamma	99.848786
loop_
_atom_site_label
_atom_site_type_symbol
_atom_site_fract_x
_atom_site_fract_y
_atom_site_fract_z
O1	O	1.661277	0.323101	-0.113507
O2	O	1.304065	0.285271	-0.113508
O3	O	1.480547	0.190072	-0.113497
O4	O	1.484796	0.418300	-0.113518
O5	O	1.446904	0.208319	0.113490
O6	O	1.270422	0.303517	0.113479
O7	O	1.627634	0.341348	0.113479
Zn8	Zn	1.443687	0.325329	0.149518
Zn9	Zn	1.488013	0.301289	-0.149547
O10	O	1.451153	0.436546	0.113468
C11	C	1.241312	0.287415	-0.000014
C12	C	1.104451	0.266610	-0.000014
C13	C	1.036576	0.324055	-0.000020
C14	C	0.895122	0.302554	-0.000020
C15	C	1.459863	0.169523	-0.000004
C16	C	1.448341	0.081107	-0.000004
C17	C	1.554125	0.045899	-0.000002
C18	C	1.543294	-0.037179	-0.000015
C19	C	1.426676	-0.085047	-0.000020
C20	C	1.320885	-0.049835	-0.000026
C21	C	1.331719	0.033241	-0.000022
C22	C	1.388403	-0.336200	-0.000039
C23	C	1.377576	-0.419281	-0.000038
C24	C	1.599986	-0.406621	-0.000030
C25	C	1.610809	-0.323543	-0.000019
C26	C	1.505019	-0.288338	-0.000032
C27	C	1.415601	-0.169966	-0.000029
C28	C	1.516096	-0.203421	-0.000032
C29	C	1.690387	0.339203	-0.000017
C30	C	1.827251	0.360008	-0.000026
C31	C	1.471837	0.457095	-0.000028
C32	C	1.483360	0.545511	-0.000036
N33	N	1.413444	0.341737	0.353622
N34	N	1.518264	0.284877	-0.353650
C35	C	1.477482	0.306992	0.421405
C36	C	1.454217	0.319627	0.578571
H37	H	1.083188	0.389155	-0.000019
H38	H	1.382158	0.358727	0.636887
H39	H	1.590314	0.245770	0.588033
H40	H	0.873855	0.425112	-0.000023
H41	H	1.341390	0.380834	0.411944
H42	H	1.320650	-0.208950	-0.000030
O43	O	1.724194	-0.277168	-0.000070
C44	C	1.815236	-0.326055	-0.000031
H45	H	1.781292	-0.390582	-0.043019
H46	H	1.905914	-0.302916	-0.065917
H47	H	1.832123	-0.324201	0.108869
O48	O	0.839343	0.224920	-0.000075
C49	C	0.710523	0.220736	-0.000040
H50	H	0.693250	0.274985	-0.043016
H51	H	0.675929	0.163196	-0.065937
H52	H	0.658224	0.220641	0.108858
O53	O	1.048833	0.188936	-0.000251
C54	C	0.992262	0.164045	-0.117790
H55	H	1.039183	0.203155	-0.199960
H56	H	1.002905	0.098536	-0.157247
H57	H	0.888956	0.170314	-0.091211
O58	O	1.702745	-0.440878	-0.000273
C59	C	1.720538	-0.498012	-0.117817
H60	H	1.672872	-0.483168	-0.199980
H61	H	1.824616	-0.496527	-0.157281
H62	H	1.678516	-0.560539	-0.091241
O63	O	1.667512	0.092272	-0.000062
C64	C	1.758551	0.043380	-0.000034
H65	H	1.724592	-0.021147	-0.043005
H66	H	1.849222	0.066511	-0.065939
H67	H	1.775456	0.045240	0.108861
O68	O	1.646055	-0.071433	-0.000256
C69	C	1.663861	-0.128562	-0.117805
H70	H	1.616197	-0.113719	-0.199969
H71	H	1.767942	-0.127071	-0.157263
H72	H	1.621845	-0.191092	-0.091238
H73	H	1.282604	-0.458252	-0.000020
H74	H	1.302260	-0.307547	-0.000049
O75	O	1.207697	-0.096430	-0.000213
C76	C	1.212192	-0.154297	-0.117787
H77	H	1.312929	-0.164397	-0.156979
H78	H	1.153592	-0.213270	-0.091347
H79	H	1.173690	-0.132019	-0.200107
O80	O	1.228826	0.067321	0.000037
C81	C	1.123577	0.007256	-0.000003
H82	H	1.142081	-0.046655	0.042976
H83	H	1.039162	0.032130	0.065890
H84	H	1.104380	-0.012276	-0.108902
O85	O	1.629416	-0.156996	0.000152
C86	C	1.676979	-0.163980	0.117732
H87	H	1.631691	-0.222949	0.156924
H88	H	1.782260	-0.163151	0.091299
H89	H	1.655448	-0.111488	0.200049
H90	H	1.549527	0.267887	0.363085
