data_functionalizedCrystal
_audit_creation_method	'MofGen! by Chris Wilmer'
_symmetry_space_group_name_H-M	'P1'
_symmetry_Int_Tables_number	1
_symmetry_cell_setting	triclinic
loop_
_symmetry_equiv_pos_as_xyz
  x,y,z
_cell_length_a	15.698487
_cell_length_b	23.096457
_cell_length_c	15.698487
_cell_angle_alpha	60.002605
_cell_angle_beta	90.000040
_cell_angle_gamma	60.001244
loop_
_atom_site_label
_atom_site_type_symbol
_atom_site_fract_x
_atom_site_fract_y
_atom_site_fract_z
Zr1	Zr	0.820635	0.633741	-0.111760
O2	O	0.684626	0.754522	-0.247765
O3	O	0.862326	0.512956	-0.070072
O4	O	0.862332	0.633739	-0.247775
O5	O	0.684619	0.633741	0.070119
O6	O	1.002513	0.633741	-0.247777
O7	O	0.684620	0.633739	-0.070062
O8	O	1.002502	0.417683	0.070101
O9	O	0.684629	0.849800	-0.247759
O10	O	0.984726	0.562640	-0.052288
O11	O	0.880110	0.562640	0.052329
O12	O	0.880116	0.704846	-0.156893
O13	O	0.775500	0.704846	-0.052276
Zr14	Zr	1.044206	0.633748	0.111810
Zr15	Zr	1.044208	0.633744	-0.111763
Zr16	Zr	0.820633	0.633744	0.111813
Zr17	Zr	0.820641	0.785698	-0.111750
Zr18	Zr	1.044200	0.481791	0.111800
O19	O	1.002515	0.754533	0.070122
O20	O	1.002517	0.754527	-0.247770
O21	O	0.684623	0.754527	0.070127
O22	O	1.180215	0.512967	0.247815
O23	O	1.180217	0.512961	-0.070077
O24	O	0.862323	0.512961	0.247820
O25	O	1.180222	0.633747	-0.070069
O26	O	1.002509	0.633750	0.247825
O27	O	0.862328	0.633747	0.247827
O28	O	1.180221	0.633750	0.070112
O29	O	0.862340	0.849803	-0.247762
O30	O	1.002501	0.417686	0.247812
O31	O	1.180211	0.417689	0.247809
O32	O	1.180213	0.417686	0.070098
O33	O	0.684628	0.849803	-0.070048
O34	O	0.862338	0.849806	-0.070051
O35	O	0.984724	0.562643	0.156943
O36	O	1.089341	0.562643	0.052326
O37	O	0.984731	0.704849	-0.052279
O38	O	0.880115	0.704849	0.052338
C39	C	0.652765	0.633740	0.000029
C40	C	0.557853	0.633738	0.000031
C41	C	0.932413	0.443669	0.000013
C42	C	0.932411	0.379159	0.000009
C43	C	0.384067	0.633753	0.000021
C44	C	0.480771	0.633748	0.000024
C45	C	0.987012	0.348858	-0.054604
C46	C	0.987023	0.288236	-0.054595
C47	C	0.932411	0.257928	0.000012
C48	C	0.877807	0.288233	0.054637
C49	C	0.877807	0.348849	0.054636
N50	N	0.843541	0.195531	-0.007559
N51	N	0.843543	0.137950	-0.007563
C52	C	0.932410	0.075296	0.000022
N53	N	1.021273	0.072406	0.007591
N54	N	1.021269	0.129994	0.007589
C55	C	0.932406	0.192201	0.000020
C56	C	0.987027	-0.020739	-0.054585
C57	C	0.987041	-0.081366	-0.054569
C58	C	0.877815	-0.081361	0.054657
C59	C	0.877812	-0.020741	0.054648
C60	C	0.932416	0.009569	0.000021
C61	C	1.212076	0.633749	0.000021
C62	C	1.306988	0.633751	0.000019
C63	C	0.932423	0.633740	-0.279630
C64	C	0.932423	0.633738	-0.374543
C65	C	0.932427	0.823820	0.000037
C66	C	0.932430	0.888330	0.000041
C67	C	0.932423	0.633736	-0.451622
C68	C	0.932422	0.633741	-0.548326
C69	C	0.932418	0.633749	0.279680
C70	C	0.932417	0.633751	0.374593
C71	C	1.212069	0.443673	0.000009
C72	C	1.306979	0.379165	0.000003
C73	C	0.932411	0.443673	0.279669
C74	C	0.932408	0.379165	0.374577
C75	C	1.212066	0.443678	0.279664
C76	C	1.306976	0.379171	0.374571
C77	C	0.652774	0.823811	-0.279614
C78	C	0.557865	0.888318	-0.374521
C79	C	0.652772	0.823815	0.000041
C80	C	0.557862	0.888324	0.000047
C81	C	0.932430	0.823815	-0.279619
C82	C	0.932433	0.888324	-0.374527
C83	C	1.296942	0.348870	-0.054616
C84	C	1.386111	0.288266	-0.054642
C85	C	1.485317	0.257954	-0.000042
C86	C	1.495352	0.288256	0.054579
C87	C	1.406183	0.348863	0.054598
C88	C	0.987014	0.348873	0.473764
C89	C	0.987007	0.288269	0.562949
C90	C	0.932400	0.257954	0.552945
C91	C	0.877786	0.288252	0.453748
C92	C	0.877788	0.348859	0.364565
C93	C	1.406164	0.348878	0.364532
C94	C	1.495350	0.288276	0.453698
C95	C	1.485345	0.257963	0.552904
C96	C	1.386146	0.288262	0.562941
C97	C	1.296963	0.348868	0.473776
C98	C	0.458677	0.918618	-0.364481
C99	C	0.369491	0.979239	-0.453648
C100	C	0.379495	1.009555	-0.552854
C101	C	0.478694	0.979252	-0.562891
C102	C	0.567878	0.918636	-0.473726
C103	C	0.567899	0.918626	0.054657
C104	C	0.478730	0.979246	0.054658
C105	C	0.379524	1.009560	0.000055
C106	C	0.369489	0.979256	-0.054562
C107	C	0.458657	0.918640	-0.054569
C108	C	0.987051	0.918619	-0.364490
C109	C	0.987075	0.979224	-0.453658
C110	C	0.932473	1.009535	-0.552862
C111	C	0.877853	0.979234	-0.562897
C112	C	0.877836	0.918626	-0.473730
H113	H	1.031477	0.373533	-0.099081
H114	H	0.306868	1.058912	-0.625449
Br115	Br	0.492373	1.020359	0.128789
H116	H	0.833397	1.003923	-0.643682
Br117	Br	0.258519	1.091825	0.000075
Br118	Br	0.492255	1.020402	-0.697536
Br119	Br	1.419771	0.390008	0.229907
H120	H	0.833355	0.893966	-0.481918
H121	H	0.648639	0.893966	-0.481913
H122	H	1.031483	0.373549	0.481929
Br123	Br	0.702524	0.877502	0.128766
Br124	Br	0.445017	0.877520	-0.128685
Br125	Br	1.061145	0.247094	-0.128703
Br126	Br	1.061132	0.247162	0.697560
Br127	Br	0.803704	0.247095	0.128761
Br128	Br	1.419824	0.389967	0.128739
Br129	Br	1.372586	0.247115	0.697586
Br130	Br	0.234844	1.020402	-0.128658
H131	H	0.288727	1.003902	-0.445455
H132	H	1.031514	0.893949	-0.283720
H133	H	1.031551	1.003889	-0.445466
H134	H	0.833341	0.373520	0.099108
H135	H	1.216202	0.373525	0.481965
H136	H	0.932495	1.058886	-0.625459
Br137	Br	0.803676	0.389959	0.229957
H138	H	1.557973	0.208614	0.625500
Br139	Br	1.061137	0.020395	-0.128711
Br140	Br	0.932408	0.175701	0.673991
H141	H	0.833349	-0.106037	0.099119
Br142	Br	0.803705	0.020384	0.128770
Br143	Br	1.061147	-0.122489	-0.128696
H144	H	1.216171	0.373549	-0.099091
Br145	Br	1.372468	0.247153	-0.128773
H146	H	1.557915	0.208603	-0.000065
Br147	Br	1.629996	0.247107	0.128678
Br148	Br	0.803681	0.247101	0.440189
H149	H	1.576114	0.263612	0.445507
H150	H	0.450510	0.893938	-0.283711
