data_functionalizedCrystal
_audit_creation_method	'MofGen! by Chris Wilmer'
_symmetry_space_group_name_H-M	'P1'
_symmetry_Int_Tables_number	1
_symmetry_cell_setting	triclinic
loop_
_symmetry_equiv_pos_as_xyz
  x,y,z
_cell_length_a	13.339070
_cell_length_b	19.188930
_cell_length_c	11.804365
_cell_angle_alpha	101.784974
_cell_angle_beta	74.875130
_cell_angle_gamma	99.387037
loop_
_atom_site_label
_atom_site_type_symbol
_atom_site_fract_x
_atom_site_fract_y
_atom_site_fract_z
O1	O	1.361237	0.339586	-0.099122
O2	O	1.066910	0.293684	-0.099108
O3	O	1.222562	0.216645	-0.099092
O4	O	1.205585	0.416625	-0.099138
O5	O	1.181585	0.236898	0.098959
O6	O	1.025933	0.313937	0.098944
O7	O	1.320260	0.359839	0.098929
Cu8	Cu	1.169355	0.338737	0.117020
Cu9	Cu	1.217815	0.314786	-0.117199
O10	O	1.164608	0.436878	0.098914
C11	C	1.008766	0.296057	-0.000080
C12	C	0.896565	0.272945	-0.000074
C13	C	1.201523	0.200653	-0.000063
C14	C	1.199870	0.122826	-0.000053
C15	C	0.530990	0.452652	-0.000134
C16	C	0.636408	0.474369	-0.000143
C17	C	0.701453	0.424015	-0.000126
C18	C	0.661068	0.351940	-0.000099
C19	C	0.555641	0.330220	-0.000098
C20	C	0.726104	0.301582	-0.000090
C21	C	0.685720	0.229508	-0.000064
C22	C	0.580303	0.207791	-0.000062
C23	C	0.515258	0.258146	-0.000080
C24	C	0.831531	0.323302	-0.000091
C25	C	0.856183	0.200870	-0.000056
C26	C	0.750764	0.179154	-0.000046
C27	C	1.291203	0.095789	-0.000051
C28	C	1.289655	0.022659	-0.000070
C29	C	1.196765	-0.023428	-0.000067
C30	C	1.105421	0.003617	-0.000075
C31	C	1.106973	0.076744	-0.000068
N32	N	1.111815	-0.138445	0.067337
N33	N	1.110346	-0.207912	0.067333
C34	C	1.192082	-0.243757	-0.000091
N35	N	1.275355	-0.207508	-0.067495
N36	N	1.276826	-0.138034	-0.067486
C37	C	1.195071	-0.102723	-0.000075
C38	C	1.281744	-0.350090	-0.000112
C39	C	1.280194	-0.423222	-0.000138
C40	C	1.095954	-0.442262	-0.000131
C41	C	1.097509	-0.369132	-0.000116
C42	C	1.190405	-0.323050	-0.000101
C43	C	1.378404	0.357466	-0.000101
C44	C	1.490607	0.380578	-0.000115
C45	C	1.185648	0.452870	-0.000118
C46	C	1.187303	0.530696	-0.000136
N47	N	1.135278	0.355585	0.281757
N48	N	1.251900	0.297935	-0.281936
C49	C	1.333731	0.257465	0.655726
C50	C	1.359509	0.244717	0.531067
C51	C	1.303453	0.272433	0.468734
C52	C	1.221616	0.312899	0.531071
C53	C	1.195840	0.325653	0.655743
C54	C	1.165562	0.340620	0.468750
C55	C	1.083725	0.381087	0.531088
C56	C	1.057953	0.393838	0.655747
C57	C	1.114009	0.366123	0.718080
C58	C	1.191338	0.327866	0.344079
C59	C	1.053447	0.396054	0.344095
C60	C	1.027669	0.408802	0.468754
H61	H	0.787289	0.441701	-0.000136
H62	H	0.961035	0.441751	0.519525
H63	H	1.023134	-0.347118	-0.000110
H64	H	1.032596	0.098756	-0.000069
H65	H	0.669283	0.533051	-0.000174
H66	H	1.007803	0.418625	0.293344
C67	C	1.003243	-0.047075	-0.000067
H68	H	1.015396	-0.094499	-0.000058
H69	H	0.979936	-0.046060	-0.069129
H70	H	0.951359	-0.031945	0.069010
H71	H	1.366847	0.133305	-0.000043
H72	H	0.478024	0.493641	-0.000158
C73	C	0.706336	0.099874	-0.000029
H74	H	0.634238	0.094154	-0.000040
H75	H	0.714383	0.085341	0.069040
H76	H	0.742969	0.071219	-0.069099
C77	C	0.967942	0.438355	0.724321
H78	H	0.960627	0.441986	0.807493
H79	H	0.904742	0.415597	0.703914
H80	H	0.982942	0.484955	0.703874
C81	C	0.927716	0.145474	-0.000037
H82	H	0.888571	0.099438	-0.000040
H83	H	0.955063	0.158464	0.069027
H84	H	0.983645	0.144341	-0.069112
C85	C	1.281356	0.283362	0.275515
H86	H	1.288689	0.279741	0.192343
H87	H	1.266376	0.236765	0.295959
H88	H	1.344552	0.306135	0.295934
H89	H	1.364033	0.000640	-0.000074
C90	C	1.383926	-0.299398	-0.000109
H91	H	1.438105	-0.325979	-0.000128
H92	H	1.374073	-0.263422	0.068961
H93	H	1.402650	-0.277530	-0.069178
C94	C	1.380666	-0.452963	-0.000134
H95	H	1.436207	-0.415041	-0.000113
H96	H	1.398188	-0.488147	-0.069203
H97	H	1.369589	-0.474039	0.068936
H98	H	0.429417	0.240467	-0.000072
C99	C	1.395384	0.226980	0.724287
H100	H	1.447816	0.201055	0.669311
H101	H	1.349098	0.195862	0.772940
H102	H	1.427295	0.265222	0.772897
H103	H	1.020322	-0.479786	-0.000134
C104	C	1.085659	0.380148	0.855207
H105	H	1.130768	0.357847	0.883396
H106	H	1.015269	0.360949	0.883431
H107	H	1.093471	0.430306	0.883391
C108	C	1.449553	0.200237	0.462499
H109	H	1.456893	0.196626	0.379327
H110	H	1.434606	0.153634	0.482920
H111	H	1.512735	0.223028	0.482933
C112	C	0.875947	0.402578	-0.000116
H113	H	0.948049	0.408304	-0.000123
H114	H	0.839311	0.431235	0.068940
H115	H	0.867897	0.417101	-0.069199
C116	C	0.535881	0.128511	-0.000054
H117	H	0.463784	0.122786	-0.000070
H118	H	0.543928	0.113975	0.069013
H119	H	0.572521	0.099860	-0.069125
H120	H	1.324446	0.262051	0.367230
