data_functionalizedCrystal
_audit_creation_method	'MofGen! by Chris Wilmer'
_symmetry_space_group_name_H-M	'P1'
_symmetry_Int_Tables_number	1
_symmetry_cell_setting	triclinic
loop_
_symmetry_equiv_pos_as_xyz
  x,y,z
_cell_length_a	20.875859
_cell_length_b	20.875641
_cell_length_c	23.196401
_cell_angle_alpha	90.012211
_cell_angle_beta	58.320594
_cell_angle_gamma	56.009162
loop_
_atom_site_label
_atom_site_type_symbol
_atom_site_fract_x
_atom_site_fract_y
_atom_site_fract_z
Zr1	Zr	0.693643	0.604278	-0.088061
O2	O	0.843617	0.489889	-0.190872
O3	O	0.549403	0.644612	-0.051790
O4	O	0.691114	0.636982	-0.178916
O5	O	0.701902	0.497545	0.031126
O6	O	0.682598	0.747020	-0.174892
O7	O	0.701905	0.497518	-0.063746
O8	O	0.429102	0.760668	0.052513
O9	O	0.955397	0.483897	-0.196279
O10	O	0.600252	0.737570	-0.039061
O11	O	0.606605	0.655470	0.028738
O12	O	0.773452	0.646487	-0.120936
O13	O	0.779804	0.564386	-0.053137
Zr14	Zr	0.680055	0.779818	0.069668
Zr15	Zr	0.680061	0.779776	-0.081642
Zr16	Zr	0.693637	0.604320	0.063250
Zr17	Zr	0.871920	0.594721	-0.096684
Zr18	Zr	0.501778	0.789375	0.078291
O19	O	0.824296	0.739484	0.033398
O20	O	0.824304	0.739424	-0.181746
O21	O	0.843608	0.489949	0.024272
O22	O	0.530082	0.894207	0.172480
O23	O	0.530090	0.894147	-0.042664
O24	O	0.549394	0.644672	0.163354
O25	O	0.671797	0.886551	-0.049519
O26	O	0.682584	0.747114	0.160524
O27	O	0.691101	0.637076	0.156500
O28	O	0.671793	0.886578	0.045354
O29	O	0.944601	0.623394	-0.191177
O30	O	0.429097	0.760702	0.172785
O31	O	0.418301	0.900199	0.177886
O32	O	0.418306	0.900166	0.057615
O33	O	0.955392	0.483930	-0.076007
O34	O	0.944596	0.623428	-0.070906
O35	O	0.600247	0.737609	0.102544
O36	O	0.593894	0.819710	0.034745
O37	O	0.767093	0.728626	-0.047131
O38	O	0.773446	0.646526	0.020668
C39	C	0.463852	0.704002	0.001590
C40	C	0.388168	0.708059	0.005251
C41	C	-0.045150	0.738044	0.032091
C42	C	0.025995	0.734186	0.028637
C43	C	0.127820	0.668316	-0.030549
C44	C	0.158500	0.606305	-0.086289
C45	C	0.087355	0.610168	-0.082837
C46	C	0.347703	0.649911	-0.047037
C47	C	0.418848	0.646052	-0.050483
C48	C	0.286338	0.773933	0.064442
C49	C	0.215198	0.777787	0.067891
C50	C	0.245883	0.715779	0.012150
N51	N	0.200544	0.664369	-0.034080
N52	N	0.173160	0.719730	0.015678
C53	C	0.703839	0.472527	-0.017224
C54	C	0.709605	0.398024	-0.019949
C55	C	0.621908	0.410564	0.021505
C56	C	0.627332	0.340557	0.018943
C57	C	0.720453	0.258010	-0.025077
C58	C	0.808157	0.245471	-0.066533
C59	C	0.802732	0.315477	-0.063967
C60	C	0.746372	0.043539	-0.037333
C61	C	0.751790	-0.026468	-0.039898
C62	C	0.570964	0.068623	0.045580
C63	C	0.565548	0.138626	0.048139
C64	C	0.653251	0.126081	0.006687
N65	N	0.726000	0.186451	-0.027699
N66	N	0.647704	0.197640	0.009313
C67	C	0.909847	0.680094	-0.019982
C68	C	0.985530	0.676037	-0.023643
C69	C	0.686857	0.691995	-0.198463
C70	C	0.686859	0.691977	-0.262698
C71	C	0.669860	0.911569	-0.001168
C72	C	0.664093	0.986072	0.001557
C73	C	0.777265	0.644437	-0.335609
C74	C	0.777264	0.644458	-0.395963
C75	C	0.686854	0.692008	-0.383403
C76	C	0.596437	0.739558	-0.310479
C77	C	0.596439	0.739543	-0.250127
C78	C	0.620602	0.689496	-0.447715
C79	C	0.620604	0.689505	-0.508069
C80	C	0.686843	0.692060	-0.569548
C81	C	0.753098	0.694589	-0.570676
C82	C	0.753101	0.694574	-0.510323
C83	C	0.686842	0.692030	-0.448840
C84	C	0.777254	0.644540	-0.707906
C85	C	0.777250	0.644567	-0.768259
C86	C	0.596420	0.739662	-0.682773
C87	C	0.596427	0.739641	-0.622421
C88	C	0.686847	0.692075	-0.634993
C89	C	0.686842	0.692101	0.180070
C90	C	0.686839	0.692119	0.244306
C91	C	0.446862	0.923523	0.009618
C92	C	0.365413	1.002083	0.016004
C93	C	0.463844	0.704055	0.190857
C94	C	0.388158	0.708129	0.258753
C95	C	0.446855	0.923576	0.198885
C96	C	0.365403	1.002154	0.269505
C97	C	0.926844	0.460520	-0.217277
C98	C	1.008296	0.381942	-0.287898
C99	C	0.926836	0.460573	-0.028011
C100	C	1.008286	0.382013	-0.034396
C101	C	0.909854	0.680041	-0.209249
C102	C	0.985540	0.675966	-0.277145
C103	C	0.330482	0.996100	-0.019530
C104	C	0.253962	1.069909	-0.013545
C105	C	0.212369	1.149700	0.027978
C106	C	0.247307	1.155681	0.063512
C107	C	0.323830	1.081873	0.057523
C108	C	0.349296	0.752919	0.329169
C109	C	0.278192	0.756744	0.392970
C110	C	0.245945	0.715784	0.386353
C111	C	0.284814	0.670989	0.315929
C112	C	0.355923	0.667159	0.252129
C113	C	0.323835	1.081918	0.267280
C114	C	0.247312	1.155757	0.333629
C115	C	0.212352	1.149830	0.402204
C116	C	0.253927	1.070057	0.404428
C117	C	0.330454	0.996220	0.338079
C118	C	1.049872	0.302177	-0.285672
C119	C	1.126417	0.228337	-0.352023
C120	C	1.161380	0.234264	-0.420598
C121	C	1.119801	0.314037	-0.422822
C122	C	1.043262	0.387875	-0.356472
C123	C	1.043223	0.387996	0.001131
C124	C	1.119763	0.314186	-0.004872
C125	C	1.161359	0.234394	-0.046397
C126	C	1.126418	0.228413	-0.081928
C127	C	1.049884	0.302222	-0.075930
C128	C	1.017763	0.716936	-0.270504
C129	C	1.088868	0.713124	-0.334293
C130	C	1.127752	0.668336	-0.404722
C131	C	1.095522	0.627366	-0.411362
C132	C	1.024414	0.631184	-0.347573
H133	H	0.001006	0.784681	0.074020
F134	F	0.266873	0.536204	-0.149282
H135	H	1.009362	0.452959	0.034949
H136	H	0.352261	1.086757	0.086463
F137	F	0.250484	0.627400	0.308898
F138	F	0.533992	0.353910	0.063071
F139	F	0.976392	0.764608	-0.195553
H140	H	1.223704	0.174134	-0.474619
F141	F	0.170263	0.719868	0.454262
F142	F	0.216790	1.063525	-0.051365
F143	F	0.550051	0.686831	-0.382265
H144	H	0.364346	0.931136	-0.053351
H145	H	0.387555	0.630690	0.194795
H146	H	0.807046	0.696635	-0.511243
F147	F	0.130903	1.228422	0.472814
F148	F	1.123161	0.756729	-0.327211
F149	F	0.896072	0.302128	-0.108086
H150	H	0.352288	1.086760	0.211449
F151	F	0.216710	1.063763	0.477417
H152	H	1.021441	0.297339	-0.104858
H153	H	0.499561	0.078827	0.079329
H154	H	0.364289	0.931276	0.339902
H155	H	0.807040	0.696666	-0.620736
F156	F	1.170653	0.143446	-0.349641
F157	F	0.873484	0.593933	-0.721282
H158	H	1.185653	0.665234	-0.456657
F159	F	1.012674	0.295851	-0.212696
H160	H	1.148278	0.318852	-0.478664
F161	F	-0.153519	0.808150	0.095088
H162	H	1.009411	0.452821	-0.358293
F163	F	0.203075	1.240648	0.331247
F164	F	1.156933	0.320569	0.032951
F165	F	1.242812	0.155847	-0.052774
H166	H	0.246552	0.793224	0.450306
F167	F	1.170695	0.143486	-0.126118
F168	F	1.136922	0.579696	-0.486325
F169	F	0.500216	0.790167	-0.297112
H170	H	0.375543	0.786275	0.334571
F171	F	0.990134	0.587568	-0.354654
F172	F	0.203028	1.240609	0.107704
H173	H	0.112343	0.559676	-0.128223
H174	H	0.261364	0.824417	0.109823
F175	F	0.106829	0.847891	0.130889
H176	H	0.501765	0.592394	-0.098670
H177	H	0.546078	0.477774	0.057355
F178	F	0.380372	0.583911	-0.106359
H179	H	0.489718	0.205836	0.083972
F180	F	0.839715	0.030179	-0.081452
F181	F	0.850908	-0.114325	-0.086759
H182	H	0.883979	0.178255	-0.102372
F183	F	0.873499	0.593799	-0.348993
F184	F	0.500198	0.790278	-0.669400
F185	F	0.873477	0.593969	-0.845862
F186	F	0.873490	0.593858	-0.473572
H187	H	0.150058	1.209793	0.032850
H188	H	0.522809	0.778350	-0.563052
H189	H	0.522818	0.778257	-0.190757
F190	F	0.550096	0.686806	-0.506867
