data_functionalizedCrystal
_audit_creation_method	'MofGen! by Chris Wilmer'
_symmetry_space_group_name_H-M	'P1'
_symmetry_Int_Tables_number	1
_symmetry_cell_setting	triclinic
loop_
_symmetry_equiv_pos_as_xyz
  x,y,z
_cell_length_a	10.686220
_cell_length_b	17.638516
_cell_length_c	10.686551
_cell_angle_alpha	82.293746
_cell_angle_beta	89.691918
_cell_angle_gamma	104.625439
loop_
_atom_site_label
_atom_site_type_symbol
_atom_site_fract_x
_atom_site_fract_y
_atom_site_fract_z
Zn1	Zn	1.915248	-0.192259	0.628737
Zn2	Zn	1.856671	-0.334994	0.468239
Zn3	Zn	1.683381	-0.212432	0.442017
Zn4	Zn	1.663576	-0.333396	0.693465
O5	O	1.779719	-0.268271	0.558115
O6	O	2.085326	-0.203419	0.591332
O7	O	1.817458	-0.327848	0.292359
O8	O	1.746942	-0.099397	0.428723
O9	O	2.042290	-0.308287	0.473415
O10	O	1.917293	-0.084576	0.565906
O11	O	1.690143	-0.237802	0.273094
O12	O	1.502906	-0.236252	0.491487
O13	O	1.713186	-0.305563	0.857280
O14	O	1.488355	-0.325124	0.676225
O15	O	1.898089	-0.201870	0.809725
O16	O	1.798254	-0.445142	0.536178
O17	O	1.656387	-0.443967	0.701651
C18	C	1.449516	-0.282704	0.588035
C19	C	1.308251	-0.288897	0.600871
C20	C	1.718852	-0.473166	0.628808
C21	C	1.692933	-0.560814	0.659081
C22	C	1.977396	-0.851965	0.328155
C23	C	1.953021	-0.934323	0.356623
C24	C	1.805146	-0.933158	0.528818
C25	C	1.829504	-0.850798	0.500359
C26	C	1.915631	-0.810208	0.400027
C27	C	1.767740	-0.809041	0.572232
C28	C	1.792101	-0.726688	0.543780
C29	C	1.878227	-0.686091	0.443455
C30	C	1.939993	-0.727855	0.371575
C31	C	1.681620	-0.849632	0.672569
C32	C	1.619856	-0.807875	0.744442
C33	C	1.644210	-0.725521	0.715985
C34	C	1.730336	-0.684925	0.615660
C35	C	1.582445	-0.683758	0.787865
C36	C	1.606806	-0.601405	0.759413
C37	C	1.754697	-0.602571	0.587208
C38	C	2.111211	-0.253781	0.528078
C39	C	2.252473	-0.247606	0.515278
C40	C	1.809962	-0.251288	0.879454
C41	C	1.822850	-0.244051	1.016389
C42	C	1.840861	-0.062572	0.487169
C43	C	1.866916	0.025085	0.456937
C44	C	1.749683	-0.285127	0.237999
C45	C	1.737108	-0.292131	0.100965
H46	H	1.247923	-0.328991	0.683970
F47	F	1.628272	-0.353177	1.058685
F48	F	1.931702	-0.183009	1.058676
H49	H	1.312792	-0.207520	0.432178
H50	H	2.010116	-0.694805	0.289866
H51	H	1.824820	-0.569522	0.505499
H52	H	1.898064	-0.619034	0.420294
H53	H	2.003328	-0.968319	0.298092
F54	F	2.069040	-0.808763	0.221351
H55	H	1.735026	-0.966217	0.610511
H56	H	1.549735	-0.840934	0.826136
F57	F	1.655242	-0.937319	0.702483
H58	H	1.512330	-0.716818	0.869563
F59	F	1.541072	-0.556961	0.835910
