data_functionalizedCrystal
_audit_creation_method	'MofGen! by Chris Wilmer'
_symmetry_space_group_name_H-M	'P1'
_symmetry_Int_Tables_number	1
_symmetry_cell_setting	triclinic
loop_
_symmetry_equiv_pos_as_xyz
  x,y,z
_cell_length_a	10.489741
_cell_length_b	10.489768
_cell_length_c	8.965430
_cell_angle_alpha	89.995231
_cell_angle_beta	89.994197
_cell_angle_gamma	95.455169
loop_
_atom_site_label
_atom_site_type_symbol
_atom_site_fract_x
_atom_site_fract_y
_atom_site_fract_z
O1	O	0.180140	-1.694020	-0.123959
O2	O	0.196996	-1.322829	-0.123980
O3	O	0.002971	-1.516871	-0.123960
O4	O	0.374165	-1.499978	-0.123979
O5	O	0.002957	-1.516880	0.124119
O6	O	0.196982	-1.322838	0.124099
O7	O	0.180126	-1.694030	0.124120
Cu8	Cu	0.188553	-1.508435	0.146761
Cu9	Cu	0.188569	-1.508424	-0.146621
O10	O	0.374151	-1.499988	0.124100
C11	C	0.195708	-1.275302	0.000057
C12	C	0.191877	-1.133675	0.000050
C13	C	-0.044568	-1.515600	0.000078
C14	C	-0.186198	-1.511783	0.000076
C15	C	0.066141	-0.980818	0.000079
C16	C	0.128997	-1.058216	0.122386
C17	C	0.129040	-1.058162	-0.122200
C18	C	0.247971	-0.958726	0.122498
C19	C	0.247996	-0.958666	-0.122198
C20	C	0.310940	-1.036015	0.000139
C21	C	-0.254350	-1.388319	0.000058
C22	C	-0.346474	-1.446647	0.122377
C23	C	-0.346435	-1.446667	-0.122210
C24	C	-0.276456	-1.570161	0.122495
C25	C	-0.276407	-1.570164	-0.122201
C26	C	-0.368503	-1.628581	0.000148
C27	C	0.421690	-1.501259	0.000058
C28	C	0.563320	-1.505076	0.000051
C29	C	0.181393	-0.741558	0.000083
C30	C	0.185164	-0.883193	0.000090
N31	N	0.188571	-1.508416	-0.352970
C32	C	0.278126	-1.418500	-0.450276
C33	C	0.162536	-1.392985	-0.549689
C34	C	0.304119	-1.533910	-0.549684
C35	C	0.072923	-1.482844	-0.450194
C36	C	0.214582	-1.623820	-0.450181
C37	C	0.098910	-1.598354	-0.549549
N38	N	0.188541	-1.508452	0.353110
H39	H	-0.037362	-0.956098	0.000208
F40	F	0.243414	-1.751323	-0.393003
H41	H	-0.024830	-1.461181	-0.406677
F42	F	0.313620	-0.901800	-0.257368
F43	F	-0.386934	-1.378352	-0.257368
F44	F	-0.235813	-1.638384	-0.257368
H45	H	0.078778	-1.101601	-0.225605
H46	H	0.023080	-1.674413	-0.592864
H47	H	-0.377496	-1.394411	0.225783
H48	H	-0.204709	-1.286809	0.000176
F49	F	0.133751	-1.265445	-0.606825
H50	H	-0.245624	-1.622359	0.226023
F51	F	0.063320	-1.115046	0.257554
F52	F	0.313593	-0.902167	0.257812
H53	H	0.414521	-1.060491	0.000201
F54	F	-0.433094	-1.761380	0.000240
F55	F	0.377017	-1.319028	-0.393295
F56	F	0.431858	-1.562078	-0.606807
