data_functionalizedCrystal
_audit_creation_method	'MofGen! by Chris Wilmer'
_symmetry_space_group_name_H-M	'P1'
_symmetry_Int_Tables_number	1
_symmetry_cell_setting	triclinic
loop_
_symmetry_equiv_pos_as_xyz
  x,y,z
_cell_length_a	6.394989
_cell_length_b	16.109301
_cell_length_c	15.186229
_cell_angle_alpha	89.999362
_cell_angle_beta	90.000778
_cell_angle_gamma	95.020404
loop_
_atom_site_label
_atom_site_type_symbol
_atom_site_fract_x
_atom_site_fract_y
_atom_site_fract_z
O1	O	-0.268480	1.105973	-0.073167
O2	O	-0.301892	0.864264	-0.073180
O3	O	0.018881	0.988549	-0.073174
O4	O	-0.589252	0.981688	-0.073173
O5	O	0.018885	0.988541	0.073283
O6	O	-0.301887	0.864256	0.073277
O7	O	-0.268475	1.105964	0.073290
Zn8	Zn	-0.285181	0.985109	0.096537
Zn9	Zn	-0.285187	0.985120	-0.096427
O10	O	-0.589248	0.981679	0.073284
C11	C	-0.300536	0.833271	0.000047
C12	C	-0.296479	0.740933	0.000041
N13	N	-0.285175	0.985107	0.228229
C14	C	-0.477384	0.520575	0.000052
C15	C	-0.473555	0.433814	0.000057
C16	C	-0.092969	0.449660	0.000053
C17	C	-0.096800	0.536419	0.000054
C18	C	-0.289014	0.571874	0.000049
C19	C	-0.281354	0.398354	0.000054
C20	C	-0.277201	0.304284	0.000060
C21	C	-0.293168	0.665950	0.000044
C22	C	0.096703	0.987189	0.000051
C23	C	0.332935	0.983042	0.000050
C24	C	-0.269831	1.136958	0.000061
C25	C	-0.273889	1.229296	0.000061
N26	N	-0.285175	0.985128	-0.228120
C27	C	-0.143185	1.040160	0.453955
C28	C	-0.143180	1.040163	0.546145
C29	C	-0.427172	0.930069	0.546148
C30	C	-0.427166	0.930063	0.453960
C31	C	-0.285175	0.985113	0.407866
C32	C	-0.285176	0.985122	0.592244
C33	C	-0.285172	0.985124	0.692200
C34	C	-0.285176	0.985110	0.307904
H35	H	-0.626945	0.392050	0.000062
H36	H	-0.027564	1.084984	0.416427
C37	C	0.107796	0.592081	-0.000133
C38	C	0.223502	0.575777	-0.075495
C39	C	0.411963	0.627044	-0.075699
H40	H	0.186868	0.581164	0.050879
H41	H	0.078070	0.648841	-0.000178
H42	H	0.253233	0.519030	-0.075442
H43	H	0.144494	0.586699	-0.126519
H44	H	0.382237	0.683803	-0.075744
H45	H	0.491016	0.616123	-0.024684
H46	H	0.490484	0.615994	-0.126835
H47	H	-0.633896	0.549440	0.000054
H48	H	0.063525	0.420781	0.000063
H49	H	-0.542792	0.885233	0.416432
C50	C	0.011071	1.100023	0.596025
C51	C	0.135379	1.148242	0.535922
C52	C	0.277487	1.203403	0.581839
H53	H	0.098246	1.069305	0.631993
H54	H	-0.064043	1.135464	0.631966
H55	H	0.210487	1.112806	0.499996
H56	H	0.048261	1.178978	0.499952
H57	H	0.202373	1.238844	0.617780
H58	H	0.364647	1.172678	0.617806
H59	H	0.361834	1.236132	0.541066
C60	C	-0.581006	0.870265	0.596311
C61	C	-0.469708	0.818227	0.649263
C62	C	-0.611354	0.763134	0.695493
H63	H	-0.665630	0.837397	0.555760
H64	H	-0.667947	0.901065	0.632319
H65	H	-0.382802	0.787430	0.613258
H66	H	-0.385091	0.851072	0.689830
H67	H	-0.698296	0.793934	0.731500
H68	H	-0.695970	0.730272	0.654935
H69	H	-0.535859	0.727825	0.731432
