data_functionalizedCrystal
_audit_creation_method	'MofGen! by Chris Wilmer'
_symmetry_space_group_name_H-M	'P1'
_symmetry_Int_Tables_number	1
_symmetry_cell_setting	triclinic
loop_
_symmetry_equiv_pos_as_xyz
  x,y,z
_cell_length_a	15.995350
_cell_length_b	15.995350
_cell_length_c	7.681215
_cell_angle_alpha	96.425396
_cell_angle_beta	96.425432
_cell_angle_gamma	83.492375
loop_
_atom_site_label
_atom_site_type_symbol
_atom_site_fract_x
_atom_site_fract_y
_atom_site_fract_z
O1	O	1.118046	0.114984	0.146276
O2	O	0.874272	0.128314	0.146311
O3	O	1.002822	-0.000239	0.146291
O4	O	0.989495	0.243537	0.146296
O5	O	0.988676	-0.014374	-0.146577
O6	O	0.860126	0.114179	-0.146557
O7	O	1.103899	0.100850	-0.146592
Zn8	Zn	0.979766	0.105270	-0.193074
Zn9	Zn	0.998405	0.123893	0.192793
O10	O	0.975349	0.229402	-0.146572
C11	C	0.836004	0.120695	-0.000118
C12	C	0.743055	0.119044	-0.000105
C13	C	0.405305	0.113110	-0.000141
C14	C	0.452708	0.021527	-0.000797
C15	C	0.549430	0.023211	-0.000124
C16	C	0.572867	0.116054	-0.000124
C17	C	0.539858	0.169281	0.167112
C18	C	0.443228	0.166988	0.167240
C19	C	0.426802	0.152805	-0.165806
C20	C	0.523641	0.152678	-0.168004
C21	C	0.667565	0.117722	-0.000109
C22	C	0.310607	0.111445	-0.000145
C23	C	0.995198	-0.038501	-0.000140
C24	C	0.993547	-0.131451	-0.000130
C25	C	0.987615	-0.469198	-0.000135
C26	C	0.896095	-0.421732	0.000536
C27	C	0.897715	-0.325074	-0.000125
C28	C	0.990557	-0.301638	-0.000131
C29	C	1.027635	-0.350787	-0.167377
C30	C	1.025329	-0.447429	-0.167516
C31	C	1.043307	-0.431714	0.165529
C32	C	1.043392	-0.334662	0.167740
C33	C	0.992225	-0.206940	-0.000135
C34	C	0.985949	-0.563897	-0.000143
C35	C	1.142167	0.108468	-0.000159
C36	C	1.235117	0.110120	-0.000161
C37	C	0.982973	0.267664	-0.000137
C38	C	0.984625	0.360615	-0.000136
N39	N	0.967052	0.092560	-0.456417
N40	N	1.011126	0.136597	0.456136
H41	H	0.868010	-0.290865	0.119764
N42	N	0.426966	0.131359	0.332824
H43	H	0.482512	0.117288	0.405046
H44	H	0.397444	0.078397	0.300264
N45	N	0.855285	-0.438611	0.159388
H46	H	0.890463	-0.418253	0.270255
H47	H	0.851435	-0.501329	0.156915
H48	H	0.554283	0.237790	0.173330
N49	N	0.579425	-0.031464	-0.158922
H50	H	0.529790	-0.056881	-0.229989
H51	H	0.622718	-0.078220	-0.118849
N52	N	0.551902	0.101109	-0.331897
H53	H	0.596405	0.054217	-0.297562
H54	H	0.576321	0.138770	-0.406073
H55	H	0.922086	0.047612	-0.531649
H56	H	1.056100	0.181543	-0.468623
N57	N	0.420506	-0.034618	-0.159665
H58	H	0.374875	-0.001236	-0.232756
H59	H	0.396501	-0.084164	-0.119630
H60	H	0.438875	-0.009144	0.118472
N61	N	0.973712	-0.479665	-0.333107
H62	H	0.914338	-0.450257	-0.335926
H63	H	0.971764	-0.542642	-0.334761
N64	N	0.594015	-0.016446	0.158949
H65	H	0.574402	0.016480	0.269590
H66	H	0.657094	-0.015518	0.159893
N67	N	0.400985	0.256501	0.177224
H68	H	0.445160	0.297274	0.181539
H69	H	0.370375	0.268517	0.286817
N70	N	0.585384	0.135694	0.331991
H71	H	0.616230	0.181664	0.403986
H72	H	0.627362	0.086017	0.298603
N73	N	0.391496	0.105059	-0.333723
H74	H	0.361203	0.057208	-0.304100
H75	H	0.439251	0.081388	-0.406286
N76	N	0.543339	0.241715	-0.181398
H77	H	0.584634	0.259654	-0.078366
H78	H	0.489471	0.281281	-0.179972
N79	N	1.117586	-0.332466	-0.175598
H80	H	1.121538	-0.306185	-0.287607
H81	H	1.156240	-0.386929	-0.173870
N82	N	1.133723	-0.313675	0.181111
H83	H	1.173205	-0.367647	0.179618
H84	H	1.146697	-0.276973	0.294584
N85	N	0.384664	0.242145	-0.167316
H86	H	0.351803	0.256868	-0.061270
H87	H	0.344864	0.246787	-0.278341
N88	N	0.840202	-0.455302	-0.157429
H89	H	0.873907	-0.501123	-0.229423
H90	H	0.818344	-0.407790	-0.231973
H91	H	1.092178	-0.480044	-0.175109
N92	N	0.842708	-0.295829	-0.159192
H93	H	0.782784	-0.308932	-0.154044
H94	H	0.865023	-0.326131	-0.269751
H95	H	0.990260	-0.328412	-0.291830
N96	N	1.011774	-0.450818	0.333442
H97	H	0.951396	-0.424980	0.338974
H98	H	1.048453	-0.426200	0.437964
N99	N	1.007633	-0.290604	0.331640
H100	H	0.957420	-0.249421	0.297314
H101	H	1.052442	-0.259023	0.405855
N102	N	1.132792	-0.473707	0.167025
H103	H	1.137275	-0.516802	0.060973
H104	H	1.148155	-0.502792	0.278045
