data_functionalizedCrystal
_audit_creation_method	'MofGen! by Chris Wilmer'
_symmetry_space_group_name_H-M	'P1'
_symmetry_Int_Tables_number	1
_symmetry_cell_setting	triclinic
loop_
_symmetry_equiv_pos_as_xyz
  x,y,z
_cell_length_a	19.805407
_cell_length_b	29.839131
_cell_length_c	19.805399
_cell_angle_alpha	89.970435
_cell_angle_beta	89.980427
_cell_angle_gamma	90.041420
loop_
_atom_site_label
_atom_site_type_symbol
_atom_site_fract_x
_atom_site_fract_y
_atom_site_fract_z
Zn1	Zn	1.034665	-0.178864	-0.382710
Zn2	Zn	1.534665	0.321136	0.117290
Zn3	Zn	1.034550	-0.253991	-0.269518
Zn4	Zn	1.534550	0.246009	0.230482
Zn5	Zn	0.921480	-0.178876	-0.269535
Zn6	Zn	1.421480	0.321124	0.230465
Zn7	Zn	0.921414	-0.253967	-0.382665
Zn8	Zn	1.421414	0.246033	0.117335
O9	O	0.978027	-0.216425	-0.326107
O10	O	1.478027	0.283575	0.173893
O11	O	1.129366	-0.188834	-0.367707
O12	O	1.629366	0.311166	0.132293
O13	O	1.019531	-0.244042	-0.174804
O14	O	1.519531	0.255958	0.325196
O15	O	0.936570	-0.116007	-0.284574
O16	O	1.436570	0.383993	0.215426
O17	O	1.129282	-0.244030	-0.284545
O18	O	1.629282	0.255970	0.215455
O19	O	1.019727	-0.115998	-0.367723
O20	O	1.519727	0.384002	0.132277
O21	O	0.936458	-0.188856	-0.174816
O22	O	1.436458	0.311144	0.325184
O23	O	0.826754	-0.188832	-0.284530
O24	O	1.326754	0.311168	0.215470
O25	O	0.936457	-0.243990	-0.477388
O26	O	1.436457	0.256010	0.022612
O27	O	0.826706	-0.244002	-0.367646
O28	O	1.326706	0.255998	0.132354
O29	O	1.019662	-0.188811	-0.477421
O30	O	1.519662	0.311189	0.022579
O31	O	1.019467	-0.316855	-0.284501
O32	O	1.519467	0.183145	0.215499
O33	O	0.936346	-0.316838	-0.367630
O34	O	1.436346	0.183162	0.132370
C35	C	0.802171	-0.216416	-0.326085
C36	C	1.302171	0.283584	0.173915
C37	C	0.726939	-0.216423	-0.326092
C38	C	1.226939	0.283577	0.173908
C39	C	0.691587	-0.245193	-0.369300
C40	C	1.191587	0.254807	0.130700
C41	C	0.620899	-0.245194	-0.369310
C42	C	1.120899	0.254806	0.130690
C43	C	0.585564	-0.216427	-0.326107
C44	C	1.085564	0.283573	0.173893
C45	C	0.620920	-0.187654	-0.282897
C46	C	1.120920	0.312346	0.217103
C47	C	0.691607	-0.187651	-0.282891
C48	C	1.191607	0.312349	0.217109
C49	C	0.335847	-0.187664	-0.282919
C50	C	0.835847	0.312336	0.217081
C51	C	0.265155	-0.187669	-0.282927
C52	C	0.765155	0.312331	0.217073
C53	C	0.265139	-0.245207	-0.369338
C54	C	0.765139	0.254793	0.130662
C55	C	0.335826	-0.245204	-0.369332
C56	C	0.835826	0.254796	0.130668
C57	C	0.371176	-0.216429	-0.326125
C58	C	0.871176	0.283571	0.173875
C59	C	0.447825	-0.216428	-0.326116
C60	C	0.947825	0.283572	0.173884
C61	C	0.508916	-0.216430	-0.326112
C62	C	1.008916	0.283570	0.173888
C63	C	0.977905	-0.333147	-0.326073
C64	C	1.477905	0.166853	0.173927
C65	C	0.977915	-0.383082	-0.326082
C66	C	1.477915	0.116918	0.173918
C67	C	1.021387	-0.692722	-0.282885
C68	C	1.521387	-0.192722	0.217115
C69	C	1.021471	-0.880395	-0.282912
C70	C	1.521471	-0.380395	0.217088
O71	O	1.058335	-0.904656	-0.246159
O72	O	1.558335	-0.404656	0.253841
N73	N	0.978168	-0.903867	-0.326158
N74	N	1.478168	-0.403867	0.173842
C75	C	0.934844	-0.880418	-0.369404
C76	C	1.434844	-0.380418	0.130596
O77	O	0.898019	-0.904688	-0.406194
O78	O	1.398019	-0.404688	0.093806
C79	C	0.934764	-0.692746	-0.369381
C80	C	1.434764	-0.192746	0.130619
C81	C	0.978065	-0.669276	-0.326127
C82	C	1.478065	-0.169276	0.173873
C83	C	1.064685	-0.669252	-0.239635
C84	C	1.564685	-0.169252	0.260365
C85	C	1.064661	-0.622336	-0.239626
C86	C	1.564661	-0.122336	0.260374
C87	C	1.021339	-0.598891	-0.282868
C88	C	1.521339	-0.098891	0.217132
C89	C	0.978041	-0.622360	-0.326118
C90	C	1.478041	-0.122360	0.173882
C91	C	0.891444	-0.669297	-0.412630
C92	C	1.391444	-0.169297	0.087370
C93	C	0.891429	-0.622376	-0.412621
C94	C	1.391429	-0.122376	0.087379
C95	C	0.934730	-0.598907	-0.369367
C96	C	1.434730	-0.098907	0.130633
C97	C	0.934695	-0.551999	-0.369351
C98	C	1.434695	-0.051999	0.130649
N99	N	0.977998	-0.528527	-0.326104
N100	N	1.477998	-0.028527	0.173896
C101	C	1.021320	-0.551973	-0.282863
C102	C	1.521320	-0.051973	0.217137
C103	C	0.934888	-0.978948	-0.369412
C104	C	1.434888	-0.478948	0.130588
C105	C	0.934907	-1.025866	-0.369418
C106	C	1.434907	-0.525866	0.130582
C107	C	1.021534	-1.025840	-0.282926
C108	C	1.521534	-0.525840	0.217074
C109	C	1.021512	-0.978921	-0.282918
C110	C	1.521512	-0.478921	0.217082
C111	C	0.978191	-0.955476	-0.326166
C112	C	1.478191	-0.455476	0.173834
C113	C	1.021266	-0.453447	-0.282847
C114	C	1.521266	0.046553	0.217153
C115	C	1.021237	-0.406527	-0.282840
C116	C	1.521237	0.093473	0.217160
C117	C	0.934611	-0.406558	-0.369334
C118	C	1.434611	0.093442	0.130666
C119	C	0.934638	-0.453473	-0.369339
C120	C	1.434638	0.046527	0.130661
C121	C	0.977971	-0.476917	-0.326093
C122	C	1.477971	0.023083	0.173907
O123	O	0.897855	-0.527708	-0.406090
O124	O	1.397855	-0.027708	0.093910
O125	O	1.058150	-0.527694	-0.246090
O126	O	1.558150	-0.027694	0.253910
C127	C	1.021411	-0.739637	-0.282894
C128	C	1.521411	-0.239637	0.217106
C129	C	0.978113	-0.763107	-0.326144
C130	C	1.478113	-0.263107	0.173856
C131	C	0.934791	-0.739661	-0.369386
C132	C	1.434791	-0.239661	0.130614
C133	C	0.978132	-0.810025	-0.326149
C134	C	1.478132	-0.310025	0.173851
C135	C	1.021454	-0.833470	-0.282908
C136	C	1.521454	-0.333470	0.217092
C137	C	1.064757	-0.809998	-0.239661
C138	C	1.564757	-0.309998	0.260339
C139	C	1.064733	-0.763083	-0.239653
C140	C	1.564733	-0.263083	0.260347
C141	C	0.891488	-0.763133	-0.412632
C142	C	1.391488	-0.263133	0.087368
C143	C	0.891515	-0.810049	-0.412637
C144	C	1.391515	-0.310049	0.087363
C145	C	0.934837	-0.833494	-0.369395
C146	C	1.434837	-0.333494	0.130605
C147	C	1.154570	-0.216434	-0.326129
C148	C	1.654570	0.283566	0.173871
C149	C	1.229802	-0.216437	-0.326139
C150	C	1.729802	0.283563	0.173861
C151	C	0.978065	-0.216396	-0.502650
C152	C	1.478065	0.283604	-0.002650
C153	C	0.978081	-0.216384	-0.577882
C154	C	1.478081	0.283616	-0.077882
C155	C	0.978168	-0.099246	-0.326156
C156	C	1.478168	0.400754	0.173844
C157	C	0.978228	-0.049312	-0.326176
C158	C	1.478228	0.450688	0.173824
C159	C	1.021407	-0.187652	-0.613244
C160	C	1.521407	0.312348	-0.113244
C161	C	1.021414	-0.187638	-0.683933
C162	C	1.521414	0.312362	-0.183933
C163	C	0.978098	-0.216361	-0.719258
C164	C	1.478098	0.283639	-0.219258
C165	C	0.934767	-0.245095	-0.683890
C166	C	1.434767	0.254905	-0.183890
C167	C	0.934757	-0.245105	-0.613203
C168	C	1.434757	0.254895	-0.113203
C169	C	0.934806	-0.245053	-0.968963
C170	C	1.434806	0.254947	-0.468963
C171	C	0.934820	-0.245041	-1.039656
C172	C	1.434820	0.254959	-0.539656
C173	C	1.021462	-0.187586	-1.039694
C174	C	1.521462	0.312414	-0.539694
C175	C	1.021453	-0.187597	-0.969006
C176	C	1.521453	0.312403	-0.469006
C177	C	0.978120	-0.216329	-0.933645
C178	C	1.478120	0.283671	-0.433645
C179	C	0.978112	-0.216342	-0.856997
C180	C	1.478112	0.283658	-0.356997
C181	C	0.978109	-0.216350	-0.795905
C182	C	1.478109	0.283650	-0.295905
C183	C	0.978028	-0.216420	-0.150251
C184	C	1.478028	0.283580	0.349749
C185	C	0.978143	-0.216306	-0.075019
C186	C	1.478143	0.283694	0.424981
H187	H	0.592119	-0.268622	-0.404494
H188	H	1.092119	0.231378	0.095506
Cl189	Cl	0.736050	-0.151480	-0.228571
Cl190	Cl	1.236050	0.348520	0.271429
Cl191	Cl	1.075869	-0.151543	-0.568843
Cl192	Cl	1.575869	0.348457	-0.068843
H193	H	0.856153	-0.603290	-0.447842
H194	H	1.356153	-0.103290	0.052158
Cl195	Cl	0.880330	-0.281174	-0.924518
Cl196	Cl	1.380330	0.218826	-0.424518
Cl197	Cl	1.075676	-0.377026	-0.228460
Cl198	Cl	1.575676	0.122974	0.271540
H199	H	1.056744	-0.164189	-1.068493
H200	H	1.556744	0.335811	-0.568493
H201	H	0.236387	-0.164241	-0.247745
H202	H	0.736387	0.335759	0.252255
H203	H	0.899544	-0.268431	-1.068415
H204	H	1.399544	0.231569	-0.568415
Cl205	Cl	0.576498	-0.151486	-0.228588
Cl206	Cl	1.076498	0.348514	0.271412
Cl207	Cl	1.075914	-0.151535	-0.728386
Cl208	Cl	1.575914	0.348465	-0.228386
H209	H	0.899381	-0.472583	-0.404562
H210	H	1.399381	0.027417	0.095438
Cl211	Cl	0.380278	-0.151489	-0.228603
Cl212	Cl	0.880278	0.348511	0.271397
H213	H	0.856248	-0.829154	-0.447859
H214	H	1.356248	-0.329154	0.052141
H215	H	0.899337	-0.387461	-0.404539
H216	H	1.399337	0.112539	0.095461
H217	H	1.056554	-0.472529	-0.247634
H218	H	1.556554	0.027471	0.252366
Cl219	Cl	1.075950	-0.949421	-0.228540
Cl220	Cl	1.575950	-0.449421	0.271460
H221	H	1.056727	-0.164209	-0.940249
H222	H	1.556727	0.335791	-0.440249
Cl223	Cl	0.880461	-1.055365	-0.423789
Cl224	Cl	1.380461	-0.555365	0.076211
Cl225	Cl	0.837020	-0.733666	-0.466998
Cl226	Cl	1.337020	-0.233666	0.033002
Cl227	Cl	0.880310	-0.281202	-0.728298
Cl228	Cl	1.380310	0.218798	-0.228298
Cl229	Cl	0.736002	-0.281362	-0.423613
Cl230	Cl	1.236002	0.218638	0.076387
Cl231	Cl	0.880286	-0.281227	-0.568747
Cl232	Cl	1.380286	0.218773	-0.068747
Cl233	Cl	1.119175	-0.733585	-0.185276
Cl234	Cl	1.619175	-0.233585	0.314724
H235	H	1.099922	-0.603230	-0.204407
H236	H	1.599922	-0.103230	0.295593
Cl237	Cl	1.119155	-0.698718	-0.185267
Cl238	Cl	1.619155	-0.198718	0.314733
Cl239	Cl	0.380243	-0.281371	-0.423644
Cl240	Cl	0.880243	0.218629	0.076356
Cl241	Cl	0.220694	-0.281381	-0.423658
Cl242	Cl	0.720694	0.218619	0.076342
H243	H	0.899609	-0.959863	-0.404631
H244	H	1.399609	-0.459863	0.095369
Cl245	Cl	1.075995	-1.055323	-0.228564
Cl246	Cl	1.575995	-0.555323	0.271436
H247	H	0.856180	-0.688398	-0.447849
H248	H	1.356180	-0.188398	0.052151
Cl249	Cl	1.119217	-0.839482	-0.185300
Cl250	Cl	1.619217	-0.339482	0.314700
