data_functionalizedCrystal
_audit_creation_method	'MofGen! by Chris Wilmer'
_symmetry_space_group_name_H-M	'P1'
_symmetry_Int_Tables_number	1
_symmetry_cell_setting	triclinic
loop_
_symmetry_equiv_pos_as_xyz
  x,y,z
_cell_length_a	21.295411
_cell_length_b	12.759401
_cell_length_c	21.295417
_cell_angle_alpha	89.967968
_cell_angle_beta	89.978356
_cell_angle_gamma	90.022735
loop_
_atom_site_label
_atom_site_type_symbol
_atom_site_fract_x
_atom_site_fract_y
_atom_site_fract_z
Zn1	Zn	-0.355881	-1.606170	-0.250655
Zn2	Zn	-0.250606	-1.606007	-0.355907
Zn3	Zn	-0.250629	-1.430463	-0.250659
Zn4	Zn	-0.355841	-1.430412	-0.355893
O5	O	-0.303239	-1.518263	-0.303279
O6	O	-0.341923	-1.753169	-0.264622
O7	O	-0.162520	-1.582674	-0.341953
O8	O	-0.264617	-1.453860	-0.162569
O9	O	-0.264578	-1.753049	-0.341950
O10	O	-0.341945	-1.582951	-0.162566
O11	O	-0.162537	-1.453702	-0.264627
O12	O	-0.264579	-1.283435	-0.264614
O13	O	-0.443936	-1.453773	-0.341926
O14	O	-0.341878	-1.283397	-0.341929
O15	O	-0.443965	-1.582902	-0.264608
O16	O	-0.264540	-1.582624	-0.443995
O17	O	-0.341855	-1.453615	-0.443985
C18	C	-0.303227	-1.245295	-0.303271
C19	C	-0.303236	-1.128519	-0.303283
C20	C	-0.467430	-1.518350	-0.303265
C21	C	-0.537398	-1.518387	-0.303260
C22	C	-0.303204	-1.518125	-0.466830
C23	C	-0.303211	-1.518162	-0.536798
C24	C	-0.570281	-1.585621	-0.262998
C25	C	-0.636023	-1.585620	-0.262971
C26	C	-0.668880	-1.518395	-0.303216
C27	C	-0.635990	-1.451148	-0.343480
C28	C	-0.570248	-1.451144	-0.343502
N29	N	-0.772096	-1.510289	-0.358284
N30	N	-0.834547	-1.510299	-0.358262
C31	C	-0.866955	-1.518402	-0.303152
N32	N	-0.834552	-1.526514	-0.248065
N33	N	-0.772095	-1.526510	-0.248088
C34	C	-0.740166	-1.518392	-0.303197
C35	C	-0.971124	-1.585638	-0.262858
C36	C	-1.036867	-1.585629	-0.262830
C37	C	-1.036833	-1.451163	-0.343345
C38	C	-0.971090	-1.451166	-0.343368
C39	C	-0.938240	-1.518409	-0.303125
C40	C	-0.139688	-1.518236	-0.303246
C41	C	-0.069720	-1.518403	-0.303075
C42	C	-0.303252	-1.792296	-0.303287
C43	C	-0.303258	-1.909073	-0.303290
C44	C	-0.343423	-1.073665	-0.343602
C45	C	-0.343435	-0.963941	-0.343605
C46	C	-0.263070	-0.963934	-0.262966
C47	C	-0.263061	-1.073656	-0.262961
C48	C	-0.262994	-1.585397	-0.569649
C49	C	-0.263008	-1.585446	-0.635392
C50	C	-0.303232	-1.518242	-0.668281
C51	C	-0.343457	-1.451002	-0.635422
C52	C	-0.343446	-1.450963	-0.569681
N53	N	-0.308027	-1.426335	-0.771549
N54	N	-0.308034	-1.426376	-0.834000
C55	C	-0.303268	-1.518360	-0.866356
N56	N	-0.298484	-1.610303	-0.833900
N57	N	-0.298474	-1.610261	-0.771443
C58	C	-0.303249	-1.518278	-0.739566
C59	C	-0.263065	-1.585653	-0.970492
C60	C	-0.263083	-1.585704	-1.036236
C61	C	-0.343529	-1.451251	-1.036265
C62	C	-0.343514	-1.451210	-0.970522
C63	C	-0.303278	-1.518409	-0.937640
C64	C	-0.303288	-1.518430	-0.139088
C65	C	-0.303309	-1.518501	-0.069120
H66	H	-0.543538	-1.640375	-0.230229
H67	H	-0.230359	-0.919252	-0.230139
H68	H	-0.230233	-1.640117	-0.542879
N69	N	-0.219706	-1.658225	-1.071674
H70	H	-0.229515	-1.733277	-1.060184
H71	H	-0.174736	-1.641839	-1.060256
N72	N	-0.671498	-1.658152	-0.219551
H73	H	-0.718130	-1.647951	-0.225646
H74	H	-0.660009	-1.641856	-0.174594
H75	H	-0.376209	-1.396286	-0.662204
N76	N	-0.935630	-1.378631	-0.386791
H77	H	-0.947071	-1.394891	-0.431767
H78	H	-0.889008	-1.388845	-0.380648
H79	H	-0.230258	-1.640200	-0.662144
N80	N	-0.386755	-1.132834	-0.387090
H81	H	-0.431752	-1.113789	-0.377380
H82	H	-0.380598	-1.210648	-0.380952
H83	H	-0.662746	-1.396410	-0.376246
H84	H	-0.376160	-0.919283	-0.376436
N85	N	-0.935680	-1.658159	-0.219461
H86	H	-0.947108	-1.641896	-0.174476
H87	H	-0.889056	-1.647919	-0.225649
H88	H	-0.230337	-1.118320	-0.230124
N89	N	-0.386824	-1.378441	-0.534244
H90	H	-0.412311	-1.335874	-0.565052
H91	H	-0.361167	-1.329824	-0.507011
H92	H	-0.230304	-1.640375	-0.943718
N93	N	-0.386921	-1.378773	-1.071728
H94	H	-0.380827	-1.389002	-1.118360
H95	H	-0.377082	-1.303739	-1.060285
N96	N	-0.386887	-1.378684	-0.935085
H97	H	-0.412371	-1.336115	-0.965894
H98	H	-0.361230	-1.330070	-0.907850
H99	H	-0.543476	-1.396389	-0.376287
N100	N	-1.072337	-1.658131	-0.219392
H101	H	-1.041548	-1.700722	-0.193902
H102	H	-1.099630	-1.706725	-0.245002
N103	N	-1.072262	-1.378645	-0.386748
H104	H	-1.118899	-1.388846	-0.380624
H105	H	-1.060774	-1.394948	-0.431711
