data_functionalizedCrystal
_audit_creation_method	'MofGen! by Chris Wilmer'
_symmetry_space_group_name_H-M	'P1'
_symmetry_Int_Tables_number	1
_symmetry_cell_setting	triclinic
loop_
_symmetry_equiv_pos_as_xyz
  x,y,z
_cell_length_a	25.639242
_cell_length_b	25.639239
_cell_length_c	25.639234
_cell_angle_alpha	90.021106
_cell_angle_beta	90.019181
_cell_angle_gamma	90.033587
loop_
_atom_site_label
_atom_site_type_symbol
_atom_site_fract_x
_atom_site_fract_y
_atom_site_fract_z
Zn1	Zn	0.799213	-0.208273	0.295734
Zn2	Zn	1.049213	0.041727	0.545734
Zn3	Zn	1.299213	0.291727	0.795734
Zn4	Zn	1.549213	0.541727	1.045734
Zn5	Zn	0.799140	-0.295696	0.208298
Zn6	Zn	1.049140	-0.045696	0.458298
Zn7	Zn	1.299140	0.204304	0.708298
Zn8	Zn	1.549140	0.454304	0.958298
Zn9	Zn	0.711793	-0.208268	0.208299
Zn10	Zn	0.961793	0.041732	0.458299
Zn11	Zn	1.211793	0.291732	0.708299
Zn12	Zn	1.461793	0.541732	0.958299
Zn13	Zn	0.711734	-0.295672	0.295689
Zn14	Zn	0.961734	-0.045672	0.545689
Zn15	Zn	1.211734	0.204328	0.795689
Zn16	Zn	1.461734	0.454328	1.045689
O17	O	0.755470	-0.251977	0.252005
O18	O	1.005470	-0.001977	0.502005
O19	O	1.255470	0.248023	0.752005
O20	O	1.505470	0.498023	1.002005
O21	O	0.872368	-0.219882	0.284154
O22	O	1.122368	0.030118	0.534154
O23	O	1.372368	0.280118	0.784154
O24	O	1.622368	0.530118	1.034154
O25	O	0.787547	-0.284106	0.135133
O26	O	1.037547	-0.034106	0.385133
O27	O	1.287547	0.215894	0.635133
O28	O	1.537547	0.465894	0.885133
O29	O	0.723444	-0.135104	0.219917
O30	O	0.973444	0.114896	0.469917
O31	O	1.223444	0.364896	0.719917
O32	O	1.473444	0.614896	0.969917
O33	O	0.872315	-0.284111	0.219915
O34	O	1.122315	-0.034111	0.469915
O35	O	1.372315	0.215889	0.719915
O36	O	1.622315	0.465889	0.969915
O37	O	0.787671	-0.135107	0.284155
O38	O	1.037671	0.114893	0.534155
O39	O	1.287671	0.364893	0.784155
O40	O	1.537671	0.614893	1.034155
O41	O	0.723373	-0.219874	0.135134
O42	O	0.973373	0.030126	0.385134
O43	O	1.223373	0.280126	0.635134
O44	O	1.473373	0.530126	0.885134
O45	O	0.638620	-0.219851	0.219873
O46	O	0.888620	0.030149	0.469873
O47	O	1.138620	0.280149	0.719873
O48	O	1.388620	0.530149	0.969873
O49	O	0.723344	-0.284070	0.368860
O50	O	0.973344	-0.034070	0.618860
O51	O	1.223344	0.215930	0.868860
O52	O	1.473344	0.465930	1.118860
O53	O	0.638577	-0.284065	0.284078
O54	O	0.888577	-0.034065	0.534078
O55	O	1.138577	0.215935	0.784078
O56	O	1.388577	0.465935	1.034078
O57	O	0.787614	-0.219859	0.368893
O58	O	1.037614	0.030141	0.618893
O59	O	1.287614	0.280141	0.868893
O60	O	1.537614	0.530141	1.118893
O61	O	0.787490	-0.368858	0.219872
O62	O	1.037490	-0.118858	0.469872
O63	O	1.287490	0.131142	0.719872
O64	O	1.537490	0.381142	0.969872
O65	O	0.723274	-0.368840	0.284078
O66	O	0.973274	-0.118840	0.534078
O67	O	1.223274	0.131160	0.784078
O68	O	1.473274	0.381160	1.034078
C69	C	0.619627	-0.251955	0.251971
C70	C	0.869627	-0.001955	0.501971
C71	C	1.119627	0.248045	0.751971
C72	C	1.369627	0.498045	1.001971
C73	C	0.561513	-0.251958	0.251969
C74	C	0.811513	-0.001958	0.501969
C75	C	1.061513	0.248042	0.751969
C76	C	1.311513	0.498042	1.001969
C77	C	0.310333	-0.218485	0.218631
C78	C	0.560333	0.031515	0.468631
C79	C	0.810333	0.281515	0.718631
C80	C	1.060333	0.531515	0.968631
C81	C	0.364938	-0.218480	0.218625
C82	C	0.614938	0.031520	0.468625
C83	C	0.864938	0.281520	0.718625
C84	C	1.114938	0.531520	0.968625
O85	O	0.393186	-0.189989	0.190250
O86	O	0.643186	0.060011	0.440250
O87	O	0.893186	0.310011	0.690250
O88	O	1.143186	0.560011	0.940250
N89	N	0.392239	-0.251965	0.251995
N90	N	0.642239	-0.001965	0.501995
N91	N	0.892239	0.248035	0.751995
N92	N	1.142239	0.498035	1.001995
C93	C	0.364934	-0.285453	0.285378
C94	C	0.614934	-0.035453	0.535378
C95	C	0.864934	0.214547	0.785378
C96	C	1.114934	0.464547	1.035378
O97	O	0.393170	-0.313934	0.313762
O98	O	0.643170	-0.063934	0.563762
O99	O	0.893170	0.186066	0.813762
O100	O	1.143170	0.436066	1.063762
C101	C	0.310330	-0.285455	0.285387
C102	C	0.560330	-0.035455	0.535387
C103	C	0.810330	0.214545	0.785387
C104	C	1.060330	0.464545	1.035387
C105	C	0.283032	-0.251971	0.252011
C106	C	0.533032	-0.001971	0.502011
C107	C	0.783032	0.248029	0.752011
C108	C	1.033032	0.498029	1.002011
C109	C	0.283035	-0.185004	0.185258
C110	C	0.533035	0.064996	0.435258
C111	C	0.783035	0.314996	0.685258
C112	C	1.033035	0.564996	0.935258
C113	C	0.228434	-0.185009	0.185264
C114	C	0.478434	0.064991	0.435264
C115	C	0.728434	0.314991	0.685264
C116	C	0.978434	0.564991	0.935264
C117	C	0.201132	-0.218496	0.218644
C118	C	0.451132	0.031504	0.468644
C119	C	0.701132	0.281504	0.718644
C120	C	0.951132	0.531504	0.968644
C121	C	0.228431	-0.251977	0.252017
C122	C	0.478431	-0.001977	0.502017
C123	C	0.728431	0.248023	0.752017
C124	C	0.978431	0.498023	1.002017
C125	C	0.283026	-0.318940	0.318773
C126	C	0.533026	-0.068940	0.568773
C127	C	0.783026	0.181060	0.818773
C128	C	1.033026	0.431060	1.068773
C129	C	0.228419	-0.318939	0.318779
C130	C	0.478419	-0.068939	0.568779
C131	C	0.728419	0.181061	0.818779
C132	C	0.978419	0.431061	1.068779
C133	C	0.201120	-0.285455	0.285403
C134	C	0.451120	-0.035455	0.535403
C135	C	0.701120	0.214545	0.785403
C136	C	0.951120	0.464545	1.035403
C137	C	0.146529	-0.285469	0.285402
C138	C	0.396529	-0.035469	0.535402
C139	C	0.646529	0.214531	0.785402
C140	C	0.896529	0.464531	1.035402
N141	N	0.119227	-0.251985	0.252032
N142	N	0.369227	-0.001985	0.502032
N143	N	0.619227	0.248015	0.752032
N144	N	0.869227	0.498015	1.002032
C145	C	0.146529	-0.218498	0.218652
C146	C	0.396529	0.031502	0.468652
C147	C	0.646529	0.281502	0.718652
C148	C	0.896529	0.531502	0.968652
C149	C	0.479604	-0.285446	0.285358
C150	C	0.729604	-0.035446	0.535358
C151	C	0.979604	0.214554	0.785358
C152	C	1.229604	0.464554	1.035358
C153	C	0.534207	-0.285447	0.285347
C154	C	0.784207	-0.035447	0.535347
C155	C	1.034207	0.214553	0.785347
C156	C	1.284207	0.464553	1.035347
C157	C	0.534207	-0.218473	0.218594
C158	C	0.784207	0.031527	0.468594
C159	C	1.034207	0.281527	0.718594
C160	C	1.284207	0.531527	0.968594
C161	C	0.479604	-0.218475	0.218602
C162	C	0.729604	0.031525	0.468602
C163	C	0.979604	0.281525	0.718602
C164	C	1.229604	0.531525	0.968602
C165	C	0.452303	-0.251961	0.251987
C166	C	0.702303	-0.001961	0.501987
C167	C	0.952303	0.248039	0.751987
C168	C	1.202303	0.498039	1.001987
C169	C	0.031864	-0.218513	0.218667
C170	C	0.281864	0.031487	0.468667
C171	C	0.531864	0.281487	0.718667
C172	C	0.781864	0.531487	0.968667
C173	C	-0.022742	-0.218523	0.218675
C174	C	0.227258	0.031477	0.468675
C175	C	0.477258	0.281477	0.718675
C176	C	0.727258	0.531477	0.968675
C177	C	-0.022737	-0.285494	0.285430
C178	C	0.227263	-0.035494	0.535430
C179	C	0.477263	0.214506	0.785430
C180	C	0.727263	0.464506	1.035430
C181	C	0.031864	-0.285487	0.285421
C182	C	0.281864	-0.035487	0.535421
C183	C	0.531864	0.214513	0.785421
C184	C	0.781864	0.464513	1.035421
C185	C	0.059163	-0.251991	0.252038
C186	C	0.309163	-0.001991	0.502038
C187	C	0.559163	0.248009	0.752038
C188	C	0.809163	0.498009	1.002038
O189	O	0.118246	-0.313945	0.313764
O190	O	0.368246	-0.063945	0.563764
O191	O	0.618246	0.186055	0.813764
O192	O	0.868246	0.436055	1.063764
O193	O	0.118286	-0.190017	0.190278
O194	O	0.368286	0.059983	0.440278
O195	O	0.618286	0.309983	0.690278
O196	O	0.868286	0.559983	0.940278
C197	C	0.755382	-0.387820	0.251981
C198	C	1.005382	-0.137820	0.501981
C199	C	1.255382	0.112180	0.751981
C200	C	1.505382	0.362180	1.001981
C201	C	0.755392	-0.445934	0.251988
C202	C	1.005392	-0.195934	0.501988
C203	C	1.255392	0.054066	0.751988
C204	C	1.505392	0.304066	1.001988
C205	C	0.788995	-0.806294	0.218630
C206	C	1.038995	-0.556294	0.468630
C207	C	1.288995	-0.306294	0.718630
C208	C	1.538995	-0.056294	0.968630
C209	C	0.789015	-0.860898	0.218637
C210	C	1.039015	-0.610898	0.468637
C211	C	1.289015	-0.360898	0.718637
C212	C	1.539015	-0.110898	0.968637
O213	O	0.817494	-0.889132	0.190249
O214	O	1.067494	-0.639132	0.440249
O215	O	1.317494	-0.389132	0.690249
O216	O	1.567494	-0.139132	0.940249
N217	N	0.755562	-0.888216	0.252040
N218	N	1.005562	-0.638216	0.502040
N219	N	1.255562	-0.388216	0.752040
N220	N	1.505562	-0.138216	1.002040
C221	C	0.722090	-0.860928	0.285441
C222	C	0.972090	-0.610928	0.535441
C223	C	1.222090	-0.360928	0.785441
C224	C	1.472090	-0.110928	1.035441
O225	O	0.693637	-0.889178	0.313854
O226	O	0.943637	-0.639178	0.563854
O227	O	1.193637	-0.389178	0.813854
O228	O	1.443637	-0.139178	1.063854
C229	C	0.722073	-0.806324	0.285437
C230	C	0.972073	-0.556324	0.535437
C231	C	1.222073	-0.306324	0.785437
C232	C	1.472073	-0.056324	1.035437
C233	C	0.755524	-0.779009	0.252028
C234	C	1.005524	-0.529009	0.502028
C235	C	1.255524	-0.279009	0.752028
C236	C	1.505524	-0.029009	1.002028
C237	C	0.822444	-0.778978	0.185225
C238	C	1.072444	-0.528978	0.435225
C239	C	1.322444	-0.278978	0.685225
C240	C	1.572444	-0.028978	0.935225
C241	C	0.822423	-0.724377	0.185217
C242	C	1.072423	-0.474377	0.435217
C243	C	1.322423	-0.224377	0.685217
C244	C	1.572423	0.025623	0.935217
C245	C	0.788952	-0.697092	0.218615
C246	C	1.038952	-0.447092	0.468615
C247	C	1.288952	-0.197092	0.718615
C248	C	1.538952	0.052908	0.968615
C249	C	0.755503	-0.724408	0.252021
C250	C	1.005503	-0.474408	0.502021
C251	C	1.255503	-0.224408	0.752021
C252	C	1.505503	0.025592	1.002021
C253	C	0.688604	-0.779037	0.318840
C254	C	0.938604	-0.529037	0.568840
C255	C	1.188604	-0.279037	0.818840
C256	C	1.438604	-0.029037	1.068840
C257	C	0.688590	-0.724430	0.318833
C258	C	0.938590	-0.474430	0.568833
C259	C	1.188590	-0.224430	0.818833
C260	C	1.438590	0.025570	1.068833
C261	C	0.722041	-0.697114	0.285425
C262	C	0.972041	-0.447114	0.535425
C263	C	1.222041	-0.197114	0.785425
C264	C	1.472041	0.052886	1.035425
C265	C	0.722012	-0.642523	0.285411
C266	C	0.972012	-0.392523	0.535411
C267	C	1.222012	-0.142523	0.785411
C268	C	1.472012	0.107477	1.035411
N269	N	0.755465	-0.615204	0.252008
N270	N	1.005465	-0.365204	0.502008
N271	N	1.255465	-0.115204	0.752008
N272	N	1.505465	0.134796	1.002008
C273	C	0.788935	-0.642489	0.218610
C274	C	1.038935	-0.392489	0.468610
C275	C	1.288935	-0.142489	0.718610
C276	C	1.538935	0.107511	0.968610
C277	C	0.722129	-0.975598	0.285449
C278	C	0.972129	-0.725598	0.535449
C279	C	1.222129	-0.475598	0.785449
C280	C	1.472129	-0.225598	1.035449
C281	C	0.722143	-1.030201	0.285452
C282	C	0.972143	-0.780201	0.535452
C283	C	1.222143	-0.530201	0.785452
C284	C	1.472143	-0.280201	1.035452
C285	C	0.789069	-1.030167	0.218648
C286	C	1.039069	-0.780167	0.468648
C287	C	1.289069	-0.530167	0.718648
C288	C	1.539069	-0.280167	0.968648
C289	C	0.789052	-0.975564	0.218644
C290	C	1.039052	-0.725564	0.468644
C291	C	1.289052	-0.475564	0.718644
C292	C	1.539052	-0.225564	0.968644
C293	C	0.755582	-0.948280	0.252047
C294	C	1.005582	-0.698280	0.502047
C295	C	1.255582	-0.448280	0.752047
C296	C	1.505582	-0.198280	1.002047
C297	C	0.788888	-0.527824	0.218597
C298	C	1.038888	-0.277824	0.468597
C299	C	1.288888	-0.027824	0.718597
C300	C	1.538888	0.222176	0.968597
C301	C	0.788862	-0.473219	0.218591
C302	C	1.038862	-0.223219	0.468591
C303	C	1.288862	0.026781	0.718591
C304	C	1.538862	0.276781	0.968591
C305	C	0.721939	-0.473257	0.285396
C306	C	0.971939	-0.223257	0.535396
C307	C	1.221939	0.026743	0.785396
C308	C	1.471939	0.276743	1.035396
C309	C	0.721962	-0.527858	0.285400
C310	C	0.971962	-0.277858	0.535400
C311	C	1.221962	-0.027858	0.785400
C312	C	1.471962	0.222142	1.035400
C313	C	0.755441	-0.555140	0.251999
C314	C	1.005441	-0.305140	0.501999
C315	C	1.255441	-0.055140	0.751999
C316	C	1.505441	0.194860	1.001999
O317	O	0.693549	-0.614254	0.313786
O318	O	0.943549	-0.364254	0.563786
O319	O	1.193549	-0.114254	0.813786
O320	O	1.443549	0.135746	1.063786
O321	O	0.817388	-0.614232	0.190208
O322	O	1.067388	-0.364232	0.440208
O323	O	1.317388	-0.114232	0.690208
O324	O	1.567388	0.135768	0.940208
C325	C	0.891843	-0.252000	0.252040
C326	C	1.141843	-0.002000	0.502040
C327	C	1.391843	0.248000	0.752040
C328	C	1.641843	0.498000	1.002040
C329	C	0.949957	-0.252009	0.252054
C330	C	1.199957	-0.002009	0.502054
C331	C	1.449957	0.247991	0.752054
C332	C	1.699957	0.497991	1.002054
C333	C	0.755481	-0.251963	0.388378
C334	C	1.005481	-0.001963	0.638378
C335	C	1.255481	0.248037	0.888378
C336	C	1.505481	0.498037	1.138378
C337	C	0.755486	-0.251956	0.446492
C338	C	1.005486	-0.001956	0.696492
C339	C	1.255486	0.248044	0.946492
C340	C	1.505486	0.498044	1.196492
C341	C	0.755572	-0.115604	0.252041
C342	C	1.005572	0.134396	0.502041
C343	C	1.255572	0.384396	0.752041
C344	C	1.505572	0.634396	1.002041
C345	C	0.755616	-0.057490	0.252056
C346	C	1.005616	0.192510	0.502056
C347	C	1.255616	0.442510	0.752056
C348	C	1.505616	0.692510	1.002056
C349	C	0.755489	-0.251954	0.116163
C350	C	1.005489	-0.001954	0.366163
C351	C	1.255489	0.248046	0.616163
C352	C	1.505489	0.498046	0.866163
C353	C	0.755585	-0.251813	0.058049
C354	C	1.005585	-0.001813	0.308049
C355	C	1.255585	0.248187	0.558049
C356	C	1.505585	0.498187	0.808049
C357	C	0.722055	-0.285325	0.697663
C358	C	0.972055	-0.035325	0.947663
C359	C	1.222055	0.214675	1.197663
C360	C	1.472055	0.464675	1.447663
C361	C	0.722046	-0.285337	0.643059
C362	C	0.972046	-0.035337	0.893059
C363	C	1.222046	0.214663	1.143059
C364	C	1.472046	0.464663	1.393059
O365	O	0.693572	-0.313761	0.614803
O366	O	0.943572	-0.063761	0.864803
O367	O	1.193572	0.186239	1.114803
O368	O	1.443572	0.436239	1.364803
N369	N	0.755506	-0.251914	0.615766
N370	N	1.005506	-0.001914	0.865766
N371	N	1.255506	0.248086	1.115766
N372	N	1.505506	0.498086	1.365766
C373	C	0.788973	-0.218473	0.643081
C374	C	1.038973	0.031527	0.893081
C375	C	1.288973	0.281527	1.143081
C376	C	1.538973	0.531527	1.393081
O377	O	0.817432	-0.190045	0.614853
O378	O	1.067432	0.059955	0.864853
O379	O	1.317432	0.309955	1.114853
O380	O	1.567432	0.559955	1.364853
C381	C	0.788979	-0.218459	0.697684
C382	C	1.038979	0.031541	0.947684
C383	C	1.288979	0.281541	1.197684
C384	C	1.538979	0.531541	1.447684
C385	C	0.755521	-0.251888	0.724974
C386	C	1.005521	-0.001888	0.974974
C387	C	1.255521	0.248112	1.224974
C388	C	1.505521	0.498112	1.474974
C389	C	0.688599	-0.318751	0.724953
C390	C	0.938599	-0.068751	0.974953
C391	C	1.188599	0.181249	1.224953
C392	C	1.438599	0.431249	1.474953
C393	C	0.688609	-0.318740	0.779553
C394	C	0.938609	-0.068740	1.029553
C395	C	1.188609	0.181260	1.279553
C396	C	1.438609	0.431260	1.529553
C397	C	0.722075	-0.285303	0.806864
C398	C	0.972075	-0.035303	1.056864
C399	C	1.222075	0.214697	1.306864
C400	C	1.472075	0.464697	1.556864
C401	C	0.755531	-0.251877	0.779575
C402	C	1.005531	-0.001877	1.029575
C403	C	1.255531	0.248123	1.279575
C404	C	1.505531	0.498123	1.529575
C405	C	0.822443	-0.185016	0.724998
C406	C	1.072443	0.064984	0.974998
C407	C	1.322443	0.314984	1.224998
C408	C	1.572443	0.564984	1.474998
C409	C	0.822446	-0.185005	0.779605
C410	C	1.072446	0.064995	1.029605
C411	C	1.322446	0.314995	1.279605
C412	C	1.572446	0.564995	1.529605
C413	C	0.788988	-0.218434	0.806895
C414	C	1.038988	0.031566	1.056895
C415	C	1.288988	0.281566	1.306895
C416	C	1.538988	0.531566	1.556895
C417	C	0.789007	-0.218429	0.861486
C418	C	1.039007	0.031571	1.111486
C419	C	1.289007	0.281571	1.361486
C420	C	1.539007	0.531571	1.611486
N421	N	0.755547	-0.251852	0.888778
N422	N	1.005547	-0.001852	1.138778
N423	N	1.255547	0.248148	1.388778
N424	N	1.505547	0.498148	1.638778
C425	C	0.722081	-0.285289	0.861467
C426	C	0.972081	-0.035289	1.111467
C427	C	1.222081	0.214711	1.361467
C428	C	1.472081	0.464711	1.611467
C429	C	0.788957	-0.218505	0.528410
C430	C	1.038957	0.031495	0.778410
C431	C	1.288957	0.281495	1.028410
C432	C	1.538957	0.531495	1.278410
C433	C	0.788954	-0.218521	0.473808
C434	C	1.038954	0.031479	0.723808
C435	C	1.288954	0.281479	0.973808
C436	C	1.538954	0.531479	1.223808
C437	C	0.722026	-0.285384	0.473789
C438	C	0.972026	-0.035384	0.723789
C439	C	1.222026	0.214616	0.973789
C440	C	1.472026	0.464616	1.223789
C441	C	0.722032	-0.285370	0.528393
C442	C	0.972032	-0.035370	0.778393
C443	C	1.222032	0.214630	1.028393
C444	C	1.472032	0.464630	1.278393
C445	C	0.755497	-0.251928	0.555703
C446	C	1.005497	-0.001928	0.805703
C447	C	1.255497	0.248072	1.055703
C448	C	1.505497	0.498072	1.305703
C449	C	0.722105	-0.285263	0.976133
C450	C	0.972105	-0.035263	1.226133
C451	C	1.222105	0.214737	1.476133
C452	C	1.472105	0.464737	1.726133
C453	C	0.722120	-0.285250	1.030738
C454	C	0.972120	-0.035250	1.280738
C455	C	1.222120	0.214750	1.530738
C456	C	1.472120	0.464750	1.780738
C457	C	0.789045	-0.218385	1.030752
C458	C	1.039045	0.031615	1.280752
C459	C	1.289045	0.281615	1.530752
C460	C	1.539045	0.531615	1.780752
C461	C	0.789033	-0.218400	0.976151
C462	C	1.039033	0.031600	1.226151
C463	C	1.289033	0.281600	1.476151
C464	C	1.539033	0.531600	1.726151
C465	C	0.755559	-0.251840	0.948843
C466	C	1.005559	-0.001840	1.198843
C467	C	1.255559	0.248160	1.448843
C468	C	1.505559	0.498160	1.698843
O469	O	0.817465	-0.190018	0.889777
O470	O	1.067465	0.059982	1.139777
O471	O	1.317465	0.309982	1.389777
O472	O	1.567465	0.559982	1.639777
O473	O	0.693622	-0.313707	0.889702
O474	O	0.943622	-0.063707	1.139702
O475	O	1.193622	0.186293	1.389702
O476	O	1.443622	0.436293	1.639702
H477	H	0.206194	-0.346206	0.345967
H478	H	0.456194	-0.096206	0.595967
H479	H	0.706194	0.153794	0.845967
H480	H	0.956194	0.403794	1.095967
C481	C	0.685309	-0.322024	1.060753
C482	C	0.935309	-0.072024	1.310753
C483	C	1.185309	0.177976	1.560753
C484	C	1.435309	0.427976	1.810753
N485	N	0.657583	-0.349720	1.083359
N486	N	0.907583	-0.099720	1.333359
N487	N	1.157583	0.150280	1.583359
N488	N	1.407583	0.400280	1.833359
C489	C	0.651769	-0.694421	0.355580
C490	C	0.901769	-0.444421	0.605580
C491	C	1.151769	-0.194421	0.855580
C492	C	1.401769	0.055579	1.105580
N493	N	0.624036	-0.671819	0.383258
N494	N	0.874036	-0.421819	0.633258
N495	N	1.124036	-0.171819	0.883258
N496	N	1.374036	0.078181	1.133258
H497	H	0.305243	-0.346206	0.345951
H498	H	0.555243	-0.096206	0.595951
H499	H	0.805243	0.153794	0.845951
H500	H	1.055243	0.403794	1.095951
C501	C	0.825661	-0.443175	0.181835
C502	C	1.075661	-0.193175	0.431835
C503	C	1.325661	0.056825	0.681835
C504	C	1.575661	0.306825	0.931835
N505	N	0.853376	-0.420547	0.154150
N506	N	1.103376	-0.170547	0.404150
N507	N	1.353376	0.079453	0.654150
N508	N	1.603376	0.329453	0.904150
H509	H	0.694775	-0.312610	0.451543
H510	H	0.944775	-0.062610	0.701543
H511	H	1.194775	0.187390	0.951543
H512	H	1.444775	0.437390	1.201543
C513	C	0.198412	-0.148167	0.148555
C514	C	0.448412	0.101833	0.398555
C515	C	0.698412	0.351833	0.648555
C516	C	0.948412	0.601833	0.898555
N517	N	0.175804	-0.120413	0.120906
N518	N	0.425804	0.129587	0.370906
N519	N	0.675804	0.379587	0.620906
N520	N	0.925804	0.629587	0.870906
H521	H	0.816204	-0.191305	0.451593
H522	H	1.066204	0.058695	0.701593
H523	H	1.316204	0.308695	0.951593
H524	H	1.566204	0.558695	1.201593
C525	C	0.685284	-0.322052	0.946101
C526	C	0.935284	-0.072052	1.196101
C527	C	1.185284	0.177948	1.446101
C528	C	1.435284	0.427948	1.696101
N529	N	0.657553	-0.349764	0.923482
N530	N	0.907553	-0.099764	1.173482
N531	N	1.157553	0.150236	1.423482
N532	N	1.407553	0.400236	1.673482
H533	H	0.054092	-0.312755	0.312594
H534	H	0.304092	-0.062755	0.562594
H535	H	0.554092	0.187245	0.812594
H536	H	0.804092	0.437245	1.062594
H537	H	0.661363	-0.345960	0.801767
H538	H	0.911363	-0.095960	1.051767
H539	H	1.161363	0.154040	1.301767
H540	H	1.411363	0.404040	1.551767
H541	H	0.305258	-0.157732	0.158076
H542	H	0.555258	0.092268	0.408076
H543	H	0.805258	0.342268	0.658076
H544	H	1.055258	0.592268	0.908076
H545	H	0.816212	-0.191272	0.550643
H546	H	1.066212	0.058728	0.800643
H547	H	1.316212	0.308728	1.050643
H548	H	1.566212	0.558728	1.300643
H549	H	0.661361	-0.801268	0.346043
H550	H	0.911361	-0.551268	0.596043
H551	H	1.161361	-0.301268	0.846043
H552	H	1.411361	-0.051268	1.096043
C553	C	0.825853	-0.945522	0.181894
C554	C	1.075853	-0.695522	0.431894
C555	C	1.325853	-0.445522	0.681894
C556	C	1.575853	-0.195522	0.931894
N557	N	0.853573	-0.922896	0.154213
N558	N	1.103573	-0.672896	0.404213
N559	N	1.353573	-0.422896	0.654213
N560	N	1.603573	-0.172896	0.904213
H561	H	0.849702	-0.801187	0.158028
H562	H	1.099702	-0.551187	0.408028
H563	H	1.349702	-0.301187	0.658028
H564	H	1.599702	-0.051187	0.908028
C565	C	0.859245	-0.148235	0.694992
C566	C	1.109245	0.101765	0.944992
C567	C	1.359245	0.351765	1.194992
C568	C	1.609245	0.601765	1.444992
N569	N	0.886964	-0.120527	0.672392
N570	N	1.136964	0.129473	0.922392
N571	N	1.386964	0.379473	1.172392
N572	N	1.636964	0.629473	1.422392
H573	H	0.816325	-1.052392	0.191456
H574	H	1.066325	-0.802392	0.441456
H575	H	1.316325	-0.552392	0.691456
H576	H	1.566325	-0.302392	0.941456
H577	H	0.457380	-0.191208	0.191426
H578	H	0.707380	0.058792	0.441426
H579	H	0.957380	0.308792	0.691426
H580	H	1.207380	0.558792	0.941426
H581	H	0.694899	-1.052436	0.312652
H582	H	0.944899	-0.802436	0.562652
H583	H	1.194899	-0.552436	0.812652
H584	H	1.444899	-0.302436	1.062652
C585	C	-0.052767	-0.181684	0.181959
C586	C	0.197233	0.068316	0.431959
C587	C	0.447233	0.318316	0.681959
C588	C	0.697233	0.568316	0.931959
N589	N	-0.075380	-0.153937	0.154307
N590	N	0.174620	0.096063	0.404307
N591	N	0.424620	0.346063	0.654307
N592	N	0.674620	0.596063	0.904307
C593	C	0.449578	-0.322295	0.322077
C594	C	0.699578	-0.072295	0.572077
C595	C	0.949578	0.177705	0.822077
C596	C	1.199578	0.427705	1.072077
N597	N	0.426966	-0.350050	0.349733
N598	N	0.676966	-0.100050	0.599733
N599	N	0.926966	0.149950	0.849733
N600	N	1.176966	0.399950	1.099733
C601	C	0.651781	-0.355538	0.694919
C602	C	0.901781	-0.105538	0.944919
C603	C	1.151781	0.144462	1.194919
C604	C	1.401781	0.394462	1.444919
N605	N	0.624049	-0.383251	0.672302
N606	N	0.874049	-0.133251	0.922302
N607	N	1.124049	0.116749	1.172302
N608	N	1.374049	0.366749	1.422302
C609	C	0.685310	-0.945591	0.322200
C610	C	0.935310	-0.695591	0.572200
C611	C	1.185310	-0.445591	0.822200
C612	C	1.435310	-0.195591	1.072200
N613	N	0.657580	-0.922992	0.349884
N614	N	0.907580	-0.672992	0.599884
N615	N	1.157580	-0.422992	0.849884
N616	N	1.407580	-0.172992	1.099884
H617	H	0.694725	-0.550099	0.312606
H618	H	0.944725	-0.300099	0.562606
H619	H	1.194725	-0.050099	0.812606
H620	H	1.444725	0.199901	1.062606
C621	C	0.564249	-0.181634	0.181879
C622	C	0.814249	0.068366	0.431879
C623	C	1.064249	0.318366	0.681879
C624	C	1.314249	0.568366	0.931879
N625	N	0.586879	-0.153887	0.154227
N626	N	0.836879	0.096113	0.404227
N627	N	1.086879	0.346113	0.654227
N628	N	1.336879	0.596113	0.904227
C629	C	0.685125	-0.443233	0.322134
C630	C	0.935125	-0.193233	0.572134
C631	C	1.185125	0.056767	0.822134
C632	C	1.435125	0.306767	1.072134
N633	N	0.657400	-0.420618	0.349808
N634	N	0.907400	-0.170618	0.599808
N635	N	1.157400	0.079382	0.849808
N636	N	1.407400	0.329382	1.099808
H637	H	0.816281	-0.191183	0.953931
H638	H	1.066281	0.058817	1.203931
H639	H	1.316281	0.308817	1.453931
H640	H	1.566281	0.558817	1.703931
C641	C	0.685222	-0.322141	0.558406
C642	C	0.935222	-0.072141	0.808406
C643	C	1.185222	0.177859	1.058406
C644	C	1.435222	0.427859	1.308406
N645	N	0.657494	-0.349836	0.581010
N646	N	0.907494	-0.099836	0.831010
N647	N	1.157494	0.150164	1.081010
N648	N	1.407494	0.400164	1.331010
H649	H	-0.044976	-0.312760	0.312605
H650	H	0.205024	-0.062760	0.562605
H651	H	0.455024	0.187240	0.812605
H652	H	0.705024	0.437240	1.062605
C653	C	0.825713	-0.557827	0.181851
C654	C	1.075713	-0.307827	0.431851
C655	C	1.325713	-0.057827	0.681851
C656	C	1.575713	0.192173	0.931851
N657	N	0.853447	-0.580424	0.154170
N658	N	1.103447	-0.330424	0.404170
N659	N	1.353447	-0.080424	0.654170
N660	N	1.603447	0.169576	0.904170
H661	H	0.849696	-0.157769	0.801838
H662	H	1.099696	0.092231	1.051838
H663	H	1.349696	0.342231	1.301838
H664	H	1.599696	0.592231	1.551838
C665	C	0.859218	-0.694337	0.148461
C666	C	1.109218	-0.444337	0.398461
C667	C	1.359218	-0.194337	0.648461
C668	C	1.609218	0.055663	0.898461
N669	N	0.886934	-0.671714	0.120772
N670	N	1.136934	-0.421714	0.370772
N671	N	1.386934	-0.171714	0.620772
N672	N	1.636934	0.078286	0.870772
H673	H	0.816294	-0.191164	1.052998
H674	H	1.066294	0.058836	1.302998
H675	H	1.316294	0.308836	1.552998
H676	H	1.566294	0.558836	1.802998
H677	H	0.556429	-0.312718	0.312520
H678	H	0.806429	-0.062718	0.562520
H679	H	1.056429	0.187282	0.812520
H680	H	1.306429	0.437282	1.062520
C681	C	0.061885	-0.181669	0.181942
C682	C	0.311885	0.068331	0.431942
C683	C	0.561885	0.318331	0.681942
C684	C	0.811885	0.568331	0.931942
N685	N	0.084496	-0.153921	0.154277
N686	N	0.334496	0.096079	0.404277
N687	N	0.584496	0.346079	0.654277
N688	N	0.834496	0.596079	0.904277
