data_functionalizedCrystal
_audit_creation_method	'MofGen! by Chris Wilmer'
_symmetry_space_group_name_H-M	'P1'
_symmetry_Int_Tables_number	1
_symmetry_cell_setting	triclinic
loop_
_symmetry_equiv_pos_as_xyz
  x,y,z
_cell_length_a	16.120444
_cell_length_b	18.215407
_cell_length_c	16.120704
_cell_angle_alpha	92.889152
_cell_angle_beta	84.364089
_cell_angle_gamma	87.072949
loop_
_atom_site_label
_atom_site_type_symbol
_atom_site_fract_x
_atom_site_fract_y
_atom_site_fract_z
Zn1	Zn	-0.356925	-1.087093	0.489474
Zn2	Zn	-0.023591	-0.753760	0.822807
Zn3	Zn	0.309742	-0.420427	1.156141
Zn4	Zn	-0.489565	-1.087023	0.356783
Zn5	Zn	-0.156232	-0.753690	0.690117
Zn6	Zn	0.177102	-0.420357	1.023450
Zn7	Zn	-0.349809	-0.970624	0.349716
Zn8	Zn	-0.016476	-0.637291	0.683050
Zn9	Zn	0.316858	-0.303958	1.016383
Zn10	Zn	-0.496660	-0.957417	0.496508
Zn11	Zn	-0.163327	-0.624084	0.829842
Zn12	Zn	0.170007	-0.290751	1.163175
O13	O	-0.423240	-1.025540	0.423121
O14	O	-0.089906	-0.692206	0.756454
O15	O	0.243427	-0.358873	1.089787
O16	O	-0.374529	-1.190067	0.471886
O17	O	-0.041195	-0.856734	0.805219
O18	O	0.292138	-0.523401	1.138553
O19	O	-0.465079	-1.077081	0.238881
O20	O	-0.131746	-0.743747	0.572215
O21	O	0.201588	-0.410414	0.905548
O22	O	-0.233785	-0.991630	0.362354
O23	O	0.099548	-0.658297	0.695687
O24	O	0.432882	-0.324964	1.029021
O25	O	-0.471979	-1.190016	0.374399
O26	O	-0.138645	-0.856683	0.707732
O27	O	0.194688	-0.523349	1.041065
O28	O	-0.239013	-1.077200	0.465033
O29	O	0.094321	-0.743866	0.798367
O30	O	0.427654	-0.410533	1.131700
O31	O	-0.362401	-0.991563	0.233689
O32	O	-0.029067	-0.658229	0.567023
O33	O	0.304266	-0.324896	0.900356
O34	O	-0.369280	-0.865889	0.369175
O35	O	-0.035947	-0.532556	0.702508
O36	O	0.297386	-0.199222	1.035842
O37	O	-0.484071	-0.969121	0.612540
O38	O	-0.150738	-0.635788	0.945873
O39	O	0.182596	-0.302455	1.279207
O40	O	-0.477171	-0.856186	0.477023
O41	O	-0.143838	-0.522853	0.810356
O42	O	0.189495	-0.189519	1.143689
O43	O	-0.381408	-1.064394	0.607372
O44	O	-0.048075	-0.731060	0.940705
O45	O	0.285258	-0.397727	1.274038
O46	O	-0.607474	-1.064275	0.381220
O47	O	-0.274141	-0.730941	0.714553
O48	O	0.059192	-0.397608	1.047886
O49	O	-0.612687	-0.969054	0.483875
O50	O	-0.279354	-0.635720	0.817208
O51	O	0.053980	-0.302387	1.150542
C52	C	-0.423224	-0.834335	0.423096
C53	C	-0.089891	-0.501002	0.756429
C54	C	0.243442	-0.167668	1.089763
C55	C	-0.423239	-0.752535	0.423106
C56	C	-0.089905	-0.419202	0.756439
C57	C	0.243428	-0.085868	1.089773
C58	C	-0.640410	-1.015243	0.434096
C59	C	-0.307077	-0.681909	0.767429
C60	C	0.026257	-0.348576	1.100762
C61	C	-0.733318	-1.010904	0.438819
C62	C	-0.399985	-0.677570	0.772152
C63	C	-0.066651	-0.344237	1.105486
C64	C	-0.434325	-1.015292	0.641131
C65	C	-0.100991	-0.681959	0.974465
C66	C	0.232342	-0.348625	1.307798
C67	C	-0.439049	-1.010925	0.734035
C68	C	-0.105715	-0.677592	1.067368
C69	C	0.227618	-0.344259	1.400701
C70	C	-0.942212	-1.048220	0.398799
C71	C	-0.608879	-0.714887	0.732132
C72	C	-0.275546	-0.381554	1.065465
C73	C	-0.903416	-1.002995	0.447451
C74	C	-0.570083	-0.669661	0.780784
C75	C	-0.236750	-0.336328	1.114118
C76	C	-0.808765	-1.007396	0.442647
C77	C	-0.475431	-0.674063	0.775980
C78	C	-0.142098	-0.340730	1.109313
C79	C	-1.036873	-1.043820	0.403602
C80	C	-0.703539	-0.710486	0.736935
C81	C	-0.370206	-0.377153	1.070269
C82	C	-0.205222	-1.035896	0.412121
C83	C	0.128111	-0.702563	0.745454
C84	C	0.461444	-0.369229	1.078787
C85	C	-0.112316	-1.040309	0.407433
C86	C	0.221017	-0.706976	0.740767
C87	C	0.554350	-0.373643	1.074100
C88	C	-0.423256	-1.217491	0.423146
C89	C	-0.089923	-0.884157	0.756479
C90	C	0.243411	-0.550824	1.089813
C91	C	-0.423263	-1.299289	0.423157
C92	C	-0.089930	-0.965955	0.756490
C93	C	0.243404	-0.632622	1.089823
C94	C	-0.479498	-0.559307	0.479200
C95	C	-0.146165	-0.225974	0.812533
C96	C	0.187169	0.107359	1.145866
C97	C	-0.479501	-0.482448	0.479210
C98	C	-0.146168	-0.149115	0.812543
C99	C	0.187165	0.184219	1.145877
C100	C	-0.366998	-0.492522	0.367061
C101	C	-0.033664	-0.159189	0.700394
C102	C	0.299669	0.174144	1.033727
C103	C	-0.366991	-0.569380	0.367055
C104	C	-0.033658	-0.236047	0.700388
C105	C	0.299676	0.097287	1.033721
C106	C	-0.423246	-0.602771	0.423123
C107	C	-0.089913	-0.269437	0.756457
C108	C	0.243421	0.063896	1.089790
C109	C	-0.423256	-0.449053	0.423140
C110	C	-0.089922	-0.115720	0.756473
C111	C	0.243411	0.217613	1.089806
C112	C	-0.423259	-0.365719	0.423151
C113	C	-0.089925	-0.032386	0.756484
C114	C	0.243408	0.300948	1.089817
C115	C	-0.423242	-0.686110	0.423113
C116	C	-0.089909	-0.352777	0.756447
C117	C	0.243425	-0.019443	1.089780
C118	C	-0.398932	-1.048124	0.942964
C119	C	-0.065599	-0.714790	1.276297
C120	C	0.267735	-0.381457	1.609630
C121	C	-0.447638	-1.002929	0.904123
C122	C	-0.114305	-0.669596	1.237456
C123	C	0.219028	-0.336263	1.570789
C124	C	-0.442858	-1.007380	0.809477
C125	C	-0.109524	-0.674046	1.142810
C126	C	0.223809	-0.340713	1.476143
C127	C	-0.403712	-1.043674	1.037618
C128	C	-0.070378	-0.710341	1.370951
C129	C	0.262955	-0.377008	1.704285
C130	C	-0.412224	-1.035745	1.205959
C131	C	-0.078891	-0.702412	1.539292
C132	C	0.254442	-0.369079	1.872626
C133	C	-0.407524	-1.040125	1.113057
C134	C	-0.074191	-0.706792	1.446390
C135	C	0.259142	-0.373459	1.779724
H136	H	-0.941287	-0.960969	0.492712
H137	H	-0.607954	-0.627636	0.826045
H138	H	-0.274621	-0.294303	1.159378
N139	N	-0.892054	-1.103875	0.338838
N140	N	-0.558720	-0.770542	0.672171
N141	N	-0.225387	-0.437209	1.005505
H142	H	-0.931130	-1.133446	0.307032
H143	H	-0.597797	-0.800112	0.640365
H144	H	-0.264463	-0.466779	0.973698
H145	H	-0.857508	-1.137962	0.371087
H146	H	-0.524174	-0.804629	0.704420
H147	H	-0.190841	-0.471295	1.037754
N148	N	-0.540169	-0.595323	0.539671
N149	N	-0.206836	-0.261990	0.873004
N150	N	0.126498	0.071343	1.206337
H151	H	-0.575804	-0.556124	0.575197
H152	H	-0.242470	-0.222790	0.908530
H153	H	0.090863	0.110543	1.241863
H154	H	-0.508171	-0.627008	0.576686
H155	H	-0.174838	-0.293675	0.910020
H156	H	0.158496	0.039659	1.243353
H157	H	-0.525306	-0.447063	0.524874
H158	H	-0.191973	-0.113730	0.858208
H159	H	0.141361	0.219604	1.191541
N160	N	-0.306346	-0.456508	0.306568
N161	N	0.026987	-0.123175	0.639902
N162	N	0.360321	0.210159	0.973235
H163	H	-0.314893	-0.401223	0.315072
H164	H	0.018441	-0.067890	0.648405
H165	H	0.351774	0.265443	0.981738
H166	H	-0.316250	-0.472138	0.247514
H167	H	0.017084	-0.138805	0.580847
H168	H	0.350417	0.194528	0.914181
N169	N	-0.306306	-0.616265	0.306580
N170	N	0.027027	-0.282932	0.639913
N171	N	0.360361	0.050401	0.973247
H172	H	-0.270672	-0.583452	0.271060
H173	H	0.062662	-0.250118	0.604393
H174	H	0.395995	0.083215	0.937727
H175	H	-0.338292	-0.648365	0.269558
H176	H	-0.004959	-0.315032	0.602891
H177	H	0.328375	0.018302	0.936224
H178	H	-0.492923	-0.960891	0.941951
H179	H	-0.159590	-0.627558	1.275284
H180	H	0.173743	-0.294224	1.608617
H181	H	-0.353647	-1.090155	0.905138
H182	H	-0.020313	-0.756822	1.238471
H183	H	0.313020	-0.423488	1.571804
