data_functionalizedCrystal
_audit_creation_method	'MofGen! by Chris Wilmer'
_symmetry_space_group_name_H-M	'P1'
_symmetry_Int_Tables_number	1
_symmetry_cell_setting	triclinic
loop_
_symmetry_equiv_pos_as_xyz
  x,y,z
_cell_length_a	10.723024
_cell_length_b	10.723023
_cell_length_c	9.198806
_cell_angle_alpha	89.997827
_cell_angle_beta	89.996352
_cell_angle_gamma	84.467709
loop_
_atom_site_label
_atom_site_type_symbol
_atom_site_fract_x
_atom_site_fract_y
_atom_site_fract_z
O1	O	1.657187	0.175025	-0.120880
O2	O	1.294035	0.191778	-0.120884
O3	O	1.483988	0.001825	-0.120876
O4	O	1.467234	0.364977	-0.120888
O5	O	1.483973	0.001824	0.120909
O6	O	1.294020	0.191777	0.120901
O7	O	1.657172	0.175024	0.120905
Cu8	Cu	1.475595	0.183401	0.142980
Cu9	Cu	1.475612	0.183401	-0.142959
O10	O	1.467219	0.364977	0.120897
C11	C	1.247528	0.190558	0.000008
C12	C	1.108973	0.186911	0.000006
C13	C	1.033991	0.293198	0.000001
C14	C	0.890787	0.289431	-0.000000
C15	C	1.482762	-0.044675	0.000015
C16	C	1.479114	-0.183229	0.000010
C17	C	1.703679	0.176243	0.000010
C18	C	1.842234	0.179891	0.000003
C19	C	1.477496	-0.244995	-0.125243
C20	C	1.473727	-0.388198	-0.125251
C21	C	1.468445	0.411477	0.000003
C22	C	1.472093	0.550031	-0.000002
N23	N	1.475591	0.183399	0.344094
N24	N	1.475626	0.183393	-0.344073
C25	C	1.555347	0.103292	0.416295
C26	C	1.555366	0.103288	0.583707
H27	H	1.067152	0.093125	-0.000028
Cl28	Cl	1.098549	0.438004	0.000001
Cl29	Cl	0.791314	0.429921	-0.000018
Cl30	Cl	1.370179	0.289280	0.440000
Cl31	Cl	0.941699	0.039396	-0.000003
Cl32	Cl	1.471588	-0.470200	-0.290822
H33	H	1.623611	0.034707	0.354171
H34	H	1.478896	-0.191856	-0.232472
Cl35	Cl	1.474250	-0.367977	0.165575
H36	H	1.477701	-0.236366	0.107239
H37	H	1.623653	0.034709	0.645796
H38	H	1.407344	0.251984	0.593847
