data_functionalizedCrystal
_audit_creation_method	'MofGen! by Chris Wilmer'
_symmetry_space_group_name_H-M	'P1'
_symmetry_Int_Tables_number	1
_symmetry_cell_setting	triclinic
loop_
_symmetry_equiv_pos_as_xyz
  x,y,z
_cell_length_a	15.944564
_cell_length_b	15.944564
_cell_length_c	16.776229
_cell_angle_alpha	89.995405
_cell_angle_beta	89.998730
_cell_angle_gamma	83.503935
loop_
_atom_site_label
_atom_site_type_symbol
_atom_site_fract_x
_atom_site_fract_y
_atom_site_fract_z
O1	O	-1.114524	-0.108380	0.066207
O2	O	-0.869977	-0.121725	0.066227
O3	O	-0.998923	0.007221	0.066209
O4	O	-0.985578	-0.237327	0.066225
O5	O	-0.998908	0.007221	-0.066367
O6	O	-0.869962	-0.121725	-0.066349
O7	O	-1.114510	-0.108380	-0.066369
Zn8	Zn	-0.992233	-0.115053	-0.087409
Zn9	Zn	-0.992253	-0.115053	0.087267
O10	O	-0.985563	-0.237326	-0.066351
C11	C	-0.838676	-0.121169	-0.000058
C12	C	-0.745430	-0.119503	-0.000051
C13	C	-0.998360	0.038515	-0.000079
C14	C	-0.996693	0.131760	-0.000080
C15	C	-0.530571	-0.035589	-0.000072
C16	C	-0.469560	-0.074549	0.065298
C17	C	-0.574705	-0.116488	-0.000061
C18	C	-0.469568	-0.074567	-0.065412
C19	C	-0.409793	-0.113569	-0.000073
C20	C	-0.514922	-0.155470	0.065363
C21	C	-0.514937	-0.155477	-0.065406
C22	C	-0.453943	-0.194495	-0.000020
C23	C	-0.669707	-0.118167	-0.000053
C24	C	-0.314792	-0.111897	-0.000076
C25	C	-0.145812	-0.108925	-0.000082
C26	C	-0.239062	-0.110557	-0.000084
C27	C	-0.912779	0.346620	-0.000063
C28	C	-0.951732	0.407635	-0.065435
C29	C	-0.993678	0.302485	-0.000074
C30	C	-0.951765	0.407618	0.065275
C31	C	-0.990760	0.467397	-0.000065
C32	C	-1.032653	0.362272	-0.065500
C33	C	-1.032675	0.362249	0.065269
C34	C	-1.071686	0.423247	-0.000119
C35	C	-0.995357	0.207484	-0.000080
C36	C	-0.989087	0.562398	-0.000065
N37	N	-0.992226	-0.115052	-0.206620
C38	C	-0.986115	0.731378	-0.000062
C39	C	-0.987747	0.638128	-0.000059
C40	C	-1.043170	-0.166033	-0.248334
C41	C	-1.043180	-0.166030	-0.331786
C42	C	-0.992240	-0.115049	-0.373523
C43	C	-0.941294	-0.064062	-0.331802
C44	C	-0.941290	-0.064061	-0.248352
C45	C	-0.941311	-0.064063	-0.668350
C46	C	-0.941317	-0.064070	-0.751806
C47	C	-1.043201	-0.166032	-0.751784
C48	C	-1.043197	-0.166031	-0.668334
C49	C	-0.992254	-0.115041	-0.626621
C50	C	-0.992246	-0.115044	-0.536132
C51	C	-0.992243	-0.115050	-0.464010
N52	N	-0.992266	-0.115047	0.206478
H53	H	-0.563900	0.031547	0.000004
C54	C	-0.598850	-0.146872	-0.184574
C55	C	-0.542122	-0.201629	-0.140006
H56	H	-0.615639	-0.175363	-0.230630
H57	H	-0.572309	-0.099075	-0.200268
H58	H	-0.647083	-0.129054	-0.153050
H59	H	-0.493886	-0.219443	-0.171527
H60	H	-0.568663	-0.249442	-0.124312
H61	H	-0.449454	-0.040332	0.120559
C62	C	-1.105672	0.406616	-0.186140
C63	C	-1.078798	0.335294	-0.140192
H64	H	-1.134162	0.389958	-0.232249
H65	H	-1.058135	0.433611	-0.201755
H66	H	-1.142957	0.444645	-0.155580
H67	H	-1.041508	0.297268	-0.170750
H68	H	-1.126341	0.308286	-0.124578
C69	C	-1.088441	-0.211294	-0.459701
C70	C	-1.099183	-0.222065	-0.377640
H71	H	-1.123023	-0.245885	-0.488007
H72	H	-1.030983	-0.226865	-0.473381
H73	H	-1.104045	-0.153829	-0.473369
H74	H	-1.083572	-0.279530	-0.363971
H75	H	-1.156654	-0.206500	-0.363955
C76	C	-1.219694	0.407605	-0.000874
C77	C	-1.162412	0.468000	-0.000184
H78	H	-1.275704	0.435233	-0.000924
H79	H	-1.211306	0.372964	0.045144
H80	H	-1.210928	0.373667	-0.047318
H81	H	-1.171174	0.501935	0.046264
H82	H	-1.170805	0.502655	-0.046206
C83	C	-1.156148	-0.171357	-0.574468
C84	C	-1.099187	-0.222071	-0.622453
H85	H	-1.190710	-0.205955	-0.546141
H86	H	-1.190566	-0.132736	-0.607024
H87	H	-1.125795	-0.140996	-0.537686
H88	H	-1.129540	-0.252427	-0.659239
H89	H	-1.064764	-0.260706	-0.589895
C90	C	-0.840572	0.036719	-0.256750
C91	C	-0.885287	-0.008025	-0.202496
H92	H	-0.805996	0.071312	-0.228439
H93	H	-0.879225	0.071110	-0.289298
H94	H	-0.806159	-0.001923	-0.289299
H95	H	-0.919705	0.030617	-0.169951
H96	H	-0.846629	-0.042418	-0.169935
H97	H	-0.449474	-0.040335	-0.120676
C98	C	-1.076189	-0.306770	-0.777465
C99	C	-1.099207	-0.222075	-0.797638
H100	H	-1.110760	-0.341367	-0.805776
H101	H	-1.083476	-0.314060	-0.721798
H102	H	-1.018722	-0.322324	-0.791152
H103	H	-1.156672	-0.206519	-0.783946
H104	H	-1.091927	-0.214781	-0.853317
H105	H	-0.917509	0.427745	-0.120696
C106	C	-0.358099	-0.297569	0.067864
C107	C	-0.409174	-0.285215	0.000032
H108	H	-0.330456	-0.353573	0.067895
H109	H	-0.392044	-0.288835	0.114300
H110	H	-0.317149	-0.258684	0.067391
H111	H	-0.450128	-0.324097	0.000508
H112	H	-0.375227	-0.293958	-0.046416
C113	C	-0.809342	0.251650	0.068356
C114	C	-0.822136	0.301659	-0.000134
H115	H	-0.753381	0.223899	0.068311
H116	H	-0.848317	0.210798	0.068856
H117	H	-0.817637	0.286344	0.114350
H118	H	-0.813846	0.266964	-0.046129
H119	H	-0.783148	0.342517	-0.000641
H120	H	-1.066868	0.342117	0.120533
H121	H	-1.084646	-0.207552	-0.214359
H122	H	-0.917544	0.427696	0.120546
H123	H	-0.899831	-0.022544	-0.634397
C124	C	-0.840616	0.036741	-0.743453
C125	C	-0.885328	-0.008021	-0.797686
H126	H	-0.806057	0.071343	-0.771780
H127	H	-0.806194	-0.001884	-0.710904
H128	H	-0.879277	0.071131	-0.710904
H129	H	-0.846666	-0.042416	-0.830232
H130	H	-0.919753	0.030608	-0.830249
C131	C	-0.896005	-0.018834	-0.459732
C132	C	-0.885297	-0.008023	-0.377674
H133	H	-0.861427	0.015758	-0.488048
H134	H	-0.953462	-0.003291	-0.473433
H135	H	-0.880374	-0.076302	-0.473367
H136	H	-0.900933	0.049443	-0.364039
H137	H	-0.827827	-0.023562	-0.363968
C138	C	-0.629593	-0.202725	0.139403
C139	C	-0.541908	-0.201620	0.140057
H140	H	-0.646252	-0.231209	0.185519
H141	H	-0.645480	-0.231268	0.093050
H142	H	-0.656512	-0.146443	0.139212
H143	H	-0.514989	-0.257902	0.140242
H144	H	-0.526013	-0.173078	0.186422
