data_functionalizedCrystal
_audit_creation_method	'MofGen! by Chris Wilmer'
_symmetry_space_group_name_H-M	'P1'
_symmetry_Int_Tables_number	1
_symmetry_cell_setting	triclinic
loop_
_symmetry_equiv_pos_as_xyz
  x,y,z
_cell_length_a	17.019330
_cell_length_b	15.500227
_cell_length_c	9.065218
_cell_angle_alpha	87.127904
_cell_angle_beta	95.793898
_cell_angle_gamma	83.284530
loop_
_atom_site_label
_atom_site_type_symbol
_atom_site_fract_x
_atom_site_fract_y
_atom_site_fract_z
O1	O	-1.055597	0.150595	0.173703
O2	O	-0.825240	0.133432	0.199282
O3	O	-0.945180	0.142367	-0.028312
O4	O	-0.935657	0.141661	0.401297
O5	O	-0.937901	-0.002064	-0.014555
O6	O	-0.817962	-0.010999	0.213039
O7	O	-1.048318	0.006164	0.187460
Cu8	Cu	-0.932476	-0.015605	0.201506
Cu9	Cu	-0.941083	0.155201	0.185236
O10	O	-0.928379	-0.002770	0.415054
C11	C	-0.792095	0.059018	0.205459
C12	C	-0.704176	0.052468	0.203349
C13	C	-0.206721	0.011472	0.191840
C14	C	-0.289330	0.017629	0.193822
C15	C	-0.334604	0.099438	0.187303
C16	C	-0.297262	0.175095	0.178816
C17	C	-0.214654	0.168938	0.176845
C18	C	-0.584226	0.121968	0.192890
C19	C	-0.666840	0.128120	0.194858
C20	C	-0.658903	-0.029347	0.209867
C21	C	-0.576293	-0.035498	0.207886
C22	C	-0.538959	0.040160	0.199407
C23	C	-0.419044	0.105733	0.189324
C24	C	-0.454519	0.033864	0.197396
N25	N	-0.926427	-0.135740	0.212948
C26	C	-0.977268	-0.177230	0.116543
C27	C	-0.972701	-0.268143	0.125210
C28	C	-0.917296	-0.317565	0.230290
C29	C	-0.866450	-0.276069	0.326698
C30	C	-0.871014	-0.185158	0.318023
C31	C	-0.900856	-0.592256	0.261516
C32	C	-0.896297	-0.683173	0.270187
C33	C	-1.002548	-0.675241	0.068696
C34	C	-1.007110	-0.584328	0.060036
C35	C	-0.956261	-0.542841	0.156440
C36	C	-0.912628	-0.410492	0.239154
C37	C	-0.960925	-0.449915	0.147567
C38	C	-0.081465	0.080577	0.181272
C39	C	-0.169386	0.087124	0.183349
C40	C	-0.940626	0.070084	-0.076389
C41	C	-0.937889	0.069885	-0.240139
N42	N	-0.947138	0.275337	0.173783
C43	C	-0.932933	0.069514	0.463131
C44	C	-0.935670	0.069719	0.626880
H45	H	-0.184257	0.230541	0.169935
H46	H	-0.867518	-0.450739	0.324715
N47	N	-0.160491	-0.072103	0.198516
N48	N	-0.160517	-0.124611	0.307753
H49	H	-0.127870	-0.183639	0.312474
H50	H	-0.703700	0.194742	0.189561
N51	N	-0.327456	-0.059656	0.202470
N52	N	-0.287027	-0.132694	0.208260
H53	H	-0.313953	-0.187282	0.214357
N54	N	-0.819083	-0.142788	0.416524
N55	N	-0.820632	-0.152778	0.553839
H56	H	-0.783952	-0.122856	0.623407
N57	N	-0.546109	0.199256	0.184240
N58	N	-0.586543	0.272292	0.178423
H59	H	-0.559621	0.326881	0.172316
N60	N	-0.465281	0.189304	0.182632
N61	N	-0.431943	0.256849	0.175033
H62	H	-0.464599	0.315873	0.170307
N63	N	-1.054479	-0.717633	-0.029760
N64	N	-1.050401	-0.798804	-0.022006
H65	H	-1.087078	-0.828745	-0.091547
N66	N	-0.343490	0.258670	0.172171
N67	N	-0.330368	0.310214	0.270912
H68	H	-0.363013	0.369242	0.266217
N69	N	-0.408277	-0.049700	0.204086
N70	N	-0.354748	-0.071184	0.308652
H71	H	-0.322083	-0.130203	0.313375
H72	H	-1.022387	-0.136996	0.030983
H73	H	-0.821334	-0.316314	0.412252
H74	H	-1.014099	-0.301923	0.046709
H75	H	-1.052224	-0.544090	-0.025528
H76	H	-0.859454	-0.558484	0.340015
N77	N	-0.530063	-0.119071	0.214534
N78	N	-0.563409	-0.186612	0.222110
H79	H	-0.530760	-0.245638	0.226799
N80	N	-0.697052	-0.106616	0.218525
N81	N	-0.770810	-0.101112	0.220281
H82	H	-0.797754	-0.155686	0.226399
H83	H	-1.006033	-0.409673	0.062006
H84	H	-0.851178	-0.723409	0.355761
