data_functionalizedCrystal
_audit_creation_method	'MofGen! by Chris Wilmer'
_symmetry_space_group_name_H-M	'P1'
_symmetry_Int_Tables_number	1
_symmetry_cell_setting	triclinic
loop_
_symmetry_equiv_pos_as_xyz
  x,y,z
_cell_length_a	16.625548
_cell_length_b	16.625539
_cell_length_c	16.625546
_cell_angle_alpha	90.028532
_cell_angle_beta	89.976464
_cell_angle_gamma	89.982945
loop_
_atom_site_label
_atom_site_type_symbol
_atom_site_fract_x
_atom_site_fract_y
_atom_site_fract_z
Zn1	Zn	1.232652	-0.455898	0.320992
Zn2	Zn	1.565986	-0.122564	0.654325
Zn3	Zn	1.899319	0.210769	0.987659
Zn4	Zn	1.232564	-0.321060	0.455831
Zn5	Zn	1.565897	0.012273	0.789164
Zn6	Zn	1.899231	0.345607	1.122497
Zn7	Zn	1.097823	-0.321078	0.321018
Zn8	Zn	1.431156	0.012255	0.654352
Zn9	Zn	1.764489	0.345589	0.987685
Zn10	Zn	1.097785	-0.455850	0.455789
Zn11	Zn	1.431118	-0.122516	0.789122
Zn12	Zn	1.764451	0.210817	1.122456
O13	O	1.165206	-0.388471	0.388408
O14	O	1.498539	-0.055138	0.721741
O15	O	1.831873	0.278195	1.055074
O16	O	1.345473	-0.438024	0.338885
O17	O	1.678806	-0.104690	0.672219
O18	O	2.012140	0.228643	1.005552
O19	O	1.214669	-0.208230	0.437976
O20	O	1.548002	0.125103	0.771310
O21	O	1.881336	0.458437	1.104643
O22	O	1.115761	-0.338990	0.208182
O23	O	1.449094	-0.005657	0.541516
O24	O	1.782428	0.327677	0.874849
O25	O	1.345408	-0.338959	0.437951
O26	O	1.678741	-0.005625	0.771284
O27	O	2.012075	0.327708	1.104617
O28	O	1.214820	-0.438041	0.208163
O29	O	1.548153	-0.104708	0.541496
O30	O	1.881487	0.228625	0.874830
O31	O	1.115675	-0.208243	0.338930
O32	O	1.449008	0.125090	0.672263
O33	O	1.782342	0.458423	1.005597
O34	O	0.984985	-0.338944	0.338889
O35	O	1.318319	-0.005610	0.672223
O36	O	1.651652	0.327723	1.005556
O37	O	1.115696	-0.568689	0.437879
O38	O	1.449030	-0.235355	0.771213
O39	O	1.782363	0.097978	1.104546
O40	O	0.984957	-0.437960	0.437905
O41	O	1.318291	-0.104626	0.771238
O42	O	1.651624	0.228707	1.104571
O43	O	1.214783	-0.568724	0.338845
O44	O	1.548117	-0.235390	0.672178
O45	O	1.881450	0.097943	1.005511
O46	O	1.214632	-0.338912	0.568658
O47	O	1.547966	-0.005579	0.901991
O48	O	1.881299	0.327754	1.235324
O49	O	1.115611	-0.437942	0.568627
O50	O	1.448944	-0.104609	0.901960
O51	O	1.782277	0.228725	1.235294
C52	C	0.955715	-0.388449	0.388396
C53	C	1.289048	-0.055116	0.721729
C54	C	1.622382	0.278218	1.055063
C55	C	0.866094	-0.388458	0.388410
C56	C	1.199427	-0.055125	0.721744
C57	C	1.532761	0.278208	1.055077
C58	C	0.537918	-0.388493	0.388416
C59	C	0.871252	-0.055159	0.721749
C60	C	1.204585	0.278174	1.055082
C61	C	0.629227	-0.388481	0.388412
C62	C	0.962560	-0.055147	0.721745
C63	C	1.295893	0.278186	1.055079
C64	C	0.702003	-0.388475	0.388414
C65	C	1.035337	-0.055142	0.721747
C66	C	1.368670	0.278192	1.055080
C67	C	0.793318	-0.388464	0.388409
C68	C	1.126651	-0.055131	0.721742
C69	C	1.459984	0.278203	1.055076
C70	C	1.165245	-0.598780	0.388354
C71	C	1.498579	-0.265447	0.721688
C72	C	1.831912	0.067886	1.055021
C73	C	1.165262	-0.688402	0.388332
C74	C	1.498596	-0.355068	0.721665
C75	C	1.831929	-0.021735	1.054998
C76	C	1.165275	-0.761184	0.388314
C77	C	1.498609	-0.427851	0.721647
C78	C	1.831942	-0.094517	1.054980
C79	C	1.165294	-0.852493	0.388284
C80	C	1.498628	-0.519159	0.721617
C81	C	1.831961	-0.185826	1.054950
C82	C	1.165313	-0.925269	0.388255
C83	C	1.498647	-0.591936	0.721589
C84	C	1.831980	-0.258602	1.054922
C85	C	1.165333	-1.016583	0.388226
C86	C	1.498667	-0.683250	0.721560
C87	C	1.832000	-0.349917	1.054893
C88	C	1.375515	-0.388494	0.388420
C89	C	1.708848	-0.055161	0.721753
C90	C	2.042181	0.278172	1.055086
C91	C	1.465136	-0.388504	0.388425
C92	C	1.798469	-0.055171	0.721758
C93	C	2.131803	0.278162	1.055092
C94	C	1.165130	-0.388438	0.597898
C95	C	1.498463	-0.055104	0.931232
C96	C	1.831796	0.278229	1.264565
C97	C	1.165171	-0.388450	0.687519
C98	C	1.498504	-0.055117	1.020853
C99	C	1.831837	0.278217	1.354186
C100	C	1.165213	-0.178981	0.388402
C101	C	1.498546	0.154353	0.721736
C102	C	1.831880	0.487686	1.055069
C103	C	1.165352	-0.089360	0.388198
C104	C	1.498686	0.243973	0.721531
C105	C	1.832019	0.577307	1.054865
C106	C	1.165305	-0.388523	0.178099
C107	C	1.498638	-0.055190	0.511432
C108	C	1.831971	0.278144	0.844765
C109	C	1.165347	-0.388545	0.088477
C110	C	1.498680	-0.055212	0.421811
C111	C	1.832013	0.278122	0.755144
C112	C	1.165311	-0.388534	1.015695
C113	C	1.498645	-0.055201	1.349028
C114	C	1.831978	0.278133	1.682362
C115	C	1.165270	-0.388513	0.924387
C116	C	1.498603	-0.055180	1.257720
C117	C	1.831936	0.278154	1.591053
C118	C	1.165240	-0.388492	0.851610
C119	C	1.498574	-0.055158	1.184944
C120	C	1.831907	0.278175	1.518277
C121	C	1.165200	-0.388471	0.760296
C122	C	1.498533	-0.055138	1.093629
C123	C	1.831867	0.278195	1.426963
