data_functionalizedCrystal
_audit_creation_method	'MofGen! by Chris Wilmer'
_symmetry_space_group_name_H-M	'P1'
_symmetry_Int_Tables_number	1
_symmetry_cell_setting	triclinic
loop_
_symmetry_equiv_pos_as_xyz
  x,y,z
_cell_length_a	18.101398
_cell_length_b	17.077402
_cell_length_c	17.077396
_cell_angle_alpha	89.970216
_cell_angle_beta	89.975078
_cell_angle_gamma	90.018149
loop_
_atom_site_label
_atom_site_type_symbol
_atom_site_fract_x
_atom_site_fract_y
_atom_site_fract_z
Zn1	Zn	1.132168	-0.312607	-0.443949
Zn2	Zn	1.632168	0.187393	0.056051
Zn3	Zn	1.132080	-0.443882	-0.312680
Zn4	Zn	1.632080	0.056118	0.187320
Zn5	Zn	1.008325	-0.312623	-0.312685
Zn6	Zn	1.508325	0.187377	0.187315
Zn7	Zn	1.008295	-0.443824	-0.443891
Zn8	Zn	1.508295	0.056176	0.056109
O9	O	1.070217	-0.378234	-0.378301
O10	O	1.570217	0.121766	0.121699
O11	O	1.235789	-0.330039	-0.426558
O12	O	1.735789	0.169961	0.073442
O13	O	1.115640	-0.426501	-0.202834
O14	O	1.615640	0.073499	0.297166
O15	O	1.024803	-0.202774	-0.330123
O16	O	1.524803	0.297226	0.169877
O17	O	1.235725	-0.426486	-0.330116
O18	O	1.735725	0.073514	0.169884
O19	O	1.115789	-0.202762	-0.426563
O20	O	1.615789	0.297238	0.073437
O21	O	1.024718	-0.330066	-0.202837
O22	O	1.524718	0.169934	0.297163
O23	O	0.904688	-0.330010	-0.330067
O24	O	1.404688	0.169990	0.169933
O25	O	1.024751	-0.426387	-0.553746
O26	O	1.524751	0.073613	-0.053746
O27	O	0.904666	-0.426403	-0.426464
O28	O	1.404666	0.073597	0.073536
O29	O	1.115760	-0.329982	-0.553788
O30	O	1.615760	0.170018	-0.053788
O31	O	1.115610	-0.553721	-0.330059
O32	O	1.615610	-0.053721	0.169941
O33	O	1.024666	-0.553679	-0.426460
O34	O	1.524666	-0.053679	0.073540
C35	C	0.877806	-0.378202	-0.378260
C36	C	1.377806	0.121798	0.121740
C37	C	0.795492	-0.378208	-0.378261
C38	C	1.295492	0.121792	0.121739
C39	C	1.070146	-0.582182	-0.378270
C40	C	1.570146	-0.082182	0.121730
C41	C	1.070183	-0.669432	-0.378283
C42	C	1.570183	-0.169432	0.121717
C43	C	1.117586	-0.710418	-0.328141
C44	C	1.617586	-0.210418	0.171859
C45	C	1.117622	-0.792399	-0.328161
C46	C	1.617622	-0.292399	0.171839
C47	C	1.070251	-0.833391	-0.378319
C48	C	1.570251	-0.333391	0.121681
C49	C	1.022846	-0.792399	-0.428467
C50	C	1.522846	-0.292399	0.071533
C51	C	1.022814	-0.710420	-0.428450
C52	C	1.522814	-0.210420	0.071550
C53	C	1.022914	-0.963269	-0.428497
C54	C	1.522914	-0.463269	0.071503
C55	C	1.022945	-1.045254	-0.428512
C56	C	1.522945	-0.545254	0.071488
C57	C	1.117723	-1.045248	-0.328208
C58	C	1.617723	-0.545248	0.171792
C59	C	1.117691	-0.963269	-0.328191
C60	C	1.617691	-0.463269	0.171809
C61	C	1.070284	-0.922282	-0.378337
C62	C	1.570284	-0.422282	0.121663
C63	C	0.496401	-0.378257	-0.378327
C64	C	0.996401	0.121743	0.121673
C65	C	0.527716	-0.317306	-0.317973
C66	C	1.027716	0.182694	0.182027
C67	C	0.613334	-0.317469	-0.317715
C68	C	1.113334	0.182531	0.182285
C69	C	0.644784	-0.378232	-0.378295
C70	C	1.144784	0.121768	0.121705
C71	C	0.613677	-0.460921	-0.355690
C72	C	1.113677	0.039079	0.144310
C73	C	0.528032	-0.460583	-0.355271
C74	C	1.028032	0.039417	0.144729
C75	C	0.528014	-0.357237	-0.461428
C76	C	1.028014	0.142763	0.038572
C77	C	0.613665	-0.355395	-0.460975
C78	C	1.113665	0.144605	0.039025
C79	C	0.728643	-0.378223	-0.378277
C80	C	1.228643	0.121777	0.121723
C81	C	0.412542	-0.378271	-0.378343
C82	C	0.912542	0.121729	0.121657
C83	C	1.263379	-0.378267	-0.378343
C84	C	1.763379	0.121733	0.121657
C85	C	1.345693	-0.378281	-0.378361
C86	C	1.845693	0.121719	0.121639
C87	C	1.070262	-0.378176	-0.583046
C88	C	1.570262	0.121824	-0.083046
C89	C	1.070281	-0.378152	-0.670296
C90	C	1.570281	0.121848	-0.170296
C91	C	1.070309	-0.173490	-0.378350
C92	C	1.570309	0.326510	0.121650
C93	C	1.070348	-0.086240	-0.378371
C94	C	1.570348	0.413760	0.121629
C95	C	1.117671	-0.327950	-0.711309
C96	C	1.617671	0.172050	-0.211309
C97	C	1.117680	-0.327924	-0.793290
C98	C	1.617680	0.172076	-0.293290
C99	C	1.070302	-0.378104	-0.834255
C100	C	1.570302	0.121896	-0.334255
C101	C	1.022907	-0.428308	-0.793236
C102	C	1.522907	0.071692	-0.293236
C103	C	1.022895	-0.428330	-0.711257
C104	C	1.522895	0.071670	-0.211257
C105	C	1.022937	-0.428261	-0.964106
C106	C	1.522937	0.071739	-0.464106
C107	C	1.022950	-0.428241	-1.046091
C108	C	1.522950	0.071759	-0.546091
C109	C	1.117722	-0.327855	-1.046139
C110	C	1.617722	0.172145	-0.546139
C111	C	1.117710	-0.327876	-0.964160
C112	C	1.617710	0.172124	-0.464160
C113	C	1.070315	-0.378082	-0.923146
C114	C	1.570315	0.121918	-0.423146
C115	C	1.070215	-0.378235	-0.174353
C116	C	1.570215	0.121765	0.325647
C117	C	1.070339	-0.378039	-0.087104
C118	C	1.570339	0.121961	0.412896
H119	H	1.156158	-0.677047	-0.287293
H120	H	1.656158	-0.177047	0.212707
C121	C	1.127991	-0.222388	-0.619147
C122	C	1.627991	0.277612	-0.119147
C123	C	1.169748	-0.272787	-0.666283
C124	C	1.669748	0.227213	-0.166283
H125	H	1.160142	-0.188333	-0.591350
H126	H	1.660142	0.311667	-0.091350
H127	H	1.095748	-0.192353	-0.651128
H128	H	1.595748	0.307647	-0.151128
H129	H	1.099772	-0.252299	-0.582988
H130	H	1.599772	0.247701	-0.082988
H131	H	1.197964	-0.242875	-0.702446
H132	H	1.697964	0.257125	-0.202446
H133	H	1.202004	-0.302824	-0.634300
H134	H	1.702004	0.197176	-0.134300
C135	C	0.929225	-0.527534	-0.784948
C136	C	1.429225	-0.027534	-0.284948
C137	C	0.970826	-0.483468	-0.838262
C138	C	1.470826	0.016532	-0.338262
H139	H	0.897071	-0.561585	-0.812746
H140	H	1.397071	-0.061585	-0.312746
H141	H	0.961472	-0.557572	-0.752975
H142	H	1.461472	-0.057572	-0.252975
H143	H	0.900910	-0.493327	-0.752973
H144	H	1.400910	0.006673	-0.252973
H145	H	0.999146	-0.517675	-0.870233
H146	H	1.499146	-0.017675	-0.370233
H147	H	0.938575	-0.453428	-0.870248
H148	H	1.438575	0.046572	-0.370248
H149	H	0.984297	-0.469202	-0.677865
H150	H	1.484297	0.030798	-0.177865
H151	H	1.156260	-0.929892	-0.287344
H152	H	1.656260	-0.429892	0.212656
C153	C	0.986834	-1.070446	-0.561404
C154	C	1.486834	-0.570446	-0.061404
C155	C	0.970885	-1.090321	-0.483653
C156	C	1.470885	-0.590321	0.016347
H157	H	0.954698	-1.098274	-0.595445
H158	H	1.454698	-0.598274	-0.095445
H159	H	0.980022	-1.015765	-0.568572
H160	H	1.480022	-0.515765	-0.068572
H161	H	1.036596	-1.083833	-0.572926
H162	H	1.536596	-0.583833	-0.072926
H163	H	0.921124	-1.076928	-0.472129
H164	H	1.421124	-0.576928	0.027871
H165	H	0.977691	-1.145014	-0.476482
H166	H	1.477691	-0.645014	0.023518
C167	C	1.160005	-1.170908	-0.283843
C168	C	1.660005	-0.670908	0.216157
C169	C	1.169931	-1.090296	-0.273189
C170	C	1.669931	-0.590296	0.226811
H171	H	1.192264	-1.198720	-0.249908
H172	H	1.692264	-0.698720	0.250092
H173	H	1.110296	-1.184441	-0.272210
H174	H	1.610296	-0.684441	0.227790
H175	H	1.170735	-1.184235	-0.336635
H176	H	1.670735	-0.684235	0.163365
H177	H	1.159195	-1.076969	-0.220398
H178	H	1.659195	-0.576969	0.279602
H179	H	1.219650	-1.076758	-0.284815
H180	H	1.719650	-0.576758	0.215185
H181	H	0.634048	-0.507551	-0.398274
H182	H	1.134048	-0.007551	0.101726
H183	H	0.984314	-0.929901	-0.469334
H184	H	1.484314	-0.429901	0.030666
C185	C	1.211290	-0.784158	-0.229004
C186	C	1.711290	-0.284158	0.270996
C187	C	1.169725	-0.837451	-0.273039
C188	C	1.669725	-0.337451	0.226961
H189	H	1.243454	-0.811973	-0.194970
H190	H	1.743454	-0.311973	0.305030
H191	H	1.239588	-0.752138	-0.263225
H192	H	1.739588	-0.252138	0.236775
H193	H	1.179016	-0.752229	-0.198942
H194	H	1.679016	-0.252229	0.301058
H195	H	1.201999	-0.869376	-0.303106
H196	H	1.701999	-0.369376	0.196894
H197	H	1.141425	-0.869484	-0.238813
H198	H	1.641425	-0.369484	0.261187
H199	H	0.634366	-0.256152	-0.331884
H200	H	1.134366	0.243848	0.168116
C201	C	0.986796	-0.561141	-1.071303
C202	C	1.486796	-0.061141	-0.571303
C203	C	0.970866	-0.483390	-1.091127
C204	C	1.470866	0.016610	-0.591127
H205	H	0.954638	-0.595185	-1.099105
H206	H	1.454638	-0.095185	-0.599105
H207	H	1.036545	-0.572636	-1.084748
H208	H	1.536545	-0.072636	-0.584748
H209	H	0.979997	-0.568335	-1.016610
H210	H	1.479997	-0.068335	-0.516610
H211	H	0.977671	-0.476195	-1.145819
H212	H	1.477671	0.023805	-0.645819
H213	H	0.921106	-0.471891	-1.077686
H214	H	1.421106	0.028109	-0.577686
H215	H	1.156311	-0.286974	-1.079536
H216	H	1.656311	0.213026	-0.579536
H217	H	0.984279	-0.825782	-0.469310
H218	H	1.484279	-0.325782	0.030690
C219	C	1.128024	-0.222296	-0.885488
C220	C	1.628024	0.277704	-0.385488
C221	C	1.169769	-0.272730	-0.838364
C222	C	1.669769	0.227270	-0.338364
H223	H	1.160182	-0.188213	-0.913308
H224	H	1.660182	0.311787	-0.413308
H225	H	1.099821	-0.252174	-0.921620
H226	H	1.599821	0.247826	-0.421620
H227	H	1.095766	-0.192286	-0.853491
H228	H	1.595766	0.307714	-0.353491
H229	H	1.202023	-0.302744	-0.870362
H230	H	1.702023	0.197256	-0.370362
H231	H	1.197985	-0.242848	-0.802228
H232	H	1.697985	0.257152	-0.302228
H233	H	0.984214	-0.677050	-0.469282
H234	H	1.484214	-0.177050	0.030718
H235	H	0.507137	-0.255801	-0.331986
H236	H	1.007137	0.244199	0.168014
H237	H	0.506168	-0.331045	-0.256754
H238	H	1.006168	0.168955	0.243246
H239	H	0.633789	-0.331365	-0.256139
H240	H	1.133789	0.168635	0.243861
C241	C	0.561975	-0.499220	-0.224965
C242	C	1.061975	0.000780	0.275035
C243	C	0.501013	-0.484638	-0.273259
C244	C	1.001013	0.015362	0.226741
H245	H	0.545296	-0.514065	-0.174332
H246	H	1.045296	-0.014065	0.325668
H247	H	0.590762	-0.540299	-0.246731
H248	H	1.090762	-0.040299	0.253269
H249	H	0.591204	-0.453179	-0.221071
H250	H	1.091204	0.046821	0.278929
H251	H	0.471786	-0.530682	-0.277158
H252	H	0.971786	-0.030682	0.222842
H253	H	0.472213	-0.443556	-0.251488
H254	H	0.972213	0.056444	0.248512
C255	C	0.560456	-0.562072	-0.446251
C256	C	1.060456	-0.062072	0.053749
C257	C	0.500061	-0.523961	-0.412025
C258	C	1.000061	-0.023961	0.087975
H259	H	0.543188	-0.601201	-0.481284
H260	H	1.043188	-0.101201	0.018716
H261	H	0.589548	-0.525120	-0.474173
H262	H	1.089548	-0.025120	0.025827
H263	H	0.589583	-0.585753	-0.406505
H264	H	1.089583	-0.085753	0.093495
H265	H	0.470936	-0.500276	-0.451770
H266	H	0.970936	-0.000276	0.048230
H267	H	0.470956	-0.560919	-0.384102
H268	H	0.970956	-0.060919	0.115898
H269	H	0.635093	-0.479056	-0.295596
H270	H	1.135093	0.020944	0.204404
H271	H	0.506434	-0.297989	-0.481979
H272	H	1.006434	0.202011	0.018021
H273	H	1.156293	-0.287019	-0.930808
H274	H	1.656293	0.212981	-0.430808
H275	H	0.634001	-0.294545	-0.478019
H276	H	1.134001	0.205455	0.021981
C277	C	0.689086	-0.467026	-0.491083
C278	C	1.189086	0.032974	0.008917
C279	C	0.642558	-0.410961	-0.524937
C280	C	1.142558	0.089039	-0.024937
H281	H	0.706917	-0.501338	-0.530570
H282	H	1.206917	-0.001338	-0.030570
H283	H	0.729584	-0.441549	-0.466573
H284	H	1.229584	0.058451	0.033427
H285	H	0.662305	-0.496224	-0.453154
H286	H	1.162305	0.003776	0.046846
H287	H	0.669340	-0.381760	-0.562862
H288	H	1.169340	0.118240	-0.062862
H289	H	0.602053	-0.436441	-0.549460
H290	H	1.102053	0.063559	-0.049460
C291	C	0.529101	-0.397983	-0.595973
C292	C	1.029101	0.102017	-0.095973
C293	C	0.500676	-0.417160	-0.522141
C294	C	1.000676	0.082840	-0.022141
H295	H	0.512223	-0.434982	-0.633447
H296	H	1.012223	0.065018	-0.133447
H297	H	0.512817	-0.347123	-0.610419
H298	H	1.012817	0.152877	-0.110419
H299	H	0.581544	-0.398853	-0.594126
H300	H	1.081544	0.101147	-0.094126
H301	H	0.448233	-0.416284	-0.523986
H302	H	0.948233	0.083716	-0.023986
H303	H	0.516956	-0.468034	-0.507692
H304	H	1.016956	0.031966	-0.007692
H305	H	0.984332	-0.469131	-0.930715
H306	H	1.484332	0.030869	-0.430715
