data_functionalizedCrystal
_audit_creation_method	'MofGen! by Chris Wilmer'
_symmetry_space_group_name_H-M	'P1'
_symmetry_Int_Tables_number	1
_symmetry_cell_setting	triclinic
loop_
_symmetry_equiv_pos_as_xyz
  x,y,z
_cell_length_a	8.597366
_cell_length_b	8.597304
_cell_length_c	15.186229
_cell_angle_alpha	82.296375
_cell_angle_beta	97.698604
_cell_angle_gamma	86.359176
loop_
_atom_site_label
_atom_site_type_symbol
_atom_site_fract_x
_atom_site_fract_y
_atom_site_fract_z
O1	O	2.085993	0.234287	0.067269
O2	O	1.629343	0.252265	0.031257
O3	O	1.866654	0.014947	0.067270
O4	O	1.848682	0.471605	0.031256
O5	O	1.866638	0.014944	0.213726
O6	O	1.629327	0.252262	0.177713
O7	O	2.085977	0.234284	0.213725
Zn8	Zn	1.857649	0.243272	0.218972
Zn9	Zn	1.857671	0.243277	0.026010
O10	O	1.848666	0.471602	0.177712
C11	C	1.570835	0.250334	0.100192
C12	C	1.396523	0.244564	0.087404
C13	C	1.864716	-0.043556	0.144789
C14	C	1.858945	-0.217871	0.157572
C15	C	2.144485	0.236216	0.144788
C16	C	2.318797	0.241985	0.157570
C17	C	1.850604	0.530105	0.100192
C18	C	1.856375	0.704420	0.087403
N19	N	1.857646	0.243268	0.350665
N20	N	1.857686	0.243269	-0.105681
C21	C	1.962765	0.138220	0.592335
C22	C	1.962769	0.138217	0.684525
C23	C	1.752556	0.348322	0.652642
C24	C	1.752545	0.348316	0.560453
C25	C	1.857658	0.243268	0.530303
C26	C	1.857674	0.243269	0.714681
C27	C	1.857679	0.243266	0.814638
C28	C	1.857652	0.243268	0.430340
H29	H	1.385614	0.244192	0.227436
O30	O	1.859217	-0.216043	0.004037
C31	C	1.993509	-0.271594	-0.030161
H32	H	2.034783	-0.395806	0.004992
H33	H	2.091507	-0.190430	-0.017745
C34	C	1.901374	-0.121568	-0.174952
C35	C	1.952060	-0.274132	-0.131781
H36	H	1.875811	-0.123127	-0.237637
H37	H	1.810902	-0.084136	-0.151912
H38	H	1.983048	-0.053947	-0.164596
H39	H	1.870380	-0.341745	-0.142129
H40	H	2.042518	-0.311575	-0.154826
H41	H	2.048355	0.052676	0.735030
H42	H	1.329715	0.242346	0.017544
H43	H	1.856711	-0.284703	0.227434
H44	H	2.048352	0.052681	0.567789
H45	H	1.666978	0.433852	0.677200
O46	O	1.650383	0.450518	0.500309
C47	C	1.557592	0.543220	0.546687
H48	H	1.621981	0.546029	0.617070
H49	H	1.440204	0.490394	0.551604
C50	C	1.448745	0.708601	0.409184
C51	C	1.527834	0.712061	0.495628
H52	H	1.430381	0.812748	0.377687
H53	H	1.511254	0.646143	0.377938
H54	H	1.350930	0.664571	0.413293
H55	H	1.625654	0.756071	0.491517
H56	H	1.465340	0.774531	0.526873
