data_functionalizedCrystal
_audit_creation_method	'MofGen! by Chris Wilmer'
_symmetry_space_group_name_H-M	'P1'
_symmetry_Int_Tables_number	1
_symmetry_cell_setting	triclinic
loop_
_symmetry_equiv_pos_as_xyz
  x,y,z
_cell_length_a	21.295420
_cell_length_b	21.295417
_cell_length_c	12.759393
_cell_angle_alpha	89.961877
_cell_angle_beta	89.978160
_cell_angle_gamma	90.027953
loop_
_atom_site_label
_atom_site_type_symbol
_atom_site_fract_x
_atom_site_fract_y
_atom_site_fract_z
Zn1	Zn	0.962341	-0.250601	-0.594027
Zn2	Zn	1.462341	0.249399	-0.094027
Zn3	Zn	0.962250	-0.355885	-0.418327
Zn4	Zn	1.462250	0.144115	0.081673
Zn5	Zn	0.857070	-0.250631	-0.418356
Zn6	Zn	1.357070	0.249369	0.081644
Zn7	Zn	0.857035	-0.355834	-0.593958
Zn8	Zn	1.357035	0.144166	-0.093958
O9	O	0.909674	-0.303238	-0.506167
O10	O	1.409674	0.196762	-0.006167
O11	O	1.050418	-0.264577	-0.570737
O12	O	1.550418	0.235423	-0.070737
O13	O	0.948274	-0.341957	-0.271310
O14	O	1.448274	0.158043	0.228690
O15	O	0.871087	-0.162538	-0.441700
O16	O	1.371087	0.337462	0.058300
O17	O	1.050352	-0.341929	-0.441651
O18	O	1.550352	0.158071	0.058349
O19	O	0.948429	-0.162516	-0.570765
O20	O	1.448429	0.337484	-0.070765
O21	O	0.870998	-0.264627	-0.271331
O22	O	1.370998	0.235373	0.228669
O23	O	0.768976	-0.264577	-0.441634
O24	O	1.268976	0.235423	0.058366
O25	O	0.871028	-0.341840	-0.740989
O26	O	1.371028	0.158160	-0.240989
O27	O	0.768950	-0.341869	-0.570648
O28	O	1.268950	0.158131	-0.070648
O29	O	0.948396	-0.264527	-0.741039
O30	O	1.448396	0.235473	-0.241039
O31	O	0.948241	-0.443968	-0.441584
O32	O	1.448241	0.056032	0.058416
O33	O	0.870940	-0.443930	-0.570620
O34	O	1.370940	0.056070	-0.070620
C35	C	0.746122	-0.303221	-0.506137
C36	C	1.246122	0.196779	-0.006137
C37	C	0.676154	-0.303229	-0.506149
C38	C	1.176154	0.196771	-0.006149
C39	C	0.176700	-0.343558	-0.573280
C40	C	0.676700	0.156442	-0.073280
C41	C	0.242442	-0.343558	-0.573269
C42	C	0.742442	0.156442	-0.073269
C43	C	0.275315	-0.303252	-0.506200
C44	C	0.775315	0.196748	-0.006200
C45	C	0.242440	-0.262954	-0.439119
C46	C	0.742440	0.237046	0.060881
C47	C	0.176698	-0.262960	-0.439124
C48	C	0.676698	0.237040	0.060876
N49	N	0.378555	-0.248136	-0.498300
N50	N	0.878555	0.251864	0.001700
N51	N	0.441007	-0.248133	-0.498301
N52	N	0.941007	0.251867	0.001699
C53	C	0.473390	-0.303234	-0.506178
C54	C	0.973390	0.196766	-0.006178
N55	N	0.440962	-0.358341	-0.514075
N56	N	0.940962	0.141659	-0.014075
N57	N	0.378505	-0.358343	-0.514079
N58	N	0.878505	0.141657	-0.014079
C59	C	0.346600	-0.303242	-0.506186
C60	C	0.846600	0.196758	-0.006186
C61	C	0.577543	-0.343533	-0.573238
C62	C	1.077543	0.156467	-0.073238
C63	C	0.643286	-0.343534	-0.573219
C64	C	1.143286	0.156466	-0.073219
C65	C	0.643282	-0.262925	-0.439075
C66	C	1.143282	0.237075	0.060925
C67	C	0.577540	-0.262929	-0.439088
C68	C	1.077540	0.237071	0.060912
C69	C	0.544674	-0.303232	-0.506175
C70	C	1.044674	0.196768	-0.006175
C71	C	0.909594	-0.466789	-0.506114
C72	C	1.409594	0.033211	-0.006114
C73	C	0.909617	-0.536758	-0.506126
C74	C	1.409617	-0.036758	-0.006126
C75	C	0.949866	-0.569556	-0.573378
C76	C	1.449866	-0.069556	-0.073378
C77	C	0.949889	-0.635298	-0.573404
C78	C	1.449889	-0.135298	-0.073404
C79	C	0.909668	-0.668240	-0.506160
C80	C	1.409668	-0.168240	-0.006160
C81	C	0.869411	-0.635434	-0.438903
C82	C	1.369411	-0.135434	0.061097
C83	C	0.869386	-0.569693	-0.438886
C84	C	1.369386	-0.069693	0.061114
N85	N	0.904911	-0.771509	-0.414213
N86	N	1.404911	-0.271509	0.085787
N87	N	0.904939	-0.833960	-0.414231
N88	N	1.404939	-0.333960	0.085769
C89	C	0.909742	-0.866315	-0.506207
C90	C	1.409742	-0.366315	-0.006207
N91	N	0.914527	-0.833858	-0.598165
N92	N	1.414527	-0.333858	-0.098165
N93	N	0.914503	-0.771401	-0.598145
N94	N	1.414503	-0.271401	-0.098145
C95	C	0.909691	-0.739525	-0.506170
C96	C	1.409691	-0.239525	-0.006170
C97	C	0.950017	-0.970398	-0.573493
C98	C	1.450017	-0.470398	-0.073493
C99	C	0.950035	-1.036142	-0.573520
C100	C	1.450035	-0.536142	-0.073520
C101	C	0.869561	-1.036277	-0.439010
C102	C	1.369561	-0.536277	0.060990
C103	C	0.869540	-0.970534	-0.438991
C104	C	1.369540	-0.470534	0.061009
C105	C	0.909771	-0.937599	-0.506231
C106	C	1.409771	-0.437599	-0.006231
C107	C	1.073864	-0.303255	-0.506198
C108	C	1.573864	0.196745	-0.006198
C109	C	1.143832	-0.303263	-0.506211
C110	C	1.643832	0.196737	-0.006211
C111	C	0.909718	-0.303174	-0.780201
C112	C	1.409718	0.196826	-0.280201
C113	C	0.909737	-0.303147	-0.896977
C114	C	1.409737	0.196853	-0.396977
C115	C	0.909772	-0.139048	-0.506244
C116	C	1.409772	0.360952	-0.006244
C117	C	0.909813	-0.069079	-0.506276
C118	C	1.409813	0.430921	-0.006276
C119	C	0.950028	-0.262886	-0.951867
C120	C	1.450028	0.237114	-0.451867
C121	C	0.950043	-0.262864	-1.061592
C122	C	1.450043	0.237136	-0.561592
C123	C	0.869474	-0.343368	-1.061526
C124	C	1.369474	0.156632	-0.561526
C125	C	0.869457	-0.343387	-0.951804
C126	C	1.369457	0.156613	-0.451804
C127	C	0.990308	-0.222646	-0.897041
C128	C	1.490308	0.277354	-0.397041
C129	C	1.030603	-0.182382	-0.951931
C130	C	1.530603	0.317618	-0.451931
C131	C	1.030618	-0.182360	-1.061655
C132	C	1.530618	0.317640	-0.561655
C133	C	0.990338	-0.222601	-1.116489
C134	C	1.490338	0.277399	-0.616489
C135	C	0.909666	-0.303256	-0.233200
C136	C	1.409666	0.196744	0.266800
C137	C	0.909770	-0.303105	-0.116424
C138	C	1.409770	0.196895	0.383576
H139	H	0.149944	-0.376378	-0.627903
H140	H	0.649944	0.123622	-0.127903
H141	H	0.269208	-0.376371	-0.627887
H142	H	0.769208	0.123629	-0.127887
H143	H	0.990302	-0.222662	-0.807698
H144	H	1.490302	0.277338	-0.307698
H145	H	0.149938	-0.230145	-0.384509
H146	H	0.649938	0.269855	0.115491
O147	O	0.990452	-0.222520	-1.223076
O148	O	1.490452	0.277480	-0.723076
C149	C	1.034639	-0.178342	-1.259770
C150	C	1.534639	0.321658	-0.759770
H151	H	1.071411	-0.169541	-1.196551
H152	H	1.571411	0.330459	-0.696551
H153	H	1.058527	-0.197328	-1.333166
H154	H	1.558527	0.302672	-0.833166
H155	H	1.009709	-0.132436	-1.279264
H156	H	1.509709	0.367564	-0.779264
H157	H	1.063393	-0.149616	-0.907278
H158	H	1.563393	0.350384	-0.407278
H159	H	0.836609	-0.542988	-0.384121
H160	H	1.336609	-0.042988	0.115879
O161	O	0.830311	-0.667499	-0.373726
O162	O	1.330311	-0.167499	0.126274
C163	C	0.789640	-0.705523	-0.433490
C164	C	1.289640	-0.205523	0.066510
H165	H	0.811821	-0.715314	-0.513145
H166	H	1.311821	-0.215314	-0.013145
H167	H	0.781236	-0.751780	-0.390693
H168	H	1.281236	-0.251780	0.109307
H169	H	0.742976	-0.680223	-0.444958
H170	H	1.242976	-0.180223	0.055042
H171	H	0.550779	-0.230115	-0.384477
H172	H	1.050779	0.269885	0.115523
H173	H	0.982659	-0.662008	-0.628181
H174	H	1.482659	-0.162008	-0.128181
H175	H	0.836638	-0.376162	-0.907111
H176	H	1.336638	0.123838	-0.407111
H177	H	0.982624	-0.542742	-0.628132
H178	H	1.482624	-0.042742	-0.128132
H179	H	0.982774	-0.943582	-0.628247
H180	H	1.482774	-0.443582	-0.128247
H181	H	0.982811	-1.062845	-0.628290
H182	H	1.482811	-0.562845	-0.128290
O183	O	0.830455	-1.068335	-0.373837
O184	O	1.330455	-0.568335	0.126163
C185	C	0.789782	-1.106353	-0.433607
C186	C	1.289782	-0.606353	0.066393
H187	H	0.811964	-1.116145	-0.513260
H188	H	1.311964	-0.616145	-0.013260
H189	H	0.781370	-1.152610	-0.390813
H190	H	1.281370	-0.652610	0.109187
H191	H	0.743122	-1.081047	-0.445078
H192	H	1.243122	-0.581047	0.054922
H193	H	0.836768	-0.943828	-0.384224
H194	H	1.336768	-0.443828	0.115776
O195	O	1.069725	-0.143159	-1.114859
O196	O	1.569725	0.356841	-0.614859
C197	C	1.055994	-0.080423	-1.088094
C198	C	1.555994	0.419577	-0.588094
H199	H	1.031782	-0.079132	-1.008426
H200	H	1.531782	0.420868	-0.508426
H201	H	1.101443	-0.052205	-1.084361
H202	H	1.601443	0.447795	-0.584361
H203	H	1.023654	-0.059201	-1.149852
H204	H	1.523654	0.440799	-0.649852
O205	O	0.274439	-0.223888	-0.373918
O206	O	0.774439	0.276112	0.126082
C207	C	0.312425	-0.259681	-0.305938
C208	C	0.812425	0.240319	0.194062
H209	H	0.322262	-0.307409	-0.342853
H210	H	0.822262	0.192591	0.157147
H211	H	0.358661	-0.234028	-0.291933
H212	H	0.858661	0.265972	0.208067
H213	H	0.287068	-0.266549	-0.228060
H214	H	0.787068	0.233451	0.271940
O215	O	0.545709	-0.382740	-0.638437
O216	O	1.045709	0.117260	-0.138437
C217	C	0.588820	-0.418297	-0.697649
C218	C	1.088820	0.081703	-0.197649
H219	H	0.635668	-0.420453	-0.654598
H220	H	1.135668	0.079547	-0.154598
H221	H	0.569803	-0.467900	-0.708726
H222	H	1.069803	0.032100	-0.208726
H223	H	0.595850	-0.395292	-0.777503
H224	H	1.095850	0.104708	-0.277503
O225	O	0.675245	-0.382745	-0.638224
O226	O	1.175245	0.117255	-0.138224
C227	C	0.713251	-0.423354	-0.578293
C228	C	1.213251	0.076646	-0.078293
H229	H	0.693414	-0.427196	-0.495539
H230	H	1.193414	0.072804	0.004461
H231	H	0.713988	-0.471820	-0.616159
H232	H	1.213988	0.028180	-0.116159
H233	H	0.763082	-0.403884	-0.574719
H234	H	1.263082	0.096116	-0.074719
O235	O	0.675275	-0.223859	-0.373870
O236	O	1.175275	0.276141	0.126130
C237	C	0.713256	-0.259651	-0.305883
C238	C	1.213256	0.240349	0.194117
H239	H	0.723096	-0.307380	-0.342795
H240	H	1.223096	0.192620	0.157205
H241	H	0.759492	-0.233998	-0.291871
H242	H	1.259492	0.266002	0.208129
H243	H	0.687895	-0.266518	-0.228009
H244	H	1.187895	0.233482	0.271991
O245	O	0.830413	-0.382440	-1.114951
O246	O	1.330413	0.117560	-0.614951
C247	C	0.839059	-0.373780	-1.223565
C248	C	1.339059	0.126220	-0.723565
H249	H	0.887654	-0.353164	-1.238569
H250	H	1.387654	0.146836	-0.738569
H251	H	0.834771	-0.420924	-1.265235
H252	H	1.334771	0.079076	-0.765235
H253	H	0.801745	-0.340250	-1.254720
H254	H	1.301745	0.159750	-0.754720
