data_functionalizedCrystal
_audit_creation_method	'MofGen! by Chris Wilmer'
_symmetry_space_group_name_H-M	'P1'
_symmetry_Int_Tables_number	1
_symmetry_cell_setting	triclinic
loop_
_symmetry_equiv_pos_as_xyz
  x,y,z
_cell_length_a	16.959455
_cell_length_b	21.295417
_cell_length_c	16.959447
_cell_angle_alpha	89.965854
_cell_angle_beta	89.985678
_cell_angle_gamma	90.026649
loop_
_atom_site_label
_atom_site_type_symbol
_atom_site_fract_x
_atom_site_fract_y
_atom_site_fract_z
Zn1	Zn	1.208331	-0.250648	-0.446888
Zn2	Zn	1.708331	0.249352	0.053112
Zn3	Zn	1.208231	-0.355925	-0.314700
Zn4	Zn	1.708231	0.144075	0.185300
Zn5	Zn	1.076159	-0.250668	-0.314725
Zn6	Zn	1.576159	0.249332	0.185275
Zn7	Zn	1.076102	-0.355878	-0.446839
Zn8	Zn	1.576102	0.144122	0.053161
O9	O	1.142206	-0.303280	-0.380788
O10	O	1.642206	0.196720	0.119212
O11	O	1.318929	-0.264625	-0.429363
O12	O	1.818929	0.235375	0.070637
O13	O	1.190694	-0.341990	-0.204093
O14	O	1.690694	0.158010	0.295907
O15	O	1.093758	-0.162576	-0.332288
O16	O	1.593758	0.337424	0.167712
O17	O	1.318855	-0.341971	-0.332245
O18	O	1.818855	0.158029	0.167755
O19	O	1.190864	-0.162561	-0.429387
O20	O	1.690864	0.337439	0.070613
O21	O	1.093661	-0.264658	-0.204111
O22	O	1.593661	0.235342	0.295889
O23	O	0.965541	-0.264613	-0.332240
O24	O	1.465541	0.235387	0.167760
O25	O	1.093660	-0.341891	-0.557456
O26	O	1.593660	0.158109	-0.057456
O27	O	0.965499	-0.341910	-0.429304
O28	O	1.465499	0.158090	0.070696
O29	O	1.190808	-0.264579	-0.557492
O30	O	1.690808	0.235421	-0.057492
O31	O	1.190638	-0.444008	-0.332198
O32	O	1.690638	0.055992	0.167802
O33	O	1.093563	-0.443973	-0.429280
O34	O	1.593563	0.056027	0.070720
C35	C	0.936840	-0.303259	-0.380770
C36	C	1.436840	0.196741	0.119230
C37	C	0.848983	-0.303265	-0.380781
C38	C	1.348983	0.196735	0.119219
C39	C	0.477505	-0.262998	-0.330353
C40	C	0.977505	0.237002	0.169647
C41	C	0.477510	-0.343613	-0.431269
C42	C	0.977510	0.156387	0.068731
C43	C	0.560056	-0.343604	-0.431264
C44	C	1.060056	0.156396	0.068736
C45	C	0.601330	-0.303292	-0.380802
C46	C	1.101330	0.196708	0.119198
C47	C	0.560058	-0.262989	-0.330345
C48	C	1.060058	0.237011	0.169655
C49	C	0.601333	-0.383911	-0.481714
C50	C	1.101333	0.116089	0.018286
C51	C	0.683884	-0.383904	-0.481711
C52	C	1.183884	0.116096	0.018289
C53	C	0.725160	-0.343588	-0.431252
C54	C	1.225160	0.156412	0.068748
C55	C	0.683884	-0.303283	-0.380794
C56	C	1.183884	0.196717	0.119206
C57	C	0.725158	-0.262971	-0.330332
C58	C	1.225158	0.237029	0.169668
C59	C	0.683883	-0.222662	-0.279877
C60	C	1.183883	0.277338	0.220123
C61	C	0.601334	-0.222673	-0.279886
C62	C	1.101334	0.277327	0.220114
C63	C	0.807709	-0.343577	-0.431243
C64	C	1.307709	0.156423	0.068757
C65	C	0.807711	-0.262962	-0.330324
C66	C	1.307711	0.237038	0.169676
C67	C	1.142105	-0.466831	-0.380748
C68	C	1.642105	0.033169	0.119252
C69	C	1.142134	-0.536799	-0.380757
C70	C	1.642134	-0.036799	0.119243
C71	C	1.192668	-0.569601	-0.431353
C72	C	1.692668	-0.069601	0.068647
C73	C	1.192696	-0.635344	-0.431372
C74	C	1.692696	-0.135344	0.068628
C75	C	1.142198	-0.668282	-0.380782
C76	C	1.642198	-0.168282	0.119218
C77	C	1.091654	-0.635472	-0.330183
C78	C	1.591654	-0.135472	0.169817
C79	C	1.091622	-0.569731	-0.330170
C80	C	1.591622	-0.069731	0.169830
N81	N	1.136233	-0.771547	-0.311606
N82	N	1.636233	-0.271547	0.188394
N83	N	1.136268	-0.833998	-0.311620
N84	N	1.636268	-0.333998	0.188380
C85	C	1.142291	-0.866356	-0.380818
C86	C	1.642291	-0.366356	0.119182
N87	N	1.148292	-0.833904	-0.450002
N88	N	1.648292	-0.333904	0.049998
N89	N	1.148261	-0.771447	-0.449987
N90	N	1.648261	-0.271447	0.050013
C91	C	1.142227	-0.739567	-0.380790
C92	C	1.642227	-0.239567	0.119210
C93	C	1.192858	-0.970444	-0.431439
C94	C	1.692858	-0.470444	0.068561
C95	C	1.192880	-1.036188	-0.431460
C96	C	1.692880	-0.536188	0.068540
C97	C	1.091842	-1.036315	-0.330263
C98	C	1.591842	-0.536315	0.169737
C99	C	1.091816	-0.970572	-0.330249
C100	C	1.591816	-0.470572	0.169751
C101	C	1.142328	-0.937641	-0.380836
C102	C	1.642328	-0.437641	0.119164
C103	C	1.348374	-0.303301	-0.380807
C104	C	1.848374	0.196699	0.119193
C105	C	1.436231	-0.303310	-0.380815
C106	C	1.936231	0.196690	0.119185
C107	C	1.142239	-0.303228	-0.586956
C108	C	1.642239	0.196772	-0.086956
C109	C	1.142253	-0.303205	-0.674813
C110	C	1.642253	0.196795	-0.174813
C111	C	1.142328	-0.139089	-0.380845
C112	C	1.642328	0.360911	0.119155
C113	C	1.142381	-0.069121	-0.380870
C114	C	1.642381	0.430879	0.119130
C115	C	1.091767	-0.343392	-1.046273
C116	C	1.591767	0.156608	-0.546273
C117	C	1.192928	-0.262886	-1.046305
C118	C	1.692928	0.237114	-0.546305
C119	C	1.192907	-0.262900	-0.963759
C120	C	1.692907	0.237100	-0.463759
C121	C	1.142316	-0.303160	-0.922466
C122	C	1.642316	0.196840	-0.422466
C123	C	1.091746	-0.343407	-0.963719
C124	C	1.591746	0.156593	-0.463719
C125	C	1.243482	-0.222658	-0.922500
C126	C	1.743482	0.277342	-0.422500
C127	C	1.243463	-0.222670	-0.839949
C128	C	1.743463	0.277330	-0.339949
C129	C	1.192867	-0.262928	-0.798654
C130	C	1.692867	0.237072	-0.298654
C131	C	1.142295	-0.303176	-0.839912
C132	C	1.642295	0.196824	-0.339912
C133	C	1.091704	-0.343437	-0.798619
C134	C	1.591704	0.156563	-0.298619
C135	C	1.041126	-0.383682	-0.839876
C136	C	1.541126	0.116318	-0.339876
C137	C	1.041150	-0.383665	-0.922425
C138	C	1.541150	0.116335	-0.422425
C139	C	1.192844	-0.262945	-0.716106
C140	C	1.692844	0.237055	-0.216106
C141	C	1.091683	-0.343453	-0.716066
C142	C	1.591683	0.156547	-0.216066
C143	C	1.142219	-0.303286	-0.175422
C144	C	1.642219	0.196714	0.324578
C145	C	1.142358	-0.303131	-0.087566
C146	C	1.642358	0.196869	0.412434
H147	H	0.841311	-0.376398	-0.472320
H148	H	1.341311	0.123602	0.027680
H149	H	1.233796	-0.542790	-0.472546
H150	H	1.733796	-0.042790	0.027454
H151	H	1.233841	-0.662056	-0.472583
H152	H	1.733841	-0.162056	0.027417
C153	C	1.299087	-0.178399	-0.794570
C154	C	1.799087	0.321601	-0.294570
H155	H	1.291832	-0.184174	-0.739493
H156	H	1.791832	0.315826	-0.239493
H157	H	1.287553	-0.136101	-0.808122
H158	H	1.787553	0.363899	-0.308122
H159	H	1.352196	-0.187617	-0.808091
H160	H	1.852196	0.312383	-0.308091
C161	C	1.036138	-0.387660	-1.091649
C162	C	1.536138	0.112340	-0.591649
H163	H	1.043396	-0.381889	-1.146727
H164	H	1.543396	0.118111	-0.646727
H165	H	0.983034	-0.378447	-1.078122
H166	H	1.483034	0.121553	-0.578122
H167	H	1.047679	-0.429961	-1.078102
H168	H	1.547679	0.070039	-0.578102
H169	H	0.999939	-0.416465	-0.806244
H170	H	1.499939	0.083535	-0.306244
C171	C	0.432111	-0.218660	-0.274855
C172	C	0.932111	0.281340	0.225145
H173	H	0.468518	-0.194649	-0.244807
H174	H	0.968518	0.305351	0.255193
H175	H	0.399883	-0.242705	-0.240363
H176	H	0.899883	0.257295	0.259637
H177	H	0.399936	-0.191261	-0.305165
H178	H	0.899936	0.308739	0.194835
C179	C	1.036110	-0.671701	-0.274534
C180	C	1.536110	-0.171701	0.225466
H181	H	1.043372	-0.715552	-0.281782
H182	H	1.543372	-0.215552	0.218218
H183	H	0.982988	-0.660958	-0.286051
H184	H	1.482988	-0.160958	0.213949
H185	H	1.047712	-0.660949	-0.221431
H186	H	1.547712	-0.160949	0.278569
C187	C	1.248470	-1.072273	-0.487115
C188	C	1.748470	-0.572273	0.012885
H189	H	1.241250	-1.116143	-0.479885
H190	H	1.741250	-0.616143	0.020115
H191	H	1.301580	-1.061471	-0.475588
H192	H	1.801580	-0.561471	0.024412
H193	H	1.236864	-1.061474	-0.540216
H194	H	1.736864	-0.561474	-0.040216
H195	H	0.443899	-0.376437	-0.472348
H196	H	0.943899	0.123563	0.027652
C197	C	1.036291	-1.072538	-0.274619
C198	C	1.536291	-0.572538	0.225381
H199	H	1.043548	-1.116390	-0.281871
H200	H	1.543548	-0.616390	0.218129
H201	H	0.983171	-1.061791	-0.286139
H202	H	1.483171	-0.561791	0.213861
H203	H	1.047891	-1.061791	-0.221515
H204	H	1.547891	-0.561791	0.278485
H205	H	0.999975	-0.416433	-0.956023
H206	H	1.499975	0.083567	-0.456023
H207	H	1.050670	-0.943863	-0.289046
H208	H	1.550670	-0.443863	0.210954
H209	H	1.050478	-0.376232	-0.682451
H210	H	1.550478	0.123768	-0.182451
C211	C	1.299131	-0.178377	-0.967918
C212	C	1.799131	0.321623	-0.467918
H213	H	1.329255	-0.154416	-0.931526
H214	H	1.829255	0.345584	-0.431526
H215	H	1.268925	-0.150939	-1.000132
H216	H	1.768925	0.349061	-0.500132
H217	H	1.333560	-0.202461	-1.000109
H218	H	1.833560	0.297539	-0.500109
C219	C	1.248472	-0.218683	-0.670724
C220	C	1.748472	0.281317	-0.170724
H221	H	1.241217	-0.224460	-0.615646
H222	H	1.741217	0.275540	-0.115646
H223	H	1.236946	-0.176384	-0.684272
H224	H	1.736946	0.323616	-0.184272
H225	H	1.301579	-0.227908	-0.684247
H226	H	1.801579	0.272092	-0.184247
H227	H	0.567721	-0.189857	-0.238807
H228	H	1.067721	0.310143	0.261193
C229	C	0.729280	-0.428235	-0.537215
C230	C	1.229280	0.071765	-0.037215
H231	H	0.692874	-0.452241	-0.567273
H232	H	1.192874	0.047759	-0.067273
H233	H	0.761466	-0.455629	-0.506919
H234	H	1.261466	0.044371	-0.006919
H235	H	0.761498	-0.404178	-0.571711
H236	H	1.261498	0.095822	-0.071711
H237	H	1.050471	-0.543023	-0.288969
H238	H	1.550471	-0.043023	0.211031
C239	C	1.248569	-0.218600	-1.091725
C240	C	1.748569	0.281400	-0.591725
H241	H	1.241335	-0.224352	-1.146796
H242	H	1.741335	0.275648	-0.646796
H243	H	1.301669	-0.227814	-1.078193
H244	H	1.801669	0.272186	-0.578193
H245	H	1.237017	-0.176305	-1.078216
H246	H	1.737017	0.323695	-0.578216
H247	H	0.567722	-0.416735	-0.522792
H248	H	1.067722	0.083265	-0.022792
C249	C	0.853107	-0.218617	-0.274816
C250	C	1.353107	0.281383	0.225184
H251	H	0.816701	-0.194617	-0.244767
H252	H	1.316701	0.305383	0.255233
H253	H	0.885334	-0.191218	-0.305111
H254	H	1.385334	0.308782	0.194889
H255	H	0.885284	-0.242663	-0.240311
H256	H	1.385284	0.257337	0.259689
C257	C	0.729286	-0.178319	-0.224372
C258	C	1.229286	0.321681	0.275628
H259	H	0.692886	-0.154315	-0.194321
H260	H	1.192886	0.345685	0.305679
H261	H	0.761514	-0.150923	-0.254672
H262	H	1.261514	0.349077	0.245328
H263	H	0.761463	-0.202367	-0.189870
H264	H	1.261463	0.297633	0.310130
C265	C	1.248393	-0.934217	-0.487105
C266	C	1.748393	-0.434217	0.012895
H267	H	1.278481	-0.963171	-0.517256
H268	H	1.778481	-0.463171	-0.017256
H269	H	1.282848	-0.908560	-0.456912
H270	H	1.782848	-0.408560	0.043088
H271	H	1.218100	-0.908578	-0.521508
H272	H	1.718100	-0.408578	-0.021508
