data_functionalizedCrystal
_audit_creation_method	'MofGen! by Chris Wilmer'
_symmetry_space_group_name_H-M	'P1'
_symmetry_Int_Tables_number	1
_symmetry_cell_setting	triclinic
loop_
_symmetry_equiv_pos_as_xyz
  x,y,z
_cell_length_a	11.169417
_cell_length_b	13.032721
_cell_length_c	11.169409
_cell_angle_alpha	82.853997
_cell_angle_beta	90.019513
_cell_angle_gamma	97.205324
loop_
_atom_site_label
_atom_site_type_symbol
_atom_site_fract_x
_atom_site_fract_y
_atom_site_fract_z
Zn1	Zn	1.774211	-0.415916	0.739152
Zn2	Zn	2.274211	0.084084	1.239152
Zn3	Zn	1.748569	-0.590704	0.563944
Zn4	Zn	2.248569	-0.090704	1.063944
Zn5	Zn	1.573487	-0.415980	0.538497
Zn6	Zn	2.073487	0.084020	1.038497
Zn7	Zn	1.547985	-0.590620	0.764578
Zn8	Zn	2.047985	-0.090620	1.264578
O9	O	1.661063	-0.503305	0.651543
O10	O	2.161063	-0.003305	1.151543
O11	O	1.938758	-0.439110	0.715919
O12	O	2.438758	0.060890	1.215919
O13	O	1.725286	-0.567589	0.392628
O14	O	2.225286	-0.067589	0.892628
O15	O	1.621517	-0.269735	0.543824
O16	O	2.121517	0.230265	1.043824
O17	O	1.919919	-0.567526	0.587195
O18	O	2.419919	-0.067526	1.087195
O19	O	1.768988	-0.269687	0.691244
O20	O	2.268988	0.230313	1.191244
O21	O	1.596654	-0.439220	0.373932
O22	O	2.096654	0.060780	0.873932
O23	O	1.402156	-0.439139	0.568478
O24	O	1.902156	0.060861	1.068478
O25	O	1.578053	-0.567383	0.929146
O26	O	2.078053	-0.067383	1.429146
O27	O	1.383420	-0.567446	0.734579
O28	O	1.883420	-0.067446	1.234579
O29	O	1.744260	-0.439028	0.910466
O30	O	2.244260	0.060972	1.410466
O31	O	1.700558	-0.736930	0.611849
O32	O	2.200558	-0.236930	1.111849
O33	O	1.553190	-0.736868	0.759254
O34	O	2.053190	-0.236868	1.259254
C35	C	1.349240	-0.503291	0.651527
C36	C	1.849240	-0.003291	1.151527
C37	C	1.215838	-0.503310	0.651552
C38	C	1.715838	-0.003310	1.151552
C39	C	1.621357	-0.774816	0.691098
C40	C	2.121357	-0.274816	1.191098
C41	C	1.604480	-0.890970	0.708060
C42	C	2.104480	-0.390970	1.208060
C43	C	1.669935	-0.942751	0.642744
C44	C	2.169935	-0.442751	1.142744
C45	C	1.652494	-1.062802	0.660274
C46	C	2.152494	-0.562802	1.160274
C47	C	1.974103	-0.503320	0.651560
C48	C	2.474103	-0.003320	1.151560
C49	C	2.107502	-0.503326	0.651567
C50	C	2.607502	-0.003326	1.151567
C51	C	1.661172	-0.503189	0.964569
C52	C	2.161172	-0.003189	1.464569
C53	C	1.661219	-0.503139	1.097961
C54	C	2.161219	-0.003139	1.597961
C55	C	1.700957	-0.230733	0.611859
C56	C	2.200957	0.269267	1.111859
C57	C	1.717958	-0.114580	0.594948
C58	C	2.217958	0.385420	1.094948
C59	C	1.661035	-0.503345	0.339724
C60	C	2.161035	-0.003345	0.839724
C61	C	1.661263	-0.503100	0.206289
C62	C	2.161263	-0.003100	0.706289
H63	H	1.583543	-1.107343	0.729180
H64	H	2.083543	-0.607343	1.229180
H65	H	1.786918	-1.070039	0.526051
H66	H	2.286918	-0.570039	1.026051
H67	H	1.738891	-0.898208	0.573851
H68	H	2.238891	-0.398208	1.073851
H69	H	1.535534	-0.935515	0.776962
H70	H	2.035534	-0.435515	1.276962
