data_functionalizedCrystal
_audit_creation_method	'MofGen! by Chris Wilmer'
_symmetry_space_group_name_H-M	'P1'
_symmetry_Int_Tables_number	1
_symmetry_cell_setting	triclinic
loop_
_symmetry_equiv_pos_as_xyz
  x,y,z
_cell_length_a	26.210047
_cell_length_b	19.188930
_cell_length_c	19.188922
_cell_angle_alpha	83.142936
_cell_angle_beta	90.001990
_cell_angle_gamma	89.977114
loop_
_atom_site_label
_atom_site_type_symbol
_atom_site_fract_x
_atom_site_fract_y
_atom_site_fract_z
O1	O	0.042596	-0.926148	-0.087158
O2	O	0.375929	-0.592814	0.246175
O3	O	0.709262	-0.259481	0.579509
O4	O	0.042561	-0.722836	-0.098892
O5	O	0.375895	-0.389503	0.234441
O6	O	0.709228	-0.056169	0.567774
O7	O	0.042573	-0.830362	0.008631
O8	O	0.375906	-0.497029	0.341964
O9	O	0.709240	-0.163696	0.675298
O10	O	0.042584	-0.818622	-0.194681
O11	O	0.375917	-0.485288	0.138652
O12	O	0.709251	-0.151955	0.471986
O13	O	-0.042285	-0.830342	0.008614
O14	O	0.291048	-0.497008	0.341948
O15	O	0.624382	-0.163675	0.675281
O16	O	-0.042297	-0.722815	-0.098909
O17	O	0.291036	-0.389482	0.234424
O18	O	0.624370	-0.056149	0.567758
O19	O	-0.042262	-0.926127	-0.087175
O20	O	0.291071	-0.592794	0.246159
O21	O	0.624404	-0.259460	0.579492
Cu22	Cu	-0.050028	-0.824469	-0.093043
Cu23	Cu	0.283306	-0.491136	0.240290
Cu24	Cu	0.616639	-0.157803	0.573623
Cu25	Cu	0.050327	-0.824494	-0.093024
Cu26	Cu	0.383660	-0.491161	0.240310
Cu27	Cu	0.716993	-0.157827	0.573643
O28	O	-0.042274	-0.818601	-0.194698
O29	O	0.291059	-0.485267	0.138635
O30	O	0.624393	-0.151934	0.471969
C31	C	0.000128	-0.696815	-0.098521
C32	C	0.333461	-0.363481	0.234813
C33	C	0.666794	-0.030148	0.568146
C34	C	0.000114	-0.619310	-0.097380
C35	C	0.333448	-0.285977	0.235953
C36	C	0.666781	0.047356	0.569287
C37	C	0.000143	-0.829973	0.034634
C38	C	0.333477	-0.496639	0.367967
C39	C	0.666810	-0.163306	0.701300
C40	C	0.000141	-0.828835	0.112139
C41	C	0.333475	-0.495501	0.445472
C42	C	0.666808	-0.162168	0.778805
N43	N	-0.120612	-0.824457	-0.093057
N44	N	0.212722	-0.491124	0.240276
N45	N	0.546055	-0.157790	0.573610
C46	C	-0.473121	-0.872102	-0.045423
C47	C	-0.139787	-0.538768	0.287910
C48	C	0.193546	-0.205435	0.621244
C49	C	-0.686779	-0.872117	-0.045413
C50	C	-0.353446	-0.538784	0.287920
C51	C	-0.020112	-0.205450	0.621253
O52	O	-0.714397	-0.912599	-0.004916
O53	O	-0.381063	-0.579266	0.328417
O54	O	-0.047730	-0.245932	0.661750
N55	N	-0.713506	-0.824498	-0.093008
N56	N	-0.380172	-0.491164	0.240325
N57	N	-0.046839	-0.157831	0.573658
C58	C	-0.686814	-0.776868	-0.140606
C59	C	-0.353481	-0.443535	0.192727
C60	C	-0.020148	-0.110201	0.526061
O61	O	-0.714449	-0.736360	-0.181083
O62	O	-0.381116	-0.403027	0.152250
O63	O	-0.047783	-0.069694	0.485583
C64	C	-0.473157	-0.776850	-0.140612
C65	C	-0.139823	-0.443516	0.192722
C66	C	0.193510	-0.110183	0.526055
C67	C	-0.446433	-0.824477	-0.093018
C68	C	-0.113100	-0.491144	0.240315
C69	C	0.220234	-0.157810	0.573648
C70	C	-0.446397	-0.919724	0.002167
C71	C	-0.113063	-0.586391	0.335500
C72	C	0.220270	-0.253058	0.668834
C73	C	-0.392985	-0.919723	0.002162
C74	C	-0.059652	-0.586389	0.335495
C75	C	0.273681	-0.253056	0.668828
C76	C	-0.366298	-0.872098	-0.045434
C77	C	-0.032964	-0.538765	0.287899
C78	C	0.300369	-0.205431	0.621233
C79	C	-0.393021	-0.824475	-0.093024
C80	C	-0.059688	-0.491142	0.240309
C81	C	0.273645	-0.157809	0.573643
C82	C	-0.446466	-0.729217	-0.188206
C83	C	-0.113133	-0.395884	0.145128
C84	C	0.220201	-0.062551	0.478461
C85	C	-0.393048	-0.729216	-0.188202
C86	C	-0.059715	-0.395882	0.145132
C87	C	0.273618	-0.062549	0.478465
C88	C	-0.366325	-0.776843	-0.140608
C89	C	-0.032991	-0.443510	0.192725
C90	C	0.300342	-0.110176	0.526058
C91	C	-0.312922	-0.776849	-0.140625
C92	C	0.020411	-0.443515	0.192709
C93	C	0.353744	-0.110182	0.526042
N94	N	-0.286196	-0.824468	-0.093030
N95	N	0.047138	-0.491135	0.240304
N96	N	0.380471	-0.157801	0.573637
C97	C	-0.312883	-0.872093	-0.045434
C98	C	0.020450	-0.538759	0.287899
C99	C	0.353783	-0.205426	0.621232
C100	C	-0.798988	-0.776882	-0.140600
C101	C	-0.465654	-0.443548	0.192733
C102	C	-0.132321	-0.110215	0.526066
C103	C	-0.852402	-0.776887	-0.140600
C104	C	-0.519068	-0.443554	0.192733
C105	C	-0.185735	-0.110220	0.526067
C106	C	-0.852363	-0.872135	-0.045406
C107	C	-0.519030	-0.538802	0.287927
C108	C	-0.185696	-0.205469	0.621260
C109	C	-0.798948	-0.872133	-0.045411
C110	C	-0.465614	-0.538800	0.287923
C111	C	-0.132281	-0.205466	0.621256
C112	C	-0.772261	-0.824501	-0.093005
C113	C	-0.438928	-0.491168	0.240328
C114	C	-0.105594	-0.157834	0.573661
C115	C	-0.200716	-0.872086	-0.045450
C116	C	0.132618	-0.538753	0.287884
C117	C	0.465951	-0.205419	0.621217
C118	C	-0.147299	-0.872082	-0.045461
C119	C	0.186034	-0.538748	0.287872
C120	C	0.519367	-0.205415	0.621205
C121	C	-0.147343	-0.776831	-0.140652
C122	C	0.185991	-0.443498	0.192681
C123	C	0.519324	-0.110165	0.526014
C124	C	-0.200754	-0.776837	-0.140644
C125	C	0.132579	-0.443504	0.192690
C126	C	0.465912	-0.110171	0.526023
C127	C	-0.227439	-0.824467	-0.093036
C128	C	0.105894	-0.491134	0.240297
C129	C	0.439227	-0.157801	0.573630
O130	O	-0.285272	-0.736383	-0.181095
O131	O	0.048061	-0.403049	0.152238
O132	O	0.381395	-0.069716	0.485571
O133	O	-0.285239	-0.912584	-0.004953
O134	O	0.048094	-0.579251	0.328381
O135	O	0.381427	-0.245917	0.661714
C136	C	-0.526532	-0.872103	-0.045418
C137	C	-0.193199	-0.538770	0.287916
C138	C	0.140135	-0.205437	0.621249
C139	C	-0.553256	-0.824481	-0.093008
C140	C	-0.219922	-0.491147	0.240326
C141	C	0.113411	-0.157814	0.573659
C142	C	-0.526568	-0.776856	-0.140603
C143	C	-0.193235	-0.443523	0.192730
C144	C	0.140099	-0.110189	0.526064
C145	C	-0.606670	-0.824486	-0.093007
C146	C	-0.273337	-0.491152	0.240326
C147	C	0.059997	-0.157819	0.573660
C148	C	-0.633358	-0.872110	-0.045412
C149	C	-0.300024	-0.538777	0.287922
C150	C	0.033309	-0.205444	0.621255
C151	C	-0.606631	-0.919730	0.002183
C152	C	-0.273298	-0.586396	0.335517
C153	C	0.060036	-0.253063	0.668850
C154	C	-0.553220	-0.919728	0.002178
C155	C	-0.219886	-0.586395	0.335511
C156	C	0.113447	-0.253061	0.668845
C157	C	-0.553295	-0.729237	-0.188198
C158	C	-0.219961	-0.395903	0.145135
C159	C	0.113372	-0.062570	0.478469
C160	C	-0.606706	-0.729243	-0.188189
C161	C	-0.273373	-0.395909	0.145144
C162	C	0.059961	-0.062576	0.478478
C163	C	-0.633394	-0.776867	-0.140594
C164	C	-0.300060	-0.443534	0.192740
C165	C	0.033273	-0.110201	0.526073
N166	N	0.120911	-0.824512	-0.093004
N167	N	0.454244	-0.491178	0.240329
N168	N	0.787577	-0.157845	0.573662
C169	C	0.000172	-0.952148	-0.087546
C170	C	0.333506	-0.618815	0.245787
C171	C	0.666839	-0.285482	0.579120
C172	C	0.000189	-1.029653	-0.088687
C173	C	0.333523	-0.696320	0.244646
C174	C	0.666856	-0.362986	0.577980
C175	C	0.000126	-0.574384	-0.160471
C176	C	0.333459	-0.241051	0.172862
C177	C	0.666792	0.092282	0.506196
C178	C	0.000131	-0.501560	-0.159399
C179	C	0.333465	-0.168227	0.173934
C180	C	0.666798	0.165106	0.507267
C181	C	0.000136	-0.473666	-0.095233
C182	C	0.333469	-0.140333	0.238100
C183	C	0.666802	0.193001	0.571434
C184	C	0.000121	-0.518602	-0.032134
C185	C	0.333455	-0.185268	0.301200
C186	C	0.666788	0.148065	0.634533
C187	C	0.000111	-0.591424	-0.033207
C188	C	0.333444	-0.258091	0.300126
C189	C	0.666777	0.075243	0.633460
N190	N	0.029034	-0.365694	-0.046180
N191	N	0.362368	-0.032361	0.287153
N192	N	0.695701	0.300972	0.620487
N193	N	0.029045	-0.296516	-0.045165
N194	N	0.362379	0.036817	0.288169
N195	N	0.695712	0.370151	0.621502
C196	C	0.000167	-0.254257	-0.091995
C197	C	0.333500	0.079076	0.241339
C198	C	0.666833	0.412409	0.574672
N199	N	-0.028718	-0.283790	-0.139889
N200	N	0.304616	0.049544	0.193444
N201	N	0.637949	0.382877	0.526777
N202	N	-0.028727	-0.352974	-0.140907
N203	N	0.304607	-0.019641	0.192426
N204	N	0.637940	0.313692	0.525760
C205	C	0.000147	-0.394704	-0.094062
C206	C	0.333480	-0.061370	0.239271
C207	C	0.666813	0.271963	0.572605
C208	C	0.000183	-0.130367	-0.153928
C209	C	0.333517	0.202966	0.179405
C210	C	0.666850	0.536300	0.512738
C211	C	0.000186	-0.057542	-0.152854
C212	C	0.333519	0.275791	0.180479
C213	C	0.666852	0.609124	0.513813
C214	C	0.000181	-0.074585	-0.025586
C215	C	0.333514	0.258748	0.307747
C216	C	0.666847	0.592081	0.641080
C217	C	0.000173	-0.147408	-0.026663
C218	C	0.333507	0.185925	0.306671
C219	C	0.666840	0.519258	0.640004
C220	C	0.000177	-0.175295	-0.090835
C221	C	0.333510	0.158039	0.242498
C222	C	0.666844	0.491372	0.575831
C223	C	0.046397	-0.828315	0.148547
C224	C	0.379731	-0.494981	0.481880
C225	C	0.713064	-0.161648	0.815213
C226	C	0.046400	-0.827235	0.221369
C227	C	0.379734	-0.493902	0.554703
C228	C	0.713067	-0.160569	0.888036
C229	C	0.000145	-0.826690	0.257783
C230	C	0.333479	-0.493357	0.591117
C231	C	0.666812	-0.160023	0.924450
C232	C	-0.046117	-0.827206	0.221366
C233	C	0.287216	-0.493873	0.554699
C234	C	0.620550	-0.160539	0.888033
C235	C	-0.046119	-0.828278	0.148544
C236	C	0.287214	-0.494945	0.481877
C237	C	0.620548	-0.161612	0.815210
N238	N	-0.034275	-0.864730	0.377440
N239	N	0.299058	-0.531397	0.710773
N240	N	0.632391	-0.198064	1.044106
N241	N	-0.034270	-0.863713	0.446618
N242	N	0.299063	-0.530380	0.779951
N243	N	0.632396	-0.197046	1.113285
C244	C	0.000148	-0.823458	0.477193
C245	C	0.333482	-0.490124	0.810526
C246	C	0.666815	-0.156791	1.143859
N247	N	0.034570	-0.784266	0.435977
N248	N	0.367903	-0.450933	0.769310
N249	N	0.701236	-0.117600	1.102643
N250	N	0.034566	-0.785287	0.366792
N251	N	0.367899	-0.451954	0.700126
N252	N	0.701233	-0.118620	1.033459
C253	C	0.000142	-0.825527	0.336747
C254	C	0.333476	-0.492193	0.670080
C255	C	0.666809	-0.158860	1.003413
C256	C	0.046411	-0.821766	0.592563
C257	C	0.379744	-0.488433	0.925897
C258	C	0.713078	-0.155100	1.259230
C259	C	0.046412	-0.820683	0.665387
C260	C	0.379746	-0.487349	0.998720
C261	C	0.713079	-0.154016	1.332054
C262	C	-0.046106	-0.820660	0.665383
C263	C	0.287227	-0.487327	0.998716
C264	C	0.620560	-0.153994	1.332050
C265	C	-0.046106	-0.821737	0.592560
C266	C	0.287227	-0.488404	0.925893
C267	C	0.620560	-0.155070	1.259226
C268	C	0.000154	-0.822293	0.556155
C269	C	0.333487	-0.488960	0.889488
C270	C	0.666820	-0.155627	1.222821
C271	C	0.000155	-0.818992	0.779300
C272	C	0.333489	-0.485659	1.112633
C273	C	0.666822	-0.152326	1.445966
C274	C	0.000157	-0.820136	0.701795
C275	C	0.333490	-0.486803	1.035129
C276	C	0.666823	-0.153469	1.368462
H277	H	-0.125543	-0.910868	-0.006705
H278	H	0.207791	-0.577535	0.326628
H279	H	0.541124	-0.244201	0.659961
C280	C	-0.523945	-0.676851	-0.240560
C281	C	-0.190612	-0.343518	0.092773
C282	C	0.142722	-0.010184	0.426106
H283	H	-0.547516	-0.648498	-0.268905
H284	H	-0.214183	-0.315165	0.064428
H285	H	0.119150	0.018168	0.397761
H286	H	-0.503113	-0.647861	-0.215526
H287	H	-0.169780	-0.314528	0.117807
H288	H	0.163553	0.018806	0.451140
H289	H	-0.503106	-0.701880	-0.269569
H290	H	-0.169773	-0.368546	0.063764
H291	H	0.163561	-0.035213	0.397097
C292	C	0.000169	-0.196829	0.042739
C293	C	0.333502	0.136504	0.376072
C294	C	0.666835	0.469838	0.709405
H295	H	0.000176	-0.169788	0.081108
H296	H	0.333510	0.163545	0.414442
H297	H	0.666843	0.496878	0.747775
H298	H	-0.029426	-0.225569	0.044961
H299	H	0.303907	0.107765	0.378295
H300	H	0.637240	0.441098	0.711628
H301	H	0.029761	-0.225613	0.044968
H302	H	0.363094	0.107720	0.378301
H303	H	0.696428	0.441053	0.711635
C304	C	0.000120	-0.605056	-0.231058
C305	C	0.333454	-0.271722	0.102275
C306	C	0.666787	0.061611	0.435609
H307	H	0.000123	-0.567865	-0.268480
H308	H	0.333456	-0.234532	0.064854
H309	H	0.666789	0.098802	0.398187
H310	H	0.029706	-0.633138	-0.234121
H311	H	0.363039	-0.299804	0.099213
H312	H	0.696373	0.033529	0.432546
H313	H	-0.029482	-0.633080	-0.234125
H314	H	0.303852	-0.299747	0.099208
H315	H	0.637185	0.033586	0.432541
H316	H	0.000179	-0.153073	-0.206182
H317	H	0.333512	0.180260	0.127152
H318	H	0.666845	0.513594	0.460485
H319	H	0.084079	-0.822215	0.562920
H320	H	0.417412	-0.488882	0.896254
H321	H	0.750745	-0.155549	1.229587
H322	H	-0.083768	-0.820211	0.695030
H323	H	0.249565	-0.486878	1.028363
H324	H	0.582898	-0.153544	1.361696
C325	C	-0.636096	-0.676846	-0.240542
C326	C	-0.302763	-0.343513	0.092791
C327	C	0.030570	-0.010179	0.426124
H328	H	-0.612547	-0.648480	-0.268881
H329	H	-0.279214	-0.315146	0.064452
H330	H	0.054119	0.018187	0.397786
H331	H	-0.656931	-0.701858	-0.269549
H332	H	-0.323598	-0.368525	0.063784
H333	H	0.009735	-0.035192	0.397118
H334	H	-0.656936	-0.647861	-0.215485
H335	H	-0.323602	-0.314527	0.117848
H336	H	0.009731	0.018806	0.451181
C337	C	-0.363696	-0.676823	-0.240561
C338	C	-0.030363	-0.343489	0.092773
C339	C	0.302971	-0.010156	0.426106
H340	H	-0.387265	-0.648466	-0.268906
H341	H	-0.053932	-0.315133	0.064428
H342	H	0.279402	0.018201	0.397761
H343	H	-0.342865	-0.647838	-0.215520
H344	H	-0.009532	-0.314504	0.117813
H345	H	0.323802	0.018829	0.451147
H346	H	-0.342855	-0.701848	-0.269571
H347	H	-0.009522	-0.368515	0.063763
H348	H	0.323811	-0.035182	0.397096
H349	H	0.084066	-0.828766	0.118910
H350	H	0.417399	-0.495432	0.452243
H351	H	0.750732	-0.162099	0.785577
C352	C	0.000129	-0.487921	0.038447
C353	C	0.333462	-0.154587	0.371781
C354	C	0.666796	0.178746	0.705114
H355	H	0.000143	-0.438116	0.030051
H356	H	0.333476	-0.104782	0.363385
H357	H	0.666809	0.228551	0.696718
H358	H	-0.029465	-0.503329	0.064413
H359	H	0.303868	-0.169995	0.397746
H360	H	0.637201	0.163338	0.731080
H361	H	0.029722	-0.503383	0.064419
H362	H	0.363055	-0.170050	0.397753
H363	H	0.696389	0.163284	0.731086
H364	H	0.084069	-0.826808	0.251018
H365	H	0.417402	-0.493474	0.584351
H366	H	0.750735	-0.160141	0.917685
C367	C	0.000199	-0.008120	-0.222256
C368	C	0.333532	0.325213	0.111077
C369	C	0.666865	0.658547	0.444411
H370	H	0.000199	0.039245	-0.212428
H371	H	0.333532	0.372578	0.120906
H372	H	0.666866	0.705912	0.454239
H373	H	0.029792	-0.016577	-0.248567
H374	H	0.363126	0.316756	0.084766
H375	H	0.696459	0.650090	0.418099
H376	H	-0.029395	-0.016530	-0.248586
H377	H	0.303938	0.316803	0.084747
H378	H	0.637271	0.650136	0.418081
C379	C	-0.096996	-0.826608	0.261418
C380	C	0.236337	-0.493275	0.594751
C381	C	0.569670	-0.159941	0.928085
H382	H	-0.090371	-0.825902	0.310004
H383	H	0.242963	-0.492569	0.643338
H384	H	0.576296	-0.159235	0.976671
H385	H	-0.116010	-0.786072	0.244035
H386	H	0.217323	-0.452739	0.577368
H387	H	0.550657	-0.119406	0.910702
H388	H	-0.115996	-0.867490	0.254932
H389	H	0.217338	-0.534157	0.588265
H390	H	0.550671	-0.200823	0.921599
C391	C	0.000146	-0.452130	-0.228800
C392	C	0.333480	-0.118797	0.104533
C393	C	0.666813	0.214537	0.437867
H394	H	0.000149	-0.404766	-0.218968
H395	H	0.333483	-0.071433	0.114365
H396	H	0.666816	0.261900	0.447698
H397	H	0.029739	-0.460588	-0.255113
H398	H	0.363072	-0.127255	0.078221
H399	H	0.696405	0.206078	0.411554
H400	H	-0.029449	-0.460535	-0.255130
H401	H	0.303885	-0.127202	0.078203
H402	H	0.637218	0.206131	0.411536
C403	C	-0.097003	-0.828857	0.108494
C404	C	0.236331	-0.495523	0.441827
C405	C	0.569664	-0.162190	0.775161
H406	H	-0.124551	-0.828381	0.140608
H407	H	0.208782	-0.495047	0.473941
H408	H	0.542115	-0.161714	0.807275
H409	H	-0.098933	-0.788571	0.074632
H410	H	0.234400	-0.455238	0.407966
H411	H	0.567733	-0.121905	0.741299
H412	H	-0.098918	-0.869989	0.085541
H413	H	0.234415	-0.536655	0.418875
H414	H	0.567749	-0.203322	0.752208
H415	H	0.000101	-0.628004	0.018171
H416	H	0.333435	-0.294670	0.351504
H417	H	0.666768	0.038663	0.684838
H418	H	0.084081	-0.820256	0.695029
H419	H	0.417414	-0.486922	1.028362
H420	H	0.750748	-0.153589	1.361695
C421	C	-0.475745	-0.972120	0.054523
C422	C	-0.142412	-0.638787	0.387856
C423	C	0.190921	-0.305453	0.721190
H424	H	-0.452172	-1.000480	0.082857
H425	H	-0.118839	-0.667147	0.416191
H426	H	0.214494	-0.333813	0.749524
H427	H	-0.496592	-0.947110	0.083533
H428	H	-0.163259	-0.613776	0.416867
H429	H	0.170075	-0.280443	0.750200
H430	H	-0.496569	-1.001111	0.029473
H431	H	-0.163236	-0.667777	0.362806
H432	H	0.170097	-0.334444	0.696140
H433	H	-0.083773	-0.822166	0.562917
H434	H	0.249560	-0.488833	0.896250
H435	H	0.582894	-0.155500	1.229583
H436	H	0.000216	-0.051875	0.026659
H437	H	0.333549	0.281459	0.359992
H438	H	0.666883	0.614792	0.693326
H439	H	-0.222437	-0.910870	-0.006683
H440	H	0.110897	-0.577536	0.326650
H441	H	0.444230	-0.244203	0.659984
H442	H	-0.371230	-0.958503	0.040918
H443	H	-0.037897	-0.625169	0.374251
H444	H	0.295437	-0.291836	0.707585
H445	H	-0.777192	-0.910915	-0.006656
H446	H	-0.443859	-0.577581	0.326678
H447	H	-0.110526	-0.244248	0.660011
H448	H	-0.874101	-0.910914	-0.006653
H449	H	-0.540768	-0.577581	0.326680
H450	H	-0.207434	-0.244248	0.660014
H451	H	-0.874156	-0.738112	-0.179362
H452	H	-0.540823	-0.404778	0.153971
H453	H	-0.207490	-0.071445	0.487305
H454	H	-0.468217	-0.690435	-0.226960
H455	H	-0.134884	-0.357101	0.106373
H456	H	0.198450	-0.023768	0.439707
C457	C	-0.230152	-0.724423	-0.192968
C458	C	0.103182	-0.391090	0.140365
C459	C	0.436515	-0.057756	0.473699
H460	H	-0.206605	-0.696049	-0.221304
H461	H	0.126728	-0.362716	0.112030
H462	H	0.460062	-0.029382	0.445363
H463	H	-0.250999	-0.749412	-0.221981
H464	H	0.082335	-0.416079	0.111352
H465	H	0.415668	-0.082745	0.444686
H466	H	-0.250979	-0.695448	-0.167884
H467	H	0.082354	-0.362115	0.165450
H468	H	0.415688	-0.028781	0.498783
C469	C	-0.769638	-0.724489	-0.192964
C470	C	-0.436305	-0.391156	0.140369
C471	C	-0.102972	-0.057822	0.473703
H472	H	-0.793210	-0.696139	-0.221311
H473	H	-0.459877	-0.362805	0.112023
H474	H	-0.126544	-0.029472	0.445356
H475	H	-0.748810	-0.695498	-0.167928
H476	H	-0.415476	-0.362164	0.165405
H477	H	-0.082143	-0.028831	0.498739
H478	H	-0.748796	-0.749515	-0.221972
H479	H	-0.415463	-0.416182	0.111362
H480	H	-0.082130	-0.082848	0.444695
H481	H	-0.125605	-0.738058	-0.179406
H482	H	0.207728	-0.404724	0.153927
H483	H	0.541061	-0.071391	0.487261
H484	H	-0.531465	-0.958510	0.040933
H485	H	-0.198132	-0.625177	0.374266
H486	H	0.135202	-0.291844	0.707600
H487	H	-0.628369	-0.958510	0.040935
H488	H	-0.295036	-0.625177	0.374269
H489	H	0.038298	-0.291844	0.707602
