data_functionalizedCrystal
_audit_creation_method	'MofGen! by Chris Wilmer'
_symmetry_space_group_name_H-M	'P1'
_symmetry_Int_Tables_number	1
_symmetry_cell_setting	triclinic
loop_
_symmetry_equiv_pos_as_xyz
  x,y,z
_cell_length_a	19.121063
_cell_length_b	11.169417
_cell_length_c	11.169409
_cell_angle_alpha	90.019824
_cell_angle_beta	92.400753
_cell_angle_gamma	87.530272
loop_
_atom_site_label
_atom_site_type_symbol
_atom_site_fract_x
_atom_site_fract_y
_atom_site_fract_z
Zn1	Zn	-0.279539	-1.814442	-0.698851
Zn2	Zn	0.053794	-1.481108	-0.365518
Zn3	Zn	0.387128	-1.147775	-0.032184
Zn4	Zn	-0.397012	-1.805707	-0.506702
Zn5	Zn	-0.063679	-1.472374	-0.173369
Zn6	Zn	0.269654	-1.139041	0.159964
Zn7	Zn	-0.279582	-1.613724	-0.498188
Zn8	Zn	0.053751	-1.280391	-0.164855
Zn9	Zn	0.387085	-0.947058	0.168478
Zn10	Zn	-0.396955	-1.605116	-0.707343
Zn11	Zn	-0.063622	-1.271782	-0.374010
Zn12	Zn	0.269712	-0.938449	-0.040676
O13	O	-0.338272	-1.709747	-0.602771
O14	O	-0.004939	-1.376414	-0.269438
O15	O	0.328395	-1.043081	0.063896
O16	O	-0.295128	-1.981232	-0.673371
O17	O	0.038205	-1.647899	-0.340038
O18	O	0.371539	-1.314566	-0.006704
O19	O	-0.381477	-1.780188	-0.337626
O20	O	-0.048143	-1.446855	-0.004293
O21	O	0.285190	-1.113521	0.329041
O22	O	-0.181292	-1.647608	-0.517690
O23	O	0.152041	-1.314275	-0.184357
O24	O	0.485375	-0.980941	0.148977
O25	O	-0.381435	-1.974815	-0.532200
O26	O	-0.048102	-1.641482	-0.198867
O27	O	0.285232	-1.308149	0.134466
O28	O	-0.181261	-1.795074	-0.665116
O29	O	0.152073	-1.461741	-0.331782
O30	O	0.485406	-1.128407	0.001551
O31	O	-0.295201	-1.639139	-0.331371
O32	O	0.038132	-1.305805	0.001962
O33	O	0.371466	-0.972472	0.335296
O34	O	-0.295146	-1.444633	-0.525924
O35	O	0.038188	-1.111300	-0.192591
O36	O	0.371521	-0.777966	0.140743
O37	O	-0.381338	-1.632936	-0.874163
O38	O	-0.048004	-1.299602	-0.540830
O39	O	0.285329	-0.966269	-0.207497
O40	O	-0.381379	-1.438308	-0.679589
O41	O	-0.048046	-1.104975	-0.346256
O42	O	0.285287	-0.771642	-0.012922
O43	O	-0.295073	-1.786727	-0.867924
O44	O	0.038261	-1.453393	-0.534591
O45	O	0.371594	-1.120060	-0.201258
O46	O	-0.495289	-1.771840	-0.540435
O47	O	-0.161955	-1.438507	-0.207101
O48	O	0.171378	-1.105174	0.126232
O49	O	-0.495247	-1.624466	-0.687844
O50	O	-0.161913	-1.291133	-0.354511
O51	O	0.171420	-0.957800	-0.021178
C52	C	-0.338261	-1.397923	-0.602755
C53	C	-0.004928	-1.064590	-0.269422
C54	C	0.328405	-0.731257	0.063912
C55	C	-0.338274	-1.264522	-0.602778
C56	C	-0.004940	-0.931189	-0.269444
C57	C	0.328393	-0.597856	0.063889
C58	C	-0.520752	-1.696304	-0.616011
C59	C	-0.187418	-1.362971	-0.282678
C60	C	0.145915	-1.029637	0.050656
C61	C	-0.598817	-1.690663	-0.621715
C62	C	-0.265484	-1.357329	-0.288382
C63	C	0.067850	-1.023996	0.044951
C64	C	-0.338194	-1.709845	-0.915808
C65	C	-0.004861	-1.376512	-0.582475
C66	C	0.328473	-1.043178	-0.249141
C67	C	-0.338161	-1.709887	-1.049206
C68	C	-0.004827	-1.376553	-0.715872
C69	C	0.328506	-1.043220	-0.382539
C70	C	-0.635491	-1.764802	-0.547710
C71	C	-0.302158	-1.431468	-0.214377
C72	C	0.031176	-1.098135	0.118956
C73	C	-0.708842	-1.759503	-0.553082
C74	C	-0.375509	-1.426170	-0.219749
C75	C	-0.042175	-1.092837	0.113585
C76	C	-0.745518	-1.680059	-0.632454
C77	C	-0.412184	-1.346725	-0.299120
C78	C	-0.078851	-1.013392	0.034213
C79	C	-0.708838	-1.605917	-0.706467
C80	C	-0.375505	-1.272583	-0.373133
C81	C	-0.042172	-0.939250	-0.039800
C82	C	-0.635489	-1.611222	-0.701100
C83	C	-0.302156	-1.277889	-0.367767
C84	C	0.031178	-0.944555	-0.034433
C85	C	-0.966986	-1.660204	-0.652499
C86	C	-0.633652	-1.326871	-0.319166
C87	C	-0.300319	-0.993537	0.014167
C88	C	-1.040340	-1.654902	-0.657858
C89	C	-0.707007	-1.321568	-0.324525
C90	C	-0.373674	-0.988235	0.008809
C91	C	-1.040339	-1.808490	-0.504474
C92	C	-0.707005	-1.475157	-0.171141
C93	C	-0.373672	-1.141824	0.162192
C94	C	-0.966988	-1.813784	-0.499110
C95	C	-0.633655	-1.480450	-0.165776
C96	C	-0.300321	-1.147117	0.167557
C97	C	-0.930315	-1.739646	-0.573127
C98	C	-0.596982	-1.406313	-0.239794
C99	C	-0.263649	-1.072979	0.093540
C100	C	-0.820494	-1.674638	-0.637944
C101	C	-0.487161	-1.341305	-0.304610
C102	C	-0.153827	-1.007972	0.028723
C103	C	-0.855340	-1.745073	-0.567642
C104	C	-0.522007	-1.411740	-0.234309
C105	C	-0.188674	-1.078407	0.099025
C106	C	-0.155080	-1.723276	-0.589506
C107	C	0.178253	-1.389942	-0.256173
C108	C	0.511587	-1.056609	0.077161
C109	C	-0.077014	-1.729041	-0.583853
C110	C	0.256319	-1.395707	-0.250520
C111	C	0.589652	-1.062374	0.082814
C112	C	-0.338283	-2.022789	-0.602788
C113	C	-0.004950	-1.689455	-0.269455
C114	C	0.328383	-1.356122	0.063879
C115	C	-0.338288	-2.156188	-0.602795
C116	C	-0.004955	-1.822855	-0.269462
C117	C	0.328379	-1.489522	0.063871
C118	C	-0.338299	-1.709722	-0.290948
C119	C	-0.004966	-1.376389	0.042385
C120	C	0.328368	-1.043056	0.375718
C121	C	-0.338134	-1.709928	-0.157537
C122	C	-0.004801	-1.376594	0.175796
C123	C	0.328532	-1.043261	0.509130
H124	H	-0.605635	-1.829489	-0.483072
H125	H	-0.272301	-1.496155	-0.149739
H126	H	0.061032	-1.162822	0.183594
Br127	Br	-0.585716	-1.510608	-0.801547
Br128	Br	-0.252383	-1.177275	-0.468214
Br129	Br	0.080951	-0.843942	-0.134881
H130	H	-0.825477	-1.809762	-0.503022
H131	H	-0.492143	-1.476428	-0.169689
H132	H	-0.158810	-1.143095	0.163645
H133	H	-1.070200	-1.590223	-0.722513
H134	H	-0.736866	-1.256889	-0.389179
H135	H	-0.403533	-0.923556	-0.055846
H136	H	-0.937133	-1.599836	-0.712765
H137	H	-0.603799	-1.266502	-0.379432
H138	H	-0.270466	-0.933169	-0.046099
H139	H	-0.738706	-1.541236	-0.771098
H140	H	-0.405372	-1.207903	-0.437765
H141	H	-0.072039	-0.874570	-0.104431
H142	H	-0.850363	-1.609952	-0.702566
H143	H	-0.517030	-1.276619	-0.369233
H144	H	-0.183697	-0.943285	-0.035899
Br145	Br	-0.917219	-1.921621	-0.391402
Br146	Br	-0.583885	-1.588287	-0.058069
Br147	Br	-0.250552	-1.254954	0.275264
H148	H	-1.070206	-1.868851	-0.444215
H149	H	-0.736872	-1.535517	-0.110882
H150	H	-0.403539	-1.202184	0.222451
Br151	Br	-0.758611	-1.860133	-0.452649
Br152	Br	-0.425278	-1.526799	-0.119316
Br153	Br	-0.091945	-1.193466	0.214017
