data_functionalizedCrystal
_audit_creation_method	'MofGen! by Chris Wilmer'
_symmetry_space_group_name_H-M	'P1'
_symmetry_Int_Tables_number	1
_symmetry_cell_setting	triclinic
loop_
_symmetry_equiv_pos_as_xyz
  x,y,z
_cell_length_a	16.109301
_cell_length_b	8.965430
_cell_length_c	16.109301
_cell_angle_alpha	90.001002
_cell_angle_beta	83.461481
_cell_angle_gamma	90.001088
loop_
_atom_site_label
_atom_site_type_symbol
_atom_site_fract_x
_atom_site_fract_y
_atom_site_fract_z
O1	O	1.103132	0.123950	0.106861
O2	O	0.861070	0.123974	0.120160
O3	O	0.988750	0.123946	-0.007520
O4	O	0.975451	0.123978	0.234542
O5	O	0.988740	-0.124133	-0.007512
O6	O	0.861059	-0.124105	0.120169
O7	O	1.103121	-0.124129	0.106869
Cu8	Cu	0.982089	-0.146768	0.113520
Cu9	Cu	0.982102	0.146614	0.113510
O10	O	0.975440	-0.124101	0.234550
C11	C	0.830090	-0.000062	0.119626
C12	C	0.737794	-0.000054	0.118011
N13	N	0.982086	-0.353118	0.113526
C14	C	0.515522	-0.000061	0.190018
C15	C	0.428801	-0.000071	0.188494
C16	C	0.448676	-0.000085	0.037006
C17	C	0.535394	-0.000086	0.038530
C18	C	0.568815	-0.000067	0.115039
C19	C	0.395376	-0.000075	0.111990
C20	C	0.301350	-0.000086	0.110337
C21	C	0.662847	-0.000059	0.116693
C22	C	0.923020	-0.450411	0.172555
C23	C	0.998145	-0.549829	0.188668
C24	C	0.906992	-0.549826	0.097421
C25	C	1.057249	-0.450348	0.129676
C26	C	0.966047	-0.450336	0.038397
C27	C	1.041227	-0.549710	0.054477
C28	C	1.134101	-0.000089	0.107404
C29	C	1.226397	-0.000088	0.109019
C30	C	0.988206	-0.000094	-0.038491
C31	C	0.986591	-0.000096	-0.130786
N32	N	0.982111	0.352963	0.113497
C33	C	1.058599	-0.000080	-0.353059
C34	C	1.057075	-0.000067	-0.439779
C35	C	0.905586	-0.000058	-0.419905
C36	C	0.907111	-0.000060	-0.333186
C37	C	0.983620	-0.000078	-0.299766
C38	C	0.980571	-0.000064	-0.473205
C39	C	0.978918	-0.000050	-0.567231
C40	C	0.985273	-0.000089	-0.205734
C41	C	0.975984	-0.000058	0.265521
C42	C	0.977600	-0.000046	0.357816
H43	H	0.542730	-0.000057	0.252317
C44	C	0.855606	-0.391491	0.240053
N45	N	0.804835	-0.347107	0.290894
H46	H	0.421454	-0.000110	-0.025285
H47	H	0.578788	-0.000094	-0.022530
H48	H	0.843295	-0.000046	-0.447127
H49	H	1.011729	-0.593531	0.252190
C50	C	0.824624	-0.000051	-0.274560
N51	N	0.762497	-0.000038	-0.230402
H52	H	1.120779	-0.406834	0.143362
C53	C	0.370182	-0.000073	0.270977
N54	N	0.326030	-0.000078	0.333108
H55	H	1.091242	-0.593036	0.004543
H56	H	0.952440	-0.406599	-0.025105
C57	C	0.821185	-0.608852	0.079031
N58	N	0.756552	-0.653304	0.065185
C59	C	1.142761	-0.000083	-0.316300
N60	N	1.206154	-0.000080	-0.288615
C61	C	1.139558	-0.000082	-0.498398
N62	N	1.201688	-0.000096	-0.542550
