data_functionalizedCrystal
_audit_creation_method	'MofGen! by Chris Wilmer'
_symmetry_space_group_name_H-M	'P1'
_symmetry_Int_Tables_number	1
_symmetry_cell_setting	triclinic
loop_
_symmetry_equiv_pos_as_xyz
  x,y,z
_cell_length_a	19.077105
_cell_length_b	25.639240
_cell_length_c	19.076919
_cell_angle_alpha	92.261469
_cell_angle_beta	90.076224
_cell_angle_gamma	87.728718
loop_
_atom_site_label
_atom_site_type_symbol
_atom_site_fract_x
_atom_site_fract_y
_atom_site_fract_z
Zn1	Zn	1.058223	-0.252939	-0.440357
Zn2	Zn	1.558223	0.247061	0.059643
Zn3	Zn	1.062848	-0.337004	-0.322829
Zn4	Zn	1.562848	0.162996	0.177171
Zn5	Zn	0.945443	-0.245935	-0.318152
Zn6	Zn	1.445443	0.254065	0.181848
Zn7	Zn	0.940670	-0.336688	-0.435582
Zn8	Zn	1.440670	0.163312	0.064418
O9	O	1.001796	-0.293141	-0.379230
O10	O	1.501796	0.206859	0.120770
O11	O	1.157168	-0.267153	-0.428722
O12	O	1.657168	0.232847	0.071278
O13	O	1.051207	-0.322124	-0.223878
O14	O	1.551207	0.177876	0.276122
O15	O	0.960465	-0.173702	-0.334403
O16	O	1.460465	0.326298	0.165597
O17	O	1.160566	-0.328915	-0.342375
O18	O	1.660566	0.171085	0.157625
O19	O	1.043325	-0.178847	-0.424186
O20	O	1.543325	0.321153	0.075814
O21	O	0.964949	-0.255216	-0.220442
O22	O	1.464949	0.244784	0.279558
O23	O	0.846478	-0.254910	-0.329773
O24	O	1.346478	0.245090	0.170227
O25	O	0.952330	-0.328378	-0.534546
O26	O	1.452330	0.171622	-0.034546
O27	O	0.842971	-0.321587	-0.416049
O28	O	1.342971	0.178413	0.083951
O29	O	1.038697	-0.266848	-0.538054
O30	O	1.538697	0.233152	-0.038054
O31	O	1.046578	-0.410124	-0.337746
O32	O	1.546578	0.089876	0.162254
O33	O	0.956815	-0.409892	-0.420585
O34	O	1.456815	0.090108	0.079415
C35	C	0.819229	-0.287455	-0.371886
C36	C	1.319229	0.212545	0.128114
C37	C	0.741125	-0.285035	-0.368761
C38	C	1.241125	0.214965	0.131239
C39	C	0.702627	-0.318661	-0.412141
C40	C	1.202627	0.181339	0.087859
C41	C	0.629240	-0.316381	-0.409208
C42	C	1.129240	0.183619	0.090792
C43	C	0.594353	-0.280476	-0.362890
C44	C	1.094353	0.219524	0.137110
C45	C	0.632856	-0.246846	-0.319508
C46	C	1.132856	0.253154	0.180492
C47	C	0.706241	-0.249124	-0.322445
C48	C	1.206241	0.250876	0.177555
C49	C	0.375067	-0.269932	-0.349300
C50	C	0.875067	0.230068	0.150700
C51	C	0.301677	-0.267657	-0.346365
C52	C	0.801677	0.232343	0.153635
C53	C	0.298066	-0.337192	-0.436066
C54	C	0.798066	0.162808	0.063934
C55	C	0.371453	-0.339469	-0.438996
C56	C	0.871453	0.160531	0.061004
C57	C	0.409950	-0.305837	-0.395616
C58	C	0.909950	0.194163	0.104384
N59	N	0.519340	-0.278145	-0.359890
N60	N	1.019340	0.221855	0.140110
N61	N	0.484961	-0.308166	-0.398621
N62	N	0.984961	0.191834	0.101379
C63	C	1.001699	-0.428979	-0.379171
C64	C	1.501699	0.071021	0.120829
C65	C	1.001721	-0.487094	-0.379172
C66	C	1.501721	0.012906	0.120828
C67	C	1.044960	-0.850105	-0.426062
C68	C	1.544960	-0.350105	0.073938
C69	C	1.044980	-0.904710	-0.426077
C70	C	1.544980	-0.404710	0.073923
O71	O	1.081628	-0.935193	-0.465884
O72	O	1.581628	-0.435193	0.034116
N73	N	1.001891	-0.929385	-0.379302
N74	N	1.501891	-0.429385	0.120698
C75	C	0.958773	-0.899452	-0.332513
C76	C	1.458773	-0.399452	0.167487
O77	O	0.922123	-0.925454	-0.292729
O78	O	1.422123	-0.425454	0.207271
C79	C	0.958750	-0.844848	-0.332502
C80	C	1.458750	-0.344848	0.167498
C81	C	1.001847	-0.820176	-0.379275
C82	C	1.501847	-0.320176	0.120725
C83	C	1.088053	-0.825433	-0.472833
C84	C	1.588053	-0.325433	0.027167
C85	C	1.088034	-0.770831	-0.472816
C86	C	1.588034	-0.270831	0.027184
C87	C	1.044921	-0.740902	-0.426030
C88	C	1.544921	-0.240902	0.073970
C89	C	1.001828	-0.765574	-0.379259
C90	C	1.501828	-0.265574	0.120741
C91	C	0.915629	-0.814915	-0.285717
C92	C	1.415629	-0.314915	0.214283
C93	C	0.915609	-0.760308	-0.285710
C94	C	1.415609	-0.260308	0.214290
C95	C	0.958706	-0.735636	-0.332484
C96	C	1.458706	-0.235636	0.167516
C97	C	0.958696	-0.681043	-0.332456
C98	C	1.458696	-0.181043	0.167544
N99	N	1.001785	-0.656368	-0.379232
N100	N	1.501785	-0.156368	0.120768
C101	C	1.044898	-0.686297	-0.426019
C102	C	1.544898	-0.186297	0.073981
C103	C	0.958824	-1.014125	-0.332541
C104	C	1.458824	-0.514125	0.167459
C105	C	0.958851	-1.068728	-0.332548
C106	C	1.458851	-0.568728	0.167452
C107	C	1.045057	-1.073983	-0.426113
C108	C	1.545057	-0.573983	0.073887
C109	C	1.045034	-1.019379	-0.426102
C110	C	1.545034	-0.519379	0.073898
C111	C	1.001914	-0.989450	-0.379316
C112	C	1.501914	-0.489450	0.120684
C113	C	1.044854	-0.571630	-0.425981
C114	C	1.544854	-0.071630	0.074019
C115	C	1.044833	-0.517023	-0.425958
C116	C	1.544833	-0.017023	0.074042
C117	C	0.958625	-0.511774	-0.332396
C118	C	1.458625	-0.011774	0.167604
C119	C	0.958648	-0.566375	-0.332415
C120	C	1.458648	-0.066375	0.167585
C121	C	1.001765	-0.596303	-0.379214
C122	C	1.501765	-0.096303	0.120786
O123	O	0.922064	-0.650527	-0.292672
O124	O	1.422064	-0.150527	0.207328
O125	O	1.081534	-0.660288	-0.465803
O126	O	1.581534	-0.160288	0.034197
C127	C	1.185076	-0.298851	-0.386603
C128	C	1.685076	0.201149	0.113397
C129	C	1.263179	-0.301284	-0.389745
C130	C	1.763179	0.198716	0.110255
C131	C	0.994465	-0.298359	-0.562509
C132	C	1.494465	0.201641	-0.062509
C133	C	0.991342	-0.300582	-0.640611
C134	C	1.491342	0.199418	-0.140611
C135	C	1.001912	-0.156774	-0.379305
C136	C	1.501912	0.343226	0.120695
C137	C	1.001961	-0.098662	-0.379337
C138	C	1.501961	0.401338	0.120663
C139	C	1.034838	-0.269593	-0.679131
C140	C	1.534838	0.230407	-0.179131
C141	C	1.031894	-0.271679	-0.752517
C142	C	1.531894	0.228321	-0.252517
C143	C	0.985457	-0.304759	-0.787381
C144	C	1.485457	0.195241	-0.287381
C145	C	0.941956	-0.335750	-0.748855
C146	C	1.441956	0.164250	-0.248855
C147	C	0.944897	-0.333660	-0.675471
C148	C	1.444897	0.166340	-0.175471
C149	C	0.971838	-0.314442	-1.006660
C150	C	1.471838	0.185558	-0.506660
C151	C	0.968902	-0.316531	-1.080049
C152	C	1.468902	0.183469	-0.580049
C153	C	1.058839	-0.252460	-1.083705
C154	C	1.558839	0.247540	-0.583705
C155	C	1.061779	-0.250375	-1.010320
C156	C	1.561779	0.249625	-0.510320
C157	C	1.018275	-0.281364	-0.971801
C158	C	1.518275	0.218636	-0.471801
N159	N	0.982449	-0.306894	-0.862392
N160	N	1.482449	0.193106	-0.362392
N161	N	1.021281	-0.279225	-0.896790
N162	N	1.521281	0.220775	-0.396790
C163	C	1.009138	-0.287908	-0.196666
C164	C	1.509138	0.212092	0.303334
C165	C	1.012398	-0.285541	-0.118569
C166	C	1.512398	0.214459	0.381431
H167	H	0.266715	-0.364572	-0.471384
H168	H	0.766715	0.135428	0.028616
C169	C	1.092238	-0.165640	-1.107721
C170	C	1.592238	0.334360	-0.607721
C171	C	1.106652	-0.218393	-1.126045
C172	C	1.606652	0.281607	-0.626045
H173	H	1.121759	-0.144608	-1.133857
H174	H	1.621759	0.355392	-0.633857
H175	H	1.044556	-0.156865	-1.117854
H176	H	1.544556	0.343135	-0.617854
H177	H	1.100635	-0.159670	-1.059025
H178	H	1.600635	0.340330	-0.559025
H179	H	1.098250	-0.224364	-1.174740
H180	H	1.598250	0.275636	-0.674740
H181	H	1.154345	-0.227171	-1.115917
H182	H	1.654345	0.272829	-0.615917
C183	C	0.190783	-0.233274	-0.302061
C184	C	0.690783	0.266726	0.197939
C185	C	0.263325	-0.228173	-0.295471
C186	C	0.763325	0.271827	0.204529
H187	H	0.167107	-0.208898	-0.270645
H188	H	0.667107	0.291102	0.229355
H189	H	0.176896	-0.226665	-0.348815
H190	H	0.676896	0.273335	0.151185
H191	H	0.179147	-0.267719	-0.291180
H192	H	0.679147	0.232281	0.208820
H193	H	0.274961	-0.193729	-0.306357
H194	H	0.774961	0.306271	0.193643
H195	H	0.277217	-0.234778	-0.248706
H196	H	0.777217	0.265222	0.251294
H197	H	1.072654	-0.242657	-0.650751
H198	H	1.572654	0.257343	-0.150751
H199	H	0.936424	-0.339683	-0.975306
H200	H	1.436424	0.160317	-0.475306
H201	H	0.406403	-0.242551	-0.313972
H202	H	0.906403	0.257449	0.186028
H203	H	0.597898	-0.343763	-0.444532
H204	H	1.097898	0.156237	0.055468
H205	H	0.399854	-0.368707	-0.476711
H206	H	0.899854	0.131293	0.023289
H207	H	0.604444	-0.217610	-0.281799
H208	H	1.104444	0.282390	0.218201
H209	H	0.923764	-1.088811	-0.294453
H210	H	1.423764	-0.588811	0.205547
H211	H	1.067316	-0.246446	-0.783877
H212	H	1.567316	0.253554	-0.283877
H213	H	0.731027	-0.347900	-0.449855
H214	H	1.231027	0.152100	0.050145
H215	H	1.099595	-0.223439	-0.981939
H216	H	1.599595	0.276561	-0.481939
H217	H	0.931085	-0.343469	-1.108433
H218	H	1.431085	0.156531	-0.608433
H219	H	0.737585	-0.221740	-0.287124
H220	H	1.237585	0.278260	0.212876
C221	C	0.873433	-0.555694	-0.239930
C222	C	1.373433	-0.055694	0.260070
C223	C	0.911277	-0.593498	-0.281000
C224	C	1.411277	-0.093498	0.219000
H225	H	0.844181	-0.572437	-0.208196
H226	H	1.344181	-0.072437	0.291804
H227	H	0.905138	-0.534582	-0.214301
H228	H	1.405138	-0.034582	0.285699
H229	H	0.845305	-0.534430	-0.269443
H230	H	1.345305	-0.034430	0.230557
H231	H	0.939409	-0.614760	-0.251488
H232	H	1.439409	-0.114760	0.248512
H233	H	0.879568	-0.614619	-0.306631
H234	H	1.379568	-0.114619	0.193369
H235	H	0.904143	-0.362682	-0.777247
H236	H	1.404143	0.137318	-0.277247
H237	H	1.079931	-0.496937	-0.464047
H238	H	1.579931	0.003063	0.035953
C239	C	1.130063	-0.571324	-0.518466
C240	C	1.630063	-0.071324	-0.018466
C241	C	1.092248	-0.604520	-0.477423
C242	C	1.592248	-0.104520	0.022577
H243	H	1.159324	-0.591630	-0.550219
H244	H	1.659324	-0.091630	-0.050219
H245	H	1.098340	-0.549846	-0.544074
H246	H	1.598340	-0.049846	-0.044074
H247	H	1.158179	-0.549988	-0.488938
H248	H	1.658179	-0.049988	0.011062
H249	H	1.064127	-0.625853	-0.506951
H250	H	1.564127	-0.125853	-0.006951
H251	H	1.123974	-0.626007	-0.451813
H252	H	1.623974	-0.126007	0.048187
H253	H	1.123125	-0.750746	-0.510906
H254	H	1.623125	-0.250746	-0.010906
H255	H	1.123161	-0.849796	-0.510936
H256	H	1.623161	-0.349796	-0.010936
C257	C	0.864489	-0.447211	-0.318760
C258	C	1.364489	0.052789	0.181240
C259	C	0.911232	-0.478867	-0.280974
C260	C	1.411232	0.021133	0.219026
H261	H	0.835226	-0.426897	-0.287017
H262	H	1.335226	0.073103	0.212983
H263	H	0.890158	-0.424709	-0.346609
H264	H	1.390158	0.075291	0.153391
H265	H	0.836375	-0.468559	-0.348274
H266	H	1.336375	0.031441	0.151726
H267	H	0.939350	-0.457519	-0.251464
H268	H	1.439350	0.042481	0.248536
H269	H	0.885561	-0.501372	-0.253113
H270	H	1.385561	-0.001372	0.246887
C271	C	1.130241	-1.030070	-0.518590
C272	C	1.630241	-0.530070	-0.018590
C273	C	1.092399	-0.992262	-0.477525
C274	C	1.592399	-0.492262	0.022475
H275	H	1.159478	-1.013330	-0.550342
H276	H	1.659478	-0.513330	-0.050342
H277	H	1.158377	-1.051323	-0.489082
H278	H	1.658377	-0.551323	0.010918
H279	H	1.098529	-1.051192	-0.544207
H280	H	1.598529	-0.551192	-0.044207
H281	H	1.124111	-0.971142	-0.451904
H282	H	1.624111	-0.471142	0.048096
H283	H	1.064260	-0.971000	-0.507037
H284	H	1.564260	-0.471000	-0.007037
C285	C	1.083352	-1.160025	-0.467681
C286	C	1.583352	-0.660025	0.032319
C287	C	1.092442	-1.106889	-0.477550
C288	C	1.592442	-0.606889	0.022450
H289	H	1.112601	-1.180340	-0.499437
H290	H	1.612601	-0.680340	0.000563
H291	H	1.095570	-1.167960	-0.420901
H292	H	1.595570	-0.667960	0.079099
H293	H	1.035720	-1.167814	-0.476024
H294	H	1.535720	-0.667814	0.023976
H295	H	1.140073	-1.099099	-0.469201
H296	H	1.640073	-0.599099	0.030799
H297	H	1.080228	-1.098951	-0.524341
H298	H	1.580228	-0.598951	-0.024341
H299	H	0.923713	-0.989759	-0.294436
H300	H	1.423713	-0.489759	0.205564
H301	H	0.880534	-0.834994	-0.247628
H302	H	1.380534	-0.334994	0.252372
C303	C	0.830391	-0.760603	-0.193232
C304	C	1.330391	-0.260603	0.306768
C305	C	0.868209	-0.727411	-0.234279
C306	C	1.368209	-0.227411	0.265721
H307	H	0.801133	-0.740293	-0.161479
H308	H	1.301133	-0.240293	0.338521
H309	H	0.802277	-0.781938	-0.222753
H310	H	1.302277	-0.281938	0.277247
H311	H	0.862117	-0.782081	-0.167617
H312	H	1.362117	-0.282081	0.332383
H313	H	0.836483	-0.705935	-0.259898
H314	H	1.336483	-0.205935	0.240102
H315	H	0.896325	-0.706067	-0.204755
H316	H	1.396325	-0.206067	0.295245
H317	H	0.909470	-0.358889	-0.644109
H318	H	1.409470	0.141111	-0.144109
