data_functionalizedCrystal
_audit_creation_method	'MofGen! by Chris Wilmer'
_symmetry_space_group_name_H-M	'P1'
_symmetry_Int_Tables_number	1
_symmetry_cell_setting	triclinic
loop_
_symmetry_equiv_pos_as_xyz
  x,y,z
_cell_length_a	14.908782
_cell_length_b	14.908178
_cell_length_c	17.077396
_cell_angle_alpha	86.672472
_cell_angle_beta	93.284696
_cell_angle_gamma	90.210875
loop_
_atom_site_label
_atom_site_type_symbol
_atom_site_fract_x
_atom_site_fract_y
_atom_site_fract_z
Zn1	Zn	1.353920	-0.437257	-0.353760
Zn2	Zn	1.345155	-0.587637	-0.215380
Zn3	Zn	1.203567	-0.428620	-0.230506
Zn4	Zn	1.194865	-0.578914	-0.354603
O5	O	1.274377	-0.508107	-0.288562
O6	O	1.478577	-0.464471	-0.328721
O7	O	1.326347	-0.566579	-0.107539
O8	O	1.230821	-0.303932	-0.252834
O9	O	1.472138	-0.574954	-0.227054
O10	O	1.341285	-0.310278	-0.343388
O11	O	1.222322	-0.449750	-0.118652
O12	O	1.076593	-0.441291	-0.253651
O13	O	1.215991	-0.560087	-0.464339
O14	O	1.070200	-0.551712	-0.344824
O15	O	1.332847	-0.456012	-0.463720
O16	O	1.317910	-0.712313	-0.227871
O17	O	1.207492	-0.705904	-0.330157
C18	C	1.040772	-0.494618	-0.300971
C19	C	0.940834	-0.488870	-0.306297
C20	C	0.746342	-0.592956	-0.210293
C21	C	0.652441	-0.587557	-0.215294
C22	C	0.659129	-0.472679	-0.321305
C23	C	0.753030	-0.478078	-0.316303
C24	C	0.796633	-0.538217	-0.260795
C25	C	0.890536	-0.543610	-0.255790
C26	C	0.897222	-0.428737	-0.361803
C27	C	0.803321	-0.423339	-0.366805
C28	C	1.260830	-0.741737	-0.277480
C29	C	1.255117	-0.841690	-0.272760
C30	C	1.359320	-1.035965	-0.358298
C31	C	1.353955	-1.129879	-0.353866
C32	C	1.239018	-1.123436	-0.259469
C33	C	1.244383	-1.029521	-0.263901
C34	C	1.304537	-0.985789	-0.313316
C35	C	1.309906	-0.891873	-0.317743
C36	C	1.194965	-0.885431	-0.223351
C37	C	1.189600	-0.979345	-0.218919
C38	C	1.508894	-0.521649	-0.276106
C39	C	1.608831	-0.527420	-0.270798
C40	C	1.274426	-0.508040	-0.493308
C41	C	1.274447	-0.508011	-0.580558
C42	C	1.288001	-0.273566	-0.299705
C43	C	1.293807	-0.173618	-0.304453
C44	C	1.220299	-0.447173	-0.627334
C45	C	1.220315	-0.447153	-0.709314
C46	C	1.274484	-0.507969	-0.744518
C47	C	1.328634	-0.568814	-0.697736
C48	C	1.328613	-0.568837	-0.615757
C49	C	1.328676	-0.568760	-0.868607
C50	C	1.328699	-0.568736	-0.950591
C51	C	1.220379	-0.447076	-0.962164
C52	C	1.220357	-0.447099	-0.880185
C53	C	1.274509	-0.507944	-0.833409
C54	C	1.274383	-0.508112	-0.084614
C55	C	1.274551	-0.507897	0.002633
H56	H	0.767806	-0.374378	-0.412001
H57	H	1.372780	-0.618299	-0.830523
H58	H	1.140623	-1.014965	-0.178689
H59	H	1.150360	-0.844567	-0.186721
H60	H	1.176253	-0.397574	-0.851525
H61	H	1.372808	-0.618258	-0.979251
H62	H	1.358888	-0.856267	-0.357978
H63	H	1.372712	-0.618372	-0.577673
H64	H	1.190040	-1.159059	-0.219242
H65	H	0.926036	-0.592577	-0.210590
H66	H	0.781844	-0.641918	-0.165091
H67	H	0.611497	-0.632133	-0.174172
H68	H	1.176194	-0.397644	-0.598677
H69	H	1.176219	-0.397615	-0.747396
H70	H	0.623610	-0.423724	-0.366503
H71	H	1.372734	-0.618336	-0.726405
H72	H	0.938180	-0.384161	-0.402922
H73	H	1.176288	-0.397533	-1.000253
H74	H	1.408306	-1.000358	-0.398528
H75	H	1.398560	-1.170729	-0.390499
