data_functionalizedCrystal
_audit_creation_method	'MofGen! by Chris Wilmer'
_symmetry_space_group_name_H-M	'P1'
_symmetry_Int_Tables_number	1
_symmetry_cell_setting	triclinic
loop_
_symmetry_equiv_pos_as_xyz
  x,y,z
_cell_length_a	10.654550
_cell_length_b	10.654550
_cell_length_c	9.130313
_cell_angle_alpha	89.995631
_cell_angle_beta	89.999724
_cell_angle_gamma	84.484931
loop_
_atom_site_label
_atom_site_type_symbol
_atom_site_fract_x
_atom_site_fract_y
_atom_site_fract_z
O1	O	1.667839	0.176399	-0.121690
O2	O	1.302361	0.193205	-0.121716
O3	O	1.493503	0.002063	-0.121693
O4	O	1.476697	0.367541	-0.121713
O5	O	1.493490	0.002057	0.121906
O6	O	1.302348	0.193199	0.121882
O7	O	1.667826	0.176393	0.121909
Cu8	Cu	1.485086	0.184796	0.144138
Cu9	Cu	1.485101	0.184802	-0.143946
O10	O	1.476684	0.367535	0.121886
C11	C	1.255556	0.191968	0.000080
C12	C	1.116113	0.188276	0.000070
C13	C	1.492263	-0.044738	0.000105
C14	C	1.488571	-0.184181	0.000103
C15	C	1.036628	0.300818	0.000068
C16	C	0.905607	0.297341	0.000093
C17	C	0.933570	0.068772	0.000117
C18	C	1.064588	0.072250	0.000101
C19	C	1.601112	-0.263667	0.000111
C20	C	1.597636	-0.394688	0.000092
C21	C	1.369066	-0.366725	0.000065
C22	C	1.372544	-0.235706	0.000073
C23	C	1.714631	0.177630	0.000110
C24	C	1.854074	0.181322	0.000110
C25	C	1.477925	0.414336	0.000084
C26	C	1.481616	0.553779	0.000077
N27	N	1.485084	0.184790	0.346761
N28	N	1.485113	0.184798	-0.346568
C29	C	1.569751	0.100188	0.423423
C30	C	1.569763	0.100189	0.576760
C31	C	1.400437	0.269404	0.576759
C32	C	1.400420	0.269396	0.423425
H33	H	0.840894	0.388984	0.000095
H34	H	1.638704	0.031297	0.639174
O35	O	1.318256	0.351763	0.651068
C36	C	1.339756	0.476281	0.613599
H37	H	1.388154	0.476571	0.502263
H38	H	1.245888	0.537248	0.608352
H39	H	1.402608	0.515712	0.699882
H40	H	0.891602	-0.025693	0.000151
O41	O	1.318345	0.351643	0.348787
C42	C	1.386265	0.429766	0.260096
H43	H	1.484102	0.380657	0.237121
H44	H	1.334009	0.449140	0.152274
H45	H	1.395605	0.522672	0.319171
H46	H	1.695588	-0.221720	0.000132
O47	O	1.086473	0.413628	0.000114
C48	C	0.988215	0.512213	0.000084
H49	H	0.898924	0.476227	0.046215
H50	H	1.016296	0.593146	0.070798
H51	H	0.969970	0.546986	-0.116783
H52	H	1.689279	-0.459401	0.000096
O53	O	1.141630	-0.037198	0.000036
C54	C	1.068061	-0.140352	0.000092
H55	H	0.970563	-0.109335	-0.046022
H56	H	1.115695	-0.219275	-0.070626
H57	H	1.058435	-0.175860	0.116964
H58	H	1.280893	-0.170985	0.000062
O59	O	1.256472	-0.416987	0.000114
C60	C	1.277531	-0.549672	0.000078
H61	H	1.375270	-0.579586	0.046203
H62	H	1.203219	-0.590542	0.070794
H63	H	1.271134	-0.586181	-0.116790
O64	O	1.651855	0.017799	0.349049
C65	C	1.630353	-0.106696	0.386619
H66	H	1.529794	-0.108207	0.428763
H67	H	1.644250	-0.169634	0.285819
H68	H	1.699628	-0.142918	0.475650
