data_functionalizedCrystal
_audit_creation_method	'MofGen! by Chris Wilmer'
_symmetry_space_group_name_H-M	'P1'
_symmetry_Int_Tables_number	1
_symmetry_cell_setting	triclinic
loop_
_symmetry_equiv_pos_as_xyz
  x,y,z
_cell_length_a	23.532407
_cell_length_b	17.038272
_cell_length_c	16.098538
_cell_angle_alpha	87.079695
_cell_angle_beta	92.716143
_cell_angle_gamma	86.980117
loop_
_atom_site_label
_atom_site_type_symbol
_atom_site_fract_x
_atom_site_fract_y
_atom_site_fract_z
O1	O	-0.762623	-0.091367	-0.069152
O2	O	-0.429290	0.241966	0.264181
O3	O	-0.095957	0.575300	0.597514
O4	O	-0.597483	-0.105093	-0.069177
O5	O	-0.264149	0.228240	0.264157
O6	O	0.069184	0.561573	0.597490
O7	O	-0.679071	0.015578	-0.069158
O8	O	-0.345738	0.348911	0.264175
O9	O	-0.012405	0.682244	0.597509
O10	O	-0.681035	-0.212038	-0.069171
O11	O	-0.347701	0.121295	0.264162
O12	O	-0.014368	0.454629	0.597496
O13	O	-0.674304	0.008556	0.069354
O14	O	-0.340971	0.341889	0.402687
O15	O	-0.007637	0.675223	0.736020
O16	O	-0.592715	-0.112115	0.069335
O17	O	-0.259382	0.221218	0.402668
O18	O	0.073951	0.554552	0.736002
O19	O	-0.757856	-0.098389	0.069360
O20	O	-0.424523	0.234945	0.402693
O21	O	-0.091189	0.568278	0.736026
Zn22	Zn	-0.674529	-0.106367	0.091339
Zn23	Zn	-0.341195	0.226967	0.424672
Zn24	Zn	-0.007862	0.560300	0.758006
Zn25	Zn	-0.680810	-0.097115	-0.091156
Zn26	Zn	-0.347477	0.236218	0.242177
Zn27	Zn	-0.014143	0.569551	0.575510
O28	O	-0.676267	-0.219060	0.069341
O29	O	-0.342934	0.114274	0.402674
O30	O	-0.009601	0.447607	0.736007
C31	C	-0.573865	-0.108254	0.000076
C32	C	-0.240531	0.225079	0.333409
C33	C	0.092802	0.558412	0.666743
C34	C	-0.510593	-0.107203	0.000067
C35	C	-0.177259	0.226130	0.333400
C36	C	0.156074	0.559464	0.666733
C37	C	-0.674902	0.041182	0.000097
C38	C	-0.341569	0.374515	0.333431
C39	C	-0.008236	0.707848	0.666764
C40	C	-0.669576	0.127935	0.000096
C41	C	-0.336242	0.461269	0.333430
C42	C	-0.002909	0.794602	0.666763
C43	C	-0.781474	-0.095228	0.000105
C44	C	-0.448141	0.238106	0.333438
C45	C	-0.114808	0.571439	0.666772
C46	C	-0.844746	-0.096279	0.000109
C47	C	-0.511413	0.237055	0.333442
C48	C	-0.178080	0.570388	0.666775
C49	C	-0.114896	-0.172024	0.000101
C50	C	0.218437	0.161310	0.333434
C51	C	0.551771	0.494643	0.666768
C52	C	-0.055444	-0.171048	0.000106
C53	C	0.277889	0.162286	0.333439
C54	C	0.611222	0.495619	0.666773
O55	O	-0.021858	-0.231137	0.000133
O56	O	0.311476	0.102196	0.333466
O57	O	0.644809	0.435530	0.666800
N58	N	-0.029047	-0.099308	0.000109
N59	N	0.304287	0.234025	0.333442
N60	N	0.637620	0.567358	0.666775
C61	C	-0.062104	-0.028541	0.000115
C62	C	0.271230	0.304792	0.333448
C63	C	0.604563	0.638126	0.666781
O64	O	-0.034191	0.032568	0.000118
O65	O	0.299142	0.365902	0.333452
O66	O	0.632475	0.699235	0.666785
C67	C	-0.121554	-0.029518	0.000116
C68	C	0.211779	0.303815	0.333449
C69	C	0.545113	0.637148	0.666782
C70	C	-0.147949	-0.101262	0.000104
C71	C	0.185385	0.232072	0.333438
C72	C	0.518718	0.565405	0.666771
C73	C	-0.141291	-0.243761	0.000091
C74	C	0.192042	0.089572	0.333424
C75	C	0.525376	0.422905	0.666757
C76	C	-0.200739	-0.244737	0.000084
C77	C	0.132595	0.088596	0.333417
C78	C	0.465928	0.421930	0.666751
C79	C	-0.233791	-0.173975	0.000087
C80	C	0.099542	0.159358	0.333421
C81	C	0.432875	0.492692	0.666754
C82	C	-0.207396	-0.102237	0.000098
C83	C	0.125937	0.231096	0.333431
C84	C	0.459270	0.564429	0.666764
C85	C	-0.154610	0.041248	0.000127
C86	C	0.178724	0.374581	0.333461
C87	C	0.512057	0.707915	0.666794
C88	C	-0.214064	0.040265	0.000129
C89	C	0.119269	0.373598	0.333462
C90	C	0.452603	0.706931	0.666796
C91	C	-0.240459	-0.031479	0.000118
C92	C	0.092875	0.301854	0.333451
C93	C	0.426208	0.635188	0.666784
C94	C	-0.299897	-0.032451	0.000094
C95	C	0.033436	0.300882	0.333428
C96	C	0.366770	0.634216	0.666761
N97	N	-0.326295	-0.104190	0.000092
N98	N	0.007039	0.229143	0.333425
N99	N	0.340372	0.562476	0.666758
C100	C	-0.293242	-0.174952	0.000088
C101	C	0.040091	0.158381	0.333422
C102	C	0.373425	0.491714	0.666755
C103	C	0.062747	-0.026494	0.000114
C104	C	0.396080	0.306839	0.333448
C105	C	0.729413	0.640172	0.666781
C106	C	0.122196	-0.025516	0.000108
C107	C	0.455529	0.307817	0.333441
C108	C	0.788862	0.641151	0.666774
C109	C	0.128851	-0.168023	0.000101
C110	C	0.462184	0.165310	0.333434
C111	C	0.795518	0.498644	0.666767
C112	C	0.069400	-0.169000	0.000101
C113	C	0.402734	0.164333	0.333435
C114	C	0.736067	0.497666	0.666768
C115	C	0.036349	-0.098234	0.000112
C116	C	0.369682	0.235100	0.333445
C117	C	0.703015	0.568433	0.666778
C118	C	-0.418087	-0.176996	0.000073
C119	C	-0.084753	0.156338	0.333407
C120	C	0.248580	0.489671	0.666740
C121	C	-0.477540	-0.177965	0.000063
C122	C	-0.144207	0.155368	0.333397
C123	C	0.189127	0.488702	0.666730
C124	C	-0.484190	-0.035459	0.000075
C125	C	-0.150857	0.297875	0.333408
C126	C	0.182477	0.631208	0.666741
C127	C	-0.424742	-0.034489	0.000081
C128	C	-0.091409	0.298845	0.333414
C129	C	0.241925	0.632178	0.666747
C130	C	-0.391691	-0.105264	0.000083
C131	C	-0.058358	0.228069	0.333416
C132	C	0.274975	0.561403	0.666749
O133	O	-0.333520	0.027607	0.000071
O134	O	-0.000186	0.360940	0.333404
O135	O	0.333147	0.694273	0.666738
O136	O	-0.321162	-0.236052	0.000096
O137	O	0.012172	0.097281	0.333429
O138	O	0.345505	0.430615	0.666762
C139	C	-0.680436	-0.244664	0.000083
C140	C	-0.347103	0.088670	0.333417
C141	C	-0.013770	0.422003	0.666750
C142	C	-0.685763	-0.331417	0.000079
C143	C	-0.352430	0.001916	0.333412
C144	C	-0.019097	0.335250	0.666746
N145	N	-0.670246	-0.112680	0.215887
N146	N	-0.336913	0.220654	0.549221
N147	N	-0.003579	0.553987	0.882554
C148	C	-0.718480	0.178411	0.000105
C149	C	-0.385147	0.511745	0.333438
C150	C	-0.051813	0.845078	0.666771
C151	C	-0.713472	0.259925	0.000096
C152	C	-0.380139	0.593258	0.333429
C153	C	-0.046805	0.926592	0.666763
C154	C	-0.659559	0.290961	0.000085
C155	C	-0.326226	0.624295	0.333418
C156	C	0.007108	0.957628	0.666752
C157	C	-0.610651	0.240479	0.000074
C158	C	-0.277318	0.573812	0.333408
C159	C	0.056016	0.907146	0.666741
C160	C	-0.615660	0.158967	0.000077
C161	C	-0.282326	0.492300	0.333410
C162	C	0.051007	0.825634	0.666744
C163	C	-0.641864	0.536589	0.000071
C164	C	-0.308531	0.869922	0.333404
C165	C	0.024803	1.203255	0.666738
C166	C	-0.636859	0.618107	0.000071
C167	C	-0.303526	0.951440	0.333404
C168	C	0.029808	1.284774	0.666738
C169	C	-0.739681	0.637548	0.000091
C170	C	-0.406347	0.970881	0.333424
C171	C	-0.073014	1.304215	0.666757
C172	C	-0.744685	0.556033	0.000098
C173	C	-0.411351	0.889366	0.333432
C174	C	-0.078018	1.222700	0.666765
C175	C	-0.695777	0.505558	0.000083
C176	C	-0.362443	0.838892	0.333417
C177	C	-0.029110	1.172225	0.666750
C178	C	-0.654439	0.374281	0.000079
C179	C	-0.321105	0.707614	0.333412
C180	C	0.012228	1.040948	0.666746
C181	C	-0.700898	0.422240	0.000084
C182	C	-0.367564	0.755574	0.333417
C183	C	-0.034231	1.088907	0.666750
N184	N	-0.685097	-0.090796	-0.215705
N185	N	-0.351763	0.242537	0.117629
N186	N	-0.018430	0.575871	0.450962
C187	C	-0.704890	-0.061480	0.259480
C188	C	-0.371557	0.271853	0.592814
C189	C	-0.038223	0.605187	0.926147
C190	C	-0.701900	-0.065904	0.346668
C191	C	-0.368567	0.267429	0.680002
C192	C	-0.035233	0.600763	1.013335
C193	C	-0.664268	-0.121531	0.390262
C194	C	-0.330935	0.211802	0.723596
C195	C	0.002398	0.545135	1.056929
C196	C	-0.629620	-0.172733	0.346663
C197	C	-0.296287	0.160600	0.679996
C198	C	0.037046	0.493933	1.013330
C199	C	-0.632608	-0.168305	0.259476
C200	C	-0.299275	0.165028	0.592810
C201	C	0.034059	0.498361	0.926143
C202	C	-0.653437	-0.137570	0.653510
C203	C	-0.320103	0.195763	0.986843
C204	C	0.013230	0.529097	1.320176
C205	C	-0.650453	-0.141996	0.740702
C206	C	-0.317120	0.191338	1.074036
C207	C	0.016214	0.524671	1.407369
C208	C	-0.722732	-0.035165	0.740702
C209	C	-0.389399	0.298169	1.074035
C210	C	-0.056065	0.631502	1.407369
C211	C	-0.725719	-0.030745	0.653513
C212	C	-0.392385	0.302589	0.986847
C213	C	-0.059052	0.635922	1.320180
C214	C	-0.691069	-0.081944	0.609922
C215	C	-0.357735	0.251389	0.943255
C216	C	-0.024402	0.584723	1.276589
C217	C	-0.661212	-0.126056	0.479383
C218	C	-0.327879	0.207277	0.812716
C219	C	0.005455	0.540610	1.146049
C220	C	-0.694122	-0.077415	0.520803
C221	C	-0.360789	0.255918	0.854137
C222	C	-0.027456	0.589252	1.187470
H223	H	-0.499027	-0.236390	0.000054
H224	H	-0.165694	0.096944	0.333387
H225	H	0.167639	0.430277	0.666720
H226	H	-0.133130	0.099669	0.000137
H227	H	0.200204	0.433002	0.333471
H228	H	0.533537	0.766336	0.666804
Cl229	Cl	-0.569077	0.657122	0.000062
Cl230	Cl	-0.235744	0.990455	0.333396
Cl231	Cl	0.097590	1.323788	0.666729
H232	H	-0.240972	0.097893	0.000138
H233	H	0.092361	0.431226	0.333471
H234	H	0.425695	0.764559	0.666805
Cl235	Cl	0.155369	0.064681	0.000101
Cl236	Cl	0.488703	0.398014	0.333434
Cl237	Cl	0.822036	0.731347	0.666767
H238	H	-0.403251	0.023931	0.000077
H239	H	-0.069917	0.357264	0.333411
H240	H	0.263416	0.690598	0.666744
Cl241	Cl	-0.554177	0.095511	0.000064
Cl242	Cl	-0.220844	0.428844	0.333397
Cl243	Cl	0.112490	0.762177	0.666730
Cl244	Cl	-0.774955	0.323378	0.000109
Cl245	Cl	-0.441622	0.656711	0.333442
Cl246	Cl	-0.108289	0.990044	0.666775
Cl247	Cl	-0.812465	0.517024	0.000085
Cl248	Cl	-0.479131	0.850358	0.333418
Cl249	Cl	-0.145798	1.183691	0.666752
H250	H	-0.511112	0.022154	0.000075
H251	H	-0.177779	0.355487	0.333408
H252	H	0.155555	0.688821	0.666741
H253	H	0.035839	0.031136	0.000116
H254	H	0.369172	0.364470	0.333449
H255	H	0.702505	0.697803	0.666782
H256	H	-0.619807	-0.187298	0.776193
H257	H	-0.286474	0.146036	1.109526
H258	H	0.046860	0.479369	1.442859
H259	H	-0.744794	0.396968	0.000074
H260	H	-0.411461	0.730301	0.333407
H261	H	-0.078128	1.063635	0.666741
Cl262	Cl	-0.786260	0.139403	0.000127
Cl263	Cl	-0.452927	0.472736	0.333460
Cl264	Cl	-0.119593	0.806070	0.666793
Cl265	Cl	-0.586664	0.413305	0.000061
Cl266	Cl	-0.253331	0.746639	0.333394
Cl267	Cl	0.080003	1.079972	0.666728
Cl268	Cl	-0.752204	0.008452	0.204686
Cl269	Cl	-0.418871	0.341785	0.538019
Cl270	Cl	-0.085537	0.675119	0.871353
H271	H	-0.779498	0.678653	0.000101
H272	H	-0.446165	1.011986	0.333435
H273	H	-0.112832	1.345320	0.666768
H274	H	-0.602039	0.495501	0.000059
H275	H	-0.268706	0.828835	0.333392
H276	H	0.064627	1.162168	0.666726
H277	H	-0.730109	-0.024213	0.382162
H278	H	-0.396776	0.309121	0.715495
H279	H	-0.063443	0.642454	1.048828
Cl280	Cl	-0.773028	0.039187	0.598710
Cl281	Cl	-0.439695	0.372520	0.932043
Cl282	Cl	-0.106362	0.705853	1.265377
Cl283	Cl	-0.766287	0.029199	0.795506
Cl284	Cl	-0.432954	0.362532	1.128840
Cl285	Cl	-0.099620	0.695866	1.462173
Cl286	Cl	-0.582308	-0.242663	0.401465
Cl287	Cl	-0.248975	0.090670	0.734798
Cl288	Cl	0.084358	0.424004	1.068131
Cl289	Cl	-0.542874	0.279496	0.000051
Cl290	Cl	-0.209541	0.612830	0.333384
Cl291	Cl	0.123792	0.946163	0.666717
H292	H	-0.625224	-0.179260	0.618024
H293	H	-0.291891	0.154074	0.951358
H294	H	0.041442	0.487407	1.284691
H295	H	-0.724760	-0.032120	0.485307
H296	H	-0.391427	0.301213	0.818640
H297	H	-0.058093	0.634547	1.151973
H298	H	-0.604397	-0.209997	0.223984
H299	H	-0.271063	0.123337	0.557317
H300	H	0.062270	0.456670	0.890650
Cl301	Cl	0.170414	-0.256982	0.000101
Cl302	Cl	0.503748	0.076351	0.333434
Cl303	Cl	0.837081	0.409685	0.666767
H304	H	-0.630573	-0.171351	0.514884
H305	H	-0.297239	0.161983	0.848217
H306	H	0.036094	0.495316	1.181550
Cl307	Cl	-0.376547	-0.265972	0.000075
Cl308	Cl	-0.043213	0.067362	0.333408
Cl309	Cl	0.290120	0.400695	0.666742
H310	H	-0.114385	-0.301388	0.000091
H311	H	0.218948	0.031945	0.333424
H312	H	0.552281	0.365279	0.666757
Cl313	Cl	-0.233911	-0.334934	0.000076
Cl314	Cl	0.099422	-0.001601	0.333409
Cl315	Cl	0.432755	0.331733	0.666743
H316	H	0.047914	-0.227420	0.000097
H317	H	0.381248	0.105913	0.333430
H318	H	0.714581	0.439246	0.666764
