data_functionalizedCrystal
_audit_creation_method	'MofGen! by Chris Wilmer'
_symmetry_space_group_name_H-M	'P1'
_symmetry_Int_Tables_number	1
_symmetry_cell_setting	triclinic
loop_
_symmetry_equiv_pos_as_xyz
  x,y,z
_cell_length_a	13.897449
_cell_length_b	13.897441
_cell_length_c	13.897448
_cell_angle_alpha	90.029627
_cell_angle_beta	89.981028
_cell_angle_gamma	89.981404
loop_
_atom_site_label
_atom_site_type_symbol
_atom_site_fract_x
_atom_site_fract_y
_atom_site_fract_z
Zn1	Zn	1.474682	-0.545381	0.383960
Zn2	Zn	1.974682	-0.045381	0.883960
Zn3	Zn	1.474582	-0.384083	0.545279
Zn4	Zn	1.974582	0.115917	1.045279
Zn5	Zn	1.313377	-0.384100	0.384004
Zn6	Zn	1.813377	0.115900	0.884004
Zn7	Zn	1.313353	-0.545335	0.545219
Zn8	Zn	1.813353	-0.045335	1.045219
O9	O	1.393999	-0.464725	0.464616
O10	O	1.893999	0.035275	0.964616
O11	O	1.609651	-0.523997	0.405367
O12	O	2.109651	-0.023997	0.905367
O13	O	1.453166	-0.249103	0.523929
O14	O	1.953166	0.250897	1.023929
O15	O	1.334827	-0.405520	0.249016
O16	O	1.834827	0.094480	0.749016
O17	O	1.609577	-0.405491	0.523887
O18	O	2.109577	0.094509	1.023887
O19	O	1.453337	-0.524013	0.248985
O20	O	1.953337	-0.024013	0.748985
O21	O	1.334730	-0.249116	0.405441
O22	O	1.834730	0.250884	0.905441
O23	O	1.178393	-0.405476	0.405382
O24	O	1.678393	0.094524	0.905382
O25	O	1.334785	-0.680323	0.523784
O26	O	1.834785	-0.180323	1.023784
O27	O	1.178375	-0.523935	0.523826
O28	O	1.678375	-0.023935	1.023826
O29	O	1.453313	-0.680357	0.405308
O30	O	1.953313	-0.180357	0.905308
O31	O	1.453143	-0.405447	0.680253
O32	O	1.953143	0.094553	1.180253
O33	O	1.334688	-0.523918	0.680208
O34	O	1.834688	-0.023918	1.180208
C35	C	1.143384	-0.464703	0.464603
C36	C	1.643384	0.035297	0.964603
C37	C	1.036171	-0.464716	0.464620
C38	C	1.536171	0.035284	0.964620
C39	C	1.394058	-0.716318	0.464535
C40	C	1.894058	-0.216318	0.964535
C41	C	1.394083	-0.823532	0.464500
C42	C	1.894083	-0.323532	0.964500
C43	C	1.393928	-0.464697	0.715230
C44	C	1.893928	0.035303	1.215230
C45	C	1.393987	-0.464717	0.822444
C46	C	1.893987	0.035283	1.322444
C47	C	0.839875	-0.464741	0.464624
C48	C	1.339875	0.035259	0.964624
C49	C	0.949108	-0.464725	0.464619
C50	C	1.449108	0.035275	0.964619
C51	C	1.645592	-0.464747	0.464629
C52	C	2.145592	0.035253	0.964629
C53	C	1.752806	-0.464757	0.464635
C54	C	2.252806	0.035243	0.964635
C55	C	1.394103	-0.910602	0.464473
C56	C	1.894103	-0.410602	0.964473
C57	C	1.394130	-1.019834	0.464429
C58	C	1.894130	-0.519834	0.964429
C59	C	1.393995	-0.214110	0.464627
C60	C	1.893995	0.285890	0.964627
C61	C	1.394157	-0.106897	0.464389
C62	C	1.894157	0.393103	0.964389
C63	C	1.394096	-0.464774	0.213023
C64	C	1.894096	0.035226	0.713023
C65	C	1.394137	-0.464795	0.105809
C66	C	1.894137	0.035205	0.605809
C67	C	1.394088	-0.464778	1.018739
C68	C	1.894088	0.035222	1.518739
C69	C	1.394029	-0.464747	0.909506
C70	C	1.894029	0.035253	1.409506
