data_functionalizedCrystal
_audit_creation_method	'MofGen! by Chris Wilmer'
_symmetry_space_group_name_H-M	'P1'
_symmetry_Int_Tables_number	1
_symmetry_cell_setting	triclinic
loop_
_symmetry_equiv_pos_as_xyz
  x,y,z
_cell_length_a	14.044191
_cell_length_b	17.699083
_cell_length_c	16.776229
_cell_angle_alpha	90.005210
_cell_angle_beta	89.997960
_cell_angle_gamma	88.237396
loop_
_atom_site_label
_atom_site_type_symbol
_atom_site_fract_x
_atom_site_fract_y
_atom_site_fract_z
O1	O	1.257289	0.182455	-0.066253
O2	O	1.757289	0.682455	0.433747
O3	O	0.981334	0.175866	-0.066263
O4	O	1.481334	0.675866	0.433737
O5	O	1.127108	0.069509	-0.066250
O6	O	1.627108	0.569509	0.433750
O7	O	1.111515	0.288812	-0.066265
O8	O	1.611515	0.788812	0.433735
O9	O	1.127094	0.069529	0.066326
O10	O	1.627094	0.569529	0.566326
O11	O	0.981321	0.175885	0.066314
O12	O	1.481321	0.675885	0.566314
O13	O	1.257275	0.182474	0.066324
O14	O	1.757275	0.682474	0.566324
Zn15	Zn	1.119296	0.179183	0.087368
Zn16	Zn	1.619296	0.679183	0.587368
Zn17	Zn	1.119314	0.179157	-0.087307
Zn18	Zn	1.619314	0.679157	0.412693
O19	O	1.111502	0.288831	0.066312
O20	O	1.611502	0.788831	0.566312
C21	C	1.126542	0.041283	0.000038
C22	C	1.626542	0.541283	0.500038
C23	C	1.124866	-0.042850	0.000038
C24	C	1.624866	0.457150	0.500038
C25	C	0.946020	0.172993	0.000025
C26	C	1.446020	0.672993	0.500025
C27	C	0.840814	0.164395	0.000021
C28	C	1.340814	0.664395	0.500021
C29	C	1.210432	-0.085567	0.000043
C30	C	1.710432	0.414433	0.500043
C31	C	1.208852	-0.164620	0.000036
C32	C	1.708852	0.335380	0.500036
C33	C	1.121704	-0.200954	0.000030
C34	C	1.621704	0.299046	0.500030
C35	C	1.036131	-0.158231	0.000023
C36	C	1.536131	0.341769	0.500023
C37	C	1.037713	-0.079180	0.000025
C38	C	1.537713	0.420820	0.500025
C39	C	1.029751	-0.477035	0.000017
C40	C	1.529751	0.022965	0.500017
C41	C	1.028176	-0.556091	0.000018
C42	C	1.528176	-0.056091	0.500018
C43	C	1.200890	-0.562474	0.000027
C44	C	1.700890	-0.062474	0.500027
C45	C	1.202471	-0.483423	0.000029
C46	C	1.702471	0.016577	0.500029
C47	C	1.116899	-0.440707	0.000018
C48	C	1.616899	0.059293	0.500018
C49	C	1.118614	-0.354990	0.000024
C50	C	1.618614	0.145010	0.500024
C51	C	1.119988	-0.286670	0.000029
C52	C	1.619988	0.213330	0.500029
C53	C	0.590423	0.209655	0.000026
C54	C	1.090423	0.709655	0.500026
C55	C	0.648192	0.148688	0.000029
C56	C	1.148192	0.648688	0.500029
C57	C	0.755376	0.157430	0.000024
C58	C	1.255376	0.657430	0.500024
C59	C	0.483229	0.200915	0.000030
C60	C	0.983229	0.700915	0.500030
C61	C	1.292590	0.185347	0.000035
C62	C	1.792590	0.685347	0.500035
C63	C	1.397796	0.193945	0.000034
C64	C	1.897796	0.693945	0.500034
C65	C	1.112067	0.317057	0.000022
C66	C	1.612067	0.817057	0.500022
C67	C	1.113743	0.401191	0.000016
C68	C	1.613743	0.901191	0.500016
N69	N	1.119291	0.179200	0.206580
N70	N	1.619291	0.679200	0.706580
N71	N	1.119326	0.179134	-0.206518
N72	N	1.619326	0.679134	0.293482
C73	C	1.061954	0.129335	0.751752
C74	C	1.561954	0.629335	1.251752
C75	C	1.061952	0.129341	0.668300
C76	C	1.561952	0.629341	1.168300
C77	C	1.119317	0.179151	0.626579
C78	C	1.619317	0.679151	1.126579
C79	C	1.176696	0.228953	0.668314
C80	C	1.676696	0.728953	1.168314
C81	C	1.176703	0.228943	0.751765
C82	C	1.676703	0.728943	1.251765
C83	C	1.176672	0.228996	0.331767
C84	C	1.676672	0.728996	0.831767
C85	C	1.176658	0.229004	0.248311
C86	C	1.676658	0.729004	0.748311
C87	C	1.061920	0.129394	0.248302
C88	C	1.561920	0.629394	0.748302
C89	C	1.061927	0.129384	0.331753
C90	C	1.561927	0.629384	0.831753
C91	C	1.119309	0.179183	0.373481
C92	C	1.619309	0.679183	0.873481
C93	C	1.119312	0.179174	0.463969
C94	C	1.619312	0.679174	0.963969
C95	C	1.119310	0.179164	0.536092
C96	C	1.619310	0.679164	1.036092
H97	H	1.281398	-0.055990	0.000052
H98	H	1.781398	0.444010	0.500052
Br99	Br	0.921583	-0.021206	0.000013
Br100	Br	1.421583	0.478794	0.500013
Br101	Br	0.642155	0.307589	0.000011
Br102	Br	1.142155	0.807589	0.500011
H103	H	0.960073	-0.442265	0.000008
H104	H	1.460073	0.057735	0.500008
H105	H	1.270567	-0.597262	0.000032
H106	H	1.770567	-0.097262	0.500032
H107	H	1.223376	0.269568	0.214343
H108	H	1.723376	0.769568	0.714343
Br109	Br	0.596462	0.050748	0.000037
Br110	Br	1.096462	0.550748	0.500037
Br111	Br	1.254558	0.296548	0.611694
Br112	Br	1.754558	0.796548	1.111694
Br113	Br	0.917858	-0.207541	0.000002
Br114	Br	1.417858	0.292459	0.500002
Br115	Br	0.984089	0.061737	0.808366
Br116	Br	1.484089	0.561737	1.308366
H117	H	1.223395	0.269546	0.365732
H118	H	1.723395	0.769546	0.865732
H119	H	1.015236	0.088787	0.634328
H120	H	1.515236	0.588787	1.134328
H121	H	1.015210	0.088826	0.365718
H122	H	1.515210	0.588826	0.865718
H123	H	1.223422	0.269494	0.785740
H124	H	1.723422	0.769494	1.285740
H125	H	1.278528	-0.199396	0.000041
H126	H	1.778528	0.300604	0.500041
H127	H	1.273436	-0.453844	0.000037
H128	H	1.773436	0.046156	0.500037
H129	H	1.015200	0.088844	0.214317
H130	H	1.515200	0.588844	0.714317
H131	H	0.957206	-0.585672	0.000015
H132	H	1.457206	-0.085672	0.500015
