data_functionalizedCrystal
_audit_creation_method	'MofGen! by Chris Wilmer'
_symmetry_space_group_name_H-M	'P1'
_symmetry_Int_Tables_number	1
_symmetry_cell_setting	triclinic
loop_
_symmetry_equiv_pos_as_xyz
  x,y,z
_cell_length_a	12.759395
_cell_length_b	12.759394
_cell_length_c	19.805399
_cell_angle_alpha	89.976033
_cell_angle_beta	89.983241
_cell_angle_gamma	90.015598
loop_
_atom_site_label
_atom_site_type_symbol
_atom_site_fract_x
_atom_site_fract_y
_atom_site_fract_z
Zn1	Zn	1.606223	-0.418270	-0.382686
Zn2	Zn	1.606127	-0.593963	-0.269505
Zn3	Zn	1.430535	-0.418301	-0.269516
Zn4	Zn	1.430514	-0.593909	-0.382657
O5	O	1.518350	-0.506111	-0.326091
O6	O	1.753232	-0.441585	-0.367679
O7	O	1.582802	-0.570696	-0.174790
O8	O	1.453889	-0.271276	-0.284545
O9	O	1.753161	-0.570666	-0.284526
O10	O	1.582967	-0.271253	-0.367690
O11	O	1.453796	-0.441638	-0.174798
O12	O	1.283511	-0.441586	-0.284517
O13	O	1.453853	-0.570575	-0.477377
O14	O	1.283495	-0.570605	-0.367641
O15	O	1.582947	-0.441533	-0.477399
O16	O	1.582782	-0.740977	-0.284498
O17	O	1.453760	-0.740938	-0.367630
C18	C	1.245382	-0.506094	-0.326078
C19	C	1.128605	-0.506112	-0.326088
C20	C	0.909245	-0.371940	-0.412838
C21	C	0.964148	-0.304832	-0.456194
C22	C	1.073869	-0.304814	-0.456182
C23	C	1.128690	-0.371914	-0.412812
C24	C	1.073787	-0.439022	-0.369456
C25	C	0.964063	-0.439031	-0.369471
C26	C	1.073702	-0.573221	-0.282732
C27	C	0.963981	-0.573235	-0.282740
C28	C	1.128523	-0.640321	-0.239361
C29	C	1.073620	-0.707425	-0.196001
C30	C	0.963892	-0.707440	-0.196014
C31	C	0.909077	-0.640343	-0.239384
C32	C	1.518287	-0.779078	-0.326075
C33	C	1.518356	-0.895855	-0.326090
C34	C	1.652807	-0.895842	-0.239589
C35	C	1.720061	-0.950697	-0.196347
C36	C	1.720122	-1.060419	-0.196365
C37	C	1.652925	-1.115288	-0.239632
C38	C	1.585672	-1.060434	-0.282875
C39	C	1.585616	-0.950709	-0.282850
C40	C	1.451228	-1.060446	-0.369378
C41	C	1.451159	-0.950724	-0.369357
C42	C	1.384031	-1.115315	-0.412645
C43	C	1.316771	-1.060461	-0.455885
C44	C	1.316711	-0.950733	-0.455864
C45	C	1.383906	-0.895870	-0.412600
C46	C	1.792383	-0.506128	-0.326105
C47	C	1.909160	-0.506135	-0.326110
C48	C	1.518409	-0.506045	-0.502634
C49	C	1.518434	-0.506016	-0.577866
C50	C	1.518442	-0.232077	-0.326122
C51	C	1.518481	-0.115301	-0.326135
C52	C	1.585654	-0.438821	-0.613222
C53	C	1.585665	-0.438790	-0.683910
C54	C	1.518460	-0.505961	-0.719241
C55	C	1.451232	-0.573160	-0.683880
C56	C	1.451217	-0.573184	-0.613193
C57	C	1.451291	-0.573062	-0.968954
C58	C	1.451314	-0.573035	-1.039646
C59	C	1.585739	-0.438668	-1.039671
C60	C	1.585724	-0.438692	-0.968984
C61	C	1.518493	-0.505886	-0.933629
C62	C	1.518481	-0.505917	-0.856980
C63	C	1.518477	-0.505937	-0.795889
C64	C	1.518351	-0.506101	-0.150235
C65	C	1.518530	-0.505833	-0.075003
H66	H	0.819736	-0.640336	-0.239390
H67	H	1.384090	-1.204657	-0.412660
H68	H	1.396468	-0.627891	-0.584407
H69	H	1.383857	-0.806529	-0.412574
H70	H	1.396509	-0.627848	-0.712652
C71	C	1.242734	-0.890401	-0.503441
N72	N	1.187014	-0.844964	-0.539278
H73	H	1.396563	-0.627791	-0.940176
H74	H	1.774774	-0.906013	-0.161120
C75	C	1.134264	-0.230992	-0.503875
N76	N	1.179754	-0.175387	-0.539797
H77	H	1.640384	-0.384126	-0.584461
H78	H	0.819903	-0.371925	-0.412838
H79	H	0.919500	-0.250203	-0.491507
H80	H	1.640405	-0.384076	-0.712694
H81	H	0.919196	-0.762092	-0.160711
C82	C	1.659683	-0.364739	-1.078568
N83	N	1.715375	-0.309058	-1.107864
H84	H	1.218031	-0.371903	-0.412812
C85	C	1.377372	-0.646924	-1.078508
N86	N	1.321682	-0.702574	-1.107780
H87	H	1.640453	-0.383998	-0.940221
H88	H	1.652750	-0.806501	-0.239561
C89	C	1.249220	-0.640295	-0.239347
N90	N	1.340130	-0.640272	-0.239333
C91	C	1.133929	-0.781224	-0.148297
N92	N	1.179359	-0.836807	-0.112363
C93	C	1.794103	-1.120760	-0.148796
N94	N	1.849824	-1.166209	-0.112966
C95	C	1.653003	-1.235985	-0.239653
N96	N	1.653058	-1.326895	-0.239668
H97	H	1.262070	-1.105144	-0.491113
