data_functionalizedCrystal
_audit_creation_method	'MofGen! by Chris Wilmer'
_symmetry_space_group_name_H-M	'P1'
_symmetry_Int_Tables_number	1
_symmetry_cell_setting	triclinic
loop_
_symmetry_equiv_pos_as_xyz
  x,y,z
_cell_length_a	14.519731
_cell_length_b	16.109301
_cell_length_c	14.586319
_cell_angle_alpha	89.998857
_cell_angle_beta	89.998350
_cell_angle_gamma	96.424782
loop_
_atom_site_label
_atom_site_type_symbol
_atom_site_fract_x
_atom_site_fract_y
_atom_site_fract_z
O1	O	-0.118540	1.103344	-0.076179
O2	O	0.381460	1.603344	0.423821
O3	O	-0.133292	0.861309	-0.076190
O4	O	0.366708	1.361309	0.423810
O5	O	0.008335	0.988734	-0.076191
O6	O	0.508335	1.488734	0.423809
O7	O	-0.260166	0.975918	-0.076178
O8	O	0.239834	1.475918	0.423822
O9	O	0.008337	0.988725	0.076290
O10	O	0.508337	1.488725	0.576290
O11	O	-0.133289	0.861300	0.076291
O12	O	0.366711	1.361300	0.576291
O13	O	-0.118538	1.103335	0.076302
O14	O	0.381462	1.603335	0.576302
Cu15	Cu	-0.125913	0.982317	0.090219
Cu16	Cu	0.374087	1.482317	0.590219
Cu17	Cu	-0.125916	0.982327	-0.090107
Cu18	Cu	0.374084	1.482327	0.409893
O19	O	-0.260164	0.975909	0.076303
O20	O	0.239836	1.475909	0.576303
C21	C	-0.132693	0.830328	0.000048
C22	C	0.367307	1.330328	0.500048
C23	C	-0.130901	0.738030	0.000044
C24	C	0.369099	1.238030	0.500044
C25	C	-0.209083	0.429172	0.000063
C26	C	0.290917	0.929172	0.500063
C27	C	-0.210775	0.515895	0.000058
C28	C	0.289225	1.015895	0.500058
C29	C	-0.042740	0.535466	0.000038
C30	C	0.457260	1.035466	0.500038
C31	C	-0.041049	0.448744	0.000037
C32	C	0.458951	0.948744	0.500037
C33	C	-0.124223	0.395599	0.000054
C34	C	0.375777	0.895599	0.500054
C35	C	-0.127606	0.569044	0.000050
C36	C	0.372394	1.069044	0.500050
C37	C	-0.129440	0.663074	0.000044
C38	C	0.370560	1.163074	0.500044
C39	C	-0.122389	0.301564	0.000058
C40	C	0.377611	0.801564	0.500058
C41	C	-0.294524	0.976514	0.000064
C42	C	0.205476	1.476514	0.500064
C43	C	-0.396900	0.978314	0.000069
C44	C	0.103100	1.478314	0.500069
C45	C	-0.480041	0.979776	0.000065
C46	C	0.019959	1.479776	0.500065
C47	C	-0.584346	0.981603	0.000057
C48	C	-0.084346	1.481603	0.500057
C49	C	-0.667482	0.983053	0.000049
C50	C	-0.167482	1.483053	0.500049
C51	C	-0.771793	0.984880	0.000042
C52	C	-0.271793	1.484880	0.500042
C53	C	0.042694	0.988129	0.000046
C54	C	0.542694	1.488129	0.500046
C55	C	0.145071	0.986330	0.000035
C56	C	0.645071	1.486330	0.500035
C57	C	-0.119136	1.134316	0.000061
C58	C	0.380864	1.634316	0.500061
C59	C	-0.120928	1.226614	0.000060
C60	C	0.379072	1.726614	0.500060
N61	N	-0.125911	0.982315	0.217051
N62	N	0.374089	1.482315	0.717051
N63	N	-0.125911	0.982335	-0.216939
N64	N	0.374089	1.482335	0.283061
C65	C	-0.063220	1.038758	0.452057
C66	C	0.436780	1.538758	0.952057
C67	C	-0.063218	1.038761	0.548038
C68	C	0.436782	1.538761	1.048038
C69	C	-0.188605	0.925886	0.548048
C70	C	0.311395	1.425886	1.048048
C71	C	-0.188602	0.925880	0.452069
C72	C	0.311398	1.425880	0.952069
C73	C	-0.125911	0.982321	0.404076
C74	C	0.374089	1.482321	0.904076
C75	C	-0.125911	0.982329	0.596036
C76	C	0.374089	1.482329	1.096036
C77	C	-0.125909	0.982331	0.700103
C78	C	0.374091	1.482331	1.200103
C79	C	-0.125911	0.982318	0.300002
C80	C	0.374089	1.482318	0.800002
H81	H	0.024978	0.578747	0.000026
H82	H	0.524978	1.078747	0.500026
H83	H	-0.012168	1.084716	0.587102
H84	H	0.487832	1.584716	1.087102
O85	O	-0.249472	0.871148	0.594813
O86	O	0.250528	1.371148	1.094813
C87	C	-0.305015	0.821102	0.742678
C88	C	0.194985	1.321102	1.242678
C89	C	-0.236045	0.883149	0.689835
C90	C	0.263955	1.383149	1.189835
H91	H	-0.294171	0.830772	0.819513
H92	H	0.205829	1.330772	1.319513
H93	H	-0.378904	0.832050	0.723871
H94	H	0.121096	1.332050	1.223871
H95	H	-0.292988	0.754503	0.723760
H96	H	0.207012	1.254503	1.223760
H97	H	-0.247988	0.949773	0.708725
H98	H	0.252012	1.449773	1.208725
H99	H	-0.162181	0.872129	0.708646
H100	H	0.337819	1.372129	1.208646
H101	H	-0.239653	0.879919	0.413000
H102	H	0.260347	1.379919	0.913000
H103	H	-0.279876	0.543226	0.000065
H104	H	0.220124	1.043226	0.500065
O105	O	-0.002229	1.093608	0.405578
O106	O	0.497771	1.593608	0.905578
C107	C	0.122106	1.205593	0.415703
C108	C	0.622106	1.705593	0.915703
C109	C	0.053095	1.143508	0.468450
C110	C	0.553095	1.643508	0.968450
H111	H	0.166840	1.245965	0.466512
H112	H	0.666840	1.745965	0.966512
H113	H	0.168253	1.169668	0.370797
H114	H	0.668253	1.669668	0.870797
H115	H	0.082262	1.247148	0.370738
H116	H	0.582262	1.747148	0.870738
H117	H	0.092862	1.101937	0.513465
H118	H	0.592862	1.601937	1.013465
H119	H	0.006949	1.179485	0.513299
H120	H	0.506949	1.679485	1.013299
H121	H	-0.276809	0.385903	0.000077
H122	H	0.223191	0.885903	0.500077
H123	H	0.028058	0.421410	0.000026
H124	H	0.528058	0.921410	0.500026
