data_functionalizedCrystal
_audit_creation_method	'MofGen! by Chris Wilmer'
_symmetry_space_group_name_H-M	'P1'
_symmetry_Int_Tables_number	1
_symmetry_cell_setting	triclinic
loop_
_symmetry_equiv_pos_as_xyz
  x,y,z
_cell_length_a	27.732048
_cell_length_b	13.596369
_cell_length_c	14.519709
_cell_angle_alpha	90.006934
_cell_angle_beta	96.838600
_cell_angle_gamma	90.000164
loop_
_atom_site_label
_atom_site_type_symbol
_atom_site_fract_x
_atom_site_fract_y
_atom_site_fract_z
O1	O	0.641452	-0.081667	-0.109733
O2	O	1.141452	0.418333	0.390267
O3	O	0.500738	-0.081697	-0.126418
O4	O	1.000738	0.418303	0.373582
O5	O	0.574826	-0.081672	0.016228
O6	O	1.074826	0.418328	0.516228
O7	O	0.567364	-0.081692	-0.252379
O8	O	1.067364	0.418308	0.247621
O9	O	0.574819	0.081911	0.016236
O10	O	1.074819	0.581911	0.516236
O11	O	0.500731	0.081886	-0.126410
O12	O	1.000731	0.581886	0.373590
O13	O	0.641445	0.081916	-0.109725
O14	O	1.141445	0.581916	0.390275
Zn15	Zn	0.571087	0.107873	-0.118067
Zn16	Zn	1.071087	0.607873	0.381933
Zn17	Zn	0.571096	-0.107654	-0.118076
Zn18	Zn	1.071096	0.392346	0.381924
O19	O	0.567357	0.081891	-0.252371
O20	O	1.067357	0.581891	0.247629
C21	C	0.482726	0.000091	-0.126064
C22	C	0.982726	0.500091	0.373936
C23	C	0.429066	0.000080	-0.125009
C24	C	0.929066	0.500080	0.374991
N25	N	0.571084	0.254965	-0.118059
N26	N	1.071084	0.754965	0.381941
N27	N	0.571103	-0.254746	-0.118076
N28	N	1.071103	0.245254	0.381924
C29	C	0.090622	0.000117	-0.202664
C30	C	0.590622	0.500117	0.297336
C31	C	-0.111056	0.000126	-0.198751
C32	C	0.388944	0.500126	0.301249
O33	O	-0.141972	0.000163	-0.269761
O34	O	0.358028	0.500163	0.230239
N35	N	-0.130584	0.000130	-0.114168
N36	N	0.369416	0.500130	0.385832
C37	C	-0.099689	0.000139	-0.030557
C38	C	0.400311	0.500139	0.469443
O39	O	-0.120926	0.000153	0.041476
O40	O	0.379074	0.500153	0.541476
C41	C	0.101988	0.000137	-0.034471
C42	C	0.601988	0.500137	0.465529
C43	C	0.121513	0.000122	-0.119060
C44	C	0.621513	0.500122	0.380940
C45	C	0.110148	0.000103	-0.287246
C46	C	0.610148	0.500103	0.212754
C47	C	0.160564	0.000096	-0.288223
C48	C	0.660564	0.500096	0.211777
C49	C	0.191455	0.000101	-0.204619
C50	C	0.691455	0.500101	0.295381
C51	C	0.171930	0.000115	-0.120037
C52	C	0.671930	0.500115	0.379963
C53	C	0.132882	0.000152	0.049139
C54	C	0.632882	0.500152	0.549139
C55	C	0.183304	0.000154	0.048153
C56	C	0.683304	0.500154	0.548153
C57	C	0.202829	0.000140	-0.036436
C58	C	0.702829	0.500140	0.463564
C59	C	0.253238	0.000113	-0.037410
C60	C	0.753238	0.500113	0.462590
N61	N	0.272766	0.000108	-0.121993
N62	N	0.772766	0.500108	0.378007
C63	C	0.241875	0.000103	-0.205597
C64	C	0.741875	0.500103	0.294403
C65	C	-0.205573	0.000138	-0.028508
C66	C	0.294427	0.500138	0.471492
C67	C	-0.255992	0.000136	-0.027530
C68	C	0.244008	0.500136	0.472470
C69	C	-0.267356	0.000125	-0.195724
C70	C	0.232644	0.500125	0.304276
C71	C	-0.216936	0.000120	-0.196702
C72	C	0.283064	0.500120	0.303298
C73	C	-0.186045	0.000133	-0.113091
C74	C	0.313955	0.500133	0.386909
C75	C	0.347754	0.000086	-0.207643
C76	C	0.847754	0.500086	0.292357
C77	C	0.398175	0.000074	-0.208613
C78	C	0.898175	0.500074	0.291387
C79	C	0.409534	0.000090	-0.040420
C80	C	0.909534	0.500090	0.459580
C81	C	0.359117	0.000097	-0.039449
C82	C	0.859117	0.500097	0.460551
C83	C	0.328227	0.000098	-0.123069
C84	C	0.828227	0.500098	0.376931
O85	O	0.284182	0.000086	0.033562
O86	O	0.784182	0.500086	0.533562
O87	O	0.263121	0.000110	-0.277620
O88	O	0.763121	0.500110	0.222380
C89	C	0.040206	0.000124	-0.201687
C90	C	0.540206	0.500124	0.298313
C91	C	0.020680	0.000137	-0.117105
C92	C	0.520680	0.500137	0.382895
C93	C	0.051571	0.000143	-0.033501
C94	C	0.551571	0.500143	0.466499
C95	C	-0.029739	0.000136	-0.116126
C96	C	0.470261	0.500136	0.383874
C97	C	-0.060630	0.000131	-0.199731
C98	C	0.439370	0.500131	0.300269
C99	C	-0.041102	0.000126	-0.284314
C100	C	0.458898	0.500126	0.215686
C101	C	0.009315	0.000119	-0.285291
C102	C	0.509315	0.500119	0.214709
C103	C	0.032043	0.000147	0.051082
C104	C	0.532043	0.500147	0.551082
C105	C	-0.018374	0.000154	0.052053
C106	C	0.481626	0.500154	0.552053
C107	C	-0.049265	0.000148	-0.031552
C108	C	0.450735	0.500148	0.468448
C109	C	0.659457	0.000126	-0.110079
C110	C	1.159457	0.500126	0.389921
C111	C	0.713117	0.000131	-0.111134
C112	C	1.213117	0.500131	0.388866
C113	C	0.574475	0.000119	0.050586
C114	C	1.074475	0.500119	0.550586
C115	C	0.573433	0.000120	0.152949
C116	C	1.073433	0.500120	0.652949
C117	C	0.571096	0.656256	-0.118077
C118	C	1.071096	1.156256	0.381923
C119	C	0.571091	0.544605	-0.118075
C120	C	1.071091	1.044605	0.381925
C121	C	0.571090	0.455614	-0.118069
C122	C	1.071090	0.955614	0.381931
C123	C	0.571085	0.343956	-0.118066
C124	C	1.071085	0.843956	0.381934
C125	C	0.567708	0.000098	-0.286729
C126	C	1.067708	0.500098	0.213271
C127	C	0.568751	0.000091	-0.389092
C128	C	1.068751	0.500091	0.110908
C129	C	0.569596	0.000093	0.527778
C130	C	1.069596	0.500093	1.027778
C131	C	0.570662	0.000101	0.423488
C132	C	1.070662	0.500101	0.923488
C133	C	0.571514	0.000107	0.340367
C134	C	1.071514	0.500107	0.840367
C135	C	0.572580	0.000113	0.236071
C136	C	1.072580	0.500113	0.736071
H137	H	0.414069	0.000062	-0.277498
H138	H	0.914069	0.500062	0.222502
H139	H	-0.292516	0.000121	-0.263798
H140	H	0.207484	0.500121	0.236202
H141	H	0.085001	0.000102	-0.355330
H142	H	0.585001	0.500102	0.144670
N143	N	0.442860	0.000104	0.049746
N144	N	0.942860	0.500104	0.549746
H145	H	0.436572	0.060752	0.086679
H146	H	0.936572	0.560752	0.586679
H147	H	0.436559	-0.060568	0.086616
H148	H	0.936559	0.439432	0.586616
N149	N	0.030370	0.000097	-0.376526
N150	N	0.530370	0.500097	0.123474
H151	H	0.003144	0.000093	-0.429333
H152	H	0.503144	0.500093	0.070667
H153	H	0.051043	0.060735	-0.380604
H154	H	0.551043	0.560735	0.119396
H155	H	0.322609	0.000090	-0.275734
H156	H	0.822609	0.500090	0.224266
H157	H	-0.180425	0.000149	0.039581
H158	H	0.319575	0.500149	0.539581
N159	N	0.181620	0.000075	-0.379458
N160	N	0.681620	0.500075	0.120542
H161	H	0.154394	0.000073	-0.432265
H162	H	0.654394	0.500073	0.067735
H163	H	0.202293	0.060715	-0.383534
H164	H	0.702293	0.560715	0.116466
N165	N	-0.195878	0.000101	-0.287934
N166	N	0.304122	0.500101	0.212066
H167	H	-0.223102	0.000093	-0.340744
H168	H	0.276898	0.500093	0.159256
H169	H	-0.175207	0.060743	-0.292010
H170	H	0.324793	0.560743	0.207990
H171	H	-0.271885	0.000133	0.041351
H172	H	0.228115	0.500133	0.541351
H173	H	-0.066263	0.000118	-0.352387
H174	H	0.433737	0.500118	0.147613
H175	H	-0.034266	0.000158	0.120940
H176	H	0.465734	0.500158	0.620940
H177	H	0.116994	0.000165	0.118020
H178	H	0.616994	0.500165	0.618020
H179	H	0.208454	0.000166	0.116240
H180	H	0.708454	0.500166	0.616240
N181	N	0.338054	0.000093	0.051782
N182	N	0.838054	0.500093	0.551782
H183	H	0.365276	0.000091	0.104596
H184	H	0.865276	0.500091	0.604596
H185	H	0.317387	0.060742	0.055857
H186	H	0.817387	0.560742	0.555857
N187	N	0.065358	0.000160	0.141260
N188	N	0.565358	0.500160	0.641260
H189	H	0.045332	0.000166	0.194985
H190	H	0.545332	0.500166	0.694985
H191	H	0.086523	-0.060484	0.144522
H192	H	0.586523	0.439516	0.644522
