data_functionalizedCrystal
_audit_creation_method	'MofGen! by Chris Wilmer'
_symmetry_space_group_name_H-M	'P1'
_symmetry_Int_Tables_number	1
_symmetry_cell_setting	triclinic
loop_
_symmetry_equiv_pos_as_xyz
  x,y,z
_cell_length_a	10.968094
_cell_length_b	23.532357
_cell_length_c	9.482900
_cell_angle_alpha	99.268091
_cell_angle_beta	92.548310
_cell_angle_gamma	83.791000
loop_
_atom_site_label
_atom_site_type_symbol
_atom_site_fract_x
_atom_site_fract_y
_atom_site_fract_z
O1	O	1.608953	0.100485	0.282123
O2	O	1.259730	0.101738	0.194639
O3	O	1.444899	0.018445	0.241055
O4	O	1.423784	0.183778	0.235706
O5	O	1.407286	0.035434	0.473419
O6	O	1.222117	0.118727	0.427003
O7	O	1.571340	0.117475	0.514487
Cu8	Cu	1.393294	0.119653	0.491962
Cu9	Cu	1.437776	0.099560	0.217164
O10	O	1.386171	0.200768	0.468070
C11	C	1.196253	0.108858	0.299631
C12	C	1.063152	0.104757	0.266290
C13	C	0.846754	0.107485	0.337327
C14	C	0.984318	0.111729	0.371801
C15	C	1.425563	0.005710	0.357110
C16	C	1.423973	-0.057547	0.356725
C17	C	1.434515	-0.459075	0.227489
C18	C	1.433006	-0.518513	0.227103
O19	O	1.449621	-0.557126	0.119176
N20	N	1.411754	-0.538982	0.353575
C21	C	1.391998	-0.500009	0.480439
O22	O	1.373783	-0.522877	0.587978
C23	C	1.393499	-0.440572	0.480822
C24	C	1.414764	-0.420107	0.354344
C25	C	1.455776	-0.438610	0.101022
C26	C	1.457287	-0.379176	0.101409
C27	C	1.437536	-0.340208	0.228264
C28	C	1.416274	-0.360673	0.354732
C29	C	1.373734	-0.401600	0.607682
C30	C	1.375236	-0.342159	0.608053
C31	C	1.396500	-0.321695	0.481576
C32	C	1.398034	-0.262272	0.481974
N33	N	1.419286	-0.241803	0.355501
C34	C	1.439037	-0.280771	0.228647
C35	C	1.388847	-0.624831	0.479625
C36	C	1.387355	-0.684267	0.479246
C37	C	1.428360	-0.702768	0.225909
C38	C	1.429860	-0.643331	0.226292
C39	C	1.410098	-0.604362	0.353153
C40	C	1.442209	-0.155955	0.229470
C41	C	1.443724	-0.096516	0.229870
C42	C	1.402712	-0.078020	0.483204
C43	C	1.401204	-0.137455	0.482807
C44	C	1.420950	-0.176422	0.355927
O45	O	1.381424	-0.223624	0.589844
O46	O	1.457234	-0.257894	0.121122
C47	C	1.634817	0.110354	0.409491
C48	C	1.767920	0.114455	0.442824
C49	C	1.405507	0.213503	0.352013
C50	C	1.407099	0.276759	0.352389
N51	N	1.362017	0.133785	0.685241
N52	N	1.469063	0.085424	0.023887
C53	C	1.428542	0.103725	0.774117
C54	C	1.402528	0.115488	0.935013
H55	H	1.461043	-0.079857	0.126873
H56	H	1.018662	0.120836	0.487651
Cl57	Cl	1.244339	0.186961	0.751657
H58	H	1.028811	0.095648	0.150439
H59	H	0.802270	0.123562	0.558666
Cl60	Cl	1.467036	-0.204933	0.069963
H61	H	1.545277	0.050976	0.980867
H62	H	1.356420	-0.418251	0.710674
Cl63	Cl	1.284844	0.168666	1.001421
H64	H	1.504752	0.069280	0.731092
H65	H	0.812406	0.098372	0.221486
Cl66	Cl	1.484010	-0.353458	-0.057603
H67	H	1.471857	-0.470333	-0.002286
H68	H	1.447174	-0.626673	0.123302
Cl69	Cl	1.364012	-0.575848	0.639128
H70	H	1.383899	-0.154118	0.585798
Cl71	Cl	1.453180	-0.751767	0.066430
Cl72	Cl	1.350391	-0.293174	0.767547
Cl73	Cl	1.360644	-0.709988	0.638259
H74	H	1.386637	-0.046282	0.586488
