data_functionalizedCrystal
_audit_creation_method	'MofGen! by Chris Wilmer'
_symmetry_space_group_name_H-M	'P1'
_symmetry_Int_Tables_number	1
_symmetry_cell_setting	triclinic
loop_
_symmetry_equiv_pos_as_xyz
  x,y,z
_cell_length_a	16.956995
_cell_length_b	17.019294
_cell_length_c	16.053802
_cell_angle_alpha	88.688316
_cell_angle_beta	87.607939
_cell_angle_gamma	79.732750
loop_
_atom_site_label
_atom_site_type_symbol
_atom_site_fract_x
_atom_site_fract_y
_atom_site_fract_z
O1	O	1.061472	0.029046	-0.071575
O2	O	0.829379	0.056640	-0.073547
O3	O	0.951502	-0.071991	-0.064301
O4	O	0.939349	0.157677	-0.080821
O5	O	0.944780	-0.064938	0.074051
O6	O	0.822657	0.063693	0.064805
O7	O	1.054750	0.036099	0.066777
Zn8	Zn	0.937636	0.051016	0.087757
Zn9	Zn	0.946493	0.041723	-0.094527
O10	O	0.932627	0.164730	0.057531
C11	C	0.796313	0.061580	-0.004471
C12	C	0.707802	0.065780	-0.004769
C13	C	0.208577	0.097203	-0.007060
C14	C	0.291743	0.093250	-0.006775
C15	C	0.342657	0.019052	-0.001432
C16	C	0.310401	-0.051198	0.003618
C17	C	0.227237	-0.047245	0.003327
C18	C	0.592383	-0.000516	-0.000010
C19	C	0.675552	-0.004464	0.000283
C20	C	0.656888	0.139984	-0.010112
C21	C	0.573723	0.143931	-0.010397
C22	C	0.541475	0.073681	-0.005352
N23	N	0.427666	0.015010	-0.001138
N24	N	0.456467	0.077724	-0.005652
C25	C	0.947548	-0.097714	0.006977
C26	C	0.945770	-0.184869	0.013241
C27	C	0.948601	-0.229655	-0.059232
C28	C	0.946926	-0.311545	-0.053344
C29	C	0.942425	-0.348649	0.025018
C30	C	0.939592	-0.303857	0.097495
C31	C	0.941261	-0.221967	0.091606
C32	C	0.937195	-0.595710	0.046571
C33	C	0.935528	-0.677606	0.052455
C34	C	0.942861	-0.685289	-0.098385
C35	C	0.944535	-0.603398	-0.104267
C36	C	0.941697	-0.558612	-0.031789
C37	C	0.940715	-0.432355	0.031038
C38	C	0.943401	-0.474907	-0.037811
C39	C	1.087816	0.031159	-0.002300
C40	C	1.176327	0.026958	-0.002008
C41	C	0.936581	0.190453	-0.013749
C42	C	0.938359	0.277608	-0.020018
N43	N	0.931598	0.057357	0.212162
N44	N	0.952538	0.035376	-0.218931
C45	C	0.983580	0.002641	0.259789
C46	C	0.979363	0.007084	0.346876
C47	C	0.923168	0.066246	0.386335
C48	C	0.871179	0.120964	0.338702
C49	C	0.875393	0.116518	0.251616
C50	C	0.904763	0.085647	0.646350
C51	C	0.900555	0.090091	0.733442
C52	C	1.008739	-0.023791	0.741610
C53	C	1.012950	-0.028229	0.654523
C54	C	0.960959	0.026486	0.606897
N55	N	0.918858	0.070790	0.475352
N56	N	0.965266	0.021938	0.517882
H57	H	0.683154	0.197178	-0.014221
H58	H	0.200981	-0.104445	0.007439
O59	O	0.518811	0.223960	-0.016165
H60	H	0.477734	0.232094	0.039848
O61	O	0.153671	0.177235	-0.012821
H62	H	0.112595	0.185374	0.043192
H63	H	0.566137	-0.057718	0.004101
H64	H	0.862431	0.130201	0.607580
O65	O	0.949391	-0.563385	-0.188788
H66	H	0.950086	-0.498919	-0.180707
O67	O	1.044189	-0.061173	0.217231
H68	H	1.079620	-0.098479	0.264983
O69	O	0.810569	0.184781	0.381254
H70	H	0.816378	0.178688	0.449811
O71	O	0.819312	0.175524	0.200248
H72	H	0.831671	0.162483	0.133064
H73	H	0.717005	-0.064888	0.004630
H74	H	0.949234	-0.348007	-0.112359
H75	H	0.931859	-0.707813	0.116269
H76	H	0.854791	0.138272	0.765564
H77	H	0.945170	-0.721762	-0.157392
O78	O	0.326533	0.169011	-0.012223
H79	H	0.361238	0.173533	0.044046
O80	O	1.035444	-0.051917	0.398248
H81	H	1.075240	-0.093792	0.356178
O82	O	0.365310	-0.131228	0.009389
H83	H	0.428557	-0.122177	0.008754
O84	O	1.073561	-0.092049	0.611975
H85	H	1.134922	-0.085184	0.628249
O86	O	0.953449	-0.189635	-0.143751
H87	H	0.955126	-0.234536	-0.193155
O88	O	0.934155	-0.547413	0.124739
H89	H	0.930760	-0.586977	0.180216
H90	H	0.935922	-0.334073	0.161299
H91	H	0.938945	-0.185501	0.150621
O92	O	0.948249	-0.434890	-0.122327
H93	H	1.003974	-0.462983	-0.156610
O94	O	0.935874	-0.472388	0.115550
H95	H	0.880147	-0.444308	0.149838
O96	O	1.064806	-0.082810	0.792975
H97	H	1.052434	-0.069786	0.860161
