data_functionalizedCrystal
_audit_creation_method	'MofGen! by Chris Wilmer'
_symmetry_space_group_name_H-M	'P1'
_symmetry_Int_Tables_number	1
_symmetry_cell_setting	triclinic
loop_
_symmetry_equiv_pos_as_xyz
  x,y,z
_cell_length_a	29.839134
_cell_length_b	29.839131
_cell_length_c	14.909227
_cell_angle_alpha	86.671520
_cell_angle_beta	86.670229
_cell_angle_gamma	90.034165
loop_
_atom_site_label
_atom_site_type_symbol
_atom_site_fract_x
_atom_site_fract_y
_atom_site_fract_z
Zn1	Zn	0.701432	-0.164267	-0.510383
Zn2	Zn	1.034766	0.169067	-0.177050
Zn3	Zn	1.368099	0.502400	0.156283
Zn4	Zn	0.697015	-0.243735	-0.359509
Zn5	Zn	1.030349	0.089598	-0.026176
Zn6	Zn	1.363682	0.422932	0.307158
Zn7	Zn	0.621966	-0.168611	-0.359502
Zn8	Zn	0.955299	0.164723	-0.026169
Zn9	Zn	1.288632	0.498056	0.307164
Zn10	Zn	0.626260	-0.239364	-0.510294
Zn11	Zn	0.959594	0.093970	-0.176960
Zn12	Zn	1.292927	0.427303	0.156373
O13	O	0.661669	-0.203994	-0.434922
O14	O	0.995002	0.129339	-0.101589
O15	O	1.328335	0.462673	0.231745
O16	O	0.763715	-0.174820	-0.490410
O17	O	1.097048	0.158513	-0.157077
O18	O	1.430381	0.491847	0.176257
O19	O	0.683414	-0.237417	-0.233260
O20	O	1.016747	0.095916	0.100073
O21	O	1.350081	0.429250	0.433407
O22	O	0.632558	-0.105166	-0.379552
O23	O	0.965892	0.228167	-0.046218
O24	O	1.299225	0.561500	0.287115
O25	O	0.760470	-0.233205	-0.379563
O26	O	1.093803	0.100128	-0.046230
O27	O	1.427136	0.433462	0.287103
O28	O	0.690942	-0.101975	-0.490403
O29	O	1.024276	0.231358	-0.157070
O30	O	1.357609	0.564692	0.176263
O31	O	0.628275	-0.182223	-0.233255
O32	O	0.961609	0.151110	0.100078
O33	O	1.294942	0.484443	0.433412
O34	O	0.559667	-0.177985	-0.379465
O35	O	0.893001	0.155349	-0.046131
O36	O	1.226334	0.488682	0.287202
O37	O	0.639878	-0.225754	-0.636554
O38	O	0.973211	0.107579	-0.303220
O39	O	1.306545	0.440912	0.030113
O40	O	0.562822	-0.229966	-0.490250
O41	O	0.896156	0.103367	-0.156917
O42	O	1.229489	0.436700	0.176416
O43	O	0.695107	-0.170581	-0.636620
O44	O	1.028440	0.162752	-0.303286
O45	O	1.361773	0.496085	0.030047
O46	O	0.687578	-0.306023	-0.379476
O47	O	1.020912	0.027310	-0.046143
O48	O	1.354245	0.360643	0.287190
O49	O	0.635595	-0.302812	-0.490257
O50	O	0.968928	0.030522	-0.156924
O51	O	1.302262	0.363855	0.176410
C52	C	0.544944	-0.203973	-0.434847
C53	C	0.878277	0.129361	-0.101514
C54	C	1.211610	0.462694	0.231819
C55	C	0.495009	-0.203974	-0.434837
C56	C	0.828342	0.129359	-0.101504
C57	C	1.161676	0.462693	0.231830
C58	C	0.136772	-0.176881	-0.377354
C59	C	0.470106	0.156452	-0.044020
C60	C	0.803439	0.489786	0.289313
C61	C	0.324444	-0.176870	-0.377299
C62	C	0.657777	0.156463	-0.043966
C63	C	0.991110	0.489797	0.289368
O64	O	0.347303	-0.153799	-0.328341
O65	O	0.680637	0.179534	0.004993
O66	O	1.013970	0.512868	0.338326
N67	N	0.349565	-0.203980	-0.434882
N68	N	0.682899	0.129353	-0.101549
N69	N	1.016232	0.462687	0.231784
C70	C	0.327766	-0.231092	-0.492488
C71	C	0.661100	0.102241	-0.159154
C72	C	0.994433	0.435574	0.174179
O73	O	0.353440	-0.254147	-0.541471
O74	O	0.686773	0.079186	-0.208138
O75	O	1.020107	0.412520	0.125196
C76	C	0.140096	-0.231101	-0.492546
C77	C	0.473429	0.102233	-0.159213
C78	C	0.806762	0.435566	0.174120
C79	C	0.114976	-0.203992	-0.434953
C80	C	0.448310	0.129341	-0.101619
C81	C	0.781643	0.462674	0.231714
C82	C	0.111653	-0.149775	-0.319766
C83	C	0.444986	0.183559	0.013568
C84	C	0.778320	0.516892	0.346901
C85	C	0.064738	-0.149780	-0.319776
C86	C	0.398071	0.183554	0.013557
C87	C	0.731405	0.516887	0.346890
C88	C	0.042942	-0.176891	-0.377375
C89	C	0.376275	0.156442	-0.044042
C90	C	0.709609	0.489776	0.289291
C91	C	0.068061	-0.203997	-0.434964
C92	C	0.401395	0.129336	-0.101630
C93	C	0.734728	0.462669	0.231703
C94	C	0.118298	-0.258210	-0.550156
C95	C	0.451631	0.075123	-0.216822
C96	C	0.784964	0.408456	0.116511
C97	C	0.071377	-0.258209	-0.550167
C98	C	0.404710	0.075124	-0.216833
C99	C	0.738044	0.408458	0.116500
C100	C	0.046258	-0.231101	-0.492573
C101	C	0.379591	0.102232	-0.159240
C102	C	0.712924	0.435566	0.174094
C103	C	-0.000650	-0.231113	-0.492573
C104	C	0.332683	0.102220	-0.159240
C105	C	0.666017	0.435553	0.174093
N106	N	-0.025771	-0.204004	-0.434990
N107	N	0.307562	0.129330	-0.101657
N108	N	0.640895	0.462663	0.231677
C109	C	-0.003975	-0.176892	-0.377391
C110	C	0.329358	0.156441	-0.044058
C111	C	0.662691	0.489774	0.289276
C112	C	0.426296	-0.231087	-0.492452
C113	C	0.759629	0.102247	-0.159118
C114	C	1.092962	0.435580	0.174215
C115	C	0.473213	-0.231085	-0.492436
C116	C	0.806546	0.102248	-0.159103
C117	C	1.139880	0.435582	0.174231
C118	C	0.469888	-0.176862	-0.377248
C119	C	0.803221	0.156471	-0.043915
C120	C	1.136554	0.489804	0.289418
C121	C	0.422969	-0.176866	-0.377260
C122	C	0.756303	0.156467	-0.043927
C123	C	1.089636	0.489800	0.289407
C124	C	0.401174	-0.203977	-0.434868
C125	C	0.734508	0.129357	-0.101535
C126	C	1.067841	0.462690	0.231798
C127	C	-0.102500	-0.176905	-0.377417
C128	C	0.230833	0.156428	-0.044084
C129	C	0.564166	0.489762	0.289249
C130	C	-0.149420	-0.176914	-0.377431
C131	C	0.183914	0.156420	-0.044097
C132	C	0.517247	0.489753	0.289236
C133	C	-0.146090	-0.231135	-0.492621
C134	C	0.187243	0.102199	-0.159288
C135	C	0.520577	0.435532	0.174045
C136	C	-0.099175	-0.231128	-0.492605
C137	C	0.234158	0.102206	-0.159272
C138	C	0.567492	0.435539	0.174062
C139	C	-0.077381	-0.204009	-0.435000
C140	C	0.255952	0.129324	-0.101667
C141	C	0.589285	0.462657	0.231666
O142	O	-0.023539	-0.254168	-0.541513
O143	O	0.309794	0.079165	-0.208180
O144	O	0.643128	0.412498	0.125154
O145	O	-0.029657	-0.153833	-0.328429
O146	O	0.303677	0.179500	0.004904
O147	O	0.637010	0.512833	0.338238
C148	C	0.183687	-0.176876	-0.377343
C149	C	0.517021	0.156457	-0.044010
C150	C	0.850354	0.489790	0.289324
C151	C	0.208807	-0.203983	-0.434931
C152	C	0.542140	0.129351	-0.101598
C153	C	0.875473	0.462684	0.231736
C154	C	0.187011	-0.231094	-0.492530
C155	C	0.520344	0.102239	-0.159197
C156	C	0.853677	0.435573	0.174137
C157	C	0.255724	-0.203981	-0.434916
C158	C	0.589057	0.129352	-0.101582
C159	C	0.922391	0.462685	0.231751
C160	C	0.277520	-0.176870	-0.377317
C161	C	0.610853	0.156463	-0.043983
C162	C	0.944187	0.489797	0.289350
C163	C	0.252399	-0.149760	-0.319733
C164	C	0.585732	0.183573	0.013600
C165	C	0.919065	0.516907	0.346933
C166	C	0.205483	-0.149765	-0.319744
C167	C	0.538817	0.183568	0.013589
C168	C	0.872150	0.516902	0.346923
C169	C	0.212132	-0.258204	-0.550113
C170	C	0.545465	0.075130	-0.216780
C171	C	0.878799	0.408463	0.116553
C172	C	0.259047	-0.258197	-0.550097
C173	C	0.592380	0.075136	-0.216764
C174	C	0.925714	0.408470	0.116569
C175	C	0.280843	-0.231086	-0.492498
C176	C	0.614176	0.102248	-0.159165
C177	C	0.947510	0.435581	0.174168
C178	C	0.661586	-0.320718	-0.434877
C179	C	0.994919	0.012615	-0.101544
C180	C	1.328253	0.345949	0.231789
C181	C	0.661593	-0.370652	-0.434888
C182	C	0.994926	-0.037319	-0.101555
C183	C	1.328259	0.296015	0.231778
C184	C	0.688791	-0.681952	-0.377323
C185	C	1.022124	-0.348618	-0.043990
C186	C	1.355458	-0.015285	0.289344
C187	C	0.688847	-0.869624	-0.377358
C188	C	1.022181	-0.536290	-0.044025
C189	C	1.355514	-0.202957	0.289309
O190	O	0.711907	-0.895298	-0.328379
O191	O	1.045240	-0.561964	0.004954
O192	O	1.378573	-0.228631	0.338287
N193	N	0.661764	-0.891434	-0.434990
N194	N	0.995097	-0.558101	-0.101657
N195	N	1.328430	-0.224767	0.231677
C196	C	0.634666	-0.866323	-0.492622
C197	C	0.967999	-0.532990	-0.159289
C198	C	1.301333	-0.199657	0.174045
O199	O	0.611634	-0.889181	-0.541649
O200	O	0.944968	-0.555847	-0.208316
O201	O	1.278301	-0.222514	0.125018
C202	C	0.634612	-0.678652	-0.492591
C203	C	0.967946	-0.345319	-0.159257
C204	C	1.301279	-0.011985	0.174076
C205	C	0.661694	-0.656844	-0.434948
C206	C	0.995028	-0.323511	-0.101615
C207	C	1.328361	0.009822	0.231718
C208	C	0.715871	-0.660144	-0.319686
C209	C	1.049205	-0.326810	0.013647
C210	C	1.382538	0.006523	0.346981
C211	C	0.715855	-0.613229	-0.319674
C212	C	1.049188	-0.279895	0.013659
C213	C	1.382522	0.053438	0.346992
C214	C	0.688758	-0.588121	-0.377300
C215	C	1.022092	-0.254788	-0.043966
C216	C	1.355425	0.078545	0.289367
C217	C	0.661678	-0.609929	-0.434937
C218	C	0.995012	-0.276596	-0.101603
C219	C	1.328345	0.056737	0.231730
C220	C	0.607517	-0.653542	-0.550226
C221	C	0.940851	-0.320209	-0.216893
C222	C	1.274184	0.013125	0.116440
C223	C	0.607507	-0.606621	-0.550215
C224	C	0.940841	-0.273288	-0.216882
C225	C	1.274174	0.060045	0.116452
C226	C	0.634589	-0.584814	-0.492573
C227	C	0.967923	-0.251480	-0.159239
C228	C	1.301256	0.081853	0.174094
C229	C	0.634565	-0.537907	-0.492550
C230	C	0.967899	-0.204574	-0.159217
C231	C	1.301232	0.128760	0.174116
N232	N	0.661649	-0.516097	-0.434918
N233	N	0.994983	-0.182763	-0.101585
N234	N	1.328316	0.150570	0.231748
C235	C	0.688746	-0.541204	-0.377293
C236	C	1.022079	-0.207870	-0.043959
C237	C	1.355412	0.125463	0.289374
C238	C	0.634696	-0.964854	-0.492633
C239	C	0.968029	-0.631520	-0.159300
C240	C	1.301362	-0.298187	0.174034
C241	C	0.634708	-1.011771	-0.492640
C242	C	0.968042	-0.678438	-0.159306
C243	C	1.301375	-0.345105	0.174027
C244	C	0.688890	-1.015068	-0.377377
C245	C	1.022224	-0.681735	-0.044043
C246	C	1.355557	-0.348402	0.289290
C247	C	0.688875	-0.968150	-0.377366
C248	C	1.022208	-0.634817	-0.044033
C249	C	1.355542	-0.301483	0.289301
C250	C	0.661779	-0.943043	-0.435001
C251	C	0.995113	-0.609710	-0.101667
C252	C	1.328446	-0.276377	0.231666
C253	C	0.688709	-0.442679	-0.377272
C254	C	1.022043	-0.109345	-0.043939
C255	C	1.355376	0.223988	0.289395
C256	C	0.688689	-0.395759	-0.377263
C257	C	1.022023	-0.062426	-0.043930
C258	C	1.355356	0.270907	0.289404
C259	C	0.634509	-0.392466	-0.492529
C260	C	0.967843	-0.059133	-0.159196
C261	C	1.301176	0.274200	0.174138
C262	C	0.634527	-0.439382	-0.492535
C263	C	0.967861	-0.106048	-0.159202
C264	C	1.301194	0.227285	0.174132
C265	C	0.661631	-0.464487	-0.434904
C266	C	0.994964	-0.131153	-0.101570
C267	C	1.328298	0.202180	0.231763
O268	O	0.611522	-0.512205	-0.541511
O269	O	0.944855	-0.178871	-0.208177
O270	O	1.278189	0.154462	0.125156
O271	O	0.711781	-0.518338	-0.328287
O272	O	1.045115	-0.185005	0.005046
O273	O	1.378448	0.148329	0.338380
C274	C	0.688807	-0.728867	-0.377335
C275	C	1.022140	-0.395533	-0.044001
C276	C	1.355474	-0.062200	0.289332
C277	C	0.661727	-0.750675	-0.434972
C278	C	0.995060	-0.417341	-0.101638
C279	C	1.328394	-0.084008	0.231695
C280	C	0.634630	-0.725567	-0.492597
C281	C	0.967964	-0.392234	-0.159264
C282	C	1.301297	-0.058901	0.174070
C283	C	0.661740	-0.797592	-0.434978
C284	C	0.995073	-0.464259	-0.101645
C285	C	1.328406	-0.130926	0.231688
C286	C	0.688836	-0.822700	-0.377353
C287	C	1.022169	-0.489366	-0.044020
C288	C	1.355503	-0.156033	0.289314
C289	C	0.715920	-0.800889	-0.319721
C290	C	1.049253	-0.467556	0.013612
C291	C	1.382587	-0.134222	0.346946
C292	C	0.715904	-0.753974	-0.319709
C293	C	1.049237	-0.420641	0.013624
C294	C	1.382570	-0.087307	0.346957
C295	C	0.607547	-0.747378	-0.550229
C296	C	0.940880	-0.414044	-0.216896
C297	C	1.274213	-0.080711	0.116437
C298	C	0.607565	-0.794293	-0.550235
C299	C	0.940898	-0.460960	-0.216902
C300	C	1.274231	-0.127626	0.116431
C301	C	0.634661	-0.819400	-0.492610
C302	C	0.967995	-0.486067	-0.159277
C303	C	1.301328	-0.152734	0.174057
C304	C	0.778849	-0.204016	-0.434998
C305	C	1.112182	0.129318	-0.101664
C306	C	1.445516	0.462651	0.231669
C307	C	0.828784	-0.204025	-0.435030
C308	C	1.162118	0.129309	-0.101696
C309	C	1.495451	0.462642	0.231637
C310	C	0.668464	-0.197196	-0.670237
C311	C	1.001797	0.136138	-0.336903
C312	C	1.335131	0.469471	-0.003570
C313	C	0.671360	-0.194299	-0.770514
C314	C	1.004693	0.139035	-0.437180
C315	C	1.338027	0.472368	-0.103847
C316	C	0.661764	-0.086814	-0.434987
C317	C	0.995097	0.246520	-0.101653
C318	C	1.328431	0.579853	0.231680
C319	C	0.661805	-0.036879	-0.435014
C320	C	0.995138	0.296455	-0.101681
C321	C	1.328471	0.629788	0.231652
C322	C	0.704193	-0.161493	-0.911885
C323	C	1.037526	0.171841	-0.578552
C324	C	1.370859	0.505174	-0.245218
C325	C	0.701474	-0.164213	-0.817666
C326	C	1.034808	0.169120	-0.484333
C327	C	1.368141	0.502454	-0.150999
C328	C	0.643963	-0.221667	-0.817587
C329	C	0.977297	0.111667	-0.484254
C330	C	1.310630	0.445000	-0.150921
C331	C	0.646682	-0.218947	-0.911806
C332	C	0.980015	0.114387	-0.578473
C333	C	1.313349	0.447720	-0.245140
C334	C	0.676797	-0.188858	-0.958952
C335	C	1.010130	0.144475	-0.625619
C336	C	1.343464	0.477809	-0.292285
C337	C	0.679513	-0.186136	-1.053173
C338	C	1.012847	0.147198	-0.719840
C339	C	1.346180	0.480531	-0.386506
C340	C	0.622005	-0.243591	-1.053093
C341	C	0.955338	0.089742	-0.719759
C342	C	1.288671	0.423075	-0.386426
C343	C	0.619286	-0.246312	-0.958873
C344	C	0.952620	0.087022	-0.625540
C345	C	1.285953	0.420355	-0.292207
C346	C	0.654925	-0.210733	-0.200523
C347	C	0.988259	0.122600	0.132810
C348	C	1.321592	0.455933	0.466144
C349	C	0.652116	-0.213504	-0.100247
C350	C	0.985450	0.119829	0.233087
C351	C	1.318783	0.453163	0.566420
H352	H	0.487642	-0.154788	-0.330348
H353	H	0.820975	0.178546	0.002985
H354	H	1.154308	0.511879	0.336319
Br355	Br	0.738658	-0.127075	-0.753791
Br356	Br	1.071991	0.206258	-0.420458
Br357	Br	1.405324	0.539591	-0.087124
H358	H	0.408555	-0.253165	-0.539365
H359	H	0.741888	0.080168	-0.206032
H360	H	1.075222	0.413502	0.127302
H361	H	0.053634	-0.280285	-0.597082
H362	H	0.386968	0.053049	-0.263749
H363	H	0.720301	0.386382	0.069584
H364	H	0.704033	-0.161634	-1.091558
H365	H	1.037366	0.171699	-0.758224
H366	H	1.370699	0.505033	-0.424891
Br367	Br	0.752691	-0.834973	-0.241512
Br368	Br	1.086025	-0.501639	0.091822
Br369	Br	1.419358	-0.168306	0.425155
Br370	Br	0.281988	-0.112969	-0.241560
Br371	Br	0.615321	0.220364	0.091774
Br372	Br	0.948655	0.553698	0.425107
Br373	Br	0.745048	-0.120646	-0.975873
Br374	Br	1.078381	0.212688	-0.642540
Br375	Br	1.411714	0.546021	-0.309206
H376	H	0.710743	-0.378005	-0.330320
H377	H	1.044076	-0.044672	0.003013
H378	H	1.377409	0.288662	0.336346
Br379	Br	0.603098	-0.262500	-0.753589
Br380	Br	0.936431	0.070833	-0.420255
Br381	Br	1.269765	0.404167	-0.086922
Br382	Br	-0.175680	-0.267934	-0.570773
Br383	Br	0.157654	0.065399	-0.237440
Br384	Br	0.490987	0.398733	0.095893
Br385	Br	0.597946	-1.041362	-0.570859
Br386	Br	0.931279	-0.708029	-0.237525
Br387	Br	1.264612	-0.374695	0.095808
H388	H	0.612630	-0.944415	-0.539567
H389	H	0.945963	-0.611081	-0.206234
H390	H	1.279297	-0.277748	0.127099
Br391	Br	0.578418	-0.287145	-0.894882
Br392	Br	0.911751	0.046189	-0.561549
Br393	Br	1.245085	0.379522	-0.228215
H394	H	0.599692	-0.265870	-1.091424
H395	H	0.933026	0.067464	-0.758091
H396	H	1.266359	0.400797	-0.424758
H397	H	-0.169870	-0.154838	-0.330529
H398	H	0.163463	0.178495	0.002805
H399	H	0.496797	0.511829	0.336138
H400	H	-0.084762	-0.154820	-0.330514
H401	H	0.248572	0.178513	0.002819
H402	H	0.581905	0.511846	0.336152
Br403	Br	0.725493	-0.476742	-0.299058
Br404	Br	1.058826	-0.143409	0.034276
Br405	Br	1.392160	0.189924	0.367609
Br406	Br	0.570766	-0.683126	-0.628470
Br407	Br	0.904099	-0.349793	-0.295137
Br408	Br	1.237432	-0.016459	0.038196
Br409	Br	0.725662	-1.049151	-0.299168
Br410	Br	1.058996	-0.715818	0.034165
Br411	Br	1.392329	-0.382485	0.367499
Br412	Br	0.182560	-0.295001	-0.628292
Br413	Br	0.515893	0.038332	-0.294959
Br414	Br	0.849226	0.371665	0.038375
H415	H	0.185035	-0.127690	-0.272846
H416	H	0.518369	0.205643	0.060487
H417	H	0.851702	0.538976	0.393821
H418	H	0.493661	-0.253164	-0.539325
H419	H	0.826995	0.080169	-0.205991
H420	H	1.160328	0.413502	0.127342
Br421	Br	0.597739	-0.358383	-0.570735
Br422	Br	0.931072	-0.025050	-0.237401
Br423	Br	1.264406	0.308284	0.095932
Br424	Br	0.141224	-0.112974	-0.241588
Br425	Br	0.474558	0.220359	0.091746
Br426	Br	0.807891	0.553693	0.425079
Br427	Br	0.030655	-0.112983	-0.241618
Br428	Br	0.363988	0.220350	0.091715
Br429	Br	0.697322	0.553684	0.425048
Br430	Br	0.752618	-0.583640	-0.241454
Br431	Br	1.085952	-0.250306	0.091879
Br432	Br	1.419285	0.083027	0.425213
H433	H	0.402520	-0.154791	-0.330365
H434	H	0.735853	0.178543	0.002968
H435	H	1.069187	0.511876	0.336301
Br436	Br	-0.065084	-0.267924	-0.570756
Br437	Br	0.268250	0.065409	-0.237423
Br438	Br	0.601583	0.398743	0.095910
Br439	Br	0.570734	-0.572551	-0.628442
Br440	Br	0.904068	-0.239217	-0.295108
Br441	Br	1.237401	0.094116	0.038225
H442	H	0.612476	-0.457138	-0.539475
H443	H	0.945810	-0.123805	-0.206142
H444	H	1.279143	0.209529	0.127192
H445	H	0.737956	-0.736222	-0.272772
H446	H	1.071290	-0.402888	0.060562
H447	H	1.404623	-0.069555	0.393895
H448	H	0.279495	-0.280276	-0.596995
H449	H	0.612829	0.053057	-0.263662
H450	H	0.946162	0.386391	0.069671
Br451	Br	0.725630	-0.938559	-0.299134
Br452	Br	1.058963	-0.605226	0.034200
Br453	Br	1.392297	-0.271892	0.367533
Br454	Br	0.752651	-0.694209	-0.241471
Br455	Br	1.085985	-0.360876	0.091862
Br456	Br	1.419318	-0.027543	0.425196
Br457	Br	0.570805	-0.823883	-0.628470
Br458	Br	0.904139	-0.490550	-0.295136
Br459	Br	1.237472	-0.157217	0.038197
H460	H	0.138742	-0.280285	-0.597054
H461	H	0.472075	0.053048	-0.263721
H462	H	0.805409	0.386382	0.069613
H463	H	0.585482	-0.726939	-0.597156
H464	H	0.918815	-0.393606	-0.263823
H465	H	1.252149	-0.060272	0.069511
