data_functionalizedCrystal
_audit_creation_method	'MofGen! by Chris Wilmer'
_symmetry_space_group_name_H-M	'P1'
_symmetry_Int_Tables_number	1
_symmetry_cell_setting	triclinic
loop_
_symmetry_equiv_pos_as_xyz
  x,y,z
_cell_length_a	13.897449
_cell_length_b	19.077356
_cell_length_c	19.076919
_cell_angle_alpha	90.107245
_cell_angle_beta	87.717932
_cell_angle_gamma	92.300597
loop_
_atom_site_label
_atom_site_type_symbol
_atom_site_fract_x
_atom_site_fract_y
_atom_site_fract_z
Zn1	Zn	1.437234	-0.295705	0.386105
Zn2	Zn	1.937234	0.204295	0.886105
Zn3	Zn	1.437704	-0.408494	0.263901
Zn4	Zn	1.937704	0.091506	0.763901
Zn5	Zn	1.282662	-0.291007	0.268614
Zn6	Zn	1.782662	0.208993	0.768614
Zn7	Zn	1.269743	-0.413179	0.381372
Zn8	Zn	1.769743	0.086821	0.881372
O9	O	1.356836	-0.352096	0.324998
O10	O	1.856836	0.147904	0.824998
O11	O	1.572277	-0.310672	0.369903
O12	O	2.072277	0.189328	0.869903
O13	O	1.422740	-0.388983	0.166194
O14	O	1.922740	0.111017	0.666194
O15	O	1.308376	-0.193298	0.288153
O16	O	1.808376	0.306702	0.788153
O17	O	1.572622	-0.393538	0.280121
O18	O	2.072622	0.106462	0.780121
O19	O	1.421939	-0.196749	0.374473
O20	O	1.921939	0.303251	0.874473
O21	O	1.308832	-0.302665	0.169657
O22	O	1.808832	0.197335	0.669657
O23	O	1.145967	-0.307207	0.283563
O24	O	1.645967	0.192793	0.783563
O25	O	1.286358	-0.401522	0.480332
O26	O	1.786358	0.098478	0.980332
O27	O	1.136476	-0.396967	0.366405
O28	O	1.636476	0.103033	0.866405
O29	O	1.409412	-0.315215	0.483809
O30	O	1.909412	0.184785	0.983809
O31	O	1.410214	-0.507448	0.275530
O32	O	1.910214	-0.007448	0.775530
O33	O	1.286814	-0.510890	0.361835
O34	O	1.786814	-0.010890	0.861835
C35	C	1.106223	-0.352086	0.324982
C36	C	1.606223	0.147914	0.824982
C37	C	0.999008	-0.352099	0.324992
C38	C	1.499008	0.147901	0.824992
C39	C	1.366546	-0.168814	0.332367
C40	C	1.866546	0.331186	0.832367
C41	C	1.370684	-0.090710	0.335507
C42	C	1.870684	0.409290	0.835507
C43	C	1.347188	-0.534666	0.317673
C44	C	1.847188	-0.034666	0.817673
C45	C	1.343148	-0.612771	0.314563
C46	C	1.843148	-0.112771	0.814563
C47	C	0.802711	-0.352103	0.325010
C48	C	1.302711	0.147897	0.825010
C49	C	0.911945	-0.352099	0.324998
C50	C	1.411945	0.147901	0.824998
C51	C	1.608427	-0.352107	0.325014
C52	C	2.108427	0.147893	0.825014
C53	C	1.715640	-0.352111	0.325021
C54	C	2.215640	0.147889	0.825021
C55	C	1.346392	-0.359415	0.508280
C56	C	1.846392	0.140585	1.008280
C57	C	1.341941	-0.362534	0.586384
C58	C	1.841941	0.137466	1.086384
C59	C	1.313506	-0.052219	0.292042
C60	C	1.813506	0.447781	0.792042
C61	C	1.317392	0.021168	0.295000
C62	C	1.817392	0.521168	0.795000
C63	C	1.378462	0.056061	0.341420
C64	C	1.878462	0.556061	0.841420
C65	C	1.435643	0.017565	0.384890
C66	C	1.935643	0.517565	0.884890
C67	C	1.431751	-0.055821	0.381935
C68	C	1.931751	0.444179	0.881935
C69	C	1.396437	0.275347	0.355079
C70	C	1.896437	0.775347	0.855079
C71	C	1.400326	0.348738	0.358028
C72	C	1.900326	0.848738	0.858028
C73	C	1.282074	0.352336	0.268139
C74	C	1.782074	0.852336	0.768139
C75	C	1.278192	0.278949	0.265185
C76	C	1.778192	0.778949	0.765185
C77	C	1.335368	0.240458	0.308658
C78	C	1.835368	0.740458	0.808658
N79	N	1.382438	0.131074	0.344442
N80	N	1.882438	0.631074	0.844442
N81	N	1.331387	0.165447	0.305638
N82	N	1.831387	0.665447	0.805638
C83	C	1.367297	-0.344755	0.142431
C84	C	1.867297	0.155245	0.642431
C85	C	1.371945	-0.341438	0.064336
C86	C	1.871945	0.158562	0.564336
C87	C	1.403915	-0.319065	0.624889
C88	C	1.903915	0.180935	1.124889
C89	C	1.399721	-0.321993	0.698276
C90	C	1.899721	0.178007	1.198276
C91	C	1.333558	-0.368393	0.733156
C92	C	1.833558	0.131607	1.233156
C93	C	1.271578	-0.411864	0.694646
C94	C	1.771578	0.088136	1.194646
C95	C	1.275767	-0.408932	0.621260
C96	C	1.775767	0.091068	1.121260
C97	C	1.314154	-0.381977	0.952440
C98	C	1.814154	0.118023	1.452440
C99	C	1.309971	-0.384907	1.025831
C100	C	1.809971	0.115093	1.525831
C101	C	1.438114	-0.295035	1.029456
C102	C	1.938114	0.204965	1.529456
C103	C	1.442302	-0.292110	0.956069
C104	C	1.942302	0.207890	1.456069
C105	C	1.380318	-0.335578	0.917565
C106	C	1.880318	0.164422	1.417565
N107	N	1.329272	-0.371389	0.808169
N108	N	1.829272	0.128611	1.308169
N109	N	1.384600	-0.332578	0.842554
N110	N	1.884600	0.167422	1.342554
H111	H	1.263779	-0.080624	0.254239
H112	H	1.763779	0.419376	0.754239
O113	O	1.247277	-0.428860	0.910940
O114	O	1.747277	0.071140	1.410940
H115	H	1.290427	-0.463289	0.876061
H116	H	1.790427	0.036711	1.376061
H117	H	1.496181	-0.254328	0.927674
H118	H	1.996181	0.245672	1.427674
H119	H	1.270832	0.052507	0.259607
H120	H	1.770832	0.552507	0.759607
H121	H	1.225292	-0.444321	0.589910
H122	H	1.725292	0.055679	1.089910
H123	H	1.488576	-0.259645	1.060814
H124	H	1.988576	0.240355	1.560814
H125	H	1.443005	0.244017	0.390469
H126	H	1.943005	0.744017	0.890469
H127	H	1.217703	-0.449641	0.723051
H128	H	1.717703	0.050359	1.223051
O129	O	1.220404	0.393855	0.221259
O130	O	1.720404	0.893855	0.721259
H131	H	1.239350	0.381977	0.165543
H132	H	1.739350	0.881977	0.665543
H133	H	1.485364	0.045979	0.422690
H134	H	1.985364	0.545979	0.922690
O135	O	1.212322	0.241314	0.215118
O136	O	1.712322	0.741314	0.715118
H137	H	1.136676	0.254917	0.227735
H138	H	1.636676	0.754917	0.727735
O139	O	1.466187	0.386378	0.408105
O140	O	1.966187	0.886378	0.908105
H141	H	1.505284	0.347284	0.437845
H142	H	2.005284	0.847284	0.937845
H143	H	1.478304	-0.087160	0.417335
H144	H	1.978304	0.412840	0.917335
O145	O	1.475277	-0.269019	0.587268
O146	O	1.975277	0.230981	1.087268
H147	H	1.517659	-0.239280	0.626376
H148	H	2.017659	0.260720	1.126376
H149	H	1.450189	-0.286598	0.729623
H150	H	1.950189	0.213402	1.229623
O151	O	1.238601	-0.434950	1.063457
O152	O	1.738601	0.065050	1.563457
H153	H	1.196195	-0.464679	1.024355
H154	H	1.696195	0.035321	1.524355
