data_functionalizedCrystal
_audit_creation_method	'MofGen! by Chris Wilmer'
_symmetry_space_group_name_H-M	'P1'
_symmetry_Int_Tables_number	1
_symmetry_cell_setting	triclinic
loop_
_symmetry_equiv_pos_as_xyz
  x,y,z
_cell_length_a	19.288864
_cell_length_b	14.519709
_cell_length_c	18.366186
_cell_angle_alpha	89.992822
_cell_angle_beta	89.977106
_cell_angle_gamma	83.408195
loop_
_atom_site_label
_atom_site_type_symbol
_atom_site_fract_x
_atom_site_fract_y
_atom_site_fract_z
O1	O	0.921767	0.115045	-0.060785
O2	O	1.421767	0.615045	0.439215
O3	O	0.719562	0.130564	-0.060735
O4	O	1.219562	0.630564	0.439265
O5	O	0.826026	-0.011468	-0.060755
O6	O	1.326026	0.488532	0.439245
O7	O	0.815303	0.257077	-0.060765
O8	O	1.315303	0.757077	0.439235
O9	O	0.826007	-0.011475	0.060345
O10	O	1.326007	0.488525	0.560345
O11	O	0.719544	0.130557	0.060364
O12	O	1.219544	0.630557	0.560364
O13	O	0.921749	0.115038	0.060315
O14	O	1.421749	0.615038	0.560315
Zn15	Zn	0.820643	0.122797	0.079567
Zn16	Zn	1.320643	0.622797	0.579567
Zn17	Zn	0.820667	0.122806	-0.079987
Zn18	Zn	1.320667	0.622806	0.420013
O19	O	0.815285	0.257070	0.060334
O20	O	1.315285	0.757070	0.560334
C21	C	0.693675	0.130061	-0.000179
C22	C	1.193675	0.630061	0.499821
C23	C	0.616566	0.128562	-0.000160
C24	C	1.116566	0.628562	0.499840
C25	C	0.572169	0.211900	-0.000175
C26	C	1.072169	0.711900	0.499825
C27	C	0.499717	0.210492	-0.000183
C28	C	0.999717	0.710492	0.499817
C29	C	0.471665	0.125741	-0.000191
C30	C	0.971665	0.625741	0.499809
C31	C	0.516071	0.042392	-0.000172
C32	C	1.016071	0.542392	0.499828
C33	C	0.588521	0.043803	-0.000156
C34	C	1.088521	0.543803	0.499844
C35	C	0.363169	0.059120	-0.042639
C36	C	0.863169	0.559120	0.457361
C37	C	0.290720	0.057713	-0.042659
C38	C	0.790720	0.557713	0.457341
C39	C	0.248203	0.121387	-0.000234
C40	C	0.748203	0.621387	0.499766
C41	C	0.278144	0.186484	0.042200
C42	C	0.778144	0.686484	0.542200
C43	C	0.350595	0.187894	0.042215
C44	C	0.850595	0.687894	0.542215
C45	C	0.393105	0.124202	-0.000207
C46	C	0.893105	0.624202	0.499793
C47	C	0.125246	0.203203	-0.000257
C48	C	0.625246	0.703203	0.499743
C49	C	0.052792	0.201792	-0.000260
C50	C	0.552792	0.701792	0.499740
C51	C	0.069148	0.033689	-0.000257
C52	C	0.569148	0.533689	0.499743
C53	C	0.141599	0.035103	-0.000246
C54	C	0.641599	0.535103	0.499754
C55	C	0.169644	0.119863	-0.000249
C56	C	0.669644	0.619863	0.499751
C57	C	0.825517	-0.045828	-0.000205
C58	C	1.325517	0.454172	0.499795
C59	C	0.824019	-0.148200	-0.000204
C60	C	1.324019	0.351800	0.499796
C61	C	0.818507	-0.523061	-0.000222
C62	C	1.318507	-0.023061	0.499778
C63	C	0.820037	-0.418762	-0.000216
C64	C	1.320037	0.081238	0.499784
C65	C	0.821263	-0.335633	-0.000212
C66	C	1.321263	0.164367	0.499788
C67	C	0.822794	-0.231329	-0.000208
C68	C	1.322794	0.268671	0.499792
C69	C	0.947636	0.115541	-0.000243
C70	C	1.447636	0.615541	0.499757
C71	C	1.024745	0.117040	-0.000267
C72	C	1.524745	0.617040	0.499733
C73	C	0.815794	0.291430	-0.000217
C74	C	1.315794	0.791430	0.499783
C75	C	0.817291	0.393802	-0.000223
C76	C	1.317291	0.893802	0.499777
N77	N	0.820632	0.122790	0.188458
N78	N	1.320632	0.622790	0.688458
N79	N	0.820684	0.122805	-0.188878
N80	N	1.320684	0.622805	0.311122
C81	C	0.867790	0.059929	0.226549
C82	C	1.367790	0.559929	0.726549
C83	C	0.867794	0.059925	0.302777
C84	C	1.367794	0.559925	0.802777
C85	C	0.820648	0.122797	0.340910
C86	C	1.320648	0.622797	0.840910
C87	C	0.773481	0.185663	0.302809
C88	C	1.273481	0.685663	0.802809
C89	C	0.773473	0.185659	0.226583
C90	C	1.273473	0.685659	0.726583
C91	C	0.811652	0.206826	0.461669
C92	C	1.311652	0.706826	0.961669
C93	C	0.811664	0.206831	0.537894
C94	C	1.311664	0.706831	1.037894
C95	C	0.820667	0.122809	0.576018
C96	C	1.320667	0.622809	1.076018
C97	C	0.829673	0.038778	0.537908
C98	C	1.329673	0.538778	1.037908
C99	C	0.829665	0.038775	0.461681
C100	C	1.329665	0.538775	0.961681
C101	C	0.820650	0.122808	0.423565
C102	C	1.320650	0.622808	0.923565
C103	C	0.867832	0.059938	0.696765
C104	C	1.367832	0.559938	1.196765
C105	C	0.867832	0.059933	0.772994
C106	C	1.367832	0.559933	1.272994
C107	C	0.773522	0.185679	0.773025
C108	C	1.273522	0.685679	1.273025
C109	C	0.773519	0.185677	0.696797
C110	C	1.273519	0.685677	1.196797
C111	C	0.820678	0.122807	0.658671
C112	C	1.320678	0.622807	1.158671
H113	H	0.374969	0.240896	0.076770
H114	H	0.874969	0.740896	0.576770
C115	C	0.721661	0.254838	0.814962
C116	C	1.221661	0.754838	1.314962
H117	H	0.728422	0.245842	0.865816
H118	H	1.228422	0.745842	1.365816
H119	H	0.675295	0.244980	0.802494
H120	H	1.175295	0.744980	1.302494
H121	H	0.729282	0.316365	0.802458
H122	H	1.229282	0.816365	1.302458
H123	H	0.594998	0.280918	-0.000179
H124	H	1.094998	0.780918	0.499821
C125	C	0.257791	-0.013893	-0.089331
C126	C	0.757791	0.486107	0.410669
H127	H	0.293489	-0.051625	-0.114584
H128	H	0.793489	0.448375	0.385416
H129	H	0.226446	0.017433	-0.123457
H130	H	0.726446	0.517433	0.376543
H131	H	0.233135	-0.051679	-0.058739
H132	H	0.733135	0.448321	0.441261
H133	H	0.735092	0.236854	0.333861
H134	H	1.235092	0.736854	0.833861
C135	C	0.450872	0.302167	-0.000210
C136	C	0.950872	0.802167	0.499790
H137	H	0.477951	0.352848	-0.000216
H138	H	0.977951	0.852848	0.499784
H139	H	0.422239	0.305119	0.042010
H140	H	0.922239	0.805119	0.542010
H141	H	0.422300	0.305098	-0.042456
H142	H	0.922300	0.805098	0.457544
C143	C	0.721653	0.254835	0.654894
C144	C	1.221653	0.754835	1.154894
H145	H	0.693578	0.292285	0.688520
H146	H	1.193578	0.792285	1.188520
H147	H	0.692698	0.221759	0.625176
H148	H	1.192698	0.721759	1.125176
H149	H	0.746687	0.293142	0.625142
H150	H	1.246687	0.793142	1.125142
H151	H	0.624670	-0.024063	-0.000145
H152	H	1.124670	0.475937	0.499855
H153	H	0.906197	0.008734	0.333797
H154	H	1.406197	0.508734	0.833797
C155	C	0.839581	-0.053653	0.579830
C156	C	1.339581	0.446347	1.079830
H157	H	0.844949	-0.103695	0.546217
H158	H	1.344949	0.396305	1.046217
H159	H	0.799894	-0.058642	0.609588
H160	H	1.299894	0.441358	1.109588
H161	H	0.880029	-0.055649	0.609544
H162	H	1.380029	0.444351	1.109544
H163	H	0.243528	0.238333	0.076747
H164	H	0.743528	0.738333	0.576747
C165	C	0.409934	-0.010926	-0.089306
C166	C	0.909934	0.489074	0.410694
H167	H	0.457371	-0.000770	-0.083214
H168	H	0.957371	0.499230	0.416786
H169	H	0.397301	-0.003051	-0.139094
H170	H	0.897301	0.496949	0.360906
H171	H	0.403987	-0.072176	-0.074385
H172	H	0.903987	0.427824	0.425615
C173	C	0.485216	-0.050831	-0.000185
C174	C	0.985216	0.449169	0.499815
H175	H	0.435708	-0.039736	-0.000204
H176	H	0.935708	0.460264	0.499796
H177	H	0.500423	-0.085139	0.042048
H178	H	1.000423	0.414861	0.542048
H179	H	0.500475	-0.085128	-0.042417
H180	H	1.000475	0.414872	0.457583
C181	C	0.156098	0.296433	-0.000253
C182	C	0.656098	0.796433	0.499747
H183	H	0.119277	0.345866	-0.000253
H184	H	0.619277	0.845866	0.499747
H185	H	0.184042	0.300481	-0.042479
H186	H	0.684042	0.800481	0.457521
H187	H	0.183999	0.300473	0.041986
H188	H	0.683999	0.800473	0.541986
C189	C	0.919655	-0.009235	0.184615
C190	C	1.419655	0.490765	0.684615
H191	H	0.947737	-0.046679	0.218224
H192	H	1.447737	0.453321	0.718224
H193	H	0.948604	0.023837	0.154856
H194	H	1.448604	0.523837	0.654856
H195	H	0.894615	-0.047547	0.154902
H196	H	1.394615	0.452453	0.654902
H197	H	0.016645	0.269658	-0.000268
H198	H	0.516645	0.769658	0.499732
H199	H	0.046308	-0.035317	-0.000308
H200	H	0.546308	0.464683	0.499692
C201	C	0.190440	-0.056567	-0.000240
C202	C	0.690440	0.443433	0.499760
H203	H	0.237606	-0.043589	-0.000226
H204	H	0.737606	0.456411	0.499774
H205	H	0.181950	-0.091329	-0.042472
H206	H	0.681950	0.408671	0.457528
H207	H	0.181903	-0.091334	0.041993
H208	H	0.681903	0.408666	0.541993
H209	H	0.836995	-0.029646	0.430655
H210	H	1.336995	0.470354	0.930655
C211	C	0.919693	-0.009224	0.654820
C212	C	1.419693	0.490776	1.154820
H213	H	0.912940	-0.000216	0.603966
H214	H	1.412940	0.499784	1.103966
H215	H	0.912074	-0.070746	0.667324
H216	H	1.412074	0.429254	1.167324
H217	H	0.966063	0.000636	0.667287
H218	H	1.466063	0.500636	1.167287
H219	H	0.906231	0.008739	0.804009
H220	H	1.406231	0.508739	1.304009
H221	H	0.804336	0.275253	0.568917
H222	H	1.304336	0.775253	1.068917
H223	H	0.804308	0.275251	0.430634
H224	H	1.304308	0.775251	0.930634
C225	C	0.721603	0.254816	0.184680
C226	C	1.221603	0.754816	0.684680
H227	H	0.693525	0.292265	0.218306
H228	H	1.193525	0.792265	0.718306
H229	H	0.692650	0.221740	0.154960
H230	H	1.192650	0.721740	0.654960
H231	H	0.746638	0.293124	0.154931
H232	H	1.246638	0.793124	0.654931
