data_functionalizedCrystal
_audit_creation_method	'MofGen! by Chris Wilmer'
_symmetry_space_group_name_H-M	'P1'
_symmetry_Int_Tables_number	1
_symmetry_cell_setting	triclinic
loop_
_symmetry_equiv_pos_as_xyz
  x,y,z
_cell_length_a	18.050589
_cell_length_b	12.759401
_cell_length_c	12.759393
_cell_angle_alpha	90.020272
_cell_angle_beta	89.970429
_cell_angle_gamma	89.970957
loop_
_atom_site_label
_atom_site_type_symbol
_atom_site_fract_x
_atom_site_fract_y
_atom_site_fract_z
Zn1	Zn	-0.295607	-1.606145	-0.594071
Zn2	Zn	-0.419815	-1.606001	-0.418394
Zn3	Zn	-0.295645	-1.430450	-0.418401
Zn4	Zn	-0.419762	-1.430394	-0.594026
O5	O	-0.357707	-1.518247	-0.506223
O6	O	-0.312090	-1.753147	-0.570782
O7	O	-0.403382	-1.582677	-0.271374
O8	O	-0.191715	-1.453840	-0.441726
O9	O	-0.403345	-1.753041	-0.441713
O10	O	-0.191687	-1.582922	-0.570789
O11	O	-0.312155	-1.453701	-0.271379
O12	O	-0.312103	-1.283422	-0.441683
O13	O	-0.403254	-1.453744	-0.741053
O14	O	-0.403291	-1.283380	-0.570714
O15	O	-0.312038	-1.582867	-0.741086
O16	O	-0.523732	-1.582623	-0.441670
O17	O	-0.523693	-1.453605	-0.570706
C18	C	-0.357696	-1.245280	-0.506195
C19	C	-0.357709	-1.128503	-0.506207
C20	C	-0.405262	-1.073647	-0.573287
C21	C	-0.405264	-0.963923	-0.573305
C22	C	-0.310157	-0.963921	-0.439155
C23	C	-0.310152	-1.073643	-0.439143
C24	C	-0.431910	-0.814014	-0.697162
C25	C	-0.479475	-0.759154	-0.764232
C26	C	-0.551951	-0.794727	-0.780182
C27	C	-0.576878	-0.885158	-0.729047
C28	C	-0.529317	-0.940012	-0.661969
C29	C	-0.456830	-0.904440	-0.646039
C30	C	-0.283513	-1.223555	-0.315285
C31	C	-0.235955	-1.278411	-0.248201
C32	C	-0.163478	-1.242840	-0.232240
C33	C	-0.138555	-1.152406	-0.283356
C34	C	-0.186112	-1.097550	-0.350440
C35	C	-0.258589	-1.133128	-0.366403
C36	C	-0.550659	-1.518121	-0.506205
C37	C	-0.633205	-1.518162	-0.506233
C38	C	-0.832661	-1.448071	-0.576379
C39	C	-0.882109	-1.422459	-0.480509
C40	C	-0.784335	-1.518266	-0.506247
C41	C	-0.881969	-1.543929	-0.602127
C42	C	-0.930320	-1.518363	-0.506269
C43	C	-0.832696	-1.492603	-0.410326
C44	C	-0.832552	-1.614118	-0.532010
C45	C	-0.881977	-1.588542	-0.436074
C46	C	-0.700237	-1.518207	-0.506236
C47	C	-1.014417	-1.518423	-0.506269
C48	C	-0.164002	-1.518403	-0.506263
C49	C	-0.081456	-1.518470	-0.506281
C50	C	-0.357636	-1.518315	-0.780256
C51	C	-0.357605	-1.518344	-0.897033
C52	C	-0.357717	-0.792281	-0.506245
C53	C	-0.357716	-0.909057	-0.506237
C54	C	-0.405079	-1.451132	-0.951880
C55	C	-0.405052	-1.451170	-1.061604
C56	C	-0.310070	-1.585634	-1.061625
C57	C	-0.310102	-1.585601	-0.951903
C58	C	-0.492591	-1.413604	-1.211539
C59	C	-0.540058	-1.346376	-1.266389
C60	C	-0.551465	-1.243841	-1.230771
C61	C	-0.515393	-1.208514	-1.140305
C62	C	-0.467920	-1.275737	-1.085460
C63	C	-0.456528	-1.378286	-1.121077
C64	C	-0.222562	-1.623156	-0.801966
C65	C	-0.175084	-1.690374	-0.747119
C66	C	-0.163670	-1.792911	-0.782735
C67	C	-0.199729	-1.828234	-0.873205
C68	C	-0.247206	-1.761016	-0.928052
C69	C	-0.258621	-1.658481	-0.892428
C70	C	-0.357725	-1.518240	-0.233256
C71	C	-0.357546	-1.518415	-0.116479
H72	H	-0.459173	-0.685525	-0.805866
H73	H	-0.372892	-0.785049	-0.684191
C74	C	-0.911520	-1.313019	-0.451071
H75	H	-0.940494	-1.317842	-0.389080
H76	H	-0.941213	-1.286680	-0.506588
H77	H	-0.870991	-1.267017	-0.439368
C78	C	-0.803400	-1.367769	-0.656382
H79	H	-0.820371	-1.299730	-0.637908
H80	H	-0.820995	-1.385296	-0.724313
H81	H	-0.750774	-1.368726	-0.656261
C82	C	-0.803149	-1.723552	-0.561460
H83	H	-0.819997	-1.741657	-0.629628
H84	H	-0.820786	-1.773598	-0.512330
H85	H	-0.750525	-1.722914	-0.560613
H86	H	-0.145718	-1.661602	-0.673459
C87	C	-0.187179	-1.941024	-0.912385
H88	H	-0.153745	-1.976001	-0.866758
H89	H	-0.166971	-1.939259	-0.981119
H90	H	-0.233078	-1.977406	-0.913430
C91	C	-0.911208	-1.573207	-0.711651
H92	H	-0.894313	-1.523229	-0.761382
H93	H	-0.963829	-1.573662	-0.710723
H94	H	-0.893503	-1.640785	-0.730424
H95	H	-0.124759	-1.287509	-0.177605
C96	C	-0.803583	-1.463194	-0.300772
H97	H	-0.750954	-1.463300	-0.301443
H98	H	-0.820862	-1.512775	-0.250919
H99	H	-0.820965	-1.395345	-0.282377
H100	H	-0.903495	-1.647945	-0.376707
C101	C	-0.263373	-1.377882	-0.191965
H102	H	-0.313347	-1.391220	-0.211086
H103	H	-0.260319	-1.368029	-0.118296
H104	H	-0.233369	-1.435771	-0.211839
H105	H	-0.443755	-1.396361	-0.907208
C106	C	-0.111443	-1.866851	-0.722411
H107	H	-0.109810	-1.932976	-0.756587
H108	H	-0.129195	-1.875675	-0.652875
H109	H	-0.063096	-1.837523	-0.720577
H110	H	-0.438549	-1.246973	-1.011806
H111	H	-0.231855	-1.539663	-0.772955
H112	H	-0.443984	-1.118311	-0.627897
H113	H	-0.079542	-1.123431	-0.270343
C114	C	-0.527933	-1.095719	-1.101138
H115	H	-0.561375	-1.060745	-1.146754
H116	H	-0.482035	-1.059345	-1.100095
H117	H	-0.548142	-1.097481	-1.032399
C118	C	-0.363238	-1.262690	-0.332847
H119	H	-0.371273	-1.324397	-0.292785
H120	H	-0.370340	-1.277781	-0.405054
H121	H	-0.397289	-1.210037	-0.311512
H122	H	-0.549611	-1.013638	-0.620336
H123	H	-0.635898	-0.914107	-0.742031
H124	H	-0.590679	-0.750053	-0.834793
C125	C	-0.603686	-1.169898	-1.291096
H126	H	-0.623538	-1.205624	-1.350067
H127	H	-0.576827	-1.110158	-1.314067
H128	H	-0.642925	-1.148315	-1.246366
H129	H	-0.271439	-0.919240	-0.384552
H130	H	-0.165811	-1.023918	-0.392069
H131	H	-0.569427	-1.375148	-1.340048
C132	C	-0.480051	-1.526398	-1.250711
H133	H	-0.446622	-1.561382	-1.205084
H134	H	-0.459845	-1.524639	-1.319445
H135	H	-0.525956	-1.562769	-1.251753
C136	C	-0.257812	-1.659599	-1.121985
H137	H	-0.264586	-1.649985	-1.195187
H138	H	-0.268686	-1.730177	-1.104009
H139	H	-0.207917	-1.644247	-1.104006
H140	H	-0.276564	-1.789783	-1.001721
