data_functionalizedCrystal
_audit_creation_method	'MofGen! by Chris Wilmer'
_symmetry_space_group_name_H-M	'P1'
_symmetry_Int_Tables_number	1
_symmetry_cell_setting	triclinic
loop_
_symmetry_equiv_pos_as_xyz
  x,y,z
_cell_length_a	19.077105
_cell_length_b	29.839131
_cell_length_c	19.076919
_cell_angle_alpha	92.267459
_cell_angle_beta	90.076224
_cell_angle_gamma	87.737628
loop_
_atom_site_label
_atom_site_type_symbol
_atom_site_fract_x
_atom_site_fract_y
_atom_site_fract_z
Zn1	Zn	1.058171	-0.217337	-0.440392
Zn2	Zn	1.558171	0.282663	0.059608
Zn3	Zn	1.062777	-0.289569	-0.322877
Zn4	Zn	1.562777	0.210431	0.177123
Zn5	Zn	0.945391	-0.211319	-0.318186
Zn6	Zn	1.445391	0.288681	0.181814
Zn7	Zn	0.940599	-0.289298	-0.435629
Zn8	Zn	1.440599	0.210702	0.064371
O9	O	1.001735	-0.251881	-0.379271
O10	O	1.501735	0.248119	0.120729
O11	O	1.157112	-0.229551	-0.428760
O12	O	1.657112	0.270449	0.071240
O13	O	1.051139	-0.276784	-0.223924
O14	O	1.551139	0.223216	0.276076
O15	O	0.960429	-0.149253	-0.334427
O16	O	1.460429	0.350747	0.165573
O17	O	1.160497	-0.282620	-0.342422
O18	O	1.660497	0.217380	0.157578
O19	O	1.043288	-0.153674	-0.424211
O20	O	1.543288	0.346326	0.075789
O21	O	0.964896	-0.219294	-0.220477
O22	O	1.464896	0.280706	0.279523
O23	O	0.846425	-0.219031	-0.329809
O24	O	1.346425	0.280969	0.170191
O25	O	0.952262	-0.282158	-0.534592
O26	O	1.452262	0.217842	-0.034592
O27	O	0.842904	-0.276322	-0.416094
O28	O	1.342904	0.223678	0.083906
O29	O	1.038641	-0.229288	-0.538091
O30	O	1.538641	0.270712	-0.038091
O31	O	1.046493	-0.352398	-0.337803
O32	O	1.546493	0.147602	0.162197
O33	O	0.956729	-0.352199	-0.420642
O34	O	1.456729	0.147801	0.079358
C35	C	0.819169	-0.246995	-0.371926
C36	C	1.319169	0.253005	0.128074
C37	C	0.741065	-0.244915	-0.368801
C38	C	1.241065	0.255085	0.131199
C39	C	0.702560	-0.273809	-0.412186
C40	C	1.202560	0.226191	0.087814
C41	C	0.629174	-0.271849	-0.409252
C42	C	1.129174	0.228151	0.090748
C43	C	0.594294	-0.240998	-0.362930
C44	C	1.094294	0.259002	0.137070
C45	C	0.632804	-0.212102	-0.319543
C46	C	1.132804	0.287898	0.180457
C47	C	0.706189	-0.214059	-0.322481
C48	C	1.206189	0.285941	0.177519
C49	C	0.375011	-0.231938	-0.349338
C50	C	0.875011	0.268062	0.150662
C51	C	0.301621	-0.229984	-0.346403
C52	C	0.801621	0.270016	0.153597
C53	C	0.297996	-0.289731	-0.436113
C54	C	0.797996	0.210269	0.063887
C55	C	0.371382	-0.291688	-0.439043
C56	C	0.871382	0.208312	0.060957
C57	C	0.409886	-0.262790	-0.395659
C58	C	0.909886	0.237210	0.104341
N59	N	0.519281	-0.238996	-0.359929
N60	N	1.019281	0.261004	0.140071
N61	N	0.484897	-0.264790	-0.398664
N62	N	0.984897	0.235210	0.101336
C63	C	1.001609	-0.368599	-0.379231
C64	C	1.501609	0.131401	0.120769
C65	C	1.001619	-0.418534	-0.379240
C66	C	1.501619	0.081466	0.120760
C67	C	1.048554	-0.728276	-0.336206
C68	C	1.548554	-0.228276	0.163794
C69	C	1.048639	-0.915952	-0.336237
C70	C	1.548639	-0.415952	0.163763
O71	O	1.088445	-0.940297	-0.299616
O72	O	1.588445	-0.440297	0.200384
N73	N	1.001878	-0.939328	-0.379330
N74	N	1.501878	-0.439328	0.120670
C75	C	0.955095	-0.915782	-0.422422
C76	C	1.455095	-0.415782	0.077578
O77	O	0.915329	-0.939972	-0.459082
O78	O	1.415329	-0.439972	0.040918
C79	C	0.955014	-0.728107	-0.422395
C80	C	1.455014	-0.228107	0.077605
C81	C	1.001773	-0.704734	-0.379293
C82	C	1.501773	-0.204734	0.120707
C83	C	1.095310	-0.704902	-0.293109
C84	C	1.595310	-0.204902	0.206891
C85	C	1.095285	-0.657986	-0.293099
C86	C	1.595285	-0.157986	0.206901
C87	C	1.048505	-0.634443	-0.336186
C88	C	1.548505	-0.134443	0.163814
C89	C	1.001749	-0.657817	-0.379283
C90	C	1.501749	-0.157817	0.120717
C91	C	0.908235	-0.704563	-0.465490
C92	C	1.408235	-0.204563	0.034510
C93	C	0.908220	-0.657641	-0.465480
C94	C	1.408220	-0.157641	0.034520
C95	C	0.954979	-0.634267	-0.422379
C96	C	1.454979	-0.134267	0.077621
C97	C	0.954944	-0.587358	-0.422360
C98	C	1.454944	-0.087358	0.077640
N99	N	1.001705	-0.563982	-0.379267
N100	N	1.501705	-0.063982	0.120733
C101	C	1.048485	-0.587525	-0.336180
C102	C	1.548485	-0.087525	0.163820
C103	C	0.955141	-1.014314	-0.422432
C104	C	1.455141	-0.514314	0.077568
C105	C	0.955160	-1.061233	-0.422439
C106	C	1.455160	-0.561233	0.077561
C107	C	1.048705	-1.061399	-0.336254
C108	C	1.548705	-0.561399	0.163746
C109	C	1.048682	-1.014480	-0.336245
C110	C	1.548682	-0.514480	0.163755
C111	C	1.001902	-0.990938	-0.379339
C112	C	1.501902	-0.490938	0.120661
C113	C	1.048430	-0.488997	-0.336161
C114	C	1.548430	0.011003	0.163839
C115	C	1.048399	-0.442077	-0.336153
C116	C	1.548399	0.057923	0.163847
C117	C	0.954857	-0.441914	-0.422340
C118	C	1.454857	0.058086	0.077660
C119	C	0.954885	-0.488831	-0.422346
C120	C	1.454885	0.011169	0.077654
C121	C	1.001677	-0.512371	-0.379255
C122	C	1.501677	-0.012371	0.120745
O123	O	0.915164	-0.562985	-0.458967
O124	O	1.415164	-0.062985	0.041033
O125	O	1.088256	-0.563328	-0.299537
O126	O	1.588256	-0.063328	0.200463
C127	C	1.048578	-0.775192	-0.336216
C128	C	1.548578	-0.275192	0.163784
C129	C	1.001822	-0.798566	-0.379313
C130	C	1.501822	-0.298566	0.120687
C131	C	0.955041	-0.775024	-0.422401
C132	C	1.455041	-0.275024	0.077599
C133	C	1.001841	-0.845485	-0.379319
C134	C	1.501841	-0.345485	0.120681
C135	C	1.048622	-0.869027	-0.336232
C136	C	1.548622	-0.369027	0.163768
C137	C	1.095383	-0.845651	-0.293139
C138	C	1.595383	-0.345651	0.206861
C139	C	1.095359	-0.798735	-0.293129
C140	C	1.595359	-0.298735	0.206871
C141	C	0.908280	-0.798400	-0.465494
C142	C	1.408280	-0.298400	0.034506
C143	C	0.908308	-0.845316	-0.465500
C144	C	1.408308	-0.345316	0.034500
C145	C	0.955089	-0.868859	-0.422413
C146	C	1.455089	-0.368859	0.077587
C147	C	1.185013	-0.256787	-0.386645
C148	C	1.685013	0.243213	0.113355
C149	C	1.263116	-0.258877	-0.389788
C150	C	1.763116	0.241123	0.110212
C151	C	0.994403	-0.256364	-0.562551
C152	C	1.494403	0.243636	-0.062551
C153	C	0.991279	-0.258274	-0.640654
C154	C	1.491279	0.241726	-0.140654
C155	C	1.001879	-0.134708	-0.379327
C156	C	1.501879	0.365292	0.120673
C157	C	1.001941	-0.084775	-0.379351
C158	C	1.501941	0.415225	0.120649
C159	C	1.034782	-0.231647	-0.679169
C160	C	1.534782	0.268353	-0.179169
C161	C	1.031838	-0.233440	-0.752555
C162	C	1.531838	0.266560	-0.252555
C163	C	0.985394	-0.261863	-0.787424
C164	C	1.485394	0.238137	-0.287424
C165	C	0.941886	-0.288492	-0.748903
C166	C	1.441886	0.211508	-0.248903
C167	C	0.944827	-0.286696	-0.675518
C168	C	1.444827	0.213304	-0.175518
C169	C	0.971772	-0.270184	-1.006704
C170	C	1.471772	0.229816	-0.506704
C171	C	0.968835	-0.271978	-1.080093
C172	C	1.468835	0.228022	-0.580093
C173	C	1.058787	-0.216925	-1.083741
C174	C	1.558787	0.283075	-0.583741
C175	C	1.061727	-0.215134	-1.010355
C176	C	1.561727	0.284866	-0.510355
C177	C	1.018216	-0.241761	-0.971840
C178	C	1.518216	0.258239	-0.471840
N179	N	0.982385	-0.263698	-0.862436
N180	N	1.482385	0.236302	-0.362436
N181	N	1.021222	-0.239924	-0.896830
N182	N	1.521222	0.260076	-0.396830
C183	C	1.009078	-0.247384	-0.196706
C184	C	1.509078	0.252616	0.303294
C185	C	1.012338	-0.245351	-0.118609
C186	C	1.512338	0.254649	0.381391
H187	H	0.266638	-0.313257	-0.471435
H188	H	0.766638	0.186743	0.028565
H189	H	1.094209	-0.195246	-1.115107
H190	H	1.594209	0.304754	-0.615107
H191	H	0.273224	-0.204856	-0.308686
H192	H	0.773224	0.295144	0.191314
H193	H	0.870155	-0.723586	-0.500584
H194	H	1.370155	-0.223586	-0.000584
H195	H	1.072604	-0.208503	-0.650785
H196	H	1.572604	0.291497	-0.150785
H197	H	1.067264	-0.211758	-0.783912
H198	H	1.567264	0.288242	-0.283912
N199	N	0.921365	-0.301001	-1.115700
N200	N	1.421365	0.198999	-0.615700
N201	N	0.882505	-0.324762	-1.081304
N202	N	1.382505	0.175238	-0.581304
H203	H	0.848972	-0.345254	-1.106451
H204	H	1.348972	0.154746	-0.606451
N205	N	1.096456	-0.990606	-0.292231
N206	N	1.596456	-0.490606	0.207769
N207	N	1.140216	-0.966195	-0.318785
N208	N	1.640216	-0.466195	0.181215
H209	H	1.173960	-0.949336	-0.287700
H210	H	1.673960	-0.449336	0.212300
N211	N	0.414332	-0.202419	-0.305025
N212	N	0.914332	0.297581	0.194975
N213	N	0.405984	-0.160868	-0.309474
N214	N	0.905984	0.339132	0.190526
H215	H	0.433757	-0.140019	-0.278175
H216	H	0.933757	0.359981	0.221825
H217	H	1.133408	-0.724066	-0.258022
H218	H	1.633408	-0.224066	0.241978
H219	H	0.597826	-0.295378	-0.444580
H220	H	1.097826	0.204622	0.055420
N221	N	0.407014	-0.323196	-0.486365
N222	N	0.907014	0.176804	0.013635
N223	N	0.446202	-0.309627	-0.532825
N224	N	0.946202	0.190373	-0.032825
H225	H	0.471369	-0.331881	-0.566243
H226	H	0.971369	0.168119	-0.066243
H227	H	1.086534	-0.508158	-0.301074
H228	H	1.586534	-0.008158	0.198926
N229	N	0.597166	-0.180587	-0.272235
N230	N	1.097166	0.319413	0.227765
N231	N	0.531644	-0.178843	-0.269617
N232	N	1.031644	0.321157	0.230383
H233	H	0.506475	-0.156586	-0.236204
H234	H	1.006475	0.343414	0.263796
N235	N	0.907085	-0.417853	-0.466351
N236	N	1.407085	0.082147	0.033649
N237	N	0.929978	-0.393399	-0.512128
N238	N	1.429978	0.106601	-0.012128
H239	H	0.896242	-0.376404	-0.543214
H240	H	1.396242	0.123596	-0.043214
H241	H	0.936353	-0.291872	-0.975354
H242	H	1.436353	0.208128	-0.475354
H243	H	0.904068	-0.311633	-0.777298
H244	H	1.404068	0.188367	-0.277298
N245	N	1.109179	-0.186101	-0.974751
N246	N	1.609179	0.313899	-0.474751
N247	N	1.148021	-0.162330	-1.009149
N248	N	1.648021	0.337670	-0.509149
H249	H	1.181539	-0.141828	-0.984005
H250	H	1.681539	0.358172	-0.484005
N251	N	0.907349	-0.990278	-0.466461
N252	N	1.407349	-0.490278	0.033539
N253	N	0.865605	-1.011160	-0.504930
N254	N	1.365605	-0.511160	-0.004930
H255	H	0.831850	-0.994187	-0.536024
H256	H	1.331850	-0.494187	-0.036024
N257	N	0.900380	-0.313896	-0.636183
N258	N	1.400380	0.186104	-0.136183
N259	N	0.858913	-0.339271	-0.667322
N260	N	1.358913	0.160729	-0.167322
H261	H	0.827518	-0.358480	-0.639543
H262	H	1.327518	0.141520	-0.139543
N263	N	0.745512	-0.184538	-0.278166
N264	N	1.245512	0.315462	0.221834
N265	N	0.714363	-0.156993	-0.236812
N266	N	1.214363	0.343007	0.263188
H267	H	0.742134	-0.136140	-0.205516
H268	H	1.242134	0.363860	0.294484
H269	H	1.133363	-0.638958	-0.258004
H270	H	1.633363	-0.138958	0.241996
H271	H	1.133472	-0.864828	-0.258053
H272	H	1.633472	-0.364828	0.241947
N273	N	0.860443	-0.633595	-0.509511
N274	N	1.360443	-0.133595	-0.009511
N275	N	0.862466	-0.640527	-0.574540
N276	N	1.362466	-0.140527	-0.074540
H277	H	0.828724	-0.623545	-0.605637
H278	H	1.328724	-0.123545	-0.105637
H279	H	0.730954	-0.298932	-0.449904
H280	H	1.230954	0.201068	0.050096
N281	N	1.096166	-0.418208	-0.292116
N282	N	1.596166	0.081792	0.207884
N283	N	1.137930	-0.439238	-0.253649
N284	N	1.637930	0.060762	0.246351
H285	H	1.171665	-0.422382	-0.222549
H286	H	1.671665	0.077618	0.277451
H287	H	0.917078	-1.080260	-0.457529
H288	H	1.417078	-0.580260	0.042471
N289	N	1.096484	-1.085459	-0.292242
N290	N	1.596484	-0.585459	0.207758
N291	N	1.096489	-1.127350	-0.292260
N292	N	1.596489	-0.627350	0.207740
H293	H	1.130232	-1.144345	-0.261181
H294	H	1.630232	-0.644345	0.238819
H295	H	1.133435	-0.779707	-0.258032
H296	H	1.633435	-0.279707	0.241968
N297	N	0.907107	-0.512702	-0.466364
N298	N	1.407107	-0.012702	0.033636
N299	N	0.865337	-0.491673	-0.504825
N300	N	1.365337	0.008327	-0.004825
H301	H	0.831594	-0.508529	-0.535917
H302	H	1.331594	-0.008529	-0.035917
N303	N	0.860530	-0.869182	-0.509528
N304	N	1.360530	-0.369182	-0.009528
N305	N	0.818768	-0.848150	-0.547994
N306	N	1.318768	-0.348150	-0.047994
H307	H	0.785029	-0.865004	-0.579092
H308	H	1.285029	-0.365004	-0.079092
N309	N	0.860490	-0.774363	-0.509516
N310	N	1.360490	-0.274363	-0.009516
N311	N	0.818748	-0.795245	-0.547987
N312	N	1.318748	-0.295245	-0.047987
H313	H	0.784990	-0.778271	-0.579078
H314	H	1.284990	-0.278271	-0.079078
