data_functionalizedCrystal
_audit_creation_method	'MofGen! by Chris Wilmer'
_symmetry_space_group_name_H-M	'P1'
_symmetry_Int_Tables_number	1
_symmetry_cell_setting	triclinic
loop_
_symmetry_equiv_pos_as_xyz
  x,y,z
_cell_length_a	17.640280
_cell_length_b	10.685972
_cell_length_c	10.685880
_cell_angle_alpha	99.082357
_cell_angle_beta	82.229567
_cell_angle_gamma	97.743455
loop_
_atom_site_label
_atom_site_type_symbol
_atom_site_fract_x
_atom_site_fract_y
_atom_site_fract_z
Zn1	Zn	-0.253193	-2.071663	-0.790915
Zn2	Zn	-0.372556	-2.091043	-0.542922
Zn3	Zn	-0.253229	-1.843113	-0.562371
Zn4	Zn	-0.390773	-1.900618	-0.733366
O5	O	-0.317438	-1.976609	-0.657394
O6	O	-0.261388	-2.249576	-0.773963
O7	O	-0.349118	-2.042200	-0.370154
O8	O	-0.145708	-1.841254	-0.624912
O9	O	-0.349083	-2.263815	-0.591763
O10	O	-0.145682	-2.009168	-0.792822
O11	O	-0.261449	-1.860046	-0.384443
O12	O	-0.279113	-1.675399	-0.569110
O13	O	-0.380132	-1.939263	-0.916348
O14	O	-0.380166	-1.717647	-0.694739
O15	O	-0.279052	-2.064928	-0.958629
O16	O	-0.482488	-2.097960	-0.535960
O17	O	-0.495873	-1.958055	-0.675879
C18	C	-0.331621	-1.651059	-0.627790
C19	C	-0.337709	-1.511795	-0.615150
C20	C	-0.517058	-2.036387	-0.597595
C21	C	-0.602453	-2.062079	-0.572065
C22	C	-0.918282	-1.781988	-0.851844
C23	C	-0.998522	-1.806128	-0.827815
C24	C	-0.984522	-1.951925	-0.682289
C25	C	-0.904279	-1.927802	-0.706310
C26	C	-0.871166	-1.842831	-0.791088
C27	C	-0.857163	-1.988645	-0.645554
C28	C	-0.776927	-1.964518	-0.669569
C29	C	-0.743808	-1.879548	-0.754340
C30	C	-0.790930	-1.818704	-0.815103
C31	C	-0.890278	-2.073608	-0.560770
C32	C	-0.843162	-2.134451	-0.500014
C33	C	-0.762925	-2.110332	-0.524035
C34	C	-0.729805	-2.025362	-0.608806
C35	C	-0.715803	-2.171176	-0.463272
C36	C	-0.635567	-2.147050	-0.487287
C37	C	-0.649569	-2.001236	-0.632821
C38	C	-0.117038	-1.916635	-0.717456
C39	C	-0.031639	-1.891077	-0.743052
C40	C	-0.331620	-2.006348	-0.984226
C41	C	-0.337664	-2.019021	-1.123502
C42	C	-0.303194	-1.303429	-0.687108
C43	C	-0.297110	-1.442695	-0.699760
C44	C	-0.303252	-1.947042	-0.331856
C45	C	-0.296981	-1.934547	-0.192667
H46	H	-0.377126	-1.464408	-0.533031
H47	H	-0.763968	-1.749522	-0.884147
H48	H	-0.678474	-1.859897	-0.773881
H49	H	-0.257690	-1.490074	-0.781868
H50	H	-0.622608	-1.932054	-0.701866
C51	C	-0.244478	-1.824996	-1.129578
C52	C	-0.267984	-1.708887	-1.145019
C53	C	-0.219643	-1.607940	-1.086895
H54	H	-0.192950	-1.829628	-1.168043
H55	H	-0.247282	-1.830638	-1.041194
H56	H	-0.265172	-1.703247	-1.233385
H57	H	-0.319504	-1.704213	-1.106550
H58	H	-0.222447	-1.613582	-0.998512
H59	H	-0.168118	-1.612585	-1.125365
H60	H	-0.235589	-1.529150	-1.097354
C61	C	-0.882468	-1.689663	-0.943905
C62	C	-0.940902	-1.641527	-0.991969
C63	C	-0.907940	-1.556473	-1.076767
H64	H	-0.851432	-1.732989	-1.012361
H65	H	-0.851514	-1.621275	-0.900354
H66	H	-0.971843	-1.709904	-1.035520
H67	H	-0.971943	-1.598179	-0.923543
H68	H	-0.876986	-1.488085	-1.033216
H69	H	-0.876904	-1.599809	-1.145215
H70	H	-0.947581	-1.523794	-1.109380
H71	H	-1.036882	-1.756592	-0.877313
C72	C	-1.020625	-2.044163	-0.590319
C73	C	-1.100977	-2.052284	-0.582301
C74	C	-1.134257	-2.137248	-0.497597
H75	H	-1.004716	-2.014373	-0.508316
H76	H	-1.004611	-2.126092	-0.620319
H77	H	-1.116983	-1.970371	-0.552296
H78	H	-1.116907	-2.082088	-0.664281
H79	H	-1.118244	-2.219177	-0.527596
H80	H	-1.118343	-2.107450	-0.415600
H81	H	-1.188779	-2.142778	-0.492154
H82	H	-0.377122	-2.101049	-1.170843
H83	H	-0.870135	-2.203631	-0.430984
C84	C	-0.751907	-2.263413	-0.371302
C85	C	-0.832259	-2.271530	-0.363286
C86	C	-0.865542	-2.356492	-0.278582
H87	H	-0.735999	-2.233625	-0.289300
H88	H	-0.735895	-2.345344	-0.401302
H89	H	-0.848264	-2.189615	-0.333281
H90	H	-0.848189	-2.301332	-0.445266
H91	H	-0.849530	-2.438423	-0.308581
H92	H	-0.849628	-2.326696	-0.196585
H93	H	-0.920064	-2.362019	-0.273141
C94	C	-0.584366	-2.212871	-0.421168
C95	C	-0.537964	-2.120836	-0.348100
C96	C	-0.490795	-2.181418	-0.287155
H97	H	-0.552666	-2.262357	-0.483364
H98	H	-0.615550	-2.266899	-0.367172
H99	H	-0.506783	-2.066830	-0.402091
H100	H	-0.569644	-2.071344	-0.285882
H101	H	-0.521979	-2.235446	-0.233159
H102	H	-0.459100	-2.230903	-0.349360
H103	H	-0.459311	-2.118983	-0.237562
H104	H	-0.955612	-2.093253	-0.541223
