data_functionalizedCrystal
_audit_creation_method	'MofGen! by Chris Wilmer'
_symmetry_space_group_name_H-M	'P1'
_symmetry_Int_Tables_number	1
_symmetry_cell_setting	triclinic
loop_
_symmetry_equiv_pos_as_xyz
  x,y,z
_cell_length_a	19.288864
_cell_length_b	19.288865
_cell_length_c	17.766277
_cell_angle_alpha	89.989546
_cell_angle_beta	89.976755
_cell_angle_gamma	83.136245
loop_
_atom_site_label
_atom_site_type_symbol
_atom_site_fract_x
_atom_site_fract_y
_atom_site_fract_z
O1	O	-0.921353	-0.086648	0.062844
O2	O	-0.588020	0.246686	0.396177
O3	O	-0.254687	0.580019	0.729511
O4	O	-0.719093	-0.098336	0.062794
O5	O	-0.385759	0.234997	0.396127
O6	O	-0.052426	0.568330	0.729461
O7	O	-0.826067	0.008638	0.062806
O8	O	-0.492734	0.341972	0.396139
O9	O	-0.159401	0.675305	0.729472
O10	O	-0.814379	-0.193622	0.062832
O11	O	-0.481045	0.139711	0.396166
O12	O	-0.147712	0.473044	0.729499
O13	O	-0.826048	0.008641	-0.062383
O14	O	-0.492715	0.341975	0.270950
O15	O	-0.159382	0.675308	0.604284
O16	O	-0.719074	-0.098333	-0.062395
O17	O	-0.385740	0.235000	0.270939
O18	O	-0.052407	0.568333	0.604272
O19	O	-0.921334	-0.086645	-0.062344
O20	O	-0.588001	0.246689	0.270989
O21	O	-0.254668	0.580022	0.604322
Cu22	Cu	-0.820202	-0.092489	-0.073800
Cu23	Cu	-0.486869	0.240845	0.259533
Cu24	Cu	-0.153535	0.574178	0.592866
Cu25	Cu	-0.820225	-0.092492	0.074250
Cu26	Cu	-0.486891	0.240841	0.407583
Cu27	Cu	-0.153558	0.574174	0.740916
O28	O	-0.814359	-0.193619	-0.062356
O29	O	-0.481026	0.139714	0.270977
O30	O	-0.147693	0.473047	0.604311
C31	C	-0.693207	-0.097959	0.000193
C32	C	-0.359873	0.235375	0.333526
C33	C	-0.026540	0.568708	0.666860
C34	C	-0.616103	-0.096830	0.000173
C35	C	-0.282770	0.236504	0.333506
C36	C	0.050564	0.569837	0.666840
C37	C	-0.825682	0.034516	0.000209
C38	C	-0.492348	0.367850	0.333542
C39	C	-0.159015	0.701183	0.666876
C40	C	-0.824553	0.111620	0.000202
C41	C	-0.491219	0.444953	0.333535
C42	C	-0.157886	0.778287	0.666869
C43	C	-0.947220	-0.087022	0.000258
C44	C	-0.613887	0.246311	0.333592
C45	C	-0.280554	0.579645	0.666925
C46	C	-1.024324	-0.088151	0.000283
C47	C	-0.690990	0.245182	0.333616
C48	C	-0.357657	0.578516	0.666950
C49	C	-0.571407	-0.159598	0.000193
C50	C	-0.238073	0.173736	0.333527
C51	C	0.095260	0.507069	0.666860
C52	C	-0.498960	-0.158537	0.000201
C53	C	-0.165626	0.174796	0.333535
C54	C	0.167707	0.508130	0.666868
C55	C	-0.471212	-0.094705	0.000205
C56	C	-0.137879	0.238629	0.333538
C57	C	0.195455	0.571962	0.666871
C58	C	-0.515918	-0.031929	0.000180
C59	C	-0.182585	0.301405	0.333513
C60	C	0.150748	0.634738	0.666847
C61	C	-0.588364	-0.032991	0.000164
C62	C	-0.255030	0.300342	0.333498
C63	C	0.078303	0.633676	0.666831
C64	C	-0.362957	-0.044527	0.044082
C65	C	-0.029623	0.288807	0.377416
C66	C	0.303710	0.622140	0.710749
C67	C	-0.290512	-0.043467	0.044103
C68	C	0.042821	0.289867	0.377436
C69	C	0.376154	0.623200	0.710769
C70	C	-0.247767	-0.091425	0.000250
C71	C	0.085567	0.241908	0.333583
C72	C	0.418900	0.575242	0.666916
C73	C	-0.277473	-0.140455	-0.043614
C74	C	0.055861	0.192878	0.289719
C75	C	0.389194	0.526212	0.623053
C76	C	-0.349918	-0.141518	-0.043630
C77	C	-0.016585	0.191816	0.289704
C78	C	0.316749	0.525149	0.623037
C79	C	-0.392658	-0.093546	0.000221
C80	C	-0.059325	0.239788	0.333554
C81	C	0.274009	0.573121	0.666888
C82	C	-0.124514	-0.153047	0.000278
C83	C	0.208819	0.180286	0.333611
C84	C	0.542152	0.513619	0.666944
C85	C	-0.052066	-0.151984	0.000281
C86	C	0.281267	0.181349	0.333614
C87	C	0.614600	0.514683	0.666948
C88	C	-0.069026	-0.025374	0.000267
C89	C	0.264307	0.307960	0.333601
C90	C	0.597640	0.641293	0.666934
C91	C	-0.141473	-0.026439	0.000256
C92	C	0.191860	0.306894	0.333590
C93	C	0.525194	0.640228	0.666923
C94	C	-0.169212	-0.090278	0.000265
C95	C	0.164121	0.243056	0.333598
C96	C	0.497454	0.576389	0.666932
C97	C	-0.814745	-0.219497	0.000242
C98	C	-0.481412	0.113836	0.333576
C99	C	-0.148078	0.447169	0.666909
C100	C	-0.815874	-0.296601	0.000254
C101	C	-0.482541	0.036733	0.333587
C102	C	-0.149207	0.370066	0.666921
N103	N	-0.820191	-0.092486	-0.177931
N104	N	-0.486858	0.240848	0.155403
N105	N	-0.153525	0.574181	0.488736
C106	C	-0.887321	0.156316	0.000214
C107	C	-0.553987	0.489650	0.333547
C108	C	-0.220654	0.822983	0.666881
C109	C	-0.886260	0.228763	0.000226
C110	C	-0.552927	0.562097	0.333559
C111	C	-0.219593	0.895430	0.666892
C112	C	-0.822428	0.256511	0.000210
C113	C	-0.489094	0.589844	0.333544
C114	C	-0.155761	0.923178	0.666877
C115	C	-0.759652	0.211805	0.000203
C116	C	-0.426318	0.545138	0.333536
C117	C	-0.092985	0.878471	0.666869
C118	C	-0.760714	0.139359	0.000198
C119	C	-0.427381	0.472693	0.333532
C120	C	-0.094047	0.806026	0.666865
C121	C	-0.772241	0.364799	-0.043653
C122	C	-0.438908	0.698133	0.289680
C123	C	-0.105575	1.031466	0.623014
C124	C	-0.771182	0.437244	-0.043654
C125	C	-0.437848	0.770577	0.289680
C126	C	-0.104515	1.103910	0.623013
C127	C	-0.819148	0.479956	0.000226
C128	C	-0.485815	0.813290	0.333560
C129	C	-0.152481	1.146623	0.666893
C130	C	-0.868186	0.450217	0.044097
C131	C	-0.534853	0.783551	0.377430
C132	C	-0.201519	1.116884	0.710764
C133	C	-0.869249	0.377772	0.044093
C134	C	-0.535915	0.711105	0.377426
C135	C	-0.202582	1.044438	0.710760
C136	C	-0.821269	0.335065	0.000215
C137	C	-0.487935	0.668398	0.333548
C138	C	-0.154602	1.001732	0.666882
C139	C	-0.880770	0.603209	0.000252
C140	C	-0.547437	0.936542	0.333585
C141	C	-0.214104	1.269875	0.666919
C142	C	-0.879707	0.675657	0.000268
C143	C	-0.546374	1.008990	0.333602
C144	C	-0.213040	1.342323	0.666935
C145	C	-0.753097	0.658697	0.000238
C146	C	-0.419763	0.992030	0.333571
C147	C	-0.086430	1.325363	0.666904
C148	C	-0.754162	0.586250	0.000229
C149	C	-0.420829	0.919583	0.333562
C150	C	-0.087495	1.252917	0.666895
C151	C	-0.818001	0.558511	0.000232
C152	C	-0.484667	0.891844	0.333566
C153	C	-0.151334	1.225177	0.666899
C154	C	-0.862179	-0.134509	-0.217294
C155	C	-0.528845	0.198824	0.116039
C156	C	-0.195512	0.532157	0.449373
C157	C	-0.862190	-0.134507	-0.296096
C158	C	-0.528856	0.198826	0.037237
C159	C	-0.195523	0.532159	0.370571
C160	C	-0.820200	-0.092490	-0.335531
C161	C	-0.486867	0.240844	-0.002198
C162	C	-0.153534	0.574177	0.331136
C163	C	-0.778210	-0.050457	-0.296158
C164	C	-0.444877	0.282876	0.037175
C165	C	-0.111544	0.616209	0.370509
C166	C	-0.778206	-0.050455	-0.217358
C167	C	-0.444872	0.282878	0.115976
C168	C	-0.111539	0.616211	0.449309
C169	C	-0.757588	-0.090733	-0.460407
C170	C	-0.424255	0.242601	-0.127073
C171	C	-0.090921	0.575934	0.206260
C172	C	-0.757591	-0.090740	-0.539206
C173	C	-0.424258	0.242593	-0.205872
C174	C	-0.090924	0.575927	0.127461
C175	C	-0.820215	-0.092492	-0.578577
C176	C	-0.486881	0.240841	-0.245244
C177	C	-0.153548	0.574175	0.088089
C178	C	-0.882836	-0.094251	-0.539141
C179	C	-0.549503	0.239082	-0.205808
C180	C	-0.216170	0.572415	0.127526
C181	C	-0.882832	-0.094249	-0.460341
C182	C	-0.549499	0.239084	-0.127007
C183	C	-0.216165	0.572417	0.206326
C184	C	-0.820201	-0.092487	-0.420977
C185	C	-0.486867	0.240846	-0.087643
C186	C	-0.153534	0.574180	0.245690
C187	C	-0.862218	-0.134516	-0.703387
C188	C	-0.528884	0.198818	-0.370054
C189	C	-0.195551	0.532151	-0.036720
C190	C	-0.862230	-0.134509	-0.782190
C191	C	-0.528897	0.198825	-0.448857
C192	C	-0.195563	0.532158	-0.115524
C193	C	-0.778244	-0.050463	-0.782251
C194	C	-0.444911	0.282871	-0.448917
C195	C	-0.111577	0.616204	-0.115584
C196	C	-0.778238	-0.050466	-0.703449
C197	C	-0.444905	0.282868	-0.370116
C198	C	-0.111571	0.616201	-0.036782
C199	C	-0.820224	-0.092496	-0.664022
C200	C	-0.486890	0.240837	-0.330689
C201	C	-0.153557	0.574171	0.002645
N202	N	-0.820241	-0.092490	0.178380
N203	N	-0.486908	0.240844	0.511713
N204	N	-0.153574	0.574177	0.845047
H205	H	-0.593987	-0.211580	0.000202
H206	H	-0.260654	0.121753	0.333535
H207	H	0.072680	0.455087	0.666868
F208	F	-0.949476	-0.096121	-0.418372
F209	F	-0.616143	0.237212	-0.085039
F210	F	-0.282810	0.570545	0.248295
F211	F	-0.955264	0.126798	0.000234
F212	F	-0.621930	0.460132	0.333567
F213	F	-0.288597	0.793465	0.666901
F214	F	-0.953069	0.276341	0.000239
F215	F	-0.619735	0.609675	0.333573
F216	F	-0.286402	0.943008	0.666906
F217	F	-0.408444	0.006521	0.090759
F218	F	-0.075111	0.339855	0.424093
F219	F	0.258223	0.673188	0.757426
H220	H	-0.701123	0.681288	0.000229
H221	H	-0.367790	1.014621	0.333562
H222	H	-0.034457	1.347954	0.666895
F223	F	-0.919239	0.495670	0.090802
F224	F	-0.585906	0.829003	0.424135
F225	F	-0.252573	1.162336	0.757468
F226	F	-0.691717	0.241336	0.000191
F227	F	-0.358384	0.574670	0.333524
F228	F	-0.025050	0.908003	0.666858
F229	F	-0.486386	0.036006	0.000180
F230	F	-0.153053	0.369339	0.333513
F231	F	0.180280	0.702673	0.666847
H232	H	-0.462561	-0.209652	0.000216
H233	H	-0.129228	0.123682	0.333549
H234	H	0.204106	0.457015	0.666882
F235	F	-0.687355	0.538679	0.000213
F236	F	-0.354021	0.872012	0.333546
F237	F	-0.020688	1.205345	0.666880
H238	H	-0.896426	-0.168728	-0.814239
H239	H	-0.563093	0.164606	-0.480905
H240	H	-0.229759	0.497939	-0.147572
F241	F	-0.733512	-0.005729	-0.175463
F242	F	-0.400179	0.327605	0.157871
F243	F	-0.066845	0.660938	0.491204
H244	H	-0.624756	0.018124	0.000148
H245	H	-0.291423	0.351457	0.333482
H246	H	0.041910	0.684790	0.666815
F247	F	-0.381531	-0.193695	-0.090313
F248	F	-0.048198	0.139638	0.243020
F249	F	0.285135	0.472972	0.576353
F250	F	-0.690943	-0.088874	-0.581170
F251	F	-0.357610	0.244460	-0.247836
F252	F	-0.024277	0.577793	0.085497
H253	H	-0.744056	-0.016250	-0.814358
H254	H	-0.410723	0.317083	-0.481025
H255	H	-0.077390	0.650416	-0.147691
H256	H	-0.744044	-0.016248	-0.671399
H257	H	-0.410711	0.317085	-0.338065
H258	H	-0.077378	0.650419	-0.004732
F259	F	-0.690937	-0.088822	-0.418512
F260	F	-0.357604	0.244511	-0.085179
F261	F	-0.024271	0.577844	0.248155
F262	F	-0.921434	0.346123	0.090785
F263	F	-0.588101	0.679457	0.424119
F264	F	-0.254767	1.012790	0.757452
F265	F	-0.693905	0.091788	0.000186
F266	F	-0.360571	0.425121	0.333519
F267	F	-0.027238	0.758455	0.666853
H268	H	-0.744023	-0.016245	-0.328271
H269	H	-0.410690	0.317088	0.005062
H270	H	-0.077356	0.650421	0.338395
F271	F	-0.154039	-0.220989	0.000281
F272	F	0.179294	0.112345	0.333615
F273	F	0.512628	0.445678	0.666948
H274	H	-0.242670	-0.179507	-0.079324
H275	H	0.090663	0.153826	0.254009
H276	H	0.423997	0.487160	0.587343
F277	F	-0.004496	-0.218794	0.000299
F278	F	0.328837	0.114539	0.333632
F279	F	0.662170	0.447873	0.666965
H280	H	-0.046435	0.026600	0.000317
H281	H	0.286898	0.359933	0.333650
H282	H	0.620231	0.693266	0.666983
H283	H	-0.932751	0.580622	0.000258
H284	H	-0.599418	0.913956	0.333592
H285	H	-0.266085	1.247289	0.666925
H286	H	-0.930822	0.712049	0.000282
H287	H	-0.597489	1.045382	0.333615
H288	H	-0.264156	1.378715	0.666949
F289	F	-0.189044	0.040368	0.000239
F290	F	0.144289	0.373702	0.333572
F291	F	0.477623	0.707035	0.666905
F292	F	-0.258903	0.008709	0.090792
F293	F	0.074430	0.342042	0.424126
F294	F	0.407764	0.675376	0.757459
F295	F	-0.721186	0.319348	-0.090361
F296	F	-0.387853	0.652681	0.242973
F297	F	-0.054520	0.986014	0.576306
H298	H	-0.731249	0.461451	-0.079371
H299	H	-0.397916	0.794784	0.253962
H300	H	-0.064582	1.128118	0.587295
H301	H	-0.896369	-0.168731	-0.185197
H302	H	-0.563036	0.164602	0.148136
H303	H	-0.229703	0.497936	0.481469
H304	H	-0.896381	-0.168730	-0.328152
H305	H	-0.563048	0.164603	0.005181
H306	H	-0.229714	0.497937	0.338515
H307	H	-0.933830	-0.095682	-0.571196
H308	H	-0.600497	0.237652	-0.237862
H309	H	-0.267164	0.570985	0.095471
F310	F	-0.906914	-0.179235	-0.661423
F311	F	-0.573580	0.154098	-0.328090
F312	F	-0.240247	0.487432	0.005244
