data_functionalizedCrystal
_audit_creation_method	'MofGen! by Chris Wilmer'
_symmetry_space_group_name_H-M	'P1'
_symmetry_Int_Tables_number	1
_symmetry_cell_setting	triclinic
loop_
_symmetry_equiv_pos_as_xyz
  x,y,z
_cell_length_a	17.019282
_cell_length_b	17.038272
_cell_length_c	16.098538
_cell_angle_alpha	92.929602
_cell_angle_beta	83.391989
_cell_angle_gamma	87.241387
loop_
_atom_site_label
_atom_site_type_symbol
_atom_site_fract_x
_atom_site_fract_y
_atom_site_fract_z
O1	O	1.053664	0.099226	-0.006337
O2	O	0.824065	0.112771	0.010137
O3	O	0.937500	-0.007811	0.001992
O4	O	0.940229	0.219808	0.001809
O5	O	0.944121	-0.014834	-0.136997
O6	O	0.830686	0.105748	-0.128851
O7	O	1.060285	0.092203	-0.145325
Zn8	Zn	0.946537	0.097860	-0.159155
Zn9	Zn	0.937813	0.107113	0.023968
O10	O	0.946850	0.212785	-0.137179
C11	C	0.797853	0.108886	-0.057239
C12	C	0.709885	0.107765	-0.050927
C13	C	0.672171	0.103408	-0.123726
C14	C	0.589517	0.102342	-0.117798
C15	C	0.544577	0.105639	-0.039070
C16	C	0.582297	0.109994	0.033735
C17	C	0.664950	0.111054	0.027806
C18	C	0.294837	0.102624	-0.017378
C19	C	0.212178	0.101566	-0.011454
C20	C	0.219404	0.093913	-0.162988
C21	C	0.302058	0.094978	-0.168910
C22	C	0.339771	0.099329	-0.096105
C23	C	0.460091	0.104552	-0.033008
C24	C	0.424256	0.100410	-0.102167
C25	C	0.938328	-0.040440	-0.067324
C26	C	0.930923	-0.127199	-0.066793
C27	C	0.998916	-0.177621	-0.071672
C28	C	0.991952	-0.259140	-0.071165
C29	C	0.916995	-0.290235	-0.065784
C30	C	0.848997	-0.239806	-0.060901
C31	C	0.855961	-0.158289	-0.061403
C32	C	0.892393	-0.535881	-0.064007
C33	C	0.885434	-0.617405	-0.063508
C34	C	1.028389	-0.636733	-0.073770
C35	C	1.035347	-0.555214	-0.074276
C36	C	0.967349	-0.504792	-0.069390
C37	C	0.909876	-0.373560	-0.065267
C38	C	0.974469	-0.421468	-0.069900
C39	C	1.086496	0.096087	-0.077947
C40	C	1.174464	0.097209	-0.084254
C41	C	0.946021	0.245413	-0.067861
C42	C	0.953427	0.332173	-0.068388
N43	N	0.931860	0.113422	0.148944
N44	N	0.952496	0.091545	-0.284133
C45	C	0.980112	0.062339	0.189065
C46	C	0.975945	0.066751	0.276553
C47	C	0.923522	0.122243	0.323920
C48	C	0.875268	0.173332	0.283793
C49	C	0.879440	0.168923	0.196307
C50	C	0.908413	0.138224	0.588254
C51	C	0.904244	0.142628	0.675747
C52	C	1.004922	0.036048	0.668501
C53	C	1.009085	0.031641	0.581013
C54	C	0.960835	0.082732	0.540894
C55	C	0.919260	0.126753	0.413347
C56	C	0.965101	0.078226	0.451468
H57	H	0.188690	0.090369	-0.222261
H58	H	0.824393	-0.642719	-0.059139
H59	H	0.695655	0.114603	0.087087
H60	H	1.044207	-0.005547	0.701173
H61	H	0.861552	0.187818	0.714310
H62	H	1.051772	-0.013545	0.542448
H63	H	0.558815	0.098781	-0.177079
H64	H	0.325533	0.106164	0.041905
H65	H	1.083749	-0.677795	-0.077747
H66	H	0.869124	0.179823	0.555597
H67	H	0.876575	0.171934	0.451920
H68	H	0.423492	0.107236	0.031093
H69	H	1.022796	0.017149	0.150504
H70	H	1.035497	-0.396146	-0.074263
H71	H	0.338643	0.092290	-0.233019
H72	H	0.832587	0.218518	0.322364
H73	H	0.800594	-0.117235	-0.057429
H74	H	0.837023	-0.494837	-0.060028
H75	H	0.175590	0.104253	0.052659
H76	H	0.840149	0.210521	0.163642
H77	H	0.545701	0.112672	0.097837
H78	H	1.007787	0.033047	0.412899
H79	H	1.059954	-0.152311	-0.076059
H80	H	0.708755	0.100730	-0.187835
H81	H	0.460850	0.097722	-0.166268
H82	H	1.047319	-0.300191	-0.075140
H83	H	1.096385	-0.529903	-0.078658
H84	H	0.787966	-0.265130	-0.056515
H85	H	0.848846	-0.398887	-0.060888
H86	H	1.015236	0.025156	0.309218
