data_functionalizedCrystal
_audit_creation_method	'MofGen! by Chris Wilmer'
_symmetry_space_group_name_H-M	'P1'
_symmetry_Int_Tables_number	1
_symmetry_cell_setting	triclinic
loop_
_symmetry_equiv_pos_as_xyz
  x,y,z
_cell_length_a	12.837943
_cell_length_b	13.339070
_cell_length_c	11.892095
_cell_angle_alpha	94.950121
_cell_angle_beta	85.689438
_cell_angle_gamma	105.229117
loop_
_atom_site_label
_atom_site_type_symbol
_atom_site_fract_x
_atom_site_fract_y
_atom_site_fract_z
O1	O	1.458153	0.264493	-0.093975
O2	O	1.152505	0.251131	-0.093982
O3	O	1.270251	0.107167	-0.093976
O4	O	1.340408	0.408457	-0.093981
O5	O	1.260427	0.119150	0.094031
O6	O	1.142682	0.263114	0.094025
O7	O	1.448330	0.276476	0.094032
Zn8	Zn	1.293946	0.271697	0.123879
Zn9	Zn	1.306889	0.255909	-0.123828
O10	O	1.330585	0.420439	0.094026
C11	C	1.107675	0.252608	0.000021
C12	C	0.988726	0.239146	0.000018
C13	C	0.794315	0.400986	0.000032
C14	C	0.682553	0.388342	0.000030
C15	C	0.653436	0.201215	0.000021
C16	C	0.765199	0.213859	0.000023
C17	C	0.835635	0.313748	0.000026
C18	C	0.947400	0.326390	0.000020
C19	C	0.918281	0.139265	0.000019
C20	C	0.806519	0.126621	0.000017
C21	C	1.253488	0.074327	0.000026
C22	C	1.218164	-0.041381	0.000021
C23	C	1.492830	-0.379696	0.000028
C24	C	1.526022	-0.270983	0.000039
C25	C	1.449060	-0.213577	0.000034
C26	C	1.338901	-0.264895	0.000018
C27	C	1.305705	-0.373618	0.000016
C28	C	1.261935	-0.207499	0.000022
C29	C	1.151776	-0.258817	0.000007
C30	C	1.118585	-0.367530	0.000003
C31	C	1.195547	-0.424936	0.000008
C32	C	1.295131	-0.098776	0.000025
C33	C	1.108006	-0.092698	0.000013
C34	C	1.074814	-0.201411	0.000002
C35	C	1.493161	0.274998	0.000027
C36	C	1.612110	0.288460	0.000023
C37	C	1.347347	0.453280	0.000022
C38	C	1.382672	0.568986	0.000020
N39	N	1.285121	0.282472	0.292933
N40	N	1.315720	0.245127	-0.292882
C41	C	1.377114	0.170089	0.529585
C42	C	1.370955	0.177629	0.647927
C43	C	1.266638	0.305086	0.647959
C44	C	1.272797	0.297546	0.529618
C45	C	1.328038	0.230047	0.470435
C46	C	1.334203	0.222513	0.352091
C47	C	1.229880	0.349963	0.352126
C48	C	1.223721	0.357503	0.470468
H49	H	0.596064	0.119896	0.000111
C50	C	1.569097	-0.511651	-0.096611
C51	C	1.577417	-0.442796	0.000036
H52	H	1.621327	-0.550601	-0.096605
H53	H	1.498747	-0.557762	-0.096606
H54	H	1.581593	-0.473280	-0.162166
H55	H	1.564913	-0.481168	0.065592
H56	H	1.647783	-0.396679	0.000042
H57	H	1.379187	0.167555	0.303905
C58	C	1.011666	0.483632	-0.096612
C59	C	1.024822	0.436187	0.000027
H60	H	1.059458	0.551420	-0.096600
H61	H	1.027435	0.443093	-0.162166
H62	H	0.939185	0.488575	-0.096599
H63	H	1.097302	0.431237	0.000009
H64	H	1.009061	0.476736	0.065597
H65	H	1.476092	-0.125058	0.000044
C66	C	1.064757	0.390874	0.315724
C67	C	1.175933	0.415876	0.287104
H68	H	1.031462	0.431573	0.275585
H69	H	1.034221	0.319085	0.296322
H70	H	1.053193	0.405025	0.394676
H71	H	1.187498	0.401717	0.208153
H72	H	1.206479	0.487682	0.306499
C73	C	0.940852	-0.365372	-0.000003
C74	C	0.953727	-0.257827	-0.000004
H75	H	0.866097	-0.400198	0.000001
H76	H	0.977278	-0.388604	-0.065560
H77	H	0.970434	-0.380248	0.065565
H78	H	0.924152	-0.242950	-0.065576
H79	H	0.917287	-0.234587	0.065561
H80	H	1.028886	-0.409309	-0.000001
H81	H	0.749154	0.045295	0.000027
H82	H	0.648916	0.459381	0.000037
C83	C	1.075798	0.076651	-0.000006
C84	C	1.023400	-0.029609	-0.000001
H85	H	1.023569	0.115602	-0.000020
H86	H	1.116242	0.097391	0.065556
H87	H	1.123108	0.089027	-0.065569
H88	H	0.976096	-0.041986	0.065567
H89	H	0.982938	-0.050355	-0.065569
H90	H	1.221653	0.360035	0.696162
C91	C	1.676956	-0.158407	-0.096593
C92	C	1.647103	-0.214578	0.000048
H93	H	1.751710	-0.123581	-0.096583
H94	H	1.663548	-0.204868	-0.162145
H95	H	1.635866	-0.108664	-0.096581
H96	H	1.688188	-0.264327	0.000032
H97	H	1.660522	-0.168113	0.065617
H98	H	1.422103	0.115136	0.481398
H99	H	1.168527	-0.513460	-0.000005
H100	H	1.178741	0.412457	0.518668
C101	C	1.379867	0.005895	0.684341
C102	C	1.424902	0.111723	0.712946
H103	H	1.413177	-0.034793	0.724478
H104	H	1.304454	-0.011053	0.703756
H105	H	1.391447	-0.008241	0.605388
H106	H	1.413316	0.125861	0.791898
H107	H	1.500333	0.128678	0.693538
C108	C	0.858595	0.558215	-0.096619
C109	C	0.871745	0.510779	0.000029
H110	H	0.906392	0.626000	-0.096615
H111	H	0.874358	0.517666	-0.162166
H112	H	0.786116	0.563165	-0.096608
H113	H	0.944222	0.505822	0.000014
H114	H	0.855989	0.551338	0.065594
C115	C	1.469887	-0.076651	-0.096620
C116	C	1.416213	-0.042373	0.000028
H117	H	1.544641	-0.041824	-0.096622
H118	H	1.461130	-0.149604	-0.096610
H119	H	1.440301	-0.061755	-0.162174
H120	H	1.445794	-0.057276	0.065583
H121	H	1.424977	0.030597	0.000029
C122	C	0.878269	-0.046977	0.000006
C123	C	0.963699	0.043363	0.000013
H124	H	0.906312	-0.106181	-0.000009
H125	H	0.831864	-0.043843	0.065566
H126	H	0.838705	-0.052183	-0.065559
H127	H	1.003259	0.048572	0.065582
H128	H	1.010123	0.040228	-0.065555
