data_functionalizedCrystal
_audit_creation_method	'MofGen! by Chris Wilmer'
_symmetry_space_group_name_H-M	'P1'
_symmetry_Int_Tables_number	1
_symmetry_cell_setting	triclinic
loop_
_symmetry_equiv_pos_as_xyz
  x,y,z
_cell_length_a	14.971486
_cell_length_b	13.596369
_cell_length_c	14.971486
_cell_angle_alpha	89.993803
_cell_angle_beta	96.385871
_cell_angle_gamma	90.000368
loop_
_atom_site_label
_atom_site_type_symbol
_atom_site_fract_x
_atom_site_fract_y
_atom_site_fract_z
O1	O	1.186946	0.081679	-0.116564
O2	O	0.926545	0.081706	-0.130523
O3	O	1.063725	0.081684	0.006656
O4	O	1.049766	0.081700	-0.253744
O5	O	1.063711	-0.081898	0.006664
O6	O	0.926532	-0.081877	-0.130516
O7	O	1.186932	-0.081904	-0.116557
Zn8	Zn	1.056730	-0.107863	-0.123535
Zn9	Zn	1.056748	0.107665	-0.123545
O10	O	1.049752	-0.081883	-0.253736
C11	C	0.893214	-0.000082	-0.129895
C12	C	0.793917	-0.000072	-0.128024
N13	N	1.056724	-0.254955	-0.123528
C14	C	0.736692	-0.000069	-0.208614
C15	C	0.643392	-0.000084	-0.206850
C16	C	0.607320	-0.000095	-0.124497
C17	C	0.664552	-0.000101	-0.043902
C18	C	0.757850	-0.000094	-0.045666
C19	C	0.470090	-0.000115	-0.040231
C20	C	0.376786	-0.000121	-0.038466
C21	C	0.355632	-0.000105	-0.201415
C22	C	0.448930	-0.000098	-0.203179
C23	C	0.506156	-0.000102	-0.122584
C24	C	1.056746	-0.656246	-0.123546
C25	C	1.056738	-0.544594	-0.123544
C26	C	1.056736	-0.455604	-0.123538
C27	C	1.056726	-0.343945	-0.123534
C28	C	1.220263	-0.000114	-0.117185
C29	C	1.319561	-0.000118	-0.119056
C30	C	1.063094	-0.000107	0.039985
C31	C	1.061223	-0.000106	0.139282
N32	N	1.056761	0.254756	-0.123545
C33	C	1.050384	-0.000090	-0.287065
C34	C	1.052254	-0.000084	-0.386362
C35	C	1.141812	-0.000115	0.196507
C36	C	1.140049	-0.000105	0.289807
C37	C	1.057696	-0.000092	0.325879
C38	C	0.977101	-0.000080	0.268646
C39	C	0.978865	-0.000084	0.175349
C40	C	0.973430	-0.000077	0.463109
C41	C	0.971665	-0.000075	0.556413
C42	C	1.134614	-0.000098	0.577567
C43	C	1.136378	-0.000101	0.484269
C44	C	1.055782	-0.000090	0.427043
H45	H	0.766054	-0.000059	-0.275675
C46	C	0.532330	0.000037	0.047203
C47	C	0.586519	0.084189	0.050931
C48	C	0.643875	0.084362	0.131452
H49	H	0.497601	0.000083	0.096578
H50	H	0.569223	-0.056975	0.049912
H51	H	0.549630	0.141186	0.048230
H52	H	0.621268	0.084160	0.001575
H53	H	0.680768	0.027350	0.134161
H54	H	0.609138	0.084406	0.180821
H55	H	0.680654	0.141453	0.133988
H56	H	1.208874	-0.000130	0.167145
H57	H	0.596802	-0.000080	-0.272474
C58	C	0.487923	-0.000134	-0.292681
C59	C	0.417840	-0.000159	-0.362887
C60	C	0.453727	-0.000209	-0.445348
H61	H	0.523863	0.056898	-0.296884
H62	H	0.523857	-0.057199	-0.296799
H63	H	0.381922	0.056900	-0.358771
H64	H	0.381895	-0.057187	-0.358714
H65	H	0.489661	-0.057274	-0.449466
H66	H	0.489666	0.056825	-0.449541
H67	H	0.406182	-0.000235	-0.492992
H68	H	0.904606	-0.000081	0.585780
H69	H	1.203437	-0.000117	0.454903
C70	C	0.885829	-0.000114	0.401124
C71	C	0.813329	-0.000131	0.452681
C72	C	0.732621	-0.000182	0.395613
H73	H	0.883007	0.056915	0.364263
H74	H	0.883077	-0.057182	0.364308
H75	H	0.816080	0.056932	0.489482
H76	H	0.816121	-0.057155	0.489541
H77	H	0.729868	-0.057250	0.358797
H78	H	0.729808	0.056848	0.358754
H79	H	0.683420	-0.000202	0.430585
H80	H	0.635175	-0.000124	0.023152
C81	C	0.891298	0.000079	0.113319
C82	C	0.841716	0.084233	0.129640
C83	C	0.761039	0.084415	0.072525
H84	H	0.904016	0.000129	0.052559
H85	H	0.857477	-0.056932	0.124279
H86	H	0.875531	0.141229	0.118674
H87	H	0.828975	0.084201	0.190389
H88	H	0.727217	0.027405	0.083484
H89	H	0.773765	0.084463	0.011768
H90	H	0.727384	0.141508	0.083596
H91	H	0.309033	-0.000106	-0.267039
H92	H	0.347419	-0.000131	0.028593
H93	H	0.804443	-0.000096	0.019958
H94	H	1.205673	-0.000114	0.336396
H95	H	1.200238	-0.000103	0.624165
H96	H	0.910047	-0.000064	0.298024
