data_functionalizedCrystal
_audit_creation_method	'MofGen! by Chris Wilmer'
_symmetry_space_group_name_H-M	'P1'
_symmetry_Int_Tables_number	1
_symmetry_cell_setting	triclinic
loop_
_symmetry_equiv_pos_as_xyz
  x,y,z
_cell_length_a	19.805407
_cell_length_b	19.805405
_cell_length_c	19.805399
_cell_angle_alpha	90.029301
_cell_angle_beta	90.019573
_cell_angle_gamma	90.026410
loop_
_atom_site_label
_atom_site_type_symbol
_atom_site_fract_x
_atom_site_fract_y
_atom_site_fract_z
Zn1	Zn	1.034736	-0.269479	0.382712
Zn2	Zn	1.368069	0.063854	0.716045
Zn3	Zn	1.701402	0.397188	1.049378
Zn4	Zn	1.034651	-0.382667	0.269520
Zn5	Zn	1.367984	-0.049334	0.602853
Zn6	Zn	1.701317	0.283999	0.936187
Zn7	Zn	0.921550	-0.269498	0.269536
Zn8	Zn	1.254884	0.063836	0.602869
Zn9	Zn	1.588217	0.397169	0.936203
Zn10	Zn	0.921514	-0.382631	0.382667
Zn11	Zn	1.254847	-0.049298	0.716000
Zn12	Zn	1.588180	0.284035	1.049333
O13	O	0.978113	-0.326069	0.326109
O14	O	1.311446	0.007265	0.659442
O15	O	1.644779	0.340598	0.992775
O16	O	1.129441	-0.284501	0.367708
O17	O	1.462774	0.048833	0.701042
O18	O	1.796108	0.382166	1.034375
O19	O	1.019627	-0.367678	0.174805
O20	O	1.352960	-0.034345	0.508139
O21	O	1.686294	0.298989	0.841472
O22	O	0.936616	-0.174778	0.284575
O23	O	1.269949	0.158555	0.617908
O24	O	1.603282	0.491888	0.951241
O25	O	1.129378	-0.367660	0.284547
O26	O	1.462712	-0.034326	0.617880
O27	O	1.796045	0.299007	0.951214
O28	O	1.019772	-0.174765	0.367724
O29	O	1.353106	0.158569	0.701058
O30	O	1.686439	0.491902	1.034391
O31	O	0.936533	-0.284533	0.174817
O32	O	1.269866	0.048801	0.508151
O33	O	1.603200	0.382134	0.841484
O34	O	0.826829	-0.284498	0.284531
O35	O	1.160162	0.048836	0.617864
O36	O	1.493496	0.382169	0.951198
O37	O	0.936553	-0.367598	0.477389
O38	O	1.269887	-0.034265	0.810723
O39	O	1.603220	0.299068	1.144056
O40	O	0.826802	-0.367617	0.367648
O41	O	1.160135	-0.034283	0.700981
O42	O	1.493469	0.299050	1.034314
O43	O	1.019737	-0.284466	0.477422
O44	O	1.353070	0.048867	0.810756
O45	O	1.686404	0.382201	1.144089
O46	O	1.019592	-0.477379	0.284503
O47	O	1.352925	-0.144046	0.617837
O48	O	1.686258	0.189288	0.951170
O49	O	0.936471	-0.477353	0.367632
O50	O	1.269804	-0.144019	0.700965
O51	O	1.603137	0.189314	1.034299
C52	C	0.802257	-0.326056	0.326087
C53	C	1.135590	0.007278	0.659420
C54	C	1.468923	0.340611	0.992753
C55	C	0.727025	-0.326067	0.326093
C56	C	1.060358	0.007267	0.659427
C57	C	1.393691	0.340600	0.992760
C58	C	0.978036	-0.501925	0.326076
C59	C	1.311370	-0.168591	0.659409
C60	C	1.644703	0.164742	0.992742
C61	C	0.978066	-0.577157	0.326084
C62	C	1.311399	-0.243823	0.659418
C63	C	1.644732	0.089510	0.992751
C64	C	0.691684	-0.369412	0.369302
C65	C	1.025018	-0.036078	0.702635
C66	C	1.358351	0.297255	1.035969
C67	C	0.620996	-0.369413	0.369312
C68	C	0.954329	-0.036080	0.702645
C69	C	1.287662	0.297254	1.035978
C70	C	0.585649	-0.326072	0.326109
C71	C	0.918982	0.007262	0.659442
C72	C	1.252316	0.340595	0.992775
C73	C	0.620994	-0.282722	0.282898
C74	C	0.954328	0.050611	0.616231
C75	C	1.287661	0.383945	0.949565
C76	C	0.691681	-0.282718	0.282892
C77	C	1.025015	0.050616	0.616226
C78	C	1.358348	0.383949	0.949559
C79	C	0.335921	-0.282737	0.282920
C80	C	0.669254	0.050596	0.616254
C81	C	1.002588	0.383930	0.949587
C82	C	0.265229	-0.282746	0.282928
C83	C	0.598562	0.050588	0.616261
C84	C	0.931896	0.383921	0.949594
C85	C	0.265235	-0.369432	0.369340
C86	C	0.598569	-0.036099	0.702673
C87	C	0.931902	0.297235	1.036006
C88	C	0.335922	-0.369428	0.369334
C89	C	0.669256	-0.036094	0.702667
C90	C	1.002589	0.297239	1.036001
C91	C	0.371262	-0.326076	0.326126
C92	C	0.704595	0.007258	0.659460
C93	C	1.037928	0.340591	0.992793
C94	C	0.447910	-0.326074	0.326117
C95	C	0.781243	0.007259	0.659451
C96	C	1.114577	0.340593	0.992784
C97	C	0.509002	-0.326076	0.326114
C98	C	0.842335	0.007257	0.659447
C99	C	1.175669	0.340590	0.992780
C100	C	1.021389	-0.612492	0.282845
C101	C	1.354722	-0.279159	0.616178
C102	C	1.688056	0.054174	0.949511
C103	C	1.021418	-0.683181	0.282860
C104	C	1.354751	-0.349847	0.616193
C105	C	1.688084	-0.016514	0.949526
C106	C	0.978119	-0.718532	0.326111
C107	C	1.311453	-0.385199	0.659445
C108	C	1.644786	-0.051866	0.992778
C109	C	0.934794	-0.683192	0.369356
C110	C	1.268128	-0.349859	0.702689
C111	C	1.601461	-0.016525	1.036023
C112	C	0.934769	-0.612505	0.369344
C113	C	1.268103	-0.279171	0.702677
C114	C	1.601436	0.054162	1.036010
C115	C	0.934894	-0.968265	0.369406
C116	C	1.268227	-0.634932	0.702739
C117	C	1.601561	-0.301598	1.036073
C118	C	0.934921	-1.038957	0.369413
C119	C	1.268254	-0.705624	0.702747
C120	C	1.601588	-0.372291	1.036080
C121	C	1.021542	-1.038941	0.282922
C122	C	1.354876	-0.705608	0.616255
C123	C	1.688209	-0.372274	0.949589
C124	C	1.021517	-0.968254	0.282910
C125	C	1.354851	-0.634921	0.616243
C126	C	1.688184	-0.301587	0.949577
C127	C	0.978195	-0.932920	0.326157
C128	C	1.311529	-0.599586	0.659490
C129	C	1.644862	-0.266253	0.992823
C130	C	0.978166	-0.856271	0.326141
C131	C	1.311499	-0.522938	0.659474
C132	C	1.644832	-0.189605	0.992807
C133	C	0.978145	-0.795179	0.326124
C134	C	1.311478	-0.461846	0.659458
C135	C	1.644812	-0.128513	0.992791
C136	C	1.154655	-0.326082	0.326131
C137	C	1.487989	0.007251	0.659464
C138	C	1.821322	0.340584	0.992798
C139	C	1.229887	-0.326088	0.326140
C140	C	1.563221	0.007245	0.659474
C141	C	1.896554	0.340579	0.992807
C142	C	0.978151	-0.326026	0.502651
C143	C	1.311484	0.007307	0.835985
C144	C	1.644817	0.340641	1.169318
C145	C	0.978167	-0.326008	0.577883
C146	C	1.311500	0.007325	0.911217
C147	C	1.644833	0.340659	1.244550
C148	C	0.978207	-0.149526	0.326156
C149	C	1.311541	0.183807	0.659490
C150	C	1.644874	0.517141	0.992823
C151	C	0.978248	-0.074294	0.326177
C152	C	1.311581	0.259039	0.659510
C153	C	1.644915	0.592373	0.992843
C154	C	0.978114	-0.326062	0.150253
C155	C	1.311447	0.007271	0.483586
C156	C	1.644780	0.340604	0.816919
C157	C	0.978229	-0.325890	0.075021
C158	C	1.311562	0.007443	0.408354
C159	C	1.644895	0.340777	0.741688
C160	C	1.021481	-0.282719	0.613246
C161	C	1.354815	0.050615	0.946579
C162	C	1.688148	0.383948	1.279912
C163	C	1.021488	-0.282699	0.683934
C164	C	1.354822	0.050634	1.017268
C165	C	1.688155	0.383968	1.350601
C166	C	0.978184	-0.325973	0.719259
C167	C	1.311517	0.007361	1.052592
C168	C	1.644850	0.340694	1.385926
C169	C	0.934864	-0.369264	0.683892
C170	C	1.268197	-0.035930	1.017225
C171	C	1.601531	0.297403	1.350558
C172	C	0.934854	-0.369279	0.613204
C173	C	1.268188	-0.035946	0.946538
C174	C	1.601521	0.297387	1.279871
C175	C	0.934902	-0.369201	0.968965
C176	C	1.268236	-0.035867	1.302298
C177	C	1.601569	0.297466	1.635632
C178	C	0.934917	-0.369183	1.039657
C179	C	1.268250	-0.035850	1.372991
C180	C	1.601584	0.297484	1.706324
C181	C	1.021536	-0.282620	1.039695
C182	C	1.354870	0.050713	1.373028
C183	C	1.688203	0.384046	1.706362
C184	C	1.021527	-0.282636	0.969008
C185	C	1.354860	0.050697	1.302341
C186	C	1.688193	0.384031	1.635674
C187	C	0.978205	-0.325924	0.933647
C188	C	1.311538	0.007409	1.266980
C189	C	1.644872	0.340742	1.600313
C190	C	0.978197	-0.325944	0.856998
C191	C	1.311530	0.007389	1.190331
C192	C	1.644864	0.340723	1.523665
C193	C	0.978194	-0.325957	0.795906
C194	C	1.311528	0.007377	1.129240
C195	C	1.644861	0.340710	1.462573
H196	H	0.720458	-0.404707	0.404481
H197	H	1.053792	-0.071374	0.737814
H198	H	1.387125	0.261959	1.071148
F199	F	0.888786	-0.930669	0.415432
F200	F	1.222119	-0.597335	0.748766
F201	F	1.555453	-0.264002	1.082099
F202	F	0.888835	-1.076580	0.415451
F203	F	1.222169	-0.743246	0.748784
F204	F	1.555502	-0.409913	1.082118
F205	F	0.888823	-0.415243	1.077251
F206	F	1.222157	-0.081909	1.410584
F207	F	1.555490	0.251424	1.743918
F208	F	0.227619	-0.415571	0.415326
F209	F	0.560953	-0.082238	0.748660
F210	F	0.894286	0.251096	1.081993
H211	H	0.899543	-0.711981	0.404575
H212	H	1.232876	-0.378648	0.737908
H213	H	1.566210	-0.045314	1.071242
H214	H	0.899492	-0.583735	0.404555
H215	H	1.232826	-0.250402	0.737888
H216	H	1.566159	0.082931	1.071221
H217	H	1.056747	-0.247482	0.584489
H218	H	1.390081	0.085851	0.917823
H219	H	1.723414	0.419184	1.251156
H220	H	1.056761	-0.247450	0.712723
H221	H	1.390094	0.085883	1.046057
H222	H	1.723428	0.419217	1.379390
F223	F	0.583387	-0.415547	0.415301
F224	F	0.916720	-0.082213	0.748634
F225	F	1.250054	0.251120	1.081967
H226	H	1.056695	-0.711948	0.247649
H227	H	1.390029	-0.378614	0.580983
H228	H	1.723362	-0.045281	0.914316
H229	H	1.056792	-0.247400	0.940250
H230	H	1.390125	0.085933	1.273583
H231	H	1.723459	0.419266	1.606916
H232	H	0.899602	-0.404495	0.712659
H233	H	1.232935	-0.071162	1.045992
H234	H	1.566269	0.262171	1.379325
F235	F	1.067642	-0.236546	1.077334
F236	F	1.400975	0.096787	1.410668
F237	F	1.734308	0.430121	1.744001
H238	H	0.364698	-0.404723	0.404512
H239	H	0.698032	-0.071390	0.737845
H240	H	1.031365	0.261944	1.071179
F241	F	0.888796	-0.415272	0.931340
F242	F	1.222129	-0.081939	1.264673
F243	F	1.555462	0.251395	1.598007
F244	F	0.888751	-0.415352	0.575570
F245	F	1.222084	-0.082019	0.908903
F246	F	1.555418	0.251314	1.242236
F247	F	0.227612	-0.236613	0.236944
F248	F	0.560945	0.096720	0.570277
F249	F	0.894278	0.430054	0.903610
H250	H	0.592209	-0.247430	0.247724
H251	H	0.925543	0.085903	0.581058
H252	H	1.258876	0.419237	0.914391
F253	F	0.373523	-0.236596	0.236936
F254	F	0.706856	0.096737	0.570270
F255	F	1.040189	0.430071	0.903603
H256	H	1.056820	-1.067719	0.247711
H257	H	1.390153	-0.734385	0.581044
H258	H	1.723487	-0.401052	0.914378
F259	F	0.729293	-0.236583	0.236905
F260	F	1.062626	0.096751	0.570238
F261	F	1.395960	0.430084	0.903572
F262	F	1.067470	-0.574875	0.236805
F263	F	1.400803	-0.241541	0.570139
F264	F	1.734136	0.091792	0.903472
H265	H	1.056773	-0.939473	0.247688
H266	H	1.390106	-0.606139	0.581021
H267	H	1.723439	-0.272806	0.914355
