data_functionalizedCrystal
_audit_creation_method	'MofGen! by Chris Wilmer'
_symmetry_space_group_name_H-M	'P1'
_symmetry_Int_Tables_number	1
_symmetry_cell_setting	triclinic
loop_
_symmetry_equiv_pos_as_xyz
  x,y,z
_cell_length_a	12.759401
_cell_length_b	25.639239
_cell_length_c	25.639233
_cell_angle_alpha	90.018747
_cell_angle_beta	90.011593
_cell_angle_gamma	90.040211
loop_
_atom_site_label
_atom_site_type_symbol
_atom_site_fract_x
_atom_site_fract_y
_atom_site_fract_z
Zn1	Zn	1.605994	-0.208193	0.295595
Zn2	Zn	1.605841	-0.295612	0.208159
Zn3	Zn	1.430322	-0.208195	0.208175
Zn4	Zn	1.430211	-0.295602	0.295565
O5	O	1.518092	-0.251900	0.251874
O6	O	1.752995	-0.219793	0.284002
O7	O	1.582539	-0.284021	0.134996
O8	O	1.453736	-0.135029	0.219790
O9	O	1.752882	-0.284019	0.219763
O10	O	1.582801	-0.135028	0.284017
O11	O	1.453586	-0.219796	0.135008
O12	O	1.283286	-0.219786	0.219762
O13	O	1.453548	-0.284002	0.368734
O14	O	1.283205	-0.284003	0.283967
O15	O	1.582694	-0.219783	0.368756
O16	O	1.582432	-0.368776	0.219735
O17	O	1.453398	-0.368768	0.283952
C18	C	1.245125	-0.251894	0.251863
C19	C	1.128348	-0.251904	0.251871
C20	C	1.073471	-0.285393	0.285250
C21	C	0.963747	-0.285395	0.285260
C22	C	0.963786	-0.218417	0.218508
C23	C	1.073508	-0.218413	0.218501
C24	C	1.517915	-0.387743	0.251850
C25	C	1.517936	-0.445857	0.251857
C26	C	1.585455	-0.806211	0.218493
C27	C	1.585496	-0.860816	0.218500
O28	O	1.642720	-0.889045	0.190106
N29	N	1.518277	-0.888139	0.251908
C30	C	1.451020	-0.860856	0.285315
O31	O	1.393849	-0.889111	0.313733
C32	C	1.450985	-0.806253	0.285311
C33	C	1.518201	-0.778932	0.251896
C34	C	1.652667	-0.778890	0.185082
C35	C	1.652624	-0.724290	0.185074
C36	C	1.585370	-0.697010	0.218478
C37	C	1.518159	-0.724331	0.251889
C38	C	1.383734	-0.778970	0.318720
C39	C	1.383706	-0.724363	0.318713
C40	C	1.450922	-0.697042	0.285299
C41	C	1.450863	-0.642451	0.285285
N42	N	1.518082	-0.615127	0.251877
C43	C	1.585336	-0.642407	0.218473
C44	C	1.451099	-0.975527	0.285324
C45	C	1.451127	-1.030129	0.285326
C46	C	1.585605	-1.030085	0.218511
C47	C	1.585571	-0.975482	0.218506
C48	C	1.518318	-0.948203	0.251915
C49	C	1.585241	-0.527742	0.218459
C50	C	1.585190	-0.473137	0.218453
C51	C	1.450716	-0.473185	0.285270
C52	C	1.450763	-0.527786	0.285274
C53	C	1.518034	-0.555063	0.251867
O54	O	1.393671	-0.614187	0.313666
O55	O	1.642507	-0.614145	0.190065
C56	C	1.792125	-0.251907	0.251884
C57	C	1.908902	-0.251910	0.251889
C58	C	1.518126	-0.251891	0.388247
C59	C	1.518140	-0.251887	0.446361
C60	C	1.518298	-0.115527	0.251909
C61	C	1.518386	-0.057413	0.251924
C62	C	1.518119	-0.251872	0.116031
C63	C	1.518308	-0.251728	0.057917
C64	C	1.585472	-0.218349	0.806741
C65	C	1.585485	-0.218335	0.861345
O66	O	1.642649	-0.189881	0.889596
N67	N	1.518256	-0.251765	0.888643
C68	C	1.451002	-0.285208	0.861334
O69	O	1.393819	-0.313641	0.889567
C70	C	1.450985	-0.285219	0.806731
C71	C	1.518226	-0.251791	0.779436
C72	C	1.652707	-0.184923	0.779445
C73	C	1.652695	-0.184939	0.724845
C74	C	1.585449	-0.218380	0.697540
C75	C	1.518214	-0.251806	0.724835
C76	C	1.383726	-0.318659	0.779423
C77	C	1.383714	-0.318667	0.724816
C78	C	1.450955	-0.285239	0.697521
C79	C	1.450955	-0.285262	0.642929
N80	N	1.518184	-0.251833	0.615631
C81	C	1.585431	-0.218391	0.642936
C82	C	1.451043	-0.285180	0.976005
C83	C	1.451065	-0.285172	1.030607
C84	C	1.585547	-0.218298	1.030614
C85	C	1.585529	-0.218310	0.976011
C86	C	1.518272	-0.251750	0.948707
C87	C	1.585402	-0.218426	0.528271
C88	C	1.585387	-0.218446	0.473666
C89	C	1.450901	-0.285317	0.473663
C90	C	1.450920	-0.285300	0.528264
C91	C	1.518173	-0.251850	0.555567
O92	O	1.393818	-0.313700	0.614643
O93	O	1.642595	-0.189958	0.614696
H94	H	1.639925	-0.450894	0.191241
H95	H	1.118190	-0.191139	0.191320
O96	O	1.318531	-0.351179	0.698233
C97	C	1.378292	-0.384967	0.666660
H98	H	1.457938	-0.366531	0.658486
H99	H	1.335481	-0.391984	0.628260
H100	H	1.389780	-0.423708	0.687703
H101	H	1.118119	-0.312662	0.312424
O102	O	1.650833	-0.185919	0.554707
C103	C	1.710148	-0.156414	0.518897
H104	H	1.713731	-0.177845	0.479975
H105	H	1.792943	-0.150836	0.534672
H106	H	1.671737	-0.116705	0.513089
O107	O	1.718093	-0.152530	0.698304
C108	C	1.785892	-0.182286	0.666698
H109	H	1.792368	-0.223462	0.683143
H110	H	1.866757	-0.163360	0.666077
H111	H	1.753378	-0.184097	0.625317
O112	O	1.385710	-0.317577	1.057178
C113	C	1.317880	-0.287805	1.088754
H114	H	1.354988	-0.248180	1.096941
H115	H	1.303780	-0.309095	1.127147
H116	H	1.240025	-0.282067	1.067706
H117	H	0.919072	-0.312664	0.312442
O118	O	1.650446	-0.554296	0.185989
C119	C	1.590716	-0.585923	0.152185
H120	H	1.511073	-0.594140	0.170586
H121	H	1.633558	-0.624299	0.145208
H122	H	1.579219	-0.564906	0.113429
H123	H	1.707361	-0.702048	0.157867
O124	O	1.718034	-0.805304	0.152580
C125	C	1.777359	-0.769470	0.123104
H126	H	1.734294	-0.730572	0.121281
H127	H	1.788629	-0.785249	0.081913
H128	H	1.857124	-0.763613	0.142283
H129	H	1.707468	-0.157688	0.801672
O130	O	1.385512	-0.317792	0.554701
C131	C	1.326181	-0.347323	0.518889
H132	H	1.322573	-0.325919	0.479966
H133	H	1.243396	-0.352894	0.534658
H134	H	1.364595	-0.387034	0.513084
O135	O	1.650713	-0.185750	1.057166
C136	C	1.590941	-0.151985	1.088758
H137	H	1.508197	-0.148764	1.072296
H138	H	1.628988	-0.111746	1.089385
H139	H	1.587305	-0.168141	1.130139
H140	H	0.919122	-0.191151	0.191339
O141	O	1.650966	-0.949025	0.186033
C142	C	1.710305	-0.984818	0.156542
H143	H	1.713932	-1.023730	0.177965
H144	H	1.793083	-0.969007	0.150998
H145	H	1.671886	-0.990662	0.116818
H146	H	1.640371	-1.052306	0.191314
O147	O	1.385545	-0.446655	0.317774
C148	C	1.445312	-0.415016	0.351549
H149	H	1.528060	-0.431433	0.354813
H150	H	1.407269	-0.414390	0.391772
H151	H	1.448934	-0.373640	0.335375
O152	O	1.385792	-1.056584	0.317830
C153	C	1.326408	-1.020791	0.347298
H154	H	1.369416	-0.981845	0.349119
H155	H	1.315152	-1.036550	0.388491
H156	H	1.246639	-1.015034	0.328115
H157	H	1.396325	-0.953319	0.312528
O158	O	1.318410	-0.805420	0.351231
C159	C	1.259039	-0.769623	0.380701
H160	H	1.302052	-0.730679	0.382516
H161	H	1.247792	-0.785379	0.421896
H162	H	1.179265	-0.763864	0.361522
O163	O	1.318558	-0.351191	0.805948
C164	C	1.378318	-0.384954	0.837539
H165	H	1.461063	-0.388184	0.821094
H166	H	1.340260	-0.425190	0.838138
H167	H	1.381954	-0.368790	0.878928
O168	O	1.318524	-0.697841	0.351222
C169	C	1.378271	-0.666199	0.385004
H170	H	1.461026	-0.682608	0.388270
H171	H	1.340220	-0.665583	0.425226
H172	H	1.381877	-0.624821	0.368836
O173	O	1.385434	-0.554248	0.317780
C174	C	1.326044	-0.518458	0.347250
H175	H	1.369040	-0.479509	0.349068
H176	H	1.314799	-0.534217	0.388443
H177	H	1.246270	-0.512708	0.328069
H178	H	1.640147	-0.191224	0.451444
O179	O	1.650875	-0.185786	0.949579
C180	C	1.710249	-0.156281	0.985396
H181	H	1.667227	-0.154466	1.024317
H182	H	1.721515	-0.115088	0.969629
H183	H	1.790014	-0.175429	0.991202
H184	H	1.396272	-0.312414	0.953777
H185	H	1.396154	-0.312546	0.451422
