data_functionalizedCrystal
_audit_creation_method	'MofGen! by Chris Wilmer'
_symmetry_space_group_name_H-M	'P1'
_symmetry_Int_Tables_number	1
_symmetry_cell_setting	triclinic
loop_
_symmetry_equiv_pos_as_xyz
  x,y,z
_cell_length_a	16.625548
_cell_length_b	29.839131
_cell_length_c	16.625539
_cell_angle_alpha	89.960252
_cell_angle_beta	89.979432
_cell_angle_gamma	90.036296
loop_
_atom_site_label
_atom_site_type_symbol
_atom_site_fract_x
_atom_site_fract_y
_atom_site_fract_z
Zn1	Zn	1.232609	-0.178840	-0.455845
Zn2	Zn	1.732609	0.321160	0.044155
Zn3	Zn	1.232482	-0.253971	-0.320985
Zn4	Zn	1.732482	0.246029	0.179015
Zn5	Zn	1.097771	-0.178857	-0.321026
Zn6	Zn	1.597771	0.321143	0.178974
Zn7	Zn	1.097711	-0.253945	-0.455775
Zn8	Zn	1.597711	0.246055	0.044225
O9	O	1.165143	-0.216403	-0.388408
O10	O	1.665143	0.283597	0.111592
O11	O	1.345425	-0.188810	-0.437968
O12	O	1.845425	0.311190	0.062032
O13	O	1.214584	-0.244025	-0.208158
O14	O	1.714584	0.255975	0.291842
O15	O	1.115735	-0.115987	-0.338956
O16	O	1.615735	0.384013	0.161044
O17	O	1.345331	-0.244008	-0.338887
O18	O	1.845331	0.255992	0.161113
O19	O	1.214800	-0.115975	-0.438007
O20	O	1.714800	0.384025	0.061993
O21	O	1.115612	-0.188839	-0.208188
O22	O	1.615612	0.311161	0.291812
O23	O	0.984930	-0.188814	-0.338888
O24	O	1.484930	0.311186	0.161112
O25	O	1.115634	-0.243964	-0.568617
O26	O	1.615634	0.256036	-0.068617
O27	O	0.984887	-0.243981	-0.437888
O28	O	1.484887	0.256019	0.062112
O29	O	1.214743	-0.188785	-0.568668
O30	O	1.714743	0.311215	-0.068668
O31	O	1.214526	-0.316834	-0.338820
O32	O	1.714526	0.183166	0.161180
O33	O	1.115511	-0.316815	-0.437849
O34	O	1.615511	0.183185	0.062151
C35	C	0.955652	-0.216397	-0.388385
C36	C	1.455652	0.283603	0.111615
C37	C	0.866031	-0.216405	-0.388395
C38	C	1.366031	0.283595	0.111605
C39	C	0.537856	-0.216408	-0.388429
C40	C	1.037856	0.283592	0.111571
C41	C	0.629164	-0.216406	-0.388417
C42	C	1.129164	0.283594	0.111583
C43	C	0.701941	-0.216406	-0.388411
C44	C	1.201941	0.283594	0.111589
C45	C	0.793255	-0.216404	-0.388401
C46	C	1.293255	0.283596	0.111599
C47	C	1.165020	-0.333126	-0.388340
C48	C	1.665020	0.166874	0.111660
C49	C	1.165041	-0.383060	-0.388338
C50	C	1.665041	0.116940	0.111662
C51	C	1.216715	-0.692662	-0.440057
C52	C	1.716715	-0.192662	0.059943
C53	C	1.216803	-0.880335	-0.440106
C54	C	1.716803	-0.380335	0.059894
O55	O	1.260617	-0.904565	-0.484029
O56	O	1.760617	-0.404565	0.015971
N57	N	1.165280	-0.903845	-0.388497
N58	N	1.665280	-0.403845	0.111503
C59	C	1.113728	-0.880434	-0.336877
C60	C	1.613728	-0.380434	0.163123
O61	O	1.069901	-0.904737	-0.292988
O62	O	1.569901	-0.404737	0.207012
C63	C	1.113637	-0.692762	-0.336833
C64	C	1.613637	-0.192762	0.163167
C65	C	1.165169	-0.669254	-0.388439
C66	C	1.665169	-0.169254	0.111561
C67	C	1.268242	-0.669154	-0.491660
C68	C	1.768242	-0.169154	0.008340
C69	C	1.268223	-0.622239	-0.491644
C70	C	1.768223	-0.122239	0.008356
C71	C	1.216677	-0.598831	-0.440026
C72	C	1.716677	-0.098831	0.059974
C73	C	1.165150	-0.622339	-0.388423
C74	C	1.665150	-0.122339	0.111577
C75	C	1.062082	-0.669352	-0.285217
C76	C	1.562082	-0.169352	0.214783
C77	C	1.062063	-0.622431	-0.285212
C78	C	1.562063	-0.122431	0.214788
C79	C	1.113594	-0.598923	-0.336818
C80	C	1.613594	-0.098923	0.163182
C81	C	1.113584	-0.552016	-0.336790
C82	C	1.613584	-0.052016	0.163210
N83	N	1.165107	-0.528505	-0.388398
N84	N	1.665107	-0.028505	0.111602
C85	C	1.216653	-0.551913	-0.440016
C86	C	1.716653	-0.051913	0.059984
C87	C	1.113781	-0.978965	-0.336902
C88	C	1.613781	-0.478965	0.163098
C89	C	1.113805	-1.025882	-0.336912
C90	C	1.613805	-0.525882	0.163088
C91	C	1.216878	-1.025780	-0.440142
C92	C	1.716878	-0.525780	0.059858
C93	C	1.216858	-0.978861	-0.440128
C94	C	1.716858	-0.478861	0.059872
C95	C	1.165303	-0.955455	-0.388511
C96	C	1.665303	-0.455455	0.111489
C97	C	1.216609	-0.453387	-0.439979
C98	C	1.716609	0.046613	0.060021
C99	C	1.216588	-0.406468	-0.439956
C100	C	1.716588	0.093532	0.060044
C101	C	1.113511	-0.406574	-0.336729
C102	C	1.613511	0.093426	0.163271
C103	C	1.113536	-0.453490	-0.336749
C104	C	1.613536	0.046510	0.163251
C105	C	1.165087	-0.476895	-0.388380
C106	C	1.665087	0.023105	0.111620
O107	O	1.069787	-0.527757	-0.292896
O108	O	1.569787	-0.027757	0.207104
O109	O	1.260461	-0.527602	-0.483911
O110	O	1.760461	-0.027602	0.016089
C111	C	1.216734	-0.739577	-0.440073
C112	C	1.716734	-0.239577	0.059927
C113	C	1.165208	-0.763085	-0.388471
C114	C	1.665208	-0.263085	0.111529
C115	C	1.113662	-0.739677	-0.336852
C116	C	1.613662	-0.239677	0.163148
C117	C	1.165231	-0.810003	-0.388480
C118	C	1.665231	-0.310003	0.111520
C119	C	1.216777	-0.833411	-0.440099
C120	C	1.716777	-0.333411	0.059901
C121	C	1.268300	-0.809901	-0.491707
C122	C	1.768300	-0.309901	0.008293
C123	C	1.268281	-0.762985	-0.491691
C124	C	1.768281	-0.262985	0.008309
C125	C	1.062139	-0.763187	-0.285244
C126	C	1.562139	-0.263187	0.214756
C127	C	1.062163	-0.810103	-0.285263
C128	C	1.562163	-0.310103	0.214737
C129	C	1.113709	-0.833511	-0.336882
C130	C	1.613709	-0.333511	0.163118
C131	C	1.375452	-0.216410	-0.388431
C132	C	1.875452	0.283590	0.111569
C133	C	1.465073	-0.216413	-0.388441
C134	C	1.965073	0.283587	0.111559
C135	C	1.165196	-0.216370	-0.598717
C136	C	1.665196	0.283630	-0.098717
C137	C	1.165218	-0.216355	-0.688338
C138	C	1.665218	0.283645	-0.188338
C139	C	1.165289	-0.099225	-0.388494
C140	C	1.665289	0.400775	0.111506
C141	C	1.165351	-0.049290	-0.388530
C142	C	1.665351	0.450710	0.111470
C143	C	1.165255	-0.216305	-1.016514
C144	C	1.665255	0.283695	-0.516514
C145	C	1.165243	-0.216320	-0.925205
C146	C	1.665243	0.283680	-0.425205
C147	C	1.165237	-0.216330	-0.852429
C148	C	1.665237	0.283670	-0.352429
C149	C	1.165224	-0.216345	-0.761115
C150	C	1.665224	0.283655	-0.261115
C151	C	1.165137	-0.216404	-0.178917
C152	C	1.665137	0.283596	0.321083
C153	C	1.165271	-0.216292	-0.089297
C154	C	1.665271	0.283708	0.410703
H155	H	1.258582	-0.472439	-0.482027
H156	H	1.758582	0.027561	0.017973
H157	H	1.071798	-0.959910	-0.294868
H158	H	1.571798	-0.459910	0.205132
C159	C	1.272436	-0.380969	-0.496126
C160	C	1.772436	0.119031	0.003874
C161	C	1.254821	-0.392345	-0.575890
C162	C	1.754821	0.107655	-0.075890
C163	C	1.306241	-0.368862	-0.627656
C164	C	1.806241	0.131138	-0.127656
H165	H	1.326650	-0.388620	-0.484487
H166	H	1.826650	0.111380	0.015513
H167	H	1.265039	-0.349669	-0.488782
H168	H	1.765039	0.150331	0.011218
H169	H	1.262225	-0.423638	-0.583231
H170	H	1.762225	0.076362	-0.083231
H171	H	1.200616	-0.384693	-0.587555
H172	H	1.700616	0.115307	-0.087555
H173	H	1.298844	-0.337562	-0.620311
H174	H	1.798844	0.162438	-0.120311
H175	H	1.360452	-0.376514	-0.616009
H176	H	1.860452	0.123486	-0.116009
H177	H	1.294292	-0.376574	-0.681781
H178	H	1.794292	0.123426	-0.181781
H179	H	1.310273	-0.828967	-0.533734
H180	H	1.810273	-0.328967	-0.033734
H181	H	1.020163	-0.744132	-0.243211
H182	H	1.520163	-0.244132	0.256789
H183	H	1.310182	-0.603102	-0.533669
H184	H	1.810182	-0.103102	-0.033669
C185	C	1.006039	-0.694785	-0.229160
C186	C	1.506039	-0.194785	0.270840
C187	C	0.960880	-0.664234	-0.183979
C188	C	1.460880	-0.164234	0.316021
C189	C	0.909233	-0.687646	-0.132337
C190	C	1.409233	-0.187646	0.367663
H191	H	1.036809	-0.713092	-0.193981
H192	H	1.536809	-0.213092	0.306019
H193	H	0.970853	-0.713079	-0.259960
H194	H	1.470853	-0.213079	0.240040
H195	H	0.996062	-0.645948	-0.153181
H196	H	1.496062	-0.145948	0.346819
H197	H	0.930093	-0.645927	-0.219136
H198	H	1.430093	-0.145927	0.280864
H199	H	0.874047	-0.705940	-0.163137
H200	H	1.374047	-0.205940	0.336863
H201	H	0.940010	-0.705952	-0.097164
H202	H	1.440010	-0.205952	0.402836
H203	H	0.878581	-0.666921	-0.101681
H204	H	1.378581	-0.166921	0.398319
H205	H	1.310217	-0.688208	-0.533699
H206	H	1.810217	-0.188208	-0.033699
H207	H	1.020078	-0.603375	-0.243180
H208	H	1.520078	-0.103375	0.256820
H209	H	1.258819	-0.959724	-0.482150
H210	H	1.758819	-0.459724	0.017850
C211	C	1.272751	-1.051281	-0.496160
C212	C	1.772751	-0.551281	0.003840
C213	C	1.261720	-1.097400	-0.485132
C214	C	1.761720	-0.597400	0.014868
C215	C	1.313161	-1.120907	-0.536730
C216	C	1.813161	-0.620907	-0.036730
H217	H	1.326966	-1.043627	-0.484470
H218	H	1.826966	-0.543627	0.015530
H219	H	1.260901	-1.043600	-0.550339
H220	H	1.760901	-0.543600	-0.050339
H221	H	1.273577	-1.105077	-0.430965
H222	H	1.773577	-0.605077	0.069035
H223	H	1.207516	-1.105066	-0.496827
H224	H	1.707516	-0.605066	0.003173
H225	H	1.301310	-1.113226	-0.590909
H226	H	1.801310	-0.613226	-0.090909
H227	H	1.367373	-1.113250	-0.525036
H228	H	1.867373	-0.613250	-0.025036
H229	H	1.305678	-1.152201	-0.529259
H230	H	1.805678	-0.652201	-0.029259
C231	C	1.057503	-0.478934	-0.280686
C232	C	1.557503	0.021066	0.219314
C233	C	1.012346	-0.448390	-0.235490
C234	C	1.512346	0.051610	0.264510
C235	C	0.960707	-0.471809	-0.183850
C236	C	1.460707	0.028191	0.316150
H237	H	1.088280	-0.497244	-0.245517
H238	H	1.588280	0.002756	0.254483
H239	H	1.022316	-0.497226	-0.311489
H240	H	1.522316	0.002774	0.188511
H241	H	1.047529	-0.430106	-0.204689
H242	H	1.547529	0.069894	0.295311
H243	H	0.981554	-0.430079	-0.270637
H244	H	1.481554	0.069921	0.229363
H245	H	0.925520	-0.490101	-0.214653
H246	H	1.425520	0.009899	0.285347
H247	H	0.991490	-0.490118	-0.148687
H248	H	1.491490	0.009882	0.351313
H249	H	0.930057	-0.451089	-0.153183
H250	H	1.430057	0.048911	0.346817
C251	C	1.324325	-0.737443	-0.547593
C252	C	1.824325	-0.237443	-0.047593
C253	C	1.376040	-0.710511	-0.501988
C254	C	1.876040	-0.210511	-0.001988
C255	C	1.427687	-0.686983	-0.553461
C256	C	1.927687	-0.186983	-0.053461
H257	H	1.293549	-0.719103	-0.582711
H258	H	1.793549	-0.219103	-0.082711
H259	H	1.355069	-0.758094	-0.578320
H260	H	1.855069	-0.258094	-0.078320
H261	H	1.345299	-0.689862	-0.471275
H262	H	1.845299	-0.189862	0.028725
H263	H	1.406834	-0.728840	-0.466873
H264	H	1.906834	-0.228840	0.033127
H265	H	1.458431	-0.707635	-0.584188
H266	H	1.958431	-0.207635	-0.084188
H267	H	1.396904	-0.668646	-0.588576
H268	H	1.896904	-0.168646	-0.088576
H269	H	1.462786	-0.668711	-0.522525
H270	H	1.962786	-0.168711	-0.022525
C271	C	1.057774	-1.051321	-0.280845
C272	C	1.557774	-0.551321	0.219155
C273	C	1.012614	-1.020773	-0.235658
C274	C	1.512614	-0.520773	0.264342
C275	C	0.960978	-1.044189	-0.184010
C276	C	1.460978	-0.544189	0.315990
H277	H	1.088552	-1.069626	-0.245671
H278	H	1.588552	-0.569626	0.254329
H279	H	1.022588	-1.069617	-0.311641
H280	H	1.522588	-0.569617	0.188359
H281	H	1.047796	-1.002485	-0.204863
H282	H	1.547796	-0.502485	0.295137
H283	H	0.981820	-1.002467	-0.270810
H284	H	1.481820	-0.502467	0.229190
H285	H	0.925792	-1.062485	-0.214807
H286	H	1.425792	-0.562485	0.285193
H287	H	0.991762	-1.062493	-0.148841
H288	H	1.491762	-0.562493	0.351159
H289	H	0.930326	-1.023466	-0.153350
H290	H	1.430326	-0.523466	0.346650
C291	C	1.057578	-0.381073	-0.280779
C292	C	1.557578	0.118927	0.219221
C293	C	1.068578	-0.334954	-0.291835
C294	C	1.568578	0.165046	0.208165
C295	C	1.017054	-0.311448	-0.240320
C296	C	1.517054	0.188552	0.259680
H297	H	1.069353	-0.388725	-0.226580
H298	H	1.569353	0.111275	0.273420
H299	H	1.003382	-0.388756	-0.292544
H300	H	1.503382	0.111244	0.207456
H301	H	1.122762	-0.327274	-0.280064
H302	H	1.622762	0.172726	0.219936
H303	H	1.056797	-0.327289	-0.346023
H304	H	1.556797	0.172711	0.153977
H305	H	0.962858	-0.319131	-0.252085
H306	H	1.462858	0.180869	0.247915
H307	H	1.028833	-0.319103	-0.186125
H308	H	1.528833	0.180897	0.313875
H309	H	1.024505	-0.280154	-0.247820
H310	H	1.524505	0.219846	0.252180
H311	H	1.020201	-0.829239	-0.243232
H312	H	1.520201	-0.329239	0.256768
