data_functionalizedCrystal
_audit_creation_method	'MofGen! by Chris Wilmer'
_symmetry_space_group_name_H-M	'P1'
_symmetry_Int_Tables_number	1
_symmetry_cell_setting	triclinic
loop_
_symmetry_equiv_pos_as_xyz
  x,y,z
_cell_length_a	6.817900
_cell_length_b	17.982865
_cell_length_c	17.982968
_cell_angle_alpha	95.931086
_cell_angle_beta	102.451960
_cell_angle_gamma	102.450232
loop_
_atom_site_label
_atom_site_type_symbol
_atom_site_fract_x
_atom_site_fract_y
_atom_site_fract_z
V1	V	-4.009934	-0.106128	-0.237878
O2	O	-4.003034	0.004366	-0.233013
O3	O	-3.956501	-0.209729	-0.236574
O4	O	-3.956505	-0.104818	-0.341477
O5	O	-4.003030	-0.101271	-0.127384
V6	V	-4.494865	-0.092874	-0.224622
O7	O	-4.268102	-0.135203	-0.266954
O8	O	-4.686894	-0.063799	-0.195546
O9	O	-4.325092	0.010726	-0.225926
O10	O	-4.619162	-0.203368	-0.229487
O11	O	-4.619166	-0.097731	-0.335116
O12	O	-4.325088	-0.094184	-0.121023
C13	C	-3.800440	-0.234974	-0.232905
C14	C	-3.838005	-0.319670	-0.232530
C15	C	-4.032248	-0.828451	-0.160348
C16	C	-3.996952	-0.748872	-0.160711
C17	C	-4.015589	-0.720179	-0.230699
C18	C	-4.069507	-0.771071	-0.300329
C19	C	-4.104788	-0.850649	-0.299965
C20	C	-3.927220	-0.450142	-0.301797
C21	C	-3.891939	-0.370558	-0.302156
C22	C	-3.819383	-0.348365	-0.162543
C23	C	-3.854664	-0.427943	-0.162179
C24	C	-3.908568	-0.478827	-0.231808
C25	C	-3.946837	-0.565117	-0.231414
C26	C	-3.977336	-0.633892	-0.231094
C27	C	-3.800444	-0.101149	-0.366718
C28	C	-3.838010	-0.100764	-0.451412
C29	C	-4.037393	-0.104400	-0.495095
C30	C	-4.072679	-0.104037	-0.574675
C31	C	-3.908581	-0.100043	-0.610571
C32	C	-3.709180	-0.096404	-0.566882
C33	C	-3.673894	-0.096761	-0.487303
C34	C	-3.851477	-0.094961	-0.887814
C35	C	-3.886780	-0.094606	-0.967399
C36	C	-4.250261	-0.102237	-0.975186
C37	C	-4.214976	-0.102595	-0.895607
C38	C	-4.015577	-0.098951	-0.851925
C39	C	-3.977318	-0.099343	-0.765635
C40	C	-3.946840	-0.099657	-0.696860
C41	C	-4.144495	0.035968	-0.229593
C42	C	-4.086167	0.120663	-0.229973
C43	C	-4.144491	-0.097855	-0.095778
C44	C	-4.086163	-0.098237	-0.011083
H45	H	-3.839494	-0.451299	-0.105188
Br46	Br	-4.094771	-0.732131	-0.395314
Br47	Br	-3.403287	-0.091815	-0.428016
Br48	Br	-4.260119	-0.109829	-0.446389
H49	H	-3.953055	-0.707443	-0.104016
Br50	Br	-4.006967	-0.867383	-0.065359
H51	H	-3.575568	-0.093147	-0.596114
Br52	Br	-3.746241	-0.279303	-0.068045
H53	H	-3.907127	-0.347200	-0.359152
Br54	Br	-4.437694	-0.108022	-0.846896
H55	H	-3.971115	-0.491563	-0.358494
Br56	Br	-4.343285	-0.108982	-0.633958
Br57	Br	-4.177985	-0.919710	-0.394460
Br58	Br	-4.520881	-0.107180	-1.034474
Br59	Br	-3.664059	-0.089186	-1.016115
H60	H	-3.689134	-0.092022	-0.852261
