data_functionalizedCrystal
_audit_creation_method	'MofGen! by Chris Wilmer'
_symmetry_space_group_name_H-M	'P1'
_symmetry_Int_Tables_number	1
_symmetry_cell_setting	triclinic
loop_
_symmetry_equiv_pos_as_xyz
  x,y,z
_cell_length_a	10.654543
_cell_length_b	10.654551
_cell_length_c	9.130313
_cell_angle_alpha	89.998309
_cell_angle_beta	89.998857
_cell_angle_gamma	95.516233
loop_
_atom_site_label
_atom_site_type_symbol
_atom_site_fract_x
_atom_site_fract_y
_atom_site_fract_z
O1	O	-1.667845	0.176358	-0.121632
O2	O	-1.302366	0.193173	-0.121668
O3	O	-1.493508	0.002026	-0.121650
O4	O	-1.476703	0.367505	-0.121650
O5	O	-1.493494	0.002021	0.121949
O6	O	-1.302352	0.193168	0.121931
O7	O	-1.667832	0.176353	0.121967
Cu8	Cu	-1.485091	0.184760	0.144191
Cu9	Cu	-1.485107	0.184766	-0.143893
O10	O	-1.476690	0.367500	0.121949
C11	C	-1.255561	0.191938	0.000126
C12	C	-1.116117	0.188249	0.000112
C13	C	-1.492267	-0.044774	0.000146
C14	C	-1.488574	-0.184217	0.000136
C15	C	-1.036632	0.300792	0.000114
C16	C	-0.905611	0.297319	0.000136
C17	C	-0.933573	0.068749	0.000147
C18	C	-1.064592	0.072224	0.000136
C19	C	-1.486849	-0.249726	-0.132648
C20	C	-1.483369	-0.380746	-0.132641
C21	C	-1.483344	-0.380738	0.132944
C22	C	-1.486816	-0.249719	0.132936
C23	C	-1.486869	-0.249733	-0.285981
C24	C	-1.483389	-0.380753	-0.285975
C25	C	-0.714636	0.177594	0.000162
C26	C	-0.854077	0.181301	0.000145
C27	C	-1.477930	0.414300	0.000149
C28	C	-1.481623	0.553743	0.000150
N29	N	-1.485089	0.184754	0.346814
N30	N	-1.485118	0.184762	-0.346515
C31	C	-1.569756	0.100150	0.423474
C32	C	-1.569768	0.100151	0.576811
C33	C	-1.400443	0.269370	0.576814
C34	C	-1.400425	0.269362	0.423480
H35	H	-1.078579	0.395268	0.000105
H36	H	-1.578471	-0.220168	-0.333547
Cl37	Cl	-1.617393	-0.452234	-0.376840
Cl38	Cl	-1.293973	0.375724	0.327098
H39	H	-1.391795	-0.410317	-0.333575
H40	H	-1.638709	0.031257	0.639223
Cl41	Cl	-0.805691	0.438809	0.000140
Cl42	Cl	-1.676185	-0.006219	0.327100
Cl43	Cl	-1.294018	0.375734	0.673201
H44	H	-0.891604	-0.025715	0.000176
H45	H	-1.129312	-0.019428	0.000139
H46	H	-1.481910	-0.434085	0.241065
Cl47	Cl	-1.352882	-0.178264	-0.376897
Cl48	Cl	-1.488943	-0.167364	0.299870
