data_functionalizedCrystal
_audit_creation_method	'MofGen! by Chris Wilmer'
_symmetry_space_group_name_H-M	'P1'
_symmetry_Int_Tables_number	1
_symmetry_cell_setting	triclinic
loop_
_symmetry_equiv_pos_as_xyz
  x,y,z
_cell_length_a	6.817900
_cell_length_b	11.168121
_cell_length_c	12.908943
_cell_angle_alpha	94.437447
_cell_angle_beta	100.860631
_cell_angle_gamma	108.508496
loop_
_atom_site_label
_atom_site_type_symbol
_atom_site_fract_x
_atom_site_fract_y
_atom_site_fract_z
V1	V	-4.021585	-0.173128	-0.328691
O2	O	-3.982853	0.009941	-0.322425
O3	O	-3.998474	-0.344844	-0.326451
O4	O	-3.959367	-0.169754	-0.472040
O5	O	-4.022230	-0.166361	-0.175828
V6	V	-4.503727	-0.151315	-0.310406
O7	O	-4.285874	-0.220977	-0.368799
O8	O	-4.689635	-0.103466	-0.270297
O9	O	-4.303631	0.020401	-0.312645
O10	O	-4.659856	-0.334385	-0.316672
O11	O	-4.620478	-0.158082	-0.463268
O12	O	-4.342738	-0.154690	-0.167057
C13	C	-3.850074	-0.386727	-0.321268
C14	C	-3.912373	-0.527103	-0.320393
C15	C	-3.800188	-0.163380	-0.506980
C16	C	-3.830770	-0.161757	-0.624169
C17	C	-4.113644	-0.595773	-0.325002
C18	C	-4.178037	-0.740859	-0.324098
C19	C	-4.253331	-0.171238	-0.855116
C20	C	-4.282074	-0.169714	-0.965225
C21	C	-3.916997	-0.157175	-0.954499
C22	C	-3.888254	-0.158699	-0.844389
C23	C	-4.056430	-0.165733	-0.794702
C24	C	-4.027688	-0.167266	-0.684591
C25	C	-3.662610	-0.154719	-0.673865
C26	C	-3.691353	-0.153194	-0.783975
C27	C	-4.115374	0.062277	-0.317825
C28	C	-4.032313	0.202651	-0.318708
C29	C	-4.165260	-0.161068	-0.132111
C30	C	-4.113916	-0.162684	-0.014921
H31	H	-4.350455	-0.799888	-0.328032
N32	N	-4.209052	-0.174849	-0.630987
H33	H	-4.331776	-0.255910	-0.662737
H34	H	-4.255754	-0.098672	-0.642260
H35	H	-4.238289	-0.547155	-0.329625
H36	H	-3.502278	-0.150241	-0.624665
N37	N	-4.494445	-0.175662	-1.030396
H38	H	-4.476593	-0.096719	-1.066076
H39	H	-4.596511	-0.180394	-0.982148
N40	N	-3.747250	-0.591491	-0.314268
H41	H	-3.604085	-0.525731	-0.311314
H42	H	-3.786715	-0.657895	-0.379355
N43	N	-3.803916	-0.719174	-0.313495
H44	H	-3.715520	-0.776814	-0.309776
H45	H	-3.748754	-0.652219	-0.247956
N46	N	-3.735632	-0.149564	-1.008108
H47	H	-3.701552	-0.070055	-1.043302
H48	H	-3.777462	-0.227290	-1.063757
H49	H	-4.390273	-0.176978	-0.814662
H50	H	-3.554435	-0.147463	-0.824445
