data_functionalizedCrystal
_audit_creation_method	'MofGen! by Chris Wilmer'
_symmetry_space_group_name_H-M	'P1'
_symmetry_Int_Tables_number	1
_symmetry_cell_setting	triclinic
loop_
_symmetry_equiv_pos_as_xyz
  x,y,z
_cell_length_a	29.839134
_cell_length_b	29.839131
_cell_length_c	12.759393
_cell_angle_alpha	89.963184
_cell_angle_beta	89.967527
_cell_angle_gamma	90.036281
loop_
_atom_site_label
_atom_site_type_symbol
_atom_site_fract_x
_atom_site_fract_y
_atom_site_fract_z
Zn1	Zn	0.686766	-0.178893	-0.594297
Zn2	Zn	1.186766	0.321107	-0.094297
Zn3	Zn	0.686685	-0.254030	-0.418598
Zn4	Zn	1.186685	0.245970	0.081402
Zn5	Zn	0.611635	-0.178908	-0.418597
Zn6	Zn	1.111635	0.321092	0.081403
Zn7	Zn	0.611597	-0.253990	-0.594200
Zn8	Zn	1.111597	0.246010	-0.094200
O9	O	0.649171	-0.216455	-0.506423
O10	O	1.149171	0.283545	-0.006423
O11	O	0.749622	-0.188871	-0.571031
O12	O	1.249622	0.311129	-0.071031
O13	O	0.676711	-0.244088	-0.271577
O14	O	1.176711	0.255912	0.228423
O15	O	0.621652	-0.116039	-0.441944
O16	O	1.121652	0.383961	0.058056
O17	O	0.749563	-0.244074	-0.441946
O18	O	1.249563	0.255926	0.058054
O19	O	0.676850	-0.116028	-0.571031
O20	O	1.176850	0.383972	-0.071031
O21	O	0.621573	-0.188897	-0.271576
O22	O	1.121573	0.311103	0.228424
O23	O	0.548763	-0.188858	-0.441850
O24	O	1.048763	0.311142	0.058150
O25	O	0.621586	-0.244005	-0.741234
O26	O	1.121586	0.255995	-0.241234
O27	O	0.548735	-0.244020	-0.570864
O28	O	1.048735	0.255980	-0.070864
O29	O	0.676813	-0.188832	-0.741305
O30	O	1.176813	0.311168	-0.241305
O31	O	0.676674	-0.316892	-0.441851
O32	O	1.176674	0.183108	0.058149
O33	O	0.621507	-0.316863	-0.570865
O34	O	1.121507	0.183137	-0.070865
C35	C	0.532448	-0.216436	-0.506347
C36	C	1.032448	0.283564	-0.006347
C37	C	0.482514	-0.216439	-0.506340
C38	C	0.982514	0.283561	-0.006340
C39	C	0.172865	-0.245221	-0.573518
C40	C	0.672865	0.254779	-0.073518
C41	C	-0.014808	-0.245234	-0.573565
C42	C	0.485192	0.254766	-0.073565
O43	O	-0.039077	-0.269684	-0.630638
O44	O	0.460923	0.230316	-0.130638
N45	N	-0.038271	-0.216472	-0.506502
N46	N	0.461729	0.283528	-0.006502
C47	C	-0.014814	-0.187703	-0.439427
C48	C	0.485186	0.312297	0.060573
O49	O	-0.039077	-0.163236	-0.382395
O50	O	0.460923	0.336764	0.117605
C51	C	0.172859	-0.187688	-0.439387
C52	C	0.672859	0.312312	0.060613
C53	C	0.196319	-0.216455	-0.506447
C54	C	0.696319	0.283545	-0.006447
C55	C	0.196326	-0.273985	-0.640574
C56	C	0.696326	0.226015	-0.140574
C57	C	0.243241	-0.273983	-0.640557
C58	C	0.743241	0.226017	-0.140557
C59	C	0.266696	-0.245217	-0.573486
C60	C	0.766696	0.254783	-0.073486
C61	C	0.243235	-0.216453	-0.506430
C62	C	0.743235	0.283547	-0.006430
C63	C	0.196315	-0.158917	-0.372318
C64	C	0.696315	0.341083	0.127682
C65	C	0.243236	-0.158916	-0.372316
C66	C	0.743236	0.341084	0.127684
C67	C	0.266697	-0.187682	-0.439376
C68	C	0.766697	0.312318	0.060624
C69	C	0.313605	-0.187686	-0.439342
C70	C	0.813605	0.312314	0.060658
N71	N	0.337068	-0.216448	-0.506405
N72	N	0.837068	0.283552	-0.006405
C73	C	0.313614	-0.245213	-0.573477
C74	C	0.813614	0.254787	-0.073477
C75	C	-0.113344	-0.187713	-0.439452
C76	C	0.386656	0.312287	0.060548
C77	C	-0.160262	-0.187717	-0.439460
C78	C	0.339738	0.312283	0.060540
C79	C	-0.160253	-0.245248	-0.573600
C80	C	0.339747	0.254752	-0.073600
C81	C	-0.113335	-0.245245	-0.573585
C82	C	0.386665	0.254755	-0.073585
C83	C	-0.089881	-0.216475	-0.506515
C84	C	0.410119	0.283525	-0.006515
C85	C	0.412140	-0.245208	-0.573437
C86	C	0.912140	0.254792	-0.073437
C87	C	0.459059	-0.245205	-0.573411
C88	C	0.959059	0.254795	-0.073411
C89	C	0.459046	-0.187673	-0.439276
C90	C	0.959046	0.312327	0.060724
C91	C	0.412131	-0.187678	-0.439297
C92	C	0.912131	0.312322	0.060703
C93	C	0.388679	-0.216446	-0.506386
C94	C	0.888679	0.283554	-0.006386
O95	O	0.337903	-0.163245	-0.382307
O96	O	0.837903	0.336755	0.117693
O97	O	0.337885	-0.269669	-0.630518
O98	O	0.837885	0.230331	-0.130518
C99	C	0.125950	-0.245223	-0.573535
C100	C	0.625950	0.254777	-0.073535
C101	C	0.102489	-0.216459	-0.506479
C102	C	0.602489	0.283541	-0.006479
C103	C	0.125943	-0.187693	-0.439408
C104	C	0.625943	0.312307	0.060592
C105	C	0.055571	-0.216463	-0.506488
C106	C	0.555571	0.283537	-0.006488
C107	C	0.032116	-0.245229	-0.573560
C108	C	0.532116	0.254771	-0.073560
C109	C	0.055580	-0.273990	-0.640623
C110	C	0.555580	0.226010	-0.140623
C111	C	0.102495	-0.273988	-0.640607
C112	C	0.602495	0.226012	-0.140607
C113	C	0.102480	-0.158931	-0.372345
C114	C	0.602480	0.341069	0.127655
C115	C	0.055564	-0.158936	-0.372366
C116	C	0.555564	0.341064	0.127634
C117	C	0.032110	-0.187701	-0.439437
C118	C	0.532110	0.312299	0.060563
C119	C	0.649090	-0.333178	-0.506371
C120	C	1.149090	0.166822	-0.006371
C121	C	0.649096	-0.383112	-0.506384
C122	C	1.149096	0.116888	-0.006384
C123	C	0.677948	-0.692758	-0.439344
C124	C	1.177948	-0.192758	0.060656
C125	C	0.678004	-0.880432	-0.439384
C126	C	1.178004	-0.380432	0.060616
O127	O	0.702471	-0.904699	-0.382344
O128	O	1.202471	-0.404699	0.117656
N129	N	0.649264	-0.903897	-0.506502
N130	N	1.149264	-0.403897	-0.006502
C131	C	0.620510	-0.880442	-0.573619
C132	C	1.120510	-0.380442	-0.073619
O133	O	0.596070	-0.904708	-0.630716
O134	O	1.096070	-0.404708	-0.130716
C135	C	0.620457	-0.692770	-0.573583
C136	C	1.120457	-0.192770	-0.073583
C137	C	0.649196	-0.669307	-0.506453
C138	C	1.149196	-0.169307	-0.006453
C139	C	0.706685	-0.669295	-0.372220
C140	C	1.206685	-0.169295	0.127780
C141	C	0.706669	-0.622380	-0.372207
C142	C	1.206669	-0.122380	0.127793
C143	C	0.677916	-0.598928	-0.439316
C144	C	1.177916	-0.098928	0.060684
C145	C	0.649180	-0.622391	-0.506440
C146	C	1.149180	-0.122391	-0.006440
C147	C	0.591706	-0.669316	-0.640705
C148	C	1.091706	-0.169316	-0.140705
C149	C	0.591696	-0.622395	-0.640692
C150	C	1.091696	-0.122395	-0.140692
C151	C	0.620435	-0.598931	-0.573562
C152	C	1.120435	-0.098931	-0.073562
C153	C	0.620412	-0.552024	-0.573536
C154	C	1.120412	-0.052024	-0.073536
N155	N	0.649151	-0.528558	-0.506418
N156	N	1.149151	-0.028558	-0.006418
C157	C	0.677904	-0.552010	-0.439308
C158	C	1.177904	-0.052010	0.060692
C159	C	0.620539	-0.978973	-0.573632
C160	C	1.120539	-0.478973	-0.073632
C161	C	0.620552	-1.025891	-0.573640
C162	C	1.120552	-0.525891	-0.073640
C163	C	0.678046	-1.025877	-0.439406
C164	C	1.178046	-0.525877	0.060594
C165	C	0.678031	-0.978958	-0.439394
C166	C	1.178031	-0.478958	0.060606
C167	C	0.649279	-0.955507	-0.506514
C168	C	1.149279	-0.455507	-0.006514
C169	C	0.677868	-0.453484	-0.439284
C170	C	1.177868	0.046516	0.060716
C171	C	0.677848	-0.406564	-0.439274
C172	C	1.177848	0.093436	0.060726
C173	C	0.620356	-0.406582	-0.573511
C174	C	1.120356	0.093418	-0.073511
C175	C	0.620374	-0.453498	-0.573518
C176	C	1.120374	0.046502	-0.073518
C177	C	0.649134	-0.476948	-0.506402
C178	C	1.149134	0.023052	-0.006402
O179	O	0.595961	-0.527728	-0.630555
O180	O	1.095961	-0.027728	-0.130555
O181	O	0.702348	-0.527736	-0.382237
O182	O	1.202348	-0.027736	0.117763
C183	C	0.677964	-0.739674	-0.439357
C184	C	1.177964	-0.239674	0.060643
C185	C	0.649228	-0.763137	-0.506481
C186	C	1.149228	-0.263137	-0.006481
C187	C	0.620475	-0.739686	-0.573590
C188	C	1.120475	-0.239686	-0.073590
C189	C	0.649240	-0.810055	-0.506488
C190	C	1.149240	-0.310055	-0.006488
C191	C	0.677993	-0.833507	-0.439379
C192	C	1.177993	-0.333507	0.060621
C193	C	0.706732	-0.810041	-0.372261
C194	C	1.206732	-0.310041	0.127739
C195	C	0.706717	-0.763126	-0.372247
C196	C	1.206717	-0.263126	0.127753
C197	C	0.591735	-0.763151	-0.640708
C198	C	1.091735	-0.263151	-0.140708
C199	C	0.591753	-0.810067	-0.640716
C200	C	1.091753	-0.310067	-0.140716
C201	C	0.620506	-0.833519	-0.573606
C202	C	1.120506	-0.333519	-0.073606
C203	C	0.766349	-0.216475	-0.506500
C204	C	1.266349	0.283525	-0.006500
C205	C	0.816283	-0.216483	-0.506532
C206	C	1.316283	0.283517	-0.006532
C207	C	0.649204	-0.216412	-0.780456
C208	C	1.149204	0.283588	-0.280456
C209	C	0.649219	-0.216394	-0.897233
C210	C	1.149219	0.283606	-0.397233
C211	C	0.649264	-0.099277	-0.506498
C212	C	1.149264	0.400723	-0.006498
C213	C	0.649304	-0.049343	-0.506530
C214	C	1.149304	0.450657	-0.006530
C215	C	0.677977	-0.187661	-0.952134
C216	C	1.177977	0.312339	-0.452134
C217	C	0.677985	-0.187641	-1.061858
C218	C	1.177985	0.312359	-0.561858
C219	C	0.620474	-0.245092	-1.061771
C220	C	1.120474	0.254908	-0.561771
C221	C	0.620464	-0.245109	-0.952049
C222	C	1.120464	0.254891	-0.452049
C223	C	0.649163	-0.216466	-0.233456
C224	C	1.149163	0.283534	0.266544
C225	C	0.649236	-0.216358	-0.116679
C226	C	1.149236	0.283642	0.383321
H227	H	0.262339	-0.297407	-0.695167
H228	H	0.762339	0.202593	-0.195167
Cl229	Cl	0.584214	-0.377091	-0.657879
Cl230	Cl	1.084214	0.122909	-0.157879
H231	H	0.597042	-0.268507	-0.907347
H232	H	1.097042	0.231493	-0.407347
Cl233	Cl	0.714124	-0.151560	-0.883227
Cl234	Cl	1.214124	0.348440	-0.383227
H235	H	0.701402	-0.164243	-1.106554
H236	H	1.201402	0.335757	-0.606554
Cl237	Cl	0.714161	-0.949466	-0.355001
Cl238	Cl	1.214161	-0.449466	0.144999
Cl239	Cl	0.584389	-0.949498	-0.658019
Cl240	Cl	1.084389	-0.449498	-0.158019
H241	H	0.730071	-0.603278	-0.317547
H242	H	1.230071	-0.103278	0.182453
H243	H	0.597064	-0.268472	-1.106415
H244	H	1.097064	0.231528	-0.606415
Cl245	Cl	0.272718	-0.122744	-0.287994
Cl246	Cl	0.772718	0.377256	0.212006
H247	H	0.393050	-0.268633	-0.628069
H248	H	0.893050	0.231367	-0.128069
H249	H	0.036466	-0.135511	-0.317748
H250	H	0.536466	0.364489	0.182252
Cl251	Cl	0.742877	-0.839533	-0.287893
Cl252	Cl	1.242877	-0.339533	0.212107
H253	H	-0.094236	-0.268669	-0.628193
H254	H	0.405764	0.231331	-0.128193
Cl255	Cl	0.166849	-0.310153	-0.724904
Cl256	Cl	0.666849	0.189847	-0.224904
Cl257	Cl	-0.189747	-0.281407	-0.657926
Cl258	Cl	0.310253	0.218593	-0.157926
Cl259	Cl	0.488550	-0.281372	-0.657720
Cl260	Cl	0.988550	0.218628	-0.157720
H261	H	0.121572	-0.135506	-0.317726
H262	H	0.621572	0.364494	0.182274
H263	H	0.730101	-0.688385	-0.317571
H264	H	1.230101	-0.188385	0.182429
Cl265	Cl	0.713980	-0.377070	-0.354876
Cl266	Cl	1.213980	0.122930	0.145124
H267	H	0.701288	-0.472571	-0.384634
H268	H	1.201288	0.027429	0.115366
Cl269	Cl	-0.083866	-0.151541	-0.355125
Cl270	Cl	0.416134	0.348459	0.144875
Cl271	Cl	-0.189750	-0.151558	-0.355139
Cl272	Cl	0.310250	0.348442	0.144861
H273	H	0.393028	-0.164254	-0.384689
H274	H	0.893028	0.335746	0.115311
Cl275	Cl	0.166833	-0.122748	-0.288016
Cl276	Cl	0.666833	0.377252	0.211984
H277	H	0.478151	-0.164254	-0.384665
H278	H	0.978151	0.335746	0.115335
H279	H	0.568322	-0.744061	-0.695359
H280	H	1.068322	-0.244061	-0.195359
H281	H	0.036475	-0.297414	-0.695232
H282	H	0.536475	0.202586	-0.195232
Cl283	Cl	0.131982	-0.310154	-0.724917
Cl284	Cl	0.631982	0.189846	-0.224917
H285	H	0.568302	-0.688412	-0.695364
H286	H	1.068302	-0.188412	-0.195364
Cl287	Cl	0.714191	-1.055368	-0.355039
Cl288	Cl	1.214191	-0.555368	0.144961
H289	H	0.597146	-1.044991	-0.628294
H290	H	1.097146	-0.544991	-0.128294
H291	H	0.568347	-0.829167	-0.695380
H292	H	1.068347	-0.329167	-0.195380
H293	H	0.568284	-0.603303	-0.695353
H294	H	1.068284	-0.103303	-0.195353
Cl295	Cl	0.742849	-0.733636	-0.287855
Cl296	Cl	1.242849	-0.233636	0.212145
Cl297	Cl	0.584236	-0.482996	-0.657889
Cl298	Cl	1.084236	0.017004	-0.157889
