data_functionalizedCrystal
_audit_creation_method	'MofGen! by Chris Wilmer'
_symmetry_space_group_name_H-M	'P1'
_symmetry_Int_Tables_number	1
_symmetry_cell_setting	triclinic
loop_
_symmetry_equiv_pos_as_xyz
  x,y,z
_cell_length_a	30.570259
_cell_length_b	30.570296
_cell_length_c	30.570330
_cell_angle_alpha	90.000291
_cell_angle_beta	59.995535
_cell_angle_gamma	119.999808
loop_
_atom_site_label
_atom_site_type_symbol
_atom_site_fract_x
_atom_site_fract_y
_atom_site_fract_z
O1	O	0.385861	-0.300074	-0.013023
O2	O	0.296282	-0.236465	0.012944
O3	O	0.385859	-0.236462	-0.076635
O4	O	0.296284	-0.300077	0.076557
O5	O	0.313099	-0.309219	-0.076628
O6	O	0.223523	-0.309222	0.012952
O7	O	0.313101	-0.372832	-0.013015
Cu8	Cu	0.261669	-0.347670	-0.000031
Cu9	Cu	0.347715	-0.261626	-0.000040
O10	O	0.223525	-0.372834	0.076565
C11	C	0.049026	-0.159668	0.031436
C12	C	0.075221	-0.186117	0.031809
C13	C	0.128236	-0.080457	0.031441
C14	C	0.154311	-0.107026	0.031814
C15	C	0.128234	-0.159671	0.031443
C16	C	0.075223	-0.107023	0.031807
C17	C	-0.030153	-0.159459	0.025001
C18	C	-0.080191	-0.184392	0.020940
C19	C	-0.105287	-0.236555	0.018904
C20	C	-0.159538	-0.263590	0.014498
C21	C	-0.080354	-0.263795	0.020933
C22	C	-0.030322	-0.238864	0.024996
C23	C	-0.005221	-0.186696	0.027028
C24	C	0.134455	-0.239062	0.025017
C25	C	0.163446	-0.264169	0.020963
C26	C	0.217643	-0.237103	0.018931
C27	C	0.249080	-0.264322	0.014532
C28	C	0.242854	-0.184930	0.020958
C29	C	0.213864	-0.159826	0.025014
C30	C	0.159667	-0.186892	0.027042
C31	C	0.134461	0.005157	0.025010
C32	C	0.163457	0.059257	0.020946
C33	C	0.217655	0.086388	0.018914
C34	C	0.249094	0.145044	0.014513
C35	C	0.242865	0.059428	0.020941
C36	C	0.213872	0.005330	0.025003
C37	C	0.159670	-0.021803	0.027037
O38	O	-0.304513	-0.372814	-0.013056
O39	O	-0.177297	-0.309206	0.012913
O40	O	-0.177277	-0.309198	-0.076667
O41	O	-0.304532	-0.372821	0.076525
O42	O	-0.177276	-0.236443	-0.076670
O43	O	-0.177296	-0.236450	0.012911
O44	O	-0.304511	-0.300058	-0.013058
Cu45	Cu	-0.240903	-0.261611	-0.000074
Cu46	Cu	-0.240905	-0.347653	-0.000071
O47	O	-0.304531	-0.300066	0.076522
C48	C	0.481162	-0.159668	-0.400699
C49	C	0.534180	-0.107021	-0.427151
C50	C	0.481162	-0.159668	-0.321487
C51	C	0.534180	-0.107022	-0.348059
C52	C	0.560379	-0.080453	-0.400706
C53	C	0.455083	-0.186116	-0.348052
C54	C	0.395338	-0.239061	-0.400486
C55	C	0.366174	-0.264168	-0.425418
C56	C	0.391207	-0.237100	-0.477584
C57	C	0.359586	-0.264319	-0.504618
C58	C	0.445409	-0.184925	-0.504827
C59	C	0.474574	-0.159821	-0.479898
C60	C	0.449536	-0.186889	-0.427727
C61	C	0.639568	0.005162	-0.480104
C62	C	0.689612	0.059261	-0.505214
C63	C	0.714710	0.086394	-0.478149
C64	C	0.768967	0.145052	-0.505372
C65	C	0.689773	0.059433	-0.425974
C66	C	0.639735	0.005336	-0.400866
C67	C	0.614632	-0.021797	-0.427931
C68	C	0.395338	-0.239062	-0.235866
C69	C	0.366169	-0.264166	-0.181763
C70	C	0.391202	-0.237098	-0.154634
C71	C	0.359581	-0.264317	-0.095974
C72	C	0.445400	-0.184926	-0.181597
C73	C	0.474569	-0.159819	-0.235697
C74	C	0.449536	-0.186889	-0.262829
C75	C	0.527100	-0.420632	-0.027241
C76	C	0.581090	-0.393636	-0.023532
C77	C	0.500901	-0.473278	-0.027608
C78	C	0.447881	-0.420636	-0.027232
C79	C	0.417170	-0.393644	-0.023514
C80	C	0.421802	-0.473281	-0.027600
C81	C	0.447882	-0.499848	-0.027233
C82	C	0.417173	-0.557550	-0.023515
C83	C	0.500899	-0.394186	-0.027608
C84	C	0.392362	-0.604168	-0.020510
C85	C	0.624708	-0.371827	-0.020534
C86	C	0.392357	-0.371838	-0.020509
C87	C	0.361236	-0.662652	-0.016741
C88	C	0.679430	-0.344465	-0.016774
C89	C	0.361230	-0.344481	-0.016740
O90	O	0.313113	0.317573	-0.013024
O91	O	0.223537	0.164388	0.012933
O92	O	0.313125	0.253964	-0.076643
O93	O	0.223525	0.227996	0.076552
O94	O	0.385875	0.253961	-0.076636
O95	O	0.296288	0.164385	0.012939
O96	O	0.385863	0.317570	-0.013018
Cu97	Cu	0.347718	0.240977	-0.000039
Cu98	Cu	0.261682	0.240980	-0.000046
O99	O	0.296275	0.227993	0.076558
O100	O	0.913961	0.317584	-0.541138
O101	O	0.786727	0.164396	-0.477517
O102	O	0.786726	0.253966	-0.477514
O103	O	0.913962	0.228014	-0.541141
O104	O	0.786727	0.253968	-0.550270
O105	O	0.786729	0.164398	-0.550272
O106	O	0.913963	0.317586	-0.613894
Cu107	Cu	0.850346	0.240992	-0.588726
Cu108	Cu	0.850344	0.240990	-0.502684
O109	O	0.913964	0.228016	-0.613896
O110	O	0.296280	-0.300081	-0.613839
O111	O	0.385858	-0.236462	-0.550237
O112	O	0.296280	-0.236467	-0.550226
O113	O	0.385858	-0.300077	-0.613850
O114	O	0.223522	-0.309223	-0.477464
O115	O	0.313101	-0.309218	-0.477475
O116	O	0.223522	-0.372837	-0.541077
Cu117	Cu	0.261668	-0.347671	-0.502632
Cu118	Cu	0.347712	-0.261629	-0.588682
O119	O	0.313100	-0.372833	-0.541088
C120	C	0.082290	-0.499864	0.338367
C121	C	0.028300	-0.557567	0.365365
C122	C	0.108488	-0.473296	0.364813
C123	C	0.161507	-0.420648	0.259148
C124	C	0.192217	-0.393654	0.201444
C125	C	0.187585	-0.394200	0.285714
C126	C	0.161506	-0.420649	0.338361
C127	C	0.192216	-0.393655	0.365352
C128	C	0.108489	-0.473295	0.285720
C129	C	0.217026	-0.371847	0.387158
C130	C	-0.015317	-0.604185	0.387176
C131	C	0.217029	-0.371845	0.154825
C132	C	0.248152	-0.344488	0.414514
C133	C	-0.070038	-0.662670	0.414539
C134	C	0.248156	-0.344485	0.096339
C135	C	-0.552167	-0.420653	0.338326
C136	C	-0.582880	-0.393662	0.365320
C137	C	-0.578249	-0.473300	0.364775
C138	C	-0.472940	-0.420646	0.259110
C139	C	-0.418943	-0.393648	0.201406
C140	C	-0.499142	-0.473293	0.285679
C141	C	-0.552166	-0.499865	0.338326
C142	C	-0.582879	-0.557569	0.365320
C143	C	-0.499143	-0.394201	0.285679
C144	C	-0.607692	-0.604187	0.387129
C145	C	-0.607694	-0.371856	0.387128
C146	C	-0.375320	-0.371837	0.154787
C147	C	-0.638821	-0.662673	0.414488
C148	C	-0.638823	-0.344499	0.414488
C149	C	-0.320592	-0.344474	0.096301
C150	C	0.161477	0.213802	0.338358
C151	C	0.192179	0.217516	0.365356
C152	C	0.108461	0.213435	0.364803
C153	C	0.161488	0.213800	0.259140
C154	C	0.192203	0.217513	0.201436
C155	C	0.108472	0.213433	0.285705
C156	C	0.082269	0.213805	0.338352
C157	C	0.028282	0.217523	0.365342
C158	C	0.187560	0.213429	0.285712
C159	C	-0.015333	0.220528	0.387147
C160	C	0.216985	0.220518	0.387166
C161	C	0.217018	0.220513	0.154817
C162	C	-0.070051	0.224297	0.414502
C163	C	0.248103	0.224283	0.414529
C164	C	0.248150	0.224276	0.096332
C165	C	0.128330	-0.080416	-0.400739
C166	C	0.154412	-0.106981	-0.427187
C167	C	0.049103	-0.159634	-0.321523
C168	C	0.075305	-0.186080	-0.348091
C169	C	0.128330	-0.159629	-0.400738
C170	C	0.075306	-0.106987	-0.348092
C171	C	0.134552	0.005197	-0.400534
C172	C	0.163548	0.059297	-0.425470
C173	C	0.217756	0.086432	-0.477636
C174	C	0.249200	0.145091	-0.504675
C175	C	0.242973	0.059473	-0.504875
C176	C	0.213977	0.005376	-0.479942
C177	C	0.159769	-0.021759	-0.427771
C178	C	0.214162	-0.159417	-0.480132
C179	C	0.243329	-0.184350	-0.505238
C180	C	0.218292	-0.236516	-0.478169
C181	C	0.249916	-0.263552	-0.505386
C182	C	0.164084	-0.263758	-0.425993
C183	C	0.134917	-0.238828	-0.400890
C184	C	0.159958	-0.186657	-0.427959
C185	C	-0.030097	-0.159434	-0.235907
C186	C	-0.080142	-0.184371	-0.181804
C187	C	-0.105244	-0.236537	-0.154670
C188	C	-0.159509	-0.263578	-0.096011
C189	C	-0.080304	-0.263771	-0.181630
C190	C	-0.030259	-0.238837	-0.235730
C191	C	-0.005157	-0.186669	-0.262866
O192	O	-0.703769	-0.835636	0.449756
O193	O	-0.614187	-0.682448	0.386139
O194	O	-0.703754	-0.772016	0.386134
O195	O	-0.614202	-0.746067	0.449761
O196	O	-0.776520	-0.772020	0.458891
O197	O	-0.686953	-0.682452	0.458895
O198	O	-0.776536	-0.835640	0.522513
Cu199	Cu	-0.738388	-0.759046	0.497347
Cu200	Cu	-0.652334	-0.759041	0.411304
O201	O	-0.686968	-0.746071	0.522517
C202	C	0.560424	0.272454	-0.400704
C203	C	0.534232	0.272825	-0.427155
C204	C	0.481205	0.272459	-0.321492
C205	C	0.455133	0.272830	-0.348064
C206	C	0.481216	0.272457	-0.400710
C207	C	0.534220	0.272827	-0.348057
C208	C	0.639604	0.266023	-0.400491
C209	C	0.689645	0.261963	-0.425422
C210	C	0.714747	0.259926	-0.477588
C211	C	0.769002	0.255521	-0.504622
C212	C	0.689818	0.261952	-0.504830
C213	C	0.639782	0.266014	-0.479901
C214	C	0.614675	0.268047	-0.427731
C215	C	0.475005	0.266027	-0.480107
C216	C	0.446018	0.261970	-0.505216
C217	C	0.391818	0.259937	-0.478151
C218	C	0.360384	0.255536	-0.505373
C219	C	0.366600	0.261966	-0.425976
C220	C	0.395587	0.266025	-0.400869
C221	C	0.449787	0.268053	-0.427934
C222	C	0.474970	0.266033	-0.235873
C223	C	0.445967	0.261971	-0.181771
C224	C	0.391767	0.259939	-0.154641
C225	C	0.360320	0.255539	-0.095982
C226	C	0.366560	0.261963	-0.181604
C227	C	0.395558	0.266022	-0.235703
C228	C	0.449763	0.268058	-0.262836
H229	H	0.053294	-0.085696	0.032405
O230	O	0.210925	-0.078731	-0.484488
H231	H	0.249390	-0.076627	-0.486834
H232	H	0.322042	-0.306647	-0.159815
H233	H	0.518706	-0.117341	-0.502081
O234	O	0.244086	-0.336898	0.257476
H235	H	0.282576	-0.334529	0.221115
O236	O	0.307715	-0.320436	-0.396037
H237	H	0.295201	-0.335038	-0.355569
O238	O	0.368393	0.268205	-0.344596
H239	H	0.366694	0.303644	-0.343725
H240	H	0.090410	-0.016896	-0.358056
O241	O	-0.470089	-0.336903	0.257416
H242	H	-0.456126	-0.311238	0.279959
H243	H	0.522830	-0.494604	-0.028206
O244	O	0.301444	0.088745	-0.561145
H245	H	0.337826	0.087993	-0.562083
H246	H	0.412410	-0.229368	-0.326715
O247	O	0.612506	-0.024100	-0.509304
H248	H	0.563079	-0.039148	-0.486451
H249	H	0.086530	0.212837	0.408061
H250	H	0.086559	-0.494627	0.264394
H251	H	-0.010026	-0.261046	0.026653
O252	O	0.241168	-0.023703	-0.509317
H253	H	0.252757	-0.038757	-0.486538
O254	O	-0.470106	-0.501553	0.257426
H255	H	-0.428761	-0.474220	0.216274
O256	O	0.075993	-0.268258	0.027214
H257	H	0.063167	-0.308850	0.025392
H258	H	0.379137	-0.494612	-0.028188
O259	O	0.529937	-0.336889	-0.028398
H260	H	0.571281	-0.322878	-0.028594
O261	O	0.563274	0.273607	-0.484452
H262	H	0.611489	0.310110	-0.510122
H263	H	0.086552	-0.494625	0.408074
O264	O	-0.634766	-0.501563	0.422073
H265	H	-0.648591	-0.474235	0.436081
O266	O	0.079429	0.212642	0.257453
H267	H	0.106573	0.212448	0.216303
H268	H	0.230229	0.212845	0.264381
H269	H	0.053369	-0.229339	-0.326761
H270	H	0.053380	-0.085656	-0.326763
O271	O	0.241160	-0.103152	-0.509330
H272	H	0.283745	-0.088404	-0.549829
O273	O	-0.107050	-0.155003	-0.152730
H274	H	-0.081197	-0.114543	-0.180691
H275	H	-0.009662	-0.116957	-0.257999
H276	H	0.374953	-0.261108	-0.257956
H277	H	0.234402	-0.016620	0.026653
O278	O	0.136356	0.088374	-0.396094
H279	H	0.093795	0.060418	-0.355625
O280	O	-0.003359	-0.268209	-0.264813
H281	H	-0.029228	-0.308676	-0.236857
O282	O	0.301792	-0.154970	-0.561509
H283	H	0.314309	-0.114502	-0.576113
H284	H	0.143700	-0.306239	-0.403956
H285	H	0.090777	-0.261011	-0.358411
O286	O	-0.107373	-0.320039	-0.152366
H287	H	-0.146365	-0.332806	-0.110220
H288	H	0.412469	0.273423	-0.326732
O289	O	0.301318	-0.155739	0.018761
H290	H	0.291877	-0.145245	0.055765
H291	H	0.322463	0.260311	-0.403942
H292	H	0.556142	0.273419	-0.326725
O293	O	0.473163	0.259806	-0.152694
H294	H	0.515737	0.261918	-0.180653
O295	O	0.533426	0.268217	-0.265136
H296	H	0.546075	0.266119	-0.237295
O297	O	0.716847	0.088703	-0.396782
H298	H	0.691103	0.060864	-0.356288
O299	O	0.612524	0.268219	-0.344223
H300	H	0.638270	0.266135	-0.329473
H301	H	0.709930	0.260304	-0.403234
O302	O	0.716888	0.259746	-0.561096
H303	H	0.755863	0.256573	-0.573854
O304	O	0.612888	0.268197	-0.509276
H305	H	0.638745	0.266092	-0.549738
O306	O	0.533470	0.268224	-0.509299
H307	H	0.546139	0.266141	-0.549799
O308	O	0.473211	0.259776	-0.561484
H309	H	0.515765	0.261861	-0.576084
O310	O	0.368342	-0.268258	-0.344220
H311	H	0.325761	-0.308757	-0.329471
H312	H	0.322420	0.260303	-0.159509
O313	O	0.210817	-0.078783	0.032603
H314	H	0.199975	-0.067086	0.069113
O315	O	0.046190	-0.243411	0.032593
H316	H	0.045978	-0.245753	-0.003540
O317	O	0.368377	0.268208	-0.264789
H318	H	0.325817	0.266118	-0.236836
H319	H	0.142926	0.081203	0.019296
H320	H	0.709910	0.081207	-0.547696
O321	O	0.076033	-0.024072	0.027153
H322	H	0.039626	-0.023327	0.062580
O323	O	-0.003086	-0.103195	0.027202
H324	H	-0.028836	-0.088449	0.025119
O325	O	0.472409	-0.155725	-0.561095
H326	H	0.443022	-0.181941	-0.573853
H327	H	-0.100486	-0.162210	0.019289
O328	O	-0.107427	-0.320061	0.018736
H329	H	-0.081687	-0.334812	0.020835
O330	O	0.136245	-0.320441	0.018787
H331	H	0.134562	-0.321309	-0.016660
O332	O	0.241053	-0.103556	0.027197
H333	H	0.242745	-0.102691	0.062640
O334	O	0.301324	0.088687	0.018752
H335	H	0.317247	0.130831	0.015593
O336	O	0.563231	-0.078759	-0.319815
H337	H	0.577201	-0.101298	-0.308118
O338	O	0.563249	-0.078752	-0.484453
H339	H	0.529259	-0.076618	-0.486814
H340	H	0.619434	-0.016616	-0.358385
H341	H	0.518697	-0.117336	-0.257649
H342	H	0.465780	-0.162883	-0.159502
