data_functionalizedCrystal
_audit_creation_method	'MofGen! by Chris Wilmer'
_symmetry_space_group_name_H-M	'P1'
_symmetry_Int_Tables_number	1
_symmetry_cell_setting	triclinic
loop_
_symmetry_equiv_pos_as_xyz
  x,y,z
_cell_length_a	17.077404
_cell_length_b	11.169416
_cell_length_c	17.077396
_cell_angle_alpha	89.977334
_cell_angle_beta	89.978556
_cell_angle_gamma	90.008588
loop_
_atom_site_label
_atom_site_type_symbol
_atom_site_fract_x
_atom_site_fract_y
_atom_site_fract_z
Zn1	Zn	1.200123	-0.477863	-0.443915
Zn2	Zn	1.200059	-0.678575	-0.312662
Zn3	Zn	1.068855	-0.477898	-0.312659
Zn4	Zn	1.068852	-0.678497	-0.443882
O5	O	1.134472	-0.578208	-0.378279
O6	O	1.309961	-0.504506	-0.426520
O7	O	1.182629	-0.652002	-0.202815
O8	O	1.086296	-0.309944	-0.330083
O9	O	1.309914	-0.651968	-0.330089
O10	O	1.182738	-0.309918	-0.426516
O11	O	1.086234	-0.504566	-0.202812
O12	O	0.959008	-0.504490	-0.330050
O13	O	1.086291	-0.651835	-0.553733
O14	O	0.959005	-0.651869	-0.426459
O15	O	1.182735	-0.504430	-0.553758
O16	O	1.182626	-0.846514	-0.330057
O17	O	1.086228	-0.846457	-0.426463
C18	C	0.930524	-0.578176	-0.378251
C19	C	0.843274	-0.578191	-0.378257
C20	C	0.467482	-0.501596	-0.428600
C21	C	0.549462	-0.501587	-0.428591
C22	C	0.590426	-0.578234	-0.378299
C23	C	0.549404	-0.654902	-0.328018
C24	C	0.467425	-0.654916	-0.328031
C25	C	0.720274	-0.654866	-0.327993
C26	C	0.802259	-0.654851	-0.327979
C27	C	0.802311	-0.501537	-0.428553
C28	C	0.720332	-0.501551	-0.428566
C29	C	0.679317	-0.578218	-0.378284
C30	C	1.134441	-0.890033	-0.378273
C31	C	1.134500	-1.023433	-0.378297
C32	C	1.339216	-0.578242	-0.378309
C33	C	1.426466	-0.578256	-0.378321
C34	C	1.134520	-0.578120	-0.583024
C35	C	1.134540	-0.578082	-0.670274
C36	C	1.134525	-0.265166	-0.378303
C37	C	1.134547	-0.131766	-0.378313
C38	C	1.184760	-0.501322	-0.711278
C39	C	1.184770	-0.501282	-0.793258
C40	C	1.134562	-0.578009	-0.834233
C41	C	1.084336	-0.654773	-0.793223
C42	C	1.084323	-0.654806	-0.711244
C43	C	1.084368	-0.654701	-0.964093
C44	C	1.084381	-0.654669	-1.046078
C45	C	1.184814	-0.501177	-1.046108
C46	C	1.184801	-0.501210	-0.964129
C47	C	1.134576	-0.577975	-0.923124
C48	C	1.134470	-0.578210	-0.174332
C49	C	1.134602	-0.577909	-0.087082
H50	H	0.582763	-0.717314	-0.287073
H51	H	1.043457	-0.717192	-0.930710
Br52	Br	0.411760	-0.758974	-0.259803
H53	H	1.043421	-0.717299	-0.677860
H54	H	0.582853	-0.439167	-0.469536
Br55	Br	1.252909	-0.397196	-0.655677
Br56	Br	1.252980	-0.397000	-1.101755
Br57	Br	0.411896	-0.397560	-0.496851
H58	H	0.686982	-0.439134	-0.469515
Br59	Br	0.664611	-0.758934	-0.259764
Br60	Br	0.857974	-0.397477	-0.496786
Br61	Br	1.252966	-0.397159	-0.848904
Br62	Br	0.857852	-0.758907	-0.259747
H63	H	1.225689	-0.438739	-0.930769
H64	H	1.043453	-0.717241	-0.826591
Br65	Br	1.016234	-0.758788	-1.101687
