data_functionalizedCrystal
_audit_creation_method	'MofGen! by Chris Wilmer'
_symmetry_space_group_name_H-M	'P1'
_symmetry_Int_Tables_number	1
_symmetry_cell_setting	triclinic
loop_
_symmetry_equiv_pos_as_xyz
  x,y,z
_cell_length_a	29.839134
_cell_length_b	29.839131
_cell_length_c	12.759393
_cell_angle_alpha	90.044470
_cell_angle_beta	90.032473
_cell_angle_gamma	90.030088
loop_
_atom_site_label
_atom_site_type_symbol
_atom_site_fract_x
_atom_site_fract_y
_atom_site_fract_z
Zn1	Zn	0.686786	-0.178893	0.594241
Zn2	Zn	0.686712	-0.254030	0.418518
Zn3	Zn	0.611655	-0.178908	0.418541
Zn4	Zn	0.611624	-0.253990	0.594120
O5	O	0.649194	-0.216455	0.506355
O6	O	0.749643	-0.188871	0.570972
O7	O	0.676737	-0.244088	0.271500
O8	O	0.621664	-0.116039	0.441908
O9	O	0.749589	-0.244074	0.441870
O10	O	0.676863	-0.116028	0.570994
O11	O	0.621593	-0.188897	0.271517
O12	O	0.548783	-0.188858	0.441791
O13	O	0.621613	-0.244005	0.741158
O14	O	0.548761	-0.244020	0.570788
O15	O	0.676833	-0.188832	0.741246
O16	O	0.676708	-0.316892	0.441752
O17	O	0.621541	-0.316863	0.570766
C18	C	0.532471	-0.216436	0.506280
C19	C	0.482537	-0.216439	0.506272
C20	C	0.649126	-0.333178	0.506267
C21	C	0.649137	-0.383112	0.506264
C22	C	0.172892	-0.245221	0.573442
C23	C	-0.014782	-0.245234	0.573489
O24	O	-0.039048	-0.269684	0.630554
N25	N	-0.038248	-0.216472	0.506434
C26	C	-0.014793	-0.187703	0.439369
O27	O	-0.039059	-0.163236	0.382344
C28	C	0.172879	-0.187688	0.439328
C29	C	0.196343	-0.216455	0.506379
C30	C	0.196356	-0.273985	0.640488
C31	C	0.243271	-0.273983	0.640472
C32	C	0.266722	-0.245217	0.573409
C33	C	0.243258	-0.216453	0.506363
C34	C	0.196333	-0.158917	0.372268
C35	C	0.243254	-0.158916	0.372266
C36	C	0.266718	-0.187682	0.439317
C37	C	0.313625	-0.187686	0.439283
N38	N	0.337092	-0.216448	0.506338
C39	C	0.313640	-0.245213	0.573400
C40	C	-0.113324	-0.187713	0.439393
C41	C	-0.160242	-0.187717	0.439402
C42	C	-0.160227	-0.245248	0.573523
C43	C	-0.113308	-0.245245	0.573509
C44	C	-0.089858	-0.216475	0.506447
C45	C	0.412166	-0.245208	0.573360
C46	C	0.459086	-0.245205	0.573335
C47	C	0.459067	-0.187673	0.439218
C48	C	0.412151	-0.187678	0.439239
C49	C	0.388702	-0.216446	0.506318
O50	O	0.337921	-0.163245	0.382256
O51	O	0.337914	-0.269669	0.630433
C52	C	0.125976	-0.245223	0.573458
C53	C	0.102512	-0.216459	0.506412
C54	C	0.125963	-0.187693	0.439349
C55	C	0.055594	-0.216463	0.506420
C56	C	0.032143	-0.245229	0.573483
C57	C	0.055609	-0.273990	0.640537
C58	C	0.102525	-0.273988	0.640521
C59	C	0.102497	-0.158931	0.372295
C60	C	0.055581	-0.158936	0.372316
C61	C	0.032130	-0.187701	0.439379
C62	C	0.677930	-0.692715	0.573666
C63	C	0.677978	-0.880388	0.573729
O64	O	0.702391	-0.904618	0.630971
N65	N	0.649270	-0.903897	0.506472
C66	C	0.620546	-0.880486	0.439199
O67	O	0.596126	-0.904788	0.382001
C68	C	0.620495	-0.692813	0.439142
C69	C	0.649208	-0.669307	0.506396
C70	C	0.706640	-0.669208	0.640916
C71	C	0.706629	-0.622293	0.640895
C72	C	0.677908	-0.598884	0.573625
C73	C	0.649198	-0.622391	0.506376
C74	C	0.591769	-0.669403	0.371875
C75	C	0.591758	-0.622482	0.371868
C76	C	0.620471	-0.598975	0.439123
C77	C	0.620466	-0.552067	0.439085
N78	N	0.649174	-0.528558	0.506342
C79	C	0.677895	-0.551966	0.573612
C80	C	0.620575	-0.979016	0.439232
C81	C	0.620588	-1.025934	0.439245
C82	C	0.678020	-1.025833	0.573777
C83	C	0.678009	-0.978915	0.573758
C84	C	0.649283	-0.955507	0.506489
C85	C	0.677870	-0.453441	0.573564
C86	C	0.677858	-0.406521	0.573534
C87	C	0.620425	-0.406626	0.439006
C88	C	0.620439	-0.453541	0.439031
C89	C	0.649163	-0.476948	0.506319
O90	O	0.596062	-0.527808	0.381881
O91	O	0.702304	-0.527656	0.630818
C92	C	0.677940	-0.739631	0.573687
C93	C	0.649230	-0.763137	0.506437
C94	C	0.620509	-0.739729	0.439167
C95	C	0.649243	-0.810055	0.506450
C96	C	0.677964	-0.833464	0.573720
C97	C	0.706672	-0.809955	0.640977
C98	C	0.706662	-0.763039	0.640957
C99	C	0.591801	-0.763238	0.371909
C100	C	0.591814	-0.810154	0.371935
C101	C	0.620535	-0.833562	0.439205
C102	C	0.766372	-0.216475	0.506432
C103	C	0.816307	-0.216483	0.506465
C104	C	0.649228	-0.216412	0.780389
C105	C	0.649242	-0.216394	0.897166
C106	C	0.649275	-0.099277	0.506467
C107	C	0.649310	-0.049343	0.506515
C108	C	0.649186	-0.216466	0.233388
C109	C	0.649259	-0.216358	0.116612
C110	C	0.677998	-0.187661	0.952075
C111	C	0.678005	-0.187641	1.061800
C112	C	0.620500	-0.245092	1.061694
C113	C	0.620491	-0.245109	0.951972
H114	H	0.393079	-0.268633	0.627985
H115	H	-0.179329	-0.268670	0.628129
H116	H	0.730028	-0.688262	0.695702
O117	O	0.125245	-0.301945	0.705759
C118	C	0.120290	-0.359025	0.838746
C119	C	0.094508	-0.327379	0.764929
H120	H	0.095451	-0.379603	0.886587
H121	H	0.142268	-0.338449	0.893846
H122	H	0.142244	-0.382474	0.790388
H123	H	0.072531	-0.303924	0.813201
H124	H	0.072559	-0.347983	0.709825
O125	O	0.592534	-0.273003	1.114773
C126	C	0.535518	-0.330010	1.103087
C127	C	0.567159	-0.298415	1.042848
H128	H	0.515001	-0.350571	1.044962
H129	H	0.512016	-0.309396	1.154430
H130	H	0.556141	-0.353478	1.154476
H131	H	0.546573	-0.274942	0.991402
H132	H	0.590662	-0.319058	0.991571
H133	H	0.701420	-0.164243	1.106502
O134	O	0.705896	-1.048527	0.639275
C135	C	0.727635	-1.062827	0.818057
C136	C	0.696050	-1.037087	0.743996
H137	H	0.719679	-1.053594	0.902740
H138	H	0.763871	-1.053575	0.799800
H139	H	0.722716	-1.100395	0.806452
H140	H	0.700929	-0.999514	0.755559
H141	H	0.659825	-1.046376	0.762271
H142	H	0.568412	-0.744183	0.317131
O143	O	0.563896	-0.833034	0.306746
C144	C	0.503228	-0.886024	0.292501
C145	C	0.534827	-0.860152	0.366430
H146	H	0.479711	-0.907948	0.340727
H147	H	0.523838	-0.908030	0.237633
H148	H	0.482720	-0.861220	0.244404
H149	H	0.555341	-0.884924	0.414595
H150	H	0.514191	-0.838139	0.421229
H151	H	0.701242	-0.387383	0.628301
O152	O	0.173489	-0.130965	0.307264
C153	C	0.120544	-0.070307	0.293360
C154	C	0.146384	-0.101934	0.367111
H155	H	0.098632	-0.046821	0.341718
H156	H	0.098531	-0.090897	0.238367
H157	H	0.145370	-0.049767	0.245389
H158	H	0.121591	-0.122480	0.415151
H159	H	0.168405	-0.081318	0.422035
O160	O	0.032845	-0.131012	0.307021
C161	C	0.018447	-0.109127	0.128404
C162	C	0.044226	-0.140774	0.202226
H163	H	0.027631	-0.117014	0.043661
H164	H	0.027711	-0.072906	0.146937
H165	H	-0.019115	-0.114053	0.139969
H166	H	0.081793	-0.135888	0.190702
H167	H	0.034925	-0.176983	0.183675
H168	H	0.597071	-0.268507	0.907263
H169	H	0.478188	-0.268632	0.627937
H170	H	0.177266	-0.297410	0.695105
O171	O	0.265991	-0.301939	0.705712
C172	C	0.261037	-0.359016	0.838705
C173	C	0.235255	-0.327372	0.764883
H174	H	0.236198	-0.379594	0.886548
H175	H	0.283014	-0.338439	0.893804
H176	H	0.282991	-0.382465	0.790351
H177	H	0.213276	-0.303917	0.813152
H178	H	0.213306	-0.347977	0.709781
O179	O	-0.090537	-0.273138	0.638799
C180	C	-0.076173	-0.295053	0.817410
C181	C	-0.101977	-0.263429	0.743584
H182	H	-0.085420	-0.287220	0.902143
H183	H	-0.038604	-0.290110	0.805987
H184	H	-0.085414	-0.331266	0.798740
H185	H	-0.092773	-0.227204	0.762208
H186	H	-0.139539	-0.268411	0.755021
O187	O	-0.182963	-0.159735	0.374227
C188	C	-0.178013	-0.102690	0.241156
C189	C	-0.152228	-0.134353	0.314928
H190	H	-0.153175	-0.082168	0.193179
H191	H	-0.199942	-0.079193	0.289451
H192	H	-0.200015	-0.123294	0.186172
H193	H	-0.130201	-0.113785	0.369927
H194	H	-0.130328	-0.157851	0.266568
O195	O	-0.090499	-0.159828	0.374186
C196	C	-0.037596	-0.153708	0.232293
C197	C	-0.063406	-0.185335	0.306095
H198	H	-0.015692	-0.174317	0.177208
H199	H	-0.015576	-0.130242	0.280561
H200	H	-0.062441	-0.133146	0.184423
H201	H	-0.038593	-0.205926	0.353981
H202	H	-0.085432	-0.208771	0.257767
H203	H	0.730060	-0.829022	0.695748
O204	O	0.705946	-0.956062	0.638946
C205	C	0.766567	-0.903021	0.653244
C206	C	0.734964	-0.928877	0.579293
H207	H	0.790030	-0.881027	0.605046
H208	H	0.787128	-0.927796	0.701302
H209	H	0.745914	-0.881072	0.708148
H210	H	0.755582	-0.950825	0.524327
H211	H	0.714401	-0.904077	0.531310
O212	O	0.266014	-0.131018	0.306965
C213	C	0.280301	-0.109101	0.128349
C214	C	0.254507	-0.140728	0.202183
H215	H	0.271000	-0.116934	0.043619
H216	H	0.317871	-0.114041	0.139759
H217	H	0.271105	-0.072889	0.147022
H218	H	0.263665	-0.176952	0.183556
H219	H	0.216943	-0.135749	0.190760
O220	O	0.389425	-0.159695	0.374067
C221	C	0.394367	-0.102652	0.240992
C222	C	0.420156	-0.134315	0.314755
H223	H	0.419202	-0.082131	0.193004
H224	H	0.372443	-0.079154	0.289294
H225	H	0.372360	-0.123256	0.186017
H226	H	0.442188	-0.113747	0.369745
H227	H	0.442052	-0.157814	0.266388
H228	H	0.730042	-0.743903	0.695722
O229	O	0.481921	-0.159745	0.374177
C230	C	0.554200	-0.134265	0.314700
C231	C	0.528372	-0.165912	0.388421
H232	H	0.591760	-0.139246	0.326174
H233	H	0.545033	-0.098040	0.333328
H234	H	0.544924	-0.142101	0.229957
H235	H	0.537634	-0.158116	0.473188
H236	H	0.537541	-0.202127	0.369703
H237	H	0.036507	-0.297414	0.695139
H238	H	0.121586	-0.135506	0.317683
H239	H	0.701257	-0.472492	0.628363
O240	O	0.592658	-1.048697	0.373872
C241	C	0.535709	-1.043832	0.240395
C242	C	0.567314	-1.018000	0.314389
H243	H	0.515217	-1.019025	0.192268
H244	H	0.512182	-1.065785	0.288523
H245	H	0.556358	-1.065814	0.185559
H246	H	0.546701	-0.995993	0.369240
H247	H	0.590843	-0.996075	0.266196
H248	H	0.597183	-0.959961	0.384451
O249	O	0.734533	-0.599531	0.706331
C250	C	0.791516	-0.604400	0.839727
C251	C	0.759930	-0.630229	0.765685
H252	H	0.812064	-0.629209	0.887718
H253	H	0.770896	-0.582442	0.894678
H254	H	0.814996	-0.582423	0.791536
H255	H	0.736444	-0.652231	0.813792
H256	H	0.780578	-0.652159	0.710731
H257	H	0.597062	-0.472682	0.384259
H258	H	0.568365	-0.603425	0.317091
O259	O	0.563832	-0.692160	0.306514
C260	C	0.506878	-0.687288	0.173053
C261	C	0.538489	-0.661460	0.247040
H262	H	0.486386	-0.662478	0.124933
H263	H	0.483350	-0.709239	0.221187
H264	H	0.527521	-0.709273	0.118210
H265	H	0.517881	-0.639451	0.301898
H266	H	0.562017	-0.639538	0.198841
O267	O	0.592540	-0.383813	0.373764
C268	C	0.567090	-0.311572	0.314097
C269	C	0.598688	-0.337353	0.388047
H270	H	0.572057	-0.274005	0.325603
H271	H	0.530854	-0.320782	0.332465
H272	H	0.574991	-0.320847	0.229411
H273	H	0.590828	-0.328091	0.472758
H274	H	0.634916	-0.328140	0.369588
H275	H	0.701407	-0.164277	0.907455
