data_functionalizedCrystal
_audit_creation_method	'MofGen! by Chris Wilmer'
_symmetry_space_group_name_H-M	'P1'
_symmetry_Int_Tables_number	1
_symmetry_cell_setting	triclinic
loop_
_symmetry_equiv_pos_as_xyz
  x,y,z
_cell_length_a	30.700809
_cell_length_b	30.711276
_cell_length_c	30.700862
_cell_angle_alpha	59.998386
_cell_angle_beta	89.999414
_cell_angle_gamma	60.000191
loop_
_atom_site_label
_atom_site_type_symbol
_atom_site_fract_x
_atom_site_fract_y
_atom_site_fract_z
O1	O	-0.371254	-0.311651	0.012944
O2	O	-0.307913	-0.222487	-0.012907
O3	O	-0.307911	-0.311650	0.076286
O4	O	-0.371257	-0.222488	-0.076249
O5	O	-0.235466	-0.384070	0.076286
O6	O	-0.235468	-0.294907	-0.012907
O7	O	-0.298809	-0.384071	0.012944
Zn8	Zn	-0.255636	-0.350987	0.000018
Zn9	Zn	-0.351086	-0.255571	0.000019
O10	O	-0.298812	-0.294908	-0.076249
C11	C	-0.234796	-0.137097	-0.018777
C12	C	-0.261674	-0.083360	-0.015076
C13	C	-0.182374	-0.163176	-0.019143
C14	C	-0.234798	-0.215942	-0.018783
C15	C	-0.261678	-0.246507	-0.015089
C16	C	-0.182376	-0.241901	-0.019150
C17	C	-0.155920	-0.215947	-0.018777
C18	C	-0.098463	-0.246515	-0.015075
C19	C	-0.261132	-0.163172	-0.019150
C20	C	-0.574961	-0.535511	0.039265
C21	C	-0.548506	-0.588283	0.039634
C22	C	-0.496086	-0.535509	0.039262
C23	C	-0.469751	-0.588281	0.039632
C24	C	-0.496085	-0.614360	0.039265
C25	C	-0.548507	-0.509552	0.039632
C26	C	-0.765169	-0.393516	0.024987
C27	C	-0.819034	-0.364488	0.020950
C28	C	-0.846055	-0.389406	0.018925
C29	C	-0.904462	-0.357927	0.014538
C30	C	-0.819206	-0.443357	0.020941
C31	C	-0.765344	-0.472385	0.024984
C32	C	-0.738325	-0.447463	0.027007
C33	C	-0.447920	-0.790230	0.024988
C34	C	-0.423094	-0.840041	0.020951
C35	C	-0.371150	-0.865027	0.018921
C36	C	-0.344230	-0.919028	0.014536
C37	C	-0.344030	-0.840201	0.020935
C38	C	-0.368852	-0.790399	0.024981
C39	C	-0.420803	-0.765414	0.027004
C40	C	-0.447922	-0.393510	0.024977
C41	C	-0.423099	-0.364475	0.020931
C42	C	-0.371152	-0.389391	0.018903
C43	C	-0.344235	-0.357911	0.014513
C44	C	-0.344034	-0.443338	0.020916
C45	C	-0.368860	-0.472368	0.024960
C46	C	-0.420804	-0.447452	0.026995
C47	C	-0.679920	-0.478941	0.031387
C48	C	-0.633366	-0.504032	0.034880
C49	C	-0.469171	-0.504029	0.034875
C50	C	-0.447717	-0.478936	0.031380
C51	C	-0.469170	-0.668361	0.034880
C52	C	-0.447716	-0.711408	0.031386
C53	C	-0.496432	-0.071057	-0.503890
C54	C	-0.548853	-0.018285	-0.530226
C55	C	-0.496432	-0.071056	-0.425015
C56	C	-0.548854	-0.018284	-0.451470
C57	C	-0.575308	0.007793	-0.503892
C58	C	-0.470097	-0.097014	-0.451469
C59	C	-0.368666	-0.213054	-0.552051
C60	C	-0.343664	-0.242084	-0.576877
C61	C	-0.370616	-0.217167	-0.628824
C62	C	-0.343513	-0.248647	-0.655741
C63	C	-0.422570	-0.163216	-0.655945
C64	C	-0.447565	-0.134187	-0.631122
C65	C	-0.420611	-0.159108	-0.579173
C66	C	-0.765518	0.183662	-0.631659
C67	C	-0.819384	0.233473	-0.656662
C68	C	-0.846408	0.258459	-0.629712
C69	C	-0.904813	0.312461	-0.656813
C70	C	-0.819559	0.233635	-0.577758
C71	C	-0.765694	0.183833	-0.552761
C72	C	-0.738677	0.158847	-0.579717
C73	C	-0.368668	-0.213052	-0.234803
C74	C	-0.343669	-0.242086	-0.180935
C75	C	-0.370621	-0.217169	-0.153914
C76	C	-0.343519	-0.248648	-0.095506
C77	C	-0.422573	-0.163222	-0.180762
C78	C	-0.447570	-0.134193	-0.234627
C79	C	-0.420610	-0.159111	-0.261646
C80	C	-0.447720	-0.127629	-0.552258
C81	C	-0.469327	-0.102536	-0.530805
C82	C	-0.469328	-0.102535	-0.366609
C83	C	-0.447721	-0.127627	-0.320054
C84	C	-0.633714	0.061794	-0.530997
C85	C	-0.680269	0.104841	-0.552605
O86	O	0.076277	-0.384081	0.012960
O87	O	-0.076257	-0.294916	-0.012894
O88	O	0.012931	-0.384083	0.076300
O89	O	-0.012910	-0.294914	-0.076234
O90	O	0.012933	-0.311666	0.076306
O91	O	-0.076254	-0.222499	-0.012888
O92	O	0.076280	-0.311664	0.012966
Zn93	Zn	0.000013	-0.255584	0.000040
Zn94	Zn	0.000010	-0.350996	0.000032
O95	O	-0.012908	-0.222497	-0.076228
O96	O	-0.298805	0.063292	0.012964
O97	O	-0.235462	-0.063346	-0.012888
O98	O	-0.235465	-0.063353	0.076305
O99	O	-0.298803	0.063300	-0.076229
O100	O	-0.307912	-0.063350	0.076299
O101	O	-0.307909	-0.063342	-0.012895
O102	O	-0.371252	0.063295	0.012958
Zn103	Zn	-0.351083	-0.000023	0.000031
Zn104	Zn	-0.255631	-0.000027	0.000039
O105	O	-0.371250	0.063303	-0.076236
O106	O	-1.076607	0.456783	-0.692421
O107	O	-0.924074	0.330140	-0.629074
O108	O	-1.013262	0.330138	-0.629073
O109	O	-0.987418	0.456785	-0.692422
O110	O	-1.013261	0.330136	-0.701518
O111	O	-0.924072	0.330138	-0.701518
O112	O	-1.076605	0.456781	-0.764865
Zn113	Zn	-1.000338	0.393459	-0.744694
Zn114	Zn	-1.000340	0.393461	-0.649245
O115	O	-0.987417	0.456783	-0.764866
O116	O	-0.307911	-0.311650	-0.764507
O117	O	-0.371254	-0.222491	-0.701165
O118	O	-0.371252	-0.311652	-0.701162
O119	O	-0.307912	-0.222489	-0.764510
O120	O	-0.298806	-0.384074	-0.628716
O121	O	-0.298807	-0.294912	-0.628719
O122	O	-0.235464	-0.384072	-0.692061
Zn123	Zn	-0.255634	-0.350991	-0.648887
Zn124	Zn	-0.351085	-0.255572	-0.744338
O125	O	-0.235466	-0.294910	-0.692064
C126	C	-0.155920	-0.469469	0.234827
C127	C	-0.098464	-0.523208	0.261706
C128	C	-0.182375	-0.443392	0.261162
C129	C	-0.234797	-0.390619	0.155950
C130	C	-0.261676	-0.360052	0.098494
C131	C	-0.261132	-0.364662	0.182405
C132	C	-0.234797	-0.390620	0.234826
C133	C	-0.261675	-0.360052	0.261704
C134	C	-0.182375	-0.443391	0.182406
C135	C	0.018810	-0.390643	0.234846
C136	C	0.015111	-0.360079	0.261727
C137	C	0.019176	-0.443414	0.261179
C138	C	0.018812	-0.390637	0.155967
C139	C	0.015115	-0.360067	0.098511
C140	C	0.019178	-0.443408	0.182420
C141	C	0.018807	-0.469488	0.234841
C142	C	0.015106	-0.523226	0.261717
C143	C	0.019180	-0.364683	0.182425
C144	C	-0.234799	-0.215977	0.234834
C145	C	-0.261678	-0.246545	0.261708
C146	C	-0.182376	-0.241940	0.261172
C147	C	-0.234798	-0.137119	0.155964
C148	C	-0.261676	-0.083372	0.098509
C149	C	-0.182375	-0.163202	0.182421
C150	C	-0.155921	-0.215981	0.234841
C151	C	-0.098464	-0.246554	0.261721
C152	C	-0.261134	-0.163198	0.182415
C153	C	-0.039199	0.007461	-0.503869
C154	C	-0.039568	-0.018614	-0.530207
C155	C	-0.039203	-0.071390	-0.424995
C156	C	-0.039572	-0.097344	-0.451452
C157	C	-0.039201	-0.071385	-0.503874
C158	C	-0.039570	-0.018618	-0.451448
C159	C	-0.024912	0.183325	-0.552025
C160	C	-0.020873	0.233135	-0.576849
C161	C	-0.018844	0.258123	-0.628796
C162	C	-0.014454	0.312124	-0.655711
C163	C	-0.020859	0.233301	-0.655918
C164	C	-0.024906	0.183500	-0.631097
C165	C	-0.026932	0.158512	-0.579148
C166	C	-0.024920	-0.133799	-0.631644
C167	C	-0.020882	-0.162650	-0.656647
C168	C	-0.018855	-0.216605	-0.629699
C169	C	-0.014470	-0.247897	-0.656801
C170	C	-0.020872	-0.241704	-0.577746
C171	C	-0.024919	-0.212847	-0.552747
C172	C	-0.026939	-0.158893	-0.579702
C173	C	-0.024929	-0.133823	-0.234783
C174	C	-0.020887	-0.162684	-0.180915
C175	C	-0.018862	-0.216639	-0.153896
C176	C	-0.014477	-0.247936	-0.095488
C177	C	-0.020875	-0.241733	-0.180745
C178	C	-0.024915	-0.212872	-0.234610
C179	C	-0.026947	-0.158912	-0.261627
C180	C	-0.031316	0.104507	-0.552235
C181	C	-0.034811	0.061462	-0.530782
C182	C	-0.034820	-0.102682	-0.366590
C183	C	-0.031328	-0.127624	-0.320035
C184	C	-0.034816	-0.102672	-0.530980
C185	C	-0.031322	-0.127610	-0.552588
O186	O	-0.012940	-0.294936	0.371303
O187	O	0.012923	-0.384099	0.307961
O188	O	-0.076273	-0.294935	0.307950
O189	O	0.076257	-0.384100	0.371315
O190	O	-0.076265	-0.222515	0.235508
O191	O	0.012932	-0.311679	0.235520
O192	O	-0.012931	-0.222517	0.298862
Zn193	Zn	0.000002	-0.255600	0.255689
Zn194	Zn	-0.000010	-0.351016	0.351134
O195	O	0.076266	-0.311681	0.298873
C196	C	-0.574962	0.464558	-0.503864
C197	C	-0.548506	0.490518	-0.530195
C198	C	-0.496085	0.385697	-0.424987
C199	C	-0.469749	0.411776	-0.451438
C200	C	-0.496084	0.464555	-0.503857
C201	C	-0.548507	0.411779	-0.451444
C202	C	-0.765173	0.526994	-0.552039
C203	C	-0.819039	0.555852	-0.576867
C204	C	-0.846061	0.609814	-0.628812
C205	C	-0.904469	0.641114	-0.655732
C206	C	-0.819211	0.634913	-0.655928
C207	C	-0.765348	0.606050	-0.631102
C208	C	-0.738329	0.552088	-0.579155
C209	C	-0.447916	0.606561	-0.631604
C210	C	-0.423088	0.635592	-0.656601
C211	C	-0.371143	0.610674	-0.629648
C212	C	-0.344222	0.642150	-0.656742
C213	C	-0.344023	0.556716	-0.577696
C214	C	-0.368845	0.527681	-0.552704
C215	C	-0.420798	0.552613	-0.579664
C216	C	-0.447920	0.209802	-0.234786
C217	C	-0.423096	0.159988	-0.180919
C218	C	-0.371148	0.134996	-0.153895
C219	C	-0.344230	0.080987	-0.095489
C220	C	-0.344029	0.159823	-0.180737
C221	C	-0.368856	0.209637	-0.234602
C222	C	-0.420801	0.234620	-0.261624
C223	C	-0.679923	0.520797	-0.552238
C224	C	-0.633367	0.495853	-0.530781
C225	C	-0.469169	0.331687	-0.366583
C226	C	-0.447714	0.288634	-0.320030
C227	C	-0.469167	0.496035	-0.530956
C228	C	-0.447712	0.521128	-0.552558
H229	H	-0.569747	-0.610106	0.040228
H230	H	-0.161137	-0.141349	-0.019737
C231	C	-0.505060	-0.762752	0.027222
C232	C	-0.549890	-0.694721	-0.015952
C233	C	-0.607029	-0.667240	-0.013720
C234	C	-0.619338	-0.707788	0.031688
C235	C	-0.574506	-0.775823	0.074865
C236	C	-0.517367	-0.803305	0.072632
H237	H	-0.540780	-0.664701	-0.049568
H238	H	-0.640216	-0.616876	-0.045683
H239	H	-0.661635	-0.687445	0.033340
H240	H	-0.583616	-0.805843	0.108481
H241	H	-0.484180	-0.853669	0.104595
C242	C	-0.319320	-0.133692	-0.019955
C243	C	-0.333628	-0.127669	0.025717
C244	C	-0.391813	-0.098193	0.024912
C245	C	-0.435690	-0.074740	-0.021566
C246	C	-0.421383	-0.080762	-0.067242
C247	C	-0.363197	-0.110238	-0.066437
H248	H	-0.301147	-0.145032	0.060126
H249	H	-0.402404	-0.093735	0.058724
H250	H	-0.478762	-0.052920	-0.022163
H251	H	-0.453864	-0.063399	-0.101651
H252	H	-0.352607	-0.114696	-0.100249
C253	C	-0.286881	0.529299	-0.548046
C254	C	-0.240793	0.463727	-0.528962
C255	C	-0.183652	0.436311	-0.499310
C256	C	-0.172598	0.474467	-0.488743
C257	C	-0.218688	0.540043	-0.507828
C258	C	-0.275829	0.567459	-0.537479
H259	H	-0.248974	0.435478	-0.536783
H260	H	-0.149533	0.387768	-0.485183
H261	H	-0.130299	0.454173	-0.466794
H262	H	-0.210507	0.568292	-0.500006
H263	H	-0.309947	0.616002	-0.551607
H264	H	0.019773	-0.322218	0.161189
H265	H	-0.161134	-0.465220	0.304234
C266	C	-0.153675	-0.133723	0.153739
C267	C	-0.176682	-0.066853	0.133319
C268	C	-0.147981	-0.037379	0.104641
C269	C	-0.096272	-0.074775	0.096384
C270	C	-0.073262	-0.141649	0.116804
C271	C	-0.101964	-0.171123	0.145482
H272	H	-0.214963	-0.039167	0.139432
H273	H	-0.165014	0.012126	0.089525
H274	H	-0.075025	-0.052956	0.075155
H275	H	-0.034982	-0.169335	0.110692
H276	H	-0.084930	-0.220628	0.160599
H277	H	-0.841239	0.253681	-0.698962
H278	H	-0.161141	-0.284407	0.304244
H279	H	-0.427024	-0.139478	-0.430231
H280	H	-0.161139	-0.284365	-0.019743
C281	C	0.019980	-0.472895	0.153730
C282	C	0.066450	-0.496343	0.133304
C283	C	0.067253	-0.525831	0.104618
C284	C	0.021586	-0.531870	0.096358
C285	C	-0.024886	-0.508422	0.116785
C286	C	-0.025689	-0.478934	0.145471
H287	H	0.100258	-0.491872	0.139418
H288	H	0.101655	-0.543189	0.089497
H289	H	0.022181	-0.553699	0.075123
H290	H	-0.058694	-0.512892	0.110671
H291	H	-0.060092	-0.461576	0.160592
H292	H	-0.444508	-0.142931	-0.698242
C293	C	0.019974	-0.472906	0.319365
C294	C	0.066441	-0.496360	0.363254
C295	C	0.067239	-0.525854	0.421438
C296	C	0.021570	-0.531893	0.435732
C297	C	-0.024899	-0.508439	0.391841
C298	C	-0.025697	-0.478945	0.333658
H299	H	0.100250	-0.491890	0.352674
H300	H	0.101639	-0.543216	0.453929
H301	H	0.022161	-0.553726	0.478803
H302	H	-0.058709	-0.512909	0.402421
H303	H	-0.060098	-0.461583	0.301167
C304	C	-0.849279	0.261118	-0.548111
C305	C	-0.829774	0.288108	-0.529020
C306	C	-0.859495	0.315588	-0.499371
C307	C	-0.908721	0.316079	-0.488812
C308	C	-0.928229	0.289088	-0.507903
C309	C	-0.898508	0.261607	-0.537552
H310	H	-0.793331	0.287745	-0.536836
H311	H	-0.845054	0.335569	-0.485238
H312	H	-0.930722	0.336422	-0.466864
H313	H	-0.964671	0.289450	-0.500087
H314	H	-0.912949	0.241626	-0.551685
C315	C	-0.735798	0.156184	-0.661311
C316	C	-0.765324	0.183489	-0.718455
C317	C	-0.735602	0.156008	-0.748104
C318	C	-0.676354	0.101221	-0.720608
C319	C	-0.646824	0.073913	-0.663461
C320	C	-0.676546	0.101394	-0.633812
H321	H	-0.809186	0.224048	-0.738812
H322	H	-0.757462	0.176223	-0.790408
H323	H	-0.654352	0.080878	-0.742556
H324	H	-0.602962	0.033354	-0.643104
H325	H	-0.654686	0.081178	-0.591508
C326	C	-0.319320	-0.133714	0.153722
C327	C	-0.363205	-0.066846	0.133308
C328	C	-0.421389	-0.037365	0.104617
C329	C	-0.435686	-0.074752	0.096340
C330	C	-0.391800	-0.141624	0.116755
C331	C	-0.333616	-0.171105	0.145445
H332	H	-0.352623	-0.039166	0.139434
H333	H	-0.453877	0.012138	0.089505
H334	H	-0.478757	-0.052929	0.075101
H335	H	-0.402383	-0.169303	0.110628
H336	H	-0.301129	-0.220608	0.160557
C337	C	-0.153689	-0.472869	0.153707
C338	C	-0.145436	-0.435467	0.101996
C339	C	-0.116753	-0.464940	0.073295
C340	C	-0.096323	-0.531814	0.096307
C341	C	-0.104576	-0.569219	0.148022
C342	C	-0.133259	-0.539747	0.176722
H343	H	-0.160560	-0.385959	0.084959
H344	H	-0.110644	-0.437250	0.035013
H345	H	-0.075091	-0.553632	0.075061
H346	H	-0.089452	-0.618727	0.165059
H347	H	-0.139367	-0.567437	0.215004
C348	C	-0.040375	-0.154709	-0.422768
C349	C	0.005295	-0.214669	-0.371067
C350	C	0.004492	-0.272031	-0.342386
C351	C	-0.041982	-0.269434	-0.365405
C352	C	-0.087656	-0.209472	-0.417109
C353	C	-0.086853	-0.152110	-0.445790
H354	H	0.039701	-0.216593	-0.354023
H355	H	0.038303	-0.316419	-0.304111
H356	H	-0.042577	-0.311897	-0.344174
H357	H	-0.122062	-0.207547	-0.434152
H358	H	-0.120664	-0.107722	-0.484065
H359	H	-0.040160	0.003216	-0.573279
C360	C	-0.040370	0.010859	-0.422750
C361	C	-0.040762	0.069020	-0.451835
C362	C	-0.041563	0.098495	-0.423137
C363	C	-0.041971	0.069809	-0.365355
C364	C	-0.041580	0.011646	-0.336267
C365	C	-0.040779	-0.017829	-0.364965
H366	H	-0.040460	0.090257	-0.494612
H367	H	-0.041853	0.141551	-0.444670
H368	H	-0.042564	0.091629	-0.344111
H369	H	-0.041882	-0.009591	-0.293490
H370	H	-0.040489	-0.060885	-0.343432
C371	C	-0.848935	0.694267	-0.713065
C372	C	-0.853773	0.751958	-0.725370
C373	C	-0.883496	0.811314	-0.782508
C374	C	-0.908381	0.812980	-0.827341
C375	C	-0.903544	0.755287	-0.815038
C376	C	-0.873821	0.695931	-0.757899
H377	H	-0.835350	0.750727	-0.692180
H378	H	-0.887076	0.854022	-0.791616
H379	H	-0.930384	0.856919	-0.869639
H380	H	-0.921966	0.756518	-0.848227
H381	H	-0.870240	0.653223	-0.748792
C382	C	-0.018650	-0.301083	-0.151028
C383	C	0.030080	-0.360852	-0.101798
C384	C	0.032305	-0.420200	-0.072084
C385	C	-0.014200	-0.419778	-0.091601
C386	C	-0.062933	-0.360007	-0.140834
C387	C	-0.065158	-0.300659	-0.170548
H388	H	0.064509	-0.361166	-0.087348
H389	H	0.068381	-0.464446	-0.035638
H390	H	-0.012552	-0.463711	-0.069605
H391	H	-0.097362	-0.359693	-0.155284
H392	H	-0.101234	-0.256412	-0.206993
H393	H	-0.490217	0.230142	-0.256784
C394	C	-0.018673	-0.135082	-0.151382
C395	C	0.026715	-0.127556	-0.146682
C396	C	0.028925	-0.099951	-0.117150
C397	C	-0.014253	-0.079873	-0.092317
C398	C	-0.059645	-0.087398	-0.097016
C399	C	-0.061855	-0.115003	-0.126549
H400	H	0.058681	-0.142420	-0.165065
H401	H	0.062527	-0.094380	-0.113671
H402	H	-0.012617	-0.059438	-0.070455
H403	H	-0.091610	-0.072535	-0.078633
H404	H	-0.095457	-0.120574	-0.130027
C405	C	-0.018648	0.260431	-0.547014
C406	C	0.026748	0.219740	-0.494098
C407	C	0.028975	0.247034	-0.464261
C408	C	-0.014196	0.315020	-0.487340
C409	C	-0.059596	0.355716	-0.540258
C410	C	-0.061822	0.328421	-0.570095
H411	H	0.058708	0.169409	-0.477011
H412	H	0.062583	0.216909	-0.425088
H413	H	-0.012548	0.335225	-0.465253
H414	H	-0.091556	0.406046	-0.557345
H415	H	-0.095430	0.358547	-0.609269
H416	H	-0.026581	-0.089888	-0.256777
H417	H	-0.026563	0.162985	-0.509727
H418	H	-0.019210	0.253653	-0.698214
C419	C	-0.027122	0.156197	-0.660928
C420	C	-0.024889	0.183678	-0.718066
C421	C	-0.027102	0.156373	-0.747897
C422	C	-0.031549	0.101588	-0.720591
C423	C	-0.033782	0.074105	-0.663451
C424	C	-0.031569	0.101410	-0.633620
H425	H	-0.021597	0.224235	-0.738282
H426	H	-0.025449	0.176718	-0.790196
H427	H	-0.033188	0.081376	-0.742674
H428	H	-0.037074	0.033548	-0.643235
H429	H	-0.033222	0.081065	-0.591320
H430	H	-0.841210	-0.463642	0.019294
C431	C	-0.411561	0.382290	-0.422749
C432	C	-0.367680	0.315419	-0.402329
C433	C	-0.309494	0.285936	-0.373644
C434	C	-0.295189	0.323324	-0.365378
C435	C	-0.339071	0.390199	-0.385799
C436	C	-0.397257	0.419682	-0.414484
H437	H	-0.378269	0.287738	-0.408447
H438	H	-0.277010	0.236430	-0.358527
H439	H	-0.252116	0.301499	-0.344144
H440	H	-0.328482	0.417880	-0.379681
H441	H	-0.429741	0.469188	-0.429600
H442	H	-0.026568	-0.089866	-0.653596
H443	H	-0.019237	-0.142213	-0.698946
H444	H	-0.019230	-0.285631	-0.555806
H445	H	-0.304201	-0.322192	0.161160
H446	H	-0.026564	-0.233284	-0.510448
H447	H	-0.426680	-0.610102	0.040221
H448	H	-0.569749	-0.467085	0.040220
H449	H	-0.445184	-0.320548	0.019287
C450	C	-0.452926	-0.867342	0.018729
C451	C	-0.472069	-0.894195	0.065239
C452	C	-0.501903	-0.921494	0.063015
C453	C	-0.512594	-0.921940	0.014282
C454	C	-0.493450	-0.895086	-0.032232
C455	C	-0.463617	-0.867787	-0.030008
H456	H	-0.464155	-0.893866	0.101317
H457	H	-0.516074	-0.941374	0.097447
H458	H	-0.534678	-0.942149	0.012635
H459	H	-0.501364	-0.895415	-0.068310
H460	H	-0.449446	-0.847908	-0.064440
C461	C	-0.577207	0.547913	-0.588369
C462	C	-0.635002	0.576624	-0.617458
C463	C	-0.663705	0.634027	-0.675624
C464	C	-0.634613	0.662719	-0.704702
C465	C	-0.576815	0.634007	-0.675613
C466	C	-0.548111	0.576604	-0.617446
H467	H	-0.656540	0.555385	-0.595933
H468	H	-0.706492	0.655281	-0.697158
H469	H	-0.655861	0.705212	-0.747760
H470	H	-0.555276	0.655246	-0.697138
H471	H	-0.505325	0.555350	-0.595913
C472	C	-0.577197	0.382290	-0.422755
C473	C	-0.634984	0.410978	-0.451845
C474	C	-0.663671	0.381488	-0.423155
C475	C	-0.634572	0.323310	-0.365376
C476	C	-0.576781	0.294619	-0.336282
C477	C	-0.548094	0.324109	-0.364972
H478	H	-0.656528	0.454047	-0.494620
H479	H	-0.706451	0.402727	-0.444693
H480	H	-0.655808	0.301480	-0.344138
H481	H	-0.555237	0.251549	-0.293507
H482	H	-0.505314	0.302870	-0.343435
C483	C	-0.505063	-0.366099	0.027208
C484	C	-0.534896	-0.306757	0.024986
C485	C	-0.592036	-0.279349	0.027216
C486	C	-0.619343	-0.311282	0.031668
C487	C	-0.589509	-0.370628	0.033890
C488	C	-0.532369	-0.398036	0.031660
H489	H	-0.514683	-0.283115	0.021690
H490	H	-0.614121	-0.235417	0.025570
H491	H	-0.661641	-0.290993	0.033318
H492	H	-0.609723	-0.394270	0.037186
H493	H	-0.510284	-0.441968	0.033306
C494	C	-0.452926	0.132680	-0.151393
C495	C	-0.429839	0.064694	-0.126567
C496	C	-0.459668	0.037384	-0.097042
C497	C	-0.512586	0.078059	-0.092343
C498	C	-0.535676	0.146049	-0.117170
C499	C	-0.505846	0.173359	-0.146696
H500	H	-0.390664	0.034580	-0.130044
H501	H	-0.442575	-0.012947	-0.078663
H502	H	-0.534667	0.057843	-0.070487
H503	H	-0.574850	0.176163	-0.113693
H504	H	-0.522939	0.223690	-0.165074
H505	H	-0.743175	-0.373219	0.026636
H506	H	-0.026556	-0.233307	-0.256467
C507	C	-0.286521	-0.301422	-0.151403
C508	C	-0.240526	-0.300896	-0.171056
C509	C	-0.183376	-0.360229	-0.141525
C510	C	-0.172222	-0.420089	-0.092340
C511	C	-0.218219	-0.420618	-0.072685
C512	C	-0.275369	-0.361285	-0.102216
H513	H	-0.248782	-0.256582	-0.207467
H514	H	-0.149327	-0.359837	-0.156075
H515	H	-0.129916	-0.464012	-0.070480
H516	H	-0.209963	-0.464932	-0.036274
H517	H	-0.309418	-0.361677	-0.087666
C518	C	-0.848573	0.528250	-0.547039
C519	C	-0.828927	0.462623	-0.527904
C520	C	-0.858460	0.435021	-0.498075
C521	C	-0.907639	0.473045	-0.487380
C522	C	-0.927287	0.538676	-0.506515
C523	C	-0.897754	0.566278	-0.536345
H524	H	-0.792520	0.434472	-0.535821
H525	H	-0.843915	0.386437	-0.483910
H526	H	-0.929502	0.452612	-0.465299
H527	H	-0.963695	0.566827	-0.498599
H528	H	-0.912299	0.614863	-0.550510
C529	C	-0.452921	0.694945	-0.713740
C530	C	-0.505833	0.752533	-0.725946
C531	C	-0.535667	0.811888	-0.783084
C532	C	-0.512590	0.813655	-0.828017
C533	C	-0.459676	0.756065	-0.815812
C534	C	-0.429841	0.696710	-0.758673
H535	H	-0.522918	0.751226	-0.692683
H536	H	-0.574837	0.854520	-0.792119
H537	H	-0.534675	0.857593	-0.870315
H538	H	-0.442590	0.757372	-0.849075
H539	H	-0.390671	0.654078	-0.749639
H540	H	-0.743179	0.483055	-0.509743
H541	H	-0.743490	0.626486	-0.653184
H542	H	-0.490215	0.626864	-0.653559
C543	C	-0.339015	-0.240462	-0.264523
C544	C	-0.281873	-0.299803	-0.234995
C545	C	-0.252224	-0.327209	-0.264717
C546	C	-0.279716	-0.295275	-0.323968
C547	C	-0.336861	-0.235932	-0.353500
C548	C	-0.366510	-0.208525	-0.323778
H549	H	-0.261519	-0.323445	-0.191130
H550	H	-0.209922	-0.371140	-0.242855
H551	H	-0.257768	-0.315564	-0.345971
H552	H	-0.357216	-0.212289	-0.397365
H553	H	-0.408813	-0.164594	-0.345640
C554	C	-0.286884	0.132335	-0.151016
C555	C	-0.242056	0.064307	-0.126146
C556	C	-0.184913	0.036820	-0.096427
C557	C	-0.172599	0.077361	-0.091579
C558	C	-0.217428	0.145393	-0.116449
C559	C	-0.274570	0.172880	-0.146168
H560	H	-0.251171	0.034292	-0.129735
H561	H	-0.151728	-0.013542	-0.078016
H562	H	-0.130298	0.057014	-0.069579
H563	H	-0.208313	0.175408	-0.112861
H564	H	-0.307756	0.223242	-0.164579
H565	H	-0.346761	0.483749	-0.510407
C566	C	-0.286522	-0.301430	-0.547043
C567	C	-0.241593	-0.303187	-0.570122
C568	C	-0.184452	-0.362535	-0.540286
C569	C	-0.172240	-0.420126	-0.487372
C570	C	-0.217170	-0.418371	-0.464290
C571	C	-0.274311	-0.359023	-0.494125
H572	H	-0.250632	-0.260553	-0.609295
H573	H	-0.151191	-0.363833	-0.557373
H574	H	-0.129940	-0.464058	-0.465286
H575	H	-0.208131	-0.461005	-0.425117
H576	H	-0.307572	-0.357724	-0.477038
C577	C	-0.736163	0.156527	-0.495616
C578	C	-0.765881	0.184005	-0.465967
C579	C	-0.736351	0.156698	-0.408820
C580	C	-0.677102	0.101912	-0.381323
C581	C	-0.647380	0.074431	-0.410973
C582	C	-0.676911	0.101738	-0.468119
H583	H	-0.809744	0.224564	-0.486321
H584	H	-0.758353	0.177041	-0.386872
H585	H	-0.655242	0.081697	-0.339020
H586	H	-0.603518	0.033873	-0.390618
H587	H	-0.654908	0.081395	-0.490067
H588	H	-0.346770	0.229846	-0.256454
C589	C	-0.848566	-0.305142	0.018726
C590	C	-0.828918	-0.305646	0.065233
C591	C	-0.858451	-0.246299	0.063008
C592	C	-0.907632	-0.186449	0.014274
C593	C	-0.927283	-0.185942	-0.032237
C594	C	-0.897750	-0.245289	-0.030012
H595	H	-0.792509	-0.349953	0.101312
H596	H	-0.843904	-0.246674	0.097439
H597	H	-0.929494	-0.142516	0.012626
H598	H	-0.963692	-0.141635	-0.068316
H599	H	-0.912297	-0.244914	-0.064443
H600	H	-0.301733	-0.860548	0.019286
C601	C	-0.339023	-0.763092	0.027195
C602	C	-0.281886	-0.790569	0.024963
C603	C	-0.252058	-0.763260	0.027174
C604	C	-0.279366	-0.708474	0.031617
C605	C	-0.336506	-0.680994	0.033850
C606	C	-0.366334	-0.708303	0.031639
H607	H	-0.261668	-0.831127	0.021673
H608	H	-0.209759	-0.783603	0.025521
H609	H	-0.257286	-0.688258	0.033254
H610	H	-0.356724	-0.640435	0.037140
H611	H	-0.408633	-0.687960	0.033291
H612	H	-0.346776	-0.516292	0.026600
C613	C	-0.286890	-0.470754	0.018690
C614	C	-0.274578	-0.478225	-0.026710
C615	C	-0.217436	-0.505643	-0.028935
C616	C	-0.172607	-0.525590	0.014241
C617	C	-0.184918	-0.518119	0.059645
C618	C	-0.242060	-0.490702	0.061870
H619	H	-0.307764	-0.463459	-0.058674
H620	H	-0.208323	-0.511173	-0.062546
H621	H	-0.130307	-0.545886	0.012594
H622	H	-0.151731	-0.532886	0.091609
H623	H	-0.251173	-0.485172	0.095481
H624	H	-0.743487	-0.516312	0.026628
H625	H	-0.570092	0.003538	-0.430229
C626	C	-0.452227	-0.135808	-0.151044
C627	C	-0.462784	-0.173972	-0.101814
C628	C	-0.492439	-0.146558	-0.072099
C629	C	-0.511538	-0.080980	-0.091612
C630	C	-0.500981	-0.042811	-0.140844
C631	C	-0.471326	-0.070225	-0.170560
H632	H	-0.448646	-0.222521	-0.087367
H633	H	-0.500253	-0.174813	-0.035654
H634	H	-0.533490	-0.060686	-0.069615
H635	H	-0.515119	0.005737	-0.155292
H636	H	-0.463512	-0.041970	-0.207005
H637	H	-0.570087	0.003544	-0.573301
H638	H	-0.346713	-0.233351	-0.509753
H639	H	-0.489864	-0.090259	-0.653209
H640	H	-0.489870	-0.090268	-0.256484
