data_functionalizedCrystal
_audit_creation_method	'MofGen! by Chris Wilmer'
_symmetry_space_group_name_H-M	'P1'
_symmetry_Int_Tables_number	1
_symmetry_cell_setting	triclinic
loop_
_symmetry_equiv_pos_as_xyz
  x,y,z
_cell_length_a	14.044220
_cell_length_b	10.654550
_cell_length_c	9.730223
_cell_angle_alpha	89.995747
_cell_angle_beta	90.001660
_cell_angle_gamma	88.836904
loop_
_atom_site_label
_atom_site_type_symbol
_atom_site_fract_x
_atom_site_fract_y
_atom_site_fract_z
O1	O	1.259697	0.302986	-0.114143
O2	O	1.759697	0.802986	0.385857
O3	O	0.983656	0.292052	-0.114178
O4	O	1.483656	0.792052	0.385822
O5	O	1.128023	0.115418	-0.114151
O6	O	1.628023	0.615418	0.385849
O7	O	1.115330	0.479621	-0.114170
O8	O	1.615330	0.979621	0.385830
O9	O	1.128014	0.115411	0.114429
O10	O	1.628014	0.615411	0.614429
O11	O	0.983646	0.292046	0.114402
O12	O	1.483646	0.792046	0.614402
O13	O	1.259688	0.302980	0.114437
O14	O	1.759688	0.802980	0.614437
Zn15	Zn	1.121665	0.297512	0.150711
Zn16	Zn	1.621665	0.797512	0.650711
Zn17	Zn	1.121678	0.297520	-0.150453
Zn18	Zn	1.621678	0.797520	0.349547
O19	O	1.115320	0.479614	0.114410
O20	O	1.615320	0.979614	0.614410
C21	C	1.127086	0.068523	0.000138
C22	C	1.627086	0.568523	0.500138
C23	C	1.124298	-0.071201	0.000136
C24	C	1.624298	0.428799	0.500136
C25	C	0.948305	0.287263	0.000108
C26	C	1.448305	0.787263	0.500108
C27	C	0.842986	0.272988	0.000095
C28	C	1.342986	0.772988	0.500095
C29	C	1.209299	-0.142144	0.000146
C30	C	1.709299	0.357856	0.500146
C31	C	1.206673	-0.273429	0.000129
C32	C	1.706673	0.226571	0.500129
C33	C	1.034038	-0.262814	0.000097
C34	C	1.534038	0.237186	0.500097
C35	C	1.036665	-0.131532	0.000104
C36	C	1.536665	0.368468	0.500104
C37	C	0.650153	0.246889	0.000123
C38	C	1.150153	0.746889	0.500123
C39	C	0.593185	0.348137	0.000124
C40	C	1.093185	0.848137	0.500124
C41	C	0.485886	0.333615	0.000140
C42	C	0.985886	0.833615	0.500140
C43	C	0.757462	0.261409	0.000107
C44	C	1.257462	0.761409	0.500107
C45	C	1.295038	0.307769	0.000148
C46	C	1.795038	0.807769	0.500148
C47	C	1.400358	0.322044	0.000152
C48	C	1.900358	0.822044	0.500152
C49	C	1.116257	0.526509	0.000118
C50	C	1.616257	1.026509	0.500118
C51	C	1.119045	0.666233	0.000111
C52	C	1.619045	1.166233	0.500111
N53	N	1.121664	0.297506	0.356248
N54	N	1.621664	0.797506	0.856248
N55	N	1.121687	0.297517	-0.355989
N56	N	1.621687	0.797517	0.144011
C57	C	1.185612	0.219331	0.428186
C58	C	1.685612	0.719331	0.928186
C59	C	1.185621	0.219332	0.572069
C60	C	1.685621	0.719332	1.072069
C61	C	1.057732	0.375696	0.572063
C62	C	1.557732	0.875696	1.072063
C63	C	1.057719	0.375687	0.428183
C64	C	1.557719	0.875687	0.928183
H65	H	1.280656	-0.093027	0.000168
H66	H	1.780656	0.406973	0.500168
N67	N	1.254567	0.134979	0.350618
N68	N	1.754567	0.634979	0.850618
H69	H	1.217945	0.075242	0.290944
H70	H	1.717945	0.575242	0.790944
H71	H	1.296868	0.187806	0.290980
H72	H	1.796868	0.687806	0.790980
N73	N	0.988749	0.460011	0.350573
N74	N	1.488749	0.960011	0.850573
H75	H	0.946436	0.407237	0.290894
H76	H	1.446436	0.907237	0.790894
H77	H	0.948310	0.509535	0.418054
H78	H	1.448310	1.009535	0.918054
H79	H	1.237692	0.155673	0.630636
H80	H	1.737692	0.655673	1.130636
H81	H	0.624998	0.445725	0.000112
H82	H	1.124998	0.945725	0.500112
H83	H	0.618342	0.149310	0.000136
H84	H	1.118342	0.649310	0.500136
N85	N	1.298353	-0.349949	0.000139
N86	N	1.798353	0.150051	0.500139
H87	H	1.354262	-0.291804	0.000160
H88	H	1.854262	0.208196	0.500160
H89	H	1.301015	-0.404661	0.084872
H90	H	1.801015	0.095339	0.584872
N91	N	0.939523	-0.327886	0.000069
N92	N	1.439523	0.172114	0.500069
H93	H	0.950755	-0.421818	0.000071
H94	H	1.450755	0.078182	0.500071
H95	H	0.902285	-0.302627	0.084802
H96	H	1.402285	0.197373	0.584802
N97	N	0.988766	0.460016	0.649650
N98	N	1.488766	0.960016	1.149650
H99	H	0.998478	0.448163	0.751715
H100	H	1.498478	0.948163	1.251715
H101	H	1.000300	0.550406	0.624483
H102	H	1.500300	1.050406	1.124483
H103	H	0.967442	-0.073767	0.000092
H104	H	1.467442	0.426233	0.500092
