data_functionalizedCrystal
_audit_creation_method	'MofGen! by Chris Wilmer'
_symmetry_space_group_name_H-M	'P1'
_symmetry_Int_Tables_number	1
_symmetry_cell_setting	triclinic
loop_
_symmetry_equiv_pos_as_xyz
  x,y,z
_cell_length_a	18.215407
_cell_length_b	12.645330
_cell_length_c	18.215407
_cell_angle_alpha	89.993602
_cell_angle_beta	90.008215
_cell_angle_gamma	89.979301
loop_
_atom_site_label
_atom_site_type_symbol
_atom_site_fract_x
_atom_site_fract_y
_atom_site_fract_z
Zn1	Zn	1.124996	0.422370	0.416106
Zn2	Zn	1.624996	0.922370	0.916106
Zn3	Zn	1.124922	0.599604	0.293052
Zn4	Zn	1.624922	1.099604	0.793052
Zn5	Zn	1.001949	0.422338	0.293057
Zn6	Zn	1.501949	0.922338	0.793057
Zn7	Zn	1.001891	0.599575	0.416081
Zn8	Zn	1.501891	1.099575	0.916081
O9	O	1.063439	0.510972	0.354574
O10	O	1.563439	1.010972	0.854574
O11	O	1.227970	0.445906	0.399790
O12	O	1.727970	0.945906	0.899790
O13	O	1.108602	0.576087	0.190068
O14	O	1.608602	1.076087	0.690068
O15	O	1.018326	0.273995	0.309393
O16	O	1.518326	0.773995	0.809393
O17	O	1.227916	0.576119	0.309383
O18	O	1.727916	1.076119	0.809383
O19	O	1.108728	0.274019	0.399796
O20	O	1.608728	0.774019	0.899796
O21	O	1.018255	0.445851	0.190072
O22	O	1.518255	0.945851	0.690072
O23	O	0.898957	0.445823	0.309369
O24	O	1.398957	0.945823	0.809369
O25	O	1.018228	0.576070	0.519069
O26	O	1.518228	1.076070	1.019069
O27	O	0.898915	0.576039	0.399754
O28	O	1.398915	1.076039	0.899754
O29	O	1.108672	0.445878	0.519087
O30	O	1.608672	0.945878	1.019087
O31	O	1.108547	0.747947	0.309359
O32	O	1.608547	1.247947	0.809359
O33	O	1.018156	0.747926	0.399748
O34	O	1.518156	1.247926	0.899748
C35	C	0.872233	0.510925	0.354560
C36	C	1.372233	1.010925	0.854560
C37	C	0.790434	0.510931	0.354571
C38	C	1.290434	1.010931	0.854571
C39	C	0.525399	0.443300	0.401724
C40	C	1.025399	0.943300	0.901724
C41	C	0.602258	0.443283	0.401722
C42	C	1.102258	0.943283	0.901722
C43	C	0.602221	0.578677	0.307440
C44	C	1.102221	1.078677	0.807440
C45	C	0.525363	0.578699	0.307447
C46	C	1.025363	1.078699	0.807447
C47	C	0.486955	0.511004	0.354588
C48	C	0.986955	1.011004	0.854588
C49	C	0.640671	0.510966	0.354579
C50	C	1.140671	1.010966	0.854579
C51	C	0.724004	0.510948	0.354576
C52	C	1.224004	1.010948	0.854576
C53	C	0.403616	0.511024	0.354592
C54	C	0.903616	1.011024	0.854592
C55	C	1.063357	0.786401	0.354567
C56	C	1.563357	1.286401	0.854567
C57	C	1.063389	0.904231	0.354588
C58	C	1.563389	1.404231	0.854588
C59	C	1.006742	1.071826	0.411629
C60	C	1.506742	1.571826	0.911629
C61	C	1.006465	0.949267	0.411444
C62	C	1.506465	1.449267	0.911444
C63	C	1.042405	0.948788	0.277031
C64	C	1.542405	1.448788	0.777031
C65	C	1.042047	1.071387	0.277378
C66	C	1.542047	1.571387	0.777378
C67	C	1.141329	1.071340	0.374480
C68	C	1.641329	1.571340	0.874480
C69	C	1.140863	0.948734	0.376174
C70	C	1.640863	1.448734	0.876174
C71	C	1.255392	0.511019	0.354589
C72	C	1.755392	1.011019	0.854589
C73	C	1.337191	0.511040	0.354595
C74	C	1.837191	1.011040	0.854595
C75	C	1.063452	0.510974	0.546527
C76	C	1.563452	1.010974	1.046527
C77	C	1.063457	0.510976	0.628326
C78	C	1.563457	1.010976	1.128326
C79	C	1.063516	1.234466	0.354600
C80	C	1.563516	1.734466	0.854600
C81	C	1.063482	1.116636	0.354618
C82	C	1.563482	1.616636	0.854618
C83	C	1.110537	0.443196	0.816530
C84	C	1.610537	0.943196	1.316530
C85	C	1.110533	0.443195	0.893389
C86	C	1.610533	0.943195	1.393389
C87	C	1.016354	0.578771	0.893359
C88	C	1.516354	1.078771	1.393359
C89	C	1.016355	0.578765	0.816502
C90	C	1.516355	1.078765	1.316502
C91	C	1.063450	0.510979	0.778089
C92	C	1.563450	1.010979	1.278089
C93	C	1.063445	0.510984	0.931805
C94	C	1.563445	1.010984	1.431805
C95	C	1.063441	0.510984	1.015139
C96	C	1.563441	1.010984	1.515139
C97	C	1.063455	0.510978	0.694750
C98	C	1.563455	1.010978	1.194750
C99	C	1.063427	0.510992	1.163368
C100	C	1.563427	1.010992	1.663368
C101	C	1.063439	0.510988	1.081569
C102	C	1.563439	1.010988	1.581569
H103	H	0.633556	0.388153	0.440106
H104	H	1.133556	0.888153	0.940106
C105	C	0.964550	0.653329	0.935620
C106	C	1.464550	1.153329	1.435620
N107	N	0.925530	0.709488	0.967450
N108	N	1.425530	1.209488	1.467450
C109	C	1.162334	0.368631	0.935671
C110	C	1.662334	0.868631	1.435671
N111	N	1.201352	0.312465	0.967517
N112	N	1.701352	0.812465	1.467517
C113	C	0.483152	0.368844	0.453586
C114	C	0.983152	0.868844	0.953586
N115	N	0.451334	0.312764	0.492653
N116	N	0.951334	0.812764	0.992653
C117	C	0.644478	0.653124	0.255579
C118	C	1.144478	1.153124	0.755579
N119	N	0.676305	0.709194	0.216513
N120	N	1.176305	1.209194	0.716513
C121	C	0.965169	1.110130	0.254653
C122	C	1.465169	1.610130	0.754653
N123	N	0.907262	1.139305	0.237538
N124	N	1.407262	1.639305	0.737538
C125	C	0.483072	0.653178	0.255587
C126	C	0.983072	1.153178	0.755587
N127	N	0.451218	0.709273	0.216528
N128	N	0.951218	1.209273	0.716528
H129	H	1.081581	1.101030	0.233453
H130	H	1.581581	1.601030	0.733453
H131	H	1.160467	1.102211	0.430074
H132	H	1.660467	1.602211	0.930074
C133	C	1.198439	1.110491	0.318387
C134	C	1.698439	1.610491	0.818387
N135	N	1.241449	1.139987	0.276137
N136	N	1.741449	1.639987	0.776137
C137	C	0.964551	0.653333	0.774214
C138	C	1.464551	1.153333	1.274214
N139	N	0.925532	0.709492	0.742363
N140	N	1.425532	1.209492	1.242363
H141	H	1.148883	0.387997	0.785257
H142	H	1.648883	0.887997	1.285257
C143	C	1.024197	0.908564	0.489137
C144	C	1.524197	1.408564	0.989137
N145	N	1.037550	0.877912	0.547658
N146	N	1.537550	1.377912	1.047658
H147	H	1.019743	1.101266	0.469327
H148	H	1.519743	1.601266	0.969327
C149	C	0.929260	1.113539	0.394075
C150	C	1.429260	1.613539	0.894075
N151	N	0.870901	1.144954	0.380849
N152	N	1.370901	1.644954	0.880849
H153	H	0.948760	0.920018	0.398286
H154	H	1.448760	1.420018	0.898286
H155	H	1.082429	0.919616	0.233392
H156	H	1.582429	1.419616	0.733392
H157	H	0.986099	0.918162	0.259900
H158	H	1.486099	1.418162	0.759900
C159	C	1.162261	0.909345	0.453269
C160	C	1.662261	1.409345	0.953269
N161	N	1.178381	0.879658	0.511332
N162	N	1.678381	1.379658	1.011332
H163	H	1.185369	0.918073	0.337674
H164	H	1.685369	1.418073	0.837674
