data_functionalizedCrystal
_audit_creation_method	'MofGen! by Chris Wilmer'
_symmetry_space_group_name_H-M	'P1'
_symmetry_Int_Tables_number	1
_symmetry_cell_setting	triclinic
loop_
_symmetry_equiv_pos_as_xyz
  x,y,z
_cell_length_a	10.654545
_cell_length_b	12.784905
_cell_length_c	9.130313
_cell_angle_alpha	89.996667
_cell_angle_beta	89.996934
_cell_angle_gamma	78.795199
loop_
_atom_site_label
_atom_site_type_symbol
_atom_site_fract_x
_atom_site_fract_y
_atom_site_fract_z
O1	O	1.650020	0.149145	-0.121780
O2	O	1.282842	0.163362	-0.121785
O3	O	1.493300	0.001724	-0.121778
O4	O	1.439562	0.310783	-0.121787
O5	O	1.493288	0.001719	0.121821
O6	O	1.282829	0.163357	0.121813
O7	O	1.650007	0.149140	0.121819
Cu8	Cu	1.466417	0.156248	0.144059
Cu9	Cu	1.466432	0.156254	-0.144025
O10	O	1.439549	0.310778	0.121812
C11	C	1.236162	0.162317	0.000013
C12	C	1.097092	0.159196	0.000011
C13	C	1.031756	0.157725	0.132798
C14	C	0.901089	0.154776	0.132798
C15	C	0.901104	0.154774	-0.132787
C16	C	1.031770	0.157716	-0.132786
C17	C	1.496789	-0.037852	0.000019
C18	C	1.507188	-0.155770	0.000013
C19	C	1.295321	-0.353713	0.000024
C20	C	1.305086	-0.464506	0.000019
C21	C	1.536481	-0.488151	0.000007
C22	C	1.526716	-0.377358	0.000012
C23	C	1.406132	-0.310142	0.000019
C24	C	1.396368	-0.199347	0.000014
C25	C	1.627763	-0.222994	0.000013
C26	C	1.637528	-0.333787	0.000007
C27	C	1.696687	0.150186	0.000017
C28	C	1.835758	0.153306	0.000010
C29	C	1.436061	0.350355	0.000011
C30	C	1.425662	0.468272	0.000008
N31	N	1.466416	0.156244	0.346681
N32	N	1.466444	0.156250	-0.346648
C33	C	1.559632	0.084701	0.423337
C34	C	1.559644	0.084701	0.576673
C35	C	1.373219	0.227796	0.576686
C36	C	1.373202	0.227790	0.423352
H37	H	0.847903	0.153569	-0.240905
O38	O	1.272662	0.304961	0.340657
H39	H	1.207860	0.354725	0.419728
O40	O	1.165270	-0.281210	0.000021
H41	H	1.155288	-0.230168	0.099306
O42	O	1.102254	0.159306	-0.276011
H43	H	1.034878	0.157799	-0.368354
H44	H	1.214852	-0.499976	0.000031
H45	H	1.635531	0.026442	0.360915
H46	H	1.297328	0.286050	0.639127
H47	H	1.298182	-0.144621	0.000016
H48	H	1.634655	-0.542896	0.000019
H49	H	1.084936	0.158931	0.240929
H50	H	1.735703	-0.388529	0.000007
O51	O	0.830611	0.153199	0.276016
H52	H	0.897988	0.154732	0.368351
O53	O	1.660198	0.007551	0.659357
H54	H	1.725016	-0.042189	0.580277
O55	O	1.747295	-0.176005	0.000013
H56	H	1.720251	-0.087671	0.000026
