data_functionalizedCrystal
_audit_creation_method	'MofGen! by Chris Wilmer'
_symmetry_space_group_name_H-M	'P1'
_symmetry_Int_Tables_number	1
_symmetry_cell_setting	triclinic
loop_
_symmetry_equiv_pos_as_xyz
  x,y,z
_cell_length_a	14.044191
_cell_length_b	14.044220
_cell_length_c	8.140239
_cell_angle_alpha	89.995422
_cell_angle_beta	89.999659
_cell_angle_gamma	93.190327
loop_
_atom_site_label
_atom_site_type_symbol
_atom_site_fract_x
_atom_site_fract_y
_atom_site_fract_z
O1	O	1.277170	0.230198	-0.136541
O2	O	1.000498	0.221886	-0.136562
O3	O	1.134681	0.087706	-0.136536
O4	O	1.142987	0.364378	-0.136568
O5	O	1.134673	0.087704	0.136691
O6	O	1.000489	0.221883	0.136665
O7	O	1.277162	0.230196	0.136686
Zn8	Zn	1.138824	0.226039	0.180056
Zn9	Zn	1.138835	0.226042	-0.179932
O10	O	1.142978	0.364375	0.136660
C11	C	0.964872	0.218248	0.000049
C12	C	0.858728	0.207401	0.000042
C13	C	0.613270	0.264501	0.000052
C14	C	0.664395	0.187585	0.000058
C15	C	0.772532	0.198613	0.000049
C16	C	0.505123	0.253474	0.000061
C17	C	1.131041	0.052083	0.000078
C18	C	1.120197	-0.054060	0.000079
C19	C	1.100370	-0.248398	0.000054
C20	C	1.177285	-0.299526	0.000055
C21	C	1.166253	-0.407663	0.000041
C22	C	1.111400	-0.140252	0.000068
C23	C	1.312788	0.233834	0.000071
C24	C	1.418931	0.244681	0.000068
C25	C	1.146618	0.399998	0.000042
C26	C	1.157463	0.506142	0.000030
N27	N	1.138824	0.226037	0.425739
N28	N	1.138843	0.226037	-0.425615
H29	H	1.251419	-0.262085	-0.000050
C30	C	0.950630	-0.272479	0.140508
C31	C	1.000294	-0.298930	0.000050
H32	H	0.888847	-0.303680	0.140500
H33	H	0.984333	-0.290433	0.235766
H34	H	0.945017	-0.205384	0.140496
H35	H	1.005914	-0.366024	0.000068
H36	H	0.966584	-0.280982	-0.095233
H37	H	0.626952	0.113452	-0.000049
C38	C	0.762704	0.356263	0.000002
C39	C	0.663810	0.364573	0.000017
H40	H	0.793911	0.418044	-0.000033
H41	H	0.780641	0.322572	0.095286
H42	H	0.780629	0.322551	-0.095275
H43	H	0.645884	0.398280	0.095302
H44	H	0.645866	0.398278	-0.095276
