data_functionalizedCrystal
_audit_creation_method	'MofGen! by Chris Wilmer'
_symmetry_space_group_name_H-M	'P1'
_symmetry_Int_Tables_number	1
_symmetry_cell_setting	triclinic
loop_
_symmetry_equiv_pos_as_xyz
  x,y,z
_cell_length_a	12.827893
_cell_length_b	14.908178
_cell_length_c	12.827885
_cell_angle_alpha	93.331370
_cell_angle_beta	90.019272
_cell_angle_gamma	93.313970
loop_
_atom_site_label
_atom_site_type_symbol
_atom_site_fract_x
_atom_site_fract_y
_atom_site_fract_z
Zn1	Zn	1.573645	-0.359146	0.566802
Zn2	Zn	1.906978	-0.025812	0.900135
Zn3	Zn	2.240312	0.307521	1.233469
Zn4	Zn	1.563445	-0.510043	0.381959
Zn5	Zn	1.896778	-0.176709	0.715293
Zn6	Zn	2.230112	0.156624	1.048626
Zn7	Zn	1.398883	-0.359190	0.392073
Zn8	Zn	1.732217	-0.025856	0.725406
Zn9	Zn	2.065550	0.307477	1.058740
Zn10	Zn	1.388782	-0.509976	0.556664
Zn11	Zn	1.722115	-0.176642	0.889997
Zn12	Zn	2.055449	0.156691	1.223330
O13	O	1.481189	-0.434588	0.474374
O14	O	1.814522	-0.101255	0.807708
O15	O	2.147855	0.232078	1.141041
O16	O	1.718527	-0.379172	0.542293
O17	O	2.051861	-0.045839	0.875626
O18	O	2.385194	0.287494	1.208959
O19	O	1.541574	-0.490078	0.237062
O20	O	1.874908	-0.156745	0.570395
O21	O	2.208241	0.176588	0.903728
O22	O	1.430562	-0.232929	0.423727
O23	O	1.763895	0.100405	0.757060
O24	O	2.097229	0.433738	1.090393
O25	O	1.711033	-0.490036	0.406489
O26	O	2.044367	-0.156702	0.739823
O27	O	2.377700	0.176631	1.073156
O28	O	1.558959	-0.232896	0.552100
O29	O	1.892292	0.100437	0.885433
O30	O	2.225625	0.433770	1.218766
O31	O	1.420672	-0.379247	0.244492
O32	O	1.754005	-0.045914	0.577825
O33	O	2.087338	0.287419	0.911159
O34	O	1.251308	-0.379182	0.413896
O35	O	1.584641	-0.045849	0.747229
O36	O	1.917975	0.287485	1.080562
O37	O	1.413346	-0.489921	0.704248
O38	O	1.746679	-0.156588	1.037581
O39	O	2.080012	0.176745	1.370914
O40	O	1.243887	-0.489964	0.534820
O41	O	1.577220	-0.156630	0.868153
O42	O	1.910553	0.176703	1.201487
O43	O	1.549164	-0.379107	0.711696
O44	O	1.882497	-0.045774	1.045030
O45	O	2.215830	0.287559	1.378363
O46	O	1.531779	-0.636289	0.396659
O47	O	1.865113	-0.302956	0.729992
O48	O	2.198446	0.030378	1.063325
O49	O	1.403455	-0.636240	0.525013
O50	O	1.736789	-0.302906	0.858346
O51	O	2.070122	0.030427	1.191680
C52	C	1.209680	-0.434571	0.474356
C53	C	1.543013	-0.101238	0.807689
C54	C	1.876347	0.232096	1.141022
C55	C	1.093526	-0.434585	0.474371
C56	C	1.426859	-0.101252	0.807704
C57	C	1.760193	0.232081	1.141038
C58	C	1.038091	-0.489489	0.534105
C59	C	1.371424	-0.156156	0.867438
C60	C	1.704757	0.177177	1.200771
C61	C	0.918039	-0.489505	0.534122
C62	C	1.251373	-0.156172	0.867455
C63	C	1.584706	0.177161	1.200788
C64	C	1.465443	-0.669001	0.458661
C65	C	1.798776	-0.335668	0.791994
C66	C	2.132109	-0.002334	1.125328
C67	C	1.458802	-0.769284	0.451974
C68	C	1.792135	-0.435950	0.785307
C69	C	2.125469	-0.102617	1.118640
C70	C	1.579922	-0.957542	0.573225
C71	C	1.913255	-0.624208	0.906559
C72	C	2.246588	-0.290875	1.239892
C73	C	1.573686	-1.051766	0.566946
C74	C	1.907019	-0.718433	0.900279
C75	C	2.240352	-0.385099	1.233612
C76	C	1.440090	-1.051959	0.433140
C77	C	1.773423	-0.718625	0.766473
C78	C	2.106756	-0.385292	1.099807
C79	C	1.446326	-0.957734	0.439420
C80	C	1.779659	-0.624401	0.772753
C81	C	2.112992	-0.291068	1.106087
C82	C	1.516245	-0.910529	0.509464
C83	C	1.849578	-0.577196	0.842797
C84	C	2.182912	-0.243862	1.176131
C85	C	1.522485	-0.816303	0.515738
C86	C	1.855819	-0.482969	0.849071
C87	C	2.189152	-0.149636	1.182404
C88	C	1.388885	-0.816497	0.381938
C89	C	1.722218	-0.483164	0.715272
C90	C	2.055552	-0.149830	1.048605
C91	C	1.382649	-0.910722	0.375658
C92	C	1.715983	-0.577388	0.708992
C93	C	2.049316	-0.244055	1.042325
C94	C	1.753758	-0.434607	0.474394
C95	C	2.087091	-0.101273	0.807727
C96	C	2.420424	0.232060	1.141060
C97	C	1.869910	-0.434614	0.474402
C98	C	2.203244	-0.101281	0.807735
C99	C	2.536577	0.232052	1.141069
C100	C	1.481266	-0.434502	0.746951
C101	C	1.814599	-0.101168	1.080284
C102	C	2.147932	0.232165	1.413617
C103	C	1.481298	-0.434465	0.863106
C104	C	1.814632	-0.101132	1.196440
C105	C	2.147965	0.232202	1.529773
C106	C	1.497025	-0.199261	0.490172
C107	C	1.830358	0.134073	0.823505
C108	C	2.163692	0.467406	1.156839
C109	C	1.503773	-0.098978	0.496904
C110	C	1.837107	0.234355	0.830238
C111	C	2.170440	0.567689	1.163571
C112	C	1.481177	-0.434610	0.202863
C113	C	1.814510	-0.101276	0.536196
C114	C	2.147843	0.232057	0.869530
C115	C	1.481363	-0.434392	0.086725
C116	C	1.814697	-0.101059	0.420058
C117	C	2.148030	0.232274	0.753392
C118	C	1.548513	-0.379620	0.918578
C119	C	1.881846	-0.046287	1.251911
C120	C	2.215180	0.287047	1.585244
C121	C	1.548549	-0.379580	1.038631
C122	C	1.881882	-0.046247	1.371964
C123	C	2.215215	0.287086	1.705297
H124	H	1.052109	-0.387588	0.423248
H125	H	1.385442	-0.054255	0.756582
H126	H	1.718776	0.279078	1.089915
Cl127	Cl	1.610385	-0.756960	0.603789
Cl128	Cl	1.943719	-0.423627	0.937122
Cl129	Cl	2.277052	-0.090293	1.270456
Cl130	Cl	1.637404	-0.307087	1.112254
Cl131	Cl	1.970737	0.026247	1.445587
Cl132	Cl	2.304071	0.359580	1.778921
H133	H	1.636860	-0.919107	0.630251
H134	H	1.970193	-0.585773	0.963584
H135	H	2.303527	-0.252440	1.296917
H136	H	1.325721	-0.949169	0.318633
H137	H	1.659054	-0.615835	0.651967
H138	H	1.992387	-0.282502	0.985300
H139	H	1.337038	-0.778209	0.330016
H140	H	1.670372	-0.444875	0.663349
H141	H	2.003705	-0.111542	0.996683
Cl142	Cl	1.653737	-1.110865	0.647109
Cl143	Cl	1.987071	-0.777532	0.980443
Cl144	Cl	2.320404	-0.444199	1.313776
H145	H	1.423773	-0.481385	0.904494
H146	H	1.757107	-0.148051	1.237828
H147	H	2.090440	0.185282	1.571161
H148	H	1.606028	-0.332691	0.877190
H149	H	1.939362	0.000642	1.210523
H150	H	2.272695	0.333976	1.543857
H151	H	1.383160	-1.090409	0.376119
H152	H	1.716494	-0.757076	0.709452
H153	H	2.049827	-0.423743	1.042785
H154	H	0.870380	-0.536513	0.585258
H155	H	1.203714	-0.203180	0.918592
H156	H	1.537047	0.130154	1.251925
H157	H	1.079508	-0.536479	0.585236
H158	H	1.412842	-0.203146	0.918569
H159	H	1.746175	0.130187	1.251902
Cl160	Cl	0.943479	-0.362040	0.395433
Cl161	Cl	1.276813	-0.028707	0.728766
Cl162	Cl	1.610146	0.304626	1.062099
H163	H	1.423819	-0.481353	1.039042
H164	H	1.757152	-0.148020	1.372375
H165	H	2.090486	0.185314	1.705708
