data_functionalizedCrystal
_audit_creation_method	'MofGen! by Chris Wilmer'
_symmetry_space_group_name_H-M	'P1'
_symmetry_Int_Tables_number	1
_symmetry_cell_setting	triclinic
loop_
_symmetry_equiv_pos_as_xyz
  x,y,z
_cell_length_a	12.827892
_cell_length_b	12.759401
_cell_length_c	12.827885
_cell_angle_alpha	89.980121
_cell_angle_beta	90.029976
_cell_angle_gamma	89.988638
loop_
_atom_site_label
_atom_site_type_symbol
_atom_site_fract_x
_atom_site_fract_y
_atom_site_fract_z
Zn1	Zn	-0.416093	-1.606248	0.590860
Zn2	Zn	-0.082760	-1.272914	0.924194
Zn3	Zn	0.250574	-0.939581	1.257527
Zn4	Zn	-0.590871	-1.606141	0.416121
Zn5	Zn	-0.257537	-1.272807	0.749454
Zn6	Zn	0.075796	-0.939474	1.082787
Zn7	Zn	-0.416132	-1.430551	0.416133
Zn8	Zn	-0.082799	-1.097217	0.749466
Zn9	Zn	0.250535	-0.763884	1.082799
Zn10	Zn	-0.590780	-1.430536	0.590819
Zn11	Zn	-0.257447	-1.097203	0.924153
Zn12	Zn	0.075886	-0.763870	1.257486
O13	O	-0.503469	-1.518369	0.503483
O14	O	-0.170136	-1.185036	0.836816
O15	O	0.163198	-0.851702	1.170150
O16	O	-0.439299	-1.753255	0.567693
O17	O	-0.105966	-1.419921	0.901026
O18	O	0.227368	-1.086588	1.234359
O19	O	-0.567746	-1.582810	0.269886
O20	O	-0.234412	-1.249476	0.603219
O21	O	0.098921	-0.916143	0.936553
O22	O	-0.269891	-1.453908	0.439333
O23	O	0.063442	-1.120575	0.772666
O24	O	0.396776	-0.787241	1.105999
O25	O	-0.567708	-1.753176	0.439312
O26	O	-0.234374	-1.419843	0.772646
O27	O	0.098959	-1.086509	1.105979
O28	O	-0.269862	-1.582992	0.567704
O29	O	0.063471	-1.249659	0.901038
O30	O	0.396805	-0.916325	1.234371
O31	O	-0.439366	-1.453804	0.269895
O32	O	-0.106033	-1.120471	0.603228
O33	O	0.227301	-0.787137	0.936562
O34	O	-0.439278	-1.283528	0.439293
O35	O	-0.105945	-0.950194	0.772626
O36	O	0.227389	-0.616861	1.105960
O37	O	-0.567553	-1.453884	0.737061
O38	O	-0.234220	-1.120550	1.070394
O39	O	0.099113	-0.787217	1.403727
O40	O	-0.567591	-1.283517	0.567635
O41	O	-0.234258	-0.950184	0.900968
O42	O	0.099075	-0.616851	1.234301
O43	O	-0.439211	-1.582978	0.737091
O44	O	-0.105878	-1.249645	1.070424
O45	O	0.227455	-0.916312	1.403758
O46	O	-0.737095	-1.582796	0.439272
O47	O	-0.403761	-1.249462	0.772606
O48	O	-0.070428	-0.916129	1.105939
O49	O	-0.737028	-1.453780	0.567623
O50	O	-0.403695	-1.120447	0.900956
O51	O	-0.070362	-0.787113	1.234290
C52	C	-0.503430	-1.245402	0.503461
C53	C	-0.170097	-0.912068	0.836795
C54	C	0.163237	-0.578735	1.170128
C55	C	-0.503438	-1.128625	0.503477
C56	C	-0.170105	-0.795292	0.836810
C57	C	0.163228	-0.461958	1.170143
C58	C	-0.436699	-1.073797	0.570427
C59	C	-0.103366	-0.740464	0.903760
C60	C	0.229967	-0.407130	1.237093
C61	C	-0.436713	-0.964073	0.570430
C62	C	-0.103380	-0.630739	0.903763
C63	C	0.229953	-0.297406	1.237097
C64	C	-0.570215	-0.964014	0.436531
C65	C	-0.236881	-0.630681	0.769865
C66	C	0.096452	-0.297348	1.103198
C67	C	-0.570195	-1.073737	0.436523
C68	C	-0.236861	-0.740403	0.769856
C69	C	0.096472	-0.407070	1.103190
C70	C	-0.359626	-1.073830	0.647735
C71	C	-0.026293	-0.740496	0.981069
C72	C	0.307040	-0.407163	1.314402
C73	C	-0.359640	-0.964106	0.647739
C74	C	-0.026307	-0.630772	0.981072
C75	C	0.307026	-0.297439	1.314406
C76	C	-0.774979	-1.518303	0.503465
C77	C	-0.441646	-1.184970	0.836798
C78	C	-0.108312	-0.851636	1.170131
C79	C	-0.891132	-1.518371	0.503492
C80	C	-0.557799	-1.185038	0.836825
C81	C	-0.224465	-0.851705	1.170158
C82	C	-0.942915	-1.582288	0.440050
C83	C	-0.609582	-1.248955	0.773384
C84	C	-0.276248	-0.915621	1.106717
C85	C	-1.062965	-1.582360	0.440077
C86	C	-0.729632	-1.249026	0.773410
C87	C	-0.396299	-0.915693	1.106744
C88	C	-0.230899	-1.518463	0.503525
C89	C	0.102434	-1.185130	0.836858
C90	C	0.435768	-0.851797	1.170191
C91	C	-0.114746	-1.518504	0.503542
C92	C	0.218588	-1.185170	0.836876
C93	C	0.551921	-0.851837	1.170209
C94	C	-0.503368	-1.518441	0.776053
C95	C	-0.170034	-1.185108	1.109387
C96	C	0.163299	-0.851775	1.442720
C97	C	-0.503325	-1.518472	0.892207
C98	C	-0.169991	-1.185139	1.225540
C99	C	0.163342	-0.851805	1.558873
C100	C	-0.503496	-0.792402	0.503499
C101	C	-0.170162	-0.459069	0.836832
C102	C	0.163171	-0.125735	1.170166
C103	C	-0.503473	-0.909179	0.503488
C104	C	-0.170139	-0.575845	0.836822
C105	C	0.163194	-0.242512	1.170155
C106	C	-0.503494	-1.518357	0.231973
C107	C	-0.170161	-1.185024	0.565307
C108	C	0.163172	-0.851691	0.898640
C109	C	-0.503243	-1.518530	0.115821
C110	C	-0.169910	-1.185197	0.449154
C111	C	0.163423	-0.851863	0.782487
C112	C	-0.439761	-1.582390	1.064051
C113	C	-0.106428	-1.249056	1.397384
C114	C	0.226905	-0.915723	1.730717
C115	C	-0.439804	-1.582359	0.944000
C116	C	-0.106471	-1.249026	1.277334
C117	C	0.226862	-0.915692	1.610667
H118	H	-0.388706	-1.107894	0.724562
H119	H	-0.055372	-0.774561	1.057896
H120	H	0.277961	-0.441228	1.391229
H121	H	-1.107498	-1.637079	0.385760
H122	H	-0.774164	-1.303745	0.719093
H123	H	-0.440831	-0.970412	1.052426
Br124	Br	-0.349204	-1.673481	0.869803
Br125	Br	-0.015871	-1.340147	1.203137
Br126	Br	0.317462	-1.006814	1.536470
H127	H	-0.624566	-0.919311	0.382020
H128	H	-0.291232	-0.585978	0.715354
H129	H	0.042101	-0.252644	1.048687
Br130	Br	-0.593910	-1.427330	0.966397
Br131	Br	-0.260577	-1.093997	1.299730
Br132	Br	0.072757	-0.760663	1.633063
Br133	Br	-1.040537	-1.427279	0.594070
Br134	Br	-0.707203	-1.093946	0.927403
Br135	Br	-0.373870	-0.760613	1.260736
H136	H	-0.624530	-1.118373	0.381996
H137	H	-0.291197	-0.785040	0.715330
H138	H	0.042137	-0.451707	1.048663
H139	H	-0.935675	-1.463707	0.557830
H140	H	-0.602342	-1.130374	0.891163
H141	H	-0.269009	-0.797040	1.224497
H142	H	-0.557628	-1.463839	1.071266
H143	H	-0.224295	-1.130505	1.404599
H144	H	0.109039	-0.797172	1.737933
H145	H	-0.278659	-1.103597	0.626197
H146	H	0.054674	-0.770264	0.959530
H147	H	0.388007	-0.436931	1.292864
Br148	Br	-0.349126	-1.673567	1.138300
Br149	Br	-0.015793	-1.340233	1.471634
Br150	Br	0.317541	-1.006900	1.804967
H151	H	-0.282723	-0.930065	0.618892
H152	H	0.050610	-0.596732	0.952226
H153	H	0.383943	-0.263398	1.285559
H154	H	-0.381418	-0.934360	0.728640
H155	H	-0.048085	-0.601027	1.061973
H156	H	0.285248	-0.267693	1.395307
H157	H	-0.898374	-1.636961	0.385719
H158	H	-0.565041	-1.303628	0.719053
H159	H	-0.231708	-0.970295	1.052386
