data_functionalizedCrystal
_audit_creation_method	'MofGen! by Chris Wilmer'
_symmetry_space_group_name_H-M	'P1'
_symmetry_Int_Tables_number	1
_symmetry_cell_setting	triclinic
loop_
_symmetry_equiv_pos_as_xyz
  x,y,z
_cell_length_a	17.699077
_cell_length_b	16.176319
_cell_length_c	17.699083
_cell_angle_alpha	89.992304
_cell_angle_beta	96.718205
_cell_angle_gamma	90.006860
loop_
_atom_site_label
_atom_site_type_symbol
_atom_site_fract_x
_atom_site_fract_y
_atom_site_fract_z
O1	O	1.004082	0.068737	-0.095692
O2	O	1.337415	0.402071	0.237642
O3	O	1.670748	0.735404	0.570975
O4	O	0.783703	0.068741	-0.108149
O5	O	1.117036	0.402075	0.225185
O6	O	1.450369	0.735408	0.558518
O7	O	0.900118	0.068732	0.008269
O8	O	1.233452	0.402065	0.341602
O9	O	1.566785	0.735399	0.674936
O10	O	0.887666	0.068747	-0.212110
O11	O	1.220999	0.402080	0.121224
O12	O	1.554333	0.735413	0.454557
O13	O	0.900102	-0.068761	0.008277
O14	O	1.233436	0.264572	0.341610
O15	O	1.566769	0.597905	0.674943
O16	O	0.783687	-0.068752	-0.108141
O17	O	1.117020	0.264582	0.225192
O18	O	1.450353	0.597915	0.558525
O19	O	1.004066	-0.068756	-0.095684
O20	O	1.337399	0.264577	0.237649
O21	O	1.670732	0.597911	0.570982
Cu22	Cu	0.893875	-0.081308	-0.101912
Cu23	Cu	1.227208	0.252025	0.231421
Cu24	Cu	1.560541	0.585359	0.564755
Cu25	Cu	0.893894	0.081294	-0.101921
Cu26	Cu	1.227227	0.414627	0.231412
Cu27	Cu	1.560560	0.747960	0.564746
O28	O	0.887650	-0.068746	-0.212102
O29	O	1.220983	0.264587	0.121231
O30	O	1.554317	0.597920	0.454565
C31	C	0.755498	-0.000005	-0.107700
C32	C	1.088831	0.333329	0.225634
C33	C	1.422164	0.666662	0.558967
C34	C	0.671479	-0.000003	-0.106363
C35	C	1.004813	0.333330	0.226971
C36	C	1.338146	0.666663	0.560304
C37	C	0.632003	-0.074952	-0.105729
C38	C	0.965336	0.258382	0.227605
C39	C	1.298670	0.591715	0.560938
C40	C	0.553061	-0.074953	-0.104461
C41	C	0.886394	0.258381	0.228873
C42	C	1.219727	0.591714	0.562206
C43	C	0.513595	-0.000004	-0.103832
C44	C	0.846928	0.333329	0.229502
C45	C	1.180262	0.666662	0.562835
C46	C	0.553077	0.074950	-0.104464
C47	C	0.886410	0.408283	0.228870
C48	C	1.219743	0.741617	0.562203
C49	C	0.632019	0.074950	-0.105726
C50	C	0.965352	0.408283	0.227607
C51	C	1.298685	0.741617	0.560940
C52	C	0.234714	0.074951	-0.099370
C53	C	0.568047	0.408285	0.233963
C54	C	0.901380	0.741618	0.567296
C55	C	0.155766	0.074945	-0.098110
C56	C	0.489099	0.408279	0.235224
C57	C	0.822433	0.741612	0.568557
C58	C	0.155755	-0.074952	-0.098105
C59	C	0.489089	0.258382	0.235229
C60	C	0.822422	0.591715	0.568562
C61	C	0.234697	-0.074951	-0.099367
C62	C	0.568031	0.258382	0.233966
C63	C	0.901364	0.591715	0.567299
C64	C	0.274173	0.000002	-0.099995
C65	C	0.607506	0.333336	0.233338
C66	C	0.940840	0.666669	0.566672
C67	C	0.359772	0.000002	-0.101369
C68	C	0.693105	0.333336	0.231965
C69	C	1.026438	0.666669	0.565298
C70	C	0.427997	-0.000004	-0.102464
C71	C	0.761330	0.333330	0.230870
C72	C	1.094664	0.666663	0.564203
N73	N	0.893867	-0.195673	-0.101906
N74	N	1.227200	0.137660	0.231428
N75	N	1.560534	0.470993	0.564761
C76	C	0.945431	-0.238942	-0.050377
C77	C	1.278765	0.094392	0.282957
C78	C	1.612098	0.427725	0.616290
C79	C	0.945435	-0.325489	-0.050376
C80	C	1.278768	0.007845	0.282957
C81	C	1.612102	0.341178	0.616291
C82	C	0.893878	-0.368766	-0.101908
C83	C	1.227211	-0.035433	0.231425
C84	C	1.560544	0.297901	0.564759
C85	C	0.842308	-0.325491	-0.153439
C86	C	1.175641	0.007842	0.179894
C87	C	1.508974	0.341175	0.513227
C88	C	0.842301	-0.238946	-0.153436
C89	C	1.175634	0.094387	0.179897
C90	C	1.508968	0.427721	0.513231
C91	C	0.842334	-0.674520	-0.153454
C92	C	1.175667	-0.341186	0.179880
C93	C	1.509000	-0.007853	0.513213
C94	C	0.842346	-0.761071	-0.153455
C95	C	1.175679	-0.427738	0.179879
C96	C	1.509013	-0.094405	0.513212
C97	C	0.945468	-0.761063	-0.050393
C98	C	1.278801	-0.427729	0.282940
C99	C	1.612135	-0.094396	0.616273
C100	C	0.945461	-0.674517	-0.050390
C101	C	1.278794	-0.341184	0.282943
C102	C	1.612128	-0.007850	0.616277
C103	C	0.893889	-0.631250	-0.101918
C104	C	1.227222	-0.297917	0.231415
C105	C	1.560556	0.035417	0.564748
C106	C	0.893884	-0.537406	-0.101918
C107	C	1.227218	-0.204073	0.231416
C108	C	1.560551	0.129261	0.564749
C109	C	0.893885	-0.462608	-0.101913
C110	C	1.227218	-0.129275	0.231420
C111	C	1.560552	0.204058	0.564754
C112	C	1.032271	-0.000008	-0.096133
C113	C	1.365604	0.333325	0.237200
C114	C	1.698937	0.666659	0.570533
C115	C	1.116289	-0.000004	-0.097470
C116	C	1.449622	0.333329	0.235863
C117	C	1.782956	0.666663	0.569196
C118	C	0.899664	-0.000015	0.036470
C119	C	1.232998	0.333319	0.369803
C120	C	1.566331	0.666652	0.703136
C121	C	0.898326	-0.000015	0.120488
C122	C	1.231659	0.333318	0.453821
C123	C	1.564992	0.666652	0.787155
N124	N	0.893907	0.195659	-0.101921
N125	N	1.227241	0.528992	0.231412
N126	N	1.560574	0.862325	0.564745
C127	C	0.888104	0.000002	-0.240303
C128	C	1.221437	0.333335	0.093031
C129	C	1.554771	0.666669	0.426364
C130	C	0.889443	0.000008	-0.324321
C131	C	1.222776	0.333341	0.009012
C132	C	1.556109	0.666674	0.342346
C133	C	0.966659	-0.000018	0.169110
C134	C	1.299993	0.333316	0.502444
C135	C	1.633326	0.666649	0.835777
C136	C	0.965397	-0.000010	0.248054
C137	C	1.298730	0.333323	0.581387
C138	C	1.632064	0.666656	0.914720
C139	C	0.895800	-0.000006	0.278373
C140	C	1.229134	0.333327	0.611706
C141	C	1.562467	0.666660	0.945040
C142	C	0.827461	-0.000001	0.229744
C143	C	1.160795	0.333332	0.563078
C144	C	1.494128	0.666665	0.896411
C145	C	0.828724	-0.000003	0.150803
C146	C	1.162058	0.333331	0.484136
C147	C	1.495391	0.666664	0.817469
C148	C	0.822366	0.000005	0.548107
C149	C	1.155699	0.333339	0.881441
C150	C	1.489033	0.666672	1.214774
C151	C	0.821108	0.000004	0.627055
C152	C	1.154442	0.333338	0.960388
C153	C	1.487775	0.666671	1.293722
C154	C	0.959039	-0.000002	0.645358
C155	C	1.292372	0.333331	0.978692
C156	C	1.625705	0.666665	1.312025
C157	C	0.960302	-0.000003	0.566417
C158	C	1.293635	0.333330	0.899750
C159	C	1.626968	0.666663	1.233083
C160	C	0.891963	0.000006	0.517795
C161	C	1.225297	0.333339	0.851128
C162	C	1.558630	0.666673	1.184461
C163	C	0.893333	-0.000000	0.432196
C164	C	1.226666	0.333333	0.765529
C165	C	1.559999	0.666666	1.098862
C166	C	0.894430	-0.000006	0.363971
C167	C	1.227763	0.333327	0.697304
C168	C	1.561097	0.666661	1.030637
H169	H	0.266826	-0.135982	-0.099883
H170	H	0.600159	0.197351	0.233450
H171	H	0.933493	0.530685	0.566784
H172	H	0.123635	0.135981	-0.097597
H173	H	0.456968	0.469314	0.235736
H174	H	0.790302	0.802648	0.569070
F175	F	1.040735	-0.000030	0.136850
F176	F	1.374068	0.333304	0.470183
F177	F	1.707401	0.666637	0.803517
H178	H	0.987418	-0.203711	-0.008416
H179	H	1.320752	0.129622	0.324917
H180	H	1.654085	0.462955	0.658250
H181	H	0.123605	-0.135983	-0.097590
H182	H	0.456939	0.197351	0.235743
H183	H	0.790272	0.530684	0.569077
H184	H	1.016974	-0.000011	0.541735
H185	H	1.350308	0.333323	0.875069
H186	H	1.683641	0.666656	1.208402
F187	F	1.031771	-0.000009	0.697111
F188	F	1.365105	0.333324	1.030445
F189	F	1.698438	0.666658	1.363778
H190	H	0.987446	-0.639284	-0.008430
H191	H	1.320780	-0.305950	0.324903
H192	H	1.654113	0.027383	0.658236
H193	H	0.664159	0.135981	-0.106244
H194	H	0.997492	0.469314	0.227089
H195	H	1.330826	0.802648	0.560423
F196	F	0.787468	-0.807128	-0.208304
F197	F	1.120801	-0.473795	0.125029
F198	F	1.454135	-0.140462	0.458362
H199	H	0.987422	-0.360718	-0.008417
H200	H	1.320755	-0.027384	0.324917
H201	H	1.654089	0.305949	0.658250
H202	H	0.800343	-0.639299	-0.195411
H203	H	1.133677	-0.305965	0.137922
H204	H	1.467010	0.027368	0.471256
H205	H	0.987459	-0.796300	-0.008434
H206	H	1.320792	-0.462966	0.324900
H207	H	1.654125	-0.129633	0.658233
H208	H	0.800325	-0.360733	-0.195395
H209	H	1.133658	-0.027399	0.137938
H210	H	1.466992	0.305934	0.471271
H211	H	0.764431	0.000006	0.651737
H212	H	1.097764	0.333339	0.985071
H213	H	1.431098	0.666673	1.318404
H214	H	0.766721	0.000013	0.508528
H215	H	1.100054	0.333346	0.841862
H216	H	1.433387	0.666679	1.175195
H217	H	0.664130	-0.135984	-0.106247
H218	H	0.997463	0.197350	0.227086
H219	H	1.330796	0.530683	0.560420
F220	F	0.276716	0.154724	-0.100039
F221	F	0.610050	0.488057	0.233294
F222	F	0.943383	0.821390	0.566628
H223	H	0.800311	-0.203718	-0.195395
H224	H	1.133644	0.129616	0.137938
H225	H	1.466978	0.462949	0.471272
F226	F	1.038127	-0.000014	0.299798
F227	F	1.371460	0.333319	0.633132
F228	F	1.704794	0.666652	0.966465
H229	H	0.520938	0.135974	-0.103946
H230	H	0.854272	0.469308	0.229387
H231	H	1.187605	0.802641	0.562720
F232	F	0.753391	0.000012	0.262014
F233	F	1.086724	0.333345	0.595348
F234	F	1.420058	0.666679	0.928681
H235	H	0.520924	-0.135983	-0.103932
H236	H	0.854258	0.197350	0.229402
H237	H	1.187591	0.530683	0.562735
F238	F	0.755994	0.000002	0.099055
F239	F	1.089328	0.333336	0.432388
F240	F	1.422661	0.666669	0.765721
