data_functionalizedCrystal
_audit_creation_method	'MofGen! by Chris Wilmer'
_symmetry_space_group_name_H-M	'P1'
_symmetry_Int_Tables_number	1
_symmetry_cell_setting	triclinic
loop_
_symmetry_equiv_pos_as_xyz
  x,y,z
_cell_length_a	19.188930
_cell_length_b	19.188930
_cell_length_c	9.565339
_cell_angle_alpha	89.995116
_cell_angle_beta	89.982583
_cell_angle_gamma	83.144779
loop_
_atom_site_label
_atom_site_type_symbol
_atom_site_fract_x
_atom_site_fract_y
_atom_site_fract_z
O1	O	0.926144	0.087163	-0.116725
O2	O	0.722833	0.098897	-0.116631
O3	O	0.830356	-0.008626	-0.116654
O4	O	0.818622	0.194685	-0.116703
O5	O	0.830347	-0.008619	0.115867
O6	O	0.722825	0.098904	0.115889
O7	O	0.926136	0.087169	0.115795
Zn8	Zn	0.824479	0.093037	0.152760
Zn9	Zn	0.824490	0.093029	-0.153596
O10	O	0.818613	0.194692	0.115817
C11	C	0.696818	0.098520	-0.000359
C12	C	0.619313	0.097380	-0.000322
C13	C	0.574389	0.160470	-0.000359
C14	C	0.501566	0.159399	-0.000374
C15	C	0.473669	0.095233	-0.000380
C16	C	0.518603	0.032133	-0.000335
C17	C	0.591425	0.033207	-0.000306
N18	N	0.365692	0.046183	-0.079561
N19	N	0.296513	0.045168	-0.079592
C20	C	0.254260	0.091994	-0.000465
N21	N	0.283798	0.139885	0.078677
N22	N	0.352983	0.140903	0.078701
C23	C	0.394707	0.094062	-0.000411
C24	C	0.130372	0.153928	-0.000516
C25	C	0.057547	0.152853	-0.000523
C26	C	0.074586	0.025586	-0.000498
C27	C	0.147409	0.026662	-0.000477
C28	C	0.175298	0.090835	-0.000493
C29	C	0.829972	-0.034634	-0.000389
C30	C	0.828831	-0.112138	-0.000377
C31	C	0.891922	-0.157062	-0.000399
C32	C	0.890850	-0.229886	-0.000421
C33	C	0.826684	-0.257782	-0.000392
C34	C	0.763585	-0.212849	-0.000378
C35	C	0.764658	-0.140026	-0.000370
N36	N	0.777634	-0.365785	0.078761
N37	N	0.776618	-0.434964	0.078757
C38	C	0.823446	-0.477191	-0.000419
N39	N	0.871338	-0.447628	-0.079573
N40	N	0.872355	-0.378443	-0.079562
C41	C	0.825513	-0.336745	-0.000402
C42	C	0.885379	-0.601079	-0.000467
C43	C	0.884305	-0.673904	-0.000498
C44	C	0.757038	-0.656865	-0.000441
C45	C	0.758114	-0.584042	-0.000424
C46	C	0.822286	-0.556154	-0.000431
C47	C	0.952151	0.087546	-0.000480
C48	C	1.029656	0.088687	-0.000527
C49	C	0.818997	0.220700	-0.000450
C50	C	0.820138	0.298204	-0.000472
N51	N	0.824476	0.093043	0.361839
N52	N	0.824498	0.093018	-0.362675
C53	C	0.774736	0.142752	0.453052
C54	C	0.837788	0.156108	0.546198
C55	C	0.761452	0.079693	0.546249
C56	C	0.887560	0.106430	0.452933
C57	C	0.811183	0.029988	0.452976
C58	C	0.874280	0.043316	0.546079
H59	H	0.628003	-0.018171	-0.000276
H60	H	0.706738	-0.547464	-0.000398
O61	O	0.160454	0.223141	-0.000506
H62	H	0.193242	0.226679	-0.095273
H63	H	0.732710	0.184828	0.412206
H64	H	0.020970	0.204232	-0.000545
H65	H	0.183988	-0.024713	-0.000455
H66	H	0.944176	-0.134360	-0.000409
H67	H	0.849047	0.209421	0.587145
H68	H	0.942228	-0.266470	-0.000445
H69	H	0.711340	-0.235567	-0.000358
H70	H	0.704792	-0.679578	-0.000424
H71	H	0.940879	0.117774	0.412116
O72	O	0.044502	-0.043621	-0.000498
H73	H	0.062536	-0.073919	0.094295
H74	H	0.916399	0.001265	0.586669
O75	O	0.488515	-0.037073	-0.000342
H76	H	0.506546	-0.067371	0.094453
H77	H	0.713281	-0.103449	-0.000351
O78	O	0.954589	-0.570991	-0.000503
H79	H	0.998282	-0.614467	-0.000549
H80	H	0.597091	0.212725	-0.000375
H81	H	0.799904	-0.023308	0.411996
O82	O	0.690844	0.064743	0.600553
H83	H	0.655508	0.057802	0.511076
O84	O	0.453098	0.227448	-0.000429
H85	H	0.484725	0.272251	-0.000445
O86	O	0.952356	-0.722364	-0.000511
H87	H	0.997156	-0.690734	-0.000496
