data_functionalizedCrystal
_audit_creation_method	'MofGen! by Chris Wilmer'
_symmetry_space_group_name_H-M	'P1'
_symmetry_Int_Tables_number	1
_symmetry_cell_setting	triclinic
loop_
_symmetry_equiv_pos_as_xyz
  x,y,z
_cell_length_a	19.288864
_cell_length_b	15.021413
_cell_length_c	19.288865
_cell_angle_alpha	89.996202
_cell_angle_beta	96.863755
_cell_angle_gamma	90.007021
loop_
_atom_site_label
_atom_site_type_symbol
_atom_site_fract_x
_atom_site_fract_y
_atom_site_fract_z
O1	O	0.921337	0.074328	-0.086643
O2	O	1.254671	0.407661	0.246691
O3	O	1.588004	0.740994	0.580024
O4	O	0.719077	0.074268	-0.098331
O5	O	1.052410	0.407601	0.235002
O6	O	1.385743	0.740935	0.568335
O7	O	0.826051	0.074282	0.008643
O8	O	1.159385	0.407615	0.341977
O9	O	1.492718	0.740949	0.675310
O10	O	0.814363	0.074314	-0.193617
O11	O	1.147696	0.407647	0.139716
O12	O	1.481029	0.740980	0.473049
O13	O	0.826064	-0.073782	0.008637
O14	O	1.159397	0.259551	0.341970
O15	O	1.492731	0.592884	0.675303
O16	O	0.719089	-0.073796	-0.098338
O17	O	1.052423	0.259537	0.234995
O18	O	1.385756	0.592871	0.568329
O19	O	0.921350	-0.073737	-0.086649
O20	O	1.254683	0.259597	0.246684
O21	O	1.588017	0.592930	0.580017
Zn22	Zn	0.820222	-0.097275	-0.092495
Zn23	Zn	1.153555	0.236059	0.240839
Zn24	Zn	1.486888	0.569392	0.574172
Zn25	Zn	0.820205	0.097806	-0.092486
Zn26	Zn	1.153538	0.431140	0.240847
Zn27	Zn	1.486872	0.764473	0.574181
O28	O	0.814375	-0.073750	-0.193624
O29	O	1.147709	0.259583	0.139709
O30	O	1.481042	0.592916	0.473043
C31	C	0.693207	0.000228	-0.097959
C32	C	1.026540	0.333562	0.235375
C33	C	1.359873	0.666895	0.568708
C34	C	0.616103	0.000205	-0.096830
C35	C	0.949436	0.333538	0.236504
C36	C	1.282770	0.666871	0.569837
C37	C	0.571407	0.000229	-0.159598
C38	C	0.904740	0.333562	0.173736
C39	C	1.238073	0.666895	0.507069
C40	C	0.498960	0.000238	-0.158537
C41	C	0.832293	0.333572	0.174796
C42	C	1.165626	0.666905	0.508130
C43	C	0.471212	0.000242	-0.094705
C44	C	0.804545	0.333575	0.238629
C45	C	1.137879	0.666909	0.571962
C46	C	0.515918	0.000213	-0.031929
C47	C	0.849252	0.333546	0.301405
C48	C	1.182585	0.666880	0.634738
C49	C	0.588364	0.000194	-0.032991
C50	C	0.921697	0.333528	0.300342
C51	C	1.255030	0.666861	0.633676
C52	C	0.362946	0.052137	-0.044523
C53	C	0.696279	0.385471	0.288810
C54	C	1.029612	0.718804	0.622143
C55	C	0.290501	0.052161	-0.043463
C56	C	0.623835	0.385495	0.289870
C57	C	0.957168	0.718828	0.623203
C58	C	0.247766	0.000295	-0.091425
C59	C	0.581100	0.333629	0.241908
C60	C	0.914433	0.666962	0.575242
C61	C	0.277484	-0.051584	-0.140458
C62	C	0.610817	0.281750	0.192875
C63	C	0.944150	0.615083	0.526208
C64	C	0.349929	-0.051602	-0.141521
C65	C	0.683262	0.281731	0.191812
C66	C	1.016596	0.615065	0.525146
C67	C	0.392658	0.000262	-0.093546
C68	C	0.725991	0.333595	0.239788
C69	C	1.059325	0.666928	0.573121
C70	C	0.124514	0.000328	-0.153047
C71	C	0.457848	0.333662	0.180286
C72	C	0.791181	0.666995	0.513619
C73	C	0.052066	0.000333	-0.151984
C74	C	0.385399	0.333666	0.181349
C75	C	0.718733	0.666999	0.514683
C76	C	0.069026	0.000316	-0.025374
C77	C	0.402360	0.333650	0.307960
C78	C	0.735693	0.666983	0.641293
C79	C	0.141473	0.000303	-0.026439
C80	C	0.474806	0.333636	0.306894
C81	C	0.808139	0.666970	0.640228
C82	C	0.169212	0.000313	-0.090278
C83	C	0.502545	0.333647	0.243056
C84	C	0.835879	0.666980	0.576389
N85	N	0.820238	-0.230412	-0.092500
N86	N	1.153571	0.102921	0.240833
N87	N	1.486904	0.436254	0.574166
C88	C	0.869713	-0.470065	-0.043024
C89	C	1.203046	-0.136732	0.290310
C90	C	1.536379	0.196601	0.623643
C91	C	0.806992	-0.529416	-0.029730
C92	C	1.140325	-0.196082	0.303603
C93	C	1.473658	0.137251	0.636936
C94	C	0.820222	-0.412019	-0.092492
C95	C	1.153555	-0.078686	0.240842
C96	C	1.486888	0.254647	0.574175
C97	C	0.882927	-0.529411	-0.105744
C98	C	1.216260	-0.196077	0.227589
C99	C	1.549594	0.137256	0.560923
C100	C	0.820212	-0.587443	-0.092482
C101	C	1.153545	-0.254110	0.240852
C102	C	1.486878	0.079223	0.574185
C103	C	0.757469	-0.470063	-0.079167
C104	C	1.090803	-0.136730	0.254166
C105	C	1.424136	0.196604	0.587499
C106	C	0.833446	-0.470053	-0.155208
C107	C	1.166779	-0.136720	0.178125
C108	C	1.500112	0.196614	0.511459
C109	C	0.770680	-0.529376	-0.141941
C110	C	1.104013	-0.196043	0.191392
C111	C	1.437346	0.137290	0.524725
C112	C	0.820228	-0.310962	-0.092495
C113	C	1.153562	0.022371	0.240838
C114	C	1.486895	0.355705	0.574171
C115	C	0.820198	-0.688498	-0.092478
C116	C	1.153531	-0.355165	0.240855
C117	C	1.486864	-0.021832	0.574189
C118	C	0.947220	0.000305	-0.087022
C119	C	1.280553	0.333639	0.246311
C120	C	1.613887	0.666972	0.579645
C121	C	1.024324	0.000335	-0.088151
C122	C	1.357657	0.333668	0.245182
C123	C	1.690990	0.667001	0.578516
C124	C	0.825682	0.000247	0.034516
C125	C	1.159015	0.333580	0.367850
C126	C	1.492348	0.666914	0.701183
C127	C	0.824553	0.000239	0.111620
C128	C	1.157886	0.333572	0.444953
C129	C	1.491219	0.666906	0.778287
N130	N	0.820194	0.230944	-0.092475
N131	N	1.153528	0.564277	0.240858
N132	N	1.486861	0.897611	0.574192
C133	C	0.814745	0.000286	-0.219497
C134	C	1.148078	0.333620	0.113836
C135	C	1.481412	0.666953	0.447170
C136	C	0.815874	0.000300	-0.296601
C137	C	1.149207	0.333634	0.036733
C138	C	1.482541	0.666967	0.370066
C139	C	0.887320	0.000253	0.156316
C140	C	1.220654	0.333586	0.489650
C141	C	1.553987	0.666920	0.822983
C142	C	0.886260	0.000267	0.228763
C143	C	1.219593	0.333600	0.562097
C144	C	1.552926	0.666934	0.895430
C145	C	0.822428	0.000249	0.256511
C146	C	1.155761	0.333582	0.589844
C147	C	1.489094	0.666915	0.923178
C148	C	0.759652	0.000240	0.211805
C149	C	1.092985	0.333573	0.545138
C150	C	1.426318	0.666906	0.878471
C151	C	0.760714	0.000235	0.139359
C152	C	1.094047	0.333568	0.472693
C153	C	1.427381	0.666901	0.806026
C154	C	0.772252	-0.051630	0.364796
C155	C	1.105586	0.281704	0.698129
C156	C	1.438919	0.615037	1.031463
C157	C	0.771193	-0.051630	0.437240
C158	C	1.104526	0.281703	0.770574
C159	C	1.437859	0.615036	1.103907
C160	C	0.819148	0.000268	0.479956
C161	C	1.152481	0.333601	0.813290
C162	C	1.485815	0.666934	1.146623
C163	C	0.868175	0.052155	0.450221
C164	C	1.201508	0.385488	0.783554
C165	C	1.534842	0.718821	1.116887
C166	C	0.869238	0.052150	0.377775
C167	C	1.202571	0.385483	0.711109
C168	C	1.535904	0.718817	1.044442
C169	C	0.821269	0.000254	0.335065
C170	C	1.154602	0.333588	0.668398
C171	C	1.487935	0.666921	1.001732
C172	C	0.880770	0.000298	0.603209
C173	C	1.214103	0.333631	0.936542
C174	C	1.547437	0.666965	1.269875
C175	C	0.879707	0.000317	0.675657
C176	C	1.213040	0.333651	1.008990
C177	C	1.546373	0.666984	1.342323
C178	C	0.753097	0.000281	0.658697
C179	C	1.086430	0.333614	0.992030
C180	C	1.419763	0.666948	1.325363
C181	C	0.754162	0.000271	0.586250
C182	C	1.087495	0.333604	0.919583
C183	C	1.420829	0.666937	1.252917
C184	C	0.818000	0.000275	0.558511
C185	C	1.151334	0.333608	0.891844
C186	C	1.484667	0.666942	1.225177
H187	H	0.242690	-0.093819	-0.179513
H188	H	0.576023	0.239515	0.153820
H189	H	0.909357	0.572848	0.487154
O190	O	0.601328	0.000214	-0.228448
O191	O	0.934661	0.333547	0.104885
O192	O	1.267995	0.666881	0.438218
H193	H	0.558071	0.000219	-0.271917
H194	H	0.891405	0.333552	0.061416
H195	H	1.224738	0.666886	0.394749
O196	O	0.189685	0.000281	0.041263
O197	O	0.523018	0.333614	0.374597
O198	O	0.856351	0.666947	0.707930
H199	H	0.223117	0.060616	0.043810
H200	H	0.556451	0.393949	0.377143
H201	H	0.889784	0.727282	0.710477
H202	H	0.046435	0.000374	0.026600
H203	H	0.379769	0.333708	0.359933
H204	H	0.713102	0.667041	0.693266
O205	O	0.715175	-0.563674	-0.197343
O206	O	1.048508	-0.230341	0.135990
O207	O	1.381841	0.102992	0.469323
H208	H	0.687346	-0.506559	-0.224529
H209	H	1.020679	-0.173226	0.108804
H210	H	1.354012	0.160108	0.442138
H211	H	0.844660	-0.443958	-0.208233
H212	H	1.177993	-0.110625	0.125100
H213	H	1.511327	0.222708	0.458433
O214	O	0.687205	-0.435681	-0.064230
O215	O	1.020538	-0.102348	0.269103
O216	O	1.353872	0.230985	0.602437
H217	H	0.652285	-0.492759	-0.056831
H218	H	0.985619	-0.159425	0.276502
H219	H	1.318952	0.173908	0.609836
O220	O	0.450737	0.000274	-0.226238
O221	O	0.784071	0.333607	0.107095
O222	O	1.117404	0.666940	0.440429
H223	H	0.482198	0.000284	-0.270807
H224	H	0.815531	0.333617	0.062527
H225	H	1.148864	0.666951	0.395860
H226	H	0.935960	-0.555480	-0.116958
H227	H	1.269294	-0.222147	0.216376
H228	H	1.602627	0.111187	0.549709
H229	H	0.147101	0.000324	-0.205028
H230	H	0.480434	0.333657	0.128305
H231	H	0.813767	0.666990	0.461638
O232	O	0.956171	0.000283	0.126395
O233	O	1.289505	0.333616	0.459728
O234	O	1.622838	0.666949	0.793062
H235	H	0.999640	0.000308	0.169652
H236	H	1.332974	0.333641	0.502985
H237	H	1.666307	0.666974	0.836318
O238	O	0.409041	0.108079	0.007209
O239	O	0.742374	0.441413	0.340542
O240	O	1.075708	0.774746	0.673875
H241	H	0.394201	0.179193	0.000240
H242	H	0.727534	0.512526	0.333574
H243	H	1.060867	0.845860	0.666907
H244	H	0.266311	0.094408	-0.003540
H245	H	0.599645	0.427741	0.329793
H246	H	0.932978	0.761075	0.663126
O247	O	0.485997	0.000217	0.036921
O248	O	0.819331	0.333551	0.370255
O249	O	1.152664	0.666884	0.703588
H250	H	0.428112	0.000243	0.027116
H251	H	0.761445	0.333576	0.360449
H252	H	1.094778	0.666910	0.693783
O253	O	0.953961	0.000270	0.276986
O254	O	1.287294	0.333603	0.610319
O255	O	1.620628	0.666937	0.943652
H256	H	0.998530	0.000265	0.245525
H257	H	1.331863	0.333598	0.578859
H258	H	1.665196	0.666932	0.912192
H259	H	0.909156	0.094400	0.353567
H260	H	1.242489	0.427733	0.686901
H261	H	1.575822	0.761067	1.020234
O262	O	0.003852	0.000355	-0.219686
O263	O	0.337185	0.333688	0.113647
O264	O	0.670518	0.667022	0.446980
H265	H	0.035315	0.000366	-0.264252
H266	H	0.368649	0.333700	0.069081
H267	H	0.701982	0.667033	0.402414
H268	H	0.907225	0.094416	0.484999
H269	H	1.240558	0.427749	0.818332
H270	H	1.573891	0.761082	1.151666
O271	O	0.636579	0.000173	0.034711
O272	O	0.969913	0.333506	0.368044
O273	O	1.303246	0.666840	0.701377
H274	H	0.605117	0.000179	0.079278
H275	H	0.938450	0.333513	0.412611
H276	H	1.271784	0.666846	0.745944
H277	H	0.911522	-0.444022	-0.001168
H278	H	1.244855	-0.110689	0.332166
H279	H	1.578189	0.222644	0.665499
O280	O	0.792163	-0.563975	0.040523
O281	O	1.125497	-0.230642	0.373857
O282	O	1.458830	0.102691	0.707190
H283	H	0.833319	-0.540232	0.081495
H284	H	1.166652	-0.206899	0.414828
H285	H	1.499986	0.126435	0.748161
H286	H	0.932751	0.000305	0.580622
H287	H	1.266085	0.333639	0.913956
H288	H	1.599418	0.666972	1.247289
O289	O	0.947409	0.000325	0.723871
O290	O	1.280743	0.333658	1.057205
O291	O	1.614076	0.666992	1.390538
H292	H	0.991975	0.000316	0.692408
H293	H	1.325309	0.333649	1.025741
H294	H	1.658642	0.666983	1.359074
H295	H	0.701123	0.000270	0.681288
H296	H	1.034457	0.333604	1.014621
H297	H	1.367790	0.666937	1.347954
H298	H	0.703049	0.000254	0.549857
H299	H	1.036383	0.333587	0.883190
H300	H	1.369716	0.666921	1.216524
H301	H	0.731269	-0.093875	0.461445
H302	H	1.064602	0.239458	0.794778
H303	H	1.397936	0.572792	1.128112
H304	H	0.733200	-0.093896	0.330022
H305	H	1.066533	0.239437	0.663355
H306	H	1.399866	0.572770	0.996688
H307	H	0.709599	0.000223	0.102967
H308	H	1.042932	0.333556	0.436300
H309	H	1.376266	0.666890	0.769633
O310	O	0.381988	-0.107589	-0.194376
O311	O	0.715322	0.225744	0.138957
O312	O	1.048655	0.559077	0.472291
H313	H	0.340108	-0.143671	-0.227541
H314	H	0.673442	0.189663	0.105793
H315	H	1.006775	0.522996	0.439126
O316	O	0.690801	0.000210	0.241726
O317	O	1.024135	0.333543	0.575059
O318	O	1.357468	0.666876	0.908392
H319	H	0.700607	0.000203	0.299611
H320	H	1.033940	0.333536	0.632945
H321	H	1.367274	0.666870	0.966278
