data_functionalizedCrystal
_audit_creation_method	'MofGen! by Chris Wilmer'
_symmetry_space_group_name_H-M	'P1'
_symmetry_Int_Tables_number	1
_symmetry_cell_setting	triclinic
loop_
_symmetry_equiv_pos_as_xyz
  x,y,z
_cell_length_a	19.121215
_cell_length_b	19.121063
_cell_length_c	17.077396
_cell_angle_alpha	92.407870
_cell_angle_beta	87.536854
_cell_angle_gamma	95.002544
loop_
_atom_site_label
_atom_site_type_symbol
_atom_site_fract_x
_atom_site_fract_y
_atom_site_fract_z
Zn1	Zn	1.063732	-0.234334	-0.505852
Zn2	Zn	1.563732	0.265666	-0.005852
Zn3	Zn	1.058624	-0.352010	-0.379943
Zn4	Zn	1.558624	0.147990	0.120057
Zn5	Zn	0.946068	-0.239368	-0.369214
Zn6	Zn	1.446068	0.260632	0.130786
Zn7	Zn	0.941008	-0.356972	-0.505779
Zn8	Zn	1.441008	0.143028	-0.005779
O9	O	1.002358	-0.295671	-0.440197
O10	O	1.502358	0.204329	0.059803
O11	O	1.161521	-0.245761	-0.493670
O12	O	1.661521	0.254239	0.006330
O13	O	1.043673	-0.337098	-0.268673
O14	O	1.543673	0.162902	0.231327
O15	O	0.965932	-0.140234	-0.382879
O16	O	1.465932	0.359766	0.117121
O17	O	1.157767	-0.332217	-0.401165
O18	O	1.657767	0.167783	0.098835
O19	O	1.052380	-0.136536	-0.483267
O20	O	1.552380	0.363464	0.016733
O21	O	0.960979	-0.254340	-0.260791
O22	O	1.460979	0.245660	0.239209
O23	O	0.846931	-0.259152	-0.382809
O24	O	1.346931	0.240848	0.117191
O25	O	0.957308	-0.340674	-0.615635
O26	O	1.457308	0.159326	-0.115635
O27	O	0.843213	-0.345555	-0.483143
O28	O	1.343213	0.154445	0.016857
O29	O	1.047473	-0.250572	-0.615689
O30	O	1.547473	0.249428	-0.115689
O31	O	1.038766	-0.451134	-0.401095
O32	O	1.538766	0.048866	0.098905
O33	O	0.952354	-0.454779	-0.493547
O34	O	1.452354	0.045221	0.006453
C35	C	0.819541	-0.303438	-0.431805
C36	C	1.319541	0.196562	0.068195
C37	C	0.741330	-0.306778	-0.428234
C38	C	1.241330	0.193222	0.071766
C39	C	0.298888	-0.327922	-0.405644
C40	C	0.798888	0.172078	0.094356
C41	C	0.372375	-0.324780	-0.408993
C42	C	0.872375	0.175220	0.091007
C43	C	0.411072	-0.278270	-0.458915
C44	C	0.911072	0.221730	0.041085
C45	C	0.376278	-0.234894	-0.505485
C46	C	0.876278	0.265106	-0.005485
C47	C	0.302792	-0.238032	-0.502132
C48	C	0.802792	0.261968	-0.002132
C49	C	0.633050	-0.266541	-0.471451
C50	C	1.133050	0.233459	0.028549
C51	C	0.706541	-0.263407	-0.474802
C52	C	1.206541	0.236593	0.025198
C53	C	0.702633	-0.353293	-0.378309
C54	C	1.202633	0.146707	0.121691
C55	C	0.629146	-0.356431	-0.374963
C56	C	1.129146	0.143569	0.125037
C57	C	0.594358	-0.313052	-0.421530
C58	C	1.094358	0.186948	0.078470
C59	C	0.486188	-0.275059	-0.462341
C60	C	0.986188	0.224941	0.037659
C61	C	0.519244	-0.316260	-0.418099
C62	C	1.019244	0.183740	0.081901
C63	C	0.994476	-0.478487	-0.448495
C64	C	1.494476	0.021513	0.051505
C65	C	0.991168	-0.556694	-0.452074
C66	C	1.491168	-0.056694	0.047926
C67	C	1.034639	-0.591512	-0.405664
C68	C	1.534639	-0.091512	0.094336
C69	C	1.031532	-0.664996	-0.409035
C70	C	1.531532	-0.164996	0.090965
C71	C	0.984950	-0.703659	-0.458813
C72	C	1.484950	-0.203659	0.041187
C73	C	0.941477	-0.668835	-0.505228
C74	C	1.441477	-0.168835	-0.005228
C75	C	0.944588	-0.595353	-0.501860
C76	C	1.444588	-0.095353	-0.001860
C77	C	0.973308	-0.925624	-0.471390
C78	C	1.473308	-0.425624	0.028610
C79	C	0.970199	-0.999112	-0.474752
C80	C	1.470199	-0.499112	0.025248
C81	C	1.060256	-0.995267	-0.378560
C82	C	1.560256	-0.495267	0.121440
C83	C	1.063359	-0.921784	-0.375194
C84	C	1.563359	-0.421784	0.124806
C85	C	1.019889	-0.886966	-0.421612
C86	C	1.519889	-0.386966	0.078388
C87	C	0.981772	-0.778771	-0.462258
C88	C	1.481772	-0.278771	0.037742
C89	C	1.023071	-0.811855	-0.418170
C90	C	1.523071	-0.311855	0.081830
C91	C	1.185889	-0.287874	-0.448622
C92	C	1.685889	0.212126	0.051378
C93	C	1.264099	-0.284551	-0.452213
C94	C	1.764099	0.215449	0.047787
C95	C	1.002396	-0.295615	-0.644940
C96	C	1.502396	0.204385	-0.144940
C97	C	1.002412	-0.295591	-0.732190
C98	C	1.502412	0.204409	-0.232190
C99	C	1.010290	-0.112140	-0.431884
C100	C	1.510290	0.387860	0.068116
C101	C	1.013671	-0.033930	-0.428342
C102	C	1.513671	0.466070	0.071658
C103	C	0.959367	-0.252493	-0.769075
C104	C	1.459367	0.247507	-0.269075
C105	C	0.959379	-0.252477	-0.851056
C106	C	1.459379	0.247523	-0.351056
C107	C	1.002440	-0.295555	-0.896149
C108	C	1.502440	0.204445	-0.396149
C109	C	1.045487	-0.338658	-0.859258
C110	C	1.545487	0.161342	-0.359258
C111	C	1.045471	-0.338677	-0.777279
C112	C	1.545471	0.161323	-0.277279
C113	C	1.045519	-0.338612	-1.030128
C114	C	1.545519	0.161388	-0.530128
C115	C	1.045537	-0.338592	-1.112112
C116	C	1.545537	0.161408	-0.612112
C117	C	0.959428	-0.252412	-1.103904
C118	C	1.459428	0.247588	-0.603904
C119	C	0.959411	-0.252431	-1.021925
C120	C	1.459411	0.247569	-0.521925
C121	C	1.002459	-0.295533	-0.985040
C122	C	1.502459	0.204467	-0.485040
C123	C	1.002363	-0.295674	-0.236249
C124	C	1.502363	0.204326	0.263751
C125	C	1.002492	-0.295494	-0.148998
C126	C	1.502492	0.204506	0.351002
H127	H	0.597644	-0.394304	-0.334310
H128	H	1.097644	0.105696	0.165690
H129	H	0.738046	-0.225527	-0.515454
H130	H	1.238046	0.274473	-0.015454
H131	H	0.937912	-0.897282	-0.509184
H132	H	1.437912	-0.397282	-0.009184
H133	H	0.400697	-0.360097	-0.371071
H134	H	0.900697	0.139903	0.128929
H135	H	1.095648	-1.023623	-0.340770
H136	H	1.595648	-0.523623	0.159230
H137	H	0.924377	-0.217316	-1.133940
H138	H	1.424377	0.282684	-0.633940
H139	H	0.903552	-0.700321	-0.545761
H140	H	1.403552	-0.200321	-0.045761
H141	H	0.909190	-0.567004	-0.539653
H142	H	1.409190	-0.067004	-0.039653
H143	H	0.274468	-0.202712	-0.540050
H144	H	0.774468	0.297288	-0.040050
H145	H	1.080545	-0.373737	-0.895979
H146	H	1.580545	0.126263	-0.395979
H147	H	0.924350	-0.217350	-0.985212
H148	H	1.424350	0.282650	-0.485212
N149	N	1.091981	-0.385052	-1.160751
N150	N	1.591981	0.114948	-0.660751
H151	H	1.119246	-0.412364	-1.124947
H152	H	1.619246	0.087636	-0.624947
H153	H	1.061935	-0.418819	-1.194927
H154	H	1.561935	0.081181	-0.694927
H155	H	1.080580	-0.373704	-1.000098
H156	H	1.580580	0.126296	-0.500098
N157	N	1.073308	-0.770156	-0.364480
N158	N	1.573308	-0.270156	0.135520
H159	H	1.100377	-0.803361	-0.335585
H160	H	1.600377	-0.303361	0.164415
H161	H	1.107146	-0.738235	-0.396558
H162	H	1.607146	-0.238235	0.103442
H163	H	1.080528	-0.373767	-0.747248
H164	H	1.580528	0.126233	-0.247248
N165	N	0.931524	-0.820471	-0.515940
N166	N	1.431524	-0.320471	-0.015940
H167	H	0.958811	-0.849696	-0.555049
H168	H	1.458811	-0.349696	-0.055049
H169	H	0.897658	-0.852352	-0.483850
H170	H	1.397658	-0.352352	0.016150
H171	H	0.487734	-0.354127	-0.377451
H172	H	0.987734	0.145873	0.122549
H173	H	1.072568	-0.560037	-0.365127
H174	H	1.572568	-0.060037	0.134873
N175	N	0.257149	-0.378086	-0.351801
N176	N	0.757149	0.121914	0.148199
H177	H	0.267780	-0.427829	-0.366762
H178	H	0.767780	0.072171	0.133238
H179	H	0.270406	-0.366484	-0.295839
H180	H	0.770406	0.133516	0.204161
N181	N	0.740154	-0.400075	-0.328081
N182	N	1.240154	0.099925	0.171919
H183	H	0.792578	-0.391030	-0.337777
H184	H	1.292578	0.108970	0.162223
H185	H	0.727758	-0.389603	-0.270954
H186	H	1.227758	0.110397	0.229046
H187	H	0.932275	-1.030589	-0.515301
H188	H	1.432275	-0.530589	-0.015301
N189	N	0.912924	-0.206022	-0.720449
N190	N	1.412924	0.293978	-0.220449
H191	H	0.862180	-0.219082	-0.732903
H192	H	1.362180	0.280918	-0.232903
H193	H	0.919503	-0.212587	-0.662935
H194	H	1.419503	0.287413	-0.162935
N195	N	0.595535	-0.219745	-0.521661
N196	N	1.095535	0.280255	-0.021661
H197	H	0.631202	-0.189804	-0.553791
H198	H	1.131202	0.310196	-0.053791
H199	H	0.563818	-0.249716	-0.557850
H200	H	1.063818	0.250284	-0.057850
N201	N	0.912960	-0.205974	-0.890825
N202	N	1.412960	0.294026	-0.390825
H203	H	0.942980	-0.172145	-0.924671
H204	H	1.442980	0.327855	-0.424671
H205	H	0.879119	-0.235979	-0.924595
H206	H	1.379119	0.264021	-0.424595
N207	N	0.418011	-0.184740	-0.559345
N208	N	0.918011	0.315260	-0.059345
H209	H	0.469843	-0.189339	-0.554412
H210	H	0.969843	0.310661	-0.054412
H211	H	0.404702	-0.196322	-0.615295
H212	H	0.904702	0.303678	-0.115295
N213	N	1.078416	-0.702553	-0.358978
N214	N	1.578416	-0.202553	0.141022
H215	H	1.129228	-0.687572	-0.372929
H216	H	1.629228	-0.187572	0.127071
H217	H	1.067994	-0.690262	-0.301816
H218	H	1.567994	-0.190262	0.198184
H219	H	1.101290	-0.890305	-0.334661
H220	H	1.601290	-0.390305	0.165339
N221	N	0.527921	-0.224904	-0.516200
N222	N	1.027921	0.275096	-0.016200
H223	H	0.514674	-0.236455	-0.572178
H224	H	1.014674	0.263545	-0.072178
H225	H	0.517273	-0.175180	-0.501181
H226	H	1.017273	0.324820	-0.001181
