data_functionalizedCrystal
_audit_creation_method	'MofGen! by Chris Wilmer'
_symmetry_space_group_name_H-M	'P1'
_symmetry_Int_Tables_number	1
_symmetry_cell_setting	triclinic
loop_
_symmetry_equiv_pos_as_xyz
  x,y,z
_cell_length_a	10.654550
_cell_length_b	14.519709
_cell_length_c	9.730223
_cell_angle_alpha	89.994652
_cell_angle_beta	89.999957
_cell_angle_gamma	84.082538
loop_
_atom_site_label
_atom_site_type_symbol
_atom_site_fract_x
_atom_site_fract_y
_atom_site_fract_z
O1	O	1.666594	0.129532	-0.114191
O2	O	1.300996	0.141873	-0.114216
O3	O	1.493488	0.001514	-0.114190
O4	O	1.474102	0.269891	-0.114216
O5	O	1.493476	0.001511	0.114390
O6	O	1.300984	0.141869	0.114364
O7	O	1.666581	0.129528	0.114389
Zn8	Zn	1.483781	0.135698	0.150669
Zn9	Zn	1.483797	0.135703	-0.150495
O10	O	1.474089	0.269887	0.114363
C11	C	1.254201	0.140965	0.000071
C12	C	1.114784	0.138254	0.000061
C13	C	1.034504	0.220895	0.000057
C14	C	0.903507	0.218342	0.000081
C15	C	0.933084	0.050500	0.000108
C16	C	1.064078	0.053054	0.000094
C17	C	1.492579	-0.032852	0.000100
C18	C	1.489871	-0.135247	0.000100
C19	C	1.479904	-0.510195	0.000064
C20	C	1.482672	-0.405872	0.000075
C21	C	1.484887	-0.322724	0.000083
C22	C	1.487656	-0.218395	0.000091
C23	C	1.713377	0.130436	0.000099
C24	C	1.852794	0.133147	0.000100
C25	C	1.474999	0.304253	0.000070
C26	C	1.477706	0.406649	0.000061
N27	N	1.483779	0.135694	0.356205
N28	N	1.483809	0.135700	-0.356032
C29	C	1.569043	0.073570	0.428142
C30	C	1.569056	0.073570	0.572025
C31	C	1.398535	0.197827	0.572021
C32	C	1.398518	0.197822	0.428140
H33	H	0.891783	-0.018867	0.000143
H34	H	1.129446	-0.014247	0.000101
H35	H	0.838147	0.285637	0.000081
C36	C	1.662851	0.005235	0.651158
C37	C	1.756650	-0.063086	0.572029
C38	C	1.850448	-0.131425	0.651162
C39	C	1.850447	-0.131443	0.809424
C40	C	1.756644	-0.063119	0.888563
C41	C	1.662846	0.005220	0.809430
H42	H	1.756654	-0.063075	0.454865
H43	H	1.919887	-0.182002	0.592577
H44	H	1.919882	-0.182031	0.868003
H45	H	1.756640	-0.063130	1.005726
H46	H	1.593407	0.055797	0.868014
H47	H	1.638466	0.022980	0.369576
C48	C	1.304761	0.266173	0.651151
C49	C	1.304845	0.266240	0.809413
C50	C	1.211071	0.334591	0.888538
C51	C	1.117211	0.402873	0.809400
C52	C	1.117123	0.402808	0.651129
C53	C	1.210898	0.334458	0.572004
H54	H	1.374329	0.215691	0.868004
H55	H	1.211136	0.334638	1.005701
H56	H	1.047794	0.453470	0.867973
H57	H	1.047640	0.453358	0.592538
H58	H	1.210832	0.334411	0.454840
H59	H	1.075783	0.290270	0.000041
H60	H	1.329079	0.248411	0.369565
