data_functionalizedCrystal
_audit_creation_method	'MofGen! by Chris Wilmer'
_symmetry_space_group_name_H-M	'P1'
_symmetry_Int_Tables_number	1
_symmetry_cell_setting	triclinic
loop_
_symmetry_equiv_pos_as_xyz
  x,y,z
_cell_length_a	6.817900
_cell_length_b	17.284796
_cell_length_c	11.168136
_cell_angle_alpha	90.675668
_cell_angle_beta	108.508683
_cell_angle_gamma	103.042616
loop_
_atom_site_label
_atom_site_type_symbol
_atom_site_fract_x
_atom_site_fract_y
_atom_site_fract_z
V1	V	-4.075830	-0.109070	-0.382942
O2	O	-4.071099	0.005229	-0.386720
O3	O	-4.018654	-0.216256	-0.369678
O4	O	-4.052643	-0.107398	-0.554813
O5	O	-4.036875	-0.104383	-0.200304
V6	V	-4.557328	-0.095398	-0.362390
O7	O	-4.341530	-0.139061	-0.428024
O8	O	-4.741825	-0.065407	-0.317308
O9	O	-4.391298	0.011788	-0.375654
O10	O	-4.679456	-0.209697	-0.358612
O11	O	-4.713680	-0.100085	-0.545028
O12	O	-4.357309	-0.097070	-0.190519
C13	C	-3.860704	-0.242385	-0.360890
C14	C	-3.895411	-0.330011	-0.351191
C15	C	-4.084555	-0.822028	-0.284189
C16	C	-4.051964	-0.739697	-0.293323
C17	C	-4.091956	-0.709801	-0.412416
C18	C	-4.164523	-0.762241	-0.522381
C19	C	-4.197098	-0.844571	-0.513245
C20	C	-4.000553	-0.464780	-0.452020
C21	C	-3.967978	-0.382444	-0.461148
C22	C	-3.855417	-0.359906	-0.232089
C23	C	-3.888010	-0.442238	-0.222964
C24	C	-3.960563	-0.494671	-0.332928
N25	N	-4.058651	-0.625645	-0.421756
N26	N	-3.993853	-0.578824	-0.323587
C27	C	-3.904059	-0.103525	-0.597046
C28	C	-3.966326	-0.102867	-0.737482
C29	C	-4.167759	-0.106312	-0.805834
C30	C	-4.232119	-0.105632	-0.950981
C31	C	-4.212589	0.037913	-0.384438
C32	C	-4.157121	0.125538	-0.394145
C33	C	-4.169234	-0.100946	-0.148279
C34	C	-4.086205	-0.101600	-0.007843
H35	H	-3.855446	-0.466573	-0.125986
H36	H	-4.197070	-0.737893	-0.619349
Br37	Br	-3.756985	-0.288745	-0.082861
H38	H	-4.000591	-0.358108	-0.558134
Br39	Br	-4.295603	-0.915733	-0.662479
Br40	Br	-3.798582	-0.096694	-0.909925
H41	H	-3.841518	-0.099408	-0.786419
H42	H	-4.051994	-0.846362	-0.187211
Br43	Br	-4.098811	-0.535924	-0.601252
H44	H	-3.992883	-0.697008	-0.203784
H45	H	-4.292562	-0.109760	-0.756895
H46	H	-4.404682	-0.108585	-1.009741
