data_functionalizedCrystal
_audit_creation_method	'MofGen! by Chris Wilmer'
_symmetry_space_group_name_H-M	'P1'
_symmetry_Int_Tables_number	1
_symmetry_cell_setting	triclinic
loop_
_symmetry_equiv_pos_as_xyz
  x,y,z
_cell_length_a	10.654550
_cell_length_b	13.930277
_cell_length_c	10.654550
_cell_angle_alpha	89.996642
_cell_angle_beta	95.515097
_cell_angle_gamma	90.010740
loop_
_atom_site_label
_atom_site_type_symbol
_atom_site_fract_x
_atom_site_fract_y
_atom_site_fract_z
O1	O	1.667846	0.079907	-0.176398
O2	O	1.302368	0.079892	-0.193204
O3	O	1.493510	0.079896	-0.002062
O4	O	1.476704	0.079903	-0.367540
O5	O	1.493483	-0.079766	-0.002057
O6	O	1.302341	-0.079770	-0.193200
O7	O	1.667819	-0.079755	-0.176393
Zn8	Zn	1.485076	-0.105112	-0.184796
Zn9	Zn	1.485111	0.105249	-0.184802
O10	O	1.476677	-0.079759	-0.367536
C11	C	1.255556	0.000059	-0.191968
C12	C	1.116113	0.000053	-0.188276
N13	N	1.485061	-0.248678	-0.184791
C14	C	1.036627	0.000069	-0.300817
C15	C	0.905607	0.000085	-0.297341
C16	C	0.933570	0.000074	-0.068771
C17	C	1.064588	0.000050	-0.072249
C18	C	1.020482	0.000079	-0.432780
C19	C	0.889461	0.000096	-0.429304
C20	C	1.400470	-0.700950	-0.269406
C21	C	1.569787	-0.700915	-0.100188
C22	C	1.569772	-0.600419	-0.100184
C23	C	1.485106	-0.550184	-0.184793
C24	C	1.400455	-0.600445	-0.269407
C25	C	1.654430	-0.550151	-0.015580
C26	C	1.654420	-0.449649	-0.015574
C27	C	1.569747	-0.399412	-0.100178
C28	C	1.485091	-0.449679	-0.184794
C29	C	1.400425	-0.399444	-0.269404
C30	C	1.315762	-0.449709	-0.354015
C31	C	1.315782	-0.550208	-0.354011
C32	C	1.569727	-0.298913	-0.100182
C33	C	1.400410	-0.298939	-0.269405
C34	C	1.714631	0.000080	-0.177630
C35	C	1.854074	0.000093	-0.181321
C36	C	1.492263	0.000066	0.044739
C37	C	1.488571	0.000070	0.184182
N38	N	1.485136	0.248815	-0.184796
C39	C	1.477925	0.000073	-0.414336
C40	C	1.481616	0.000076	-0.553779
C41	C	1.601112	0.000072	0.263668
C42	C	1.597636	0.000078	0.394688
C43	C	1.369066	0.000077	0.366725
C44	C	1.372544	0.000077	0.235707
C45	C	1.733075	0.000068	0.279813
C46	C	1.729599	0.000075	0.410834
H47	H	1.129302	0.000024	0.019393
H48	H	1.274601	0.000084	0.408693
H49	H	1.246853	-0.591140	-0.422900
H50	H	1.784702	0.066884	0.250453
H51	H	1.769491	0.069014	0.456475
H52	H	0.847740	0.066920	-0.479027
C53	C	1.788830	-0.092019	0.232508
C54	C	1.822283	-0.153003	0.334730
C55	C	1.873498	-0.237892	0.291182
H56	H	1.728153	-0.122924	0.175018
H57	H	1.861577	-0.077327	0.191131
H58	H	1.749546	-0.167696	0.376087
H59	H	1.882972	-0.122128	0.392229
H60	H	1.946246	-0.223201	0.249805
H61	H	1.812815	-0.268789	0.233692
H62	H	1.896214	-0.279277	0.360533
H63	H	0.891602	0.000087	0.025694
H64	H	1.280902	0.000089	0.170993
H65	H	1.779309	-0.066740	0.452596
H66	H	1.056149	0.069013	-0.474801
C67	C	1.059545	-0.089132	-0.501374
C68	C	1.023333	-0.171042	-0.437749
C69	C	1.059312	-0.253238	-0.500887
H70	H	1.019614	-0.089264	-0.585015
H71	H	1.148461	-0.089203	-0.503701
H72	H	0.934434	-0.170971	-0.435436
H73	H	1.063260	-0.170942	-0.354112
H74	H	1.148228	-0.253309	-0.503214
H75	H	1.019378	-0.253360	-0.584525
H76	H	1.034758	-0.308823	-0.457720
H77	H	1.246832	-0.408796	-0.422910
H78	H	0.843778	-0.068834	-0.469183
H79	H	1.331459	-0.258043	-0.338300
C80	C	1.308350	-0.755468	-0.361116
C81	C	1.184765	-0.731062	-0.339573
C82	C	1.099869	-0.781276	-0.424019
H83	H	1.322538	-0.739036	-0.445120
H84	H	1.320393	-0.822526	-0.348990
H85	H	1.172726	-0.664019	-0.351709
H86	H	1.170537	-0.747497	-0.255585
H87	H	1.111913	-0.848334	-0.411892
H88	H	1.114069	-0.764840	-0.508017
H89	H	1.016008	-0.764731	-0.409406
C90	C	1.661498	-0.755510	-0.008186
C91	C	1.593931	-0.813210	0.069327
C92	C	1.678371	-0.863513	0.154110
H93	H	1.714204	-0.794778	-0.053704
H94	H	1.711894	-0.711217	0.042286
H95	H	1.543556	-0.857497	0.018862
H96	H	1.541229	-0.773965	0.114874
H97	H	1.728767	-0.819220	0.204582
H98	H	1.731073	-0.902776	0.108581
H99	H	1.632539	-0.902661	0.206720
H100	H	1.723355	-0.408730	0.053322
C101	C	1.746137	-0.604751	0.076420
C102	C	1.678562	-0.662442	0.153937
C103	C	1.762995	-0.712753	0.238718
H104	H	1.798833	-0.644027	0.030900
H105	H	1.796543	-0.560463	0.126889
H106	H	1.628177	-0.706725	0.103475
H107	H	1.625870	-0.623190	0.199486
H108	H	1.813402	-0.668464	0.289187
H109	H	1.815687	-0.752023	0.193187
H110	H	1.717158	-0.751895	0.291331
C111	C	1.661814	-0.244303	-0.008550
C112	C	1.739272	-0.186617	-0.076197
C113	C	1.824146	-0.136313	0.008171
H114	H	1.616363	-0.205025	0.044207
H115	H	1.712315	-0.288596	0.041801
H116	H	1.688777	-0.142329	-0.126525
H117	H	1.784751	-0.225871	-0.128949
H118	H	1.874648	-0.180606	0.058521
H119	H	1.778685	-0.097041	0.060923
H120	H	1.876720	-0.097174	-0.037716
