data_functionalizedCrystal
_audit_creation_method	'MofGen! by Chris Wilmer'
_symmetry_space_group_name_H-M	'P1'
_symmetry_Int_Tables_number	1
_symmetry_cell_setting	triclinic
loop_
_symmetry_equiv_pos_as_xyz
  x,y,z
_cell_length_a	19.188930
_cell_length_b	15.995292
_cell_length_c	17.666332
_cell_angle_alpha	89.995356
_cell_angle_beta	90.020449
_cell_angle_gamma	96.693302
loop_
_atom_site_label
_atom_site_type_symbol
_atom_site_fract_x
_atom_site_fract_y
_atom_site_fract_z
O1	O	-0.926395	0.104532	-0.063197
O2	O	-0.426395	0.604532	0.436803
O3	O	-0.723117	0.118605	-0.063145
O4	O	-0.223117	0.618605	0.436855
O5	O	-0.830334	-0.010343	-0.063162
O6	O	-0.330334	0.489657	0.436838
O7	O	-0.819179	0.233480	-0.063180
O8	O	-0.319179	0.733480	0.436820
O9	O	-0.830320	-0.010339	0.062735
O10	O	-0.330320	0.489661	0.562735
O11	O	-0.723103	0.118609	0.062751
O12	O	-0.223103	0.618609	0.562751
O13	O	-0.926381	0.104537	0.062700
O14	O	-0.426381	0.604537	0.562700
Cu15	Cu	-0.824741	0.111573	0.074221
Cu16	Cu	-0.324741	0.611573	0.574221
Cu17	Cu	-0.824758	0.111568	-0.074666
Cu18	Cu	-0.324758	0.611568	0.425334
O19	O	-0.819164	0.233484	0.062716
O20	O	-0.319164	0.733484	0.562716
C21	C	-0.697098	0.118151	-0.000190
C22	C	-0.197098	0.618151	0.499810
C23	C	-0.619590	0.116783	-0.000170
C24	C	-0.119590	0.616783	0.499830
C25	C	-0.829873	-0.041535	-0.000212
C26	C	-0.329873	0.458465	0.499788
C27	C	-0.828512	-0.134483	-0.000208
C28	C	-0.328512	0.365517	0.499792
C29	C	-0.952400	0.104990	-0.000257
C30	C	-0.452400	0.604990	0.499743
C31	C	-1.029908	0.106358	-0.000282
C32	C	-0.529908	0.606358	0.499718
C33	C	-0.574846	0.192445	-0.000188
C34	C	-0.074846	0.692445	0.499812
C35	C	-0.502019	0.191160	-0.000196
C36	C	-0.002019	0.691160	0.499804
C37	C	-0.473940	0.114208	-0.000202
C38	C	0.026060	0.614208	0.499798
C39	C	-0.518694	0.038536	-0.000180
C40	C	-0.018694	0.538536	0.499820
C41	C	-0.591520	0.039824	-0.000164
C42	C	-0.091520	0.539824	0.499836
N43	N	-0.365825	0.055387	-0.043076
N44	N	0.134175	0.555387	0.456924
N45	N	-0.296644	0.054169	-0.043093
N46	N	0.203356	0.554169	0.456907
C47	C	-0.254522	0.110325	-0.000248
C48	C	0.245478	0.610325	0.499752
N49	N	-0.284194	0.167758	0.042604
N50	N	0.215806	0.667758	0.542604
N51	N	-0.353382	0.168978	0.042618
N52	N	0.146618	0.668978	0.542618
C53	C	-0.394974	0.112804	-0.000219
C54	C	0.105026	0.612804	0.499781
C55	C	-0.130810	0.184599	-0.000274
C56	C	0.369190	0.684599	0.499726
C57	C	-0.057982	0.183311	-0.000277
C58	C	0.442018	0.683311	0.499723
C59	C	-0.074659	0.030685	-0.000269
C60	C	0.425341	0.530685	0.499731
C61	C	-0.147485	0.031975	-0.000257
C62	C	0.352515	0.531975	0.499743
C63	C	-0.175556	0.108935	-0.000264
C64	C	0.324444	0.608935	0.499736
C65	C	-0.819625	0.264676	-0.000235
C66	C	-0.319625	0.764676	0.499765
C67	C	-0.820987	0.357624	-0.000244
C68	C	-0.320987	0.857624	0.499756
N69	N	-0.824734	0.111576	0.178940
N70	N	-0.324734	0.611576	0.678940
C71	C	-0.825991	0.695344	-0.000220
C72	C	-0.325991	1.195344	0.499780
C73	C	-0.748605	0.672315	0.000078
C74	C	-0.248605	1.172315	0.500078
C75	C	-0.747134	0.575645	-0.000213
C76	C	-0.247134	1.075645	0.499787
C77	C	-0.823508	0.527797	-0.000232
C78	C	-0.323508	1.027797	0.499768
C79	C	-0.862205	0.556766	-0.072130
C80	C	-0.362205	1.056766	0.427870
C81	C	-0.863137	0.653553	-0.072183
C82	C	-0.363137	1.153553	0.427817
C83	C	-0.864701	0.653386	0.070985
C84	C	-0.364701	1.153386	0.570985
C85	C	-0.861833	0.556904	0.071928
C86	C	-0.361833	1.056904	0.571928
C87	C	-0.822108	0.433106	-0.000240
C88	C	-0.322108	0.933106	0.499760
C89	C	-0.827392	0.790035	-0.000217
C90	C	-0.327392	1.290035	0.499783
N91	N	-0.824770	0.111558	-0.179386
N92	N	-0.324770	0.611558	0.320614
C93	C	-0.867104	0.162210	0.780974
C94	C	-0.367104	0.662210	1.280974
C95	C	-0.867097	0.162218	0.701727
C96	C	-0.367097	0.662218	1.201727
C97	C	-0.824764	0.111560	0.662122
C98	C	-0.324764	0.611560	1.162122
C99	C	-0.782421	0.060905	0.701771
C100	C	-0.282421	0.560905	1.201771
C101	C	-0.782424	0.060904	0.781017
C102	C	-0.282424	0.560904	1.281017
N103	N	-0.822900	0.038212	0.537704
N104	N	-0.322900	0.538212	1.037704
N105	N	-0.822901	0.038215	0.462424
N106	N	-0.322901	0.538215	0.962424
C107	C	-0.824752	0.111559	0.423358
C108	C	-0.324752	0.611559	0.923358
N109	N	-0.826615	0.184902	0.462416
N110	N	-0.326615	0.684902	0.962416
N111	N	-0.826617	0.184898	0.537704
N112	N	-0.326617	0.684898	1.037704
C113	C	-0.824756	0.111555	0.576193
C114	C	-0.324756	0.611555	1.076193
C115	C	-0.867081	0.162224	0.297789
C116	C	-0.367081	0.662224	0.797789
C117	C	-0.867069	0.162234	0.218540
C118	C	-0.367069	0.662234	0.718540
C119	C	-0.782396	0.060913	0.218586
C120	C	-0.282396	0.560913	0.718586
C121	C	-0.782404	0.060911	0.297833
C122	C	-0.282404	0.560911	0.797833
C123	C	-0.824750	0.111565	0.337430
C124	C	-0.324750	0.611565	0.837430
H125	H	-0.597696	0.255112	-0.000195
H126	H	-0.097696	0.755112	0.499805
H127	H	-0.051798	-0.031971	-0.000320
H128	H	0.448202	0.468029	0.499680
H129	H	-0.183917	-0.029637	-0.000247
H130	H	0.316083	0.470363	0.499753
C131	C	-0.913676	0.217926	0.658114
C132	C	-0.413676	0.717926	1.158114
H133	H	-0.938900	0.248087	0.693046
H134	H	-0.438900	0.748087	1.193046
H135	H	-0.885067	0.256551	0.627203
H136	H	-0.385067	0.756551	1.127203
H137	H	-0.945811	0.183497	0.627195
H138	H	-0.445811	0.683497	1.127195
C139	C	-0.640740	-0.043408	-0.000154
C140	C	-0.140740	0.456592	0.499846
H141	H	-0.613590	-0.089424	-0.000163
H142	H	-0.113590	0.410576	0.499837
H143	H	-0.669478	-0.046079	0.043752
H144	H	-0.169478	0.453921	0.543752
H145	H	-0.669513	-0.046076	-0.044060
H146	H	-0.169513	0.453924	0.455940
H147	H	-0.747934	0.019661	0.330108
H148	H	-0.247934	0.519661	0.830108
C149	C	-0.487810	-0.046108	-0.000191
C150	C	0.012190	0.453892	0.499809
H151	H	-0.438029	-0.036039	-0.000211
H152	H	0.061971	0.463961	0.499789
H153	H	-0.503145	-0.077253	0.043716
H154	H	-0.003145	0.422747	0.543716
H155	H	-0.503196	-0.077250	-0.044095
H156	H	-0.003196	0.422750	0.455905
C157	C	-0.706190	0.550081	0.069407
C158	C	-0.206190	1.050081	0.569407
H159	H	-0.690305	0.598820	0.098121
H160	H	-0.190305	1.098820	0.598121
H161	H	-0.735980	0.512175	0.099816
H162	H	-0.235980	1.012175	0.599816
H163	H	-0.667010	0.523491	0.053231
H164	H	-0.167010	1.023491	0.553231
C165	C	-0.452792	0.274392	-0.000227
C166	C	0.047208	0.774392	0.499773
H167	H	-0.479940	0.320409	-0.000235
H168	H	0.020060	0.820409	0.499765
H169	H	-0.424007	0.277073	0.043665
H170	H	0.075993	0.777073	0.543665
H171	H	-0.424065	0.277046	-0.044147
H172	H	0.075935	0.777046	0.455853
C173	C	-0.938126	0.513434	-0.075769
C174	C	-0.438126	1.013434	0.424231
H175	H	-0.946917	0.477201	-0.033372
H176	H	-0.446917	0.977201	0.466628
H177	H	-0.969769	0.554889	-0.075106
H178	H	-0.469769	1.054889	0.424894
H179	H	-0.944525	0.481462	-0.121071
H180	H	-0.444525	0.981462	0.378929
C181	C	-0.831936	0.691654	0.144607
C182	C	-0.331936	1.191654	0.644607
H183	H	-0.794338	0.733584	0.132605
H184	H	-0.294338	1.233584	0.632605
H185	H	-0.866502	0.716288	0.172682
H186	H	-0.366502	1.216288	0.672682
H187	H	-0.814734	0.648694	0.173948
H188	H	-0.314734	1.148694	0.673948
H189	H	-0.718769	0.700419	0.051640
H190	H	-0.218769	1.200419	0.551640
H191	H	-0.153666	0.247264	-0.000267
H192	H	0.346334	0.747264	0.499733
H193	H	-0.833656	0.538434	0.125118
H194	H	-0.333656	1.038434	0.625118
H195	H	-0.901558	0.203474	0.330030
H196	H	-0.401558	0.703474	0.830030
C197	C	-0.939783	0.672939	-0.076616
C198	C	-0.439783	1.172939	0.423384
H199	H	-0.940871	0.732167	-0.076674
H200	H	-0.440871	1.232167	0.423326
H201	H	-0.960714	0.649614	-0.121792
H202	H	-0.460714	1.149614	0.378208
H203	H	-0.965046	0.649003	-0.034107
H204	H	-0.465046	1.149003	0.465893
C205	C	-0.735853	0.005186	0.658209
C206	C	-0.235853	0.505186	1.158209
H207	H	-0.741918	0.012435	0.605335
H208	H	-0.241918	0.512435	1.105335
H209	H	-0.688082	0.020891	0.671216
H210	H	-0.188082	0.520891	1.171216
H211	H	-0.748837	-0.052150	0.671195
H212	H	-0.248837	0.447850	1.171195
C213	C	-0.913638	0.217953	0.174932
C214	C	-0.413638	0.717953	0.674932
H215	H	-0.907566	0.210707	0.122064
H216	H	-0.407566	0.710707	0.622064
H217	H	-0.961410	0.202246	0.187898
H218	H	-0.461410	0.702246	0.687898
H219	H	-0.900656	0.275287	0.187923
H220	H	-0.400656	0.775287	0.687923
C221	C	-0.008763	0.266544	-0.000297
C222	C	0.491237	0.766544	0.499703
H223	H	-0.035914	0.312558	-0.000305
H224	H	0.464086	0.812558	0.499695
H225	H	0.020015	0.269222	0.043600
H226	H	0.520015	0.769222	0.543600
H227	H	0.019970	0.269206	-0.044211
H228	H	0.519970	0.769206	0.455789
C229	C	-0.937155	0.512131	0.077754
C230	C	-0.437155	1.012131	0.577754
H231	H	-0.946255	0.474935	0.036069
H232	H	-0.446255	0.974935	0.536069
H233	H	-0.942203	0.481039	0.123632
H234	H	-0.442203	0.981039	0.623632
H235	H	-0.969483	0.552814	0.077132
H236	H	-0.469483	1.052814	0.577132
H237	H	-0.718949	0.701445	-0.051182
H238	H	-0.218949	1.201445	0.448818
H239	H	-0.716663	0.557358	-0.051833
H240	H	-0.216663	1.057358	0.448167
C241	C	-0.735858	0.005184	0.824626
C242	C	-0.235858	0.505184	1.324626
H243	H	-0.741921	0.012442	0.877494
H244	H	-0.241921	0.512442	1.377494
H245	H	-0.748837	-0.052147	0.811637
H246	H	-0.248837	0.447853	1.311637
H247	H	-0.688082	0.020894	0.811661
H248	H	-0.188082	0.520894	1.311661
C249	C	-0.826942	0.689927	-0.144766
C250	C	-0.326942	1.189927	0.355234
H251	H	-0.811806	0.645530	-0.173940
H252	H	-0.311806	1.145530	0.326060
H253	H	-0.859111	0.717842	-0.173515
H254	H	-0.359111	1.217842	0.326485
H255	H	-0.787567	0.728838	-0.131617
H256	H	-0.287567	1.228838	0.368383
H257	H	-0.747924	0.019671	0.186340
H258	H	-0.247924	0.519671	0.686340
H259	H	-0.901584	0.203458	0.813209
H260	H	-0.401584	0.703458	1.313209
H261	H	-0.835344	0.536812	-0.125627
H262	H	-0.335344	1.036812	0.374373
H263	H	-0.921662	0.667173	0.071461
H264	H	-0.421662	1.167173	0.571461
