data_functionalizedCrystal
_audit_creation_method	'MofGen! by Chris Wilmer'
_symmetry_space_group_name_H-M	'P1'
_symmetry_Int_Tables_number	1
_symmetry_cell_setting	triclinic
loop_
_symmetry_equiv_pos_as_xyz
  x,y,z
_cell_length_a	17.699097
_cell_length_b	10.967829
_cell_length_c	16.176319
_cell_angle_alpha	77.865348
_cell_angle_beta	89.988988
_cell_angle_gamma	84.014498
loop_
_atom_site_label
_atom_site_type_symbol
_atom_site_fract_x
_atom_site_fract_y
_atom_site_fract_z
O1	O	1.005071	0.157880	-0.091305
O2	O	0.784823	0.178392	-0.094214
O3	O	0.900025	-0.013531	-0.066876
O4	O	0.889869	0.349803	-0.118642
O5	O	0.900009	-0.013543	0.070619
O6	O	0.784807	0.178380	0.043281
O7	O	1.005055	0.157867	0.046190
Cu8	Cu	0.894929	0.168123	0.057290
Cu9	Cu	0.894948	0.168137	-0.105314
O10	O	0.889853	0.349791	0.018853
C11	C	0.756614	0.177648	-0.025359
C12	C	0.672582	0.175435	-0.025039
C13	C	0.156787	0.161874	-0.098087
C14	C	0.235744	0.163945	-0.098378
C15	C	0.275208	0.164976	-0.023574
C16	C	0.235711	0.163923	0.051527
C17	C	0.156756	0.161843	0.051819
C18	C	0.554128	0.172311	0.050354
C19	C	0.633089	0.174395	0.050056
C20	C	0.633116	0.174413	-0.099843
C21	C	0.554161	0.172333	-0.099552
C22	C	0.514672	0.171273	-0.024450
C23	C	0.429058	0.169025	-0.024135
C24	C	0.360820	0.167233	-0.023890
C25	C	0.899276	-0.060025	0.008493
C26	C	0.897062	-0.198544	0.028224
C27	C	0.896083	-0.260288	-0.034207
C28	C	0.893795	-0.403455	-0.013815
C29	C	1.033264	0.158611	-0.022666
C30	C	1.117296	0.160825	-0.022992
C31	C	0.890601	0.396285	-0.056519
C32	C	0.892816	0.534804	-0.076255
N33	N	0.894922	0.168112	0.171657
N34	N	0.894962	0.168138	-0.219679
C35	C	0.945948	0.083163	0.227021
C36	C	0.945952	0.083161	0.313568
C37	C	0.894932	0.168116	0.344749
C38	C	0.843900	0.253069	0.289378
C39	C	0.843893	0.253063	0.202833
C40	C	0.843926	0.253092	0.638403
C41	C	0.843938	0.253094	0.724954
C42	C	0.945985	0.083191	0.749138
C43	C	0.945978	0.083185	0.662593
C44	C	0.894944	0.168133	0.607231
C45	C	0.894939	0.168132	0.513387
C46	C	0.894940	0.168124	0.438590
H47	H	0.522033	0.171500	-0.160466
O48	O	0.897068	-0.197102	-0.116031
C49	C	0.896919	-0.210534	-0.262812
C50	C	0.895783	-0.282237	-0.170183
H51	H	0.895897	-0.279337	-0.306620
H52	H	0.845007	-0.138050	-0.276887
H53	H	0.950755	-0.161129	-0.273501
H54	H	0.841982	-0.331717	-0.159429
H55	H	0.947732	-0.354650	-0.156153
H56	H	0.521987	0.171430	0.111509
O57	O	0.893919	-0.401942	-0.158057
C58	C	0.960012	-0.375973	-0.289829
C59	C	0.958859	-0.447757	-0.197221
H60	H	1.012519	-0.412968	-0.321516
H61	H	0.906763	-0.389923	-0.324872
H62	H	0.961630	-0.271808	-0.291641
H63	H	0.957268	-0.551944	-0.195331
H64	H	1.012104	-0.433702	-0.162219
H65	H	0.892934	-0.456579	0.054735
O66	O	0.794329	0.335734	0.584741
C67	C	0.693082	0.504215	0.569901
C68	C	0.749224	0.410705	0.630768
H69	H	0.656589	0.564836	0.607092
H70	H	0.726034	0.566574	0.520503
H71	H	0.655024	0.450390	0.537048
H72	H	0.787296	0.464428	0.663681
H73	H	0.716225	0.348347	0.680113
O74	O	0.895932	-0.262024	0.109965
C75	C	0.828080	-0.394742	0.215766
C76	C	0.829277	-0.322941	0.123165
H77	H	0.774188	-0.443990	0.226472
H78	H	0.879939	-0.467340	0.229819
H79	H	0.829209	-0.325966	0.259580
H80	H	0.828123	-0.391621	0.079291
H81	H	0.777423	-0.250324	0.109182
H82	H	0.987498	0.013988	0.201640
H83	H	0.987502	0.013989	0.358647
O84	O	0.995566	0.000539	0.632451
C85	C	1.096814	-0.167946	0.665569
C86	C	1.040686	-0.074431	0.699818
H87	H	1.133318	-0.228565	0.720016
H88	H	1.063850	-0.230306	0.633975
H89	H	1.134862	-0.114125	0.617343
H90	H	1.002624	-0.128149	0.748075
H91	H	1.073697	-0.012072	0.731360
O92	O	0.794411	0.335548	0.319799
C93	C	0.749166	0.410815	0.442410
C94	C	0.805263	0.317356	0.408072
H95	H	0.757909	0.396122	0.513785
H96	H	0.759543	0.510769	0.411201
H97	H	0.688472	0.394686	0.427664
H98	H	0.865979	0.333370	0.422809
H99	H	0.794820	0.217435	0.439281
H100	H	0.802341	0.322236	0.157755
O101	O	0.273948	0.165086	0.124223
C102	C	0.290094	0.273805	0.236837
C103	C	0.246724	0.272625	0.154526
H104	H	0.268111	0.360755	0.261352
H105	H	0.281014	0.186157	0.286339
H106	H	0.353310	0.275414	0.223721
H107	H	0.183495	0.271060	0.167561
H108	H	0.255867	0.360267	0.105051
H109	H	0.665218	0.175234	0.110975
H110	H	0.124661	0.161043	-0.159003
H111	H	0.987538	0.014017	0.794225
H112	H	0.267895	0.164792	-0.159528
H113	H	0.124602	0.161002	0.112967
H114	H	0.665278	0.175270	-0.160994
H115	H	0.802389	0.322277	0.750338
