data_functionalizedCrystal
_audit_creation_method	'MofGen! by Chris Wilmer'
_symmetry_space_group_name_H-M	'P1'
_symmetry_Int_Tables_number	1
_symmetry_cell_setting	triclinic
loop_
_symmetry_equiv_pos_as_xyz
  x,y,z
_cell_length_a	19.805407
_cell_length_b	18.050589
_cell_length_c	19.805399
_cell_angle_alpha	89.976299
_cell_angle_beta	89.983114
_cell_angle_gamma	90.028221
loop_
_atom_site_label
_atom_site_type_symbol
_atom_site_fract_x
_atom_site_fract_y
_atom_site_fract_z
Zn1	Zn	1.034709	-0.295666	-0.382745
Zn2	Zn	1.034626	-0.419862	-0.269567
Zn3	Zn	0.921529	-0.295690	-0.269569
Zn4	Zn	0.921484	-0.419819	-0.382713
O5	O	0.978087	-0.357759	-0.326148
O6	O	1.129415	-0.312149	-0.367743
O7	O	1.019607	-0.403418	-0.174850
O8	O	0.936597	-0.191762	-0.284596
O9	O	1.129353	-0.403395	-0.284592
O10	O	1.019750	-0.191745	-0.367746
O11	O	0.936516	-0.312189	-0.174852
O12	O	0.826807	-0.312148	-0.284566
O13	O	0.936519	-0.403322	-0.477434
O14	O	0.826773	-0.403345	-0.367693
O15	O	1.019706	-0.312108	-0.477457
O16	O	1.019563	-0.523781	-0.284562
O17	O	0.936438	-0.523749	-0.367690
C18	C	0.802231	-0.357745	-0.326127
C19	C	0.726999	-0.357757	-0.326133
C20	C	0.691655	-0.405315	-0.369347
C21	C	0.620967	-0.405316	-0.369357
C22	C	0.585623	-0.357763	-0.326148
C23	C	0.620972	-0.310200	-0.282933
C24	C	0.691659	-0.310195	-0.282927
C25	C	0.335899	-0.310216	-0.282955
C26	C	0.265207	-0.310226	-0.282962
C27	C	0.265206	-0.405337	-0.369385
C28	C	0.335893	-0.405332	-0.369379
C29	C	0.371236	-0.357767	-0.326166
C30	C	0.447884	-0.357765	-0.326157
C31	C	0.508976	-0.357768	-0.326153
C32	C	0.978005	-0.550711	-0.326137
C33	C	0.978032	-0.633257	-0.326155
C34	C	0.932873	-0.832718	-0.371344
C35	C	0.916378	-0.882158	-0.309581
C36	C	0.978099	-0.784387	-0.326164
C37	C	0.994627	-0.882029	-0.387934
C38	C	0.978162	-0.930373	-0.326178
C39	C	0.961571	-0.832741	-0.264368
C40	C	1.039849	-0.832607	-0.342762
C41	C	1.023377	-0.882025	-0.280957
C42	C	0.978061	-0.700289	-0.326157
C43	C	0.978200	-1.014469	-0.326178
C44	C	1.154630	-0.357774	-0.326171
C45	C	1.229862	-0.357780	-0.326180
C46	C	0.978117	-0.357708	-0.502691
C47	C	0.978129	-0.357686	-0.577923
C48	C	0.978187	-0.164054	-0.326175
C49	C	0.978230	-0.081508	-0.326186
C50	C	0.934876	-0.310179	-0.613268
C51	C	0.934885	-0.310164	-0.683956
C52	C	0.978152	-0.357654	-0.719299
C53	C	1.021407	-0.405166	-0.683949
C54	C	1.021394	-0.405184	-0.613262
C55	C	1.021461	-0.405096	-0.969023
C56	C	1.021472	-0.405074	-1.039715
C57	C	0.934952	-0.310077	-1.039717
C58	C	0.934939	-0.310095	-0.969030
C59	C	0.978191	-0.357609	-0.933686
C60	C	0.978180	-0.357626	-0.857038
C61	C	0.978167	-0.357634	-0.795946
C62	C	0.978096	-0.357757	-0.150292
C63	C	0.978215	-0.357570	-0.075061
H64	H	0.364666	-0.271491	-0.247763
C65	C	0.730530	-0.457625	-0.416878
C66	C	0.720773	-0.542043	-0.411227
C67	C	0.759646	-0.594353	-0.458761
C68	C	0.808275	-0.562245	-0.511946
C69	C	0.818034	-0.477822	-0.517598
C70	C	0.779162	-0.425512	-0.470065
H71	H	0.684773	-0.565816	-0.371855
H72	H	0.752422	-0.656849	-0.454576
H73	H	0.837051	-0.600968	-0.547133
H74	H	0.854035	-0.454050	-0.556971
H75	H	0.786386	-0.363017	-0.474249
H76	H	0.899732	-0.271390	-1.068502
C77	C	0.730542	-0.257881	-0.235392
C78	C	0.720856	-0.173464	-0.241051
C79	C	0.759738	-0.121144	-0.193518
C80	C	0.808307	-0.153241	-0.140327
C81	C	0.817994	-0.237662	-0.134666
C82	C	0.779112	-0.289982	-0.182198
H83	H	0.684901	-0.149700	-0.280428
H84	H	0.752567	-0.058650	-0.197709
H85	H	0.837090	-0.114511	-0.105140
H86	H	0.853949	-0.261426	-0.095288
H87	H	0.786284	-0.352476	-0.178008
C88	C	1.069066	-0.457319	-1.078593
C89	C	1.063489	-0.541747	-1.068867
C90	C	1.111080	-0.593989	-1.107745
C91	C	1.164249	-0.561802	-1.156349
C92	C	1.169828	-0.477369	-1.166078
C93	C	1.122236	-0.425128	-1.127199
H94	H	1.024129	-0.565578	-1.032885
H95	H	1.106950	-0.656491	-1.100543
H96	H	1.199479	-0.600474	-1.185129
H97	H	1.209188	-0.453539	-1.202059
H98	H	1.126367	-0.362625	-1.134401
H99	H	1.056621	-0.443863	-0.584486
C100	C	0.374770	-0.457642	-0.416909
C101	C	0.452524	-0.457639	-0.416903
C102	C	0.491400	-0.509947	-0.464436
C103	C	0.452522	-0.562258	-0.511974
C104	C	0.374765	-0.562263	-0.511982
C105	C	0.335889	-0.509955	-0.464450
H106	H	0.481307	-0.418913	-0.381710
H107	H	0.548961	-0.509943	-0.464430
H108	H	0.481301	-0.600980	-0.547161
H109	H	0.345982	-0.600989	-0.547175
H110	H	0.278328	-0.509959	-0.464456
H111	H	0.236422	-0.444064	-0.404574
C112	C	0.887345	-0.257855	-0.930154
C113	C	0.887331	-0.257873	-0.852400
C114	C	0.839734	-0.205634	-0.813525
C115	C	0.792152	-0.153379	-0.852403
C116	C	0.792165	-0.153359	-0.930161
C117	C	0.839761	-0.205598	-0.969036
H118	H	0.922555	-0.296558	-0.823617
H119	H	0.839725	-0.205649	-0.755964
H120	H	0.756918	-0.114709	-0.823625
H121	H	0.756940	-0.114675	-0.958944
H122	H	0.839770	-0.205583	-1.026597
H123	H	0.947556	-0.811180	-0.212121
H124	H	1.061650	-0.903539	-0.242711
C125	C	0.881135	-0.803459	-0.422887
C126	C	0.805844	-0.823056	-0.415161
C127	C	0.754105	-0.793796	-0.466699
C128	C	0.777656	-0.744937	-0.525962
C129	C	0.852950	-0.725337	-0.533690
C130	C	0.904689	-0.754598	-0.482152
H131	H	0.788407	-0.859227	-0.371289
H132	H	0.698367	-0.808305	-0.460978
H133	H	0.739355	-0.723277	-0.564113
H134	H	0.870387	-0.689167	-0.577562
H135	H	0.960427	-0.740089	-0.487873
H136	H	1.056632	-0.443836	-0.712731
H137	H	0.864187	-0.903940	-0.295555
H138	H	1.092028	-0.810827	-0.356819
C139	C	1.069043	-0.457356	-0.930151
C140	C	1.116638	-0.509587	-0.969029
C141	C	1.164223	-0.561848	-0.930154
C142	C	1.164213	-0.561878	-0.852401
C143	C	1.116616	-0.509644	-0.813518
C144	C	1.069031	-0.457383	-0.852394
H145	H	1.116647	-0.509567	-1.026590
H146	H	1.199457	-0.600514	-0.958938
H147	H	1.199438	-0.600564	-0.823623
H148	H	1.116607	-0.509665	-0.755957
H149	H	1.033797	-0.418717	-0.823610
H150	H	0.592193	-0.444043	-0.404545
C151	C	0.226327	-0.257909	-0.235434
C152	C	0.148574	-0.257920	-0.235440
C153	C	0.109694	-0.205607	-0.187914
C154	C	0.148568	-0.153284	-0.140383
C155	C	0.226325	-0.153271	-0.140376
C156	C	0.265205	-0.205584	-0.187902
H157	H	0.119794	-0.296654	-0.270627
H158	H	0.052133	-0.205617	-0.187920
H159	H	0.119786	-0.114559	-0.105202
H160	H	0.255105	-0.114536	-0.105189
H161	H	0.322766	-0.205574	-0.187896
H162	H	1.008582	-0.903679	-0.440167
C163	C	0.582097	-0.257890	-0.235402
C164	C	0.504344	-0.257895	-0.235402
C165	C	0.465470	-0.205586	-0.187868
C166	C	0.504349	-0.153272	-0.140334
C167	C	0.582107	-0.153265	-0.140332
C168	C	0.620981	-0.205573	-0.187866
H169	H	0.475559	-0.296623	-0.270591
H170	H	0.407909	-0.205592	-0.187870
H171	H	0.475573	-0.114550	-0.105146
H172	H	0.610892	-0.114536	-0.105143
H173	H	0.678542	-0.205568	-0.187864
C174	C	0.887281	-0.257938	-0.574394
C175	C	0.839700	-0.205685	-0.613276
C176	C	0.792102	-0.153445	-0.574405
C177	C	0.792085	-0.153458	-0.496651
C178	C	0.839668	-0.205714	-0.457765
C179	C	0.887266	-0.257954	-0.496637
H180	H	0.839711	-0.205673	-0.670837
H181	H	0.756878	-0.114762	-0.603191
H182	H	0.756850	-0.114787	-0.467876
H183	H	0.839656	-0.205725	-0.400204
H184	H	0.922489	-0.296637	-0.467850
H185	H	0.899661	-0.271482	-0.712731
