data_functionalizedCrystal
_audit_creation_method	'MofGen! by Chris Wilmer'
_symmetry_space_group_name_H-M	'P1'
_symmetry_Int_Tables_number	1
_symmetry_cell_setting	triclinic
loop_
_symmetry_equiv_pos_as_xyz
  x,y,z
_cell_length_a	16.625546
_cell_length_b	25.639242
_cell_length_c	16.625539
_cell_angle_alpha	89.972728
_cell_angle_beta	90.028532
_cell_angle_gamma	89.982506
loop_
_atom_site_label
_atom_site_type_symbol
_atom_site_fract_x
_atom_site_fract_y
_atom_site_fract_z
Zn1	Zn	-0.321122	-0.799303	0.456117
Zn2	Zn	0.012211	-0.465970	0.789451
Zn3	Zn	0.345545	-0.132636	1.122784
Zn4	Zn	-0.455961	-0.799246	0.321280
Zn5	Zn	-0.122627	-0.465912	0.654613
Zn6	Zn	0.210706	-0.132579	0.987946
Zn7	Zn	-0.321134	-0.711874	0.321274
Zn8	Zn	0.012199	-0.378540	0.654607
Zn9	Zn	0.345533	-0.045207	0.987941
Zn10	Zn	-0.455905	-0.711849	0.456045
Zn11	Zn	-0.122571	-0.378516	0.789379
Zn12	Zn	0.210762	-0.045182	1.122712
O13	O	-0.388530	-0.755568	0.388679
O14	O	-0.055197	-0.422235	0.722012
O15	O	0.278136	-0.088901	1.055346
O16	O	-0.339027	-0.872461	0.438263
O17	O	-0.005694	-0.539127	0.771597
O18	O	0.327640	-0.205794	1.104930
O19	O	-0.438104	-0.787642	0.208446
O20	O	-0.104771	-0.454308	0.541780
O21	O	0.228563	-0.120975	0.875113
O22	O	-0.208300	-0.723506	0.339189
O23	O	0.125033	-0.390172	0.672522
O24	O	0.458367	-0.056839	1.005855
O25	O	-0.438092	-0.872418	0.339199
O26	O	-0.104759	-0.539085	0.672532
O27	O	0.228574	-0.205752	1.005865
O28	O	-0.208291	-0.787740	0.438258
O29	O	0.125042	-0.454406	0.771591
O30	O	0.458376	-0.121073	1.104924
O31	O	-0.339048	-0.723450	0.208442
O32	O	-0.005714	-0.390117	0.541776
O33	O	0.327619	-0.056783	0.875109
O34	O	-0.338993	-0.638705	0.339119
O35	O	-0.005660	-0.305372	0.672452
O36	O	0.327673	0.027961	1.005786
O37	O	-0.437997	-0.723464	0.568887
O38	O	-0.104663	-0.390131	0.902221
O39	O	0.228670	-0.056797	1.235554
O40	O	-0.438009	-0.638687	0.438135
O41	O	-0.104675	-0.305354	0.771469
O42	O	0.228658	0.027979	1.104802
O43	O	-0.338973	-0.787716	0.568940
O44	O	-0.005639	-0.454382	0.902274
O45	O	0.327694	-0.121049	1.235607
O46	O	-0.568786	-0.787618	0.339129
O47	O	-0.235452	-0.454285	0.672462
O48	O	0.097881	-0.120951	1.005796
O49	O	-0.568744	-0.723408	0.438141
O50	O	-0.235411	-0.390075	0.771474
O51	O	0.097922	-0.056742	1.104808
C52	C	-0.388497	-0.619725	0.388619
C53	C	-0.055163	-0.286392	0.721953
C54	C	0.278170	0.046941	1.055286
C55	C	-0.388502	-0.561611	0.388613
C56	C	-0.055168	-0.228278	0.721946
C57	C	0.278165	0.105055	1.055279
C58	C	-0.598021	-0.755518	0.388645
C59	C	-0.264688	-0.422185	0.721979
C60	C	0.068645	-0.088852	1.055312
C61	C	-0.687642	-0.755545	0.388658
C62	C	-0.354309	-0.422212	0.721991
C63	C	-0.020976	-0.088878	1.055325
C64	C	-1.015818	-0.755636	0.388742
C65	C	-0.682484	-0.422303	0.722075
C66	C	-0.349151	-0.088970	1.055409
C67	C	-0.924509	-0.755609	0.388721
C68	C	-0.591176	-0.422276	0.722054
C69	C	-0.257843	-0.088943	1.055387
C70	C	-0.851733	-0.755590	0.388699
C71	C	-0.518400	-0.422257	0.722033
C72	C	-0.185066	-0.088924	1.055366
C73	C	-0.760419	-0.755564	0.388679
C74	C	-0.427085	-0.422231	0.722012
C75	C	-0.093752	-0.088897	1.055346
C76	C	-0.440166	-0.201248	0.440167
C77	C	-0.106833	0.132086	0.773500
C78	C	0.226500	0.465419	1.106833
C79	C	-0.440170	-0.146643	0.440177
C80	C	-0.106837	0.186690	0.773511
C81	C	0.226496	0.520023	1.106844
O82	O	-0.484062	-0.118406	0.483975
O83	O	-0.150728	0.214927	0.817308
O84	O	0.182605	0.548260	1.150641
N85	N	-0.388544	-0.119329	0.388707
N86	N	-0.055211	0.214005	0.722041
N87	N	0.278123	0.547338	1.055374
C88	C	-0.336904	-0.146621	0.337229
C89	C	-0.003571	0.186712	0.670562
C90	C	0.329763	0.520045	1.003896
O91	O	-0.292991	-0.118374	0.293451
O92	O	0.040342	0.214959	0.626785
O93	O	0.373675	0.548293	0.960118
C94	C	-0.336896	-0.201225	0.337223
C95	C	-0.003563	0.132109	0.670556
C96	C	0.329770	0.465442	1.003890
C97	C	-0.388532	-0.228536	0.388691
C98	C	-0.055199	0.104797	0.722024
C99	C	0.278135	0.438130	1.055357
C100	C	-0.491797	-0.228560	0.491631
C101	C	-0.158464	0.104774	0.824964
C102	C	0.174870	0.438107	1.158297
C103	C	-0.491794	-0.283160	0.491619
C104	C	-0.158460	0.050173	0.824952
C105	C	0.174873	0.383507	1.158285
C106	C	-0.440160	-0.310449	0.440143
C107	C	-0.106826	0.022885	0.773476
C108	C	0.226507	0.356218	1.106809
C109	C	-0.388529	-0.283137	0.388679
C110	C	-0.055195	0.050196	0.722012
C111	C	0.278138	0.383530	1.055345
C112	C	-0.285253	-0.228516	0.285750
C113	C	0.048080	0.104817	0.619083
C114	C	0.381414	0.438150	0.952416
C115	C	-0.285249	-0.283123	0.285748
C116	C	0.048084	0.050210	0.619082
C117	C	0.381417	0.383543	0.952415
C118	C	-0.336885	-0.310435	0.337216
C119	C	-0.003552	0.022898	0.670549
C120	C	0.329782	0.356232	1.003883
C121	C	-0.336891	-0.365026	0.337191
C122	C	-0.003558	-0.031693	0.670524
C123	C	0.329775	0.301640	1.003858
N124	N	-0.388518	-0.392341	0.388661
N125	N	-0.055184	-0.059007	0.721994
N126	N	0.278149	0.274326	1.055328
C127	C	-0.440152	-0.365052	0.440137
C128	C	-0.106819	-0.031719	0.773470
C129	C	0.226515	0.301615	1.106804
C130	C	-0.336923	-0.031951	0.337246
C131	C	-0.003590	0.301383	0.670580
C132	C	0.329744	0.634716	1.003913
C133	C	-0.336934	0.022652	0.337248
C134	C	-0.003601	0.355985	0.670581
C135	C	0.329732	0.689318	1.003914
C136	C	-0.440200	0.022626	0.440197
C137	C	-0.106866	0.355959	0.773530
C138	C	0.226467	0.689292	1.106864
C139	C	-0.440192	-0.031978	0.440191
C140	C	-0.106859	0.301356	0.773525
C141	C	0.226475	0.634689	1.106858
C142	C	-0.388550	-0.059265	0.388716
C143	C	-0.055216	0.274068	0.722050
C144	C	0.278117	0.607401	1.055383
C145	C	-0.440142	-0.479717	0.440107
C146	C	-0.106808	-0.146384	0.773441
C147	C	0.226525	0.186949	1.106774
C148	C	-0.440136	-0.534323	0.440089
C149	C	-0.106803	-0.200989	0.773422
C150	C	0.226531	0.132344	1.106755
C151	C	-0.336868	-0.534292	0.337143
C152	C	-0.003534	-0.200959	0.670476
C153	C	0.329799	0.132375	1.003809
C154	C	-0.336876	-0.479691	0.337158
C155	C	-0.003543	-0.146358	0.670491
C156	C	0.329791	0.186975	1.003825
C157	C	-0.388516	-0.452405	0.388647
C158	C	-0.055182	-0.119072	0.721980
C159	C	0.278151	0.214261	1.055314
O160	O	-0.293020	-0.393298	0.293418
O161	O	0.040313	-0.059965	0.626752
O162	O	0.373647	0.273369	0.960085
O163	O	-0.484050	-0.393306	0.483915
O164	O	-0.150716	-0.059973	0.817248
O165	O	0.182617	0.273361	1.150581
C166	C	-0.178221	-0.755632	0.388731
C167	C	0.155112	-0.422298	0.722064
C168	C	0.488445	-0.088965	1.055397
C169	C	-0.088600	-0.755659	0.388753
C170	C	0.244733	-0.422326	0.722086
C171	C	0.578066	-0.088992	1.055419
C172	C	-0.388477	-0.755593	0.598988
C173	C	-0.055144	-0.422260	0.932321
C174	C	0.278190	-0.088927	1.265655
C175	C	-0.388454	-0.755604	0.688609
C176	C	-0.055121	-0.422271	1.021943
C177	C	0.278212	-0.088938	1.355276
C178	C	-0.388561	0.108059	0.388730
C179	C	-0.055228	0.441392	0.722063
C180	C	0.278105	0.774726	1.055397
C181	C	-0.388566	0.049945	0.388727
C182	C	-0.055232	0.383278	0.722060
C183	C	0.278101	0.716612	1.055394
C184	C	-0.388525	-0.755572	0.179188
C185	C	-0.055192	-0.422239	0.512522
C186	C	0.278142	-0.088906	0.845855
C187	C	-0.388321	-0.755663	0.089568
C188	C	-0.054987	-0.422329	0.422901
C189	C	0.278346	-0.088996	0.756234
C190	C	-0.388437	-0.755613	0.761392
C191	C	-0.055103	-0.422280	1.094725
C192	C	0.278230	-0.088946	1.428058
C193	C	-0.388407	-0.755625	0.852700
C194	C	-0.055073	-0.422292	1.186034
C195	C	0.278260	-0.088958	1.519367
C196	C	-0.388378	-0.755637	0.925477
C197	C	-0.055045	-0.422304	1.258810
C198	C	0.278288	-0.088971	1.592143
C199	C	-0.388349	-0.755650	1.016791
C200	C	-0.055016	-0.422317	1.350124
C201	C	0.278318	-0.088984	1.683458
H202	H	-0.482187	-0.556557	0.482000
H203	H	-0.148854	-0.223224	0.815334
H204	H	0.184480	0.110109	1.148667
H205	H	-0.294832	-0.457453	0.295247
H206	H	0.038502	-0.124120	0.628581
H207	H	0.371835	0.209214	0.961914
H208	H	-0.482190	-0.457507	0.482037
H209	H	-0.148856	-0.124174	0.815370
H210	H	0.184477	0.209159	1.148703
Br211	Br	-0.561871	-0.320218	0.561475
Br212	Br	-0.228538	0.013116	0.894808
Br213	Br	0.104796	0.346449	1.228142
Br214	Br	-0.266835	-0.068979	0.267376
Br215	Br	0.066499	0.264355	0.600709
Br216	Br	0.399832	0.597688	0.934043
Br217	Br	-0.561881	-0.191535	0.561502
Br218	Br	-0.228548	0.141798	0.894835
Br219	Br	0.104786	0.475132	1.228168
Br220	Br	-0.215167	-0.191464	0.215901
Br221	Br	0.118167	0.141869	0.549234
Br222	Br	0.451500	0.475203	0.882567
Br223	Br	-0.266867	0.059711	0.267383
Br224	Br	0.066466	0.393044	0.600716
Br225	Br	0.399799	0.726378	0.934050
H226	H	-0.243190	-0.305338	0.243835
H227	H	0.090143	0.027995	0.577169
H228	H	0.423477	0.361329	0.910502
H229	H	-0.294831	-0.556520	0.295230
H230	H	0.038502	-0.223187	0.628563
H231	H	0.371836	0.110146	0.961896
H232	H	-0.482237	-0.054211	0.482102
H233	H	-0.148904	0.279122	0.815435
H234	H	0.184429	0.612455	1.148769
Br235	Br	-0.510269	0.059671	0.510065
Br236	Br	-0.176936	0.393004	0.843398
Br237	Br	0.156398	0.726338	1.176732
