data_functionalizedCrystal
_audit_creation_method	'MofGen! by Chris Wilmer'
_symmetry_space_group_name_H-M	'P1'
_symmetry_Int_Tables_number	1
_symmetry_cell_setting	triclinic
loop_
_symmetry_equiv_pos_as_xyz
  x,y,z
_cell_length_a	15.995343
_cell_length_b	19.188924
_cell_length_c	15.072220
_cell_angle_alpha	89.996779
_cell_angle_beta	89.991823
_cell_angle_gamma	83.315574
loop_
_atom_site_label
_atom_site_type_symbol
_atom_site_fract_x
_atom_site_fract_y
_atom_site_fract_z
O1	O	1.110668	0.089966	-0.073698
O2	O	0.866851	0.101085	-0.073719
O3	O	0.995798	-0.006113	-0.073697
O4	O	0.981720	0.197164	-0.073720
O5	O	0.995766	-0.006107	0.073868
O6	O	0.866819	0.101091	0.073846
O7	O	1.110636	0.089972	0.073867
Zn8	Zn	0.988722	0.095532	0.097286
Zn9	Zn	0.988764	0.095524	-0.097138
O10	O	0.981688	0.197170	0.073845
C11	C	0.835642	0.100629	0.000060
C12	C	0.742696	0.099254	0.000053
C13	C	0.572519	0.096758	0.000065
C14	C	0.549459	0.019377	0.000073
C15	C	0.452786	0.017921	0.000413
C16	C	0.404968	0.094299	0.000076
C17	C	0.433898	0.133210	0.084171
C18	C	0.530687	0.134128	0.084236
C19	C	0.530629	0.135254	-0.083579
C20	C	0.434145	0.132398	-0.084679
C21	C	0.310275	0.092914	0.000085
C22	C	0.667211	0.098145	0.000061
C23	C	0.995327	-0.032122	0.000086
C24	C	0.993962	-0.109630	0.000088
C25	C	0.993342	-0.146034	-0.080350
C26	C	0.992047	-0.218860	-0.080357
C27	C	0.991388	-0.255281	0.000079
C28	C	0.992004	-0.218868	0.080528
C29	C	0.993291	-0.146043	0.080532
N30	N	1.037004	-0.374827	0.059950
N31	N	1.035783	-0.444008	0.059940
C32	C	0.987510	-0.474700	0.000070
N33	N	0.940514	-0.433598	-0.059803
N34	N	0.941738	-0.364411	-0.059796
C35	C	0.989993	-0.334248	0.000083
C36	C	0.985485	-0.590070	-0.080381
C37	C	0.984184	-0.662897	-0.080384
C38	C	0.984150	-0.662905	0.080502
C39	C	0.985442	-0.590078	0.080503
C40	C	0.986113	-0.553666	0.000059
C41	C	1.141845	0.090428	0.000086
C42	C	1.234791	0.091803	0.000088
C43	C	0.982159	0.223179	0.000060
C44	C	0.983525	0.300687	0.000052
N45	N	0.988700	0.095537	0.229975
N46	N	0.988793	0.095514	-0.229826
C47	C	0.988763	0.095522	0.589176
C48	C	0.919535	0.152689	0.551557
C49	C	0.919692	0.152897	0.448732
C50	C	0.988731	0.095529	0.410972
C51	C	1.076037	0.111439	0.448269
C52	C	1.075649	0.111845	0.551127
C53	C	0.971463	0.022276	0.551282
C54	C	0.969457	0.022764	0.448419
C55	C	0.988718	0.095532	0.310259
C56	C	0.988781	0.095520	0.689889
H57	H	0.578539	-0.010125	0.060295
H58	H	0.986026	-0.560421	-0.145883
H59	H	0.854419	0.143366	0.576314
C60	C	0.428006	-0.023015	0.082349
N61	N	0.409343	-0.053844	0.144072
C62	C	0.934211	0.225708	0.586456
N63	N	0.945268	0.280705	0.612743
C64	C	0.566990	0.098151	0.169488
N65	N	0.594330	0.071049	0.233701
C66	C	0.389369	0.207696	-0.091884
N67	N	0.355645	0.264414	-0.097303
C68	C	0.934583	0.226328	0.415469
N69	N	0.945804	0.281638	0.390417
C70	C	0.550093	0.210787	0.089077
N71	N	0.564707	0.268526	0.092729
H72	H	0.905235	0.010690	0.424042
C73	C	1.033191	-0.037399	0.413719
N74	N	1.081208	-0.082712	0.387590
C75	C	0.993978	-0.105998	0.169024
N76	N	0.994498	-0.075836	0.235678
H77	H	0.991537	-0.248505	-0.145861
H78	H	1.021951	-0.020266	0.575609
H79	H	0.985954	-0.560439	0.146005
H80	H	0.433892	-0.012538	-0.059857
C81	C	0.568955	0.102265	-0.169719
N82	N	0.597823	0.077409	-0.234596
C83	C	1.147281	0.056687	0.415223
N84	N	1.200941	0.015447	0.390331
H85	H	0.544432	0.192211	-0.084396
C86	C	1.097185	0.182787	0.413463
N87	N	1.113108	0.236529	0.387252
C88	C	0.983544	-0.702945	-0.168877
N89	N	0.983080	-0.733112	-0.235532
C90	C	0.409227	0.094121	-0.168731
N91	N	0.390452	0.065290	-0.232037
H92	H	1.090934	0.165263	0.575104
H93	H	0.983608	-0.692557	0.145995
H94	H	0.577590	-0.010618	-0.060223
C95	C	0.994072	-0.105984	-0.168841
N96	N	0.994620	-0.075817	-0.235493
C97	C	0.832004	0.140105	0.414664
N98	N	0.765951	0.130474	0.389009
H99	H	0.401843	0.189422	0.087056
H100	H	1.128758	0.071849	0.576010
H101	H	0.909197	0.006977	0.577269
H102	H	0.413891	0.106517	0.146998
H103	H	0.991466	-0.248527	0.146019
