data_functionalizedCrystal
_audit_creation_method	'MofGen! by Chris Wilmer'
_symmetry_space_group_name_H-M	'P1'
_symmetry_Int_Tables_number	1
_symmetry_cell_setting	triclinic
loop_
_symmetry_equiv_pos_as_xyz
  x,y,z
_cell_length_a	14.519731
_cell_length_b	10.540514
_cell_length_c	12.996460
_cell_angle_alpha	89.997025
_cell_angle_beta	89.994327
_cell_angle_gamma	84.102006
loop_
_atom_site_label
_atom_site_type_symbol
_atom_site_fract_x
_atom_site_fract_y
_atom_site_fract_z
O1	O	1.224743	0.166531	-0.085562
O2	O	1.724743	0.666531	0.414438
O3	O	0.956373	0.186098	-0.085562
O4	O	1.456373	0.686098	0.414438
O5	O	1.096693	-0.008456	-0.085563
O6	O	1.596693	0.491544	0.414437
O7	O	1.084423	0.361085	-0.085561
O8	O	1.584423	0.861085	0.414439
O9	O	1.096678	-0.008467	0.085570
O10	O	1.596678	0.491533	0.585570
O11	O	0.956358	0.186087	0.085571
O12	O	1.456358	0.686087	0.585571
O13	O	1.224728	0.166520	0.085572
O14	O	1.724728	0.666520	0.585572
Cu15	Cu	1.090542	0.176303	0.101198
Cu16	Cu	1.590542	0.676303	0.601198
Cu17	Cu	1.090559	0.176316	-0.101188
Cu18	Cu	1.590559	0.676316	0.398812
O19	O	1.084408	0.361074	0.085573
O20	O	1.584408	0.861074	0.585573
C21	C	0.922001	0.185176	0.000004
C22	C	1.422001	0.685176	0.500004
C23	C	0.819606	0.182429	0.000004
C24	C	1.319606	0.682429	0.500004
C25	C	1.095770	-0.055756	0.000001
C26	C	1.595770	0.444244	0.500001
C27	C	1.093032	-0.196678	-0.000007
C28	C	1.593032	0.303322	0.499993
C29	C	0.736450	0.180196	-0.000000
C30	C	1.236450	0.680196	0.500000
C31	C	0.632127	0.177407	-0.000001
C32	C	1.132127	0.677407	0.499999
C33	C	0.548976	0.175193	-0.000001
C34	C	1.048976	0.675193	0.499999
C35	C	0.444646	0.172404	-0.000003
C36	C	0.944646	0.672404	0.499997
C37	C	1.193387	-0.268397	-0.000004
C38	C	1.693387	0.231603	0.499996
C39	C	1.190572	-0.414982	0.000392
C40	C	1.690572	0.085018	0.500392
C41	C	1.038446	-0.388468	0.097537
C42	C	1.538446	0.111532	0.597537
C43	C	1.041972	-0.241964	0.097612
C44	C	1.541972	0.258036	0.597612
C45	C	1.040503	-0.241538	-0.097006
C46	C	1.540503	0.258462	0.402994
C47	C	1.039535	-0.388507	-0.098281
C48	C	1.539535	0.111493	0.401719
C49	C	1.259100	0.167442	0.000003
C50	C	1.759100	0.667442	0.500003
C51	C	1.361495	0.170190	-0.000003
C52	C	1.861495	0.670190	0.499997
C53	C	1.085331	0.408374	0.000006
C54	C	1.585331	0.908374	0.500006
C55	C	1.088069	0.549296	0.000007
C56	C	1.588069	1.049296	0.500007
N57	N	1.090536	0.176293	0.243545
N58	N	1.590536	0.676293	0.743545
N59	N	1.090572	0.176315	-0.243535
N60	N	1.590572	0.676315	0.256465
C61	C	1.090558	0.176317	0.663359
C62	C	1.590558	0.676317	1.163359
C63	C	1.090549	0.176314	0.546554
C64	C	1.590549	0.676314	1.046554
C65	C	1.090548	0.176306	0.453456
C66	C	1.590548	0.676306	0.953456
C67	C	1.090538	0.176302	0.336643
C68	C	1.590538	0.676302	0.836643
H69	H	1.229603	-0.458037	-0.069505
H70	H	1.729603	0.041963	0.430495
H71	H	1.233524	-0.238489	0.069782
H72	H	1.733524	0.261511	0.569782
H73	H	0.968253	-0.193214	0.101771
H74	H	1.468253	0.306786	0.601771
H75	H	1.072480	-0.431373	0.170397
H76	H	1.572480	0.068627	0.670397
Cl77	Cl	1.256254	-0.224974	-0.107974
Cl78	Cl	1.756254	0.275026	0.392026
Cl79	Cl	1.250553	-0.480032	0.108972
Cl80	Cl	1.750553	0.019968	0.608972
H81	H	1.078201	-0.214109	0.170797
H82	H	1.578201	0.285891	0.670797
Cl83	Cl	0.922208	-0.421741	0.102717
Cl84	Cl	1.422208	0.078259	0.602717
H85	H	1.073914	-0.210375	-0.170954
H86	H	1.573914	0.289625	0.329046
H87	H	1.075800	-0.429866	-0.170435
H88	H	1.575800	0.070134	0.329565
Cl89	Cl	0.924216	-0.424816	-0.107897
Cl90	Cl	1.424216	0.075184	0.392103
H91	H	0.966476	-0.193550	-0.097939
H92	H	1.466476	0.306450	0.402061
