data_functionalizedCrystal
_audit_creation_method	'MofGen! by Chris Wilmer'
_symmetry_space_group_name_H-M	'P1'
_symmetry_Int_Tables_number	1
_symmetry_cell_setting	triclinic
loop_
_symmetry_equiv_pos_as_xyz
  x,y,z
_cell_length_a	17.038272
_cell_length_b	15.995350
_cell_length_c	14.472310
_cell_angle_alpha	90.009379
_cell_angle_beta	89.999298
_cell_angle_gamma	92.698034
loop_
_atom_site_label
_atom_site_type_symbol
_atom_site_fract_x
_atom_site_fract_y
_atom_site_fract_z
O1	O	0.100774	-1.118175	-0.076763
O2	O	0.434107	-0.784842	0.256570
O3	O	0.767441	-0.451508	0.589903
O4	O	0.113219	-0.875286	-0.076782
O5	O	0.446552	-0.541953	0.256551
O6	O	0.779885	-0.208619	0.589884
O7	O	-0.006819	-0.995287	-0.076766
O8	O	0.326514	-0.661954	0.256568
O9	O	0.659847	-0.328620	0.589901
O10	O	0.220812	-0.998174	-0.076780
O11	O	0.554145	-0.664841	0.256553
O12	O	0.887479	-0.331507	0.589887
O13	O	-0.006812	-0.995254	0.076916
O14	O	0.326521	-0.661921	0.410250
O15	O	0.659854	-0.328588	0.743583
O16	O	0.113226	-0.875253	0.076900
O17	O	0.446559	-0.541920	0.410233
O18	O	0.779892	-0.208587	0.743566
O19	O	0.100781	-1.118142	0.076919
O20	O	0.434114	-0.784809	0.410252
O21	O	0.767448	-0.451476	0.743585
Cu22	Cu	0.107004	-0.996695	0.090942
Cu23	Cu	0.440337	-0.663362	0.424275
Cu24	Cu	0.773671	-0.330028	0.757608
Cu25	Cu	0.106996	-0.996733	-0.090805
Cu26	Cu	0.440329	-0.663400	0.242528
Cu27	Cu	0.773662	-0.330067	0.575862
O28	O	0.220819	-0.998141	0.076902
O29	O	0.554152	-0.664808	0.410235
O30	O	0.887486	-0.331475	0.743569
C31	C	0.112708	-0.844038	0.000056
C32	C	0.446041	-0.510705	0.333390
C33	C	0.779374	-0.177372	0.666723
C34	C	0.111165	-0.750978	0.000049
C35	C	0.444499	-0.417645	0.333383
C36	C	0.777832	-0.084311	0.666716
C37	C	-0.035945	-0.992645	0.000075
C38	C	0.297389	-0.659311	0.333408
C39	C	0.630722	-0.325978	0.666742
C40	C	-0.122740	-0.984810	0.000074
C41	C	0.210594	-0.651477	0.333408
C42	C	0.543927	-0.318144	0.666741
C43	C	0.101292	-1.149390	0.000078
C44	C	0.434625	-0.816057	0.333411
C45	C	0.767959	-0.482723	0.666745
C46	C	0.102834	-1.242450	0.000079
C47	C	0.436168	-0.909117	0.333413
C48	C	0.769501	-0.575784	0.666746
C49	C	-0.172836	-1.056739	0.000081
C50	C	0.160497	-0.723406	0.333414
C51	C	0.493831	-0.390072	0.666748
C52	C	-0.254389	-1.049373	0.000072
C53	C	0.078945	-0.716039	0.333405
C54	C	0.412278	-0.382706	0.666738
C55	C	-0.285843	-0.970077	0.000062
C56	C	0.047491	-0.636744	0.333396
C57	C	0.380824	-0.303411	0.666729
C58	C	-0.235740	-0.898143	0.000053
C59	C	0.097594	-0.564810	0.333386
C60	C	0.430927	-0.231477	0.666719
C61	C	-0.154189	-0.905510	0.000056
C62	C	0.179144	-0.572177	0.333389
C63	C	0.512478	-0.238844	0.666722
C64	C	-0.531607	-0.944051	0.000047
C65	C	-0.198274	-0.610718	0.333381
C66	C	0.135060	-0.277384	0.666714
C67	C	-0.613164	-0.936689	0.000048
C68	C	-0.279831	-0.603356	0.333381
C69	C	0.053502	-0.270023	0.666714
C70	C	-0.631807	-1.087920	0.000065
C71	C	-0.298474	-0.754586	0.333398
C72	C	0.034859	-0.421253	0.666731
C73	C	-0.550254	-1.095280	0.000073
C74	C	-0.216921	-0.761946	0.333406
C75	C	0.116412	-0.428613	0.666740
C76	C	-0.500158	-1.023346	0.000059
C77	C	-0.166825	-0.690012	0.333392
C78	C	0.166508	-0.356679	0.666725
C79	C	-0.369202	-0.962546	0.000056
C80	C	-0.035869	-0.629213	0.333389
C81	C	0.297465	-0.295879	0.666722
C82	C	-0.416801	-1.030878	0.000059
C83	C	-0.083467	-0.697544	0.333392
C84	C	0.249866	-0.364211	0.666725
C85	C	0.249944	-1.000784	0.000059
C86	C	0.583278	-0.667450	0.333393
C87	C	0.916611	-0.334117	0.666726
C88	C	0.336739	-1.008618	0.000054
C89	C	0.670073	-0.675285	0.333387
C90	C	1.003406	-0.341951	0.666721
N91	N	0.107009	-0.996674	0.218773
N92	N	0.440343	-0.663341	0.552106
N93	N	0.773676	-0.330007	0.885439
C94	C	0.105626	-0.412836	0.000069
C95	C	0.438959	-0.079503	0.333402
C96	C	0.772293	0.253831	0.666735
C97	C	0.020137	-0.454180	0.000417
C98	C	0.353470	-0.120847	0.333750
C99	C	0.686804	0.212486	0.667084
C100	C	0.021680	-0.550981	0.000064
C101	C	0.355013	-0.217647	0.333397
C102	C	0.688346	0.115686	0.666731
C103	C	0.108374	-0.580592	0.000060
C104	C	0.441707	-0.247259	0.333393
C105	C	0.775040	0.086074	0.666726
C106	C	0.150536	-0.542527	-0.087699
C107	C	0.483869	-0.209194	0.245634
C108	C	0.817202	0.124139	0.578967
C109	C	0.148388	-0.445739	-0.087766
C110	C	0.481721	-0.112405	0.245567
C111	C	0.815055	0.220928	0.578900
C112	C	0.150162	-0.445488	0.086999
C113	C	0.483496	-0.112155	0.420332
C114	C	0.816829	0.221178	0.753666
C115	C	0.150142	-0.542432	0.088152
C116	C	0.483475	-0.209099	0.421486
C117	C	0.816809	0.124234	0.754819
C118	C	0.109931	-0.675401	0.000051
C119	C	0.443264	-0.342067	0.333385
C120	C	0.776598	-0.008734	0.666718
C121	C	0.104071	-0.318027	0.000071
C122	C	0.437405	0.015306	0.333404
C123	C	0.770738	0.348639	0.666738
N124	N	0.106984	-0.996761	-0.218636
N125	N	0.440318	-0.663427	0.114697
N126	N	0.773651	-0.330094	0.448031
C127	C	0.106993	-0.996732	0.592864
C128	C	0.440326	-0.663399	0.926197
C129	C	0.773659	-0.330065	1.259530
C130	C	0.171007	-0.932276	0.553689
C131	C	0.504340	-0.598943	0.887022
C132	C	0.837674	-0.265609	1.220356
C133	C	0.171241	-0.932452	0.446601
C134	C	0.504574	-0.599118	0.779934
C135	C	0.837907	-0.265785	1.113268
C136	C	0.107001	-0.996702	0.407273
C137	C	0.440334	-0.663369	0.740606
C138	C	0.773668	-0.330036	1.073939
C139	C	0.124819	-1.085336	0.446115
C140	C	0.458152	-0.752003	0.779449
C141	C	0.791486	-0.418670	1.112782
C142	C	0.125274	-1.084981	0.553237
C143	C	0.458607	-0.751648	0.886570
C144	C	0.791941	-0.418314	1.219904
C145	C	0.024970	-0.973320	0.553397
C146	C	0.358303	-0.639987	0.886730
C147	C	0.691637	-0.306654	1.220063
C148	C	0.025517	-0.971356	0.446269
C149	C	0.358850	-0.638022	0.779602
C150	C	0.692184	-0.304689	1.112936
C151	C	0.107004	-0.996691	0.302385
C152	C	0.440337	-0.663358	0.635718
C153	C	0.773671	-0.330024	0.969051
C154	C	0.106991	-0.996749	0.697752
C155	C	0.440324	-0.663416	1.031085
C156	C	0.773658	-0.330083	1.364419
H157	H	-0.147233	-1.121310	0.000094
H158	H	0.186100	-0.787976	0.333428
H159	H	0.519434	-0.454643	0.666761
F160	F	-0.307702	-1.125930	0.000080
F161	F	0.025631	-0.792596	0.333414
F162	F	0.358965	-0.459263	0.666747
F163	F	-0.516785	-1.179677	0.000059
F164	F	-0.183451	-0.846343	0.333393
F165	F	0.149882	-0.513010	0.666726
H166	H	-0.014032	-0.433211	0.063353
H167	H	0.319301	-0.099877	0.396686
H168	H	0.652634	0.233456	0.730019
F169	F	-0.478302	-0.867491	0.000030
F170	F	-0.144968	-0.534158	0.333363
F171	F	0.188365	-0.200825	0.666697
H172	H	-0.261356	-0.833579	0.000039
H173	H	0.071977	-0.500246	0.333373
H174	H	0.405311	-0.166912	0.666706
H175	H	-0.672604	-1.146484	0.000074
H176	H	-0.339270	-0.813151	0.333408
H177	H	-0.005937	-0.479817	0.666741
H178	H	-0.638770	-0.872114	0.000055
H179	H	-0.305437	-0.538781	0.333388
H180	H	0.027896	-0.205448	0.666722
H181	H	-0.113400	-0.846938	0.000050
H182	H	0.219933	-0.513605	0.333383
H183	H	0.553266	-0.180271	0.666717
F184	F	-0.024331	-0.425416	-0.081380
F185	F	0.309002	-0.092083	0.251954
F186	F	0.642335	0.241250	0.585287
H187	H	-0.391187	-1.095440	0.000046
H188	H	-0.057854	-0.762107	0.333379
H189	H	0.275480	-0.428773	0.666712
H190	H	-0.394821	-0.897983	0.000050
H191	H	-0.061488	-0.564650	0.333383
H192	H	0.271845	-0.231316	0.666717
F193	F	-0.021762	-0.584295	-0.082432
F194	F	0.311571	-0.250962	0.250902
F195	F	0.644904	0.082372	0.584235
H196	H	-0.011462	-0.577035	0.062974
H197	H	0.321871	-0.243702	0.396307
H198	H	0.655205	0.089631	0.729640
F199	F	0.108192	-0.418961	-0.173508
F200	F	0.441526	-0.085628	0.159826
F201	F	0.774859	0.247706	0.493159
F202	F	0.112253	-0.576903	-0.173065
F203	F	0.445586	-0.243570	0.160269
F204	F	0.778920	0.089763	0.493602
F205	F	0.233779	-0.566939	-0.091987
F206	F	0.567113	-0.233606	0.241347
F207	F	0.900446	0.099728	0.574680
H208	H	0.211153	-0.417962	-0.091752
H209	H	0.544486	-0.084628	0.241581
H210	H	0.877819	0.248705	0.574915
F211	F	0.113634	-0.416031	0.173945
F212	F	0.446967	-0.082697	0.507278
F213	F	0.780301	0.250636	0.840612
F214	F	0.109850	-0.575165	0.173012
F215	F	0.443183	-0.241832	0.506345
F216	F	0.776517	0.091501	0.839679
H217	H	0.213362	-0.562300	0.093450
H218	H	0.546696	-0.228966	0.426783
H219	H	0.880029	0.104367	0.760116
H220	H	0.213193	-0.418217	0.087589
H221	H	0.546526	-0.084883	0.420922
H222	H	0.879859	0.248450	0.754256
H223	H	0.160625	-0.866756	0.420341
H224	H	0.493958	-0.533423	0.753674
H225	H	0.827291	-0.200089	1.087007
H226	H	0.160566	-0.866382	0.579472
H227	H	0.493899	-0.533049	0.912806
H228	H	0.827232	-0.199716	1.246139
F229	F	0.250121	-0.952380	0.588842
F230	F	0.583454	-0.619047	0.922175
F231	F	0.916788	-0.285713	1.255509
H232	H	0.079434	-1.134688	0.420639
H233	H	0.412768	-0.801354	0.753972
H234	H	0.746101	-0.468021	1.087305
F235	F	0.002587	-0.890251	0.588744
F236	F	0.335921	-0.556918	0.922078
F237	F	0.669254	-0.223584	1.255411
F238	F	0.250806	-0.952757	0.413087
F239	F	0.584139	-0.619423	0.746421
F240	F	0.917473	-0.286090	1.079754
F241	F	0.203461	-1.110786	0.585882
F242	F	0.536794	-0.777453	0.919215
F243	F	0.870127	-0.444119	1.252548
H244	H	0.080487	-1.134751	0.579149
H245	H	0.413821	-0.801418	0.912483
H246	H	0.747154	-0.468085	1.245816
H247	H	0.183955	-1.105401	0.419276
H248	H	0.517289	-0.772068	0.752609
H249	H	0.850622	-0.438734	1.085942
F250	F	0.007841	-0.886095	0.413089
F251	F	0.341174	-0.552762	0.746422
F252	F	0.674507	-0.219428	1.079756
H253	H	-0.024352	-1.014806	0.419501
H254	H	0.308982	-0.681473	0.752835
H255	H	0.642315	-0.348140	1.086168
F256	F	-0.037296	-1.034669	0.586508
F257	F	0.296037	-0.701335	0.919842
F258	F	0.629370	-0.368002	1.253175
