data_functionalizedCrystal
_audit_creation_method	'MofGen! by Chris Wilmer'
_symmetry_space_group_name_H-M	'P1'
_symmetry_Int_Tables_number	1
_symmetry_cell_setting	triclinic
loop_
_symmetry_equiv_pos_as_xyz
  x,y,z
_cell_length_a	12.827893
_cell_length_b	13.897448
_cell_length_c	12.827885
_cell_angle_alpha	89.967724
_cell_angle_beta	89.980728
_cell_angle_gamma	90.017663
loop_
_atom_site_label
_atom_site_type_symbol
_atom_site_fract_x
_atom_site_fract_y
_atom_site_fract_z
Zn1	Zn	1.597653	-0.383969	-0.590831
Zn2	Zn	2.097653	0.116031	-0.090831
Zn3	Zn	1.597540	-0.545295	-0.416083
Zn4	Zn	2.097540	-0.045295	0.083917
Zn5	Zn	1.422894	-0.384016	-0.416104
Zn6	Zn	1.922894	0.115984	0.083896
Zn7	Zn	1.422873	-0.545224	-0.590783
Zn8	Zn	1.922873	-0.045224	-0.090783
O9	O	1.510240	-0.464626	-0.503450
O10	O	2.010240	0.035374	-0.003450
O11	O	1.743874	-0.405380	-0.567661
O12	O	2.243874	0.094620	-0.067661
O13	O	1.574335	-0.523951	-0.269850
O14	O	2.074335	-0.023951	0.230150
O15	O	1.446133	-0.249028	-0.439311
O16	O	1.946133	0.250972	0.060689
O17	O	1.743791	-0.523905	-0.439275
O18	O	2.243791	-0.023905	0.060725
O19	O	1.574527	-0.248994	-0.567681
O20	O	2.074527	0.251006	-0.067681
O21	O	1.446023	-0.405460	-0.269865
O22	O	1.946023	0.094540	0.230135
O23	O	1.276655	-0.405390	-0.439265
O24	O	1.776655	0.094610	0.060735
O25	O	1.446096	-0.523783	-0.737026
O26	O	1.946096	-0.023783	-0.237026
O27	O	1.276639	-0.523829	-0.567601
O28	O	1.776639	-0.023829	-0.067601
O29	O	1.574506	-0.405310	-0.737060
O30	O	2.074506	0.094690	-0.237060
O31	O	1.574314	-0.680267	-0.439229
O32	O	2.074314	-0.180267	0.060771
O33	O	1.445986	-0.680215	-0.567580
O34	O	1.945986	-0.180215	-0.067580
C35	C	1.238730	-0.464607	-0.503430
C36	C	1.738730	0.035393	-0.003430
C37	C	1.122577	-0.464623	-0.503447
C38	C	1.622577	0.035377	-0.003447
C39	C	1.070812	-0.523321	-0.566853
C40	C	1.570812	-0.023321	-0.066853
C41	C	0.950762	-0.523338	-0.566872
C42	C	1.450762	-0.023338	-0.066872
C43	C	1.510164	-0.715240	-0.503420
C44	C	2.010164	-0.215240	-0.003420
C45	C	1.510227	-0.822454	-0.503442
C46	C	2.010227	-0.322454	-0.003442
C47	C	1.510336	-1.018749	-0.503508
C48	C	2.010336	-0.518749	-0.003508
C49	C	1.510272	-0.909517	-0.503474
C50	C	2.010272	-0.409517	-0.003474
C51	C	1.782810	-0.464645	-0.503471
C52	C	2.282810	0.035355	-0.003471
C53	C	1.898963	-0.464654	-0.503480
C54	C	2.398963	0.035346	-0.003480
C55	C	1.510311	-0.464533	-0.776021
C56	C	2.010311	0.035467	-0.276021
C57	C	1.510341	-0.464494	-0.892174
C58	C	2.010341	0.035506	-0.392174
C59	C	1.510345	-0.213033	-0.503504
C60	C	2.010345	0.286967	-0.003504
C61	C	1.510390	-0.105819	-0.503526
C62	C	2.010390	0.394181	-0.003526
C63	C	1.446853	-0.523052	-1.063986
C64	C	1.946853	-0.023052	-0.563986
C65	C	1.446820	-0.523094	-0.943935
C66	C	1.946820	-0.023094	-0.443935
C67	C	1.510229	-0.464649	-0.231940
C68	C	2.010229	0.035351	0.268060
C69	C	1.510401	-0.464416	-0.115788
C70	C	2.010401	0.035584	0.384212
H71	H	0.906245	-0.573595	-0.621154
H72	H	1.406245	-0.073595	-0.121154
H73	H	1.392418	-0.573298	-0.899387
H74	H	1.892418	-0.073298	-0.399387
O75	O	0.952171	-0.404830	-0.438660
O76	O	1.452171	0.095170	0.061340
C77	C	1.015243	-0.459720	-0.371090
C78	C	1.515243	0.040280	0.128910
H79	H	1.031491	-0.532871	-0.407821
H80	H	1.531491	-0.032871	0.092179
H81	H	1.092040	-0.420470	-0.357217
H82	H	1.592040	0.079530	0.142783
H83	H	0.973202	-0.470203	-0.293597
H84	H	1.473202	0.029797	0.206403
O85	O	1.575103	-0.404494	-0.945349
O86	O	2.075103	0.095506	-0.445349
C87	C	1.515592	-0.342237	-1.008513
C88	C	2.015592	0.157763	-0.508513
H89	H	1.433310	-0.336261	-0.975553
H90	H	1.933310	0.163739	-0.475553
H91	H	1.553414	-0.268006	-1.009873
H92	H	2.053414	0.231994	-0.509873
H93	H	1.511931	-0.372099	-1.091187
H94	H	2.011931	0.127901	-0.591187
O95	O	1.382068	-0.582874	-1.117258
O96	O	1.882068	-0.082874	-0.617258
C97	C	1.396509	-0.569500	-1.225263
C98	C	1.896509	-0.069500	-0.725263
H99	H	1.477187	-0.537899	-1.240077
H100	H	1.977187	-0.037899	-0.740077
H101	H	1.389436	-0.641700	-1.266806
H102	H	1.889436	-0.141700	-0.766806
H103	H	1.334582	-0.518089	-1.256242
H104	H	1.834582	-0.018089	-0.756242
O105	O	1.069590	-0.404591	-0.438664
O106	O	1.569590	0.095409	0.061336
C107	C	1.141030	-0.350028	-0.379684
C108	C	1.641030	0.149972	0.120316
H109	H	1.218884	-0.346658	-0.422410
H110	H	1.718884	0.153342	0.077590
H111	H	1.109420	-0.274048	-0.368712
H112	H	1.609420	0.225952	0.131288
H113	H	1.152553	-0.385255	-0.300239
H114	H	1.652553	0.114745	0.199761
O115	O	1.575424	-0.404608	-1.062788
O116	O	2.075424	0.095392	-0.562788
C117	C	1.679603	-0.425678	-1.089358
C118	C	2.179603	0.074322	-0.589358
H119	H	1.681855	-0.462663	-1.168626
H120	H	2.181855	0.037337	-0.668626
H121	H	1.726493	-0.356060	-1.092993
H122	H	2.226493	0.143940	-0.592993
H123	H	1.714704	-0.475345	-1.027942
H124	H	2.214704	0.024655	-0.527942
H125	H	1.115371	-0.573559	-0.621128
H126	H	1.615371	-0.073559	-0.121128
