data_functionalizedCrystal
_audit_creation_method	'MofGen! by Chris Wilmer'
_symmetry_space_group_name_H-M	'P1'
_symmetry_Int_Tables_number	1
_symmetry_cell_setting	triclinic
loop_
_symmetry_equiv_pos_as_xyz
  x,y,z
_cell_length_a	20.875492
_cell_length_b	14.560432
_cell_length_c	20.875685
_cell_angle_alpha	92.969488
_cell_angle_beta	60.167326
_cell_angle_gamma	58.318193
loop_
_atom_site_label
_atom_site_type_symbol
_atom_site_fract_x
_atom_site_fract_y
_atom_site_fract_z
Zr1	Zr	0.740645	0.820581	-0.122748
O2	O	0.881807	0.655287	-0.232523
O3	O	0.599483	0.878908	-0.083998
O4	O	0.740646	0.857929	-0.225171
O5	O	0.740642	0.684105	0.014209
O6	O	0.740647	1.009068	-0.225170
O7	O	0.740644	0.676266	-0.091351
O8	O	0.488131	1.046595	0.027361
O9	O	0.993159	0.646579	-0.238323
O10	O	0.657546	1.007327	-0.073631
O11	O	0.657544	0.900385	0.005146
O12	O	0.823746	0.875685	-0.161066
O13	O	0.823744	0.768743	-0.082288
Zr14	Zr	0.740645	1.074133	0.045608
Zr15	Zr	0.740647	1.061630	-0.122748
Zr16	Zr	0.740643	0.833084	0.045607
Zr17	Zr	0.918237	0.806692	-0.131998
Zr18	Zr	0.563052	1.088022	0.054857
O19	O	0.881807	1.015806	0.006858
O20	O	0.881810	0.998028	-0.232522
O21	O	0.881805	0.673065	0.006857
O22	O	0.599482	1.239426	0.155383
O23	O	0.599485	1.221648	-0.083997
O24	O	0.599480	0.896686	0.155381
O25	O	0.740647	1.210608	-0.091349
O26	O	0.740643	1.036785	0.148030
O27	O	0.740642	0.885646	0.148029
O28	O	0.740646	1.218448	0.014210
O29	O	0.993160	0.838181	-0.238322
O30	O	0.488130	1.056533	0.161181
O31	O	0.488131	1.248135	0.161182
O32	O	0.488133	1.238197	0.027362
O33	O	0.993157	0.656517	-0.104502
O34	O	0.993158	0.848119	-0.104502
O35	O	0.657544	1.019029	0.083925
O36	O	0.657545	1.125971	0.005147
O37	O	0.823746	0.994329	-0.082287
O38	O	0.823744	0.887387	-0.003510
C39	C	0.518504	0.964730	-0.027001
C40	C	0.443111	0.970626	-0.023074
C41	C	0.469058	0.881010	-0.082592
C42	C	0.398232	0.886551	-0.078931
C43	C	0.301460	0.981704	-0.015748
C44	C	0.275514	1.071329	0.043773
C45	C	0.346339	1.065792	0.040108
C46	C	0.083058	1.008175	0.001789
C47	C	0.012232	1.013703	0.005451
C48	C	0.134955	0.828926	-0.117254
C49	C	0.205776	0.823394	-0.120910
C50	C	0.179824	0.913021	-0.061392
N51	N	0.229063	0.987368	-0.012003
N52	N	0.252221	0.907361	-0.065141
C53	C	0.740643	0.645841	-0.038571
C54	C	0.740642	0.543510	-0.038572
C55	C	0.740634	0.359862	0.077749
C56	C	0.740632	0.412262	0.135905
C57	C	0.740635	0.508410	0.135904
C58	C	0.740636	0.552162	0.077741
C59	C	0.740638	0.499762	0.019586
C60	C	0.740639	0.403610	0.019592
C61	C	0.740644	0.491110	-0.096728
C62	C	0.740649	0.394956	-0.096731
C63	C	0.740645	0.534862	-0.154890
C64	C	0.740654	0.482456	-0.213051
C65	C	0.740653	0.386302	-0.213047
C66	C	0.740651	0.342556	-0.154887
C67	C	0.962786	0.929984	-0.050140
C68	C	1.038178	0.924087	-0.054066
C69	C	0.740647	0.931717	-0.249157
C70	C	0.740648	0.926409	-0.320629
C71	C	0.740647	1.248873	-0.038569
C72	C	0.740648	1.351204	-0.038569
C73	C	0.740639	0.887541	-0.722929
C74	C	0.740635	0.892543	-0.655772
C75	C	0.740641	0.978304	-0.622204
C76	C	0.740641	1.059076	-0.655790
C77	C	0.740638	1.054078	-0.722942
C78	C	0.740645	1.002184	-0.421367
C79	C	0.740651	1.007173	-0.354212
C80	C	0.740643	0.840641	-0.354197
C81	C	0.740646	0.835646	-0.421353
C82	C	0.740641	0.916422	-0.454931
N83	N	0.740640	0.983417	-0.553561
N84	N	0.740635	0.911314	-0.523570
C85	C	0.740642	0.962997	0.172017
C86	C	0.740642	0.968305	0.243488
C87	C	0.518506	1.266246	-0.027000
C88	C	0.443114	1.374474	-0.023073
C89	C	0.518502	0.980370	0.183586
C90	C	0.443108	0.991574	0.258984
C91	C	0.518504	1.281885	0.183587
C92	C	0.443111	1.395421	0.258986
C93	C	0.962786	0.612828	-0.260728
C94	C	1.038179	0.499293	-0.336126
C95	C	0.962784	0.628468	-0.050141
C96	C	1.038176	0.520240	-0.054068
C97	C	0.962788	0.914344	-0.260727
C98	C	1.038181	0.903140	-0.336125
C99	C	0.407709	1.363367	-0.062357
C100	C	0.336880	1.465048	-0.058684
C101	C	0.301453	1.577834	-0.015720
C102	C	0.336865	1.588938	0.023565
C103	C	0.407697	1.487258	0.019886
C104	C	0.407703	1.058767	0.335520
C105	C	0.336872	1.069290	0.406371
C106	C	0.301444	1.012626	0.400683
C107	C	0.336857	0.945425	0.324139
C108	C	0.407691	0.934896	0.253290
C109	C	0.407707	1.504572	0.253272
C110	C	0.336877	1.611259	0.324110
C111	C	0.301448	1.608793	0.400660
C112	C	0.336859	1.499630	0.406372
C113	C	0.407693	1.392946	0.335535
C114	C	1.073592	0.390141	-0.330413
C115	C	1.144443	0.283452	-0.401252
C116	C	1.179876	0.285918	-0.477803
C117	C	1.144460	0.395081	-0.483514
C118	C	1.073614	0.501767	-0.412676
C119	C	1.073588	0.531345	-0.014791
C120	C	1.144436	0.429662	-0.018484
C121	C	1.179866	0.316875	-0.061450
C122	C	1.144451	0.305772	-0.100732
C123	C	1.073609	0.407454	-0.097043
C124	C	1.073587	0.959819	-0.330411
C125	C	1.144418	0.949314	-0.401248
C126	C	1.179846	0.882124	-0.477799
C127	C	1.144434	0.825443	-0.483511
C128	C	1.073599	0.835955	-0.412674
H129	H	0.284570	0.745925	-0.172372
F130	F	0.572048	0.779730	-0.149837
H131	H	1.044746	0.623174	0.020202
F132	F	0.299148	1.708984	0.069289
H133	H	1.237525	0.873573	-0.535473
F134	F	0.445392	1.119088	0.341592
H135	H	1.173259	0.438726	0.013508
F136	F	0.445404	1.243341	-0.108089
F137	F	0.162566	0.733546	-0.180594
H138	H	1.044746	0.388111	-0.268088
F139	F	1.182120	0.167287	-0.395157
F140	F	1.035923	0.395617	-0.138845
H141	H	0.740632	0.826780	-0.628429
F142	F	0.445361	1.276784	0.341628
F143	F	0.740645	0.754682	-0.318456
F144	F	1.035894	1.031336	-0.248947
F145	F	0.299141	0.885126	0.318098
H146	H	-0.066568	1.091191	0.056906
F147	F	0.740622	0.654504	0.077750
H148	H	0.436509	0.880185	0.190974
H149	H	0.740656	1.077014	-0.326884
F150	F	0.740641	0.637196	-0.154888
F151	F	0.226065	1.686042	-0.011811
H152	H	0.740649	0.518090	-0.260399
F153	F	0.445404	1.507223	0.171808
F154	F	1.182098	1.009640	-0.395152
F155	F	0.172520	1.172601	0.111015
H156	H	1.173291	0.770737	-0.545848
H157	H	1.044780	0.789794	-0.417338
F158	F	0.740655	0.240222	-0.154881
F159	F	1.182166	0.185726	-0.146454
F160	F	0.425853	0.791166	-0.142276
H161	H	0.243771	1.695671	0.458334
F162	F	0.318721	1.161177	0.103452
F163	F	0.055428	1.103559	0.065139
H164	H	1.237551	0.234089	-0.064447
H165	H	0.740644	0.281564	0.077750
H166	H	1.237562	0.199039	-0.535477
H167	H	0.740643	1.067952	-0.448702
F168	F	0.226055	1.023844	0.476095
H169	H	0.308052	1.700134	0.319445
H170	H	0.740629	0.376633	0.183262
F171	F	0.740640	1.150356	-0.620060
F172	F	0.740626	0.564184	0.197803
F173	F	0.740648	0.330546	-0.274943
F174	F	0.299144	1.497025	0.487849
F175	F	0.740637	1.140042	-0.758681
H176	H	0.740640	0.817701	-0.750259
H177	H	0.740641	0.765813	-0.448683
H178	H	1.173318	0.397074	-0.545850
H179	H	0.308057	1.455984	-0.090675
F180	F	0.445365	1.499097	0.061706
H181	H	0.308048	1.124016	0.468689
H182	H	1.044782	0.590639	-0.417337
