data_functionalizedCrystal
_audit_creation_method	'MofGen! by Chris Wilmer'
_symmetry_space_group_name_H-M	'P1'
_symmetry_Int_Tables_number	1
_symmetry_cell_setting	triclinic
loop_
_symmetry_equiv_pos_as_xyz
  x,y,z
_cell_length_a	14.519731
_cell_length_b	17.699092
_cell_length_c	13.596369
_cell_angle_alpha	90.004304
_cell_angle_beta	90.005416
_cell_angle_gamma	83.487610
loop_
_atom_site_label
_atom_site_type_symbol
_atom_site_fract_x
_atom_site_fract_y
_atom_site_fract_z
O1	O	1.223438	0.099291	0.081790
O2	O	1.556771	0.432625	0.415123
O3	O	1.890105	0.765958	0.748456
O4	O	0.954914	0.110958	0.081791
O5	O	1.288248	0.444291	0.415124
O6	O	1.621581	0.777625	0.748457
O7	O	1.096759	-0.005042	0.081788
O8	O	1.430092	0.328291	0.415121
O9	O	1.763425	0.661625	0.748455
O10	O	1.081594	0.215291	0.081793
O11	O	1.414927	0.548625	0.415126
O12	O	1.748260	0.881958	0.748459
O13	O	1.096745	-0.005048	-0.081795
O14	O	1.430078	0.328285	0.251538
O15	O	1.763411	0.661619	0.584872
O16	O	0.954900	0.110952	-0.081792
O17	O	1.288234	0.444285	0.251541
O18	O	1.621567	0.777619	0.584875
O19	O	1.223424	0.099285	-0.081793
O20	O	1.556757	0.432618	0.251540
O21	O	1.890090	0.765952	0.584873
Zn22	Zn	1.089160	0.105118	-0.107765
Zn23	Zn	1.422493	0.438451	0.225568
Zn24	Zn	1.755827	0.771784	0.558902
Zn25	Zn	1.089178	0.105126	0.107763
Zn26	Zn	1.422512	0.438459	0.441096
Zn27	Zn	1.755845	0.771792	0.774429
O28	O	1.081580	0.215285	-0.081790
O29	O	1.414913	0.548618	0.251543
O30	O	1.748246	0.881952	0.584876
C31	C	0.920550	0.110408	-0.000001
C32	C	1.253884	0.443742	0.333333
C33	C	1.587217	0.777075	0.666666
C34	C	0.818177	0.108770	-0.000000
C35	C	1.151510	0.442104	0.333333
C36	C	1.484844	0.775437	0.666667
C37	C	0.735038	0.107439	0.000004
C38	C	1.068372	0.440773	0.333337
C39	C	1.401705	0.774106	0.666671
C40	C	0.630737	0.105776	0.000004
C41	C	0.964070	0.439109	0.333338
C42	C	1.297403	0.772443	0.666671
C43	C	0.547603	0.104456	0.000004
C44	C	0.880937	0.437789	0.333337
C45	C	1.214270	0.771123	0.666671
C46	C	0.443295	0.102793	0.000006
C47	C	0.776628	0.436126	0.333340
C48	C	1.109961	0.769460	0.666673
C49	C	1.096207	-0.033243	-0.000002
C50	C	1.429540	0.300090	0.333331
C51	C	1.762874	0.633423	0.666665
C52	C	1.094573	-0.117266	0.000003
C53	C	1.427906	0.216067	0.333336
C54	C	1.761240	0.549401	0.666669
C55	C	1.093815	-0.156732	0.089173
C56	C	1.427148	0.176601	0.422506
C57	C	1.760482	0.509934	0.755839
C58	C	1.092274	-0.235680	0.089174
C59	C	1.425607	0.097654	0.422507
C60	C	1.758940	0.430987	0.755841
C61	C	1.091497	-0.275160	0.000004
C62	C	1.424830	0.058173	0.333337
C63	C	1.758164	0.391506	0.666671
C64	C	1.092252	-0.235688	-0.089173
C65	C	1.425585	0.097645	0.244160
C66	C	1.758919	0.430979	0.577493
C67	C	1.093787	-0.156741	-0.089173
C68	C	1.427120	0.176592	0.244160
C69	C	1.760453	0.509925	0.577493
C70	C	1.086062	-0.554071	-0.089175
C71	C	1.419395	-0.220738	0.244159
C72	C	1.752729	0.112595	0.577492
C73	C	1.084530	-0.633024	-0.089168
C74	C	1.417863	-0.299690	0.244166
C75	C	1.751197	0.033643	0.577499
C76	C	1.084549	-0.633010	0.089173
C77	C	1.417882	-0.299676	0.422506
C78	C	1.751215	0.033657	0.755839
C79	C	1.086083	-0.554063	0.089172
C80	C	1.419417	-0.220730	0.422506
C81	C	1.752750	0.112604	0.755839
C82	C	1.086834	-0.514597	-0.000004
C83	C	1.420167	-0.181264	0.333329
C84	C	1.753500	0.152070	0.666663
C85	C	1.088503	-0.428993	-0.000004
C86	C	1.421836	-0.095660	0.333329
C87	C	1.755170	0.237673	0.666663
C88	C	1.089834	-0.360763	0.000003
C89	C	1.423167	-0.027430	0.333336
C90	C	1.756501	0.305903	0.666670
C91	C	1.257788	0.099835	0.000000
C92	C	1.591121	0.433168	0.333334
C93	C	1.924455	0.766502	0.666667
C94	C	1.360161	0.101473	0.000006
C95	C	1.693495	0.434806	0.333340
C96	C	2.026828	0.768140	0.666673
C97	C	1.082131	0.243487	0.000002
C98	C	1.415465	0.576820	0.333335
C99	C	1.748798	0.910153	0.666668
C100	C	1.083765	0.327509	0.000004
C101	C	1.417099	0.660843	0.333337
C102	C	1.750432	0.994176	0.666670
N103	N	1.089154	0.105112	-0.254857
N104	N	1.422487	0.438445	0.078477
N105	N	1.755821	0.771778	0.411810
C106	C	1.089177	0.105126	-0.656148
C107	C	1.422510	0.438460	-0.322814
C108	C	1.755844	0.771793	0.010519
C109	C	1.089168	0.105125	-0.544496
C110	C	1.422501	0.438458	-0.211163
C111	C	1.755835	0.771792	0.122170
C112	C	1.089166	0.105120	-0.455506
C113	C	1.422499	0.438453	-0.122173
C114	C	1.755833	0.771786	0.211161
C115	C	1.089156	0.105117	-0.343847
C116	C	1.422489	0.438450	-0.010514
C117	C	1.755823	0.771783	0.322819
N118	N	1.089192	0.105126	0.254854
N119	N	1.422525	0.438459	0.588188
N120	N	1.755858	0.771792	0.921521
H121	H	1.094452	-0.124594	0.161785
H122	H	1.427786	0.208740	0.495119
H123	H	1.761119	0.542073	0.828452
H124	H	1.083933	-0.665152	0.161784
H125	H	1.417267	-0.331818	0.495118
H126	H	1.750600	0.001515	0.828451
H127	H	1.091660	-0.267810	0.161785
H128	H	1.424994	0.065523	0.495119
H129	H	1.758327	0.398856	0.828452
Br130	Br	1.094810	-0.103178	-0.210195
Br131	Br	1.428144	0.230155	0.123139
Br132	Br	1.761477	0.563488	0.456472
Br133	Br	1.083477	-0.686605	-0.210192
Br134	Br	1.416810	-0.353271	0.123141
Br135	Br	1.750144	-0.019938	0.456474
Br136	Br	1.091183	-0.289266	-0.210192
Br137	Br	1.424516	0.044067	0.123142
Br138	Br	1.757849	0.377401	0.456475
Br139	Br	1.087145	-0.500487	0.210193
Br140	Br	1.420479	-0.167154	0.543526
Br141	Br	1.753812	0.166180	0.876860
H142	H	1.086691	-0.521950	-0.161788
H143	H	1.420025	-0.188616	0.171546
H144	H	1.753358	0.144717	0.504879
