data_functionalizedCrystal
_audit_creation_method	'MofGen! by Chris Wilmer'
_symmetry_space_group_name_H-M	'P1'
_symmetry_Int_Tables_number	1
_symmetry_cell_setting	triclinic
loop_
_symmetry_equiv_pos_as_xyz
  x,y,z
_cell_length_a	14.853569
_cell_length_b	14.853559
_cell_length_c	9.198806
_cell_angle_alpha	90.001243
_cell_angle_beta	90.001722
_cell_angle_gamma	83.633509
loop_
_atom_site_label
_atom_site_type_symbol
_atom_site_fract_x
_atom_site_fract_y
_atom_site_fract_z
O1	O	1.196359	0.117710	0.120819
O2	O	0.933900	0.131730	0.120835
O3	O	1.072144	-0.006511	0.120825
O4	O	1.058115	0.255950	0.120829
O5	O	1.072134	-0.006512	-0.120960
O6	O	0.933889	0.131729	-0.120950
O7	O	1.196349	0.117709	-0.120966
Cu8	Cu	1.065118	0.124719	-0.143035
Cu9	Cu	1.065130	0.124720	0.142904
O10	O	1.058105	0.255949	-0.120956
C11	C	0.900306	0.131094	-0.000055
C12	C	0.800222	0.129189	-0.000048
C13	C	0.763848	0.046178	-0.000045
C14	C	0.742554	0.210411	-0.000058
C15	C	0.648520	0.208625	-0.000060
C16	C	0.612146	0.125614	-0.000056
C17	C	0.669806	0.044389	-0.000051
C18	C	0.590853	0.289848	-0.000080
C19	C	0.496812	0.288065	-0.000084
C20	C	0.460437	0.205053	-0.000069
C21	C	0.518103	0.123825	-0.000062
C22	C	0.481729	0.040813	-0.000058
C23	C	0.539394	-0.040416	-0.000041
C24	C	0.633430	-0.038623	-0.000036
C25	C	0.366401	0.203260	-0.000074
C26	C	0.387687	0.039024	-0.000064
C27	C	1.071505	-0.040100	-0.000065
C28	C	1.069604	-0.140184	-0.000057
C29	C	1.061546	-0.563359	0.131741
C30	C	1.061535	-0.563354	-0.131862
C31	C	1.063328	-0.469321	-0.131864
C32	C	1.064229	-0.422302	-0.000061
C33	C	1.063337	-0.469316	0.131744
C34	C	1.064211	-0.422299	-0.263666
C35	C	1.066004	-0.328259	-0.263672
C36	C	1.066911	-0.281240	-0.131868
C37	C	1.066020	-0.328260	-0.000058
C38	C	1.066921	-0.281241	0.131745
C39	C	1.066036	-0.328260	0.263557
C40	C	1.064244	-0.422296	0.263549
C41	C	1.068703	-0.187203	-0.131860
C42	C	1.068712	-0.187198	0.131748
C43	C	1.229943	0.118345	-0.000073
C44	C	1.330027	0.120249	-0.000070
C45	C	1.058744	0.289538	-0.000063
C46	C	1.060645	0.389622	-0.000062
N47	N	1.065116	0.124717	-0.344149
C48	C	1.123305	0.066548	-0.583754
C49	C	1.123293	0.066549	-0.416342
N50	N	1.065140	0.124714	0.344018
H51	H	0.449869	0.354207	-0.000096
H52	H	1.015313	0.174515	-0.406252
O53	O	1.063334	-0.468103	0.391449
C54	C	1.060622	-0.612982	0.508260
C55	C	1.061634	-0.561212	0.363313
H56	H	1.059266	-0.688272	0.485563
H57	H	0.997918	-0.586383	0.573278
H58	H	1.124006	-0.602618	0.573257
H59	H	0.998294	-0.571555	0.298199
H60	H	1.124379	-0.587822	0.298405
H61	H	1.060829	-0.601646	0.239059
O62	O	1.069427	-0.141605	-0.259970
C63	C	0.991859	-0.102650	-0.485191
C64	C	0.990942	-0.154352	-0.340169
H65	H	0.928402	-0.112923	-0.550060
H66	H	1.054495	-0.129316	-0.550322
H67	H	0.993336	-0.027375	-0.462501
H68	H	0.989433	-0.229636	-0.362727
H69	H	0.928314	-0.127613	-0.275083
O70	O	0.689316	-0.117606	0.000040
C71	C	0.700517	-0.280694	-0.000029
C72	C	0.637120	-0.191317	-0.000079
H73	H	0.658343	-0.340313	-0.000156
H74	H	0.745060	-0.284017	0.101182
H75	H	0.745093	-0.283915	-0.101192
H76	H	0.592488	-0.188036	0.101014
H77	H	0.592640	-0.188031	-0.101357
O78	O	0.819950	-0.032664	0.000165
C79	C	0.938430	-0.125981	0.125498
C80	C	0.874961	-0.036651	0.125424
H81	H	0.982910	-0.129243	0.226775
H82	H	0.983056	-0.129269	0.024387
H83	H	0.896259	-0.185602	0.125427
H84	H	0.917061	0.023020	0.125547
H85	H	0.830332	-0.033443	0.226526
O86	O	1.182806	0.007093	-0.657603
C87	C	1.304190	-0.114395	-0.641852
C88	C	1.236871	-0.047091	-0.558043
H89	H	1.347906	-0.158233	-0.561393
H90	H	1.349315	-0.075419	-0.713068
H91	H	1.265135	-0.159404	-0.713155
H92	H	1.275852	-0.002066	-0.486660
H93	H	1.191747	-0.086123	-0.486918
O94	O	0.778034	0.290965	-0.000014
C95	C	0.913470	0.366505	-0.000137
C96	C	0.873406	0.275211	-0.000148
H97	H	0.990584	0.353799	-0.000277
H98	H	0.889804	0.406672	0.101066
H99	H	0.889673	0.406636	-0.101307
H100	H	0.897185	0.235006	0.100953
H101	H	0.897068	0.235112	-0.101419
O102	O	0.626335	0.370401	-0.000052
C103	C	0.761774	0.445935	-0.000196
C104	C	0.721707	0.354643	-0.000178
H105	H	0.838887	0.433227	-0.000328
H106	H	0.738106	0.486117	0.100993
H107	H	0.737981	0.486054	-0.101381
H108	H	0.745482	0.314451	0.100938
H109	H	0.745371	0.314530	-0.101433
O110	O	1.005684	0.184215	-0.582133
C111	C	0.884207	0.305610	-0.597885
C112	C	0.951507	0.238287	-0.681694
H113	H	0.840375	0.349332	-0.678343
H114	H	0.923187	0.350729	-0.526655
H115	H	0.839193	0.266558	-0.526594
H116	H	0.996539	0.277265	-0.753064
H117	H	0.912471	0.193169	-0.752831
H118	H	0.319454	0.269396	-0.000101
H119	H	1.060795	-0.601642	-0.239170
H120	H	0.358079	-0.028574	-0.000053
H121	H	1.173087	0.016747	-0.354229
H122	H	1.063473	-0.460588	-0.370972
H123	H	0.509766	-0.108003	-0.000028
H124	H	1.069450	-0.148922	0.239079
H125	H	1.066763	-0.289964	0.370870
H126	H	1.066728	-0.289985	-0.371001
