data_functionalizedCrystal
_audit_creation_method	'MofGen! by Chris Wilmer'
_symmetry_space_group_name_H-M	'P1'
_symmetry_Int_Tables_number	1
_symmetry_cell_setting	triclinic
loop_
_symmetry_equiv_pos_as_xyz
  x,y,z
_cell_length_a	14.971486
_cell_length_b	19.288865
_cell_length_c	14.048226
_cell_angle_alpha	89.988335
_cell_angle_beta	89.998499
_cell_angle_gamma	83.375189
loop_
_atom_site_label
_atom_site_type_symbol
_atom_site_fract_x
_atom_site_fract_y
_atom_site_fract_z
O1	O	1.186458	0.090517	-0.079062
O2	O	0.925999	0.101357	-0.079090
O3	O	1.063754	-0.005169	-0.079056
O4	O	1.048702	0.197043	-0.079096
O5	O	1.063738	-0.005175	0.079265
O6	O	0.925982	0.101351	0.079232
O7	O	1.186441	0.090511	0.079259
Zn8	Zn	1.056209	0.095930	0.104382
Zn9	Zn	1.056231	0.095938	-0.104213
O10	O	1.048686	0.197037	0.079226
C11	C	0.892669	0.100869	0.000068
C12	C	0.793379	0.099416	0.000058
C13	C	0.735816	0.161997	0.000047
C14	C	0.642524	0.160628	0.000062
C15	C	0.606797	0.096677	0.000080
C16	C	0.664368	0.034092	0.000094
C17	C	0.757658	0.035461	0.000086
C18	C	0.469921	0.031241	0.000108
C19	C	0.376624	0.029871	0.000113
C20	C	0.354786	0.156407	0.000083
C21	C	0.448077	0.157777	0.000075
C22	C	0.505641	0.095191	0.000087
C23	C	1.063262	-0.031050	0.000107
C24	C	1.061808	-0.108158	0.000115
C25	C	1.142636	-0.152591	0.000128
C26	C	1.141271	-0.225043	0.000113
C27	C	1.059071	-0.253058	0.000104
C28	C	0.978232	-0.208615	0.000085
C29	C	0.979600	-0.136166	0.000091
C30	C	0.994448	-0.361558	0.055554
C31	C	0.993083	-0.434007	0.055554
C32	C	1.054848	-0.476517	0.000082
C33	C	1.117994	-0.446571	-0.055378
C34	C	1.119362	-0.374121	-0.055372
C35	C	1.057579	-0.331617	0.000097
C36	C	1.134201	-0.599511	0.000077
C37	C	1.132832	-0.671963	0.000056
C38	C	0.969791	-0.655535	0.000038
C39	C	0.971163	-0.583084	0.000050
C40	C	1.053370	-0.555077	0.000074
C41	C	1.219771	0.090999	0.000099
C42	C	1.319061	0.092452	0.000103
C43	C	1.049178	0.222918	0.000060
C44	C	1.050632	0.300026	0.000046
N45	N	1.056201	0.095924	0.246743
N46	N	1.056246	0.095939	-0.246574
C47	C	1.117218	0.048774	0.296576
C48	C	1.117224	0.048773	0.396233
C49	C	1.056217	0.095927	0.446056
C50	C	0.995193	0.143079	0.396217
C51	C	0.995183	0.143076	0.296561
C52	C	0.995219	0.143084	0.603931
C53	C	0.995229	0.143089	0.703593
C54	C	1.117259	0.048782	0.703603
C55	C	1.117250	0.048778	0.603947
C56	C	1.056227	0.095932	0.554115
H57	H	1.207093	-0.261227	0.000120
H58	H	0.913778	-0.099988	0.000081
H59	H	0.804527	-0.015498	0.000094
O60	O	1.222861	-0.569294	0.000084
H61	H	1.278840	-0.612366	0.000073
H62	H	0.595658	0.211588	0.000052
O63	O	0.292707	0.223914	0.000081
H64	H	0.221834	0.212221	0.000103
O65	O	0.486608	0.226754	0.000067
H66	H	0.463459	0.256838	-0.064460
O67	O	1.183051	-0.002080	0.550209
H68	H	1.145529	-0.035882	0.504819
H69	H	0.941662	-0.458383	0.100707
H70	H	1.166901	0.010379	0.256016
H71	H	0.347539	-0.022204	0.000130
O72	O	0.929359	0.193930	0.242821
H73	H	0.886001	0.164625	0.197451
H74	H	0.516788	-0.019723	0.000119
O75	O	1.183034	-0.002079	0.449989
H76	H	1.226375	0.027224	0.495384
O77	O	0.929404	0.193935	0.550166
H78	H	0.940582	0.248100	0.569257
H79	H	0.635272	-0.017978	0.000123
H80	H	1.209576	-0.129793	0.000145
H81	H	0.764896	0.214073	0.000032
O82	O	1.183074	-0.002084	0.757342
H83	H	1.172825	0.005832	0.835010
H84	H	1.170775	-0.349742	-0.100531
H85	H	1.168289	-0.481182	-0.100548
H86	H	1.198655	-0.708141	0.000062
O87	O	0.881129	-0.685739	0.000033
H88	H	0.893756	-0.743584	0.000037
H89	H	0.905343	-0.546906	0.000044
O90	O	0.929422	0.193934	0.757345
H91	H	0.859736	0.184976	0.738243
O92	O	0.927829	-0.315709	0.115392
H93	H	0.883704	-0.348703	0.153967
O94	O	0.889571	-0.238825	0.000086
H95	H	0.902198	-0.296670	0.000098
O96	O	0.929396	0.193945	0.449947
H97	H	0.886052	0.164658	0.495378
