data_functionalizedCrystal
_audit_creation_method	'MofGen! by Chris Wilmer'
_symmetry_space_group_name_H-M	'P1'
_symmetry_Int_Tables_number	1
_symmetry_cell_setting	triclinic
loop_
_symmetry_equiv_pos_as_xyz
  x,y,z
_cell_length_a	10.540514
_cell_length_b	10.540539
_cell_length_c	16.176319
_cell_angle_alpha	89.995366
_cell_angle_beta	89.992089
_cell_angle_gamma	84.520326
loop_
_atom_site_label
_atom_site_type_symbol
_atom_site_fract_x
_atom_site_fract_y
_atom_site_fract_z
O1	O	1.685911	0.178751	-0.068753
O2	O	2.185911	0.678751	0.431247
O3	O	1.316494	0.195640	-0.068752
O4	O	1.816494	0.695640	0.431248
O5	O	1.509630	0.002488	-0.068751
O6	O	2.009630	0.502488	0.431249
O7	O	1.492774	0.371903	-0.068753
O8	O	1.992774	0.871903	0.431247
O9	O	1.509603	0.002476	0.068742
O10	O	2.009603	0.502476	0.568742
O11	O	1.316467	0.195628	0.068742
O12	O	1.816467	0.695628	0.568742
O13	O	1.685884	0.178738	0.068740
O14	O	2.185884	0.678738	0.568740
Cu15	Cu	1.501173	0.187182	0.081295
Cu16	Cu	2.001173	0.687182	0.581295
Cu17	Cu	1.501205	0.187197	-0.081306
Cu18	Cu	2.001205	0.687197	0.418694
O19	O	1.492747	0.371890	0.068740
O20	O	1.992747	0.871890	0.568740
C21	C	1.269177	0.194374	-0.000005
C22	C	1.769177	0.694374	0.499995
C23	C	1.128227	0.190605	-0.000005
C24	C	1.628227	0.690605	0.499995
C25	C	1.057522	0.328745	-0.000007
C26	C	1.557522	0.828745	0.499993
C27	C	0.910908	0.324871	-0.000323
C28	C	1.410908	0.824871	0.499677
C29	C	0.935905	0.115485	-0.078372
C30	C	1.435905	0.615485	0.421628
C31	C	1.082444	0.120339	-0.078433
C32	C	1.582444	0.620339	0.421567
C33	C	1.082816	0.118280	0.077928
C34	C	1.582816	0.618280	0.577928
C35	C	0.935837	0.116947	0.078953
C36	C	1.435837	0.616947	0.578953
C37	C	1.508353	-0.044821	-0.000006
C38	C	2.008353	0.455179	0.499994
C39	C	1.504571	-0.185769	-0.000011
C40	C	2.004571	0.314231	0.499989
C41	C	1.359652	-0.369182	-0.000319
C42	C	1.859652	0.130818	0.499681
C43	C	1.363486	-0.222564	-0.000009
C44	C	1.863486	0.277436	0.499991
C45	C	1.572452	-0.247440	0.078505
C46	C	2.072452	0.252560	0.578505
C47	C	1.567637	-0.393984	0.078571
C48	C	2.067637	0.106016	0.578571
C49	C	1.570537	-0.394488	-0.077785
C50	C	2.070537	0.105512	0.422215
C51	C	1.571837	-0.247506	-0.078823
C52	C	2.071837	0.252494	0.421177
C53	C	1.733201	0.180004	-0.000008
C54	C	2.233201	0.680004	0.499992
C55	C	1.874151	0.183774	-0.000014
C56	C	2.374151	0.683774	0.499986
C57	C	1.494025	0.419199	-0.000007
C58	C	1.994025	0.919199	0.499993
C59	C	1.497807	0.560147	-0.000008
C60	C	1.997807	1.060147	0.499992
N61	N	1.501160	0.187171	0.195660
N62	N	2.001160	0.687171	0.695660
N63	N	1.501228	0.187198	-0.195672
N64	N	2.001228	0.687198	0.304328
C65	C	1.586707	0.101678	0.238925
C66	C	2.086707	0.601678	0.738925
C67	C	1.586713	0.101677	0.325472
C68	C	2.086713	0.601677	0.825472
C69	C	1.501178	0.187175	0.368753
C70	C	2.001178	0.687175	0.868753
C71	C	1.415621	0.272671	0.325483
C72	C	1.915621	0.772671	0.825483
C73	C	1.415610	0.272665	0.238937
C74	C	1.915610	0.772665	0.738937
C75	C	1.415665	0.272696	0.674511
C76	C	1.915665	0.772696	1.174511
C77	C	1.415686	0.272697	0.761062
C78	C	1.915686	0.772697	1.261062
C79	C	1.586769	0.101707	0.761046
C80	C	2.086769	0.601707	1.261046
C81	C	1.586757	0.101701	0.674500
C82	C	2.086757	0.601701	1.174500
C83	C	1.501197	0.187192	0.631237
C84	C	2.001197	0.687192	1.131237
C85	C	1.501189	0.187191	0.537393
C86	C	2.001189	0.687191	1.037393
C87	C	1.501191	0.187184	0.462596
C88	C	2.001191	0.687184	0.962596
H89	H	0.869188	0.378364	-0.056825
H90	H	1.369188	0.878364	0.443175
H91	H	1.525276	-0.204841	0.136933
H92	H	2.025276	0.295159	0.636933
F93	F	1.324610	0.363683	0.628474
F94	F	1.824610	0.863683	1.128474
H95	H	1.087760	0.383968	-0.056116
H96	H	1.587760	0.883968	0.443884
H97	H	1.524886	-0.426031	-0.137294
H98	H	2.024886	0.073969	0.362706
F99	F	1.677754	0.010684	0.192870
F100	F	2.177754	0.510684	0.692870
F101	F	1.677761	0.010686	0.371517
F102	F	2.177761	0.510686	0.871517
H103	H	0.911652	0.014101	0.083919
H104	H	1.411652	0.514101	0.583919
F105	F	1.324580	0.363660	0.371546
F106	F	1.824580	0.863660	0.871546
H107	H	1.517447	-0.422184	0.137263
H108	H	2.017447	0.077816	0.637263
F109	F	1.677827	0.010715	0.807095
F110	F	2.177827	0.510715	1.307095
H111	H	1.304136	-0.399390	0.055671
H112	H	1.804136	0.100610	0.555671
F113	F	1.293149	-0.167980	0.073678
F114	F	1.793149	0.332020	0.573678
H115	H	1.656412	0.032085	0.639263
H116	H	2.156412	0.532085	1.139263
H117	H	1.676060	-0.225095	0.081424
H118	H	2.176060	0.274905	0.581424
H119	H	1.346028	0.342323	0.796300
H120	H	1.846028	0.842323	1.296300
H121	H	0.893309	0.162305	-0.136909
H122	H	1.393309	0.662305	0.363091
H123	H	1.345947	0.342280	0.203712
H124	H	1.845947	0.842280	0.703712
H125	H	1.672442	-0.441723	-0.078313
H126	H	2.172442	0.058277	0.421687
H127	H	1.110680	0.170225	-0.137231
H128	H	1.610680	0.670225	0.362769
F129	F	1.145196	-0.012291	-0.082801
F130	F	1.645196	0.487709	0.417199
H131	H	1.669103	-0.441962	0.082133
H132	H	2.169103	0.058038	0.582133
F133	F	0.882239	0.182174	0.154727
F134	F	1.382239	0.682174	0.654727
H135	H	0.913591	0.011854	-0.081064
H136	H	1.413591	0.511854	0.418936
H137	H	1.086050	0.384778	0.056176
H138	H	1.586050	0.884778	0.556176
F139	F	0.855124	0.395084	0.073075
F140	F	1.355124	0.895084	0.573075
H141	H	1.114299	0.164259	0.137339
H142	H	1.614299	0.664259	0.637339
H143	H	1.303931	-0.397772	-0.056623
H144	H	1.803931	0.102228	0.443377
F145	F	1.293671	-0.166862	-0.073575
F146	F	1.793671	0.333138	0.426425
F147	F	1.144602	-0.014893	0.078927
F148	F	1.644602	0.485107	0.578927
H149	H	1.522169	-0.206638	-0.136906
H150	H	2.022169	0.293362	0.363094
H151	H	1.674699	-0.223293	-0.083564
H152	H	2.174699	0.276707	0.416436
