data_functionalizedCrystal
_audit_creation_method	'MofGen! by Chris Wilmer'
_symmetry_space_group_name_H-M	'P1'
_symmetry_Int_Tables_number	1
_symmetry_cell_setting	triclinic
loop_
_symmetry_equiv_pos_as_xyz
  x,y,z
_cell_length_a	10.654550
_cell_length_b	19.188930
_cell_length_c	9.730223
_cell_angle_alpha	89.993564
_cell_angle_beta	89.996251
_cell_angle_gamma	83.814841
loop_
_atom_site_label
_atom_site_type_symbol
_atom_site_fract_x
_atom_site_fract_y
_atom_site_fract_z
O1	O	1.665759	0.098059	-0.114420
O2	O	1.300083	0.107401	-0.114400
O3	O	1.493474	0.001144	-0.114384
O4	O	1.472368	0.204317	-0.114436
O5	O	1.493471	0.001146	0.114196
O6	O	1.300081	0.107404	0.114180
O7	O	1.665757	0.098061	0.114160
Zn8	Zn	1.482918	0.102733	0.150462
Zn9	Zn	1.482921	0.102730	-0.150702
O10	O	1.472366	0.204319	0.114144
C11	C	1.253298	0.106717	-0.000107
C12	C	1.113898	0.104664	-0.000098
C13	C	1.033089	0.167227	-0.000134
C14	C	0.902109	0.165295	-0.000157
C15	C	0.932761	0.038231	-0.000114
C16	C	1.063738	0.040164	-0.000081
C17	C	1.015391	0.240587	-0.000165
C18	C	0.884411	0.238654	-0.000188
C19	C	1.492789	-0.024871	-0.000090
C20	C	1.490737	-0.102389	-0.000078
C21	C	1.604213	-0.146570	-0.000078
C22	C	1.602285	-0.219407	-0.000099
C23	C	1.486876	-0.248058	-0.000094
C24	C	1.373386	-0.203867	-0.000102
C25	C	1.375316	-0.131032	-0.000094
N26	N	1.398658	-0.356639	0.077701
N27	N	1.396832	-0.425830	0.077696
C28	C	1.481052	-0.467505	-0.000121
N29	N	1.567186	-0.437377	-0.077917
N30	N	1.569016	-0.368180	-0.077906
C31	C	1.484770	-0.327034	-0.000104
C32	C	1.592445	-0.590665	-0.000147
C33	C	1.590513	-0.663502	-0.000177
C34	C	1.361610	-0.647960	-0.000166
C35	C	1.363545	-0.575125	-0.000149
C36	C	1.478966	-0.546481	-0.000133
C37	C	1.712541	0.098746	-0.000136
C38	C	1.851941	0.100798	-0.000154
C39	C	1.473051	0.230334	-0.000153
C40	C	1.475102	0.307852	-0.000174
N41	N	1.482925	0.102735	0.355998
N42	N	1.482924	0.102722	-0.356238
C43	C	1.568581	0.055700	0.427932
C44	C	1.568577	0.055692	0.571815
C45	C	1.397260	0.149759	0.571818
C46	C	1.397258	0.149764	0.427938
C47	C	1.667493	0.001393	0.427930
C48	C	1.667490	0.001385	0.571813
H49	H	1.698197	-0.123254	-0.000069
H50	H	1.050553	0.263945	-0.098858
H51	H	1.044114	0.269279	0.095493
N52	N	1.640591	-0.069686	0.376208
H53	H	1.640588	-0.069712	0.272408
H54	H	1.707866	-0.106605	0.410878
H55	H	1.267641	-0.671287	-0.000168
H56	H	1.271141	-0.539151	-0.000142
N57	N	1.724680	-0.267072	-0.000102
H58	H	1.798090	-0.237875	-0.000093
H59	H	1.728851	-0.297636	0.084634
H60	H	1.638050	-0.049327	0.616444
H61	H	1.763748	0.013347	0.610855
H62	H	1.686428	-0.567342	-0.000140
H63	H	1.279418	-0.227199	-0.000101
N64	N	1.304852	0.200481	0.350350
H65	H	1.250585	0.230271	0.417759
H66	H	1.352734	0.231604	0.290639
N67	N	1.252921	-0.083373	-0.000095
H68	H	1.179513	-0.112572	-0.000100
H69	H	1.248734	-0.052824	0.084649
N70	N	1.304874	0.200481	0.649422
H71	H	1.319051	0.250111	0.624381
H72	H	1.215839	0.191916	0.624355
N73	N	0.823278	0.268014	0.130519
H74	H	0.890075	0.283623	0.193691
H75	H	0.759900	0.309381	0.107667
N76	N	0.828338	0.275251	-0.126922
H77	H	0.765797	0.316066	-0.098752
H78	H	0.897862	0.292932	-0.183413
N79	N	1.712915	-0.711155	-0.000173
H80	H	1.717204	-0.741730	0.084555
H81	H	1.717155	-0.741667	-0.084970
N82	N	1.787794	0.023912	0.368782
H83	H	1.798500	0.072987	0.400801
H84	H	1.862010	-0.009301	0.400821
N85	N	1.150900	-0.027314	-0.000006
H86	H	1.099246	-0.068465	0.000001
H87	H	1.205943	-0.029291	-0.084724
H88	H	0.891904	-0.014283	-0.000121
