data_functionalizedCrystal
_audit_creation_method	'MofGen! by Chris Wilmer'
_symmetry_space_group_name_H-M	'P1'
_symmetry_Int_Tables_number	1
_symmetry_cell_setting	triclinic
loop_
_symmetry_equiv_pos_as_xyz
  x,y,z
_cell_length_a	19.288867
_cell_length_b	17.699092
_cell_length_c	17.766277
_cell_angle_alpha	89.995315
_cell_angle_beta	89.992126
_cell_angle_gamma	83.211718
loop_
_atom_site_label
_atom_site_type_symbol
_atom_site_fract_x
_atom_site_fract_y
_atom_site_fract_z
O1	O	0.921466	0.094424	-0.062565
O2	O	1.421466	0.594424	0.437435
O3	O	0.719221	0.107159	-0.062572
O4	O	1.219221	0.607159	0.437428
O5	O	0.826055	-0.009405	-0.062567
O6	O	1.326055	0.490595	0.437433
O7	O	0.814633	0.210988	-0.062570
O8	O	1.314633	0.710988	0.437430
O9	O	0.826036	-0.009411	0.062622
O10	O	1.326036	0.490589	0.562622
O11	O	0.719203	0.107153	0.062616
O12	O	1.219203	0.607153	0.562616
O13	O	0.921448	0.094418	0.062623
O14	O	1.421448	0.594418	0.562623
Cu15	Cu	0.820323	0.100785	0.074051
Cu16	Cu	1.320323	0.600785	0.574051
Cu17	Cu	0.820346	0.100792	-0.073999
Cu18	Cu	1.320346	0.600792	0.426001
O19	O	0.814614	0.210983	0.062618
O20	O	1.314614	0.710983	0.562618
C21	C	0.693335	0.106746	0.000021
C22	C	1.193335	0.606746	0.500021
C23	C	0.616230	0.105515	0.000019
C24	C	1.116230	0.605515	0.500019
C25	C	0.060664	0.096653	-0.068213
C26	C	0.560664	0.596653	0.431787
C27	C	0.133113	0.097805	-0.068216
C28	C	0.633113	0.597805	0.431784
C29	C	0.169332	0.098381	0.000024
C30	C	0.669332	0.598381	0.500024
C31	C	0.133099	0.097786	0.068272
C32	C	0.633099	0.597786	0.568272
C33	C	0.060652	0.096626	0.068273
C34	C	0.560652	0.596626	0.568273
C35	C	0.278708	0.144545	0.052304
C36	C	0.778708	0.644545	0.552304
C37	C	0.351152	0.145709	0.052301
C38	C	0.851152	0.645709	0.552301
C39	C	0.392782	0.101954	0.000025
C40	C	0.892782	0.601954	0.500025
C41	C	0.361957	0.057045	-0.052261
C42	C	0.861957	0.557045	0.447739
C43	C	0.289511	0.055886	-0.052260
C44	C	0.789511	0.555886	0.447740
C45	C	0.247889	0.099638	0.000031
C46	C	0.747889	0.599638	0.500031
C47	C	0.507565	0.103793	-0.068222
C48	C	1.007565	0.603793	0.431778
C49	C	0.580016	0.104940	-0.068222
C50	C	1.080016	0.604940	0.431778
C51	C	0.579999	0.104929	0.068268
C52	C	1.079999	0.604929	0.568268
C53	C	0.507551	0.103774	0.068266
C54	C	1.007551	0.603774	0.568266
C55	C	0.471337	0.103210	0.000019
C56	C	0.971337	0.603210	0.500019
C57	C	0.825635	-0.037604	0.000026
C58	C	1.325635	0.462396	0.500026
C59	C	0.824405	-0.121620	0.000023
C60	C	1.324405	0.378380	0.500023
C61	C	0.823838	-0.161084	-0.068218
C62	C	1.323838	0.338916	0.431782
C63	C	0.822677	-0.240025	-0.068219
C64	C	1.322677	0.259975	0.431781
C65	C	0.822088	-0.279502	0.000022
C66	C	1.322088	0.220498	0.500022
C67	C	0.822652	-0.240033	0.068268
C68	C	1.322652	0.259967	0.568268
C69	C	0.823808	-0.161092	0.068268
C70	C	1.323808	0.338908	0.568268
C71	C	0.817990	-0.558392	0.068269
C72	C	1.317990	-0.058392	0.568269
C73	C	0.816836	-0.637338	0.068264
C74	C	1.316836	-0.137338	0.568264
C75	C	0.816859	-0.637324	-0.068218
C76	C	1.316859	-0.137324	0.431782
C77	C	0.818015	-0.558384	-0.068218
C78	C	1.318015	-0.058384	0.431782
C79	C	0.818575	-0.518921	0.000028
C80	C	1.318575	-0.018921	0.500028
C81	C	0.819833	-0.433323	0.000028
C82	C	1.319833	0.066677	0.500028
C83	C	0.820835	-0.365099	0.000022
C84	C	1.320835	0.134901	0.500022
C85	C	0.947334	0.094831	0.000028
C86	C	1.447334	0.594831	0.500028
C87	C	1.024439	0.096062	0.000026
C88	C	1.524439	0.596062	0.500026
C89	C	0.815034	0.239182	0.000023
C90	C	1.315034	0.739182	0.500023
C91	C	0.816265	0.323198	0.000022
C92	C	1.316265	0.823198	0.500022
N93	N	0.820313	0.100780	0.178181
N94	N	1.320313	0.600780	0.678181
N95	N	0.820362	0.100792	-0.178130
N96	N	1.320362	0.600792	0.321870
C97	C	0.867634	0.049190	0.217570
C98	C	1.367634	0.549190	0.717570
C99	C	0.867638	0.049187	0.296372
C100	C	1.367638	0.549187	0.796372
C101	C	0.820328	0.100786	0.335782
C102	C	1.320328	0.600786	0.835782
C103	C	0.772998	0.152379	0.296383
C104	C	1.272998	0.652379	0.796383
C105	C	0.772990	0.152376	0.217582
C106	C	1.272990	0.652376	0.717582
C107	C	0.811112	0.169747	0.460618
C108	C	1.311112	0.669747	0.960618
C109	C	0.811124	0.169751	0.539417
C110	C	1.311124	0.669751	1.039417
C111	C	0.820346	0.100795	0.578828
C112	C	1.320346	0.600795	1.078828
C113	C	0.829570	0.031832	0.539430
C114	C	1.329570	0.531832	1.039430
C115	C	0.829563	0.031829	0.460630
C116	C	1.329563	0.531829	0.960630
C117	C	0.820330	0.100795	0.421227
C118	C	1.320330	0.600795	0.921227
C119	C	0.867674	0.049197	0.703663
C120	C	1.367674	0.549197	1.203663
C121	C	0.867673	0.049193	0.782466
C122	C	1.367673	0.549193	1.282466
C123	C	0.773036	0.152392	0.782476
C124	C	1.273036	0.652392	1.282476
C125	C	0.773034	0.152390	0.703674
C126	C	1.273034	0.652390	1.203674
C127	C	0.820356	0.100793	0.664272
C128	C	1.320356	0.600793	1.164272
H129	H	0.609510	0.105416	-0.123793
H130	H	1.109510	0.605416	0.376207
N131	N	0.818606	-0.515838	0.141875
N132	N	1.318606	-0.015838	0.641875
H133	H	0.819426	-0.459839	0.131526
H134	H	1.319426	0.040161	0.631526
H135	H	0.775359	-0.523361	0.171674
H136	H	1.275359	-0.023361	0.671674
N137	N	0.822023	-0.282609	0.141873
N138	N	1.322023	0.217391	0.641873
H139	H	0.821212	-0.338607	0.131519
H140	H	1.321212	0.161393	0.631519
H141	H	0.865266	-0.275087	0.171666
H142	H	1.365266	0.224913	0.671666
H143	H	0.906165	0.007176	0.185492
H144	H	1.406165	0.507176	0.685492
H145	H	0.734512	0.194402	0.814562
H146	H	1.234512	0.694402	1.314562
H147	H	0.609488	0.105396	0.123830
H148	H	1.109488	0.605396	0.623830
H149	H	0.478055	0.103296	0.123834
H150	H	0.978055	0.603296	0.623834
H151	H	0.734503	0.194402	0.671601
H152	H	1.234503	0.694402	1.171601
H153	H	0.734476	0.194391	0.328474
H154	H	1.234476	0.694391	0.828474
N155	N	0.824427	-0.118522	0.141869
N156	N	1.324427	0.381478	0.641869
H157	H	0.781866	-0.079489	0.144909
H158	H	1.281866	0.420511	0.644909
H159	H	0.823907	-0.155557	0.185059
H160	H	1.323907	0.344443	0.685059
N161	N	0.021576	0.095988	0.141877
N162	N	0.521576	0.595988	0.641877
H163	H	0.055574	0.096002	0.185107
H164	H	0.555574	0.596002	0.685107
H165	H	-0.013865	0.142682	0.145077
H166	H	0.486135	0.642682	0.645077
N167	N	0.824463	-0.118480	-0.141807
N168	N	1.324463	0.381520	0.358193
H169	H	0.867302	-0.138478	-0.171657
H170	H	1.367302	0.361522	0.328343
H171	H	0.781192	-0.125938	-0.171578
H172	H	1.281192	0.374062	0.328422
H173	H	0.906174	0.007175	0.328449
H174	H	1.406174	0.507175	0.828449
H175	H	0.822219	-0.272153	-0.123788
H176	H	1.322219	0.227847	0.376212
H177	H	0.906205	0.007182	0.671581
H178	H	1.406205	0.507182	1.171581
N179	N	0.818656	-0.515805	-0.141820
N180	N	1.318656	-0.015805	0.358180
H181	H	0.818119	-0.552784	-0.185052
H182	H	1.318119	-0.052784	0.314948
H183	H	0.776093	-0.476771	-0.144793
H184	H	1.276093	0.023229	0.355207
N185	N	0.816260	-0.679887	-0.141830
N186	N	1.316260	-0.179887	0.358170
H187	H	0.773432	-0.659866	-0.171678
H188	H	1.273432	-0.159866	0.328322
H189	H	0.859542	-0.672407	-0.171587
H190	H	1.359542	-0.172407	0.328413
N191	N	0.801172	0.244128	0.581907
N192	N	1.301172	0.744128	1.081907
H193	H	0.795317	0.287811	0.544985
H194	H	1.295317	0.787811	1.044985
H195	H	0.758184	0.245820	0.614611
H196	H	1.258184	0.745820	1.114611
H197	H	0.734455	0.194387	0.185511
H198	H	1.234455	0.694387	0.685511
N199	N	0.839509	-0.042546	0.418135
N200	N	1.339509	0.457454	0.918135
H201	H	0.845353	-0.086232	0.455053
H202	H	1.345353	0.413768	0.955053
H203	H	0.797319	-0.046847	0.385453
H204	H	1.297319	0.453153	0.885453
N205	N	0.816201	-0.679920	0.141870
N206	N	1.316201	-0.179920	0.641870
H207	H	0.816730	-0.642942	0.185104
H208	H	1.316730	-0.142942	0.685104
H209	H	0.772681	-0.706395	0.144834
H210	H	1.272681	-0.206395	0.644834
N211	N	0.839521	-0.042550	0.581925
N212	N	1.339521	0.457450	1.081925
H213	H	0.838123	-0.032087	0.637822
H214	H	1.338123	0.467913	1.137822
H215	H	0.800960	-0.073965	0.568161
H216	H	1.300960	0.426035	1.068161
H217	H	0.478079	0.103331	-0.123793
H218	H	0.978079	0.603331	0.376207
H219	H	0.906206	0.007179	0.814538
H220	H	1.406206	0.507179	1.314538
N221	N	0.384396	0.194150	0.108685
N222	N	0.884396	0.694150	0.608685
H223	H	0.347033	0.221686	0.141807
H224	H	0.847033	0.721686	0.641807
H225	H	0.418593	0.160624	0.140788
H226	H	0.918593	0.660624	0.640788
N227	N	0.233810	0.191737	0.108694
N228	N	0.733810	0.691737	0.608694
H229	H	0.264328	0.220366	0.141810
H230	H	0.764328	0.720366	0.641810
H231	H	0.199145	0.229124	0.081140
H232	H	0.699145	0.729124	0.581140
H233	H	0.803591	0.225904	0.428536
H234	H	1.303591	0.725904	0.928536
N235	N	0.021607	0.096034	-0.141819
N236	N	0.521607	0.596034	0.358181
H237	H	0.055554	0.096580	-0.185049
H238	H	0.555554	0.596580	0.314951
H239	H	-0.002737	0.048641	-0.144789
H240	H	0.497263	0.548641	0.355211
N241	N	0.172197	0.098441	-0.141819
N242	N	0.672197	0.598441	0.358181
H243	H	0.138263	0.097907	-0.185052
H244	H	0.638263	0.597907	0.314948
H245	H	0.196544	0.145833	-0.144783
H246	H	0.696544	0.645833	0.355217
H247	H	0.264416	0.019318	-0.094831
H248	H	0.764416	0.519318	0.405169
H249	H	0.162593	0.098254	0.123834
H250	H	0.662593	0.598254	0.623834
H251	H	0.395851	0.021418	-0.094831
H252	H	0.895851	0.521418	0.405169
