data_functionalizedCrystal
_audit_creation_method	'MofGen! by Chris Wilmer'
_symmetry_space_group_name_H-M	'P1'
_symmetry_Int_Tables_number	1
_symmetry_cell_setting	triclinic
loop_
_symmetry_equiv_pos_as_xyz
  x,y,z
_cell_length_a	10.654554
_cell_length_b	6.394989
_cell_length_c	9.730223
_cell_angle_alpha	89.998443
_cell_angle_beta	89.999030
_cell_angle_gamma	94.507723
loop_
_atom_site_label
_atom_site_type_symbol
_atom_site_fract_x
_atom_site_fract_y
_atom_site_fract_z
O1	O	1.670939	-0.293480	-0.114305
O2	O	1.305757	-0.321427	-0.114301
O3	O	1.493531	-0.003464	-0.114304
O4	O	1.483164	-0.611442	-0.114302
O5	O	1.493529	-0.003472	0.114276
O6	O	1.305755	-0.321435	0.114279
O7	O	1.670937	-0.293488	0.114275
Zn8	Zn	1.488345	-0.307462	0.150569
Zn9	Zn	1.488348	-0.307452	-0.150595
O10	O	1.483162	-0.611450	0.114278
C11	C	1.258936	-0.319377	-0.000011
C12	C	1.119428	-0.313231	-0.000010
C13	C	0.934761	-0.114464	-0.000028
C14	C	1.065844	-0.120237	-0.000014
C15	C	1.041922	-0.500465	-0.000006
C16	C	0.910842	-0.494690	-0.000010
C17	C	0.948573	0.105058	-0.000040
C18	C	1.079656	0.099285	-0.000026
C19	C	1.717757	-0.295538	-0.000018
C20	C	1.857265	-0.301683	-0.000028
C21	C	1.491481	0.074383	-0.000019
C22	C	1.485216	0.310709	-0.000020
N23	N	1.488353	-0.307468	0.356105
N24	N	1.488351	-0.307429	-0.356131
C25	C	1.571522	-0.166723	0.428030
C26	C	1.571518	-0.166697	0.571913
C27	C	1.405173	-0.448182	0.571934
C28	C	1.405171	-0.448195	0.428053
C29	C	1.667564	-0.004216	0.428019
C30	C	1.667560	-0.004190	0.571902
H31	H	1.120538	0.181991	-0.095688
C32	C	1.314804	-0.600636	0.650230
C33	C	1.236180	-0.488131	0.732848
C34	C	1.152927	-0.628504	0.805005
H35	H	1.265149	-0.684522	0.586944
H36	H	1.361325	-0.688270	0.706446
H37	H	1.189664	-0.400532	0.676637
H38	H	1.285800	-0.404251	0.796160
H39	H	1.199448	-0.716139	0.861221
H40	H	1.103282	-0.712383	0.741709
H41	H	1.099579	-0.552191	0.861079
H42	H	0.918300	0.190912	0.095614
C43	C	1.314810	-0.601223	0.350211
C44	C	1.241991	-0.724493	0.444019
C45	C	1.158744	-0.865506	0.372361
H46	H	1.261227	-0.525490	0.294076
H47	H	1.361328	-0.689028	0.294115
H48	H	1.195477	-0.636699	0.500091
H49	H	1.295540	-0.800272	0.500157
H50	H	1.205262	-0.953311	0.316266
H51	H	1.105170	-0.789755	0.316229
H52	H	1.109335	-0.949174	0.435999
C53	C	1.636615	0.209997	0.376200
C54	C	1.617687	0.341047	0.488346
C55	C	1.589158	0.538378	0.440663
H56	H	1.704424	0.269628	0.321990
H57	H	1.562272	0.195327	0.322007
H58	H	1.692021	0.355723	0.542516
H59	H	1.549874	0.281483	0.542567
H60	H	1.514815	0.523708	0.386469
H61	H	1.656971	0.597988	0.386452
H62	H	1.576300	0.627313	0.516745
C63	C	1.789843	-0.071781	0.368282
C64	C	1.846315	0.090394	0.287302
C65	C	1.958936	0.028180	0.232221
H66	H	1.845173	-0.102378	0.440832
H67	H	1.772593	-0.193389	0.313274
H68	H	1.863569	0.211965	0.342307
H69	H	1.791021	0.121012	0.214731
H70	H	1.941687	-0.093428	0.177213
H71	H	2.014256	-0.002417	0.304780
H72	H	1.997261	0.138197	0.177260
C73	C	1.796862	-0.051615	0.623800
C74	C	1.887168	0.101853	0.575613
C75	C	2.006290	0.058224	0.623381
H76	H	1.797040	-0.051542	0.721423
H77	H	1.816241	-0.185388	0.591242
H78	H	1.867794	0.235591	0.608179
H79	H	1.887030	0.101804	0.477996
H80	H	2.025669	-0.075549	0.590822
H81	H	2.006454	0.058296	0.721002
H82	H	2.067578	0.162333	0.590683
H83	H	0.847749	-0.647142	0.000007
H84	H	0.912206	0.174964	-0.098737
H85	H	1.085561	-0.657605	0.000011
H86	H	1.124591	0.165617	0.098673
H87	H	1.635440	0.147561	0.616517
