data_functionalizedCrystal
_audit_creation_method	'MofGen! by Chris Wilmer'
_symmetry_space_group_name_H-M	'P1'
_symmetry_Int_Tables_number	1
_symmetry_cell_setting	triclinic
loop_
_symmetry_equiv_pos_as_xyz
  x,y,z
_cell_length_a	19.077068
_cell_length_b	21.395364
_cell_length_c	21.395355
_cell_angle_alpha	90.025298
_cell_angle_beta	92.279051
_cell_angle_gamma	87.656234
loop_
_atom_site_label
_atom_site_type_symbol
_atom_site_fract_x
_atom_site_fract_y
_atom_site_fract_z
Zn1	Zn	-0.279975	-0.947861	-0.364277
Zn2	Zn	0.220025	-0.447861	0.135723
Zn3	Zn	-0.397657	-0.943561	-0.263705
Zn4	Zn	0.102343	-0.443561	0.236295
Zn5	Zn	-0.280009	-0.843075	-0.259514
Zn6	Zn	0.219991	-0.343075	0.240486
Zn7	Zn	-0.397673	-0.838842	-0.368444
Zn8	Zn	0.102327	-0.338842	0.131556
O9	O	-0.338828	-0.893335	-0.313985
O10	O	0.161172	-0.393335	0.186015
O11	O	-0.295564	-1.034969	-0.350946
O12	O	0.204436	-0.534969	0.149054
O13	O	-0.382058	-0.930203	-0.175471
O14	O	0.117942	-0.430203	0.324529
O15	O	-0.181512	-0.860546	-0.269913
O16	O	0.318488	-0.360546	0.230087
O17	O	-0.382025	-1.031810	-0.277056
O18	O	0.117975	-0.531810	0.222944
O19	O	-0.181486	-0.937532	-0.346883
O20	O	0.318514	-0.437532	0.153117
O21	O	-0.295623	-0.856376	-0.172392
O22	O	0.204377	-0.356376	0.327608
O23	O	-0.295639	-0.754835	-0.273954
O24	O	0.204361	-0.254835	0.226046
O25	O	-0.382052	-0.853332	-0.455569
O26	O	0.117948	-0.353332	0.044431
O27	O	-0.382086	-0.751725	-0.353984
O28	O	0.117914	-0.251725	0.146016
O29	O	-0.295580	-0.933428	-0.452508
O30	O	0.204420	-0.433428	0.047492
O31	O	-0.496152	-0.926099	-0.281096
O32	O	0.003848	-0.426099	0.218904
O33	O	-0.496164	-0.849162	-0.358048
O34	O	0.003836	-0.349162	0.141952
C35	C	-0.338868	-0.730546	-0.313967
C36	C	0.161132	-0.230546	0.186033
C37	C	-0.338902	-0.660903	-0.313974
C38	C	0.161098	-0.160903	0.186026
C39	C	-0.293957	-0.629855	-0.352513
C40	C	0.206043	-0.129855	0.147487
C41	C	-0.293941	-0.564420	-0.352514
C42	C	0.206059	-0.064420	0.147486
C43	C	-0.338882	-0.530035	-0.313983
C44	C	0.161118	-0.030035	0.186017
C45	C	-0.383830	-0.561092	-0.275437
C46	C	0.116170	-0.061092	0.224563
C47	C	-0.383840	-0.626525	-0.275432
C48	C	0.116160	-0.126525	0.224568
C49	C	-0.402270	-0.424047	-0.311209
C50	C	0.097730	0.075953	0.188791
C51	C	-0.402261	-0.358615	-0.311218
C52	C	0.097739	0.141385	0.188782
C53	C	-0.338850	-0.328216	-0.313993
C54	C	0.161150	0.171784	0.186007
C55	C	-0.275446	-0.363258	-0.316773
C56	C	0.224554	0.136742	0.183227
C57	C	-0.275456	-0.428692	-0.316768
C58	C	0.224544	0.071308	0.183232
C59	C	-0.338875	-0.459083	-0.313984
C60	C	0.161125	0.040917	0.186016
C61	C	-0.293883	-0.226216	-0.352535
C62	C	0.206117	0.273784	0.147465
C63	C	-0.293866	-0.160780	-0.352532
C64	C	0.206134	0.339220	0.147468
C65	C	-0.383761	-0.157453	-0.275458
C66	C	0.116239	0.342547	0.224542
C67	C	-0.383773	-0.222888	-0.275458
C68	C	0.116227	0.277112	0.224542
C69	C	-0.338835	-0.257265	-0.314000
C70	C	0.161165	0.242735	0.186000
C71	C	-0.521696	-0.886721	-0.320492
C72	C	-0.021696	-0.386721	0.179508
C73	C	-0.599927	-0.883950	-0.323297
C74	C	-0.099927	-0.383950	0.176703
C75	C	-0.636651	-0.922735	-0.284584
C76	C	-0.136651	-0.422735	0.215416
C77	C	-0.710158	-0.920132	-0.287225
C78	C	-0.210158	-0.420132	0.212775
C79	C	-0.746940	-0.878739	-0.328578
C80	C	-0.246940	-0.378739	0.171422
C81	C	-0.710211	-0.839952	-0.367296
C82	C	-0.210211	-0.339952	0.132704
C83	C	-0.636705	-0.842559	-0.364657
C84	C	-0.136705	-0.342559	0.135343
C85	C	-0.966781	-0.866647	-0.340767
C86	C	-0.466781	-0.366647	0.159233
C87	C	-1.040291	-0.864041	-0.343401
C88	C	-0.540291	-0.364041	0.156599
C89	C	-1.040234	-0.944222	-0.263331
C90	C	-0.540234	-0.444222	0.236669
C91	C	-0.966727	-0.946823	-0.260693
C92	C	-0.466727	-0.446823	0.239307
C93	C	-0.930004	-0.908038	-0.299413
C94	C	-0.430004	-0.408038	0.200587
N95	N	-0.822076	-0.876076	-0.331278
N96	N	-0.322076	-0.376076	0.168722
N97	N	-0.854870	-0.910705	-0.296716
N98	N	-0.354870	-0.410705	0.203284
C99	C	-0.155247	-0.899991	-0.307466
C100	C	0.344753	-0.399991	0.192534
C101	C	-0.077015	-0.902827	-0.304688
C102	C	0.422985	-0.402827	0.195312
C103	C	-0.338814	-0.893387	-0.477408
C104	C	0.161186	-0.393387	0.022592
C105	C	-0.338808	-0.893409	-0.547049
C106	C	0.161192	-0.393409	-0.047049
C107	C	-0.338798	-0.056759	-0.314001
C108	C	0.161202	0.443241	0.185999
C109	C	-0.338806	-0.126400	-0.314000
C110	C	0.161194	0.373600	0.186000
C111	C	-0.293780	-0.935114	-0.578169
C112	C	0.206220	-0.435114	-0.078169
C113	C	-0.293750	-0.935114	-0.643603
C114	C	0.206250	-0.435114	-0.143603
C115	C	-0.338760	-0.893416	-0.677915
C116	C	0.161240	-0.393416	-0.177915
C117	C	-0.383791	-0.851704	-0.646788
C118	C	0.116209	-0.351704	-0.146788
C119	C	-0.383815	-0.851701	-0.581354
C120	C	0.116185	-0.351701	-0.081354
C121	C	-0.402136	-0.886177	-0.783845
C122	C	0.097864	-0.386177	-0.283845
C123	C	-0.402113	-0.886185	-0.849278
C124	C	0.097887	-0.386185	-0.349278
C125	C	-0.338686	-0.893423	-0.879734
C126	C	0.161314	-0.393423	-0.379734
C127	C	-0.275279	-0.900666	-0.844750
C128	C	0.224721	-0.400666	-0.344750
C129	C	-0.275303	-0.900663	-0.779316
C130	C	0.224697	-0.400663	-0.279316
C131	C	-0.338739	-0.893415	-0.748867
C132	C	0.161261	-0.393415	-0.248867
C133	C	-0.293621	-0.935129	-0.981805
C134	C	0.206379	-0.435129	-0.481805
C135	C	-0.293590	-0.935125	-1.047241
C136	C	0.206410	-0.435125	-0.547241
C137	C	-0.383637	-0.851718	-1.050424
C138	C	0.116363	-0.351718	-0.550424
C139	C	-0.383663	-0.851719	-0.984989
C140	C	0.116337	-0.351719	-0.484989
C141	C	-0.338655	-0.893428	-0.950684
C142	C	0.161345	-0.393428	-0.450684
C143	C	-0.338792	-0.893320	-0.151196
C144	C	0.161208	-0.393320	0.348804
C145	C	-0.338600	-0.893426	-0.081548
C146	C	0.161400	-0.393426	0.418452
H147	H	-0.420375	-0.248167	-0.244078
H148	H	0.079625	0.251833	0.255922
N149	N	-0.206862	-0.908480	-0.877588
N150	N	0.293138	-0.408480	-0.377588
H151	H	-0.216465	-0.907381	-0.924347
H152	H	0.283535	-0.407381	-0.424347
H153	H	-0.175406	-0.873389	-0.865009
H154	H	0.324594	-0.373389	-0.365009
N155	N	-0.927056	-0.991473	-0.216097
N156	N	-0.427056	-0.491473	0.283903
H157	H	-0.896508	-1.021575	-0.240496
H158	H	-0.396508	-0.521575	0.259504
H159	H	-0.896646	-0.967060	-0.185956
H160	H	-0.396646	-0.467060	0.314044
H161	H	-0.420421	-0.533092	-0.244064
H162	H	0.079579	-0.033092	0.255936
H163	H	-0.453911	-0.448792	-0.308949
H164	H	0.046089	0.051208	0.191051
H165	H	-0.420441	-0.651804	-0.244048
H166	H	0.079559	-0.151804	0.255952
N167	N	-0.207072	-0.466481	-0.319755
N168	N	0.292928	0.033519	0.180245
H169	H	-0.200419	-0.493852	-0.281355
H170	H	0.299581	0.006148	0.218645
H171	H	-0.208127	-0.493577	-0.358420
H172	H	0.291873	0.006423	0.141580
H173	H	-0.223811	-0.338509	-0.319033
H174	H	0.276189	0.161491	0.180967
N175	N	-0.749877	-0.795302	-0.411896
N176	N	-0.249877	-0.295302	0.088104
H177	H	-0.737049	-0.805466	-0.456212
H178	H	-0.237049	-0.305466	0.043788
H179	H	-0.802002	-0.799553	-0.407639
H180	H	-0.302002	-0.299553	0.092361
N181	N	-0.245416	-0.263300	-0.394101
N182	N	0.254584	0.236700	0.105899
H183	H	-0.216935	-0.233699	-0.418513
H184	H	0.283065	0.266301	0.081487
H185	H	-0.212808	-0.291632	-0.367483
H186	H	0.287192	0.208368	0.132517
N187	N	-1.079843	-0.986060	-0.221581
N188	N	-0.579843	-0.486060	0.278419
H189	H	-1.045388	-1.012678	-0.194985
H190	H	-0.545388	-0.512678	0.305015
H191	H	-1.110391	-0.959490	-0.193656
H192	H	-0.610391	-0.459490	0.306344
N193	N	-0.206916	-0.908467	-0.741590
N194	N	0.293084	-0.408467	-0.241590
H195	H	-0.200338	-0.870535	-0.714191
H196	H	0.299662	-0.370535	-0.214191
H197	H	-0.207905	-0.947062	-0.714527
H198	H	0.292095	-0.447062	-0.214527
H199	H	-0.256918	-0.969085	-1.072577
H200	H	0.243082	-0.469085	-0.572577
N201	N	-1.079966	-0.819394	-0.388005
N202	N	-0.579966	-0.319394	0.111995
H203	H	-1.045549	-0.795220	-0.412135
H204	H	-0.545549	-0.295220	0.087865
H205	H	-1.110418	-0.843807	-0.418112
H206	H	-0.610418	-0.343807	0.081888
H207	H	-0.936887	-0.835065	-0.372293
H208	H	-0.436887	-0.335065	0.127707
N209	N	-0.597092	-0.800729	-0.406414
N210	N	-0.097092	-0.300729	0.093586
H211	H	-0.631546	-0.774110	-0.433011
H212	H	-0.131546	-0.274110	0.066989
H213	H	-0.566644	-0.772825	-0.379791
H214	H	-0.066644	-0.272825	0.120209
H215	H	-0.257131	-0.969076	-0.550241
H216	H	0.242869	-0.469076	-0.050241
H217	H	-0.257079	-0.969073	-0.668946
H218	H	0.242921	-0.469073	-0.168946
N219	N	-0.245079	-0.980110	-0.944798
N220	N	0.254921	-0.480110	-0.444798
H221	H	-0.216544	-1.006528	-0.974444
H222	H	0.283456	-0.506528	-0.474444
H223	H	-0.212525	-0.955786	-0.916473
H224	H	0.287475	-0.455786	-0.416473
N225	N	-0.432237	-0.120378	-0.233898
N226	N	0.067763	0.379622	0.266102
H227	H	-0.421231	-0.132147	-0.188756
H228	H	0.078769	0.367853	0.311244
H229	H	-0.425388	-0.074226	-0.239799
H230	H	0.074612	0.425774	0.260201
H231	H	-0.420279	-0.817761	-1.078360
H232	H	0.079721	-0.317761	-0.578360
N233	N	-0.245374	-0.127289	-0.394089
N234	N	0.254626	0.372711	0.105911
H235	H	-0.216908	-0.158998	-0.418501
H236	H	0.283092	0.341002	0.081499
H237	H	-0.274061	-0.099099	-0.424065
H238	H	0.225939	0.400901	0.075935
H239	H	-0.420334	-0.817763	-0.959651
H240	H	0.079666	-0.317763	-0.459651
N241	N	-0.245482	-0.666925	-0.394081
N242	N	0.254518	-0.166925	0.105919
H243	H	-0.195177	-0.657367	-0.382632
H244	H	0.304823	-0.157367	0.117368
H245	H	-0.252361	-0.713077	-0.388217
H246	H	0.247639	-0.213077	0.111783
N247	N	-0.596982	-0.967378	-0.239979
N248	N	-0.096982	-0.467378	0.260021
H249	H	-0.631403	-0.991555	-0.215857
H250	H	-0.131403	-0.491555	0.284143
H251	H	-0.566434	-0.997444	-0.264415
H252	H	-0.066434	-0.497444	0.235585
N253	N	-0.749768	-0.961965	-0.245470
N254	N	-0.249768	-0.461965	0.254530
H255	H	-0.715313	-0.988579	-0.218870
H256	H	-0.215313	-0.488579	0.281130
H257	H	-0.780316	-0.935390	-0.217550
H258	H	-0.280316	-0.435390	0.282450
N259	N	-0.470497	-0.878377	-0.887008
N260	N	0.029503	-0.378377	-0.387008
H261	H	-0.510681	-0.873783	-0.857787
H262	H	-0.010681	-0.373783	-0.357787
H263	H	-0.469481	-0.839810	-0.914106
H264	H	0.030519	-0.339810	-0.414106
N265	N	-0.470642	-0.320822	-0.308220
N266	N	0.029358	0.179178	0.191780
H267	H	-0.510813	-0.350007	-0.306452
H268	H	-0.010813	0.149993	0.193548
H269	H	-0.469554	-0.293694	-0.269579
H270	H	0.030446	0.206306	0.230421
N271	N	-0.470552	-0.878378	-0.750999
N272	N	0.029448	-0.378378	-0.250999
H273	H	-0.510715	-0.873799	-0.783088
H274	H	-0.010715	-0.373799	-0.283088
H275	H	-0.477078	-0.916321	-0.724104
H276	H	0.022922	-0.416321	-0.224104
H277	H	-0.420437	-0.817751	-0.674729
H278	H	0.079563	-0.317751	-0.174729
N279	N	-0.432373	-0.806710	-0.547784
N280	N	0.067627	-0.306710	-0.047784
H281	H	-0.460879	-0.780289	-0.579447
H282	H	0.039121	-0.280289	-0.079447
H283	H	-0.464954	-0.831023	-0.521806
H284	H	0.035046	-0.331023	-0.021806
H285	H	-0.257337	-0.539135	-0.383896
H286	H	0.242663	-0.039135	0.116104
