data_functionalizedCrystal
_audit_creation_method	'MofGen! by Chris Wilmer'
_symmetry_space_group_name_H-M	'P1'
_symmetry_Int_Tables_number	1
_symmetry_cell_setting	triclinic
loop_
_symmetry_equiv_pos_as_xyz
  x,y,z
_cell_length_a	17.000383
_cell_length_b	17.019294
_cell_length_c	13.101039
_cell_angle_alpha	89.487532
_cell_angle_beta	86.906869
_cell_angle_gamma	79.506204
loop_
_atom_site_label
_atom_site_type_symbol
_atom_site_fract_x
_atom_site_fract_y
_atom_site_fract_z
O1	O	1.060563	0.023661	-0.087373
O2	O	1.560563	0.523661	0.412627
O3	O	0.828927	0.052154	-0.089873
O4	O	1.328927	0.552154	0.410127
O5	O	0.950689	-0.076820	-0.078495
O6	O	1.450689	0.423180	0.421505
O7	O	0.938800	0.152635	-0.098751
O8	O	1.438800	0.652635	0.401249
O9	O	0.941953	-0.067552	0.091117
O10	O	1.441953	0.432448	0.591117
O11	O	0.820190	0.061423	0.079739
O12	O	1.320190	0.561423	0.579739
O13	O	1.051826	0.032929	0.082240
O14	O	1.551826	0.532929	0.582240
Zn15	Zn	0.934621	0.048647	0.107919
Zn16	Zn	1.434621	0.548647	0.607919
Zn17	Zn	0.946132	0.036436	-0.115552
Zn18	Zn	1.446132	0.536436	0.384448
O19	O	0.930064	0.161903	0.070861
O20	O	1.430064	0.661903	0.570861
C21	C	0.794910	0.058319	-0.005200
C22	C	1.294910	0.558319	0.494800
C23	C	0.706567	0.062869	-0.005596
C24	C	1.206567	0.562869	0.494404
C25	C	0.206452	0.092249	-0.008228
C26	C	0.706452	0.592249	0.491772
C27	C	0.289460	0.087968	-0.007850
C28	C	0.789460	0.587968	0.492150
C29	C	0.340202	0.013650	-0.001281
C30	C	0.840202	0.513650	0.498719
C31	C	0.307932	-0.056390	0.004899
C32	C	0.807932	0.443610	0.504899
C33	C	0.224925	-0.052109	0.004513
C34	C	0.724925	0.447891	0.504513
C35	C	0.591290	-0.002889	0.000197
C36	C	1.091290	0.497111	0.500197
C37	C	0.674302	-0.007166	0.000586
C38	C	1.174302	0.492834	0.500586
C39	C	0.655825	0.137193	-0.012164
C40	C	1.155825	0.637193	0.487836
C41	C	0.572817	0.141468	-0.012544
C42	C	1.072817	0.641468	0.487456
C43	C	0.540554	0.071427	-0.006369
C44	C	1.040554	0.571427	0.493631
C45	C	0.425050	0.009272	-0.000890
C46	C	0.925050	0.509272	0.499110
C47	C	0.455708	0.075806	-0.006767
C48	C	0.955708	0.575806	0.493233
C49	C	0.945698	-0.101400	0.008888
C50	C	1.445698	0.398600	0.508888
C51	C	0.943832	-0.188449	0.016567
C52	C	1.443832	0.311551	0.516567
C53	C	0.947719	-0.234392	-0.072281
C54	C	1.447719	0.265608	0.427719
C55	C	0.945961	-0.316182	-0.065063
C56	C	1.445961	0.183818	0.434937
C57	C	0.940321	-0.352029	0.031004
C58	C	1.440321	0.147971	0.531004
C59	C	0.936431	-0.306079	0.119858
C60	C	1.436431	0.193921	0.619858
C61	C	0.938183	-0.224289	0.112639
C62	C	1.438183	0.275711	0.612639
C63	C	0.934785	-0.598728	0.057426
C64	C	1.434785	-0.098728	0.557426
C65	C	0.933034	-0.680525	0.064638
C66	C	1.433034	-0.180525	0.564638
C67	C	0.942563	-0.690622	-0.120283
C68	C	1.442563	-0.190622	0.379717
C69	C	0.944320	-0.608831	-0.127494
C70	C	1.444320	-0.108831	0.372506
C71	C	0.940426	-0.562888	-0.038640
C72	C	1.440426	-0.062888	0.461360
C73	C	0.938525	-0.435632	0.038384
C74	C	1.438525	0.064368	0.538384
C75	C	0.942215	-0.479285	-0.046021
C76	C	1.442215	0.020715	0.453979
C77	C	1.085843	0.026765	-0.002435
C78	C	1.585843	0.526765	0.497565
C79	C	1.174187	0.022214	-0.002046
C80	C	1.674187	0.522214	0.497954
C81	C	0.935055	0.186484	-0.016524
C82	C	1.435055	0.686484	0.483476
C83	C	0.936922	0.273532	-0.024209
C84	C	1.436922	0.773532	0.475791
N85	N	0.926772	0.056980	0.260432
N86	N	1.426772	0.556980	0.760432
N87	N	0.953988	0.028097	-0.268065
N88	N	1.453988	0.528097	0.231935
C89	C	0.916092	0.068325	0.468474
C90	C	1.416092	0.568325	0.968474
C91	C	0.964665	0.016755	0.523899
C92	C	1.464665	0.516755	1.023899
C93	C	0.958723	0.023067	0.639661
C94	C	1.458723	0.523067	1.139661
C95	C	0.922033	0.062013	0.352702
C96	C	1.422033	0.562013	0.852702
H97	H	0.165142	0.152767	-0.013569
H98	H	0.665142	0.652767	0.486431
F99	F	0.323795	0.162509	-0.014435
F100	F	0.823795	0.662509	0.485565
H101	H	0.870048	0.117212	0.507958
H102	H	1.370048	0.617212	1.007958
H103	H	0.945732	-0.728038	-0.192623
H104	H	1.445732	-0.228038	0.307377
H105	H	1.010713	-0.032135	0.484410
H106	H	1.510713	0.467865	0.984410
H107	H	0.531508	0.201985	-0.017895
H108	H	1.031508	0.701985	0.482105
F109	F	0.690167	0.211729	-0.018741
F110	F	1.190167	0.711729	0.481259
H111	H	0.715615	-0.067687	0.005930
H112	H	1.215615	0.432313	0.505930
H113	H	0.931833	-0.335271	0.198077
H114	H	1.431833	0.164729	0.698077
H115	H	0.946802	-0.450094	-0.124238
H116	H	1.446802	0.049906	0.375762
F117	F	0.556966	-0.077435	0.006749
F118	F	1.056966	0.422565	0.506749
H119	H	0.349253	-0.116901	0.010241
H120	H	0.849253	0.383099	0.510241
F121	F	0.401705	0.154896	-0.013764
F122	F	0.901705	0.654896	0.486236
F123	F	0.190587	-0.126650	0.011093
F124	F	0.690587	0.373350	0.511093
F125	F	0.927035	-0.718674	0.166890
F126	F	1.427035	-0.218674	0.666890
F127	F	0.953728	-0.196250	-0.174529
F128	F	1.453728	0.303750	0.325471
F129	F	0.479059	-0.069819	0.006109
F130	F	0.979059	0.430181	0.506109
H131	H	0.949130	-0.353587	-0.137412
H132	H	1.449130	0.146413	0.362588
H133	H	0.935007	-0.186881	0.184988
H134	H	1.435007	0.313119	0.684988
F135	F	0.950325	-0.570687	-0.229741
F136	F	1.450325	-0.070687	0.270259
H137	H	0.931629	-0.561334	0.129778
H138	H	1.431629	-0.061334	0.629778
H139	H	0.933936	-0.464828	0.116602
H140	H	1.433936	0.035172	0.616602
