data_functionalizedCrystal
_audit_creation_method	'MofGen! by Chris Wilmer'
_symmetry_space_group_name_H-M	'P1'
_symmetry_Int_Tables_number	1
_symmetry_cell_setting	triclinic
loop_
_symmetry_equiv_pos_as_xyz
  x,y,z
_cell_length_a	17.000371
_cell_length_b	27.731996
_cell_length_c	15.500215
_cell_angle_alpha	93.210307
_cell_angle_beta	93.371385
_cell_angle_gamma	79.110317
loop_
_atom_site_label
_atom_site_type_symbol
_atom_site_fract_x
_atom_site_fract_y
_atom_site_fract_z
O1	O	1.059160	0.019292	0.071952
O2	O	0.827207	0.036845	0.071956
O3	O	0.950408	-0.042605	0.071935
O4	O	0.935959	0.098742	0.071973
O5	O	0.943843	-0.046336	-0.071955
O6	O	0.820642	0.033114	-0.071934
O7	O	1.052595	0.015561	-0.071938
Cu8	Cu	0.936019	0.023996	-0.085075
Cu9	Cu	0.943783	0.028409	0.085092
O10	O	0.929394	0.095010	-0.071917
C11	C	0.794259	0.035922	0.000011
C12	C	0.705865	0.038726	0.000012
C13	C	0.946829	-0.062467	-0.000013
C14	C	0.945934	-0.116089	-0.000022
C15	C	0.674382	-0.004417	-0.000001
C16	C	0.591326	-0.001780	0.000006
C17	C	0.539754	0.044001	0.000020
C18	C	0.571241	0.087147	0.000035
C19	C	0.654296	0.084509	0.000035
C20	C	0.288480	0.054189	0.000028
C21	C	0.205420	0.056823	0.000026
C22	C	0.225511	-0.032104	-0.000001
C23	C	0.308566	-0.034737	-0.000007
C24	C	0.340047	0.008409	0.000013
C25	C	0.454857	0.046697	0.000024
C26	C	0.424942	0.005712	0.000015
C27	C	0.943889	-0.446557	0.078455
C28	C	0.940494	-0.648086	0.078471
O29	O	0.943064	-0.672408	0.145177
N30	N	0.936494	-0.675321	0.000037
C31	C	0.933337	-0.652170	-0.078407
O32	O	0.929848	-0.679959	-0.145119
C33	C	0.936726	-0.450642	-0.078421
C34	C	0.940735	-0.423410	0.000018
C35	C	0.947896	-0.419325	0.156888
C36	C	0.948749	-0.368946	0.156883
C37	C	0.945595	-0.345799	0.078446
C38	C	0.941588	-0.373031	0.000013
C39	C	0.933563	-0.427491	-0.156863
C40	C	0.934409	-0.377105	-0.156860
C41	C	0.938418	-0.349874	-0.078421
C42	C	0.939286	-0.299506	-0.078428
N43	N	0.943286	-0.272270	0.000005
C44	C	0.946441	-0.295417	0.078443
C45	C	0.931560	-0.757976	-0.078393
C46	C	0.930714	-0.808358	-0.078390
C47	C	0.937870	-0.804270	0.078487
C48	C	0.938721	-0.753887	0.078483
C49	C	0.935560	-0.730741	0.000040
C50	C	0.948233	-0.189619	0.078427
C51	C	0.949089	-0.139236	0.078415
C52	C	0.941929	-0.143328	-0.078461
C53	C	0.941077	-0.193707	-0.078450
C54	C	0.944226	-0.216850	0.000001
O55	O	0.936709	-0.275150	-0.145099
O56	O	0.949911	-0.267618	0.145145
C57	C	0.943036	-0.496935	0.078460
C58	C	0.939029	-0.524167	0.000027
C59	C	0.935874	-0.501020	-0.078410
C60	C	0.938183	-0.574549	0.000031
C61	C	0.941337	-0.597696	0.078468
C62	C	0.945337	-0.570461	0.156902
C63	C	0.946190	-0.520082	0.156897
C64	C	0.931874	-0.528255	-0.156844
C65	C	0.931022	-0.578634	-0.156833
C66	C	0.934177	-0.601781	-0.078396
C67	C	1.085544	0.016484	0.000008
C68	C	1.173938	0.013680	0.000013
C69	C	0.932973	0.114873	0.000033
C70	C	0.933868	0.168495	0.000047
N71	N	0.930564	0.020892	-0.204761
C72	C	0.976428	0.047016	-0.250027
C73	C	0.972314	0.044665	-0.340600
C74	C	0.922330	0.016192	-0.385907
C75	C	0.876464	-0.009936	-0.340634
C76	C	0.880584	-0.007587	-0.250062
C77	C	0.907498	0.007731	-0.659377
C78	C	0.903380	0.005385	-0.749956
C79	C	0.999231	0.059986	-0.749915
C80	C	1.003343	0.062334	-0.659341
C81	C	0.957480	0.036205	-0.614077
C82	C	0.918121	0.013789	-0.478488
C83	C	0.961694	0.038605	-0.521498
N84	N	0.949244	0.031510	0.204779
H85	H	0.565698	-0.036911	-0.000004
N86	N	0.361240	-0.081503	-0.000032
N87	N	0.355920	-0.112551	-0.060695
H88	H	0.393121	-0.145580	-0.060716
N89	N	0.825394	-0.039012	-0.386912
N90	N	0.751569	-0.029829	-0.376806
H91	H	0.715496	-0.050363	-0.409489
H92	H	0.927462	-0.830527	-0.142263
N93	N	0.727059	-0.051182	-0.000035
N94	N	0.721738	-0.082229	-0.060699
H95	H	0.758941	-0.115258	-0.060724
H96	H	0.870154	-0.013546	-0.622534
N97	N	0.193340	-0.076169	-0.000024
N98	N	0.119184	-0.073810	-0.000025
H99	H	0.096463	-0.104933	-0.000039
H100	H	1.002393	0.061786	-0.484606
N101	N	0.936975	-0.221520	-0.158577
N102	N	0.878513	-0.210407	-0.211088
H103	H	0.875607	-0.230046	-0.267679
H104	H	0.679927	0.119640	0.000041
H105	H	0.163430	0.094105	0.000034
N106	N	0.951147	-0.442964	0.237019
N107	N	1.007641	-0.477460	0.254522
H108	H	1.009946	-0.494153	0.311121
N109	N	0.320617	0.098265	0.000055
N110	N	0.274558	0.139136	0.000068
H111	H	0.297256	0.170267	0.000088
N112	N	0.852337	-0.023713	-0.796232
N113	N	0.881548	-0.058309	-0.846777
H114	H	0.845501	-0.078860	-0.879460
H115	H	1.009663	0.065937	-0.377452
N116	N	0.518553	0.133907	0.000063
N117	N	0.444399	0.136257	0.000065
H118	H	0.407188	0.169282	0.000084
H119	H	0.952355	-0.117066	0.142293
N120	N	0.941110	-0.827918	0.158613
N121	N	0.997594	-0.862420	0.176113
H122	H	0.999881	-0.879123	0.232699
N123	N	0.867060	-0.015286	-0.524785
N124	N	0.811881	0.004512	-0.575334
H125	H	0.775820	-0.016022	-0.608036
H126	H	0.466936	-0.031562	0.000009
H127	H	0.412857	0.083972	0.000034
N128	N	0.926918	-0.606454	-0.236955
N129	N	0.926148	-0.651435	-0.236952
H130	H	0.923242	-0.671081	-0.293536
N131	N	0.928648	-0.504623	-0.236978
N132	N	0.925075	-0.528951	-0.306996
H133	H	0.922800	-0.512263	-0.363597
H134	H	1.017126	0.070205	-0.213145
H135	H	0.950793	-0.208455	0.142309
N136	N	0.833758	-0.034284	-0.203814
N137	N	0.843421	-0.080021	-0.213943
H138	H	0.810357	-0.098880	-0.181278
N139	N	0.952850	-0.341135	0.237009
N140	N	1.011306	-0.352245	0.289527
H141	H	1.014202	-0.332606	0.346121
N142	N	0.942819	-0.726081	0.158613
N143	N	0.945641	-0.746761	0.228637
H144	H	0.948536	-0.727125	0.285233
H145	H	0.939364	-0.124473	-0.142323
H146	H	0.928989	-0.739135	-0.142274
N147	N	1.046093	0.086670	-0.796139
N148	N	1.090722	0.112087	-0.755676
H149	H	1.123824	0.130933	-0.788320
H150	H	0.930300	-0.449655	-0.220737
H151	H	0.949454	-0.497914	0.220770
N152	N	0.931164	-0.353460	-0.236989
N153	N	0.872511	-0.353608	-0.289499
H154	H	0.870219	-0.336909	-0.346090
N155	N	0.948570	-0.594119	0.237017
N156	N	0.947812	-0.639103	0.236997
H157	H	0.950093	-0.655815	0.293574
N158	N	1.054376	0.091440	-0.613079
N159	N	1.095305	0.114775	-0.653506
H160	H	1.131337	0.135339	-0.620834
