data_functionalizedCrystal
_audit_creation_method	'MofGen! by Chris Wilmer'
_symmetry_space_group_name_H-M	'P1'
_symmetry_Int_Tables_number	1
_symmetry_cell_setting	triclinic
loop_
_symmetry_equiv_pos_as_xyz
  x,y,z
_cell_length_a	12.759401
_cell_length_b	12.759400
_cell_length_c	12.759393
_cell_angle_alpha	89.969553
_cell_angle_beta	89.981504
_cell_angle_gamma	90.013326
loop_
_atom_site_label
_atom_site_type_symbol
_atom_site_fract_x
_atom_site_fract_y
_atom_site_fract_z
Zn1	Zn	1.606267	-0.418200	-0.593990
Zn2	Zn	1.606166	-0.593919	-0.418313
Zn3	Zn	1.430569	-0.418255	-0.418329
Zn4	Zn	1.430562	-0.593838	-0.593955
O5	O	1.518391	-0.506053	-0.506147
O6	O	1.753274	-0.441520	-0.570694
O7	O	1.582833	-0.570673	-0.271294
O8	O	1.453920	-0.271226	-0.441652
O9	O	1.753200	-0.570620	-0.441625
O10	O	1.583005	-0.271186	-0.570709
O11	O	1.453822	-0.441614	-0.271306
O12	O	1.283547	-0.441535	-0.441618
O13	O	1.453909	-0.570482	-0.740980
O14	O	1.283542	-0.570536	-0.570649
O15	O	1.582998	-0.441442	-0.741006
O16	O	1.582826	-0.740929	-0.441591
O17	O	1.453811	-0.740870	-0.570634
C18	C	1.245423	-0.506033	-0.506132
C19	C	1.128647	-0.506050	-0.506151
C20	C	1.073810	-0.573328	-0.573227
C21	C	0.964086	-0.573342	-0.573238
C22	C	0.964045	-0.438796	-0.439089
C23	C	1.073767	-0.438778	-0.439084
C24	C	1.073832	-0.651010	-0.650673
C25	C	0.964108	-0.651024	-0.650685
C26	C	1.518336	-0.779020	-0.506130
C27	C	1.518408	-0.895797	-0.506158
C28	C	1.585589	-0.950558	-0.573413
C29	C	1.585638	-1.060282	-0.573439
C30	C	1.451322	-1.060474	-0.438945
C31	C	1.451269	-0.950752	-0.438926
C32	C	1.652728	-0.895603	-0.640645
C33	C	1.719915	-0.950364	-0.707905
C34	C	1.719964	-1.060088	-0.707931
C35	C	1.652826	-1.115051	-0.640697
C36	C	1.792424	-0.506073	-0.506161
C37	C	1.909201	-0.506082	-0.506168
C38	C	1.518464	-0.505947	-0.780180
C39	C	1.518496	-0.505902	-0.896957
C40	C	1.518475	-0.232019	-0.506186
C41	C	1.518510	-0.115243	-0.506203
C42	C	1.585722	-0.438704	-0.951834
C43	C	1.585747	-0.438666	-1.061558
C44	C	1.451316	-0.573033	-1.061518
C45	C	1.451287	-0.573064	-0.951796
C46	C	1.663337	-0.361131	-0.951858
C47	C	1.663362	-0.361093	-1.061582
C48	C	1.518378	-0.506083	-0.233179
C49	C	1.518550	-0.505832	-0.116403
H50	H	0.930109	-0.621980	-0.728036
C51	C	1.378241	-0.645994	-1.120871
C52	C	1.319343	-0.704834	-1.049323
C53	C	1.252005	-0.772050	-1.103958
H54	H	1.418307	-0.691855	-1.163672
H55	H	1.332430	-0.605809	-1.163655
H56	H	1.365148	-0.745016	-1.006557
H57	H	1.279255	-0.659001	-1.006520
H58	H	1.206194	-0.731864	-1.146742
H59	H	1.292080	-0.817903	-1.146757
H60	H	1.212028	-0.811973	-1.055421
C61	C	0.904270	-0.365886	-0.366306
C62	C	0.796442	-0.380318	-0.380646
C63	C	0.741348	-0.313184	-0.313601
H64	H	0.922135	-0.295267	-0.381729
H65	H	0.922164	-0.381193	-0.295666
H66	H	0.778555	-0.365005	-0.451270
H67	H	0.778545	-0.450924	-0.365216
H68	H	0.759242	-0.328490	-0.242962
H69	H	0.759222	-0.242569	-0.329030
H70	H	0.668181	-0.322974	-0.323315
C71	C	1.378555	-1.120334	-0.365986
C72	C	1.393002	-1.228145	-0.380378
C73	C	1.325998	-1.283318	-0.313173
H74	H	1.307904	-1.102521	-0.381230
H75	H	1.393971	-1.102451	-0.295382
H76	H	1.377579	-1.246020	-0.450966
H77	H	1.463639	-1.245988	-0.365126
H78	H	1.341414	-1.265436	-0.242570
H79	H	1.255351	-1.265497	-0.328423
H80	H	1.335798	-1.356473	-0.322922
C81	C	1.792841	-1.119411	-0.781125
C82	C	1.769921	-1.092638	-0.885050
C83	C	1.837049	-1.147253	-0.952503
H84	H	1.783325	-1.192645	-0.771657
H85	H	1.863449	-1.101369	-0.765864
H86	H	1.699331	-1.110688	-0.900306
H87	H	1.779443	-1.019414	-0.894552
H88	H	1.907656	-1.129210	-0.937242
H89	H	1.827527	-1.220483	-0.943025
H90	H	1.821513	-1.129088	-1.023022
C91	C	1.634086	-0.252684	-0.912228
C92	C	1.534143	-0.226149	-0.948917
C93	C	1.507156	-0.126266	-0.912420
H94	H	1.683638	-0.202937	-0.937034
H95	H	1.634004	-0.252683	-0.837769
H96	H	1.534233	-0.226142	-1.023361
H97	H	1.484569	-0.275869	-0.924115
H98	H	1.507074	-0.126264	-0.837961
H99	H	1.556715	-0.076527	-0.937228
H100	H	1.439339	-0.108253	-0.937300
C101	C	1.378159	-0.891419	-0.365971
C102	C	1.274213	-0.918186	-0.388753
C103	C	1.206830	-0.863557	-0.321565
H104	H	1.387601	-0.818187	-0.375530
H105	H	1.393511	-0.909454	-0.295375
H106	H	1.258866	-0.900143	-0.459332
H107	H	1.264738	-0.991408	-0.379188
H108	H	1.222182	-0.881593	-0.250969
H109	H	1.216281	-0.790328	-0.331130
H110	H	1.136296	-0.881718	-0.337007
C111	C	1.792761	-0.890507	-0.780788
C112	C	1.778362	-0.782695	-0.766353
C113	C	1.845460	-0.727525	-0.833467
H114	H	1.777423	-0.908319	-0.851412
H115	H	1.863391	-0.908392	-0.765464
H116	H	1.707749	-0.764817	-0.781684
H117	H	1.793707	-0.764852	-0.695743
H118	H	1.916089	-0.745411	-0.818144
H119	H	1.830116	-0.745346	-0.904087
H120	H	1.835706	-0.654370	-0.823676
C121	C	1.378455	-0.646076	-0.892086
C122	C	1.437886	-0.713433	-0.829058
C123	C	1.370823	-0.780698	-0.774031
H124	H	1.338414	-0.686166	-0.940347
H125	H	1.332699	-0.605917	-0.849232
H126	H	1.483624	-0.753588	-0.871908
H127	H	1.477925	-0.673372	-0.780777
H128	H	1.325067	-0.740539	-0.731177
H129	H	1.330785	-0.820781	-0.822300
H130	H	1.411137	-0.826402	-0.731253
H131	H	1.107848	-0.728262	-0.621390
C132	C	1.766469	-0.399990	-0.906666
C133	C	1.834817	-0.425712	-0.988573
C134	C	1.929835	-0.461500	-0.946981
H135	H	1.754098	-0.460294	-0.864761
H136	H	1.796941	-0.346500	-0.864808
H137	H	1.804351	-0.479197	-1.030413
H138	H	1.847218	-0.365424	-1.030485
H139	H	1.960308	-0.408010	-0.905124
H140	H	1.917454	-0.521801	-0.905076
H141	H	1.976224	-0.478947	-1.002548
C142	C	1.624719	-0.258016	-1.107142
C143	C	1.703764	-0.213431	-1.168891
C144	C	1.668191	-0.118491	-1.210895
H145	H	1.607200	-0.211413	-1.051815
H146	H	1.564491	-0.270467	-1.149094
H147	H	1.763973	-0.200976	-1.126941
H148	H	1.721292	-0.260004	-1.224234
H149	H	1.607964	-0.130942	-1.252847
H150	H	1.650673	-0.071898	-1.155562
H151	H	1.721814	-0.088233	-1.252804
H152	H	0.934314	-0.732373	-0.628754
H153	H	1.118412	-0.383987	-0.384472
H154	H	1.652859	-1.204396	-0.640735
H155	H	1.103640	-0.629311	-0.732079
H156	H	1.652698	-0.806260	-0.640630
H157	H	1.744733	-0.382886	-1.091361
