data_functionalizedCrystal
_audit_creation_method	'MofGen! by Chris Wilmer'
_symmetry_space_group_name_H-M	'P1'
_symmetry_Int_Tables_number	1
_symmetry_cell_setting	triclinic
loop_
_symmetry_equiv_pos_as_xyz
  x,y,z
_cell_length_a	19.805407
_cell_length_b	13.032721
_cell_length_c	19.805399
_cell_angle_alpha	82.844098
_cell_angle_beta	90.019573
_cell_angle_gamma	97.204665
loop_
_atom_site_label
_atom_site_type_symbol
_atom_site_fract_x
_atom_site_fract_y
_atom_site_fract_z
Zn1	Zn	1.000535	-0.416068	0.416943
Zn2	Zn	0.986084	-0.590828	0.318130
Zn3	Zn	0.887347	-0.416097	0.303770
Zn4	Zn	0.872952	-0.590772	0.431272
O5	O	0.936729	-0.503441	0.367529
O6	O	1.093333	-0.439261	0.403849
O7	O	0.972963	-0.567684	0.221512
O8	O	0.914433	-0.269853	0.306777
O9	O	1.082717	-0.567656	0.331251
O10	O	0.997592	-0.269832	0.389925
O11	O	0.900421	-0.439310	0.210962
O12	O	0.790722	-0.439257	0.320671
O13	O	0.889899	-0.567562	0.524085
O14	O	0.780146	-0.567590	0.414346
O15	O	0.983634	-0.439207	0.513558
O16	O	0.959005	-0.737060	0.345145
O17	O	0.875887	-0.737019	0.428270
C18	C	0.760875	-0.503421	0.367506
C19	C	0.685642	-0.503438	0.367514
C20	C	0.644800	-0.570361	0.416228
C21	C	0.574112	-0.570363	0.416238
C22	C	0.544265	-0.503446	0.367529
C23	C	0.585113	-0.436515	0.318812
C24	C	0.655800	-0.436508	0.318806
C25	C	0.300037	-0.436538	0.318836
C26	C	0.229344	-0.436551	0.318845
C27	C	0.218349	-0.570393	0.416269
C28	C	0.289036	-0.570386	0.416262
C29	C	0.329878	-0.503452	0.367548
C30	C	0.406526	-0.503449	0.367538
C31	C	0.467618	-0.503453	0.367535
C32	C	0.914334	-0.774958	0.389835
C33	C	0.904816	-0.891114	0.399401
C34	C	0.941733	-0.942886	0.362567
C35	C	0.931896	-1.062939	0.372453
C36	C	1.113270	-0.503462	0.367553
C37	C	1.188502	-0.503471	0.367563
C38	C	0.936773	-0.503375	0.544066
C39	C	0.936791	-0.503347	0.619296
C40	C	0.959230	-0.230864	0.345151
C41	C	0.968819	-0.114708	0.335614
C42	C	0.936731	-0.503431	0.191672
C43	C	0.936868	-0.503165	0.116419
C44	C	0.985600	-0.436510	0.649160
C45	C	0.985609	-0.436479	0.719846
C46	C	0.936813	-0.503293	0.760667
C47	C	0.887999	-0.570133	0.730799
C48	C	0.887987	-0.570157	0.660114
C49	C	0.888045	-0.570036	1.015865
C50	C	0.888062	-0.570008	1.086555
C51	C	0.985668	-0.436358	1.075596
C52	C	0.985656	-0.436382	1.004911
C53	C	0.936840	-0.503218	0.975049
C54	C	0.936830	-0.503249	0.898403
C55	C	0.936825	-0.503268	0.837312
H56	H	0.205047	-0.382053	0.279180
C57	C	0.834378	-0.643500	1.131461
C58	C	0.784996	-0.598181	1.176330
C59	C	0.731316	-0.671668	1.221237
C60	C	0.727019	-0.790475	1.221274
C61	C	0.776403	-0.835801	1.176403
C62	C	0.830083	-0.762314	1.131496
H63	H	0.788175	-0.510227	1.176305
H64	H	0.694759	-0.638114	1.254454
H65	H	0.687282	-0.844875	1.254516
H66	H	0.773224	-0.923755	1.176429
H67	H	0.866640	-0.795867	1.098280
H68	H	1.025414	-0.381933	1.099918
H69	H	0.980626	-0.898333	0.323717
C70	C	1.021360	-1.054537	0.283118
C71	C	0.998161	-0.979567	0.223820
C72	C	1.050700	-0.919398	0.171324
C73	C	1.126438	-0.934199	0.178127
C74	C	1.149640	-1.009172	0.237428
C75	C	1.097101	-1.069341	0.289923
H76	H	0.942092	-0.968608	0.218782
H77	H	1.033523	-0.863898	0.127426
H78	H	1.165330	-0.889658	0.139266
H79	H	1.205710	-1.020132	0.242466
H80	H	1.114278	-1.124842	0.333822
H81	H	0.540861	-0.624860	0.455906
H82	H	0.848305	-0.624473	0.991561
C83	C	0.852276	-0.951294	0.451891
C84	C	0.793040	-1.026456	0.428657
C85	C	0.740499	-1.086633	0.481148
C86	C	0.747195	-1.071647	0.556873
C87	C	0.806434	-0.996481	0.580111
C88	C	0.858975	-0.936305	0.527620
H89	H	0.788081	-1.037552	0.372597
H90	H	0.696646	-1.142275	0.463945
H91	H	0.708301	-1.116193	0.595731
H92	H	0.811393	-0.985385	0.636171
H93	H	0.902828	-0.880662	0.544822
H94	H	0.689054	-0.382007	0.279140
H95	H	0.313333	-0.624881	0.455924
H96	H	1.025393	-0.381979	0.971677
C97	C	0.834325	-0.643645	0.775697
C98	C	0.758080	-0.635129	0.765266
C99	C	0.704409	-0.708653	0.810160
C100	C	0.726982	-0.790693	0.865485
C101	C	0.803231	-0.799213	0.875918
C102	C	0.856902	-0.725689	0.831024
H103	H	0.741367	-0.574394	0.724309
H104	H	0.647964	-0.702346	0.802437
H105	H	0.687251	-0.845120	0.898718
H106	H	0.819944	-0.859947	0.916875
H107	H	0.913346	-0.731996	0.838748
C108	C	0.173422	-0.644014	0.469863
C109	C	0.095668	-0.644025	0.469879
C110	C	0.050744	-0.717646	0.523470
C111	C	0.083574	-0.791257	0.577045
C112	C	0.161333	-0.791250	0.577031
C113	C	0.206257	-0.717628	0.523440
H114	H	0.071362	-0.589531	0.430218
H115	H	-0.006817	-0.717651	0.523480
H116	H	0.050319	-0.845757	0.616716
H117	H	0.185639	-0.845744	0.616692
H118	H	0.263818	-0.717623	0.523429
C119	C	0.344954	-0.362942	0.265234
C120	C	0.312120	-0.289360	0.211644
C121	C	0.357040	-0.215773	0.158033
C122	C	0.434793	-0.215768	0.158011
C123	C	0.467631	-0.289353	0.211602
C124	C	0.422712	-0.362940	0.265214
H125	H	0.254559	-0.289361	0.211659
H126	H	0.332730	-0.161300	0.118360
H127	H	0.468045	-0.161294	0.118324
H128	H	0.525193	-0.289352	0.211588
H129	H	0.447021	-0.417413	0.304887
C130	C	0.834300	-0.643682	0.627259
C131	C	0.758060	-0.635144	0.636260
C132	C	0.704371	-0.708667	0.603404
C133	C	0.726920	-0.790728	0.561548
C134	C	0.803163	-0.799269	0.552545
C135	C	0.856853	-0.725746	0.585401
H136	H	0.741365	-0.574395	0.667247
H137	H	0.647930	-0.702344	0.610069
H138	H	0.687176	-0.845154	0.537226
H139	H	0.819859	-0.860018	0.521558
H140	H	0.913294	-0.732069	0.578736
C141	C	0.879354	-1.123115	0.424945
C142	C	0.820117	-1.198277	0.401711
C143	C	0.767577	-1.258454	0.454203
C144	C	0.774273	-1.243468	0.529928
C145	C	0.833512	-1.168302	0.553166
C146	C	0.886053	-1.108126	0.500674
H147	H	0.815159	-1.209373	0.345651
H148	H	0.723724	-1.314096	0.437000
H149	H	0.735379	-1.288014	0.568785
H150	H	0.838471	-1.157206	0.609226
H151	H	0.929905	-1.052483	0.517877
H152	H	0.669095	-0.624857	0.455891
C153	C	1.039279	-0.363013	0.604258
C154	C	1.016715	-0.280982	0.548922
C155	C	1.070393	-0.207481	0.504022
C156	C	1.146636	-0.216011	0.514459
C157	C	1.169203	-0.298046	0.569798
C158	C	1.115525	-0.371547	0.614698
H159	H	0.960272	-0.274664	0.541193
H160	H	1.053687	-0.146753	0.463056
H161	H	1.186372	-0.161601	0.481222
H162	H	1.225646	-0.304363	0.577527
H163	H	1.132231	-0.432274	0.655664
C164	C	1.039299	-0.362954	0.752695
C165	C	1.092976	-0.289464	0.707794
C166	C	1.146665	-0.215932	0.740642
C167	C	1.146678	-0.215889	0.818392
C168	C	1.092998	-0.289382	0.863298
C169	C	1.039309	-0.362914	0.830449
H170	H	1.092969	-0.289493	0.650235
H171	H	1.186402	-0.161527	0.707400
H172	H	1.186422	-0.161456	0.842709
H173	H	1.093006	-0.289353	0.920857
H174	H	0.999572	-0.417319	0.863692
H175	H	0.560807	-0.382025	0.279155
