data_functionalizedCrystal
_audit_creation_method	'MofGen! by Chris Wilmer'
_symmetry_space_group_name_H-M	'P1'
_symmetry_Int_Tables_number	1
_symmetry_cell_setting	triclinic
loop_
_symmetry_equiv_pos_as_xyz
  x,y,z
_cell_length_a	12.594510
_cell_length_b	16.959455
_cell_length_c	16.959454
_cell_angle_alpha	90.017022
_cell_angle_beta	90.033496
_cell_angle_gamma	90.021350
loop_
_atom_site_label
_atom_site_type_symbol
_atom_site_fract_x
_atom_site_fract_y
_atom_site_fract_z
Zn1	Zn	-0.601822	-1.208439	0.314678
Zn2	Zn	-0.101822	-0.708439	0.814678
Zn3	Zn	-0.423845	-1.208345	0.446886
Zn4	Zn	0.076155	-0.708345	0.946886
Zn5	Zn	-0.423856	-1.076251	0.314718
Zn6	Zn	0.076144	-0.576251	0.814718
Zn7	Zn	-0.601780	-1.076232	0.446811
Zn8	Zn	-0.101780	-0.576232	0.946811
O9	O	-0.512826	-1.142317	0.380773
O10	O	-0.012826	-0.642317	0.880773
O11	O	-0.578227	-1.319037	0.332230
O12	O	-0.078227	-0.819037	0.832230
O13	O	-0.274901	-1.190791	0.429401
O14	O	0.225099	-0.690791	0.929401
O15	O	-0.447486	-1.093833	0.204102
O16	O	0.052514	-0.593833	0.704102
O17	O	-0.447468	-1.318968	0.429362
O18	O	0.052532	-0.818968	0.929362
O19	O	-0.578237	-1.190951	0.204072
O20	O	-0.078237	-0.690951	0.704072
O21	O	-0.274908	-1.093742	0.332298
O22	O	0.225092	-0.593742	0.832298
O23	O	-0.447444	-0.965637	0.332226
O24	O	0.052556	-0.465637	0.832226
O25	O	-0.750731	-1.093800	0.429235
O26	O	-0.250731	-0.593800	0.929235
O27	O	-0.578164	-0.965623	0.429274
O28	O	-0.078164	-0.465623	0.929274
O29	O	-0.750763	-1.190932	0.332157
O30	O	-0.250763	-0.690932	0.832157
O31	O	-0.447426	-1.190773	0.557487
O32	O	0.052574	-0.690773	1.057487
O33	O	-0.578154	-1.093710	0.557432
O34	O	-0.078154	-0.593710	1.057432
C35	C	-0.512808	-1.142250	0.586139
C36	C	-0.012808	-0.642250	1.086139
C37	C	-0.512836	-1.142294	0.673996
C38	C	-0.012836	-0.642294	1.173996
C39	C	-0.512801	-0.936950	0.380747
C40	C	-0.012801	-0.436950	0.880747
C41	C	-0.512816	-0.849094	0.380755
C42	C	-0.012816	-0.349094	0.880755
C43	C	-0.790447	-1.142375	0.380683
C44	C	-0.290447	-0.642375	0.880683
C45	C	-0.908752	-1.142400	0.380645
C46	C	-0.408752	-0.642400	0.880645
C47	C	-1.048786	-1.195248	0.327829
C48	C	-0.548786	-0.695248	0.827829
C49	C	-0.977966	-1.214542	0.399954
C50	C	-0.477966	-0.714542	0.899954
C51	C	-0.978002	-1.123141	0.308528
C52	C	-0.478002	-0.623141	0.808528
C53	C	-1.048717	-1.161764	0.452784
C54	C	-0.548717	-0.661764	0.952784
C55	C	-1.048760	-1.070329	0.361310
C56	C	-0.548760	-0.570329	0.861310
C57	C	-0.977971	-1.089595	0.433485
C58	C	-0.477971	-0.589595	0.933485
C59	C	-0.236285	-1.142304	0.380805
C60	C	0.263715	-0.642304	0.880805
C61	C	-0.117980	-1.142432	0.380621
C62	C	0.382020	-0.642432	0.880621
C63	C	-0.512851	-1.348485	0.380800
C64	C	-0.012851	-0.848485	0.880800
C65	C	-0.512862	-1.436341	0.380811
C66	C	-0.012862	-0.936341	0.880811
C67	C	-0.444902	-0.477601	0.330199
C68	C	0.055098	0.022399	0.830199
C69	C	-0.580810	-0.477635	0.431412
C70	C	-0.080810	0.022365	0.931412
C71	C	-0.580804	-0.560181	0.431401
C72	C	-0.080804	-0.060181	0.931401
C73	C	-0.512844	-0.601441	0.380789
C74	C	-0.012844	-0.101441	0.880789
C75	C	-0.444891	-0.560155	0.330187
C76	C	0.055109	-0.060155	0.830187
C77	C	-0.648748	-0.601473	0.482007
C78	C	-0.148748	-0.101473	0.982007
C79	C	-0.648744	-0.684024	0.481998
C80	C	-0.148744	-0.184024	0.981998
C81	C	-0.580789	-0.725286	0.431381
C82	C	-0.080789	-0.225286	0.931381
C83	C	-0.512834	-0.683994	0.380777
C84	C	-0.012834	-0.183994	0.880777
C85	C	-0.444874	-0.725254	0.330165
C86	C	0.055126	-0.225254	0.830165
C87	C	-0.376923	-0.683964	0.279556
C88	C	0.123077	-0.183964	0.779556
C89	C	-0.376936	-0.601416	0.279570
C90	C	0.123064	-0.101416	0.779570
C91	C	-0.580776	-0.807834	0.431367
C92	C	-0.080776	-0.307834	0.931367
C93	C	-0.444863	-0.807807	0.330154
C94	C	0.055137	-0.307807	0.830154
C95	C	-0.512867	-1.142405	0.174605
C96	C	-0.012867	-0.642405	0.674605
C97	C	-0.512885	-1.142442	0.086748
C98	C	-0.012885	-0.642442	0.586748
C99	C	-0.580888	-1.091849	1.045473
C100	C	-0.080888	-0.591849	1.545473
C101	C	-0.444872	-1.193004	1.045470
C102	C	0.055128	-0.693004	1.545470
C103	C	-0.444862	-1.192976	0.962924
C104	C	0.055138	-0.692976	1.462924
C105	C	-0.512865	-1.142384	0.921649
C106	C	-0.012865	-0.642384	1.421649
C107	C	-0.580878	-1.091818	0.962919
C108	C	-0.080878	-0.591818	1.462919
C109	C	-0.376842	-1.243535	0.921647
C110	C	0.123158	-0.743535	1.421647
C111	C	-0.376829	-1.243509	0.839097
C112	C	0.123171	-0.743509	1.339097
C113	C	-0.444838	-1.192919	0.797820
C114	C	0.055162	-0.692919	1.297820
C115	C	-0.512855	-1.142353	0.839095
C116	C	-0.012855	-0.642353	1.339095
C117	C	-0.580859	-1.091760	0.797820
C118	C	-0.080859	-0.591760	1.297820
C119	C	-0.648882	-1.041197	0.839094
C120	C	-0.148882	-0.541197	1.339094
C121	C	-0.648888	-1.041229	0.921642
C122	C	-0.148888	-0.541229	1.421642
C123	C	-0.444832	-1.192887	0.715271
C124	C	0.055168	-0.692887	1.215271
C125	C	-0.580849	-1.091729	0.715266
C126	C	-0.080849	-0.591729	1.215266
H127	H	-1.079878	-1.239961	0.283229
H128	H	-0.579878	-0.739961	0.783229
H129	H	-0.636134	-0.444037	0.472623
H130	H	-0.136134	0.055963	0.972623
Cl131	Cl	-0.291486	-0.735843	0.215937
Cl132	Cl	0.208514	-0.235843	0.715937
H133	H	-0.321613	-0.567790	0.238369
H134	H	0.178387	-0.067790	0.738369
H135	H	-0.947074	-1.044917	0.478191
H136	H	-0.447074	-0.544917	0.978191
H137	H	-0.946935	-1.106838	0.247550
H138	H	-0.446935	-0.606838	0.747550
Cl139	Cl	-0.666350	-1.028127	0.663384
Cl140	Cl	-0.166350	-0.528127	1.163384
H141	H	-0.704268	-1.000062	0.955255
H142	H	-0.204268	-0.500062	1.455255
Cl143	Cl	-0.359489	-0.425697	0.266576
Cl144	Cl	0.140511	0.074303	0.766576
H145	H	-0.704246	-1.000000	0.805478
H146	H	-0.204246	-0.500000	1.305478
Cl147	Cl	-0.291365	-1.307138	0.973539
Cl148	Cl	0.208635	-0.807138	1.473539
Cl149	Cl	-0.666403	-1.028291	1.097357
Cl150	Cl	-0.166403	-0.528291	1.597357
Cl151	Cl	-0.734143	-0.549601	0.545655
Cl152	Cl	-0.234143	-0.049601	1.045655
Cl153	Cl	-0.734168	-0.735924	0.545617
Cl154	Cl	-0.234168	-0.235924	1.045617
H155	H	-0.389444	-1.234051	0.681670
H156	H	0.110556	-0.734051	1.181670
H157	H	-0.946866	-1.275504	0.416302
H158	H	-0.446866	-0.775504	0.916302
H159	H	-1.079881	-1.009384	0.344939
H160	H	-0.579881	-0.509384	0.844939
H161	H	-0.389528	-0.841395	0.288933
H162	H	0.110472	-0.341395	0.788933
Cl163	Cl	-0.291326	-1.307080	0.787217
Cl164	Cl	0.208674	-0.807080	1.287217
Cl165	Cl	-1.096469	-1.187047	0.546957
Cl166	Cl	-0.596469	-0.687047	1.046957
Cl167	Cl	-0.666186	-0.859738	0.494988
Cl168	Cl	-0.166186	-0.359738	0.994988
H169	H	-0.389500	-1.234190	1.079081
H170	H	0.110500	-0.734190	1.579081
