data_functionalizedCrystal
_audit_creation_method	'MofGen! by Chris Wilmer'
_symmetry_space_group_name_H-M	'P1'
_symmetry_Int_Tables_number	1
_symmetry_cell_setting	triclinic
loop_
_symmetry_equiv_pos_as_xyz
  x,y,z
_cell_length_a	8.634740
_cell_length_b	14.853559
_cell_length_c	13.330367
_cell_angle_alpha	89.997552
_cell_angle_beta	89.993125
_cell_angle_gamma	92.100880
loop_
_atom_site_label
_atom_site_type_symbol
_atom_site_fract_x
_atom_site_fract_y
_atom_site_fract_z
O1	O	2.046682	0.293989	-0.083410
O2	O	1.597679	0.269337	-0.083413
O3	O	1.834181	0.151467	-0.083411
O4	O	1.810180	0.411860	-0.083413
O5	O	1.834146	0.151461	0.083436
O6	O	1.597644	0.269331	0.083434
O7	O	2.046648	0.293983	0.083437
Cu8	Cu	1.822143	0.281657	0.098670
Cu9	Cu	1.822184	0.281664	-0.098646
O10	O	1.810146	0.411854	0.083434
C11	C	1.540200	0.263749	0.000010
C12	C	1.368982	0.247098	0.000008
C13	C	1.833079	0.117781	0.000011
C14	C	1.829827	0.017417	0.000005
C15	C	1.816050	-0.406943	-0.090943
C16	C	1.816013	-0.406944	0.090960
C17	C	1.819081	-0.312647	0.090961
C18	C	1.820631	-0.265493	0.000008
C19	C	1.819114	-0.312637	-0.090945
C20	C	1.820583	-0.265496	0.181913
C21	C	1.823649	-0.171193	0.181917
C22	C	1.825211	-0.124037	0.090963
C23	C	1.823695	-0.171187	0.000006
C24	C	1.825246	-0.124033	-0.090946
C25	C	1.823741	-0.171181	-0.181904
C26	C	1.820676	-0.265481	-0.181899
C27	C	1.828276	-0.029737	0.090958
C28	C	1.828309	-0.029727	-0.090948
C29	C	2.104127	0.299571	0.000012
C30	C	2.275345	0.316222	0.000006
C31	C	1.811248	0.445539	0.000010
C32	C	1.814500	0.545903	0.000009
N33	N	1.822126	0.281652	0.237451
N34	N	1.822213	0.281662	-0.237428
C35	C	1.717456	0.333832	0.710073
C36	C	1.926953	0.229492	0.710043
C37	C	1.926935	0.229487	0.605025
C38	C	1.822178	0.281657	0.552526
C39	C	1.717438	0.333832	0.605045
C40	C	2.031684	0.177321	0.552498
C41	C	2.031672	0.177316	0.447473
C42	C	1.926906	0.229481	0.394972
C43	C	1.822161	0.281657	0.447498
C44	C	1.717403	0.333827	0.394998
C45	C	1.612649	0.385998	0.447522
C46	C	1.612672	0.385998	0.552544
C47	C	1.926883	0.229482	0.289951
C48	C	1.717386	0.333826	0.289970
H49	H	1.318161	0.175179	-0.000017
H50	H	1.819312	-0.303896	0.255961
H51	H	2.116982	0.134851	0.595246
H52	H	1.824992	-0.132776	-0.255958
H53	H	1.326172	0.388146	0.000012
H54	H	1.829579	0.008659	-0.165014
H55	H	2.116966	0.134834	0.404715
Cl56	Cl	1.818790	-0.324757	-0.296235
Cl57	Cl	1.825535	-0.111930	0.296262
Cl58	Cl	1.814175	-0.466211	-0.205285
Cl59	Cl	1.814037	-0.466224	0.205294
H60	H	1.829466	0.008646	0.165015
H61	H	1.632074	0.376306	0.247232
H62	H	2.012179	0.187010	0.247191
H63	H	1.527387	0.428474	0.595315
Cl64	Cl	1.585765	0.399413	0.776097
H65	H	1.527362	0.428480	0.404765
H66	H	2.012251	0.187021	0.752792
