data_functionalizedCrystal
_audit_creation_method	'MofGen! by Chris Wilmer'
_symmetry_space_group_name_H-M	'P1'
_symmetry_Int_Tables_number	1
_symmetry_cell_setting	triclinic
loop_
_symmetry_equiv_pos_as_xyz
  x,y,z
_cell_length_a	18.215407
_cell_length_b	12.759400
_cell_length_c	12.759393
_cell_angle_alpha	90.031769
_cell_angle_beta	89.979286
_cell_angle_gamma	89.984868
loop_
_atom_site_label
_atom_site_type_symbol
_atom_site_fract_x
_atom_site_fract_y
_atom_site_fract_z
Zn1	Zn	1.125131	0.418190	-0.594075
Zn2	Zn	1.625131	0.918190	-0.094075
Zn3	Zn	1.125059	0.593909	-0.418395
Zn4	Zn	1.625059	1.093909	0.081605
Zn5	Zn	1.002061	0.418246	-0.418404
Zn6	Zn	1.502061	0.918246	0.081596
Zn7	Zn	1.002051	0.593828	-0.594026
Zn8	Zn	1.502051	1.093828	-0.094026
O9	O	1.063575	0.506043	-0.506225
O10	O	1.563575	1.006043	-0.006225
O11	O	1.228105	0.441509	-0.570787
O12	O	1.728105	0.941509	-0.070787
O13	O	1.108717	0.570664	-0.271375
O14	O	1.608717	1.070664	0.228625
O15	O	1.018421	0.271218	-0.441731
O16	O	1.518421	0.771218	0.058269
O17	O	1.228053	0.570610	-0.441716
O18	O	1.728053	1.070610	0.058284
O19	O	1.108839	0.271176	-0.570796
O20	O	1.608839	0.771176	-0.070796
O21	O	1.018351	0.441606	-0.271382
O22	O	1.518351	0.941606	0.228618
O23	O	0.899076	0.441527	-0.441684
O24	O	1.399076	0.941527	0.058316
O25	O	1.018403	0.570472	-0.741054
O26	O	1.518403	1.070472	-0.241054
O27	O	0.899068	0.570527	-0.570713
O28	O	1.399068	1.070527	-0.070713
O29	O	1.108829	0.441431	-0.741090
O30	O	1.608829	0.941431	-0.241090
O31	O	1.108707	0.740919	-0.441669
O32	O	1.608707	1.240919	0.058331
O33	O	1.018334	0.740860	-0.570704
O34	O	1.518334	1.240860	-0.070704
C35	C	0.872369	0.506025	-0.506195
C36	C	1.372369	1.006025	-0.006195
C37	C	0.790570	0.506043	-0.506207
C38	C	1.290570	1.006043	-0.006207
C39	C	1.063532	0.779011	-0.506203
C40	C	1.563532	1.279011	-0.006203
C41	C	1.063580	0.895787	-0.506229
C42	C	1.563580	1.395787	-0.006229
C43	C	1.063623	0.505936	-0.780258
C44	C	1.563623	1.005936	-0.280258
C45	C	1.063644	0.505891	-0.897035
C46	C	1.563644	1.005891	-0.397035
C47	C	0.602392	0.573319	-0.573308
C48	C	1.102392	1.073319	-0.073308
C49	C	0.525533	0.573322	-0.573321
C50	C	1.025533	1.073322	-0.073321
C51	C	0.525511	0.438787	-0.439165
C52	C	1.025511	0.938787	0.060835
C53	C	0.602369	0.438779	-0.439158
C54	C	1.102369	0.938779	0.060842
C55	C	0.640807	0.506051	-0.506228
C56	C	1.140807	1.006051	-0.006228
C57	C	0.487091	0.506062	-0.506248
C58	C	0.987091	1.006062	-0.006248
C59	C	0.403757	0.506065	-0.506262
C60	C	0.903757	1.006065	-0.006262
C61	C	0.724146	0.506047	-0.506216
C62	C	1.224146	1.006047	-0.006216
C63	C	1.255528	0.506062	-0.506256
C64	C	1.755528	1.006062	-0.006256
C65	C	1.337327	0.506070	-0.506269
C66	C	1.837327	1.006070	-0.006269
C67	C	1.063639	0.232010	-0.506270
C68	C	1.563639	0.732010	-0.006270
C69	C	1.063667	0.115233	-0.506289
C70	C	1.563667	0.615233	-0.006289
C71	C	1.110690	0.950645	-0.439114
C72	C	1.610690	1.450645	0.060886
C73	C	1.110735	1.060369	-0.439147
C74	C	1.610735	1.560369	0.060853
C75	C	1.016555	1.060368	-0.573411
C76	C	1.516555	1.560368	-0.073411
C77	C	1.016514	0.950646	-0.573383
C78	C	1.516514	1.450646	-0.073383
C79	C	1.165062	0.950647	-0.361595
C80	C	1.665062	1.450647	0.138405
C81	C	1.165107	1.060371	-0.361627
C82	C	1.665107	1.560371	0.138373
C83	C	1.016610	0.438677	-0.951907
C84	C	1.516610	0.938677	-0.451907
C85	C	1.016632	0.438646	-1.061631
C86	C	1.516632	0.938646	-0.561631
C87	C	1.110728	0.573044	-1.061602
C88	C	1.610728	1.073044	-0.561602
C89	C	1.110701	0.573080	-0.951880
C90	C	1.610701	1.073080	-0.451880
C91	C	0.962287	0.361080	-0.951924
C92	C	1.462287	0.861080	-0.451924
C93	C	0.962309	0.361049	-1.061648
C94	C	1.462309	0.861049	-0.561648
C95	C	1.063570	0.506074	-0.233258
C96	C	1.563570	1.006074	0.266742
C97	C	1.063692	0.505824	-0.116482
C98	C	1.563692	1.005824	0.383518
H99	H	0.633686	0.628093	-0.627923
H100	H	1.133686	1.128093	-0.127923
F101	F	1.145208	1.099409	-0.255258
F102	F	1.645208	1.599409	0.244742
F103	F	1.235878	1.104744	-0.399829
F104	F	1.735878	1.604744	0.100171
F105	F	0.891544	0.399134	-1.106122
F106	F	1.391544	0.899134	-0.606122
H107	H	0.978235	1.105047	-0.628087
H108	H	1.478235	1.605047	-0.128087
F109	F	0.643255	0.367174	-0.367764
F110	F	1.143255	0.867174	0.132236
H111	H	0.905276	0.382870	-0.922142
H112	H	1.405276	0.882870	-0.422142
H113	H	1.222041	0.920789	-0.383451
H114	H	1.722041	1.420789	0.116549
H115	H	0.978160	0.905981	-0.628042
H116	H	1.478160	1.405981	-0.128042
F117	F	1.138384	0.906271	-0.260531
F118	F	1.638384	1.406271	0.239469
F119	F	1.160807	0.644549	-1.119981
F120	F	1.660807	1.144549	-0.619981
F121	F	0.988988	0.260074	-0.907459
F122	F	1.488988	0.760074	-0.407459
H123	H	1.148990	0.627827	-0.907208
H124	H	1.648990	1.127827	-0.407208
H125	H	0.977591	0.279667	-1.091447
H126	H	1.477591	0.779667	-0.591447
H127	H	0.494259	0.628097	-0.627946
H128	H	0.994259	1.128097	-0.127946
H129	H	0.494205	0.384018	-0.384558
H130	H	0.994205	0.884018	0.115442
