data_functionalizedCrystal
_audit_creation_method	'MofGen! by Chris Wilmer'
_symmetry_space_group_name_H-M	'P1'
_symmetry_Int_Tables_number	1
_symmetry_cell_setting	triclinic
loop_
_symmetry_equiv_pos_as_xyz
  x,y,z
_cell_length_a	14.519731
_cell_length_b	19.288840
_cell_length_c	17.766277
_cell_angle_alpha	89.983415
_cell_angle_beta	90.007338
_cell_angle_gamma	96.592566
loop_
_atom_site_label
_atom_site_type_symbol
_atom_site_fract_x
_atom_site_fract_y
_atom_site_fract_z
O1	O	0.114934	-0.921784	0.062722
O2	O	0.614934	-0.421784	0.562722
O3	O	0.130477	-0.719578	0.062696
O4	O	0.630477	-0.219578	0.562696
O5	O	-0.011566	-0.826035	0.062703
O6	O	0.488434	-0.326035	0.562703
O7	O	0.256977	-0.815328	0.062715
O8	O	0.756977	-0.315328	0.562715
O9	O	-0.011573	-0.826016	-0.062486
O10	O	0.488427	-0.326016	0.437514
O11	O	0.130470	-0.719559	-0.062493
O12	O	0.630470	-0.219559	0.437507
O13	O	0.114927	-0.921766	-0.062467
O14	O	0.614927	-0.421766	0.437533
Cu15	Cu	0.122698	-0.820661	-0.073911
Cu16	Cu	0.622698	-0.320661	0.426089
Cu17	Cu	0.122706	-0.820683	0.074139
Cu18	Cu	0.622706	-0.320683	0.574139
O19	O	0.256970	-0.815309	-0.062474
O20	O	0.756970	-0.315309	0.437526
C21	C	0.129977	-0.693690	0.000098
C22	C	0.629977	-0.193690	0.500098
C23	C	0.128487	-0.616580	0.000088
C24	C	0.628487	-0.116580	0.500088
C25	C	-0.045926	-0.825524	0.000108
C26	C	0.454074	-0.325524	0.500108
C27	C	-0.148297	-0.824020	0.000107
C28	C	0.351703	-0.324020	0.500107
C29	C	0.115426	-0.947654	0.000132
C30	C	0.615426	-0.447654	0.500132
C31	C	0.116916	-1.024764	0.000147
C32	C	0.616916	-0.524764	0.500147
C33	C	-0.231433	-0.822799	0.000109
C34	C	0.268567	-0.322799	0.500109
C35	C	-0.335732	-0.821272	0.000115
C36	C	0.164268	-0.321272	0.500115
C37	C	-0.418863	-0.820061	0.000119
C38	C	0.081137	-0.320061	0.500119
C39	C	-0.523168	-0.818535	0.000123
C40	C	-0.023168	-0.318535	0.500123
C41	C	0.291330	-0.815820	0.000122
C42	C	0.791330	-0.315820	0.500122
C43	C	0.393700	-0.817323	0.000128
C44	C	0.893700	-0.317323	0.500128
C45	C	0.127776	-0.580384	0.068330
C46	C	0.627776	-0.080384	0.568330
C47	C	0.126366	-0.507932	0.068339
C48	C	0.626366	-0.007932	0.568339
C49	C	0.125649	-0.471681	0.000102
C50	C	0.625649	0.028319	0.500102
C51	C	0.126366	-0.507885	-0.068149
C52	C	0.626366	-0.007885	0.431851
C53	C	0.127785	-0.580335	-0.068156
C54	C	0.627785	-0.080335	0.431844
C55	C	0.069381	-0.362139	-0.052169
C56	C	0.569381	0.137861	0.447831
C57	C	0.067956	-0.289692	-0.052159
C58	C	0.567956	0.210308	0.447841
C59	C	0.121275	-0.248221	0.000122
C60	C	0.621275	0.251779	0.500122
C61	C	0.176008	-0.279208	0.052405
C62	C	0.676008	0.220792	0.552405
C63	C	0.177427	-0.351658	0.052398
C64	C	0.677427	0.148342	0.552398
C65	C	0.124110	-0.393121	0.000103
C66	C	0.624110	0.106879	0.500103
C67	C	0.119036	-0.133464	0.068379
C68	C	0.619036	0.366536	0.568379
C69	C	0.117631	-0.061010	0.068385
C70	C	0.617631	0.438990	0.568385
C71	C	0.117622	-0.060965	-0.068105
C72	C	0.617622	0.439035	0.431895
C73	C	0.119036	-0.133417	-0.068109
C74	C	0.619036	0.366583	0.431891
C75	C	0.119738	-0.169662	0.000135
C76	C	0.619738	0.330338	0.500135
N77	N	0.122691	-0.820650	-0.178041
N78	N	0.622691	-0.320650	0.321959
C79	C	0.059825	-0.867805	-0.217425
C80	C	0.559825	-0.367805	0.282575
C81	C	0.059821	-0.867809	-0.296227
C82	C	0.559821	-0.367809	0.203773
C83	C	0.122698	-0.820665	-0.335641
C84	C	0.622698	-0.320665	0.164359
C85	C	0.185569	-0.773502	-0.296248
C86	C	0.685569	-0.273502	0.203752
C87	C	0.185566	-0.773494	-0.217448
C88	C	0.685566	-0.273494	0.282552
C89	C	0.206727	-0.811673	-0.460476
C90	C	0.706727	-0.311673	0.039524
C91	C	0.206732	-0.811685	-0.539275
C92	C	0.706732	-0.311685	-0.039275
C93	C	0.122709	-0.820683	-0.578688
C94	C	0.622709	-0.320683	-0.078688
C95	C	0.038679	-0.829684	-0.539292
C96	C	0.538679	-0.329684	-0.039292
C97	C	0.038675	-0.829677	-0.460492
C98	C	0.538675	-0.329677	0.039508
C99	C	0.122709	-0.820667	-0.421087
C100	C	0.622709	-0.320667	0.078913
C101	C	0.059834	-0.867845	-0.703518
C102	C	0.559834	-0.367845	-0.203518
C103	C	0.059828	-0.867844	-0.782321
C104	C	0.559828	-0.367844	-0.282321
C105	C	0.185585	-0.773540	-0.782341
C106	C	0.685585	-0.273540	-0.282341
C107	C	0.185582	-0.773538	-0.703539
C108	C	0.685582	-0.273538	-0.203539
C109	C	0.122708	-0.820694	-0.664132
C110	C	0.622708	-0.320694	-0.164132
N111	N	0.122705	-0.820699	0.178270
N112	N	0.622705	-0.320699	0.678270
H113	H	0.128348	-0.609891	0.123900
H114	H	0.628348	-0.109891	0.623900
C115	C	0.237753	-0.385734	0.109816
C116	C	0.737753	0.114266	0.609816
H117	H	0.230991	-0.434817	0.102299
H118	H	0.730991	0.065183	0.602299
H119	H	0.300877	-0.367648	0.103152
H120	H	0.800877	0.132352	0.603152
H121	H	0.218629	-0.375763	0.159399
H122	H	0.718629	0.124237	0.659399
C123	C	0.299157	-0.801780	-0.417130
C124	C	0.799157	-0.301780	0.082870
H125	H	0.349201	-0.796433	-0.451876
H126	H	0.849201	-0.296433	0.048124
H127	H	0.301170	-0.761338	-0.386404
H128	H	0.801170	-0.261338	0.113596
H129	H	0.304127	-0.841477	-0.386376
H130	H	0.804127	-0.341477	0.113624
H131	H	0.236760	-0.735095	-0.185381
H132	H	0.736760	-0.235095	0.314619
H133	H	0.236764	-0.735115	-0.328343
H134	H	0.736764	-0.235115	0.171657
H135	H	0.125787	-0.478456	0.123912
H136	H	0.625787	0.021544	0.623912
C137	C	0.234666	-0.233600	0.109914
C138	C	0.734666	0.266400	0.609914
H139	H	0.225994	-0.186013	0.102427
H140	H	0.725994	0.313987	0.602427
H141	H	0.215912	-0.247337	0.159454
H142	H	0.715912	0.252663	0.659454
H143	H	0.298288	-0.239304	0.103329
H144	H	0.798288	0.260696	0.603329
H145	H	0.119617	-0.162976	0.123947
H146	H	0.619617	0.337024	0.623947
C147	C	0.007755	-0.255611	-0.109668
C148	C	0.507755	0.244389	0.390332
H149	H	-0.023783	-0.290683	-0.140814
H150	H	0.476217	0.209317	0.359186
H151	H	-0.036237	-0.231587	-0.083785
H152	H	0.463763	0.268413	0.416215
H153	H	0.046154	-0.223547	-0.139896
H154	H	0.546154	0.276453	0.360104
C155	C	0.125578	-0.468015	-0.143209
C156	C	0.625578	0.031985	0.356791
H157	H	0.126212	-0.499950	-0.183855
H158	H	0.626212	0.000050	0.316145
H159	H	0.071257	-0.444986	-0.146048
H160	H	0.571257	0.055014	0.353952
H161	H	0.178798	-0.434516	-0.146038
H162	H	0.678798	0.065484	0.353962
C163	C	-0.053748	-0.839566	-0.417156
C164	C	0.446252	-0.339566	0.082844
H165	H	-0.103790	-0.845021	-0.451908
H166	H	0.396210	-0.345021	0.048092
H167	H	-0.055702	-0.879945	-0.386314
H168	H	0.444298	-0.379945	0.113686
H169	H	-0.058778	-0.799819	-0.386520
H170	H	0.441222	-0.299819	0.113480
C171	C	0.116844	-0.021195	0.143455
C172	C	0.616844	0.478805	0.643455
H173	H	0.117455	-0.053162	0.184094
H174	H	0.617455	0.446838	0.684094
H175	H	0.170057	0.012301	0.146306
H176	H	0.670057	0.512301	0.646306
H177	H	0.062516	0.001831	0.146285
H178	H	0.562516	0.501831	0.646285
C179	C	0.117139	-0.021068	-0.143164
C180	C	0.617139	0.478932	0.356836
H181	H	0.116280	0.027274	-0.133387
H182	H	0.616280	0.527274	0.366613
H183	H	0.171230	-0.027774	-0.171044
H184	H	0.671230	0.472226	0.328956
H185	H	0.063686	-0.038072	-0.171364
H186	H	0.563686	0.461928	0.328636
C187	C	0.119807	-0.173239	-0.143175
C188	C	0.619807	0.326761	0.356825
H189	H	0.120762	-0.221578	-0.133406
H190	H	0.620762	0.278422	0.366594
H191	H	0.065807	-0.166590	-0.171216
H192	H	0.565807	0.333410	0.328784
H193	H	0.173348	-0.156121	-0.171209
H194	H	0.673348	0.343879	0.328791
H195	H	0.275154	-0.804361	-0.571345
H196	H	0.775154	-0.304361	-0.071345
H197	H	0.025959	-0.395900	-0.094745
H198	H	0.525959	0.104100	0.405255
H199	H	0.236777	-0.735143	-0.671470
H200	H	0.736777	-0.235143	-0.171470
H201	H	-0.029740	-0.837011	-0.571380
H202	H	0.470260	-0.337011	-0.071380
C203	C	0.128553	-0.620153	-0.143225
C204	C	0.628553	-0.120153	0.356775
H205	H	0.127918	-0.588190	-0.183866
H206	H	0.627918	-0.088190	0.316134
H207	H	0.182868	-0.643186	-0.146067
H208	H	0.682868	-0.143186	0.353933
H209	H	0.075327	-0.653645	-0.146062
H210	H	0.575327	-0.153645	0.353938
H211	H	0.008627	-0.906200	-0.185342
H212	H	0.508627	-0.406200	0.314658
H213	H	0.008630	-0.906241	-0.814388
H214	H	0.508630	-0.406241	-0.314388
H215	H	0.008626	-0.906209	-0.328299
H216	H	0.508626	-0.406209	0.171701
C217	C	0.254751	-0.721682	-0.825684
C218	C	0.754751	-0.221682	-0.325684
H219	H	0.292191	-0.693595	-0.790939
H220	H	0.792191	-0.193595	-0.290939
H221	H	0.293054	-0.746716	-0.856410
H222	H	0.793054	-0.246716	-0.356410
H223	H	0.221672	-0.692727	-0.856438
H224	H	0.721672	-0.192727	-0.356438
C225	C	-0.009333	-0.919706	-0.660167
C226	C	0.490667	-0.419706	-0.160167
H227	H	-0.046786	-0.947783	-0.694912
H228	H	0.453214	-0.447783	-0.194912
H229	H	0.023737	-0.948659	-0.629411
H230	H	0.523737	-0.448659	-0.129411
H231	H	-0.047638	-0.894664	-0.629443
H232	H	0.452362	-0.394664	-0.129443
