data_functionalizedCrystal
_audit_creation_method	'MofGen! by Chris Wilmer'
_symmetry_space_group_name_H-M	'P1'
_symmetry_Int_Tables_number	1
_symmetry_cell_setting	triclinic
loop_
_symmetry_equiv_pos_as_xyz
  x,y,z
_cell_length_a	14.519709
_cell_length_b	10.654549
_cell_length_c	9.730217
_cell_angle_alpha	89.997829
_cell_angle_beta	90.004205
_cell_angle_gamma	84.083531
loop_
_atom_site_label
_atom_site_type_symbol
_atom_site_fract_x
_atom_site_fract_y
_atom_site_fract_z
O1	O	1.224719	0.164621	-0.114108
O2	O	0.956343	0.184007	-0.114149
O3	O	1.096699	-0.008484	-0.114122
O4	O	1.084363	0.357112	-0.114135
O5	O	1.096695	-0.008486	0.114458
O6	O	0.956339	0.184005	0.114431
O7	O	1.224715	0.164619	0.114473
Zn8	Zn	1.090526	0.174312	0.150744
Zn9	Zn	1.090532	0.174314	-0.150420
O10	O	1.084359	0.357110	0.114445
C11	C	0.921976	0.183103	0.000136
C12	C	0.819581	0.180395	0.000120
C13	C	0.444633	0.170428	0.000183
C14	C	0.548956	0.173196	0.000165
C15	C	0.632104	0.175411	0.000150
C16	C	0.736433	0.178180	0.000135
C17	C	1.095790	-0.055274	0.000166
C18	C	1.093078	-0.194691	0.000161
C19	C	1.259082	0.165523	0.000185
C20	C	1.361477	0.168231	0.000192
C21	C	1.255819	-0.486241	0.000194
C22	C	1.341013	-0.435523	0.000210
C23	C	1.343565	-0.304529	0.000208
C24	C	1.260914	-0.224249	0.000195
C25	C	1.175720	-0.274967	0.000179
C26	C	1.173177	-0.405965	0.000176
C27	C	1.007883	-0.245409	0.000145
C28	C	1.005329	-0.376402	0.000137
C29	C	0.925232	-0.165129	0.000132
C30	C	0.840036	-0.215847	0.000106
C31	C	0.837487	-0.346849	0.000106
C32	C	0.920135	-0.427120	0.000121
C33	C	1.085268	0.403900	0.000154
C34	C	1.087980	0.543317	0.000150
N35	N	1.090529	0.174310	0.356280
N36	N	1.090536	0.174307	-0.355957
C37	C	1.214866	0.003908	0.356295
C38	C	1.277040	-0.081290	0.428242
C39	C	1.277049	-0.081291	0.572122
C40	C	1.214876	0.003913	0.644058
C41	C	1.152701	0.089110	0.572111
C42	C	1.152700	0.089104	0.428228
C43	C	1.028362	0.259504	0.572096
C44	C	1.028355	0.259513	0.428216
C45	C	0.966188	0.344707	0.644032
C46	C	0.904017	0.429913	0.572085
C47	C	0.904010	0.429911	0.428196
C48	C	0.966181	0.344710	0.356269
H49	H	1.253749	-0.592904	0.000177
Br50	Br	0.916683	-0.604900	0.000134
Br51	Br	1.214873	0.003892	0.839325
H52	H	1.412937	-0.263236	0.000228
H53	H	1.408305	-0.500901	0.000225
Br54	Br	0.966184	0.344708	0.161002
Br55	Br	1.214874	0.003920	0.161028
H56	H	0.853377	0.499284	0.369624
H57	H	1.327674	-0.150670	0.630702
H58	H	0.768112	-0.388133	0.000107
H59	H	0.966194	0.344698	0.761186
H60	H	1.262999	-0.117589	0.000210
H61	H	0.927316	-0.058468	0.000139
H62	H	1.327660	-0.150664	0.369659
H63	H	0.772749	-0.150473	0.000105
H64	H	0.853395	0.499274	0.630664
