data_functionalizedCrystal
_audit_creation_method	'MofGen! by Chris Wilmer'
_symmetry_space_group_name_H-M	'P1'
_symmetry_Int_Tables_number	1
_symmetry_cell_setting	triclinic
loop_
_symmetry_equiv_pos_as_xyz
  x,y,z
_cell_length_a	19.077241
_cell_length_b	19.077391
_cell_length_c	19.076919
_cell_angle_alpha	90.062674
_cell_angle_beta	89.886096
_cell_angle_gamma	89.931720
loop_
_atom_site_label
_atom_site_type_symbol
_atom_site_fract_x
_atom_site_fract_y
_atom_site_fract_z
Zn1	Zn	-1.068885	0.254683	0.430754
Zn2	Zn	-1.078201	0.367113	0.308916
Zn3	Zn	-0.956085	0.254314	0.308545
Zn4	Zn	-0.956410	0.376470	0.421291
O5	O	-1.014895	0.313145	0.367376
O6	O	-1.168298	0.265836	0.418707
O7	O	-1.065765	0.348079	0.210693
O8	O	-0.967013	0.156188	0.328562
O9	O	-1.175143	0.348437	0.329193
O10	O	-1.049886	0.156460	0.418348
O11	O	-0.976047	0.265206	0.210421
O12	O	-0.857951	0.274280	0.319386
O13	O	-0.967567	0.364386	0.520720
O14	O	-0.858190	0.364027	0.402220
O15	O	-1.050202	0.274910	0.527672
O16	O	-1.066081	0.466529	0.320018
O17	O	-0.976601	0.473404	0.402579
C18	C	-0.832614	0.320129	0.359736
C19	C	-0.754633	0.323135	0.356484
C20	C	-0.714435	0.281615	0.401626
C21	C	-0.641164	0.284435	0.398564
C22	C	-0.608093	0.328780	0.350363
C23	C	-0.648296	0.370301	0.305215
C24	C	-0.721566	0.367477	0.308274
C25	C	-0.389342	0.341827	0.336206
C26	C	-0.316067	0.344650	0.333151
C27	C	-0.308940	0.258783	0.426500
C28	C	-0.382211	0.255965	0.429558
C29	C	-0.422409	0.297484	0.384408
N30	N	-0.533198	0.331665	0.347233
N31	N	-0.497302	0.294594	0.387535
C32	C	-1.022406	0.495422	0.360328
C33	C	-1.025682	0.573399	0.357338
C34	C	-0.197888	0.306130	0.375042
C35	C	-0.275869	0.303130	0.378294
C36	C	-0.980604	0.613638	0.398881
C37	C	-0.983686	0.686905	0.396069
C38	C	-1.031849	0.719933	0.351718
C39	C	-1.076928	0.679689	0.310171
C40	C	-1.073843	0.606423	0.312980
C41	C	-1.046072	0.938669	0.338711
C42	C	-1.049156	1.011941	0.335907
C43	C	-0.955912	1.019152	0.421805
C44	C	-0.952834	0.945884	0.424612
C45	C	-0.997911	0.905646	0.383062
N46	N	-1.035001	0.794824	0.348845
N47	N	-0.994755	0.830757	0.385932
C48	C	-1.007881	0.320733	0.550363
C49	C	-1.004892	0.323966	0.628341
C50	C	-1.007351	1.130157	0.374459
C51	C	-1.004078	1.052180	0.377450
C52	C	-1.021920	0.305535	0.185105
C53	C	-1.025037	0.302098	0.107141
C54	C	-1.046509	0.278902	0.668596
C55	C	-1.043692	0.281938	0.741865
C56	C	-0.999261	0.330042	0.774877
C57	C	-0.957640	0.375108	0.734617
C58	C	-0.960454	0.372068	0.661350
C59	C	-0.986229	0.344125	0.993613
C60	C	-0.983420	0.347163	1.066886
C61	C	-1.069472	0.253991	1.074129
C62	C	-1.072285	0.250959	1.000860
C63	C	-1.030660	0.296022	0.960606
N64	N	-0.996382	0.333147	0.849769
N65	N	-1.033536	0.292913	0.885716
H66	H	-0.422062	0.375635	0.299442
H67	H	-1.077583	0.245243	0.774637
O68	O	-1.115458	0.204165	0.968906
C69	C	-1.151601	0.165052	1.020149
H70	H	-1.120760	0.165889	1.071264
H71	H	-1.157627	0.108612	1.001436
H72	H	-1.205641	0.189026	1.029182
H73	H	-0.947237	0.386336	1.093762
O74	O	-1.095968	1.044085	0.292892
C75	C	-1.141495	1.086373	0.333101
H76	H	-1.142816	1.066386	0.389381
H77	H	-1.196488	1.084092	0.309943
H78	H	-1.121998	1.142835	0.332493
H79	H	-0.276204	0.224980	0.463258
H80	H	-0.621364	0.406404	0.265965
O81	O	-1.109829	0.210244	1.113337
C82	C	-1.097833	0.223251	1.185083
H83	H	-1.044252	0.248719	1.191927
H84	H	-1.099361	0.171672	1.215164
H85	H	-1.140187	0.259876	1.206175
O86	O	-1.117659	0.567259	0.272728
C87	C	-1.159634	0.524750	0.316228
H88	H	-1.132350	0.516931	0.368757
H89	H	-1.167983	0.471686	0.290027
H90	H	-1.212510	0.551259	0.325076
H91	H	-1.082777	0.905913	0.304881
H92	H	-0.913616	0.918995	0.460726
O93	O	-1.089748	0.232268	0.636498
C94	C	-1.138321	0.268710	0.594456
H95	H	-1.144083	0.324715	0.614574
H96	H	-1.191300	0.241229	0.596875
H97	H	-1.118860	0.269655	0.537924
H98	H	-0.409133	0.219858	0.468812
O99	O	-1.123683	0.711882	0.267138
C100	C	-1.116726	0.785178	0.273549
H101	H	-1.092066	0.798316	0.326329
H102	H	-1.170630	0.810765	0.269954
H103	H	-1.081859	0.805721	0.229550
O104	O	-0.284053	0.387744	0.286263
C105	C	-0.335242	0.423799	0.247080
H106	H	-0.386375	0.392947	0.247983
H107	H	-0.316481	0.429721	0.190625
H108	H	-0.344265	0.477882	0.270947
O109	O	-0.760512	0.407882	0.264396
C110	C	-0.715613	0.447616	0.221185
H111	H	-0.662390	0.453294	0.247640
H112	H	-0.739356	0.501749	0.212358
H113	H	-0.708787	0.419936	0.168615
O114	O	-0.933759	0.581670	0.441983
C115	C	-0.894647	0.632900	0.478059
H116	H	-0.895540	0.684040	0.447216
H117	H	-0.838190	0.614211	0.483995
H118	H	-0.918581	0.641876	0.532138
H119	H	-0.919213	1.051921	0.455631
O120	O	-0.602149	0.244181	0.442518
C121	C	-0.618038	0.261823	0.512564
H122	H	-0.640359	0.317244	0.514684
H123	H	-0.568284	0.259126	0.545456
H124	H	-0.658317	0.223367	0.534193
O125	O	-0.940000	0.726065	0.436465
C126	C	-0.979954	0.768725	0.481870
H127	H	-1.034545	0.776599	0.458974
H128	H	-0.953178	0.821753	0.488082
H129	H	-0.984446	0.742320	0.535269
O130	O	-0.945764	0.387961	0.954622
C131	C	-0.905930	0.431053	0.999473
H132	H	-0.932771	0.434562	1.052807
H133	H	-0.901508	0.485733	0.975842
H134	H	-0.851300	0.407710	1.006040
H135	H	-0.921460	0.414273	0.761501
O136	O	-0.920114	0.415947	0.622270
C137	C	-0.937627	0.486024	0.638118
H138	H	-0.993044	0.488249	0.660483
H139	H	-0.934869	0.518915	0.588336
H140	H	-0.899131	0.507574	0.678351
O141	O	-0.746591	0.238641	0.448523
C142	C	-0.788913	0.278893	0.493982
H143	H	-0.768955	0.335182	0.495167
H144	H	-0.786637	0.255811	0.549027
H145	H	-0.845369	0.278236	0.474514
