data_functionalizedCrystal
_audit_creation_method	'MofGen! by Chris Wilmer'
_symmetry_space_group_name_H-M	'P1'
_symmetry_Int_Tables_number	1
_symmetry_cell_setting	triclinic
loop_
_symmetry_equiv_pos_as_xyz
  x,y,z
_cell_length_a	28.938199
_cell_length_b	28.937346
_cell_length_c	28.934044
_cell_angle_alpha	60.005004
_cell_angle_beta	60.009897
_cell_angle_gamma	59.994060
loop_
_atom_site_label
_atom_site_type_symbol
_atom_site_fract_x
_atom_site_fract_y
_atom_site_fract_z
O1	O	0.064043	-0.675186	0.564597
O2	O	0.564043	-0.175186	1.064597
O3	O	0.024124	-0.525682	0.454913
O4	O	0.524124	-0.025682	0.954913
O5	O	0.118795	-0.620275	0.454833
O6	O	0.618795	-0.120275	0.954833
O7	O	-0.030629	-0.580593	0.564678
O8	O	0.469371	-0.080593	1.064678
O9	O	0.150204	-0.588870	0.486157
O10	O	0.650204	-0.088870	0.986157
O11	O	0.055533	-0.494276	0.486238
O12	O	0.555533	0.005724	0.986238
O13	O	0.095452	-0.643780	0.595921
O14	O	0.595452	-0.143780	1.095921
Cu15	Cu	0.078360	-0.566161	0.543940
Cu16	Cu	0.578360	-0.066161	1.043940
Cu17	Cu	0.041215	-0.603301	0.506895
Cu18	Cu	0.541215	-0.103301	1.006895
O19	O	0.000780	-0.549187	0.596002
O20	O	0.500780	-0.049187	1.096002
N21	N	0.104487	-0.540042	0.569998
N22	N	0.604487	-0.040042	1.069998
N23	N	0.015094	-0.629425	0.480837
N24	N	0.515094	-0.129425	0.980837
C25	C	0.165467	-0.323909	0.630915
C26	C	0.665467	0.176091	1.130915
C27	C	0.165587	-0.479117	0.786068
C28	C	0.665587	0.020883	1.286068
C29	C	0.165481	-0.479095	0.630906
C30	C	0.665481	0.020905	1.130906
C31	C	0.320696	-0.479083	0.630835
C32	C	0.820696	0.020917	1.130835
C33	C	0.182557	-0.375118	0.647971
C34	C	0.682557	0.124882	1.147971
C35	C	0.182626	-0.462038	0.734858
C36	C	0.682626	0.037962	1.234858
C37	C	0.269485	-0.462018	0.647928
C38	C	0.769485	0.037982	1.147928
C39	C	0.182566	-0.462025	0.647966
C40	C	0.682566	0.037975	1.147966
C41	C	0.143714	-0.258726	0.609206
C42	C	0.643714	0.241274	1.109206
C43	C	0.143738	-0.500820	0.609192
C44	C	0.643738	-0.000820	1.109192
C45	C	0.204309	-0.440300	0.669680
C46	C	0.704309	0.059700	1.169680
C47	C	0.415481	-0.462740	0.580919
C48	C	0.915481	0.037260	1.080919
C49	C	0.474732	-0.482485	0.561145
C50	C	0.974732	0.017515	1.061145
C51	C	0.474757	-0.578356	0.597704
C52	C	0.974757	-0.078356	1.097704
C53	C	0.415508	-0.558609	0.617479
C54	C	0.915508	-0.058609	1.117479
C55	C	0.157989	-0.229089	0.550957
C56	C	0.657989	0.270911	1.050957
C57	C	0.138212	-0.169834	0.531225
C58	C	0.638212	0.330166	1.031225
C59	C	0.089890	-0.169857	0.627992
C60	C	0.589890	0.330143	1.127992
C61	C	0.109667	-0.229112	0.647725
C62	C	0.609667	0.270888	1.147725
C63	C	0.085482	-0.486515	0.623535
C64	C	0.585482	0.013485	1.123535
C65	C	0.065722	-0.506265	0.603789
C66	C	0.565722	-0.006265	1.103789
C67	C	0.162467	-0.554625	0.555370
C68	C	0.662467	-0.054625	1.055370
C69	C	0.182230	-0.534875	0.575110
C70	C	0.682230	-0.034875	1.075110
C71	C	0.085661	-0.486557	0.880902
C72	C	0.585661	0.013443	1.380902
C73	C	0.065952	-0.506323	0.940155
C74	C	0.565952	-0.006323	1.440155
C75	C	0.162734	-0.554693	0.940102
C76	C	0.662734	-0.054693	1.440102
C77	C	0.182441	-0.534928	0.880847
C78	C	0.682441	-0.034928	1.380847
C79	C	0.143904	-0.500859	0.851249
C80	C	0.643904	-0.000859	1.351249
C81	C	0.385871	-0.500801	0.609083
C82	C	0.885871	-0.000801	1.109083
C83	C	-0.110907	-0.668480	0.441278
C84	C	0.389093	-0.168480	0.941278
C85	C	-0.024049	-0.668588	0.441475
C86	C	0.475951	-0.168588	0.941475
C87	C	-0.045729	-0.690282	0.419668
C88	C	0.454271	-0.190282	0.919668
C89	C	-0.062146	-0.785032	0.469507
C90	C	0.437854	-0.285032	0.969507
C91	C	-0.042446	-0.844287	0.489286
C92	C	0.457554	-0.344287	0.989286
C93	C	0.053426	-0.844399	0.452899
C94	C	0.553426	-0.344399	0.952899
C95	C	0.033725	-0.785144	0.433120
C96	C	0.533725	-0.285144	0.933120
C97	C	-0.140617	-0.682751	0.499509
C98	C	0.359383	-0.182751	0.999509
C99	C	-0.199867	-0.662928	0.519152
C100	C	0.300133	-0.162928	1.019152
C101	C	-0.199694	-0.614571	0.422330
C102	C	0.300306	-0.114571	0.922330
C103	C	-0.140443	-0.634393	0.402687
C104	C	0.359557	-0.134393	0.902687
C105	C	-0.038320	-0.610337	0.427144
C106	C	0.461680	-0.110337	0.927144
C107	C	-0.018610	-0.590621	0.446974
C108	C	0.481390	-0.090621	0.946974
C109	C	0.029642	-0.687402	0.495454
C110	C	0.529642	-0.187402	0.995454
C111	C	0.009933	-0.707121	0.475630
C112	C	0.509933	-0.207121	0.975630
C113	C	-0.038148	-0.610347	0.324832
C114	C	0.461852	-0.110347	0.824832
C115	C	-0.018301	-0.590634	0.265579
C116	C	0.481699	-0.090634	0.765579
C117	C	0.030035	-0.687421	0.265643
C118	C	0.530035	-0.187421	0.765643
C119	C	0.010190	-0.707133	0.324897
C120	C	0.510190	-0.207133	0.824897
C121	C	-0.023903	-0.668595	0.354491
C122	C	0.476097	-0.168595	0.854491
C123	C	-0.024062	-0.755463	0.441426
C124	C	0.475938	-0.255463	0.941426
N125	N	0.503527	-0.540005	0.569810
N126	N	1.003527	-0.040005	1.069810
O127	O	0.684453	-0.545211	0.434650
O128	O	1.184453	-0.045211	0.934650
O129	O	0.684643	-0.655237	0.584005
O130	O	1.184643	-0.155237	1.084005
O131	O	0.684567	-0.654986	0.489282
O132	O	1.184567	-0.154986	0.989282
O133	O	0.684529	-0.545462	0.529373
O134	O	1.184529	-0.045462	1.029373
O135	O	0.590438	-0.623674	0.520735
O136	O	1.090438	-0.123674	1.020735
O137	O	0.590513	-0.623924	0.615457
O138	O	1.090513	-0.123924	1.115457
O139	O	0.590323	-0.513899	0.466102
O140	O	1.090323	-0.013899	0.966102
Cu141	Cu	0.581823	-0.566053	0.543652
Cu142	Cu	1.081823	-0.066053	1.043652
Cu143	Cu	0.693143	-0.603083	0.506456
Cu144	Cu	1.193143	-0.103083	1.006456
O145	O	0.590399	-0.514149	0.560825
O146	O	1.090399	-0.014149	1.060825
N147	N	0.771439	-0.629131	0.480292
N148	N	1.271439	-0.129131	0.980292
N149	N	0.104456	-0.141061	0.570015
N150	N	0.604456	0.358939	1.070015
O151	O	-0.030629	0.039964	0.564688
O152	O	0.469371	0.539964	1.064688
O153	O	0.118732	0.039984	0.454661
O154	O	0.618732	0.539984	0.954661
O155	O	0.023980	0.039958	0.454946
O156	O	0.523980	0.539958	0.954946
O157	O	0.064123	0.039990	0.564403
O158	O	0.564123	0.539990	1.064403
O159	O	0.055392	-0.054179	0.486321
O160	O	0.555392	0.445821	0.986321
O161	O	0.150144	-0.054153	0.486036
O162	O	0.650144	0.445847	0.986036
O163	O	0.000784	-0.054173	0.596063
O164	O	0.500784	0.445827	1.096063
Cu165	Cu	0.078332	-0.062759	0.543914
Cu166	Cu	0.578332	0.437241	1.043914
Cu167	Cu	0.041183	0.048570	0.506810
Cu168	Cu	0.541183	0.548570	1.006810
O169	O	0.095535	-0.054147	0.595778
O170	O	0.595535	0.445853	1.095778
N171	N	0.015053	0.126872	0.480710
N172	N	0.515053	0.626872	0.980710
N173	N	0.104760	-0.540096	0.968910
N174	N	0.604760	-0.040096	1.468910
O175	O	0.099447	-0.675167	1.149923
O176	O	0.599447	-0.175167	1.649923
O177	O	-0.010552	-0.525757	1.149951
O178	O	0.489448	-0.025757	1.649951
O179	O	-0.010297	-0.620493	1.149918
O180	O	0.489703	-0.120493	1.649918
O181	O	0.099192	-0.580431	1.149956
O182	O	0.599192	-0.080431	1.649956
O183	O	0.021064	-0.589100	1.055785
O184	O	0.521064	-0.089100	1.555785
O185	O	0.020809	-0.494365	1.055818
O186	O	0.520809	0.005635	1.555818
O187	O	0.130808	-0.643774	1.055790
O188	O	0.630808	-0.143774	1.555790
Cu189	Cu	0.078672	-0.566203	1.047209
Cu190	Cu	0.578672	-0.066203	1.547209
Cu191	Cu	0.041584	-0.603328	1.158532
Cu192	Cu	0.541584	-0.103328	1.658532
O193	O	0.130553	-0.549038	1.055823
O194	O	0.630553	-0.049038	1.555823
N195	N	0.015495	-0.629442	1.236831
N196	N	0.515495	-0.129442	1.736831
C197	C	0.036087	-0.491140	0.455465
C198	C	0.536087	0.008860	0.955465
C199	C	0.153325	-0.608283	0.455364
C200	C	0.653325	-0.108283	0.955364
C201	C	0.083488	-0.678322	0.595370
C202	C	0.583488	-0.178322	1.095370
C203	C	-0.033750	-0.561180	0.595470
C204	C	0.466250	-0.061180	1.095470
C205	C	0.637601	-0.654732	0.618548
C206	C	1.137601	-0.154732	1.118548
C207	C	0.637509	-0.654422	0.501245
C208	C	1.137509	-0.154422	1.001245
C209	C	0.637362	-0.514403	0.431560
C210	C	1.137362	-0.014403	0.931560
C211	C	0.637458	-0.514713	0.548862
C212	C	1.137458	-0.014713	1.048862
C213	C	0.153215	-0.006966	0.455158
C214	C	0.653215	0.493034	0.955158
C215	C	0.035916	-0.007114	0.455550
C216	C	0.535916	0.492886	0.955550
C217	C	-0.033739	-0.007106	0.595527
C218	C	0.466261	0.492894	1.095527
C219	C	0.083600	-0.007076	0.595174
C220	C	0.583600	0.492924	1.095174
C221	C	-0.010020	-0.491238	1.102888
C222	C	0.489980	0.008762	1.602888
C223	C	-0.009698	-0.608550	1.102828
C224	C	0.490302	-0.108550	1.602828
C225	C	0.130276	-0.678293	1.102853
C226	C	0.630276	-0.178293	1.602853
C227	C	0.129961	-0.560974	1.102892
C228	C	0.629961	-0.060974	1.602892
H229	H	0.018524	-0.494668	0.964293
H230	H	0.518524	0.005332	1.464293
H231	H	0.637300	-0.479859	0.388668
H232	H	1.137300	0.020141	0.888668
O233	O	0.171069	-0.550793	1.102821
O234	O	0.671069	-0.050793	1.602821
C235	C	0.265296	-0.545464	1.054037
C236	C	0.765296	-0.045464	1.554037
C237	C	0.218795	-0.557021	1.054054
C238	C	0.718795	-0.057021	1.554054
H239	H	0.303889	-0.550484	1.014607
H240	H	0.803889	-0.050484	1.514607
H241	H	0.277726	-0.576814	1.093401
H242	H	0.777726	-0.076814	1.593401
H243	H	0.248679	-0.500495	1.054075
H244	H	0.748679	-0.000495	1.554075
H245	H	0.235373	-0.601975	1.053996
H246	H	0.735373	-0.101975	1.553996
H247	H	0.206372	-0.525637	1.014693
H248	H	0.706372	-0.025637	1.514693
O249	O	0.171549	-0.729444	1.102819
O250	O	0.671549	-0.229444	1.602819
C251	C	0.266958	-0.787460	1.102855
C252	C	0.766958	-0.287460	1.602855
C253	C	0.220272	-0.729504	1.102880
C254	C	0.720272	-0.229504	1.602880
H255	H	0.306358	-0.787532	1.102916
H256	H	0.806358	-0.287532	1.602916
H257	H	0.277690	-0.795758	1.063442
H258	H	0.777690	-0.295758	1.563442
H259	H	0.251369	-0.822014	1.142231
H260	H	0.751369	-0.322014	1.642231
H261	H	0.235822	-0.694914	1.063530
H262	H	0.735822	-0.194914	1.563530
H263	H	0.209547	-0.721255	1.142319
H264	H	0.709547	-0.221255	1.642319
O265	O	-0.071231	-0.572831	0.353491
O266	O	0.428769	-0.072831	0.853491
C267	C	-0.117089	-0.474750	0.347174
C268	C	0.382911	0.025250	0.847174
C269	C	-0.079616	-0.517171	0.314648
C270	C	0.420384	-0.017171	0.814648
H271	H	-0.123890	-0.429740	0.315783
H272	H	0.376110	0.070260	0.815783
H273	H	-0.095434	-0.481562	0.374963
H274	H	0.404566	0.018438	0.874963
H275	H	-0.159721	-0.481549	0.374863
H276	H	0.340279	0.018451	0.874863
H277	H	-0.036978	-0.510397	0.286928
H278	H	0.463022	-0.010397	0.786928
H279	H	-0.101316	-0.510348	0.286895
H280	H	0.398684	-0.010348	0.786895
O281	O	0.048146	-0.453485	0.852241
O282	O	0.548146	0.046515	1.352241
C283	C	-0.049929	-0.407563	0.858553
C284	C	0.450071	0.092437	1.358553
C285	C	-0.007508	-0.445029	0.891082
C286	C	0.492492	0.054971	1.391082
H287	H	-0.094935	-0.400705	0.889942
H288	H	0.405065	0.099295	1.389942
H289	H	-0.043165	-0.429259	0.830827
H290	H	0.456835	0.070741	1.330827
H291	H	-0.043088	-0.364952	0.830801
H292	H	0.456912	0.135048	1.330801
H293	H	-0.014323	-0.487646	0.918865
H294	H	0.485677	0.012354	1.418865
H295	H	-0.014283	-0.423288	0.918772
H296	H	0.485717	0.076712	1.418772
O297	O	0.239017	-0.548889	0.852018
O298	O	0.739017	-0.048889	1.352018
C299	C	0.317438	-0.594437	0.785064
C300	C	0.817438	-0.094437	1.285064
C301	C	0.253363	-0.578675	0.817685
C302	C	0.753363	-0.078675	1.317685
H303	H	0.329055	-0.618512	0.757289
H304	H	0.829055	-0.118512	1.257289
H305	H	0.341622	-0.622211	0.816375
H306	H	0.841622	-0.122211	1.316375
H307	H	0.329066	-0.554217	0.757350
H308	H	0.829066	-0.054217	1.257350
H309	H	0.241683	-0.618864	0.845400
H310	H	0.741683	-0.118864	1.345400
H311	H	0.229215	-0.550880	0.786344
H312	H	0.729215	-0.050880	1.286344
O313	O	0.200246	-0.587800	0.968766
O314	O	0.700246	-0.087800	1.468766
C315	C	0.298320	-0.633669	0.962459
C316	C	0.798320	-0.133669	1.462459
C317	C	0.255901	-0.596175	0.929926
C318	C	0.755901	-0.096175	1.429926
H319	H	0.343326	-0.640442	0.931071
H320	H	0.843326	-0.140442	1.431071
H321	H	0.291555	-0.676318	0.990175
H322	H	0.791555	-0.176318	1.490175
H323	H	0.291477	-0.611970	0.990220
H324	H	0.791477	-0.111970	1.490220
H325	H	0.262718	-0.617824	0.902134
H326	H	0.762718	-0.117824	1.402134
H327	H	0.262676	-0.553528	0.902246
H328	H	0.762676	-0.053528	1.402246
H329	H	0.092017	-0.721269	0.629819
H330	H	0.592017	-0.221269	1.129819
O331	O	-0.050789	-0.618668	1.102792
O332	O	0.449211	-0.118668	1.602792
C333	C	-0.146118	-0.581590	1.102677
C334	C	0.353882	-0.081590	1.602677
C335	C	-0.099637	-0.570060	1.102731
C336	C	0.400363	-0.070060	1.602731
H337	H	-0.185619	-0.542294	1.102616
H338	H	0.314381	-0.042294	1.602616
H339	H	-0.156746	-0.618619	1.142060
H340	H	0.343254	-0.118619	1.642060
H341	H	-0.130379	-0.592383	1.063271
H342	H	0.369621	-0.092383	1.563271
H343	H	-0.115337	-0.559242	1.142110
H344	H	0.384663	-0.059242	1.642110
H345	H	-0.089015	-0.533046	1.063322
H346	H	0.410985	-0.033046	1.563322
O347	O	-0.111603	-0.620603	0.346112
O348	O	0.388397	-0.120603	0.846112
C349	C	-0.093354	-0.625116	0.257320
C350	C	0.406646	-0.125116	0.757320
C351	C	-0.126040	-0.640780	0.321382
C352	C	0.373960	-0.140780	0.821382
H353	H	-0.105024	-0.641412	0.237305
H354	H	0.394976	-0.141412	0.737305
H355	H	-0.045927	-0.645156	0.249878
H356	H	0.454073	-0.145156	0.749878
H357	H	-0.104944	-0.577141	0.237344
H358	H	0.395056	-0.077141	0.737344
H359	H	-0.114498	-0.688747	0.341401
H360	H	0.385502	-0.188747	0.841401
H361	H	-0.173460	-0.620700	0.328784
H362	H	0.326540	-0.120700	0.828784
H363	H	0.391402	-0.589605	0.640414
H364	H	0.891402	-0.089605	1.140414
H365	H	0.196022	-0.006699	0.420530
H366	H	0.696022	0.493301	0.920530
O367	O	0.048014	-0.453417	0.656611
O368	O	0.548014	0.046583	1.156611
C369	C	-0.050033	-0.407555	0.702574
C370	C	0.449967	0.092445	1.202574
C371	C	-0.007662	-0.445033	0.665099
C372	C	0.492338	0.054967	1.165099
H373	H	-0.095056	-0.400775	0.709459
H374	H	0.404944	0.099225	1.209459
H375	H	-0.043263	-0.364908	0.680874
H376	H	0.456737	0.135092	1.180874
H377	H	-0.043143	-0.429272	0.745171
H378	H	0.456857	0.070728	1.245171
H379	H	-0.014526	-0.423366	0.622496
H380	H	0.485474	0.076634	1.122496
H381	H	-0.014442	-0.487678	0.686844
H382	H	0.485558	0.012322	1.186844
H383	H	-0.076633	-0.007113	0.630069
H384	H	0.423367	0.492887	1.130069
O385	O	0.025857	-0.439932	0.414348
O386	O	0.525857	0.060068	0.914348
C387	C	-0.031532	-0.371756	0.354769
C388	C	0.468468	0.128244	0.854769
C389	C	-0.019999	-0.429765	0.401325
C390	C	0.480001	0.070235	0.901325
H391	H	-0.068614	-0.363512	0.344234
H392	H	0.431386	0.136488	0.844234
H393	H	0.007719	-0.371548	0.315236
H394	H	0.507719	0.128452	0.815236
H395	H	-0.042261	-0.337242	0.370402
H396	H	0.457739	0.162758	0.870402
H397	H	-0.009284	-0.464311	0.385745
H398	H	0.490716	0.035689	0.885745
H399	H	-0.059259	-0.429925	0.440848
H400	H	0.440741	0.070075	0.940848
H401	H	-0.076669	-0.552723	0.629962
H402	H	0.423331	-0.052723	1.129962
H403	H	0.196241	-0.616742	0.420869
H404	H	0.696241	-0.116742	0.920869
H405	H	-0.044554	-0.448327	1.102896
H406	H	0.455446	0.051673	1.602896
O407	O	0.009137	-0.492305	0.617623
O408	O	0.509137	0.007695	1.117623
C409	C	-0.069354	-0.446737	0.583627
C410	C	0.430646	0.053263	1.083627
C411	C	-0.005268	-0.462500	0.567881
C412	C	0.494732	0.037500	1.067881
H413	H	-0.081019	-0.422648	0.543420
H414	H	0.418981	0.077352	1.043420
H415	H	-0.093499	-0.418978	0.611355
H416	H	0.406501	0.081022	1.111355
H417	H	-0.080982	-0.486958	0.607769
H418	H	0.419018	0.013042	1.107769
H419	H	0.006412	-0.422311	0.543719
H420	H	0.506412	0.077689	1.043719
H421	H	0.018841	-0.490281	0.540181
H422	H	0.518841	0.009719	1.040181
O423	O	0.637418	-0.473719	0.559194
O424	O	1.137418	0.026281	1.059194
C425	C	0.637496	-0.447839	0.626417
C426	C	1.137496	0.052161	1.126417
C427	C	0.637528	-0.494310	0.614797
C428	C	1.137528	0.005690	1.114797
H429	H	0.637597	-0.464473	0.671367
H430	H	1.137597	0.035527	1.171367
H431	H	0.598063	-0.409222	0.621430
H432	H	1.098063	0.090778	1.121430
H433	H	0.676849	-0.435427	0.595036
H434	H	1.176849	0.064573	1.095036
H435	H	0.598201	-0.506770	0.646167
H436	H	1.098201	-0.006770	1.146167
H437	H	0.676987	-0.532896	0.619765
H438	H	1.176987	-0.032896	1.119765
H439	H	0.193817	-0.582360	0.527624
H440	H	0.693817	-0.082360	1.027624
H441	H	0.092195	-0.007066	0.629560
H442	H	0.592195	0.492934	1.129560
O443	O	0.025586	-0.007165	0.414600
O444	O	0.525586	0.492835	0.914600
C445	C	-0.041680	-0.007191	0.388745
C446	C	0.458320	0.492809	0.888745
C447	C	-0.030057	-0.007135	0.435171
C448	C	0.469943	0.492865	0.935171
H449	H	-0.086670	-0.007154	0.405355
H450	H	0.413330	0.492846	0.905355
H451	H	-0.010375	-0.046604	0.376391
H452	H	0.489625	0.453396	0.876391
H453	H	-0.036606	0.032189	0.350099
H454	H	0.463394	0.532189	0.850099
H455	H	-0.035137	-0.046488	0.473847
H456	H	0.464863	0.453512	0.973847
H457	H	-0.061359	0.032304	0.447476
H458	H	0.438641	0.532304	0.947476
O459	O	0.056806	-0.141174	0.665485
O460	O	0.556806	0.358826	1.165485
C461	C	0.011005	-0.147451	0.763551
C462	C	0.511005	0.352549	1.263551
C463	C	0.048467	-0.180002	0.721152
C464	C	0.548467	0.319998	1.221152
H465	H	0.004261	-0.178829	0.808566
H466	H	0.504261	0.321171	1.308566
H467	H	-0.031655	-0.119732	0.756794
H468	H	0.468345	0.380268	1.256794
H469	H	0.032713	-0.119688	0.756675
H470	H	0.532713	0.380312	1.256675
H471	H	0.026809	-0.207796	0.728001
H472	H	0.526809	0.292204	1.228001
H473	H	0.091125	-0.207685	0.727919
H474	H	0.591125	0.292315	1.227919
H475	H	0.229667	-0.546519	0.563426
H476	H	0.729667	-0.046519	1.063426
H477	H	0.637525	-0.688829	0.492664
H478	H	1.137525	-0.188829	0.992664
H479	H	0.498884	-0.625426	0.604536
H480	H	0.998884	-0.125426	1.104536
H481	H	0.391352	-0.415667	0.574082
H482	H	0.891352	0.084333	1.074082
O483	O	0.503473	-0.445477	0.533698
O484	O	1.003473	0.054523	1.033698
C485	C	0.521528	-0.363320	0.453850
C486	C	1.021528	0.136680	0.953850
C487	C	0.488953	-0.405198	0.484873
C488	C	0.988953	0.094802	0.984873
H489	H	0.509791	-0.330738	0.414375
H490	H	1.009791	0.169262	0.914375
H491	H	0.568973	-0.387331	0.441112
H492	H	1.068973	0.112669	0.941112
H493	H	0.509905	-0.340866	0.483123
H494	H	1.009905	0.159134	0.983123
H495	H	0.500528	-0.427664	0.455632
H496	H	1.000528	0.072336	0.955632
H497	H	0.441516	-0.381157	0.497620
H498	H	0.941516	0.118843	0.997620
O499	O	0.191035	-0.257767	0.513463
O500	O	0.691035	0.242233	1.013463
C501	C	0.236898	-0.251490	0.415398
C502	C	0.736898	0.248510	0.915398
C503	C	0.199458	-0.218940	0.457796
C504	C	0.699458	0.281060	0.957796
H505	H	0.243730	-0.220113	0.370382
H506	H	0.743730	0.279887	0.870382
H507	H	0.215199	-0.279222	0.422194
H508	H	0.715199	0.220778	0.922194
H509	H	0.279519	-0.279241	0.422234
H510	H	0.779519	0.220759	0.922234
H511	H	0.156831	-0.191158	0.450986
H512	H	0.656831	0.308842	0.950986
H513	H	0.221202	-0.191244	0.450990
H514	H	0.721202	0.308756	0.950990
H515	H	0.149834	-0.145702	0.483792
H516	H	0.649834	0.354298	0.983792
H517	H	-0.029909	-0.543201	0.241439
H518	H	0.470091	-0.043201	0.741439
O519	O	0.095867	-0.257987	0.704290
O520	O	0.595867	0.242013	1.204290
C521	C	0.105019	-0.349282	0.777580
C522	C	0.605019	0.150718	1.277580
C523	C	0.120659	-0.316650	0.713504
C524	C	0.620659	0.183350	1.213504
H525	H	0.125066	-0.396716	0.785050
H526	H	0.625066	0.103284	1.285050
H527	H	0.057053	-0.337706	0.797638
H528	H	0.557053	0.162294	1.297638
H529	H	0.121391	-0.337575	0.797491
H530	H	0.621391	0.162425	1.297491
H531	H	0.104324	-0.328339	0.693544
H532	H	0.604324	0.171661	1.193544
H533	H	0.168627	-0.328229	0.693487
H534	H	0.668627	0.171771	1.193487
O535	O	0.063078	-0.724914	0.236963
O536	O	0.563078	-0.224914	0.736963
C537	C	0.070639	-0.801535	0.218782
C538	C	0.570639	-0.301535	0.718782
C539	C	0.033163	-0.759112	0.251306
C540	C	0.533163	-0.259112	0.751306
H541	H	0.046463	-0.829187	0.230357
H542	H	0.546463	-0.329187	0.730357
H543	H	0.110795	-0.829359	0.230534
H544	H	0.610795	-0.329359	0.730534
H545	H	0.082394	-0.777434	0.171340
H546	H	0.582394	-0.277434	0.671340
H547	H	0.021365	-0.783167	0.298755
H548	H	0.521365	-0.283167	0.798755
H549	H	-0.006966	-0.731289	0.239507
H550	H	0.493034	-0.231289	0.739507
O551	O	-0.032489	-0.534017	0.432969
O552	O	0.467511	-0.034017	0.932969
C553	C	-0.082420	-0.440099	0.382783
C554	C	0.417580	0.059901	0.882783
C555	C	-0.066743	-0.504186	0.398599
C556	C	0.433257	-0.004186	0.898599
H557	H	-0.110127	-0.415962	0.355002
H558	H	0.389873	0.084038	0.855002
H559	H	-0.042200	-0.428479	0.358702
H560	H	0.457800	0.071521	0.858702
H561	H	-0.106573	-0.428413	0.422978
H562	H	0.393427	0.071587	0.922978
H563	H	-0.042604	-0.515918	0.358433
H564	H	0.457396	-0.015918	0.858433
H565	H	-0.106984	-0.515772	0.422702
H566	H	0.393016	-0.015772	0.922702
O567	O	0.062627	-0.724911	0.528642
O568	O	0.562627	-0.224911	1.028642
C569	C	0.108437	-0.822990	0.574603
C570	C	0.608437	-0.322990	1.074603
C571	C	0.071067	-0.780572	0.537022
C572	C	0.571067	-0.280572	1.037022
H573	H	0.115282	-0.868001	0.581380
H574	H	0.615282	-0.368001	1.081380
H575	H	0.086676	-0.816182	0.617242
H576	H	0.586676	-0.316182	1.117242
H577	H	0.151057	-0.816185	0.552974
H578	H	0.651057	-0.316185	1.052974
H579	H	0.028441	-0.787352	0.558601
H580	H	0.528441	-0.287352	1.058601
H581	H	0.092873	-0.787391	0.494385
H582	H	0.592873	-0.287391	0.994385
H583	H	-0.065985	-0.578958	0.399332
H584	H	0.434015	-0.078958	0.899332
O585	O	0.070795	-0.756508	0.405875
O586	O	0.570795	-0.256508	0.905875
C587	C	0.167972	-0.762874	0.371843
C588	C	0.667972	-0.262874	0.871843
C589	C	0.126050	-0.795375	0.402721
C590	C	0.626050	-0.295375	0.902721
H591	H	0.212656	-0.794284	0.369273
H592	H	0.712656	-0.294284	0.869273
H593	H	0.156093	-0.735142	0.396079
H594	H	0.656093	-0.235142	0.896079
H595	H	0.166203	-0.735129	0.327279
H596	H	0.666203	-0.235129	0.827279
H597	H	0.127797	-0.823151	0.447285
H598	H	0.627797	-0.323151	0.947285
H599	H	0.137943	-0.823072	0.378441
H600	H	0.637943	-0.323072	0.878441
O601	O	0.637764	-0.695957	0.669696
O602	O	1.137764	-0.195957	1.169696
C603	C	0.686602	-0.755751	0.737830
C604	C	1.186602	-0.255751	1.237830
C605	C	0.686493	-0.709073	0.679889
C606	C	1.186493	-0.209073	1.179889
H607	H	0.725989	-0.766361	0.746095
H608	H	1.225989	-0.266361	1.246095
H609	H	0.686663	-0.795220	0.737914
H610	H	1.186663	-0.295220	1.237914
H611	H	0.647204	-0.740197	0.772398
H612	H	1.147204	-0.240197	1.272398
H613	H	0.725884	-0.724573	0.645289
H614	H	1.225884	-0.224573	1.145289
H615	H	0.686403	-0.669613	0.679854
H616	H	1.186403	-0.169613	1.179854
O617	O	0.109543	-0.873260	0.444936
O618	O	0.609543	-0.373260	0.944936
C619	C	0.181119	-0.940244	0.488744
C620	C	0.681119	-0.440244	0.988744
C621	C	0.117554	-0.907586	0.497845
C622	C	0.617554	-0.407586	0.997845
H623	H	0.187615	-0.968013	0.531512
H624	H	0.687615	-0.468013	1.031512
H625	H	0.204980	-0.908956	0.465307
H626	H	0.704980	-0.408956	0.965307
H627	H	0.197818	-0.967970	0.462664
H628	H	0.697818	-0.467970	0.962664
H629	H	0.100804	-0.879859	0.523938
H630	H	0.600804	-0.379859	1.023938
H631	H	0.093731	-0.938905	0.521257
H632	H	0.593731	-0.438905	1.021257
H633	H	0.021552	-0.754553	0.487300
H634	H	0.521552	-0.254553	0.987300
O635	O	-0.079517	-0.872922	0.516537
O636	O	0.420483	-0.372922	1.016537
C637	C	-0.149208	-0.890955	0.511217
C638	C	0.350792	-0.390955	1.011217
C639	C	-0.107236	-0.858497	0.480263
C640	C	0.392764	-0.358497	0.980263
H641	H	-0.171623	-0.879314	0.481899
H642	H	0.328377	-0.379314	0.981899
H643	H	-0.181810	-0.879207	0.550678
H644	H	0.318190	-0.379207	1.050678
H645	H	-0.125231	-0.938409	0.523983
H646	H	0.374769	-0.438409	1.023983
H647	H	-0.131165	-0.811036	0.467459
H648	H	0.368835	-0.311036	0.967459
H649	H	-0.074636	-0.870292	0.440827
H650	H	0.425364	-0.370292	0.940827
O651	O	-0.112011	-0.715836	0.537071
O652	O	0.387989	-0.215836	1.037071
C653	C	-0.118437	-0.761730	0.635181
C654	C	0.381563	-0.261730	1.135181
C655	C	-0.150902	-0.724245	0.592703
C656	C	0.349098	-0.224245	1.092703
H657	H	-0.149867	-0.768550	0.680168
H658	H	0.350133	-0.268550	1.180168
H659	H	-0.090709	-0.740070	0.628462
H660	H	0.409291	-0.240070	1.128462
H661	H	-0.090695	-0.804356	0.628356
H662	H	0.409305	-0.304356	1.128356
H663	H	-0.178675	-0.681612	0.599502
H664	H	0.321325	-0.181612	1.099502
H665	H	-0.178595	-0.745949	0.599433
H666	H	0.321405	-0.245949	1.099433
O667	O	-0.118254	-0.756132	0.477467
O668	O	0.381746	-0.256132	0.977467
C669	C	-0.189821	-0.689193	0.433638
C670	C	0.310179	-0.189193	0.933638
C671	C	-0.126262	-0.721883	0.424549
C672	C	0.373738	-0.221883	0.924549
H673	H	-0.196316	-0.661505	0.390861
H674	H	0.303684	-0.161505	0.890861
H675	H	-0.206550	-0.661400	0.459658
H676	H	0.293450	-0.161400	0.959658
H677	H	-0.213655	-0.720511	0.457129
H678	H	0.286345	-0.220511	0.957129
H679	H	-0.102381	-0.690607	0.401042
H680	H	0.397619	-0.190607	0.901042
H681	H	-0.109576	-0.749686	0.398551
H682	H	0.390424	-0.249686	0.898551
H683	H	-0.224058	-0.674545	0.566571
H684	H	0.275942	-0.174545	1.066571
H685	H	0.021795	-0.754566	0.349042
H686	H	0.521795	-0.254566	0.849042
O687	O	-0.228417	-0.581540	0.384869
O688	O	0.271583	-0.081540	0.884869
C689	C	-0.295261	-0.570883	0.350872
C690	C	0.204739	-0.070883	0.850872
C691	C	-0.262757	-0.608354	0.393316
C692	C	0.237243	-0.108354	0.893316
H693	H	-0.323041	-0.592542	0.357695
H694	H	0.176959	-0.092542	0.857695
H695	H	-0.263877	-0.564103	0.305862
H696	H	0.236123	-0.064103	0.805862
H697	H	-0.322958	-0.528237	0.357663
H698	H	0.177042	-0.028237	0.857663
H699	H	-0.235059	-0.651021	0.386577
H700	H	0.264941	-0.151021	0.886577
H701	H	-0.294171	-0.615087	0.438311
H702	H	0.205829	-0.115087	0.938311
