data_functionalizedCrystal
_audit_creation_method	'MofGen! by Chris Wilmer'
_symmetry_space_group_name_H-M	'P1'
_symmetry_Int_Tables_number	1
_symmetry_cell_setting	triclinic
loop_
_symmetry_equiv_pos_as_xyz
  x,y,z
_cell_length_a	12.645331
_cell_length_b	29.839131
_cell_length_c	12.645324
_cell_angle_alpha	89.960392
_cell_angle_beta	89.977038
_cell_angle_gamma	90.040399
loop_
_atom_site_label
_atom_site_type_symbol
_atom_site_fract_x
_atom_site_fract_y
_atom_site_fract_z
Zn1	Zn	1.620559	-0.178831	-0.599388
Zn2	Zn	2.120559	0.321169	-0.099388
Zn3	Zn	1.620367	-0.253972	-0.422104
Zn4	Zn	2.120367	0.246028	0.077896
Zn5	Zn	1.443273	-0.178856	-0.422133
Zn6	Zn	1.943273	0.321144	0.077867
Zn7	Zn	1.443182	-0.253934	-0.599320
Zn8	Zn	1.943182	0.246066	-0.099320
O9	O	1.531845	-0.216398	-0.510736
O10	O	2.031845	0.283602	-0.010736
O11	O	1.768881	-0.188805	-0.575888
O12	O	2.268881	0.311195	-0.075888
O13	O	1.596832	-0.244034	-0.273761
O14	O	2.096832	0.255966	0.226239
O15	O	1.466909	-0.115985	-0.445687
O16	O	1.966909	0.384015	0.054313
O17	O	1.768740	-0.244011	-0.445638
O18	O	2.268740	0.255989	0.054362
O19	O	1.597161	-0.115968	-0.575916
O20	O	2.097161	0.384032	-0.075916
O21	O	1.466722	-0.188846	-0.273782
O22	O	1.966722	0.311154	0.226218
O23	O	1.294914	-0.188809	-0.445620
O24	O	1.794914	0.311191	0.054380
O25	O	1.466755	-0.243945	-0.747676
O26	O	1.966755	0.256055	-0.247676
O27	O	1.294847	-0.243969	-0.575799
O28	O	1.794847	0.256031	-0.075799
O29	O	1.597073	-0.188768	-0.747727
O30	O	2.097073	0.311232	-0.247727
O31	O	1.596744	-0.316834	-0.445571
O32	O	2.096744	0.183166	0.054429
O33	O	1.466568	-0.316806	-0.575771
O34	O	1.966568	0.183194	-0.075771
C35	C	1.256416	-0.216388	-0.510706
C36	C	1.756416	0.283612	-0.010706
C37	C	1.138586	-0.216394	-0.510718
C38	C	1.638586	0.283606	-0.010718
C39	C	0.971028	-0.181533	-0.429274
C40	C	1.471028	0.318467	0.070726
C41	C	1.093588	-0.181624	-0.428915
C42	C	1.593588	0.318376	0.071085
C43	C	1.094019	-0.263721	-0.480188
C44	C	1.594019	0.236279	0.019812
C45	C	0.971421	-0.263531	-0.479632
C46	C	1.471421	0.236469	0.020368
C47	C	0.971449	-0.204378	-0.623006
C48	C	1.471449	0.295622	-0.123006
C49	C	1.094055	-0.203320	-0.622382
C50	C	1.594055	0.296680	-0.122382
C51	C	1.531654	-0.333121	-0.510684
C52	C	2.031654	0.166879	-0.010684
C53	C	1.531669	-0.383055	-0.510697
C54	C	2.031669	0.116945	-0.010697
C55	C	1.599752	-0.692701	-0.443041
C56	C	2.099752	-0.192701	0.056959
C57	C	1.599883	-0.880374	-0.443082
C58	C	2.099883	-0.380374	0.056918
O59	O	1.657617	-0.904640	-0.385518
O60	O	2.157617	-0.404640	0.114482
N61	N	1.532065	-0.903840	-0.510816
N62	N	2.032065	-0.403840	-0.010816
C63	C	1.464215	-0.880386	-0.578550
C64	C	1.964215	-0.380386	-0.078550
O65	O	1.406543	-0.904652	-0.636171
O66	O	1.906543	-0.404652	-0.136171
C67	C	1.464091	-0.692714	-0.578514
C68	C	1.964091	-0.192714	-0.078514
C69	C	1.531905	-0.669249	-0.510767
C70	C	2.031905	-0.169249	-0.010767
C71	C	1.667561	-0.669236	-0.375300
C72	C	2.167561	-0.169236	0.124700
C73	C	1.667524	-0.622321	-0.375287
C74	C	2.167524	-0.122321	0.124713
C75	C	1.599677	-0.598870	-0.443013
C76	C	2.099677	-0.098870	0.056987
C77	C	1.531867	-0.622334	-0.510753
C78	C	2.031867	-0.122334	-0.010753
C79	C	1.396247	-0.669260	-0.646252
C80	C	1.896247	-0.169260	-0.146252
C81	C	1.396224	-0.622339	-0.646239
C82	C	1.896224	-0.122339	-0.146239
C83	C	1.464038	-0.598875	-0.578492
C84	C	1.964038	-0.098875	-0.078492
C85	C	1.463983	-0.551967	-0.578466
C86	C	1.963983	-0.051967	-0.078466
N87	N	1.531800	-0.528501	-0.510732
N88	N	2.031800	-0.028501	-0.010732
C89	C	1.599647	-0.551952	-0.443005
C90	C	2.099647	-0.051952	0.056995
C91	C	1.464284	-0.978916	-0.578563
C92	C	1.964284	-0.478916	-0.078563
C93	C	1.464314	-1.025834	-0.578571
C94	C	1.964314	-0.525834	-0.078571
C95	C	1.599983	-1.025819	-0.443104
C96	C	2.099983	-0.525819	0.056896
C97	C	1.599947	-0.978900	-0.443091
C98	C	2.099947	-0.478900	0.056909
C99	C	1.532101	-0.955450	-0.510829
C100	C	2.032101	-0.455450	-0.010829
C101	C	1.599563	-0.453426	-0.442981
C102	C	2.099563	0.046574	0.057019
C103	C	1.599516	-0.406507	-0.442970
C104	C	2.099516	0.093493	0.057030
C105	C	1.463852	-0.406526	-0.578441
C106	C	1.963852	0.093474	-0.078441
C107	C	1.463894	-0.453441	-0.578448
C108	C	1.963894	0.046559	-0.078448
C109	C	1.531758	-0.476890	-0.510715
C110	C	2.031758	0.023110	-0.010715
O111	O	1.406287	-0.527672	-0.636009
O112	O	1.906287	-0.027672	-0.136009
O113	O	1.657327	-0.527678	-0.385409
O114	O	2.157327	-0.027678	0.114591
C115	C	1.599789	-0.739616	-0.443054
C116	C	2.099789	-0.239616	0.056946
C117	C	1.531980	-0.763080	-0.510794
C118	C	2.031980	-0.263080	-0.010794
C119	C	1.464133	-0.739629	-0.578521
C120	C	1.964133	-0.239629	-0.078521
C121	C	1.532009	-0.809998	-0.510802
C122	C	2.032009	-0.309998	-0.010802
C123	C	1.599856	-0.833449	-0.443076
C124	C	2.099856	-0.333449	0.056924
C125	C	1.667674	-0.809983	-0.375341
C126	C	2.167674	-0.309983	0.124659
C127	C	1.667636	-0.763067	-0.375328
C128	C	2.167636	-0.263067	0.124672
C129	C	1.396316	-0.763096	-0.646256
C130	C	1.896316	-0.263096	-0.146256
C131	C	1.396358	-0.810011	-0.646263
C132	C	1.896358	-0.310011	-0.146263
C133	C	1.464205	-0.833462	-0.578536
C134	C	1.964205	-0.333462	-0.078536
C135	C	1.808351	-0.216409	-0.510768
C136	C	2.308351	0.283591	-0.010768
C137	C	1.926181	-0.216414	-0.510781
C138	C	2.426181	0.283586	-0.010781
C139	C	1.531925	-0.216349	-0.787242
C140	C	2.031925	0.283651	-0.287242
C141	C	1.531959	-0.216329	-0.905072
C142	C	2.031959	0.283671	-0.405072
C143	C	1.532067	-0.099220	-0.510812
C144	C	2.032067	0.400780	-0.010812
C145	C	1.532161	-0.049285	-0.510845
C146	C	2.032161	0.450715	-0.010845
C147	C	1.614261	-0.181717	-1.072668
C148	C	2.114261	0.318283	-0.572668
C149	C	1.613997	-0.181592	-0.950108
C150	C	2.113997	0.318408	-0.450108
C151	C	1.420289	-0.203463	-0.949554
C152	C	1.920289	0.296537	-0.449554
C153	C	1.420789	-0.203200	-1.072153
C154	C	1.920789	0.296800	-0.572153
C155	C	1.560420	-0.263857	-1.072254
C156	C	2.060420	0.236143	-0.572254
C157	C	1.562864	-0.263618	-0.949649
C158	C	2.062864	0.236382	-0.449649
C159	C	1.531827	-0.216415	-0.235307
C160	C	2.031827	0.283585	0.264693
C161	C	1.531999	-0.216309	-0.117477
C162	C	2.031999	0.283691	0.382523
H163	H	0.942445	-0.229783	-0.683735
H164	H	1.442445	0.270217	-0.183735
Br165	Br	1.691554	-0.374665	-0.351020
Br166	Br	2.191554	0.125335	0.148980
H167	H	1.722747	-0.603219	-0.320125
H168	H	2.222747	-0.103219	0.179875
H169	H	1.408677	-0.472547	-0.633616
H170	H	1.908677	0.027453	-0.133616
Br171	Br	1.470246	-0.308889	-0.898557
Br172	Br	1.970246	0.191111	-0.398557
Br173	Br	1.460552	-0.306815	-1.120541
Br174	Br	1.960552	0.193185	-0.620541
H175	H	1.655167	-0.959798	-0.387927
H176	H	2.155167	-0.459798	0.112073
Br177	Br	1.142383	-0.194880	-0.290303
Br178	Br	1.642383	0.305120	0.209697
H179	H	1.654826	-0.472513	-0.387828
H180	H	2.154826	0.027487	0.112172
Br181	Br	1.372198	-0.947098	-0.670501
Br182	Br	1.872198	-0.447098	-0.170501
Br183	Br	1.759654	-0.701054	-0.283375
Br184	Br	2.259654	-0.201054	0.216625
H185	H	1.655227	-1.044921	-0.387958
H186	H	2.155227	-0.544921	0.112042
Br187	Br	1.699840	-0.279788	-0.901204
Br188	Br	2.199840	0.220212	-0.401204
Br189	Br	1.143821	-0.123130	-0.460812
Br190	Br	1.643821	0.376870	0.039188
H191	H	1.595689	-0.146689	-1.103503
H192	H	2.095689	0.353311	-0.603503
Br193	Br	1.142638	-0.145276	-0.660769
Br194	Br	1.642638	0.354724	-0.160769
Br195	Br	0.919576	-0.194635	-0.291482
Br196	Br	1.419576	0.305365	0.208518
Br197	Br	0.921981	-0.122861	-0.460825
Br198	Br	1.421981	0.377139	0.039175
H199	H	1.640424	-0.275570	-1.103236
H200	H	2.140424	0.224430	-0.603236
Br201	Br	1.145107	-0.242576	-0.729021
Br202	Br	1.645107	0.257424	-0.229021
H203	H	1.396692	-0.168443	-1.100773
H204	H	1.896692	0.331557	-0.600773
Br205	Br	0.923652	-0.280541	-0.342890
Br206	Br	1.423652	0.219459	0.157110
H207	H	1.409083	-1.044935	-0.633727
H208	H	1.909083	-0.544935	-0.133727
Br209	Br	1.582640	-0.122885	-0.901260
Br210	Br	2.082640	0.377115	-0.401260
Br211	Br	1.379386	-0.146176	-0.898425
Br212	Br	1.879386	0.353824	-0.398425
Br213	Br	0.920013	-0.147860	-0.669278
Br214	Br	1.420013	0.352140	-0.169278
H215	H	0.941750	-0.290400	-0.536408
H216	H	1.441750	0.209600	-0.036408
H217	H	1.341020	-0.688356	-0.701414
H218	H	1.841020	-0.188356	-0.201414
H219	H	1.124664	-0.274103	-0.399026
H220	H	1.624664	0.225897	0.100974
Br221	Br	1.759746	-0.841819	-0.283423
Br222	Br	2.259746	-0.341819	0.216577
Br223	Br	1.142573	-0.308197	-0.576035
Br224	Br	1.642573	0.191803	-0.076035
H225	H	1.340977	-0.603248	-0.701402
H226	H	1.840977	-0.103248	-0.201402
H227	H	1.357331	-0.227883	-0.920379
H228	H	1.857331	0.272117	-0.420379
Br229	Br	1.371782	-0.374690	-0.670355
Br230	Br	1.871782	0.125310	-0.170355
Br231	Br	1.304312	-0.841850	-0.738211
Br232	Br	1.804312	-0.341850	-0.238211
H233	H	1.722857	-0.743966	-0.320162
H234	H	2.222857	-0.243966	0.179838
H235	H	1.341068	-0.744005	-0.701408
H236	H	1.841068	-0.244005	-0.201408
H237	H	1.696804	-0.189650	-0.920035
H238	H	2.196804	0.310350	-0.420035
H239	H	1.697342	-0.189673	-1.102158
H240	H	2.197342	0.310327	-0.602158
Br241	Br	1.315148	-0.243358	-1.121561
Br242	Br	1.815148	0.256642	-0.621561
