data_functionalizedCrystal
_audit_creation_method	'MofGen! by Chris Wilmer'
_symmetry_space_group_name_H-M	'P1'
_symmetry_Int_Tables_number	1
_symmetry_cell_setting	triclinic
loop_
_symmetry_equiv_pos_as_xyz
  x,y,z
_cell_length_a	23.532407
_cell_length_b	22.610064
_cell_length_c	23.532407
_cell_angle_alpha	89.990850
_cell_angle_beta	97.151322
_cell_angle_gamma	90.009934
loop_
_atom_site_label
_atom_site_type_symbol
_atom_site_fract_x
_atom_site_fract_y
_atom_site_fract_z
O1	O	0.755269	0.049117	-0.069133
O2	O	1.005269	0.299117	0.180867
O3	O	1.255269	0.549117	0.430867
O4	O	1.505269	0.799117	0.680867
O5	O	0.589405	0.049135	-0.079137
O6	O	0.839405	0.299135	0.170863
O7	O	1.089405	0.549135	0.420863
O8	O	1.339405	0.799135	0.670863
O9	O	0.677338	0.049114	0.008797
O10	O	0.927338	0.299114	0.258797
O11	O	1.177338	0.549114	0.508797
O12	O	1.427338	0.799114	0.758797
O13	O	0.667335	0.049137	-0.157067
O14	O	0.917335	0.299137	0.092933
O15	O	1.167335	0.549137	0.342933
O16	O	1.417335	0.799137	0.592933
O17	O	0.677313	-0.049255	0.008797
O18	O	0.927313	0.200745	0.258797
O19	O	1.177313	0.450745	0.508797
O20	O	1.427313	0.700745	0.758797
O21	O	0.589380	-0.049234	-0.079137
O22	O	0.839380	0.200766	0.170863
O23	O	1.089380	0.450766	0.420863
O24	O	1.339380	0.700766	0.670863
O25	O	0.755243	-0.049252	-0.069133
O26	O	1.005243	0.200748	0.180867
O27	O	1.255243	0.450748	0.430867
O28	O	1.505243	0.700748	0.680867
Zn29	Zn	0.672307	-0.064862	-0.074135
Zn30	Zn	0.922307	0.185138	0.175865
Zn31	Zn	1.172307	0.435138	0.425865
Zn32	Zn	1.422307	0.685138	0.675865
Zn33	Zn	0.672341	0.064744	-0.074135
Zn34	Zn	0.922341	0.314744	0.175865
Zn35	Zn	1.172341	0.564744	0.425865
Zn36	Zn	1.422341	0.814744	0.675865
O37	O	0.667310	-0.049232	-0.157067
O38	O	0.917310	0.200768	0.092933
O39	O	1.167310	0.450768	0.342933
O40	O	1.417310	0.700768	0.592933
C41	C	0.568176	-0.000048	-0.078882
C42	C	0.818176	0.249952	0.171118
C43	C	1.068176	0.499952	0.421118
C44	C	1.318176	0.749952	0.671118
C45	C	0.504959	-0.000041	-0.078116
C46	C	0.754959	0.249959	0.171884
C47	C	1.004959	0.499959	0.421884
C48	C	1.254959	0.749959	0.671884
N49	N	0.672288	-0.153314	-0.074135
N50	N	0.922288	0.096686	0.175865
N51	N	1.172288	0.346686	0.425865
N52	N	1.422288	0.596686	0.675865
C53	C	0.105856	-0.000061	-0.125350
C54	C	0.355856	0.249939	0.124650
C55	C	0.605856	0.499939	0.374650
C56	C	0.855856	0.749939	0.624650
C57	C	0.046456	-0.000065	-0.124638
C58	C	0.296456	0.249935	0.125362
C59	C	0.546456	0.499935	0.375362
C60	C	0.796456	0.749935	0.625362
O61	O	0.009711	-0.000081	-0.168424
O62	O	0.259711	0.249919	0.081576
O63	O	0.509711	0.499919	0.331576
O64	O	0.759711	0.749919	0.581576
N65	N	0.023830	-0.000071	-0.072362
N66	N	0.273830	0.249929	0.177638
N67	N	0.523830	0.499929	0.427638
N68	N	0.773830	0.749929	0.677638
C69	C	0.060607	-0.000080	-0.020794
C70	C	0.310607	0.249920	0.229206
C71	C	0.560607	0.499920	0.479206
C72	C	0.810607	0.749920	0.729206
O73	O	0.035908	-0.000086	0.023737
O74	O	0.285908	0.249914	0.273737
O75	O	0.535908	0.499914	0.523737
O76	O	0.785908	0.749914	0.773737
C77	C	0.120006	-0.000080	-0.021506
C78	C	0.370006	0.249920	0.228494
C79	C	0.620006	0.499920	0.478494
C80	C	0.870006	0.749920	0.728494
C81	C	0.142629	-0.000068	-0.073785
C82	C	0.392629	0.249932	0.176215
C83	C	0.642629	0.499932	0.426215
C84	C	0.892629	0.749932	0.676215
C85	C	0.128479	-0.000050	-0.177625
C86	C	0.378479	0.249950	0.072375
C87	C	0.628479	0.499950	0.322375
C88	C	0.878479	0.749950	0.572375
C89	C	0.187876	-0.000045	-0.178336
C90	C	0.437876	0.249955	0.071664
C91	C	0.687876	0.499955	0.321664
C92	C	0.937876	0.749955	0.571664
C93	C	0.224649	-0.000052	-0.126772
C94	C	0.474649	0.249948	0.123228
C95	C	0.724649	0.499948	0.373228
C96	C	0.974649	0.749948	0.623228
C97	C	0.202025	-0.000063	-0.074497
C98	C	0.452025	0.249937	0.175503
C99	C	0.702025	0.499937	0.425503
C100	C	0.952025	0.749937	0.675503
C101	C	0.156783	-0.000093	0.030062
C102	C	0.406783	0.249907	0.280062
C103	C	0.656783	0.499907	0.530062
C104	C	0.906783	0.749907	0.780062
C105	C	0.216185	-0.000094	0.029345
C106	C	0.466185	0.249906	0.279345
C107	C	0.716185	0.499906	0.529345
C108	C	0.966185	0.749906	0.779345
C109	C	0.238808	-0.000082	-0.022934
C110	C	0.488808	0.249918	0.227066
C111	C	0.738808	0.499918	0.477066
C112	C	0.988808	0.749918	0.727066
C113	C	0.298194	-0.000065	-0.023643
C114	C	0.548194	0.249935	0.226357
C115	C	0.798194	0.499935	0.476357
C116	C	1.048194	0.749935	0.726357
N117	N	0.320820	-0.000059	-0.075920
N118	N	0.570820	0.249941	0.174080
N119	N	0.820820	0.499941	0.424080
N120	N	1.070820	0.749941	0.674080
C121	C	0.284048	-0.000052	-0.127484
C122	C	0.534048	0.249948	0.122516
C123	C	0.784048	0.499948	0.372516
C124	C	1.034048	0.749948	0.622516
C125	C	-0.064135	-0.000080	-0.019302
C126	C	0.185865	0.249920	0.230698
C127	C	0.435865	0.499920	0.480698
C128	C	0.685865	0.749920	0.730698
C129	C	-0.123533	-0.000075	-0.018589
C130	C	0.126467	0.249925	0.231411
C131	C	0.376467	0.499925	0.481411
C132	C	0.626467	0.749925	0.731411
C133	C	-0.137680	-0.000061	-0.122434
C134	C	0.112320	0.249939	0.127566
C135	C	0.362320	0.499939	0.377566
C136	C	0.612320	0.749939	0.627566
C137	C	-0.078281	-0.000062	-0.123146
C138	C	0.171719	0.249938	0.126854
C139	C	0.421719	0.499938	0.376854
C140	C	0.671719	0.749938	0.626854
C141	C	-0.041509	-0.000074	-0.071578
C142	C	0.208491	0.249926	0.178422
C143	C	0.458491	0.499926	0.428422
C144	C	0.708491	0.749926	0.678422
C145	C	0.408784	-0.000042	-0.128974
C146	C	0.658784	0.249958	0.121026
C147	C	0.908784	0.499958	0.371026
C148	C	1.158784	0.749958	0.621026
C149	C	0.468186	-0.000034	-0.129680
C150	C	0.718186	0.249966	0.120320
C151	C	0.968186	0.499966	0.370320
C152	C	1.218186	0.749966	0.620320
C153	C	0.482329	-0.000051	-0.025836
C154	C	0.732329	0.249949	0.224164
C155	C	0.982329	0.499949	0.474164
C156	C	1.232329	0.749949	0.724164
C157	C	0.422932	-0.000055	-0.025129
C158	C	0.672932	0.249945	0.224871
C159	C	0.922932	0.499945	0.474871
C160	C	1.172932	0.749945	0.724871
C161	C	0.386160	-0.000052	-0.076702
C162	C	0.636160	0.249948	0.173298
C163	C	0.886160	0.499948	0.423298
C164	C	1.136160	0.749948	0.673298
O165	O	0.334974	-0.000052	0.020119
O166	O	0.584974	0.249948	0.270119
O167	O	0.834974	0.499948	0.520119
O168	O	1.084974	0.749948	0.770119
O169	O	0.308755	-0.000054	-0.172007
O170	O	0.558755	0.249946	0.077993
O171	O	0.808755	0.499946	0.327993
O172	O	1.058755	0.749946	0.577993
C173	C	0.706686	-0.561955	-0.108496
C174	C	0.956686	-0.311955	0.141504
C175	C	1.206686	-0.061955	0.391504
C176	C	1.456686	0.188045	0.641504
C177	C	0.706693	-0.623874	-0.108494
C178	C	0.956693	-0.373874	0.141506
C179	C	1.206693	-0.123874	0.391506
C180	C	1.456693	0.126126	0.641506
O181	O	0.735916	-0.655892	-0.137705
O182	O	0.985916	-0.405892	0.112295
O183	O	1.235916	-0.155892	0.362295
O184	O	1.485916	0.094108	0.612295
N185	N	0.672352	-0.654851	-0.074128
N186	N	0.922352	-0.404851	0.175872
N187	N	1.172352	-0.154851	0.425872
N188	N	1.422352	0.095149	0.675872
C189	C	0.638006	-0.623905	-0.039758
C190	C	0.888006	-0.373905	0.210242
C191	C	1.138006	-0.123905	0.460242
C192	C	1.388006	0.126095	0.710242
O193	O	0.608797	-0.655939	-0.010527
O194	O	0.858797	-0.405939	0.239473
O195	O	1.108797	-0.155939	0.489473
O196	O	1.358797	0.094061	0.739473
C197	C	0.638002	-0.561986	-0.039757
C198	C	0.888002	-0.311986	0.210243
C199	C	1.138002	-0.061986	0.460243
C200	C	1.388002	0.188014	0.710243
C201	C	0.672341	-0.531013	-0.074129
C202	C	0.922341	-0.281013	0.175871
C203	C	1.172341	-0.031013	0.425871
C204	C	1.422341	0.218987	0.675871
C205	C	0.741022	-0.530981	-0.142864
C206	C	0.991022	-0.280981	0.107136
C207	C	1.241022	-0.030981	0.357136
C208	C	1.491022	0.219019	0.607136
C209	C	0.741014	-0.469065	-0.142867
C210	C	0.991014	-0.219065	0.107133
C211	C	1.241014	0.030935	0.357133
C212	C	1.491014	0.280935	0.607133
C213	C	0.706669	-0.438123	-0.108500
C214	C	0.956669	-0.188123	0.141500
C215	C	1.206669	0.061877	0.391500
C216	C	1.456669	0.311877	0.641500
C217	C	0.672333	-0.469097	-0.074131
C218	C	0.922333	-0.219097	0.175869
C219	C	1.172333	0.030903	0.425869
C220	C	1.422333	0.280903	0.675869
C221	C	0.603660	-0.531041	-0.005383
C222	C	0.853660	-0.281041	0.244617
C223	C	1.103660	-0.031041	0.494617
C224	C	1.353660	0.218959	0.744617
C225	C	0.603659	-0.469118	-0.005384
C226	C	0.853659	-0.219118	0.244616
C227	C	1.103659	0.030882	0.494616
C228	C	1.353659	0.280882	0.744616
C229	C	0.637998	-0.438144	-0.039757
C230	C	0.887998	-0.188144	0.210243
C231	C	1.137998	0.061856	0.460243
C232	C	1.387998	0.311856	0.710243
C233	C	0.637980	-0.376239	-0.039766
C234	C	0.887980	-0.126239	0.210234
C235	C	1.137980	0.123761	0.460234
C236	C	1.387980	0.373761	0.710234
N237	N	0.672321	-0.345262	-0.074132
N238	N	0.922321	-0.095262	0.175868
N239	N	1.172321	0.154738	0.425868
N240	N	1.422321	0.404738	0.675868
C241	C	0.706666	-0.376204	-0.108498
C242	C	0.956666	-0.126204	0.141502
C243	C	1.206666	0.123796	0.391502
C244	C	1.456666	0.373796	0.641502
C245	C	0.638017	-0.753938	-0.039762
C246	C	0.888017	-0.503938	0.210238
C247	C	1.138017	-0.253938	0.460238
C248	C	1.388017	-0.003938	0.710238
C249	C	0.638017	-0.815856	-0.039766
C250	C	0.888017	-0.565856	0.210234
C251	C	1.138017	-0.315856	0.460234
C252	C	1.388017	-0.065856	0.710234
C253	C	0.706705	-0.815821	-0.108502
C254	C	0.956705	-0.565821	0.141498
C255	C	1.206705	-0.315821	0.391498
C256	C	1.456705	-0.065821	0.641498
C257	C	0.706701	-0.753903	-0.108501
C258	C	0.956701	-0.503903	0.141499
C259	C	1.206701	-0.253903	0.391499
C260	C	1.456701	-0.003903	0.641499
C261	C	0.672358	-0.722962	-0.074128
C262	C	0.922358	-0.472962	0.175872
C263	C	1.172358	-0.222962	0.425872
C264	C	1.422358	0.027038	0.675872
C265	C	0.706646	-0.246177	-0.108501
C266	C	0.956646	0.003823	0.141499
C267	C	1.206646	0.253823	0.391499
C268	C	1.456646	0.503823	0.641499
C269	C	0.706633	-0.184256	-0.108502
C270	C	0.956633	0.065744	0.141498
C271	C	1.206633	0.315744	0.391498
C272	C	1.456633	0.565744	0.641498
C273	C	0.637948	-0.184296	-0.039764
C274	C	0.887948	0.065704	0.210236
C275	C	1.137948	0.315704	0.460236
C276	C	1.387948	0.565704	0.710236
C277	C	0.637958	-0.246212	-0.039765
C278	C	0.887958	0.003788	0.210235
C279	C	1.137958	0.253788	0.460235
C280	C	1.387958	0.503788	0.710235
C281	C	0.672312	-0.277151	-0.074135
C282	C	0.922312	-0.027151	0.175865
C283	C	1.172312	0.222849	0.425865
C284	C	1.422312	0.472849	0.675865
O285	O	0.608774	-0.344182	-0.010568
O286	O	0.858774	-0.094182	0.239432
O287	O	1.108774	0.155818	0.489432
O288	O	1.358774	0.405818	0.739432
O289	O	0.735875	-0.344163	-0.137719
O290	O	0.985875	-0.094163	0.112281
O291	O	1.235875	0.155837	0.362281
O292	O	1.485875	0.405837	0.612281
C293	C	0.776472	-0.000069	-0.069388
C294	C	1.026472	0.249931	0.180612
C295	C	1.276472	0.499931	0.430612
C296	C	1.526472	0.749931	0.680612
C297	C	0.839689	-0.000071	-0.070154
C298	C	1.089689	0.249929	0.179846
C299	C	1.339689	0.499929	0.429846
C300	C	1.589689	0.749929	0.679846
C301	C	0.677071	-0.000072	0.030013
C302	C	0.927071	0.249928	0.280013
C303	C	1.177071	0.499928	0.530013
C304	C	1.427071	0.749928	0.780013
C305	C	0.676305	-0.000076	0.093230
C306	C	0.926305	0.249924	0.343230
C307	C	1.176305	0.499924	0.593230
C308	C	1.426305	0.749924	0.843230
N309	N	0.672364	0.153196	-0.074131
N310	N	0.922364	0.403196	0.175869
N311	N	1.172364	0.653196	0.425869
N312	N	1.422364	0.903196	0.675869
C313	C	0.667577	-0.000045	-0.178283
C314	C	0.917577	0.249955	0.071717
C315	C	1.167577	0.499955	0.321717
C316	C	1.417577	0.749955	0.571717
C317	C	0.668343	-0.000036	-0.241500
C318	C	0.918343	0.249964	0.008500
C319	C	1.168343	0.499964	0.258500
C320	C	1.418343	0.749964	0.508500
C321	C	0.723539	-0.000049	0.492333
C322	C	0.973539	0.249951	0.742333
C323	C	1.223539	0.499951	0.992333
C324	C	1.473539	0.749951	1.242333
C325	C	0.722827	-0.000044	0.551733
C326	C	0.972827	0.249956	0.801733
C327	C	1.222827	0.499956	1.051733
C328	C	1.472827	0.749956	1.301733
O329	O	0.766613	-0.000027	0.588478
O330	O	1.016613	0.249973	0.838478
O331	O	1.266613	0.499973	1.088478
O332	O	1.516613	0.749973	1.338478
N333	N	0.670551	-0.000039	0.574359
N334	N	0.920551	0.249961	0.824359
N335	N	1.170551	0.499961	1.074359
N336	N	1.420551	0.749961	1.324359
C337	C	0.618983	-0.000032	0.537582
C338	C	0.868983	0.249968	0.787582
C339	C	1.118983	0.499968	1.037582
C340	C	1.368983	0.749968	1.287582
O341	O	0.574452	-0.000027	0.562281
O342	O	0.824452	0.249973	0.812281
O343	O	1.074452	0.499973	1.062281
O344	O	1.324452	0.749973	1.312281
C345	C	0.619695	-0.000033	0.478182
C346	C	0.869695	0.249967	0.728182
C347	C	1.119695	0.499967	0.978182
C348	C	1.369695	0.749967	1.228182
C349	C	0.671974	-0.000044	0.455560
C350	C	0.921974	0.249956	0.705560
C351	C	1.171974	0.499956	0.955560
C352	C	1.421974	0.749956	1.205560
C353	C	0.775814	-0.000060	0.469710
C354	C	1.025814	0.249940	0.719710
C355	C	1.275814	0.499940	0.969710
C356	C	1.525814	0.749940	1.219710
C357	C	0.776525	-0.000065	0.410313
C358	C	1.026525	0.249935	0.660313
C359	C	1.276525	0.499935	0.910313
C360	C	1.526525	0.749935	1.160313
C361	C	0.724961	-0.000060	0.373540
C362	C	0.974961	0.249940	0.623540
C363	C	1.224961	0.499940	0.873540
C364	C	1.474961	0.749940	1.123540
C365	C	0.672685	-0.000050	0.396164
C366	C	0.922685	0.249950	0.646164
C367	C	1.172685	0.499950	0.896164
C368	C	1.422685	0.749950	1.146164
C369	C	0.568127	-0.000022	0.441406
C370	C	0.818127	0.249978	0.691406
C371	C	1.068127	0.499978	0.941406
C372	C	1.318127	0.749978	1.191406
C373	C	0.568844	-0.000021	0.382004
C374	C	0.818844	0.249979	0.632004
C375	C	1.068844	0.499979	0.882004
C376	C	1.318844	0.749979	1.132004
C377	C	0.621123	-0.000033	0.359381
C378	C	0.871123	0.249967	0.609381
C379	C	1.121123	0.499967	0.859381
C380	C	1.371123	0.749967	1.109381
C381	C	0.621832	-0.000050	0.299995
C382	C	0.871832	0.249950	0.549995
C383	C	1.121832	0.499950	0.799995
C384	C	1.371832	0.749950	1.049995
N385	N	0.674109	-0.000056	0.277368
N386	N	0.924109	0.249944	0.527368
N387	N	1.174109	0.499944	0.777368
N388	N	1.424109	0.749944	1.027368
C389	C	0.725673	-0.000061	0.314141
C390	C	0.975673	0.249939	0.564141
C391	C	1.225673	0.499939	0.814141
C392	C	1.475673	0.749939	1.064141
C393	C	0.617491	-0.000031	0.662324
C394	C	0.867491	0.249969	0.912324
C395	C	1.117491	0.499969	1.162324
C396	C	1.367491	0.749969	1.412324
C397	C	0.616778	-0.000034	0.721722
C398	C	0.866778	0.249966	0.971722
C399	C	1.116778	0.499966	1.221722
C400	C	1.366778	0.749966	1.471722
C401	C	0.720623	-0.000045	0.735869
C402	C	0.970623	0.249955	0.985869
C403	C	1.220623	0.499955	1.235869
C404	C	1.470623	0.749955	1.485869
C405	C	0.721335	-0.000046	0.676470
C406	C	0.971335	0.249954	0.926470
C407	C	1.221335	0.499954	1.176470
C408	C	1.471335	0.749954	1.426470
C409	C	0.669767	-0.000036	0.639698
C410	C	0.919767	0.249964	0.889698
C411	C	1.169767	0.499964	1.139698
C412	C	1.419767	0.749964	1.389698
C413	C	0.727163	-0.000073	0.189405
C414	C	0.977163	0.249927	0.439405
C415	C	1.227163	0.499927	0.689405
C416	C	1.477163	0.749927	0.939405
C417	C	0.727869	-0.000081	0.130003
C418	C	0.977869	0.249919	0.380003
C419	C	1.227869	0.499919	0.630003
C420	C	1.477869	0.749919	0.880003
C421	C	0.624025	-0.000067	0.115860
C422	C	0.874025	0.249933	0.365860
C423	C	1.124025	0.499933	0.615860
C424	C	1.374025	0.749933	0.865860
C425	C	0.623318	-0.000062	0.175257
C426	C	0.873318	0.249938	0.425257
C427	C	1.123318	0.499938	0.675257
C428	C	1.373318	0.749938	0.925257
C429	C	0.674891	-0.000063	0.212029
C430	C	0.924891	0.249937	0.462029
C431	C	1.174891	0.499937	0.712029
C432	C	1.424891	0.749937	0.962029
O433	O	0.578070	-0.000065	0.263215
O434	O	0.828070	0.249935	0.513215
O435	O	1.078070	0.499935	0.763215
O436	O	1.328070	0.749935	1.013215
O437	O	0.770196	-0.000058	0.289433
O438	O	1.020196	0.249942	0.539433
O439	O	1.270196	0.499942	0.789433
O440	O	1.520196	0.749942	1.039433
H441	H	0.486602	-0.000024	-0.172255
H442	H	0.736602	0.249976	0.077745
H443	H	0.986602	0.499976	0.327745
H444	H	1.236602	0.749976	0.577745
H445	H	0.575698	-0.556249	0.022607
H446	H	0.825698	-0.306249	0.272607
H447	H	1.075698	-0.056249	0.522607
H448	H	1.325698	0.193751	0.772607
H449	H	-0.167632	-0.000059	-0.164421
H450	H	0.082368	0.249941	0.085579
H451	H	0.332368	0.499941	0.335579
H452	H	0.582368	0.749941	0.585579
H453	H	0.609984	-0.159092	-0.011785
H454	H	0.859984	0.090908	0.238215
H455	H	1.109984	0.340908	0.488215
H456	H	1.359984	0.590908	0.738215
H457	H	0.768992	-0.556167	-0.170850
H458	H	1.018992	-0.306167	0.079150
H459	H	1.268992	-0.056167	0.329150
H460	H	1.518992	0.193833	0.579150
H461	H	0.378851	-0.000041	-0.170970
H462	H	0.628851	0.249959	0.079030
H463	H	0.878851	0.499959	0.329030
H464	H	1.128851	0.749959	0.579030
H465	H	0.575693	-0.443929	0.022607
H466	H	0.825693	-0.193929	0.272607
H467	H	1.075693	0.056071	0.522607
H468	H	1.325693	0.306071	0.772607
H469	H	0.609989	-0.271432	-0.011784
H470	H	0.859989	-0.021432	0.238216
H471	H	1.109989	0.228568	0.488216
H472	H	1.359989	0.478568	0.738216
Cl473	Cl	0.793597	-0.000094	0.101567
Cl474	Cl	1.043597	0.249906	0.351567
Cl475	Cl	1.293597	0.499906	0.601567
Cl476	Cl	1.543597	0.749906	0.851567
Cl477	Cl	0.791999	-0.000075	0.235622
Cl478	Cl	1.041999	0.249925	0.485622
Cl479	Cl	1.291999	0.499925	0.735622
Cl480	Cl	1.541999	0.749925	0.985622
H481	H	0.610048	-0.841070	-0.011784
H482	H	0.860048	-0.591070	0.238216
H483	H	1.110048	-0.341070	0.488216
H484	H	1.360048	-0.091070	0.738216
H485	H	0.246123	-0.000104	0.071339
H486	H	0.496123	0.249896	0.321339
H487	H	0.746123	0.499896	0.571339
H488	H	0.996123	0.749896	0.821339
H489	H	0.734595	-0.159040	-0.136494
H490	H	0.984595	0.090960	0.113506
H491	H	1.234595	0.340960	0.363506
H492	H	1.484595	0.590960	0.613506
H493	H	0.762610	-0.000047	0.765821
H494	H	1.012610	0.249953	1.015821
H495	H	1.262610	0.499953	1.265821
H496	H	1.512610	0.749953	1.515821
Cl497	Cl	0.784176	-0.430136	-0.186089
Cl498	Cl	1.034176	-0.180136	0.063911
Cl499	Cl	1.284176	0.069864	0.313911
Cl500	Cl	1.534176	0.319864	0.563911
Cl501	Cl	0.840647	-0.000067	0.515929
Cl502	Cl	1.090647	0.249933	0.765929
Cl503	Cl	1.340647	0.499933	1.015929
Cl504	Cl	1.590647	0.749933	1.265929
H505	H	0.819097	-0.000072	0.391900
H506	H	1.069097	0.249928	0.641900
H507	H	1.319097	0.499928	0.891900
H508	H	1.569097	0.749928	1.141900
Cl509	Cl	0.551053	-0.000032	0.750154
Cl510	Cl	0.801053	0.249968	1.000154
Cl511	Cl	1.051053	0.499968	1.250154
Cl512	Cl	1.301053	0.749968	1.500154
H513	H	0.206289	-0.000035	-0.220908
H514	H	0.456289	0.249965	0.029092
H515	H	0.706289	0.499965	0.279092
H516	H	0.956289	0.749965	0.529092
H517	H	0.734663	-0.728688	-0.136490
H518	H	0.984663	-0.478688	0.113510
H519	H	1.234663	-0.228688	0.363510
H520	H	1.484663	0.021312	0.613510
H521	H	0.734620	-0.271360	-0.136488
H522	H	0.984620	-0.021360	0.113512
H523	H	1.234620	0.228640	0.363512
H524	H	1.484620	0.478640	0.613512
Cl525	Cl	0.394491	-0.000073	0.040595
Cl526	Cl	0.644491	0.249927	0.290595
Cl527	Cl	0.894491	0.499927	0.540595
Cl528	Cl	1.144491	0.749927	0.790595
Cl529	Cl	0.502400	-0.000003	0.469831
Cl530	Cl	0.752400	0.249997	0.719831
Cl531	Cl	1.002400	0.499997	0.969831
Cl532	Cl	1.252400	0.749997	1.219831
Cl533	Cl	0.787060	-0.000059	0.648037
Cl534	Cl	1.037060	0.249941	0.898037
Cl535	Cl	1.287060	0.499941	1.148037
Cl536	Cl	1.537060	0.749941	1.398037
H537	H	0.138375	-0.000103	0.072634
H538	H	0.388375	0.249897	0.322634
H539	H	0.638375	0.499897	0.572634
H540	H	0.888375	0.749897	0.822634
H541	H	0.734670	-0.841026	-0.136486
H542	H	0.984670	-0.591026	0.113514
H543	H	1.234670	-0.341026	0.363514
H544	H	1.484670	-0.091026	0.613514
H545	H	0.526850	-0.000013	0.352066
H546	H	0.776850	0.249987	0.602066
H547	H	1.026850	0.499987	0.852066
H548	H	1.276850	0.749987	1.102066
H549	H	-0.141947	-0.000076	0.023982
H550	H	0.108053	0.249924	0.273982
H551	H	0.358053	0.499924	0.523982
H552	H	0.608053	0.749924	0.773982
Cl553	Cl	0.594831	-0.715047	0.003446
Cl554	Cl	0.844831	-0.465047	0.253446
Cl555	Cl	1.094831	-0.215047	0.503446
Cl556	Cl	1.344831	0.034953	0.753446
H557	H	0.575496	-0.000028	0.632386
H558	H	0.825496	0.249972	0.882386
H559	H	1.075496	0.499972	1.132386
H560	H	1.325496	0.749972	1.382386
H561	H	0.580748	-0.000069	0.193677
H562	H	0.830748	0.249931	0.443677
H563	H	1.080748	0.499931	0.693677
H564	H	1.330748	0.749931	0.943677
Cl565	Cl	-0.017912	-0.000087	0.045533
Cl566	Cl	0.232088	0.249913	0.295533
Cl567	Cl	0.482088	0.499913	0.545533
Cl568	Cl	0.732088	0.749913	0.795533
Cl569	Cl	0.559205	-0.000059	0.069621
Cl570	Cl	0.809205	0.249941	0.319621
Cl571	Cl	1.059205	0.499941	0.569621
Cl572	Cl	1.309205	0.749941	0.819621
H573	H	-0.059867	-0.000055	-0.165717
H574	H	0.190133	0.249945	0.084283
H575	H	0.440133	0.499945	0.334283
H576	H	0.690133	0.749945	0.584283
H577	H	0.098544	-0.000046	-0.219617
H578	H	0.348544	0.249954	0.030383
H579	H	0.598544	0.499954	0.280383
H580	H	0.848544	0.749954	0.530383
H581	H	0.512280	-0.000054	0.016146
H582	H	0.762280	0.249946	0.266146
H583	H	1.012280	0.499946	0.516146
H584	H	1.262280	0.749946	0.766146
