data_functionalizedCrystal
_audit_creation_method	'MofGen! by Chris Wilmer'
_symmetry_space_group_name_H-M	'P1'
_symmetry_Int_Tables_number	1
_symmetry_cell_setting	triclinic
loop_
_symmetry_equiv_pos_as_xyz
  x,y,z
_cell_length_a	12.759401
_cell_length_b	29.839131
_cell_length_c	12.759393
_cell_angle_alpha	90.036816
_cell_angle_beta	90.020938
_cell_angle_gamma	90.042945
loop_
_atom_site_label
_atom_site_type_symbol
_atom_site_fract_x
_atom_site_fract_y
_atom_site_fract_z
Zn1	Zn	1.606071	-0.178813	0.593974
Zn2	Zn	1.605880	-0.253950	0.418275
Zn3	Zn	1.430370	-0.178837	0.418309
Zn4	Zn	1.430280	-0.253919	0.593912
O5	O	1.518150	-0.216380	0.506117
O6	O	1.753067	-0.188784	0.570679
O7	O	1.582556	-0.244010	0.271258
O8	O	1.453795	-0.115967	0.441652
O9	O	1.752927	-0.243986	0.441593
O10	O	1.582882	-0.115949	0.570712
O11	O	1.453610	-0.188824	0.271283
O12	O	1.283337	-0.188794	0.441592
O13	O	1.453641	-0.243933	0.740941
O14	O	1.283271	-0.243956	0.570606
O15	O	1.582794	-0.188753	0.740987
O16	O	1.582469	-0.316813	0.441533
O17	O	1.453456	-0.316790	0.570573
C18	C	1.245183	-0.216375	0.506097
C19	C	1.128406	-0.216383	0.506113
C20	C	1.073538	-0.245150	0.573185
C21	C	0.963813	-0.245151	0.573206
C22	C	0.963837	-0.187618	0.439073
C23	C	1.073559	-0.187615	0.439058
C24	C	1.517961	-0.333103	0.506065
C25	C	1.517976	-0.383037	0.506078
C26	C	1.585450	-0.692680	0.439024
C27	C	1.585579	-0.880353	0.439065
O28	O	1.642798	-0.904617	0.382014
N29	N	1.518368	-0.903822	0.506197
C30	C	1.451125	-0.880370	0.573327
O31	O	1.393969	-0.904638	0.630435
C32	C	1.451001	-0.692698	0.573291
C33	C	1.518209	-0.669231	0.506148
C34	C	1.652653	-0.669213	0.371888
C35	C	1.652616	-0.622297	0.371874
C36	C	1.585375	-0.598849	0.438997
C37	C	1.518172	-0.622316	0.506134
C38	C	1.383764	-0.669247	0.640427
C39	C	1.383741	-0.622326	0.640413
C40	C	1.450949	-0.598859	0.573270
C41	C	1.450895	-0.551952	0.573244
N42	N	1.518106	-0.528482	0.506113
C43	C	1.585346	-0.551931	0.438989
C44	C	1.451193	-0.978901	0.573340
C45	C	1.451223	-1.025819	0.573348
C46	C	1.585679	-1.025798	0.439087
C47	C	1.585643	-0.978879	0.439075
C48	C	1.518404	-0.955431	0.506209
C49	C	1.585262	-0.453405	0.438965
C50	C	1.585216	-0.406486	0.438955
C51	C	1.450764	-0.406510	0.573219
C52	C	1.450806	-0.453426	0.573226
C53	C	1.518064	-0.476872	0.506096
O54	O	1.393715	-0.527659	0.630274
O55	O	1.642510	-0.527655	0.381907
C56	C	1.585487	-0.739595	0.439038
C57	C	1.518284	-0.763062	0.506175
C58	C	1.451043	-0.739613	0.573298
C59	C	1.518313	-0.809980	0.506183
C60	C	1.585553	-0.833428	0.439060
C61	C	1.652764	-0.809959	0.371928
C62	C	1.652727	-0.763044	0.371915
C63	C	1.383832	-0.763083	0.640430
C64	C	1.383874	-0.809998	0.640437
C65	C	1.451114	-0.833447	0.573314
C66	C	1.792184	-0.216386	0.506139
C67	C	1.908960	-0.216388	0.506148
C68	C	1.518229	-0.216337	0.780151
C69	C	1.518263	-0.216318	0.896928
C70	C	1.518370	-0.099202	0.506193
C71	C	1.518463	-0.049267	0.506225
C72	C	1.518133	-0.216391	0.233150
C73	C	1.518303	-0.216282	0.116374
C74	C	1.585518	-0.187582	0.951815
C75	C	1.585535	-0.187562	1.061539
C76	C	1.451040	-0.245020	1.061479
C77	C	1.451018	-0.245037	0.951757
H78	H	0.919167	-0.164197	0.384478
H79	H	1.118191	-0.268573	0.627787
O80	O	1.318406	-0.740378	0.705665
C81	C	1.185081	-0.745361	0.838864
C82	C	1.259117	-0.771127	0.765023
H83	H	1.137141	-0.770211	0.886890
H84	H	1.130081	-0.723452	0.790620
H85	H	1.233272	-0.723342	0.893800
H86	H	1.211010	-0.793172	0.710072
H87	H	1.314120	-0.793009	0.813332
H88	H	1.118234	-0.164187	0.384440
O89	O	1.650625	-0.476107	0.373653
C90	C	1.784013	-0.471122	0.240517
C91	C	1.710035	-0.445357	0.314417
H92	H	1.832082	-0.446272	0.192622
H93	H	1.735875	-0.493115	0.185471
H94	H	1.838904	-0.493060	0.288813
H95	H	1.655130	-0.423395	0.266206
H96	H	1.758238	-0.423393	0.369467
O97	O	1.650766	-0.159661	1.115019
C98	C	1.710441	-0.134181	1.284076
C99	C	1.636499	-0.165798	1.223642
H100	H	1.698947	-0.139139	1.371908
H101	H	1.692052	-0.097950	1.262594
H102	H	1.795128	-0.142071	1.262453
H103	H	1.551787	-0.157950	1.245232
H104	H	1.654978	-0.202020	1.245129
H105	H	1.396243	-0.268438	0.907066
H106	H	1.396437	-0.959813	0.628010
H107	H	1.640429	-1.044898	0.384433
H108	H	1.707345	-0.603193	0.317203
O109	O	1.318519	-0.599480	0.705594
C110	C	1.258823	-0.527212	0.765044
C111	C	1.332757	-0.553027	0.691196
H112	H	1.270293	-0.489650	0.753414
H113	H	1.277241	-0.536368	0.849801
H114	H	1.174135	-0.536510	0.746535
H115	H	1.417469	-0.543742	0.709611
H116	H	1.314249	-0.543868	0.606462
H117	H	1.639945	-0.387380	0.384275
O118	O	1.718007	-0.691917	0.306576
C119	C	1.851393	-0.686929	0.173439
C120	C	1.777419	-0.661166	0.247347
H121	H	1.899463	-0.662078	0.125548
H122	H	1.803252	-0.708918	0.118388
H123	H	1.906283	-0.708869	0.221729
H124	H	1.722515	-0.639201	0.199141
H125	H	1.825625	-0.639205	0.302400
H126	H	1.640270	-0.164196	0.907176
O127	O	0.910630	-0.273075	0.638503
C128	C	0.877073	-0.294961	0.817128
C129	C	0.937386	-0.263316	0.743292
H130	H	0.898666	-0.287076	0.901867
H131	H	0.898599	-0.331183	0.798601
H132	H	0.789235	-0.290030	0.805573
H133	H	1.025238	-0.268207	0.754807
H134	H	0.915773	-0.227106	0.761838
H135	H	1.640370	-0.959775	0.384402
O136	O	1.385362	-0.383797	0.638464
C137	C	1.252085	-0.388756	0.771717
C138	C	1.326069	-0.414535	0.697851
H139	H	1.204144	-0.413597	0.819767
H140	H	1.197085	-0.366838	0.723493
H141	H	1.300318	-0.366742	0.826631
H142	H	1.277921	-0.436573	0.642922
H143	H	1.381072	-0.436425	0.746141
H144	H	1.396294	-0.268403	1.106134
H145	H	1.329031	-0.688346	0.695097
H146	H	1.396083	-0.472534	0.627903
O147	O	1.385895	-1.048542	0.638662
C148	C	1.252492	-1.043598	0.771789
C149	C	1.326435	-1.017810	0.697884
H150	H	1.204384	-1.018762	0.819674
H151	H	1.300660	-1.065512	0.826846
H152	H	1.197637	-1.065615	0.723498
H153	H	1.381306	-0.995769	0.746091
H154	H	1.278203	-0.995924	0.642824
H155	H	1.707511	-0.829059	0.317271
O156	O	1.318729	-0.832840	0.705718
C157	C	1.304579	-0.885741	0.847632
C158	C	1.378459	-0.859911	0.773745
H159	H	1.352842	-0.907627	0.902665
H160	H	1.249693	-0.907780	0.799428
H161	H	1.256498	-0.860908	0.895554
H162	H	1.426608	-0.884711	0.725807
H163	H	1.433275	-0.837865	0.822009
H164	H	1.707454	-0.743940	0.317241
