data_functionalizedCrystal
_audit_creation_method	'MofGen! by Chris Wilmer'
_symmetry_space_group_name_H-M	'P1'
_symmetry_Int_Tables_number	1
_symmetry_cell_setting	triclinic
loop_
_symmetry_equiv_pos_as_xyz
  x,y,z
_cell_length_a	13.635800
_cell_length_b	17.110477
_cell_length_c	11.102291
_cell_angle_alpha	84.812473
_cell_angle_beta	71.394248
_cell_angle_gamma	99.060298
loop_
_atom_site_label
_atom_site_type_symbol
_atom_site_fract_x
_atom_site_fract_y
_atom_site_fract_z
V1	V	-2.031680	-0.109493	0.396095
O2	O	-2.036441	0.005251	0.388724
O3	O	-1.996395	-0.217095	0.393224
O4	O	-2.020442	-0.107813	0.568920
O5	O	-2.012228	-0.104788	0.211811
V6	V	-2.273251	-0.095767	0.374073
O7	O	-2.162728	-0.139600	0.444402
O8	O	-2.367302	-0.065660	0.325766
O9	O	-2.196933	0.011836	0.376944
O10	O	-2.327189	-0.210511	0.381444
O11	O	-2.351402	-0.100472	0.558357
O12	O	-2.172886	-0.097447	0.201248
C13	C	-1.915779	-0.243327	0.386933
C14	C	-1.927660	-0.331293	0.385738
V15	V	-1.531680	-0.109493	0.396095
O16	O	-1.536441	0.005251	0.388724
O17	O	-1.496395	-0.217095	0.393224
O18	O	-1.520442	-0.107813	0.568920
O19	O	-1.512228	-0.104788	0.211811
V20	V	-1.773251	-0.095767	0.374073
O21	O	-1.662728	-0.139600	0.444402
O22	O	-1.867302	-0.065660	0.325766
O23	O	-1.696933	0.011836	0.376944
O24	O	-1.827189	-0.210511	0.381444
O25	O	-1.851402	-0.100472	0.558357
O26	O	-1.672886	-0.097447	0.201248
C27	C	-2.024358	-0.376651	0.391510
C28	C	-2.035516	-0.459306	0.390394
C29	C	-1.949973	-0.496600	0.383497
C30	C	-1.853268	-0.451237	0.377729
C31	C	-1.842113	-0.368585	0.378854
C32	C	-1.979098	-0.745956	0.379792
C33	C	-1.990260	-0.828614	0.378663
C34	C	-2.172508	-0.836677	0.391331
C35	C	-2.161343	-0.754022	0.392447
C36	C	-2.064641	-0.708667	0.386686
C37	C	-1.961376	-0.581086	0.382352
C38	C	-2.053242	-0.624183	0.387840
C39	C	-1.946453	-0.103925	0.611049
C40	C	-1.977833	-0.103263	0.752333
C41	C	-2.109219	0.038063	0.383231
C42	C	-2.086958	0.126029	0.384435
C43	C	-2.078545	-0.101338	0.159112
C44	C	-2.036784	-0.101995	0.017827
C45	C	-1.415779	-0.243327	0.386933
C46	C	-1.427660	-0.331293	0.385738
C47	C	-1.446453	-0.103925	0.611049
C48	C	-1.477833	-0.103263	0.752333
C49	C	-2.083711	-0.106899	0.825176
C50	C	-2.113186	-0.106262	0.957923
C51	C	-1.930897	-0.098357	0.944974
C52	C	-1.901422	-0.098988	0.812228
C53	C	-2.188955	-0.111467	0.832654
C54	C	-2.218431	-0.110830	0.965401
C55	C	-1.609219	0.038063	0.383231
C56	C	-1.586958	0.126029	0.384435
C57	C	-1.578545	-0.101338	0.159112
C58	C	-1.536784	-0.101995	0.017827
C59	C	-1.524368	-0.376639	0.391520
C60	C	-1.535550	-0.459295	0.390417
C61	C	-1.450019	-0.496604	0.383521
C62	C	-1.353303	-0.451253	0.377742
C63	C	-1.342125	-0.368599	0.378855
C64	C	-1.662743	0.171373	0.378656
C65	C	-1.641834	0.254029	0.379766
C66	C	-1.545142	0.291338	0.386664
C67	C	-1.469351	0.245988	0.392440
C68	C	-1.490257	0.163334	0.391320
C69	C	-1.583711	-0.106899	0.825176
C70	C	-1.613186	-0.106262	0.957923
C71	C	-1.430897	-0.098357	0.944974
C72	C	-1.401422	-0.098988	0.812228
C73	C	-1.688955	-0.111467	0.832654
C74	C	-1.718431	-0.110830	0.965401
H75	H	-2.094016	-0.346291	0.397113
F76	F	-1.349584	-0.093808	1.008729
H77	H	-1.710508	-0.057758	0.785638
F78	F	-1.765659	0.131682	0.371314
H79	H	-1.459135	-0.563907	0.382616
H80	H	-1.703560	0.290942	0.375064
H81	H	-1.283669	-0.481643	0.372128
F82	F	-1.870338	-0.620785	0.375008
H83	H	-1.868690	-0.094874	0.993756
F84	F	-2.217119	-0.041265	0.771194
H85	H	-1.528132	0.358641	0.387574
F86	F	-1.638488	-0.507546	0.396562
H87	H	-1.390623	0.276378	0.398055
F88	F	-1.409589	0.115083	0.397476
F89	F	-2.252382	-0.714333	0.399749
H90	H	-1.815209	-0.096028	0.752924
F91	F	-1.615414	-0.336948	0.398868
F92	F	-2.275420	-0.884953	0.397463
H93	H	-1.315209	-0.096028	0.752924
F94	F	-2.234330	-0.188597	0.800556
F95	F	-2.258422	-0.037397	1.003557
H96	H	-1.920602	-0.858979	0.373077
F97	F	-1.734330	-0.188597	0.800556
H98	H	-1.900357	-0.709037	0.375093
F99	F	-2.295893	-0.185611	1.034370
F100	F	-1.239188	-0.320347	0.372691
H101	H	-1.749022	-0.054645	0.994587
H102	H	-2.114257	-0.496233	0.395096
F103	F	-1.762229	-0.490932	0.370397
F104	F	-1.739196	-0.320313	0.372717
H105	H	-1.777691	-0.168046	1.018163
H106	H	-2.122891	-0.593815	0.393461
