data_functionalizedCrystal
_audit_creation_method	'MofGen! by Chris Wilmer'
_symmetry_space_group_name_H-M	'P1'
_symmetry_Int_Tables_number	1
_symmetry_cell_setting	triclinic
loop_
_symmetry_equiv_pos_as_xyz
  x,y,z
_cell_length_a	10.489741
_cell_length_b	19.188930
_cell_length_c	9.565339
_cell_angle_alpha	89.995116
_cell_angle_beta	89.999100
_cell_angle_gamma	83.841978
loop_
_atom_site_label
_atom_site_type_symbol
_atom_site_fract_x
_atom_site_fract_y
_atom_site_fract_z
O1	O	1.691850	0.098497	-0.116191
O2	O	1.320448	0.107743	-0.116215
O3	O	1.516867	0.001537	-0.116175
O4	O	1.495431	0.204704	-0.116231
O5	O	1.516852	0.001543	0.116345
O6	O	1.320432	0.107750	0.116305
O7	O	1.691835	0.098504	0.116329
Zn8	Zn	1.506131	0.103128	0.153235
Zn9	Zn	1.506152	0.103119	-0.153121
O10	O	1.495416	0.204711	0.116289
C11	C	1.272924	0.107048	0.000043
C12	C	1.131341	0.104959	0.000035
C13	C	1.064712	0.037383	0.000067
C14	C	0.971879	0.069302	-0.114584
C15	C	0.971898	0.069325	0.114663
C16	C	1.040373	0.136906	-0.114710
C17	C	1.040401	0.136919	0.114640
C18	C	0.947595	0.168887	-0.000039
C19	C	1.516165	-0.024476	0.000089
C20	C	1.514081	-0.101994	0.000101
C21	C	1.629334	-0.146146	0.000115
C22	C	1.627376	-0.218983	0.000092
C23	C	1.510159	-0.247665	0.000084
C24	C	1.394892	-0.203503	0.000062
C25	C	1.396853	-0.130668	0.000071
N26	N	1.420556	-0.356268	0.079209
N27	N	1.418701	-0.425459	0.079204
C28	C	1.504244	-0.467113	0.000055
N29	N	1.591732	-0.436964	-0.079071
N30	N	1.593590	-0.367767	-0.079059
C31	C	1.508020	-0.326642	0.000074
C32	C	1.617382	-0.590244	0.000043
C33	C	1.615419	-0.663081	0.000012
C34	C	1.382932	-0.647600	-0.000004
C35	C	1.384898	-0.574764	0.000013
C36	C	1.502126	-0.546090	0.000043
C37	C	1.739359	0.099199	0.000068
C38	C	1.880941	0.101288	0.000067
C39	C	1.496118	0.230723	0.000022
C40	C	1.498202	0.308242	0.000001
N41	N	1.506127	0.103134	0.362314
N42	N	1.506166	0.103108	-0.362200
C43	C	1.415262	0.152234	0.453499
C44	C	1.530443	0.166361	0.546681
C45	C	1.390995	0.089012	0.546688
C46	C	1.621366	0.117292	0.453444
C47	C	1.481842	0.039916	0.453443
C48	C	1.597107	0.054016	0.546583
H49	H	1.724790	-0.122805	0.000135
H50	H	0.941553	0.040722	0.211592
H51	H	1.070802	0.165492	0.211559
H52	H	1.293614	0.077080	0.587649
C53	C	1.816137	-0.580992	-0.119491
C54	C	1.746231	-0.558715	0.000046
H55	H	1.895678	-0.561524	-0.119494
H56	H	1.831467	-0.630683	-0.119489
H57	H	1.768679	-0.565866	-0.200562
H58	H	1.793684	-0.573846	0.081117
H59	H	1.730904	-0.509014	0.000056
C60	C	1.214267	0.177046	-0.244578
C61	C	1.081126	0.175466	-0.245719
H62	H	1.239425	0.200846	-0.325462
H63	H	1.238256	0.200894	-0.163285
H64	H	1.255413	0.130468	-0.244237
H65	H	1.039979	0.222045	-0.246049
H66	H	1.057124	0.151619	-0.327033
C67	C	1.676520	-0.068056	0.552256
C68	C	1.700970	-0.002056	0.601419
H69	H	1.740649	-0.102669	0.586106
H70	H	1.594827	-0.078184	0.584366
H71	H	1.677526	-0.068079	0.452951
H72	H	1.699955	-0.002032	0.700725
H73	H	1.782684	0.008074	0.569316
H74	H	1.338490	0.193796	0.412628
C75	C	1.848052	0.082386	0.446396
C76	C	1.752834	0.133502	0.398351
H77	H	1.929203	0.092398	0.412360
H78	H	1.848911	0.082462	0.545690
H79	H	1.830627	0.037634	0.413701
H80	H	1.770254	0.178254	0.431054
H81	H	1.751978	0.133433	0.299036
H82	H	1.721231	-0.254938	0.000098
C83	C	1.288661	-0.308282	0.000064
C84	C	1.266045	-0.235028	0.000059
H85	H	1.209111	-0.327741	0.000066
H86	H	1.336097	-0.323390	-0.081012
H87	H	1.336095	-0.323395	0.081158
H88	H	1.218618	-0.219915	-0.081041
H89	H	1.218588	-0.219913	0.081143
C90	C	1.166855	-0.122683	0.000055
C91	C	1.270158	-0.082131	0.000069
H92	H	1.088640	-0.092716	0.000065
H93	H	1.170928	-0.151403	-0.081033
H94	H	1.170928	-0.151424	0.081138
H95	H	1.266090	-0.053394	-0.081020
H96	H	1.266083	-0.053399	0.081165
H97	H	0.941511	0.040706	-0.211499
C98	C	1.333330	-0.046886	0.445079
C99	C	1.454030	-0.032217	0.398094
H100	H	1.316149	-0.091415	0.410897
H101	H	1.332365	-0.047298	0.544367
H102	H	1.269617	-0.011897	0.411814
H103	H	1.517745	-0.067203	0.431368
H104	H	1.455004	-0.031810	0.298785
C105	C	1.252235	-0.483879	0.119543
C106	C	1.258211	-0.526224	0.000012
H107	H	1.174023	-0.453909	0.119531
H108	H	1.256287	-0.512619	0.200610
H109	H	1.322336	-0.456380	0.119537
H110	H	1.188115	-0.553726	0.000023
H111	H	1.254147	-0.497480	-0.081076
H112	H	0.896927	0.224498	-0.000117
H113	H	1.115644	-0.018169	-0.000061
H114	H	1.709275	-0.699030	0.000015
C115	C	1.455374	0.267007	0.684614
C116	C	1.558206	0.238515	0.601985
H117	H	1.472512	0.311550	0.718758
H118	H	1.379331	0.272152	0.629988
H119	H	1.444556	0.236643	0.761148
H120	H	1.569018	0.268876	0.525444
H121	H	1.634270	0.233373	0.656613
C122	C	1.276697	-0.752373	-0.000026
C123	C	1.254083	-0.679119	-0.000018
H124	H	1.197147	-0.771832	-0.000031
H125	H	1.324135	-0.767478	-0.081103
H126	H	1.324129	-0.767490	0.081067
H127	H	1.206659	-0.664002	-0.081117
H128	H	1.206625	-0.664008	0.081068
