data_functionalizedCrystal
_audit_creation_method	'MofGen! by Chris Wilmer'
_symmetry_space_group_name_H-M	'P1'
_symmetry_Int_Tables_number	1
_symmetry_cell_setting	triclinic
loop_
_symmetry_equiv_pos_as_xyz
  x,y,z
_cell_length_a	15.995343
_cell_length_b	23.532357
_cell_length_c	15.072220
_cell_angle_alpha	89.993295
_cell_angle_beta	89.991823
_cell_angle_gamma	83.158738
loop_
_atom_site_label
_atom_site_type_symbol
_atom_site_fract_x
_atom_site_fract_y
_atom_site_fract_z
O1	O	1.110370	0.073384	-0.073705
O2	O	0.866516	0.082454	-0.073727
O3	O	0.995818	-0.004986	-0.073697
O4	O	0.981068	0.160825	-0.073735
O5	O	0.995787	-0.004981	0.073868
O6	O	0.866484	0.082459	0.073838
O7	O	1.110338	0.073389	0.073861
Zn8	Zn	0.988406	0.077925	0.097278
Zn9	Zn	0.988448	0.077918	-0.097145
O10	O	0.981036	0.160830	0.073830
C11	C	0.835309	0.082082	0.000053
C12	C	0.742368	0.080961	0.000045
C13	C	0.572199	0.078924	0.000057
C14	C	0.549395	0.015806	0.000071
C15	C	0.452727	0.014618	0.000412
C16	C	0.404656	0.076919	0.000068
C17	C	0.433457	0.108659	0.084160
C18	C	0.530243	0.109407	0.084226
C19	C	0.530182	0.110326	-0.083590
C20	C	0.433707	0.107996	-0.084689
C21	C	0.309967	0.075789	0.000078
C22	C	0.666887	0.080056	0.000054
C23	C	0.995434	-0.026202	0.000088
C24	C	0.994324	-0.089425	0.000097
C25	C	0.987378	-0.481465	-0.080390
C26	C	0.986323	-0.540869	-0.080395
O27	O	0.985764	-0.571589	-0.148804
N28	N	0.985783	-0.570579	0.000042
C29	C	0.986289	-0.540882	0.080489
O30	O	0.985732	-0.571608	0.148906
C31	C	0.987337	-0.481480	0.080493
C32	C	0.987886	-0.451773	0.000051
C33	C	0.987926	-0.451758	-0.160825
C34	C	0.988982	-0.392359	-0.160820
C35	C	0.989490	-0.362667	-0.080379
C36	C	0.988942	-0.392374	0.000057
C37	C	0.987837	-0.451783	0.160939
C38	C	0.988885	-0.392376	0.160936
C39	C	0.989434	-0.362670	0.080494
C40	C	0.990506	-0.303282	0.080503
N41	N	0.991046	-0.273571	0.000066
C42	C	0.990538	-0.303264	-0.080375
C43	C	0.984085	-0.665632	0.080474
C44	C	0.983043	-0.725035	0.080470
C45	C	0.983076	-0.725017	-0.080414
C46	C	0.984124	-0.665614	-0.080409
C47	C	0.984626	-0.635922	0.000037
C48	C	0.992757	-0.178521	-0.080357
C49	C	0.993816	-0.119117	-0.080344
C50	C	0.993779	-0.119140	0.080539
C51	C	0.992724	-0.178539	0.080527
C52	C	0.992210	-0.208228	0.000072
O53	O	0.991062	-0.272523	0.148877
O54	O	0.991084	-0.272530	-0.148780
C55	C	1.141546	0.073761	0.000079
C56	C	1.234487	0.074883	0.000081
C57	C	0.981421	0.182045	0.000043
C58	C	0.982530	0.245268	0.000029
N59	N	0.988384	0.077929	0.229967
N60	N	0.988477	0.077910	-0.229834
C61	C	0.988447	0.077916	0.589169
C62	C	0.919030	0.124547	0.551546
C63	C	0.919187	0.124717	0.448720
C64	C	0.988415	0.077923	0.410965
C65	C	1.075669	0.090900	0.448260
C66	C	1.075279	0.091231	0.551118
C67	C	0.971390	0.018170	0.551281
C68	C	0.969382	0.018569	0.448417
C69	C	0.988402	0.077925	0.310251
C70	C	0.988465	0.077915	0.689882
H71	H	0.543797	0.156785	-0.084411
H72	H	1.128520	0.058607	0.576005
H73	H	0.433934	-0.010227	-0.059856
H74	H	0.400361	0.153454	-0.090038
O75	O	0.892809	0.006894	0.419236
C76	C	0.856549	0.052192	0.365229
H77	H	0.908303	0.076401	0.337275
H78	H	0.820816	0.034219	0.308300
H79	H	0.811207	0.082584	0.406439
O80	O	0.982466	-0.753792	-0.158614
C81	C	0.910195	-0.732829	-0.207546
H82	H	0.886776	-0.687546	-0.184680
H83	H	0.926555	-0.732248	-0.281134
H84	H	0.858815	-0.761740	-0.196395
O85	O	0.994117	-0.090247	0.158649
C86	C	0.922205	-0.049422	0.163418
H87	H	0.871216	-0.062818	0.117762
H88	H	0.897845	-0.046574	0.234556
H89	H	0.939404	-0.005863	0.141795
O90	O	0.984522	-0.636690	-0.158498
C91	C	0.912581	-0.595894	-0.163322
H92	H	0.888559	-0.584840	-0.093480
H93	H	0.929616	-0.555573	-0.197387
H94	H	0.861397	-0.614279	-0.203000
O95	O	0.982657	-0.753931	0.158586
C96	C	1.054554	-0.794764	0.163408
H97	H	1.105584	-0.781378	0.117776
H98	H	1.078859	-0.797613	0.234561
H99	H	1.037358	-0.838321	0.141790
O100	O	0.931655	0.177143	0.582455
C101	C	0.860432	0.200597	0.631001
H102	H	0.824551	0.164631	0.655667
H103	H	0.881444	0.225570	0.690123
H104	H	0.817711	0.230557	0.586471
H105	H	0.854313	0.116986	0.423505
H106	H	0.578573	-0.008259	0.060296
H107	H	1.016696	-0.017757	0.422721
O108	O	1.031827	-0.023165	0.580419
C109	C	1.089297	0.001750	0.634744
H110	H	1.057627	0.043889	0.662834
H111	H	1.110260	-0.028620	0.691570
H112	H	1.146476	0.010125	0.593759
O113	O	0.841315	0.115547	0.580965
C114	C	0.780586	0.158032	0.546101
H115	H	0.806110	0.176530	0.483114
H116	H	0.720653	0.138333	0.529879
H117	H	0.765885	0.193585	0.597114
O118	O	1.094290	0.142266	0.417567
C119	C	1.172830	0.153276	0.451710
H120	H	1.211301	0.111151	0.470890
H121	H	1.208195	0.175736	0.399080
H122	H	1.162504	0.181842	0.512766
H123	H	1.090387	0.134804	0.575091
H124	H	0.984496	-0.641461	0.145987
O125	O	0.931970	0.177628	0.419296
C126	C	0.862697	0.200500	0.367376
H127	H	0.805043	0.178912	0.386091
H128	H	0.849243	0.248495	0.379886
H129	H	0.877787	0.192589	0.294168
O130	O	0.394895	0.163336	0.087493
C131	C	0.341194	0.173741	0.013610
H132	H	0.323192	0.131394	-0.012520
H133	H	0.281912	0.202429	0.034300
H134	H	0.375051	0.195812	-0.040691
O135	O	0.989466	-0.363590	-0.239041
C136	C	0.988809	-0.402547	-0.310031
H137	H	0.961548	-0.442532	-0.286441
H138	H	0.948463	-0.381767	-0.366294
H139	H	1.055883	-0.414843	-0.334763
O140	O	0.562435	0.083586	0.159570
C141	C	0.603680	0.122703	0.209235
H142	H	0.577527	0.168272	0.190283
H143	H	0.592783	0.115791	0.283001
H144	H	0.674079	0.115679	0.194584
H145	H	0.413539	0.086885	0.146990
H146	H	0.577625	-0.008661	-0.060222
O147	O	0.987546	-0.480669	-0.238916
C148	C	1.059481	-0.521471	-0.243739
H149	H	1.083482	-0.532537	-0.173897
H150	H	1.042446	-0.561785	-0.277805
H151	H	1.110681	-0.503086	-0.283415
H152	H	0.434489	-0.010107	0.061056
H153	H	0.544419	0.155694	0.087811
H154	H	0.558636	0.090410	-0.147350
O155	O	0.987422	-0.480675	0.239052
C156	C	1.059311	-0.521514	0.243900
H157	H	1.110360	-0.508133	0.198290
H158	H	1.083590	-0.524365	0.315062
H159	H	1.042114	-0.565069	0.222272
H160	H	0.415361	0.084882	-0.146902
H161	H	1.128536	0.057840	0.423803
H162	H	0.994265	-0.094933	-0.145853
H163	H	0.992334	-0.202687	-0.145871
O164	O	0.989399	-0.363625	0.239164
C165	C	0.988661	-0.402586	0.310154
H166	H	1.014437	-0.447286	0.286573
H167	H	1.029595	-0.389046	0.366431
H168	H	0.921357	-0.402928	0.334864
O169	O	0.992162	-0.207309	0.158745
C170	C	0.992864	-0.168363	0.229745
H171	H	0.967116	-0.123655	0.206161
H172	H	0.951887	-0.181907	0.285999
H173	H	1.060154	-0.168034	0.254487
H174	H	0.909174	0.005691	0.577269
