data_functionalizedCrystal
_audit_creation_method	'MofGen! by Chris Wilmer'
_symmetry_space_group_name_H-M	'P1'
_symmetry_Int_Tables_number	1
_symmetry_cell_setting	triclinic
loop_
_symmetry_equiv_pos_as_xyz
  x,y,z
_cell_length_a	12.645331
_cell_length_b	29.839131
_cell_length_c	12.645323
_cell_angle_alpha	90.032712
_cell_angle_beta	90.015738
_cell_angle_gamma	90.040656
loop_
_atom_site_label
_atom_site_type_symbol
_atom_site_fract_x
_atom_site_fract_y
_atom_site_fract_z
Zn1	Zn	1.620556	-0.178859	0.599192
Zn2	Zn	2.120556	0.321141	1.099192
Zn3	Zn	1.620365	-0.253991	0.421908
Zn4	Zn	2.120365	0.246009	0.921908
Zn5	Zn	1.443271	-0.178875	0.421958
Zn6	Zn	1.943271	0.321125	0.921958
Zn7	Zn	1.443179	-0.253962	0.599145
Zn8	Zn	1.943179	0.246038	1.099145
O9	O	1.531843	-0.216421	0.510551
O10	O	2.031843	0.283579	1.010551
O11	O	1.768878	-0.188831	0.575674
O12	O	2.268878	0.311169	1.075674
O13	O	1.596831	-0.244045	0.273567
O14	O	2.096831	0.255955	0.773567
O15	O	1.466907	-0.116005	0.445509
O16	O	1.966907	0.383995	0.945509
O17	O	1.768737	-0.244030	0.445424
O18	O	2.268737	0.255970	0.945424
O19	O	1.597158	-0.115994	0.575722
O20	O	2.097158	0.384006	1.075722
O21	O	1.466721	-0.188857	0.273604
O22	O	1.966721	0.311143	0.773604
O23	O	1.294912	-0.188829	0.445463
O24	O	1.794912	0.311171	0.945463
O25	O	1.466751	-0.243981	0.747499
O26	O	1.966751	0.256019	1.247499
O27	O	1.294844	-0.243996	0.575642
O28	O	1.794844	0.256004	1.075642
O29	O	1.597069	-0.188803	0.747533
O30	O	2.097069	0.311197	1.247533
O31	O	1.596742	-0.316854	0.445378
O32	O	2.096742	0.183146	0.945378
O33	O	1.466565	-0.316833	0.575593
O34	O	1.966565	0.183167	1.075593
C35	C	1.256413	-0.216411	0.510554
C36	C	1.756413	0.283589	1.010554
C37	C	1.138583	-0.216418	0.510580
C38	C	1.638583	0.283582	1.010580
C39	C	0.971012	-0.251313	0.592048
C40	C	1.471012	0.248687	1.092048
C41	C	1.093572	-0.251201	0.592389
C42	C	1.593572	0.248799	1.092389
C43	C	1.094151	-0.169100	0.541117
C44	C	1.594151	0.330900	1.041117
C45	C	0.971553	-0.169313	0.541690
C46	C	1.471553	0.330687	1.041690
C47	C	0.971326	-0.228459	0.398317
C48	C	1.471326	0.271541	0.898317
C49	C	1.093931	-0.229494	0.398922
C50	C	1.593931	0.270506	0.898922
C51	C	1.531651	-0.333144	0.510498
C52	C	2.031651	0.166856	1.010498
C53	C	1.531666	-0.383079	0.510511
C54	C	2.031666	0.116921	1.010511
C55	C	1.599749	-0.692720	0.442847
C56	C	2.099749	-0.192720	0.942847
C57	C	1.599880	-0.880393	0.442888
C58	C	2.099880	-0.380393	0.942888
O59	O	1.657615	-0.904657	0.385317
O60	O	2.157615	-0.404657	0.885317
N61	N	1.532063	-0.903864	0.510631
N62	N	2.032063	-0.403864	1.010631
C63	C	1.464212	-0.880413	0.578373
C64	C	1.964212	-0.380413	1.078373
O65	O	1.406540	-0.904682	0.636001
O66	O	1.906540	-0.404682	1.136001
C67	C	1.464088	-0.692740	0.578336
C68	C	1.964088	-0.192740	1.078336
C69	C	1.531902	-0.669273	0.510582
C70	C	2.031902	-0.169273	1.010582
C71	C	1.667559	-0.669253	0.375098
C72	C	2.167559	-0.169253	0.875098
C73	C	1.667522	-0.622337	0.375085
C74	C	2.167522	-0.122337	0.875085
C75	C	1.599674	-0.598889	0.442819
C76	C	2.099674	-0.098889	0.942819
C77	C	1.531865	-0.622357	0.510568
C78	C	2.031865	-0.122357	1.010568
C79	C	1.396244	-0.669290	0.646083
C80	C	1.896244	-0.169290	1.146083
C81	C	1.396220	-0.622369	0.646070
C82	C	1.896220	-0.122369	1.146070
C83	C	1.464035	-0.598902	0.578315
C84	C	1.964035	-0.098902	1.078315
C85	C	1.463980	-0.551994	0.578289
C86	C	1.963980	-0.051994	1.078289
N87	N	1.531798	-0.528524	0.510546
N88	N	2.031798	-0.028524	1.010546
C89	C	1.599645	-0.551972	0.442811
C90	C	2.099645	-0.051972	0.942811
C91	C	1.464281	-0.978943	0.578386
C92	C	1.964281	-0.478943	1.078386
C93	C	1.464311	-1.025861	0.578394
C94	C	1.964311	-0.525861	1.078394
C95	C	1.599980	-1.025839	0.442910
C96	C	2.099980	-0.525839	0.942910
C97	C	1.599945	-0.978920	0.442897
C98	C	2.099945	-0.478920	0.942897
C99	C	1.532099	-0.955473	0.510643
C100	C	2.032099	-0.455473	1.010643
C101	C	1.599560	-0.453446	0.442787
C102	C	2.099560	0.046554	0.942787
C103	C	1.599514	-0.406526	0.442776
C104	C	2.099514	0.093474	0.942776
C105	C	1.463849	-0.406553	0.578264
C106	C	1.963849	0.093447	1.078264
C107	C	1.463891	-0.453468	0.578271
C108	C	1.963891	0.046532	1.078271
C109	C	1.531755	-0.476914	0.510529
C110	C	2.031755	0.023086	1.010529
O111	O	1.406284	-0.527702	0.635838
O112	O	1.906284	-0.027702	1.135838
O113	O	1.657325	-0.527694	0.385209
O114	O	2.157325	-0.027694	0.885209
C115	C	1.599787	-0.739636	0.442860
C116	C	2.099787	-0.239636	0.942860
C117	C	1.531977	-0.763104	0.510609
C118	C	2.031977	-0.263104	1.010609
C119	C	1.464130	-0.739656	0.578344
C120	C	1.964130	-0.239656	1.078344
C121	C	1.532007	-0.810021	0.510617
C122	C	2.032007	-0.310021	1.010617
C123	C	1.599854	-0.833469	0.442882
C124	C	2.099854	-0.333469	0.942882
C125	C	1.667672	-0.809999	0.375139
C126	C	2.167672	-0.309999	0.875139
C127	C	1.667634	-0.763083	0.375126
C128	C	2.167634	-0.263083	0.875126
C129	C	1.396312	-0.763126	0.646086
C130	C	1.896312	-0.263126	1.146086
C131	C	1.396354	-0.810042	0.646094
C132	C	1.896354	-0.310042	1.146094
C133	C	1.464202	-0.833489	0.578359
C134	C	1.964202	-0.333489	1.078359
C135	C	1.808348	-0.216432	0.510549
C136	C	2.308348	0.283568	1.010549
C137	C	1.926178	-0.216436	0.510548
C138	C	2.426178	0.283564	1.010548
C139	C	1.531921	-0.216387	0.787056
C140	C	2.031921	0.283613	1.287056
C141	C	1.531954	-0.216372	0.904886
C142	C	2.031954	0.283628	1.404886
C143	C	1.532064	-0.099243	0.510627
C144	C	2.032064	0.400757	1.010627
C145	C	1.532158	-0.049309	0.510659
C146	C	2.032158	0.450691	1.010659
C147	C	1.531826	-0.216424	0.235121
C148	C	2.031826	0.283576	0.735121
C149	C	1.531998	-0.216312	0.117292
C150	C	2.031998	0.283688	0.617292
C151	C	1.449718	-0.250921	1.072429
C152	C	1.949718	0.249079	1.572429
C153	C	1.449933	-0.251092	0.949869
C154	C	1.949933	0.248908	1.449869
C155	C	1.643641	-0.229221	0.949389
C156	C	2.143641	0.270779	1.449389
C157	C	1.643190	-0.229438	1.071987
C158	C	2.143190	0.270562	1.571987
C159	C	1.503559	-0.168781	1.072103
C160	C	2.003559	0.331219	1.572103
C161	C	1.501067	-0.169066	0.949497
C162	C	2.001067	0.330934	1.449497
H163	H	1.122979	-0.264312	0.375891
H164	H	1.622979	0.235688	0.875891
F165	F	1.739877	-0.834962	0.303048
F166	F	2.239877	-0.334962	0.803048
H167	H	1.124886	-0.158717	0.622274
H168	H	1.624886	0.341283	1.122274
F169	F	1.573688	-0.133580	0.909488
F170	F	2.073688	0.366420	1.409488
F171	F	0.934213	-0.155986	0.648931
F172	F	1.434213	0.344014	1.148931
H173	H	1.706588	-0.204811	0.920254
H174	H	2.206588	0.295189	1.420254
F175	F	1.671789	-0.478391	0.370688
F176	F	2.171789	0.021609	0.870688
F177	F	1.398963	-0.153472	1.112511
F178	F	1.898963	0.346528	1.612511
H179	H	1.367112	-0.243051	0.919779
H180	H	1.867112	0.256949	1.419779
F181	F	1.473962	-0.296685	1.112755
F182	F	1.973962	0.203315	1.612755
H183	H	1.123310	-0.142408	0.483611
H184	H	1.623310	0.357592	0.983611
F185	F	1.131948	-0.240801	0.701083
F186	F	1.631948	0.259199	1.201083
H187	H	1.563488	-0.142996	1.101118
H188	H	2.063488	0.357004	1.601118
H189	H	1.722814	-0.688339	0.319940
H190	H	2.222814	-0.188339	0.819940
F191	F	1.675700	-0.274161	0.909260
F192	F	2.175700	0.225839	1.409260
H193	H	0.941898	-0.142396	0.485052
H194	H	1.441898	0.357604	0.985052
H195	H	1.667301	-0.264184	1.100583
H196	H	2.167301	0.235816	1.600583
F197	F	1.341139	-0.240510	1.110959
F198	F	1.841139	0.259490	1.610959
H199	H	1.408674	-0.472577	0.633446
H200	H	1.908674	0.027423	1.133446
H201	H	1.123610	-0.286289	0.573249
H202	H	1.623610	0.213711	1.073249
F203	F	1.133972	-0.198698	0.315290
F204	F	1.633972	0.301302	0.815290
H205	H	0.941486	-0.286518	0.573119
H206	H	1.441486	0.213482	1.073119
F207	F	1.324009	-0.597418	0.718178
F208	F	1.824009	-0.097418	1.218178
H209	H	1.706571	-0.205325	1.101665
H210	H	2.206571	0.294675	1.601665
F211	F	1.671694	-0.381553	0.370659
F212	F	2.171694	0.118447	0.870659
H213	H	0.940228	-0.243460	0.674723
H214	H	1.440228	0.256540	1.174723
F215	F	1.391647	-0.381590	0.650351
F216	F	1.891647	0.118410	1.150351
H217	H	1.418876	-0.159376	0.920411
H218	H	1.918876	0.340624	1.420411
F219	F	0.933429	-0.195255	0.318943
F220	F	1.433429	0.304745	0.818943
H221	H	1.722855	-0.743979	0.319954
H222	H	2.222855	-0.243979	0.819954
H223	H	1.468704	-0.286328	0.920541
H224	H	1.968704	0.213672	1.420541
F225	F	0.930851	-0.272785	0.362032
F226	F	1.430851	0.227215	0.862032
F227	F	1.739712	-0.597367	0.302982
F228	F	2.239712	-0.097367	0.802982
F229	F	1.672122	-0.953948	0.370785
F230	F	2.172122	-0.453948	0.870785
H231	H	1.655225	-1.044938	0.387758
H232	H	2.155225	-0.544938	0.887758
H233	H	1.409080	-1.044964	0.633557
H234	H	1.909080	-0.544964	1.133557
H235	H	1.409030	-0.959856	0.633554
H236	H	1.909030	-0.459856	1.133554
F237	F	1.324097	-0.738177	0.718184
F238	F	1.824097	-0.238177	1.218184
H239	H	1.341017	-0.688390	0.701251
H240	H	1.841017	-0.188390	1.201251
F241	F	1.324169	-0.835013	0.718210
F242	F	1.824169	-0.335013	1.218210
