data_functionalizedCrystal
_audit_creation_method	'MofGen! by Chris Wilmer'
_symmetry_space_group_name_H-M	'P1'
_symmetry_Int_Tables_number	1
_symmetry_cell_setting	triclinic
loop_
_symmetry_equiv_pos_as_xyz
  x,y,z
_cell_length_a	16.120530
_cell_length_b	13.897448
_cell_length_c	13.897441
_cell_angle_alpha	89.969401
_cell_angle_beta	87.080937
_cell_angle_gamma	87.113275
loop_
_atom_site_label
_atom_site_type_symbol
_atom_site_fract_x
_atom_site_fract_y
_atom_site_fract_z
Zn1	Zn	1.274607	-0.458859	-0.620100
Zn2	Zn	1.774607	0.041141	-0.120100
Zn3	Zn	1.274515	-0.620175	-0.458796
Zn4	Zn	1.774515	-0.120175	0.041204
Zn5	Zn	1.135184	-0.450711	-0.450646
Zn6	Zn	1.635184	0.049289	0.049354
Zn7	Zn	1.135168	-0.611923	-0.611880
Zn8	Zn	1.635168	-0.111923	-0.111880
O9	O	1.204869	-0.535417	-0.535356
O10	O	1.704869	-0.035417	-0.035356
O11	O	1.391262	-0.487122	-0.605554
O12	O	1.891262	0.012878	-0.105554
O13	O	1.256001	-0.597739	-0.322732
O14	O	1.756001	-0.097739	0.177268
O15	O	1.153724	-0.316813	-0.473153
O16	O	1.653724	0.183187	0.026847
O17	O	1.391194	-0.605640	-0.487045
O18	O	1.891194	-0.105640	0.012955
O19	O	1.256157	-0.322799	-0.597651
O20	O	1.756157	0.177201	-0.097651
O21	O	1.153635	-0.473235	-0.316743
O22	O	1.653635	0.026765	0.183257
O23	O	1.018515	-0.465232	-0.465182
O24	O	1.518515	0.034768	0.034818
O25	O	1.153697	-0.591574	-0.747954
O26	O	1.653697	-0.091574	-0.247954
O27	O	1.018503	-0.583674	-0.583641
O28	O	1.518503	-0.083674	-0.083641
O29	O	1.256142	-0.479119	-0.753994
O30	O	1.756142	0.020881	-0.253994
O31	O	1.255986	-0.754060	-0.479074
O32	O	1.755986	-0.254060	0.020926
O33	O	1.153608	-0.747996	-0.591544
O34	O	1.653608	-0.247996	-0.091544
C35	C	1.204808	-0.786028	-0.535324
C36	C	1.704808	-0.286028	-0.035324
C37	C	1.204858	-0.893245	-0.535347
C38	C	1.704858	-0.393245	-0.035347
C39	C	0.988259	-0.522674	-0.522636
C40	C	1.488259	-0.022674	-0.022636
C41	C	0.895592	-0.517246	-0.517217
C42	C	1.395592	-0.017246	-0.017217
C43	C	1.204945	-1.089545	-0.535413
C44	C	1.704945	-0.589545	-0.035413
C45	C	1.204894	-0.980309	-0.535379
C46	C	1.704894	-0.480309	-0.035379
C47	C	0.725929	-0.507313	-0.507332
C48	C	1.225929	-0.007313	-0.007332
C49	C	0.684648	-0.563592	-0.563450
C50	C	1.184648	-0.063592	-0.063450
C51	C	0.590242	-0.558065	-0.557950
C52	C	1.090242	-0.058065	-0.057950
C53	C	0.820344	-0.512838	-0.512831
C54	C	1.320344	-0.012838	-0.012831
C55	C	1.422324	-0.548210	-0.548126
C56	C	1.922324	-0.048210	-0.048126
C57	C	1.514991	-0.553662	-0.553568
C58	C	2.014991	-0.053662	-0.053568
C59	C	1.204928	-0.535335	-0.786952
C60	C	1.704928	-0.035335	-0.286952
C61	C	1.204953	-0.535300	-0.894168
C62	C	1.704953	-0.035300	-0.394168
C63	C	1.204952	-0.283829	-0.535410
C64	C	1.704952	0.216171	-0.035410
C65	C	1.204988	-0.176617	-0.535433
C66	C	1.704988	0.323383	-0.035433
C67	C	1.204976	-0.535236	-1.090464
C68	C	1.704976	-0.035236	-0.590464
C69	C	1.204960	-0.535275	-0.981231
C70	C	1.704960	-0.035275	-0.481231
C71	C	1.204858	-0.535432	-0.284741
C72	C	1.704858	-0.035432	0.215259
C73	C	1.204994	-0.535204	-0.177535
C74	C	1.704994	-0.035204	0.322465
H75	H	0.720207	-0.615924	-0.615626
H76	H	1.220207	-0.115924	-0.115626
C77	C	0.677895	-0.436621	-0.436849
C78	C	1.177895	0.063379	0.063151
C79	C	0.689786	-0.327655	-0.445585
C80	C	1.189786	0.172345	0.054415
C81	C	0.641739	-0.256966	-0.375103
C82	C	1.141739	0.243034	0.124897
C83	C	0.581801	-0.295242	-0.295886
C84	C	1.081801	0.204758	0.204114
C85	C	0.569908	-0.404213	-0.287146
C86	C	1.069908	0.095787	0.212854
C87	C	0.617955	-0.474903	-0.357628
C88	C	1.117955	0.025097	0.142372
H89	H	0.734157	-0.299315	-0.504230
H90	H	1.234157	0.200685	-0.004230
H91	H	0.650543	-0.176298	-0.381573
H92	H	1.150543	0.323702	0.118427
H93	H	0.546234	-0.242914	-0.243711
H94	H	1.046234	0.257086	0.256289
H95	H	0.525537	-0.432553	-0.228501
H96	H	1.025537	0.067447	0.271499
H97	H	0.609151	-0.555570	-0.351158
H98	H	1.109151	-0.055570	0.148842
