data_functionalizedCrystal
_audit_creation_method	'MofGen! by Chris Wilmer'
_symmetry_space_group_name_H-M	'P1'
_symmetry_Int_Tables_number	1
_symmetry_cell_setting	triclinic
loop_
_symmetry_equiv_pos_as_xyz
  x,y,z
_cell_length_a	15.944493
_cell_length_b	13.339071
_cell_length_c	11.804365
_cell_angle_alpha	105.104813
_cell_angle_beta	78.154285
_cell_angle_gamma	99.552162
loop_
_atom_site_label
_atom_site_type_symbol
_atom_site_fract_x
_atom_site_fract_y
_atom_site_fract_z
O1	O	1.157098	0.109759	-0.099024
O2	O	0.916305	0.125903	-0.099032
O3	O	1.009063	-0.029422	-0.099002
O4	O	1.064340	0.265084	-0.099053
O5	O	0.984634	0.011428	0.099046
O6	O	0.891876	0.166753	0.099016
O7	O	1.132669	0.150609	0.099024
Cu8	Cu	1.010042	0.162411	0.117104
Cu9	Cu	1.038933	0.114101	-0.117111
O10	O	1.039911	0.305934	0.098995
C11	C	0.987512	-0.046684	0.000026
C12	C	0.959681	-0.158978	0.000038
C13	C	0.872642	0.145668	-0.000008
C14	C	0.778933	0.143689	-0.000010
C15	C	0.872900	-0.199665	0.000014
C16	C	0.846754	-0.305178	-0.000012
C17	C	0.907387	-0.370017	-0.000024
C18	C	0.994171	-0.329332	-0.000008
C19	C	1.020319	-0.223806	0.000027
C20	C	1.054805	-0.394158	-0.000010
C21	C	1.141589	-0.353473	0.000006
C22	C	1.167733	-0.247958	0.000040
C23	C	1.107100	-0.183119	0.000052
C24	C	1.028657	-0.499684	-0.000045
C25	C	1.176076	-0.523825	-0.000032
C26	C	1.202222	-0.418312	-0.000006
C27	C	0.564480	0.235118	-0.000027
C28	C	0.490386	0.205956	0.097635
C29	C	0.607357	0.140024	-0.000007
C30	C	0.514471	0.165659	-0.097625
C31	C	0.441625	0.136490	-0.000009
C32	C	0.534488	0.110905	0.097735
C33	C	0.558590	0.070603	-0.097612
C34	C	0.484509	0.041377	0.000073
C35	C	0.702832	0.142063	-0.000005
C36	C	0.346150	0.134445	-0.000003
C37	C	1.176333	0.130843	-0.000002
C38	C	1.270043	0.132820	-0.000008
C39	C	1.061463	0.323195	-0.000036
C40	C	1.089295	0.435488	-0.000056
N41	N	0.989728	0.196389	0.281838
N42	N	1.059251	0.080115	-0.281845
C43	C	1.108028	-0.001498	0.655824
C44	C	1.123393	-0.027207	0.531168
C45	C	1.089978	0.028690	0.468829
C46	C	1.041195	0.110300	0.531159
C47	C	1.025834	0.136016	0.655828
C48	C	1.007784	0.166204	0.468833
C49	C	0.959001	0.247814	0.531164
C50	C	0.943642	0.273526	0.655820
C51	C	0.977057	0.217629	0.718159
C52	C	1.023146	0.140488	0.344164
C53	C	0.940952	0.278002	0.344168
C54	C	0.925586	0.303711	0.468825
H55	H	0.957997	-0.532798	-0.000052
H56	H	0.543768	0.087815	0.180382
Cl57	Cl	0.618067	0.361609	0.000092
H58	H	0.823541	-0.146864	0.000031
Cl59	Cl	0.604583	-0.017635	-0.225070
Cl60	Cl	0.864261	0.406304	0.547196
Cl61	Cl	1.276833	-0.196813	0.000060
Cl62	Cl	0.444433	0.294248	0.225085
H63	H	0.886093	-0.455931	-0.000048
Cl64	Cl	0.499969	0.201401	-0.225082
H65	H	0.449933	-0.040587	0.000144
H66	H	1.062865	0.074041	0.293426
Cl67	Cl	1.311319	-0.367152	0.000015
Cl68	Cl	0.898945	0.348280	0.265808
Cl69	Cl	1.139968	-0.050470	0.000072
Cl70	Cl	1.109293	-0.003633	0.312115
Cl71	Cl	1.184717	-0.129795	0.452812
Cl72	Cl	0.957735	0.249946	0.874877
Cl73	Cl	0.737660	-0.356319	-0.000035
Cl74	Cl	1.150040	-0.071751	0.734193
Cl75	Cl	1.252305	-0.605328	-0.000042
Cl76	Cl	0.882327	0.376132	0.734180
