data_functionalizedCrystal
_audit_creation_method	'MofGen! by Chris Wilmer'
_symmetry_space_group_name_H-M	'P1'
_symmetry_Int_Tables_number	1
_symmetry_cell_setting	triclinic
loop_
_symmetry_equiv_pos_as_xyz
  x,y,z
_cell_length_a	23.532407
_cell_length_b	23.532407
_cell_length_c	9.130307
_cell_angle_alpha	89.992076
_cell_angle_beta	90.003827
_cell_angle_gamma	82.848678
loop_
_atom_site_label
_atom_site_type_symbol
_atom_site_fract_x
_atom_site_fract_y
_atom_site_fract_z
O1	O	0.755257	0.069134	-0.121631
O2	O	1.088590	0.402467	0.211702
O3	O	1.421924	0.735801	0.545035
O4	O	0.589394	0.079137	-0.121676
O5	O	0.922727	0.412470	0.211657
O6	O	1.256060	0.745804	0.544990
O7	O	0.677327	-0.008796	-0.121626
O8	O	1.010660	0.324537	0.211708
O9	O	1.343994	0.657870	0.545041
O10	O	0.667324	0.157067	-0.121682
O11	O	1.000657	0.490400	0.211651
O12	O	1.333991	0.823734	0.544985
O13	O	0.677324	-0.008797	0.121973
O14	O	1.010658	0.324536	0.455307
O15	O	1.343991	0.657870	0.788640
O16	O	0.589391	0.079136	0.121923
O17	O	0.922724	0.412470	0.455256
O18	O	1.256058	0.745803	0.788589
O19	O	0.755254	0.069133	0.121968
O20	O	1.088588	0.402466	0.455301
O21	O	1.421921	0.735800	0.788634
Cu22	Cu	0.672322	0.074135	0.144188
Cu23	Cu	1.005656	0.407468	0.477521
Cu24	Cu	1.338989	0.740801	0.810854
Cu25	Cu	0.672326	0.074136	-0.143896
Cu26	Cu	1.005659	0.407469	0.189437
Cu27	Cu	1.338992	0.740802	0.522770
O28	O	0.667321	0.157066	0.121917
O29	O	1.000654	0.490400	0.455250
O30	O	1.333988	0.823733	0.788584
C31	C	0.568176	0.078882	0.000118
C32	C	0.901510	0.412215	0.333451
C33	C	1.234843	0.745549	0.666784
C34	C	0.504959	0.078116	0.000102
C35	C	0.838293	0.411449	0.333435
C36	C	1.171626	0.744783	0.666768
C37	C	0.677071	-0.030013	0.000177
C38	C	1.010404	0.303321	0.333511
C39	C	1.343738	0.636654	0.666844
C40	C	0.676305	-0.093230	0.000189
C41	C	1.009638	0.240104	0.333522
C42	C	1.342972	0.573437	0.666855
C43	C	0.105856	0.125350	0.000152
C44	C	0.439190	0.458683	0.333485
C45	C	0.772523	0.792016	0.666819
C46	C	0.046456	0.124638	0.000161
C47	C	0.379789	0.457971	0.333494
C48	C	0.713123	0.791305	0.666828
O49	O	0.009711	0.168424	0.000199
O50	O	0.343045	0.501757	0.333533
O51	O	0.676378	0.835091	0.666866
N52	N	0.023830	0.072362	0.000176
N53	N	0.357163	0.405695	0.333510
N54	N	0.690496	0.739028	0.666843
C55	C	0.060607	0.020794	0.000197
C56	C	0.393941	0.354127	0.333531
C57	C	0.727274	0.687460	0.666864
O58	O	0.035908	-0.023737	0.000213
O59	O	0.369241	0.309596	0.333546
O60	O	0.702574	0.642930	0.666879
C61	C	0.120006	0.021506	0.000199
C62	C	0.453340	0.354839	0.333532
C63	C	0.786673	0.688172	0.666865
C64	C	0.142629	0.073785	0.000169
C65	C	0.475962	0.407119	0.333502
C66	C	0.809296	0.740452	0.666835
C67	C	0.128479	0.177625	0.000123
C68	C	0.461813	0.510958	0.333457
C69	C	0.795146	0.844292	0.666790
C70	C	0.187876	0.178336	0.000111
C71	C	0.521209	0.511670	0.333445
C72	C	0.854542	0.845003	0.666778
C73	C	0.224649	0.126772	0.000128
C74	C	0.557982	0.460105	0.333461
C75	C	0.891315	0.793439	0.666795
C76	C	0.202025	0.074496	0.000157
C77	C	0.535359	0.407830	0.333490
C78	C	0.868692	0.741163	0.666823
C79	C	0.156783	-0.030062	0.000230
C80	C	0.490116	0.303271	0.333564
C81	C	0.823450	0.636605	0.666897
C82	C	0.216185	-0.029345	0.000233
C83	C	0.549519	0.303988	0.333566
C84	C	0.882852	0.637321	0.666899
C85	C	0.238808	0.022934	0.000202
C86	C	0.572141	0.356268	0.333536
C87	C	0.905475	0.689601	0.666869
C88	C	0.298194	0.023643	0.000161
C89	C	0.631528	0.356977	0.333495
C90	C	0.964861	0.690310	0.666828
N91	N	0.320820	0.075920	0.000146
N92	N	0.654154	0.409253	0.333479
N93	N	0.987487	0.742586	0.666813
C94	C	0.284048	0.127484	0.000129
C95	C	0.617381	0.460817	0.333463
C96	C	0.950714	0.794151	0.666796
C97	C	-0.064135	0.019302	0.000197
C98	C	0.269198	0.352635	0.333531
C99	C	0.602532	0.685969	0.666864
C100	C	-0.123533	0.018589	0.000186
C101	C	0.209800	0.351923	0.333519
C102	C	0.543134	0.685256	0.666852
C103	C	-0.137680	0.122434	0.000152
C104	C	0.195653	0.455768	0.333485
C105	C	0.528986	0.789101	0.666819
C106	C	-0.078281	0.123146	0.000153
C107	C	0.255052	0.456480	0.333487
C108	C	0.588385	0.789813	0.666820
C109	C	-0.041509	0.071578	0.000182
C110	C	0.291824	0.404912	0.333515
C111	C	0.625158	0.738245	0.666849
C112	C	0.408784	0.128974	0.000103
C113	C	0.742118	0.462307	0.333436
C114	C	1.075451	0.795640	0.666770
C115	C	0.468186	0.129680	0.000085
C116	C	0.801520	0.463014	0.333418
C117	C	1.134853	0.796347	0.666752
C118	C	0.482329	0.025836	0.000126
C119	C	0.815662	0.359169	0.333460
C120	C	1.148995	0.692503	0.666793
C121	C	0.422932	0.025129	0.000137
C122	C	0.756265	0.358462	0.333470
C123	C	1.089598	0.691796	0.666803
C124	C	0.386160	0.076702	0.000130
C125	C	0.719494	0.410036	0.333463
C126	C	1.052827	0.743369	0.666797
O127	O	0.334974	-0.020119	0.000129
O128	O	0.668307	0.313214	0.333462
O129	O	1.001640	0.646547	0.666796
O130	O	0.308755	0.172007	0.000133
O131	O	0.642089	0.505340	0.333467
O132	O	0.975422	0.838674	0.666800
C133	C	0.723539	-0.492333	0.000121
C134	C	1.056872	-0.158999	0.333454
C135	C	1.390205	0.174334	0.666788
C136	C	0.722827	-0.551733	0.000110
C137	C	1.056160	-0.218400	0.333443
C138	C	1.389494	0.114934	0.666776
O139	O	0.766613	-0.588478	0.000068
O140	O	1.099946	-0.255144	0.333401
O141	O	1.433280	0.078189	0.666734
N142	N	0.670551	-0.574359	0.000097
N143	N	1.003884	-0.241026	0.333430
N144	N	1.337217	0.092307	0.666763
C145	C	0.618983	-0.537582	0.000080
C146	C	0.952316	-0.204248	0.333413
C147	C	1.285649	0.129085	0.666747
O148	O	0.574452	-0.562281	0.000066
O149	O	0.907785	-0.228948	0.333400
O150	O	1.241119	0.104385	0.666733
C151	C	0.619695	-0.478182	0.000081
C152	C	0.953028	-0.144849	0.333414
C153	C	1.286361	0.188484	0.666747
C154	C	0.671974	-0.455560	0.000109
C155	C	1.005308	-0.122227	0.333442
C156	C	1.338641	0.211107	0.666775
C157	C	0.775814	-0.469710	0.000147
C158	C	1.109147	-0.136376	0.333481
C159	C	1.442481	0.196957	0.666814
C160	C	0.776525	-0.410313	0.000161
C161	C	1.109859	-0.076980	0.333495
C162	C	1.443192	0.256353	0.666828
C163	C	0.724961	-0.373540	0.000149
C164	C	1.058294	-0.040207	0.333482
C165	C	1.391628	0.293126	0.666816
C166	C	0.672685	-0.396164	0.000123
C167	C	1.006019	-0.062830	0.333456
C168	C	1.339352	0.270503	0.666789
C169	C	0.568127	-0.441406	0.000053
C170	C	0.901460	-0.108073	0.333387
C171	C	1.234794	0.225261	0.666720
C172	C	0.568844	-0.382004	0.000053
C173	C	0.902177	-0.048670	0.333387
C174	C	1.235510	0.284663	0.666720
C175	C	0.621123	-0.359381	0.000081
C176	C	0.954457	-0.026048	0.333415
C177	C	1.287790	0.307286	0.666748
C178	C	0.621832	-0.299995	0.000124
C179	C	0.955166	0.033339	0.333458
C180	C	1.288499	0.366672	0.666791
N181	N	0.674109	-0.277368	0.000138
N182	N	1.007442	0.055965	0.333471
N183	N	1.340775	0.389298	0.666804
C184	C	0.725673	-0.314141	0.000150
C185	C	1.059006	0.019192	0.333483
C186	C	1.392340	0.352525	0.666817
C187	C	0.617491	-0.662324	0.000076
C188	C	0.950824	-0.328991	0.333409
C189	C	1.284158	0.004343	0.666742
C190	C	0.616778	-0.721722	0.000085
C191	C	0.950112	-0.388389	0.333419
C192	C	1.283445	-0.055055	0.666752
C193	C	0.720623	-0.735869	0.000112
C194	C	1.053957	-0.402536	0.333446
C195	C	1.387290	-0.069203	0.666779
C196	C	0.721335	-0.676470	0.000113
C197	C	1.054669	-0.343137	0.333447
C198	C	1.388002	-0.009804	0.666780
C199	C	0.669767	-0.639698	0.000089
C200	C	1.003101	-0.306365	0.333422
C201	C	1.336434	0.026969	0.666755
C202	C	0.727163	-0.189405	0.000181
C203	C	1.060496	0.143929	0.333514
C204	C	1.393829	0.477262	0.666847
C205	C	0.727869	-0.130003	0.000201
C206	C	1.061203	0.203331	0.333534
C207	C	1.394536	0.536664	0.666868
C208	C	0.624025	-0.115860	0.000166
C209	C	0.957358	0.217473	0.333499
C210	C	1.290692	0.550806	0.666833
C211	C	0.623318	-0.175257	0.000154
C212	C	0.956651	0.158076	0.333487
C213	C	1.289985	0.491409	0.666820
C214	C	0.674891	-0.212029	0.000156
C215	C	1.008225	0.121305	0.333489
C216	C	1.341558	0.454638	0.666823
O217	O	0.578070	-0.263215	0.000161
O218	O	0.911403	0.070118	0.333494
O219	O	1.244736	0.403451	0.666827
O220	O	0.770196	-0.289433	0.000144
O221	O	1.103529	0.043900	0.333478
O222	O	1.436863	0.377233	0.666811
C223	C	0.776472	0.069388	0.000170
C224	C	1.109805	0.402722	0.333504
C225	C	1.443138	0.736055	0.666837
C226	C	0.839689	0.070154	0.000177
C227	C	1.173022	0.403487	0.333510
C228	C	1.506355	0.736821	0.666843
C229	C	0.667577	0.178283	0.000110
C230	C	1.000910	0.511616	0.333444
C231	C	1.334244	0.844949	0.666777
C232	C	0.668343	0.241500	0.000090
C233	C	1.001676	0.574833	0.333423
C234	C	1.335010	0.908167	0.666756
N235	N	0.672324	0.074134	0.346810
N236	N	1.005658	0.407467	0.680144
N237	N	1.338991	0.740800	1.013477
N238	N	0.672328	0.074132	-0.346519
N239	N	1.005662	0.407465	-0.013186
N240	N	1.338995	0.740799	0.320147
C241	C	0.750220	-0.003709	0.346845
C242	C	1.083554	0.329624	0.680179
C243	C	1.416887	0.662957	1.013512
C244	C	0.789172	-0.042629	0.423530
C245	C	1.122506	0.290704	0.756863
C246	C	1.455839	0.624038	1.090196
C247	C	0.789178	-0.042630	0.576863
C248	C	1.122511	0.290704	0.910196
C249	C	1.455845	0.624037	1.243530
C250	C	0.750226	-0.003707	0.653516
C251	C	1.083560	0.329626	0.986849
C252	C	1.416893	0.662960	1.320182
C253	C	0.711275	0.035213	0.576832
C254	C	1.044608	0.368546	0.910165
C255	C	1.377941	0.701879	1.243498
C256	C	0.711274	0.035210	0.423495
C257	C	1.044608	0.368543	0.756828
C258	C	1.377941	0.701877	1.090161
C259	C	0.633377	0.113052	0.576797
C260	C	0.966710	0.446385	0.910130
C261	C	1.300043	0.779719	1.243463
C262	C	0.633373	0.113056	0.423463
C263	C	0.966706	0.446389	0.756796
C264	C	1.300039	0.779723	1.090130
C265	C	0.594425	0.151974	0.653449
C266	C	0.927758	0.485308	0.986783
C267	C	1.261092	0.818641	1.320116
C268	C	0.555475	0.190898	0.576765
C269	C	0.888808	0.524231	0.910098
C270	C	1.222142	0.857564	1.243432
C271	C	0.555471	0.190897	0.423422
C272	C	0.888805	0.524230	0.756756
C273	C	1.222138	0.857564	1.090089
C274	C	0.594421	0.151976	0.346779
C275	C	0.927754	0.485309	0.680112
C276	C	1.261087	0.818642	1.013446
H277	H	0.486602	0.172255	0.000060
H278	H	0.819935	0.505588	0.333393
H279	H	1.153269	0.838921	0.666726
H280	H	0.526850	-0.352066	0.000031
H281	H	0.860183	-0.018732	0.333364
H282	H	1.193516	0.314601	0.666698
H283	H	-0.034198	-0.022693	0.000208
H284	H	0.299136	0.310640	0.333541
H285	H	0.632469	0.643973	0.666874
H286	H	0.206289	0.220908	0.000086
H287	H	0.539622	0.554241	0.333420
H288	H	0.872956	0.887574	0.666753
H289	H	0.770444	-0.111587	0.000227
H290	H	1.103777	0.221746	0.333561
H291	H	1.437110	0.555080	0.666894
H292	H	-0.059867	0.165717	0.000137
H293	H	0.273467	0.499050	0.333470
H294	H	0.606800	0.832384	0.666804
H295	H	0.098544	0.219617	0.000115
H296	H	0.431877	0.552951	0.333448
H297	H	0.765211	0.886284	0.666782
H298	H	0.580748	-0.193677	0.000172
H299	H	0.914081	0.139656	0.333505
H300	H	1.247414	0.472989	0.666838
H301	H	0.404512	-0.017441	0.000140
H302	H	0.737845	0.315892	0.333473
H303	H	1.071178	0.649225	0.666806
H304	H	0.574207	-0.740136	0.000088
H305	H	0.907540	-0.406802	0.333421
H306	H	1.240874	-0.073469	0.666754
H307	H	0.525555	-0.459814	0.000022
H308	H	0.858889	-0.126481	0.333355
H309	H	1.192222	0.206852	0.666688
H310	H	0.594429	0.151970	0.778302
H311	H	0.927762	0.485303	1.111635
H312	H	1.261096	0.818637	1.444968
H313	H	0.769159	-0.219337	0.000177
H314	H	1.102492	0.113996	0.333510
H315	H	1.435826	0.447329	0.666844
H316	H	-0.167632	0.164421	0.000145
H317	H	0.165701	0.497754	0.333479
H318	H	0.499035	0.831087	0.666812
H319	H	0.820885	-0.074321	0.361106
H320	H	1.154219	0.259013	0.694439
H321	H	1.487552	0.592346	1.027772
H322	H	0.820894	-0.074323	0.639299
H323	H	1.154227	0.259010	0.972633
H324	H	1.487561	0.592343	1.305966
H325	H	0.582043	-0.085909	0.000161
H326	H	0.915376	0.247424	0.333494
H327	H	1.248709	0.580757	0.666828
H328	H	0.378852	0.170970	0.000102
H329	H	0.712185	0.504303	0.333436
H330	H	1.045518	0.837637	0.666769
H331	H	0.817806	-0.499645	0.000152
H332	H	1.151140	-0.166312	0.333485
H333	H	1.484473	0.167022	0.666819
H334	H	0.523761	0.222583	0.639185
H335	H	0.857094	0.555917	0.972519
H336	H	1.190428	0.889250	1.305852
H337	H	-0.141947	-0.023982	0.000187
H338	H	0.191387	0.309352	0.333521
H339	H	0.524720	0.642685	0.666854
H340	H	0.138375	-0.072634	0.000256
H341	H	0.471708	0.260700	0.333589
H342	H	0.805041	0.594033	0.666923
H343	H	0.523750	0.222588	0.360994
H344	H	0.857083	0.555921	0.694327
H345	H	1.190417	0.889255	1.027661
H346	H	0.750229	-0.003715	0.778368
H347	H	1.083562	0.329619	1.111701
H348	H	1.416896	0.662952	1.445035
H349	H	0.594423	0.151974	0.221927
H350	H	0.927757	0.485307	0.555260
H351	H	1.261090	0.818640	0.888593
H352	H	0.246123	-0.071339	0.000257
H353	H	0.579457	0.261994	0.333590
H354	H	0.912790	0.595327	0.666924
H355	H	0.512280	-0.016146	0.000134
H356	H	0.845613	0.317187	0.333468
H357	H	1.178946	0.650520	0.666801
H358	H	0.750224	-0.003708	0.221993
H359	H	1.083558	0.329625	0.555327
H360	H	1.416891	0.662958	0.888660
H361	H	0.819097	-0.391900	0.000178
H362	H	1.152430	-0.058567	0.333512
H363	H	1.485763	0.274767	0.666845
H364	H	0.763906	-0.658056	0.000135
H365	H	1.097239	-0.324722	0.333468
H366	H	1.430573	0.008611	0.666801
H367	H	0.762610	-0.765821	0.000117
H368	H	1.095943	-0.432488	0.333450
H369	H	1.429276	-0.099154	0.666783
H370	H	0.575496	-0.632386	0.000068
H371	H	0.908829	-0.299053	0.333402
H372	H	1.242162	0.034280	0.666735
