data_functionalizedCrystal
_audit_creation_method	'MofGen! by Chris Wilmer'
_symmetry_space_group_name_H-M	'P1'
_symmetry_Int_Tables_number	1
_symmetry_cell_setting	triclinic
loop_
_symmetry_equiv_pos_as_xyz
  x,y,z
_cell_length_a	15.995350
_cell_length_b	15.995350
_cell_length_c	15.072220
_cell_angle_alpha	90.001101
_cell_angle_beta	89.991149
_cell_angle_gamma	83.492375
loop_
_atom_site_label
_atom_site_type_symbol
_atom_site_fract_x
_atom_site_fract_y
_atom_site_fract_z
O1	O	1.110996	0.107921	-0.073703
O2	O	0.867221	0.121249	-0.073721
O3	O	0.995772	-0.007303	-0.073710
O4	O	0.982444	0.236472	-0.073713
O5	O	0.995740	-0.007296	0.073855
O6	O	0.867189	0.121256	0.073844
O7	O	1.110964	0.107928	0.073862
Zn8	Zn	0.989071	0.114593	0.097283
Zn9	Zn	0.989113	0.114584	-0.097141
O10	O	0.982413	0.236480	0.073852
C11	C	0.836010	0.120701	0.000060
C12	C	0.743060	0.119049	0.000053
C13	C	0.405312	0.113117	0.000071
C14	C	0.452746	0.021565	0.000401
C15	C	0.549436	0.023217	0.000063
C16	C	0.572873	0.116060	0.000063
C17	C	0.531804	0.161212	-0.084201
C18	C	0.435168	0.158912	-0.084266
C19	C	0.434793	0.160812	0.083543
C20	C	0.531738	0.160790	0.084651
C21	C	0.667570	0.117727	0.000055
C22	C	0.310614	0.111452	0.000073
C23	C	0.995205	-0.038494	0.000070
C24	C	0.993553	-0.131444	0.000065
C25	C	0.987621	-0.469192	0.000068
C26	C	0.896069	-0.421758	-0.000270
C27	C	0.897721	-0.325068	0.000063
C28	C	0.990564	-0.301631	0.000066
C29	C	1.035702	-0.342705	0.084335
C30	C	1.033402	-0.439341	0.084405
C31	C	1.035330	-0.439707	-0.083404
C32	C	1.035308	-0.342761	-0.084518
C33	C	0.992231	-0.206934	0.000068
C34	C	0.985956	-0.563890	0.000072
C35	C	1.142175	0.108476	0.000080
C36	C	1.235125	0.110127	0.000081
C37	C	0.982980	0.267671	0.000069
C38	C	0.984631	0.360621	0.000069
N39	N	0.989049	0.114599	0.229971
N40	N	0.989142	0.114571	-0.229830
C41	C	0.989112	0.114580	0.589173
C42	C	0.920095	0.183135	0.551560
C43	C	0.920254	0.183385	0.448735
C44	C	0.989080	0.114590	0.410969
C45	C	1.076445	0.133671	0.448266
C46	C	1.076058	0.134159	0.551124
C47	C	0.971542	0.026741	0.551272
C48	C	0.969537	0.027327	0.448409
C49	C	0.989067	0.114593	0.310255
C50	C	0.989130	0.114579	0.689886
H51	H	0.547102	0.228494	0.089741
H52	H	1.005411	-0.460250	-0.147274
C53	C	0.391602	0.249713	-0.089447
C54	C	0.331755	0.284517	-0.014788
C55	C	0.288196	0.375317	-0.019978
C56	C	0.304485	0.431313	-0.099827
C57	C	0.364335	0.396510	-0.174492
C58	C	0.407894	0.305711	-0.169302
H59	H	0.319694	0.243065	0.044326
H60	H	0.243891	0.401080	0.035294
H61	H	0.272241	0.498529	-0.103669
H62	H	0.376396	0.437963	-0.233606
H63	H	0.452199	0.279948	-0.224574
C64	C	0.887329	0.001967	0.586340
C65	C	0.857005	-0.082017	0.557896
C66	C	0.772788	-0.106779	0.592963
C67	C	0.718895	-0.047557	0.656474
C68	C	0.749218	0.036432	0.684922
C69	C	0.833435	0.061194	0.649855
H70	H	0.896901	-0.125861	0.510877
H71	H	0.750341	-0.168953	0.571903
H72	H	0.656552	-0.065888	0.682433
H73	H	0.709322	0.080276	0.731940
H74	H	0.855882	0.123368	0.670914
C75	C	0.935086	0.270698	0.586434
C76	C	0.933911	0.288094	0.686941
C77	C	0.948928	0.375654	0.721804
C78	C	0.965121	0.445817	0.656160
C79	C	0.966297	0.428423	0.555647
C80	C	0.951280	0.340863	0.520784
H81	H	0.921923	0.236153	0.735541
H82	H	0.948058	0.388529	0.796211
H83	H	0.976238	0.510634	0.681968
H84	H	0.978285	0.480364	0.507047
H85	H	0.952151	0.327988	0.446377
H86	H	0.559041	0.127829	0.146989
H87	H	1.103910	-0.328579	0.087471
H88	H	1.004325	-0.314320	0.147042
H89	H	0.905271	0.012846	0.424032
H90	H	0.433165	-0.014865	-0.059694
C91	C	0.407048	0.120382	0.169835
C92	C	0.312921	0.116078	0.188183
C93	C	0.285180	0.075639	0.274469
C94	C	0.351565	0.039504	0.342408
C95	C	0.445698	0.043808	0.324062
C96	C	0.473439	0.084247	0.237775
H97	H	0.263774	0.142827	0.137889
H98	H	0.215496	0.072453	0.288050
H99	H	0.331029	0.009569	0.406283
H100	H	0.494845	0.017058	0.374356
H101	H	0.543123	0.087433	0.224195
H102	H	1.016540	-0.026078	0.422704
H103	H	0.545929	0.229421	-0.087335
C104	C	0.988890	-0.464065	0.169492
C105	C	1.025008	-0.444880	0.261019
C106	C	0.980492	-0.469599	0.346107
C107	C	0.899859	-0.513503	0.339668
C108	C	0.863738	-0.532691	0.248138
C109	C	0.908253	-0.507972	0.163050
H110	H	1.084701	-0.412377	0.265789
H111	H	1.007232	-0.455394	0.413864
H112	H	0.866906	-0.531802	0.402655
H113	H	0.804045	-0.565194	0.243368
H114	H	0.881514	-0.522177	0.095293
C115	C	0.570134	0.118830	-0.168924
C116	C	0.638646	0.043315	-0.161825
C117	C	0.676971	0.000924	-0.246545
C118	C	0.646785	0.034049	-0.338365
C119	C	0.578270	0.109569	-0.345469
C120	C	0.539945	0.151960	-0.260748
H121	H	0.660994	0.018790	-0.093850
H122	H	0.727690	-0.054981	-0.241286
H123	H	0.675155	0.002669	-0.401080
H124	H	0.555921	0.134094	-0.413443
H125	H	0.489225	0.207865	-0.266007
C126	C	0.849550	-0.287510	0.081917
C127	C	0.895026	-0.238547	0.151488
C128	C	0.846910	-0.201037	0.233402
C129	C	0.753317	-0.212491	0.245743
C130	C	0.707836	-0.261457	0.176170
C131	C	0.755953	-0.298967	0.094257
H132	H	0.964314	-0.230066	0.142354
H133	H	0.880578	-0.164789	0.284904
H134	H	0.717699	-0.184725	0.306380
H135	H	0.638549	-0.269938	0.185304
H136	H	0.722284	-0.335215	0.042754
H137	H	1.002306	-0.315516	-0.146857
C138	C	1.147914	0.069723	0.584740
C139	C	1.162429	0.057266	0.685101
C140	C	1.234476	-0.006949	0.718712
C141	C	1.292008	-0.058707	0.651962
C142	C	1.277494	-0.046251	0.551595
C143	C	1.205447	0.017964	0.517984
H144	H	1.119840	0.095581	0.734519
H145	H	1.245220	-0.016170	0.793011
H146	H	1.345341	-0.106242	0.676843
H147	H	1.320084	-0.084566	0.502177
H148	H	1.194703	0.027184	0.443685
C149	C	0.391886	0.252000	0.084323
C150	C	0.405588	0.311472	0.006631
C151	C	0.362678	0.402656	0.007403
C152	C	0.306066	0.434368	0.085866
C153	C	0.292361	0.374895	0.163563
C154	C	0.335272	0.283711	0.162792
H155	H	0.447498	0.287998	-0.051457
H156	H	0.372823	0.446682	-0.050115
H157	H	0.274301	0.501868	0.086437
H158	H	0.250452	0.398369	0.221652
H159	H	0.325127	0.239685	0.220309
C160	C	1.097864	0.219229	0.413465
C161	C	1.036240	0.271843	0.351253
C162	C	1.057654	0.357403	0.316454
C163	C	1.140692	0.390348	0.343866
C164	C	1.202321	0.337733	0.406081
C165	C	1.180908	0.252173	0.440880
H166	H	0.974765	0.247456	0.330957
H167	H	1.012031	0.396352	0.270398
H168	H	1.156543	0.453684	0.318105
H169	H	1.263796	0.362120	0.426377
H170	H	1.226530	0.213224	0.486936
C171	C	0.832524	0.168039	0.414658
C172	C	0.781771	0.234449	0.356091
C173	C	0.694037	0.219107	0.322017
C174	C	0.657056	0.137355	0.346510
C175	C	0.707809	0.070941	0.405080
C176	C	0.795543	0.086283	0.439154
H177	H	0.809146	0.294971	0.337957
H178	H	0.656467	0.268272	0.278660
H179	H	0.592110	0.125998	0.321287
H180	H	0.680434	0.010418	0.423214
H181	H	0.833114	0.037117	0.482511
C182	C	0.849770	-0.286666	-0.081530
C183	C	0.809704	-0.343972	-0.147449
C184	C	0.761741	-0.305574	-0.229039
C185	C	0.753844	-0.209869	-0.244711
C186	C	0.793911	-0.152557	-0.178790
C187	C	0.841874	-0.190955	-0.097200
H188	H	0.815548	-0.414824	-0.135850
H189	H	0.732080	-0.348001	-0.277838
H190	H	0.718339	-0.181445	-0.305109
H191	H	0.788067	-0.081705	-0.190390
H192	H	0.871535	-0.148528	-0.048401
C193	C	1.126775	-0.322009	-0.091397
C194	C	1.162599	-0.267110	-0.020010
C195	C	1.254068	-0.246357	-0.026883
C196	C	1.309714	-0.280503	-0.105144
C197	C	1.273891	-0.335406	-0.176538
C198	C	1.182421	-0.356159	-0.169664
H199	H	1.121406	-0.241830	0.037929
H200	H	1.280587	-0.205715	0.025967
H201	H	1.377425	-0.265141	-0.110233
H202	H	1.315084	-0.360686	-0.234476
H203	H	1.155903	-0.396802	-0.222515
H204	H	0.434211	-0.015027	0.060830
H205	H	1.129029	0.085068	0.423801
C206	C	0.846651	-0.446801	-0.081908
C207	C	0.764984	-0.488032	-0.069529
C208	C	0.715569	-0.513083	-0.151172
C209	C	0.747821	-0.496902	-0.245193
C210	C	0.829493	-0.455669	-0.257576
C211	C	0.878908	-0.430618	-0.175933
H212	H	0.741105	-0.500011	0.000075
H213	H	0.655110	-0.543606	-0.142004
H214	H	0.711241	-0.515446	-0.305630
H215	H	0.853372	-0.443689	-0.327180
H216	H	0.939367	-0.400094	-0.185100
H217	H	1.021872	-0.024275	0.575595
H218	H	0.859626	-0.441349	0.059819
H219	H	1.100617	-0.471588	0.088231
H220	H	1.102831	-0.471468	-0.083968
C221	C	1.096966	0.220701	0.583530
C222	C	1.113899	0.288887	0.515818
C223	C	1.134805	0.375432	0.548219
C224	C	1.138778	0.393790	0.648332
C225	C	1.121845	0.325603	0.716051
C226	C	1.100939	0.239058	0.683650
H227	H	1.110958	0.275298	0.441702
H228	H	1.147340	0.425909	0.498088
H229	H	1.154254	0.457856	0.672317
H230	H	1.124786	0.339191	0.790166
H231	H	1.088404	0.188581	0.733780
H232	H	0.854945	0.171953	0.576317
H233	H	0.577852	-0.012275	0.060467
H234	H	0.577307	-0.012521	-0.060446
H235	H	0.931473	0.248570	0.424121
C236	C	0.410447	0.114417	-0.169355
C237	C	0.447055	0.022837	-0.187793
C238	C	0.422339	-0.021660	-0.272884
C239	C	0.361016	0.025421	-0.339536
C240	C	0.324404	0.117006	-0.321099
C241	C	0.349120	0.161504	-0.236009
H242	H	0.492453	-0.012020	-0.138452
H243	H	0.449442	-0.089458	-0.286531
H244	H	0.342720	-0.007519	-0.402525
H245	H	0.279006	0.151863	-0.370441
H246	H	0.322017	0.229301	-0.222361
