data_functionalizedCrystal
_audit_creation_method	'MofGen! by Chris Wilmer'
_symmetry_space_group_name_H-M	'P1'
_symmetry_Int_Tables_number	1
_symmetry_cell_setting	triclinic
loop_
_symmetry_equiv_pos_as_xyz
  x,y,z
_cell_length_a	18.050590
_cell_length_b	12.759400
_cell_length_c	12.759393
_cell_angle_alpha	90.031564
_cell_angle_beta	90.006011
_cell_angle_gamma	90.003850
loop_
_atom_site_label
_atom_site_type_symbol
_atom_site_fract_x
_atom_site_fract_y
_atom_site_fract_z
Zn1	Zn	1.135412	-0.418508	0.593631
Zn2	Zn	1.135337	-0.594227	0.417951
Zn3	Zn	1.011217	-0.418530	0.418009
Zn4	Zn	1.011209	-0.594113	0.593631
O5	O	1.073294	-0.506344	0.505806
O6	O	1.239327	-0.441857	0.570303
O7	O	1.118845	-0.570977	0.270938
O8	O	1.027726	-0.271506	0.441330
O9	O	1.239272	-0.570957	0.441232
O10	O	1.118972	-0.271490	0.570359
O11	O	1.027654	-0.441893	0.270980
O12	O	0.907291	-0.441782	0.441330
O13	O	1.027712	-0.570761	0.740652
O14	O	0.907285	-0.570782	0.570358
O15	O	1.118964	-0.441746	0.740652
O16	O	1.118837	-0.741233	0.441231
O17	O	1.027640	-0.741149	0.570303
C18	C	0.880341	-0.506273	0.505851
C19	C	0.797796	-0.506267	0.505895
C20	C	1.073250	-0.779312	0.505784
C21	C	1.073299	-0.896088	0.505809
C22	C	1.120838	-0.950959	0.438676
C23	C	1.120883	-1.060683	0.438709
C24	C	1.025845	-1.060656	0.573010
C25	C	1.025803	-0.950934	0.572982
C26	C	1.175705	-0.950976	0.361135
C27	C	1.175751	-1.060700	0.361168
C28	C	0.598363	-0.576618	0.575894
C29	C	0.548956	-0.480817	0.601742
C30	C	0.646665	-0.506326	0.505844
C31	C	0.548991	-0.602182	0.479995
C32	C	0.500680	-0.506391	0.505796
C33	C	0.598346	-0.410474	0.531742
C34	C	0.598384	-0.531903	0.409950
C35	C	0.548999	-0.436036	0.435761
C36	C	0.730764	-0.506290	0.505874
C37	C	0.416584	-0.506416	0.505766
C38	C	1.266999	-0.506417	0.505761
C39	C	1.349545	-0.506448	0.505742
C40	C	1.073346	-0.506238	0.779839
C41	C	1.073368	-0.506193	0.896616
C42	C	1.073358	-0.232311	0.505851
C43	C	1.073386	-0.115534	0.505870
C44	C	1.073285	-0.506374	0.232838
C45	C	1.073406	-0.506123	0.116062
C46	C	1.120889	-0.439008	0.951480
C47	C	1.120907	-0.438970	1.061204
C48	C	1.025880	-0.573311	1.061191
C49	C	1.025859	-0.573343	0.951468
C50	C	1.175755	-0.361451	0.951488
C51	C	1.175772	-0.361413	1.061212
H52	H	0.987100	-0.906259	0.627657
Cl53	Cl	1.143903	-0.898547	0.241772
Cl54	Cl	1.264575	-0.395068	1.107168
H55	H	0.527307	-0.683218	0.458154
Cl56	Cl	1.260085	-0.406502	0.898904
Cl57	Cl	0.515742	-0.344201	0.344268
H58	H	0.620112	-0.553544	0.328898
Cl59	Cl	1.260108	-1.113140	0.406260
H60	H	0.620040	-0.635958	0.635200
H61	H	1.233204	-0.921134	0.382969
Cl62	Cl	0.966140	-1.129612	0.657452
Cl63	Cl	1.152029	-1.106807	0.235535
Cl64	Cl	0.515435	-0.447447	0.726914
Cl65	Cl	0.966103	-0.657790	0.882500
Cl66	Cl	0.966158	-0.657724	1.130156
Cl67	Cl	0.631673	-0.285321	0.565611
Cl68	Cl	1.151997	-0.235829	0.905546
Cl69	Cl	1.143893	-0.242107	1.113799
