data_functionalizedCrystal
_audit_creation_method	'MofGen! by Chris Wilmer'
_symmetry_space_group_name_H-M	'P1'
_symmetry_Int_Tables_number	1
_symmetry_cell_setting	triclinic
loop_
_symmetry_equiv_pos_as_xyz
  x,y,z
_cell_length_a	27.732048
_cell_length_b	27.732046
_cell_length_c	12.503572
_cell_angle_alpha	86.512317
_cell_angle_beta	86.516589
_cell_angle_gamma	97.357683
loop_
_atom_site_label
_atom_site_type_symbol
_atom_site_fract_x
_atom_site_fract_y
_atom_site_fract_z
O1	O	0.643731	-0.054704	-0.089195
O2	O	1.143731	0.445296	0.410805
O3	O	0.502939	-0.063448	-0.089230
O4	O	1.002939	0.436552	0.410770
O5	O	0.577707	0.011320	-0.089187
O6	O	1.077707	0.511320	0.410813
O7	O	0.568963	-0.129472	-0.089238
O8	O	1.068963	0.370528	0.410762
O9	O	0.572084	0.005688	0.089451
O10	O	1.072084	0.505688	0.589451
O11	O	0.497316	-0.069080	0.089409
O12	O	0.997316	0.430920	0.589409
O13	O	0.638108	-0.060336	0.089443
O14	O	1.138108	0.439664	0.589443
Cu15	Cu	0.567198	-0.065222	0.105737
Cu16	Cu	1.067198	0.434778	0.605737
Cu17	Cu	0.573848	-0.058562	-0.105524
Cu18	Cu	1.073848	0.441438	0.394476
O19	O	0.563340	-0.135104	0.089401
O20	O	1.063340	0.364896	0.589401
C21	C	0.482120	-0.066081	0.000085
C22	C	0.982120	0.433919	0.500085
C23	C	0.428466	-0.065527	0.000073
C24	C	0.928466	0.434473	0.500073
C25	C	0.089650	-0.106232	0.000105
C26	C	0.589650	0.393768	0.500105
C27	C	-0.112010	-0.104181	0.000116
C28	C	0.387990	0.395819	0.500116
O29	O	-0.143267	-0.141403	0.000149
O30	O	0.356733	0.358597	0.500149
N31	N	-0.131134	-0.059847	0.000130
N32	N	0.368866	0.440153	0.500130
C33	C	-0.099840	-0.016022	0.000148
C34	C	0.400160	0.483978	0.500148
O35	O	-0.120733	0.021735	0.000171
O36	O	0.379267	0.521735	0.500171
C37	C	0.101819	-0.018073	0.000145
C38	C	0.601819	0.481927	0.500145
C39	C	0.120940	-0.062410	0.000120
C40	C	0.620940	0.437590	0.500120
C41	C	0.108771	-0.150566	0.000082
C42	C	0.608771	0.349434	0.500082
C43	C	0.159184	-0.151078	0.000073
C44	C	0.659184	0.348922	0.500073
C45	C	0.190474	-0.107256	0.000088
C46	C	0.690474	0.392744	0.500088
C47	C	0.171352	-0.062922	0.000112
C48	C	0.671352	0.437078	0.500112
C49	C	0.133112	0.025751	0.000171
C50	C	0.633112	0.525751	0.500171
C51	C	0.183529	0.025234	0.000173
C52	C	0.683529	0.525234	0.500173
C53	C	0.202650	-0.019103	0.000149
C54	C	0.702650	0.480897	0.500149
C55	C	0.253055	-0.019613	0.000119
C56	C	0.753055	0.480387	0.500119
N57	N	0.272179	-0.063947	0.000105
N58	N	0.772179	0.436053	0.500105
C59	C	0.240888	-0.107769	0.000090
C60	C	0.740888	0.392231	0.500090
C61	C	-0.205714	-0.014948	0.000147
C62	C	0.294286	0.485052	0.500147
C63	C	-0.256128	-0.014435	0.000146
C64	C	0.243872	0.485565	0.500146
C65	C	-0.268295	-0.102595	0.000116
C66	C	0.231705	0.397405	0.500116
C67	C	-0.217880	-0.103107	0.000109
C68	C	0.282120	0.396893	0.500109
C69	C	-0.186590	-0.059282	0.000133
C70	C	0.313410	0.440718	0.500133
C71	C	0.346758	-0.108841	0.000071
C72	C	0.846758	0.391159	0.500071
C73	C	0.397176	-0.109349	0.000058
C74	C	0.897176	0.390651	0.500058
C75	C	0.409338	-0.021189	0.000094
C76	C	0.909338	0.478811	0.500094
C77	C	0.358925	-0.020681	0.000101
C78	C	0.858925	0.479319	0.500101
C79	C	0.327636	-0.064511	0.000093
C80	C	0.827636	0.435489	0.500093
O81	O	0.284340	0.017589	0.000098
O82	O	0.784340	0.517589	0.500098
O83	O	0.261791	-0.145521	0.000090
O84	O	0.761791	0.354479	0.500090
C85	C	0.039237	-0.105720	0.000114
C86	C	0.539237	0.394280	0.500114
C87	C	0.020116	-0.061386	0.000137
C88	C	0.520116	0.438614	0.500137
C89	C	0.051406	-0.017565	0.000153
C90	C	0.551406	0.482435	0.500153
C91	C	-0.030299	-0.060873	0.000136
C92	C	0.469701	0.439127	0.500136
C93	C	-0.061589	-0.104695	0.000121
C94	C	0.438411	0.395305	0.500121
C95	C	-0.042465	-0.149030	0.000107
C96	C	0.457535	0.350970	0.500107
C97	C	0.007947	-0.149542	0.000098
C98	C	0.507947	0.350458	0.500098
C99	C	0.032282	0.026770	0.000166
C100	C	0.532282	0.526770	0.500166
C101	C	-0.018130	0.027279	0.000174
C102	C	0.481870	0.527279	0.500174
C103	C	-0.049421	-0.016543	0.000158
C104	C	0.450579	0.483457	0.500158
C105	C	0.574712	0.026511	0.000136
C106	C	1.074712	0.526511	0.500136
C107	C	0.574159	0.080165	0.000147
C108	C	1.074159	0.580165	0.500147
C109	C	0.614866	0.418982	0.000120
C110	C	1.114866	0.918982	0.500120
C111	C	0.612816	0.620642	0.000115
C112	C	1.112816	1.120642	0.500115
O113	O	0.650038	0.651898	0.000079
O114	O	1.150038	1.151898	0.500079
N115	N	0.568482	0.639766	0.000106
N116	N	1.068482	1.139766	0.500106
C117	C	0.524656	0.608471	0.000092
C118	C	1.024656	1.108471	0.500092
O119	O	0.486900	0.629365	0.000073
O120	O	0.986900	1.129365	0.500073
C121	C	0.526707	0.406813	0.000089
C122	C	1.026707	0.906813	0.500089
C123	C	0.571044	0.387691	0.000108
C124	C	1.071044	0.887691	0.500108
C125	C	0.659200	0.399860	0.000138
C126	C	1.159200	0.899860	0.500138
C127	C	0.659712	0.349447	0.000145
C128	C	1.159712	0.849447	0.500145
C129	C	0.615890	0.318157	0.000134
C130	C	1.115890	0.818157	0.500134
C131	C	0.571556	0.337279	0.000116
C132	C	1.071556	0.837279	0.500116
C133	C	0.482882	0.375520	0.000067
C134	C	0.982882	0.875520	0.500067
C135	C	0.483399	0.325102	0.000063
C136	C	0.983399	0.825102	0.500063
C137	C	0.527736	0.305981	0.000083
C138	C	1.027736	0.805981	0.500083
C139	C	0.528246	0.255576	0.000111
C140	C	1.028246	0.755576	0.500111
N141	N	0.572580	0.236452	0.000120
N142	N	1.072580	0.736452	0.500120
C143	C	0.616402	0.267743	0.000131
C144	C	1.116402	0.767743	0.500131
C145	C	0.523583	0.714345	0.000095
C146	C	1.023583	1.214345	0.500095
C147	C	0.523070	0.764760	0.000098
C148	C	1.023070	1.264760	0.500098
C149	C	0.611230	0.776927	0.000119
C150	C	1.111230	1.276927	0.500119
C151	C	0.611743	0.726511	0.000124
C152	C	1.111743	1.226511	0.500124
C153	C	0.567918	0.695221	0.000104
C154	C	1.067918	1.195221	0.500104
C155	C	0.617474	0.161873	0.000147
C156	C	1.117474	0.661873	0.500147
C157	C	0.617981	0.111456	0.000159
C158	C	1.117981	0.611456	0.500159
C159	C	0.529822	0.099293	0.000132
C160	C	1.029822	0.599293	0.500132
C161	C	0.529313	0.149706	0.000126
C162	C	1.029313	0.649706	0.500126
C163	C	0.573144	0.180995	0.000130
C164	C	1.073144	0.680995	0.500130
O165	O	0.491044	0.224292	0.000136
O166	O	0.991044	0.724292	0.500136
O167	O	0.654154	0.246840	0.000126
O168	O	1.154154	0.746840	0.500126
C169	C	0.614354	0.469394	0.000113
C170	C	1.114354	0.969394	0.500113
C171	C	0.570021	0.488516	0.000094
C172	C	1.070021	0.988516	0.500094
C173	C	0.526199	0.457225	0.000083
C174	C	1.026199	0.957225	0.500083
C175	C	0.569508	0.538930	0.000097
C176	C	1.069508	1.038930	0.500097
C177	C	0.613330	0.570220	0.000108
C178	C	1.113330	1.070220	0.500108
C179	C	0.657665	0.551096	0.000117
C180	C	1.157665	1.051096	0.500117
C181	C	0.658176	0.500684	0.000124
C182	C	1.158176	1.000684	0.500124
C183	C	0.481864	0.476349	0.000074
C184	C	0.981864	0.976349	0.500074
C185	C	0.481356	0.526762	0.000068
C186	C	0.981356	1.026762	0.500068
C187	C	0.525178	0.558052	0.000080
C188	C	1.025178	1.058052	0.500080
C189	C	0.658927	-0.057703	0.000126
C190	C	1.158927	0.442297	0.500126
C191	C	0.712581	-0.058256	0.000131
C192	C	1.212581	0.441744	0.500131
N193	N	0.562525	-0.069907	0.254327
N194	N	1.062525	0.430093	0.754327
C195	C	0.566336	0.849705	0.000088
C196	C	1.066336	1.349705	0.500088
C197	C	0.566892	0.796050	0.000109
C198	C	1.066892	1.296050	0.500109
N199	N	0.578526	-0.053873	-0.254113
N200	N	1.078526	0.446127	0.245887
C201	C	0.555649	-0.076802	0.473438
C202	C	1.055649	0.423198	0.973438
C203	C	0.585400	-0.046980	0.526782
C204	C	1.085400	0.453020	1.026782
C205	C	0.581574	-0.050816	0.648703
C206	C	1.081574	0.449184	1.148703
C207	C	0.559474	-0.072966	0.351506
C208	C	1.059474	0.427034	0.851506
H209	H	0.412741	-0.145455	0.000037
H210	H	0.912741	0.354545	0.500037
H211	H	0.486966	0.780323	0.000101
H212	H	0.986966	1.280323	0.500101
H213	H	0.057755	0.062456	0.000182
H214	H	0.557755	0.562456	0.500182
H215	H	0.527309	-0.105214	0.519329
H216	H	1.027309	0.394786	1.019329
H217	H	0.613743	-0.018567	0.480885
H218	H	1.113743	0.481433	0.980885
H219	H	0.445248	0.542325	0.000062
H220	H	0.945248	1.042325	0.500062
Br221	Br	-0.191935	-0.163281	0.000076
Br222	Br	0.308065	0.336719	0.500076
Br223	Br	0.678158	0.085509	0.000186
Br224	Br	1.178158	0.585509	0.500186
H225	H	0.695816	0.333884	0.000157
H226	H	1.195816	0.833884	0.500157
Br227	Br	-0.282071	0.045741	0.000147
Br228	Br	0.217929	0.545741	0.500147
Br229	Br	0.304302	-0.168325	0.000062
Br230	Br	0.804302	0.331675	0.500062
H231	H	-0.293781	-0.138276	0.000103
H232	H	0.206219	0.361724	0.500103
Br233	Br	0.185125	-0.211253	0.000044
Br234	Br	0.685125	0.288747	0.500044
Br235	Br	0.718352	0.474742	0.000144
Br236	Br	1.218352	0.974742	0.500144
Br237	Br	0.670703	0.819402	0.000132
Br238	Br	1.170703	1.319402	0.500132
H239	H	-0.180241	0.020742	0.000167
H240	H	0.319759	0.520742	0.500167
Br241	Br	0.676958	0.204329	0.000151
Br242	Br	1.176958	0.704329	0.500151
Br243	Br	0.671916	0.700566	0.000153
Br244	Br	1.171916	1.200566	0.500153
H245	H	0.083299	-0.186253	0.000073
H246	H	0.583299	0.313747	0.500073
Br247	Br	0.422385	0.433891	0.000053
Br248	Br	0.922385	0.933891	0.500053
H249	H	0.117553	0.061855	0.000193
H250	H	0.617553	0.561855	0.500193
H251	H	0.693346	0.576582	0.000131
H252	H	1.193346	1.076582	0.500131
Br253	Br	0.225991	0.084714	0.000212
Br254	Br	0.725991	0.584714	0.500212
H255	H	0.487893	0.688873	0.000079
H256	H	0.987893	1.188873	0.500079
Br257	Br	0.332974	0.039491	0.000138
Br258	Br	0.832974	0.539491	0.500138
Br259	Br	0.423919	0.282640	0.000031
Br260	Br	0.923919	0.782640	0.500031
Br261	Br	0.469140	0.175657	0.000124
Br262	Br	0.969140	0.675657	0.500124
H263	H	0.446778	0.391079	0.000044
H264	H	0.946778	0.891079	0.500044
Br265	Br	0.470352	0.056819	0.000117
Br266	Br	0.970352	0.556819	0.500117
H267	H	0.023510	-0.185646	0.000080
H268	H	0.523510	0.314354	0.500080
Br269	Br	-0.044073	0.087457	0.000189
Br270	Br	0.455927	0.587457	0.500189
Br271	Br	-0.084941	-0.208501	0.000078
Br272	Br	0.415059	0.291499	0.500078
H273	H	0.694887	0.425332	0.000144
H274	H	1.194887	0.925332	0.500144
H275	H	0.434824	0.014489	0.000102
H276	H	0.934824	0.514489	0.500102
