data_functionalizedCrystal
_audit_creation_method	'MofGen! by Chris Wilmer'
_symmetry_space_group_name_H-M	'P1'
_symmetry_Int_Tables_number	1
_symmetry_cell_setting	triclinic
loop_
_symmetry_equiv_pos_as_xyz
  x,y,z
_cell_length_a	9.065218
_cell_length_b	10.654550
_cell_length_c	8.140239
_cell_angle_alpha	90.006249
_cell_angle_beta	89.998314
_cell_angle_gamma	95.249606
loop_
_atom_site_label
_atom_site_type_symbol
_atom_site_fract_x
_atom_site_fract_y
_atom_site_fract_z
O1	O	0.207232	-1.668659	-0.136742
O2	O	0.226976	-1.303259	-0.136715
O3	O	0.002421	-1.493512	-0.136725
O4	O	0.431788	-1.478406	-0.136731
O5	O	0.002418	-1.493501	0.136502
O6	O	0.226974	-1.303248	0.136513
O7	O	0.207230	-1.668648	0.136486
Zn8	Zn	0.217101	-1.485947	0.179880
Zn9	Zn	0.217105	-1.485961	-0.180109
O10	O	0.431786	-1.478395	0.136496
C11	C	0.225525	-1.256450	-0.000098
C12	C	0.221188	-1.116989	-0.000087
C13	C	-0.052559	-1.492055	-0.000114
C14	C	-0.216378	-1.487714	-0.000122
N15	N	0.217098	-1.485946	0.425562
C16	C	0.486766	-1.479852	-0.000118
C17	C	0.650585	-1.484193	-0.000122
C18	C	0.208681	-1.715457	-0.000135
C19	C	0.213018	-1.854918	-0.000156
C20	C	0.353403	-1.038027	-0.000113
C21	C	0.349319	-0.906990	-0.000141
C22	C	0.080793	-0.933890	-0.000125
C23	C	0.084879	-1.064925	-0.000085
C24	C	0.508434	-1.022496	-0.000129
C25	C	0.504350	-0.891459	-0.000158
N26	N	0.217096	-1.485971	-0.425791
H27	H	-0.022783	-1.129212	-0.000041
H28	H	0.569065	-1.052063	0.114221
N29	N	0.581709	-0.836467	-0.151625
H30	H	0.688150	-0.857388	-0.151690
H31	H	0.529896	-0.873262	-0.252886
H32	H	0.557800	-1.058351	-0.118094
H33	H	-0.030185	-0.891483	-0.000149
H34	H	0.551201	-0.845968	0.117801
