data_functionalizedCrystal
_audit_creation_method	'MofGen! by Chris Wilmer'
_symmetry_space_group_name_H-M	'P1'
_symmetry_Int_Tables_number	1
_symmetry_cell_setting	triclinic
loop_
_symmetry_equiv_pos_as_xyz
  x,y,z
_cell_length_a	10.654550
_cell_length_b	17.699092
_cell_length_c	16.776229
_cell_angle_alpha	90.004970
_cell_angle_beta	90.010645
_cell_angle_gamma	83.885635
loop_
_atom_site_label
_atom_site_type_symbol
_atom_site_fract_x
_atom_site_fract_y
_atom_site_fract_z
O1	O	-1.665990	-0.106304	-0.066350
O2	O	-1.300335	-0.116432	-0.066337
O3	O	-1.493488	-0.001245	-0.066342
O4	O	-1.472837	-0.221491	-0.066345
O5	O	-1.493462	-0.001237	0.066234
O6	O	-1.300309	-0.116424	0.066239
O7	O	-1.665965	-0.106297	0.066226
Zn8	Zn	-1.483133	-0.111359	0.087282
Zn9	Zn	-1.483167	-0.111369	-0.087393
O10	O	-1.472812	-0.221484	0.066231
C11	C	-1.253537	-0.115684	-0.000047
C12	C	-1.114133	-0.113460	-0.000043
C13	C	-1.492733	0.026961	-0.000055
C14	C	-1.490508	0.110992	-0.000059
C15	C	-1.712762	-0.107044	-0.000066
C16	C	-1.852167	-0.109269	-0.000076
C17	C	-1.033463	-0.181280	-0.000055
C18	C	-0.902479	-0.179185	-0.000069
C19	C	-0.932847	-0.041443	-0.000061
C20	C	-1.063828	-0.043539	-0.000041
C21	C	-1.083768	-0.251200	-0.000056
C22	C	-1.003097	-0.319026	-0.000070
C23	C	-0.872112	-0.316931	-0.000083
C24	C	-0.821799	-0.247010	-0.000084
C25	C	-1.473566	-0.249689	-0.000058
C26	C	-1.475791	-0.333721	-0.000059
C27	C	-1.489480	0.150463	-0.072327
C28	C	-1.487381	0.229419	-0.072328
C29	C	-1.486320	0.268904	-0.000060
C30	C	-1.487344	0.229428	0.072214
C31	C	-1.489434	0.150473	0.072214
C32	C	-1.478915	0.547847	0.072215
C33	C	-1.476829	0.626808	0.072210
C34	C	-1.476862	0.626793	-0.072327
C35	C	-1.478951	0.547837	-0.072327
C36	C	-1.479969	0.508368	-0.000053
C37	C	-1.482243	0.422754	-0.000053
C38	C	-1.484055	0.354517	-0.000059
N39	N	-1.483119	-0.111352	0.206493
N40	N	-1.483190	-0.111370	-0.206605
C41	C	-1.568673	-0.060369	0.248208
C42	C	-1.568680	-0.060368	0.331660
C43	C	-1.483138	-0.111355	0.373396
C44	C	-1.397575	-0.162341	0.331675
C45	C	-1.397563	-0.162338	0.248225
C46	C	-1.397620	-0.162357	0.668223
C47	C	-1.397641	-0.162358	0.751679
C48	C	-1.568737	-0.060387	0.751658
C49	C	-1.568726	-0.060383	0.668207
C50	C	-1.483159	-0.111366	0.626494
C51	C	-1.483150	-0.111365	0.536006
C52	C	-1.483151	-0.111361	0.463883
H53	H	-1.190420	-0.252914	-0.000049
H54	H	-1.479821	0.515693	-0.131175
O55	O	-0.793569	-0.382742	-0.000061
C56	C	-0.578328	-0.440562	-0.000146
C57	C	-0.667131	-0.365973	-0.000146
H58	H	-0.476085	-0.427031	-0.000231
H59	H	-0.596464	-0.474948	0.055349
H60	H	-0.596708	-0.474933	-0.055617
H61	H	-0.648804	-0.331541	0.055288
H62	H	-0.648977	-0.331644	-0.055677
H63	H	-0.715142	-0.245310	-0.000082
H64	H	-1.327978	-0.203879	0.785659
O65	O	-1.490280	0.112133	-0.142554
C66	C	-1.382210	0.080021	-0.266109
C67	C	-1.381140	0.123444	-0.186594
H68	H	-1.293993	0.089164	-0.301745
H69	H	-1.383798	0.016792	-0.253755
H70	H	-1.469692	0.102005	-0.301719
H71	H	-1.293671	0.101525	-0.150944
H72	H	-1.379617	0.186667	-0.199004
H73	H	-1.476026	0.658938	-0.131175
O74	O	-1.475736	0.665044	0.142487
C75	C	-1.475979	0.656736	0.285854
C76	C	-1.477188	0.613338	0.206329
H77	H	-1.477179	0.614953	0.337491
H78	H	-1.387131	0.687217	0.289516
H79	H	-1.562831	0.700184	0.289423
H80	H	-1.390396	0.569854	0.202707
H81	H	-1.566092	0.582909	0.202701
H82	H	-1.638386	-0.018868	0.634229
H83	H	-1.486549	0.261552	-0.131176
O84	O	-1.142248	0.022321	0.000108
C85	C	-1.307763	0.099873	0.068793
C86	C	-1.219007	0.025266	0.068728
H87	H	-1.369864	0.102271	0.124258
H88	H	-1.249372	0.150235	0.068835
H89	H	-1.369824	0.102323	0.013294
H90	H	-1.156928	0.022742	0.124217
H91	H	-1.277473	-0.025061	0.068645
H92	H	-1.044071	-0.375953	-0.000063
H93	H	-1.327951	-0.203870	0.634266
H94	H	-1.479769	0.515722	0.131065
O95	O	-0.883766	0.026408	-0.000104
C96	C	-0.695437	0.090679	-0.000090
C97	C	-0.750849	0.013785	-0.000056
H98	H	-0.587967	0.080500	-0.000034
H99	H	-0.728623	0.124237	-0.055582
H100	H	-0.728713	0.124232	0.055384
H101	H	-0.717599	-0.019830	-0.055493
H102	H	-0.717669	-0.019716	0.055473
H103	H	-1.486473	0.261583	0.131056
H104	H	-1.490254	0.118336	0.131062
H105	H	-1.638407	-0.018871	0.785630
O106	O	-1.314599	-0.211843	0.372339
C107	C	-1.238741	-0.257016	0.500905
C108	C	-1.332796	-0.200924	0.454957
H109	H	-1.253402	-0.248197	0.567710
H110	H	-1.254913	-0.317744	0.484543
H111	H	-1.138204	-0.246597	0.484471
H112	H	-1.433369	-0.211274	0.471366
H113	H	-1.316513	-0.140215	0.471323
H114	H	-1.638337	-0.018852	0.214232
O115	O	-1.651923	-0.010824	0.372058
C116	C	-1.821614	0.090332	0.363231
C117	C	-1.727420	0.034253	0.317382
H118	H	-1.882661	0.126802	0.319045
H119	H	-1.884327	0.057330	0.402259
H120	H	-1.767518	0.128418	0.402341
H121	H	-1.781414	-0.003847	0.278229
H122	H	-1.664709	0.067302	0.278404
O123	O	-1.314411	-0.211938	0.207824
C124	C	-1.144652	-0.313052	0.216646
C125	C	-1.238779	-0.256934	0.262498
H126	H	-1.083460	-0.349436	0.260830
H127	H	-1.198677	-0.351217	0.177582
H128	H	-1.082073	-0.280006	0.177572
H129	H	-1.301381	-0.289919	0.301615
H130	H	-1.184675	-0.218770	0.301512
