data_functionalizedCrystal
_audit_creation_method	'MofGen! by Chris Wilmer'
_symmetry_space_group_name_H-M	'P1'
_symmetry_Int_Tables_number	1
_symmetry_cell_setting	triclinic
loop_
_symmetry_equiv_pos_as_xyz
  x,y,z
_cell_length_a	12.594516
_cell_length_b	12.759401
_cell_length_c	12.759393
_cell_angle_alpha	90.020938
_cell_angle_beta	89.971950
_cell_angle_gamma	89.982423
loop_
_atom_site_label
_atom_site_type_symbol
_atom_site_fract_x
_atom_site_fract_y
_atom_site_fract_z
Zn1	Zn	-0.423647	-1.606257	-0.594038
Zn2	Zn	-0.601663	-1.606143	-0.418366
Zn3	Zn	-0.423704	-1.430555	-0.418373
Zn4	Zn	-0.601589	-1.430543	-0.594003
O5	O	-0.512651	-1.518375	-0.506195
O6	O	-0.447269	-1.753263	-0.570746
O7	O	-0.578111	-1.582809	-0.271345
O8	O	-0.274751	-1.453915	-0.441693
O9	O	-0.578056	-1.753179	-0.441680
O10	O	-0.274709	-1.583002	-0.570754
O11	O	-0.447365	-1.453805	-0.271351
O12	O	-0.447293	-1.283533	-0.441659
O13	O	-0.577930	-1.453894	-0.741029
O14	O	-0.577985	-1.283524	-0.570694
O15	O	-0.447197	-1.582990	-0.741054
O16	O	-0.750599	-1.582797	-0.441646
O17	O	-0.750545	-1.453784	-0.570686
C18	C	-0.512638	-1.245407	-0.506174
C19	C	-0.512658	-1.128631	-0.506190
C20	C	-0.789192	-1.518306	-0.506185
C21	C	-0.907497	-1.518372	-0.506215
C22	C	-0.512549	-1.518453	-0.780228
C23	C	-0.512505	-1.518487	-0.897005
C24	C	-0.976759	-1.448195	-0.576351
C25	C	-1.047629	-1.422594	-0.480484
C26	C	-1.047427	-1.544069	-0.602099
C27	C	-0.976808	-1.492721	-0.410297
C28	C	-0.976600	-1.614240	-0.531977
C29	C	-1.047438	-1.588675	-0.436044
C30	C	-0.235030	-1.518472	-0.506228
C31	C	-0.116725	-1.518514	-0.506242
C32	C	-0.512665	-1.792408	-0.506216
C33	C	-0.512671	-1.909184	-0.506226
C34	C	-0.580812	-1.073791	-0.573272
C35	C	-0.580817	-0.964067	-0.573293
C36	C	-0.444509	-0.964031	-0.439140
C37	C	-0.444500	-1.073753	-0.439125
C38	C	-0.619008	-0.814170	-0.697155
C39	C	-0.687180	-0.759328	-0.764229
C40	C	-0.791053	-0.794923	-0.780181
C41	C	-0.826776	-0.885359	-0.729045
C42	C	-0.758611	-0.940197	-0.661964
C43	C	-0.654723	-0.904603	-0.646031
C44	C	-0.406319	-1.223652	-0.315262
C45	C	-0.338158	-1.278491	-0.248175
C46	C	-0.234283	-1.242898	-0.232212
C47	C	-0.198564	-1.152458	-0.283330
C48	C	-0.266725	-1.097619	-0.350417
C49	C	-0.370598	-1.133220	-0.366381
C50	C	-0.444422	-1.585712	-0.951882
C51	C	-0.444376	-1.585730	-1.061606
C52	C	-0.580506	-1.451294	-1.061567
C53	C	-0.580546	-1.451272	-0.951844
C54	C	-0.318796	-1.623345	-1.211579
C55	C	-0.250722	-1.690586	-1.266460
C56	C	-0.234401	-1.793100	-1.230868
C57	C	-0.286169	-1.828392	-1.140397
C58	C	-0.354251	-1.761156	-1.085522
C59	C	-0.370552	-1.658628	-1.121112
C60	C	-0.706127	-1.413668	-0.801870
C61	C	-0.774215	-1.346436	-0.746992
C62	C	-0.790547	-1.243921	-0.782582
C63	C	-0.738798	-1.208632	-0.873057
C64	C	-0.670709	-1.275864	-0.927934
C65	C	-0.654375	-1.378378	-0.892337
C66	C	-0.512676	-1.518357	-0.233228
C67	C	-0.512420	-1.518527	-0.116451
H68	H	-0.945724	-1.388743	-0.635576
Br69	Br	-0.340925	-1.484207	-1.259878
H70	H	-1.078851	-1.341587	-0.458716
H71	H	-0.846000	-1.189186	-0.737897
H72	H	-0.945916	-1.470950	-0.329198
H73	H	-1.078276	-1.648082	-0.376676
H74	H	-0.945381	-1.695229	-0.553791
Br75	Br	-1.099139	-1.580197	-0.737228
Br76	Br	-0.844462	-1.394334	-0.624213
H77	H	-0.911365	-0.914327	-0.742030
H78	H	-0.636308	-1.118469	-0.627883
H79	H	-0.628573	-1.247123	-1.001604
Br80	Br	-0.478023	-0.765870	-0.675531
Br81	Br	-0.807082	-1.062921	-0.592563
H82	H	-0.846558	-0.750262	-0.834795
Br83	Br	-0.683925	-1.552786	-0.753535
Br84	Br	-0.638700	-0.636599	-0.833628
H85	H	-0.389018	-0.919337	-0.384537
H86	H	-0.237630	-1.023983	-0.392047
Br87	Br	-0.057591	-1.104138	-0.261656
Br88	Br	-0.141785	-1.317312	-0.141145
H89	H	-0.208573	-1.661842	-1.340122
H90	H	-0.635905	-1.396572	-1.106230
H91	H	-0.367250	-1.352132	-0.206551
H92	H	-0.490900	-1.252648	-0.328263
H93	H	-0.389016	-1.640440	-0.907235
Br94	Br	-0.760967	-1.069503	-0.921369
Br95	Br	-0.424508	-1.809042	-0.962749
Br96	Br	-0.264034	-1.967533	-1.092111
Br97	Br	-0.142019	-1.884356	-1.305354
