data_functionalizedCrystal
_audit_creation_method	'MofGen! by Chris Wilmer'
_symmetry_space_group_name_H-M	'P1'
_symmetry_Int_Tables_number	1
_symmetry_cell_setting	triclinic
loop_
_symmetry_equiv_pos_as_xyz
  x,y,z
_cell_length_a	31.640172
_cell_length_b	14.446369
_cell_length_c	14.446369
_cell_angle_alpha	60.000250
_cell_angle_beta	90.005514
_cell_angle_gamma	59.999358
loop_
_atom_site_label
_atom_site_type_symbol
_atom_site_fract_x
_atom_site_fract_y
_atom_site_fract_z
Zr1	Zr	0.407186	1.013123	-0.121401
O2	O	0.339697	1.206252	-0.269231
O3	O	0.427875	0.820000	-0.076077
O4	O	0.427875	1.013109	-0.269196
O5	O	0.339696	1.013152	0.076217
O6	O	0.497433	1.013090	-0.269176
O7	O	0.339696	1.013144	-0.076112
O8	O	0.497431	0.667654	0.076279
O9	O	0.339698	1.358588	-0.269238
O10	O	0.488608	0.899417	-0.056739
O11	O	0.436699	0.899438	0.056927
O12	O	0.436700	1.126798	-0.170446
O13	O	0.384790	1.126819	-0.056780
Zr14	Zr	0.518121	1.013105	0.121578
Zr15	Zr	0.518122	1.013092	-0.121369
Zr16	Zr	0.407186	1.013136	0.121546
Zr17	Zr	0.407187	1.256081	-0.121412
Zr18	Zr	0.518120	0.770147	0.121589
O19	O	0.497433	1.206228	0.076254
O20	O	0.497433	1.206209	-0.269185
O21	O	0.339697	1.206271	0.076208
O22	O	0.585610	0.819976	0.269408
O23	O	0.585610	0.819957	-0.076031
O24	O	0.427874	0.820019	0.269362
O25	O	0.585611	1.013076	-0.076040
O26	O	0.497432	1.013119	0.269373
O27	O	0.427875	1.013138	0.269353
O28	O	0.585611	1.013084	0.076289
O29	O	0.427877	1.358564	-0.269212
O30	O	0.497431	0.667664	0.269389
O31	O	0.585610	0.667640	0.269415
O32	O	0.585610	0.667629	0.076305
O33	O	0.339698	1.358599	-0.076128
O34	O	0.427877	1.358574	-0.076102
O35	O	0.488608	0.899430	0.170623
O36	O	0.540518	0.899409	0.056957
O37	O	0.488609	1.126790	-0.056750
O38	O	0.436699	1.126811	0.056916
C39	C	0.462653	0.709211	0.000102
C40	C	0.462652	0.606069	0.000107
C41	C	0.430070	0.459072	0.072125
C42	C	0.429892	0.566692	0.071834
C43	C	0.438769	0.655065	-0.123435
C44	C	0.438524	0.547832	-0.123061
C45	C	0.519141	0.372598	0.050569
C46	C	0.519058	0.478749	0.053089
C47	C	0.323891	1.013152	0.000048
C48	C	0.276796	1.013165	0.000034
C49	C	0.011885	0.894411	0.059465
C50	C	-0.165100	0.894388	0.059488
O51	O	-0.164942	0.793446	0.110007
N52	N	-0.214325	1.013078	0.000132
C53	C	-0.219304	1.131782	-0.059227
O54	O	-0.265234	1.232734	-0.109702
C55	C	-0.042319	1.131803	-0.059242
C56	C	0.006906	1.013106	0.000108
C57	C	0.061108	0.775723	0.118811
C58	C	0.105351	0.775730	0.118800
C59	C	0.100372	0.894425	0.059443
C60	C	0.051149	1.013113	0.000097
C61	C	-0.047298	1.250506	-0.118594
C62	C	-0.003047	1.250500	-0.118590
C63	C	0.046178	1.131803	-0.059240
C64	C	0.090413	1.131814	-0.059272
N65	N	0.139639	1.013124	0.000084
C66	C	0.144618	0.894430	0.059441
C67	C	-0.312221	1.131762	-0.059216
C68	C	-0.356467	1.131757	-0.059214
C69	C	-0.302260	0.894363	0.059502
C70	C	-0.258014	0.894370	0.059493
C71	C	-0.262996	1.013073	0.000139
C72	C	0.237530	0.894453	0.059412
C73	C	0.281775	0.894471	0.059392
C74	C	0.227564	1.131864	-0.059319
C75	C	0.183323	1.131847	-0.059304
C76	C	0.188310	1.013131	0.000070
O77	O	0.090294	1.232704	-0.109754
O78	O	0.190552	0.793493	0.109929
C79	C	-0.032358	0.894404	0.059476
C80	C	-0.081581	1.013092	0.000130
C81	C	-0.086560	1.131787	-0.059227
C82	C	-0.125827	1.013087	0.000132
C83	C	-0.120847	0.894392	0.059490
C84	C	-0.071622	0.775703	0.118845
C85	C	-0.027379	0.775710	0.118834
C86	C	-0.135786	1.250476	-0.118582
C87	C	-0.180027	1.250460	-0.118567
C88	C	-0.175048	1.131765	-0.059210
C89	C	0.601417	1.013076	0.000129
C90	C	0.648512	1.013063	0.000143
C91	C	0.462654	1.013097	-0.303801
C92	C	0.462654	1.013092	-0.406938
C93	C	0.462655	1.317017	0.000075
C94	C	0.462656	1.420159	0.000070
C95	C	0.495556	0.869698	-0.481904
C96	C	0.495413	0.869601	-0.374576
C97	C	0.406251	1.084335	-0.481518
C98	C	0.406431	1.083425	-0.588376
C99	C	0.485700	1.086356	-0.589927
C100	C	0.486841	1.083653	-0.481255
C101	C	0.462654	1.013131	0.303978
C102	C	0.462654	1.013136	0.407115
C103	C	0.601416	0.709172	0.000143
C104	C	0.648510	0.606017	0.000161
C105	C	0.462652	0.709227	0.303992
C106	C	0.462652	0.606091	0.407134
C107	C	0.601416	0.709189	0.304032
C108	C	0.648510	0.606040	0.407188
C109	C	0.323892	1.317039	-0.303855
C110	C	0.276797	1.420188	-0.407011
C111	C	0.323892	1.317056	0.000034
C112	C	0.276797	1.420211	0.000016
C113	C	0.462655	1.317001	-0.303815
C114	C	0.462656	1.420137	-0.406957
C115	C	0.643530	0.557579	-0.059188
C116	C	0.687776	0.460667	-0.059194
C117	C	0.737002	0.412189	0.000158
C118	C	0.741981	0.460637	0.059510
C119	C	0.697736	0.557554	0.059508
C120	C	0.697727	0.557589	0.396299
C121	C	0.741982	0.460683	0.493215
C122	C	0.737018	0.412222	0.601020
C123	C	0.687796	0.460683	0.611907
C124	C	0.643543	0.557594	0.514992
C125	C	0.227580	1.468651	-0.396122
C126	C	0.183326	1.565587	-0.493038
C127	C	0.188289	1.614053	-0.600843
C128	C	0.237512	1.565586	-0.611730
C129	C	0.281765	1.468658	-0.514815
C130	C	0.281777	1.468659	0.059355
C131	C	0.237531	1.565598	0.059334
C132	C	0.188305	1.614079	-0.000021
C133	C	0.183326	1.565627	-0.059368
C134	C	0.227572	1.468696	-0.059353
C135	C	0.429754	0.459786	0.482113
C136	C	0.429893	0.566706	0.374780
C137	C	0.519056	0.479223	0.481710
C138	C	0.518879	0.371848	0.588573
C139	C	0.439611	0.546842	0.590128
C140	C	0.438466	0.655312	0.481451
H141	H	0.445913	0.529982	0.162805
Cl142	Cl	0.221314	1.281072	-0.133917
H143	H	0.603452	0.597049	-0.107534
H144	H	0.701779	0.597031	0.308527
Cl145	Cl	-0.009315	1.399737	-0.193209
H146	H	0.223510	1.429252	-0.107671
H147	H	0.152282	1.693006	-0.000025
H148	H	0.537636	0.440657	0.430110
Cl149	Cl	0.375208	0.797592	-0.186278
Cl150	Cl	0.681565	0.399745	0.747443
Cl151	Cl	0.343636	1.407736	-0.528525
Cl152	Cl	0.476430	0.508562	0.710906
H153	H	0.460726	0.525854	-0.179665
H154	H	0.143241	1.605115	-0.107694
H155	H	0.773026	0.333272	0.000151
Cl156	Cl	0.803855	0.399775	0.479502
H157	H	0.773056	0.333311	0.679926
H158	H	0.544635	0.501464	0.508947
Cl159	Cl	0.803869	0.399674	0.134124
H160	H	0.223529	1.429196	-0.308350
Cl161	Cl	0.121453	1.626491	-0.479325
H162	H	0.445880	0.529233	0.321001
H163	H	0.398704	0.586426	0.594231
H164	H	0.152251	1.692977	-0.679749
Cl165	Cl	0.704006	0.618427	0.134136
Cl166	Cl	0.559539	0.783287	-0.290747
H167	H	0.603469	0.597030	0.523874
H168	H	0.396913	0.745816	0.430016
H169	H	0.241547	1.605059	-0.699517
H170	H	0.321855	1.429193	0.107697
H171	H	0.545382	0.500241	0.006068
Cl172	Cl	0.243803	1.626484	0.133953
Cl173	Cl	0.365462	0.517295	0.478483
Cl174	Cl	0.558791	0.325576	0.709910
Cl175	Cl	0.365767	0.704671	0.290961
H176	H	0.396959	0.588539	-0.163486
H177	H	0.459941	0.687433	0.506979
Cl178	Cl	0.547362	0.231722	0.588166
Cl179	Cl	0.454680	0.321876	0.212941
Cl180	Cl	0.366130	0.514210	0.018581
H181	H	0.445591	0.370115	0.481087
H182	H	0.461363	0.683841	-0.179443
Cl183	Cl	0.549938	0.227905	0.188888
Cl184	Cl	0.365565	0.703822	0.017768
H185	H	0.536900	0.439148	0.144103
H186	H	0.543534	0.346613	-0.001664
Cl187	Cl	0.243806	0.745208	0.134051
Cl188	Cl	0.167230	0.626502	0.193425
Cl189	Cl	0.343658	0.745240	0.134006
Cl190	Cl	-0.142056	1.399708	-0.193212
Cl191	Cl	0.067381	0.626486	0.193445
H192	H	-0.316286	1.228430	-0.107557
H193	H	-0.217935	0.797716	0.107831
H194	H	-0.396545	1.228413	-0.107558
Cl195	Cl	-0.296009	0.745148	0.134123
H196	H	-0.087372	1.347162	-0.166921
H197	H	0.143241	1.228500	-0.107647
H198	H	-0.067574	0.679057	0.167169
Cl199	Cl	0.034500	0.626481	0.193452
Cl200	Cl	-0.241908	1.399696	-0.193189
H201	H	0.537197	0.813393	-0.479551
H202	H	0.461841	1.192033	-0.668137
H203	H	0.479717	0.813688	-0.480873
Cl204	Cl	0.470695	0.782858	-0.291578
H205	H	0.380582	1.188664	-0.666968
Cl206	Cl	0.377947	1.005279	-0.587969
H207	H	0.380671	1.189840	-0.508761
H208	H	0.683712	0.421233	-0.107525
Cl209	Cl	0.377561	1.007963	-0.401858
Cl210	Cl	0.548858	1.015475	-0.596260
Cl211	Cl	0.550998	1.003456	-0.401844
H212	H	0.465368	1.188336	-0.506781
