data_functionalizedCrystal
_audit_creation_method	'MofGen! by Chris Wilmer'
_symmetry_space_group_name_H-M	'P1'
_symmetry_Int_Tables_number	1
_symmetry_cell_setting	triclinic
loop_
_symmetry_equiv_pos_as_xyz
  x,y,z
_cell_length_a	27.732048
_cell_length_b	10.540539
_cell_length_c	9.616153
_cell_angle_alpha	89.999862
_cell_angle_beta	90.011429
_cell_angle_gamma	96.415927
loop_
_atom_site_label
_atom_site_type_symbol
_atom_site_fract_x
_atom_site_fract_y
_atom_site_fract_z
O1	O	0.068115	-1.682925	0.115597
O2	O	0.074533	-1.313233	0.115616
O3	O	0.001000	-1.509561	0.115579
O4	O	0.141649	-1.486597	0.115634
O5	O	0.000994	-1.509553	-0.115712
O6	O	0.074528	-1.313226	-0.115676
O7	O	0.068110	-1.682917	-0.115694
Zn8	Zn	0.071318	-1.498070	-0.152407
Zn9	Zn	0.071325	-1.498080	0.152329
O10	O	0.141643	-1.486590	-0.115658
C11	C	-0.017013	-1.509075	-0.000070
C12	C	-0.070677	-1.507623	-0.000081
C13	C	0.074049	-1.265947	-0.000028
C14	C	0.072609	-1.125062	-0.000022
C15	C	0.068594	-1.730203	-0.000048
C16	C	0.070034	-1.871089	-0.000044
C17	C	-0.408819	-1.614502	-0.000015
C18	C	-0.610513	-1.609117	0.000004
O19	O	-0.641153	-1.706850	0.000060
N20	N	-0.630369	-1.492703	0.000009
C21	C	-0.599799	-1.377627	0.000018
O22	O	-0.621317	-1.278486	0.000036
C23	C	-0.398107	-1.383013	0.000008
C24	C	-0.378253	-1.499435	-0.000011
C25	C	-0.388965	-1.730915	-0.000033
C26	C	-0.338544	-1.732260	-0.000045
C27	C	-0.307978	-1.617193	-0.000040
C28	C	-0.327832	-1.500780	-0.000023
C29	C	-0.367538	-1.267939	0.000027
C30	C	-0.317112	-1.269296	0.000028
C31	C	-0.297258	-1.385718	0.000009
C32	C	-0.246846	-1.387058	-0.000031
N33	N	-0.226989	-1.503472	-0.000036
C34	C	-0.257555	-1.618540	-0.000040
C35	C	-0.705691	-1.374807	0.000020
C36	C	-0.756114	-1.373460	0.000020
C37	C	-0.766824	-1.604950	0.000009
C38	C	-0.716400	-1.606296	-0.000001
C39	C	-0.685834	-1.491221	0.000015
C40	C	-0.151668	-1.621356	-0.000068
C41	C	-0.101243	-1.622691	-0.000086
C42	C	-0.090538	-1.391201	-0.000068
C43	C	-0.140959	-1.389865	-0.000057
C44	C	-0.171523	-1.504953	-0.000052
O45	O	-0.216177	-1.289377	-0.000071
O46	O	-0.236029	-1.717666	-0.000028
C47	C	-0.459239	-1.613157	-0.000003
C48	C	-0.479094	-1.496745	0.000014
C49	C	-0.448528	-1.381678	0.000019
C50	C	-0.529517	-1.495398	0.000014
C51	C	-0.560083	-1.610465	0.000009
C52	C	-0.540226	-1.726879	0.000005
C53	C	-0.489806	-1.728224	-0.000008
C54	C	-0.468384	-1.265264	0.000023
C55	C	-0.518805	-1.263928	0.000034
C56	C	-0.549371	-1.378995	0.000030
C57	C	0.159656	-1.487075	-0.000005
C58	C	0.213320	-1.488527	0.000015
N59	N	0.071313	-1.498073	-0.360382
C60	C	0.017434	-0.944031	-0.000583
C61	C	0.018894	-1.090586	-0.000047
C62	C	0.098462	-1.062271	0.132062
C63	C	0.096629	-0.915806	0.132157
C64	C	0.097716	-0.915261	-0.130864
C65	C	0.098211	-1.062222	-0.132595
C66	C	0.032114	-1.603476	-0.580728
C67	C	0.031964	-1.603202	-0.419561
C68	C	0.059841	-1.365866	-0.418911
C69	C	0.059567	-1.366495	-0.580129
C70	C	0.122122	-1.523709	-0.580238
C71	C	0.121790	-1.526718	-0.419010
N72	N	0.071326	-1.498088	0.360303
H73	H	-0.085081	-1.717499	-0.000105
Cl74	Cl	-0.015333	-0.901308	-0.146833
H75	H	0.087017	-1.285768	-0.619138
H76	H	-0.003695	-0.914744	0.093599
H77	H	-0.176549	-1.715071	-0.000059
Cl78	Cl	0.042606	-1.755778	-0.640562
H79	H	-0.322384	-1.827062	-0.000055
Cl80	Cl	0.157617	-0.839747	-0.132221
H81	H	-0.292227	-1.175585	0.000043
H82	H	-0.005724	-1.586933	-0.381021
H83	H	0.151308	-1.446847	-0.618378
H84	H	0.038863	-1.701509	-0.379988
H85	H	0.080330	-0.884467	-0.230982
H86	H	0.087621	-1.285593	-0.380579
Cl87	Cl	-0.012590	-1.156374	0.146616
H88	H	-0.413847	-1.824622	-0.000031
Cl89	Cl	-0.392484	-1.121570	0.000059
H90	H	-0.680808	-1.281093	0.000033
Cl91	Cl	-0.691446	-1.752660	-0.000023
Cl92	Cl	-0.805259	-1.749605	0.000010
Cl93	Cl	-0.165918	-1.243505	-0.000060
Cl94	Cl	0.069002	-1.126569	-0.283460
H95	H	0.077526	-0.888428	0.230876
H96	H	-0.005359	-1.587453	-0.621272
H97	H	-0.473646	-1.823027	-0.000022
Cl98	Cl	0.135219	-1.676859	-0.359935
Cl99	Cl	0.002350	-1.331398	-0.638234
H100	H	0.023200	-1.342546	-0.378561
H101	H	0.135261	-0.866159	0.138167
Cl102	Cl	-0.012515	-1.157744	-0.146229
Cl103	Cl	0.169006	-1.415765	-0.356815
Cl104	Cl	-0.781067	-1.227095	0.000017
Cl105	Cl	-0.052103	-1.246553	-0.000059
Cl106	Cl	-0.429965	-1.120592	0.000032
Cl107	Cl	0.138970	-1.669299	-0.642978
Cl108	Cl	-0.578662	-1.871533	-0.000007
H109	H	0.137373	-1.084747	-0.140555
H110	H	0.137910	-1.082911	0.136991
Cl111	Cl	0.070742	-1.129225	0.283811
Cl112	Cl	-0.543757	-1.117554	0.000051
