data_functionalizedCrystal
_audit_creation_method	'MofGen! by Chris Wilmer'
_symmetry_space_group_name_H-M	'P1'
_symmetry_Int_Tables_number	1
_symmetry_cell_setting	triclinic
loop_
_symmetry_equiv_pos_as_xyz
  x,y,z
_cell_length_a	11.169417
_cell_length_b	12.759399
_cell_length_c	11.169406
_cell_angle_alpha	89.950507
_cell_angle_beta	89.969003
_cell_angle_gamma	90.015995
loop_
_atom_site_label
_atom_site_type_symbol
_atom_site_fract_x
_atom_site_fract_y
_atom_site_fract_z
Zn1	Zn	1.835055	-0.417998	-0.678527
Zn2	Zn	1.834888	-0.593771	-0.477838
Zn3	Zn	1.634302	-0.418109	-0.477862
Zn4	Zn	1.634331	-0.593638	-0.678483
O5	O	1.734644	-0.505879	-0.578177
O6	O	2.002982	-0.441324	-0.651914
O7	O	1.808198	-0.570571	-0.309891
O8	O	1.660989	-0.271073	-0.504509
O9	O	2.002860	-0.570463	-0.504468
O10	O	1.808482	-0.270992	-0.651938
O11	O	1.660828	-0.441513	-0.309909
O12	O	1.466356	-0.441384	-0.504466
O13	O	1.661040	-0.570237	-0.846439
O14	O	1.466378	-0.570345	-0.651861
O15	O	1.808511	-0.441195	-0.846471
O16	O	1.808227	-0.740774	-0.504425
O17	O	1.660879	-0.740677	-0.651838
C18	C	1.422819	-0.505863	-0.578162
C19	C	1.289419	-0.505882	-0.578184
C20	C	1.734570	-0.778846	-0.578150
C21	C	1.734649	-0.895623	-0.578179
C22	C	1.811461	-0.950501	-0.501508
C23	C	1.811538	-1.060225	-0.501548
C24	C	1.657981	-1.060184	-0.654933
C25	C	1.657911	-0.950462	-0.654898
C26	C	1.953190	-1.210114	-0.458835
C27	C	2.029992	-1.264995	-0.382145
C28	C	2.048431	-1.229488	-0.265042
C29	C	1.990053	-1.139101	-0.224604
C30	C	1.913242	-1.084225	-0.301287
C31	C	1.894825	-1.119731	-0.418407
C32	C	1.516256	-0.800571	-0.697599
C33	C	1.439439	-0.745693	-0.774277
C34	C	1.420987	-0.781198	-0.891382
C35	C	1.479345	-0.871588	-0.931816
C36	C	1.556162	-0.926466	-0.855138
C37	C	1.574616	-0.890953	-0.738034
C38	C	2.047686	-0.505896	-0.578194
C39	C	2.181086	-0.505903	-0.578201
C40	C	1.734797	-0.505689	-0.891220
C41	C	1.734863	-0.505608	-1.024620
C42	C	1.734751	-0.231846	-0.578231
C43	C	1.734796	-0.115069	-0.578254
C44	C	1.734560	-0.505992	-0.266353
C45	C	1.734728	-0.505777	-0.132953
H46	H	1.865714	-1.010633	-0.268365
H47	H	1.391928	-0.672088	-0.741349
H48	H	1.873947	-0.905854	-0.439040
H49	H	2.005063	-1.110205	-0.129242
H50	H	2.110967	-1.274180	-0.202601
C51	C	1.337783	-0.721597	-0.974817
C52	C	1.401999	-0.687744	-1.075362
C53	C	1.325405	-0.632837	-1.152254
H54	H	1.305644	-0.662622	-0.934118
H55	H	1.274409	-0.766302	-0.999490
H56	H	1.465350	-0.643041	-1.050689
H57	H	1.434135	-0.746697	-1.116093
H58	H	1.262032	-0.677542	-1.176927
H59	H	1.293270	-0.573868	-1.111545
H60	H	1.368962	-0.609870	-1.220488
C61	C	1.536057	-0.762096	-0.570382
C62	C	1.426605	-0.760820	-0.509238
C63	C	1.444794	-0.725399	-0.392039
H64	H	1.568573	-0.693317	-0.572281
H65	H	1.590115	-0.807732	-0.530448
H66	H	1.372566	-0.715185	-0.549161
H67	H	1.394071	-0.829588	-0.507305
H68	H	1.498852	-0.771035	-0.352105
H69	H	1.477313	-0.656622	-0.393950
H70	H	1.370537	-0.724538	-0.350534
C71	C	1.574466	-1.119590	-0.738149
C72	C	1.455712	-1.092990	-0.711928
C73	C	1.378742	-1.147679	-0.788573
H74	H	1.585340	-1.192813	-0.727267
H75	H	1.591925	-1.101491	-0.818818
H76	H	1.438259	-1.111095	-0.631280
H77	H	1.444800	-1.019776	-0.722818
H78	H	1.396201	-1.129581	-0.869241
H79	H	1.389627	-1.220900	-0.777685
H80	H	1.298160	-1.129632	-0.770800
C81	C	2.093446	-1.363172	-0.425806
C82	C	2.164624	-1.403649	-0.333570
C83	C	2.223079	-1.494097	-0.373733
H84	H	2.142528	-1.346259	-0.492563
H85	H	2.035724	-1.413995	-0.448844
H86	H	2.222338	-1.352837	-0.310549
H87	H	2.115571	-1.420585	-0.266806
H88	H	2.165358	-1.544920	-0.396770
H89	H	2.272155	-1.477175	-0.440490
H90	H	2.271372	-1.521577	-0.311154
C91	C	1.933435	-1.248691	-0.586013
C92	C	2.042907	-1.250032	-0.647120
C93	C	2.024756	-1.285582	-0.764274
H94	H	1.879404	-1.203124	-0.626053
H95	H	1.900912	-1.317479	-0.583990
H96	H	2.075413	-1.181254	-0.649150
H97	H	2.096954	-1.295601	-0.607117
H98	H	1.992233	-1.354371	-0.762250
H99	H	1.970722	-1.240011	-0.804302
H100	H	2.099030	-1.286506	-0.805746
C101	C	1.619702	-1.024470	-0.899176
C102	C	1.691814	-0.999073	-0.997591
C103	C	1.750382	-1.089320	-1.038177
H104	H	1.562079	-1.075315	-0.922339
H105	H	1.668159	-1.052063	-0.836785
H106	H	1.643361	-0.971496	-1.059969
H107	H	1.749459	-0.948242	-0.974458
H108	H	1.798839	-1.116913	-0.975786
H109	H	1.692750	-1.140159	-1.061333
H110	H	1.799325	-1.072099	-1.104948
C111	C	1.459174	-0.910312	-1.058872
C112	C	1.411133	-1.011638	-1.055481
C113	C	1.392515	-1.047337	-1.172501
H114	H	1.533260	-0.911373	-1.100651
H115	H	1.405023	-0.864738	-1.098771
H116	H	1.465282	-1.057201	-1.015599
H117	H	1.337039	-1.010605	-1.013725
H118	H	1.338363	-1.001763	-1.212400
H119	H	1.466605	-1.048392	-1.214271
H120	H	1.359907	-1.116086	-1.170216
