data_functionalizedCrystal
_audit_creation_method	'MofGen! by Chris Wilmer'
_symmetry_space_group_name_H-M	'P1'
_symmetry_Int_Tables_number	1
_symmetry_cell_setting	triclinic
loop_
_symmetry_equiv_pos_as_xyz
  x,y,z
_cell_length_a	21.295418
_cell_length_b	21.295418
_cell_length_c	12.759393
_cell_angle_alpha	90.044954
_cell_angle_beta	89.964936
_cell_angle_gamma	89.953405
loop_
_atom_site_label
_atom_site_type_symbol
_atom_site_fract_x
_atom_site_fract_y
_atom_site_fract_z
Zn1	Zn	-0.250266	-0.962347	-0.594699
Zn2	Zn	-0.355550	-0.962259	-0.419009
Zn3	Zn	-0.250332	-0.857076	-0.418957
Zn4	Zn	-0.355534	-0.857044	-0.594569
O5	O	-0.302920	-0.909681	-0.506809
O6	O	-0.264211	-1.050425	-0.571470
O7	O	-0.341627	-0.948282	-0.271981
O8	O	-0.162234	-0.871091	-0.442303
O9	O	-0.341562	-1.050360	-0.442391
O10	O	-0.162185	-0.948433	-0.571420
O11	O	-0.264323	-0.871005	-0.271943
O12	O	-0.264309	-0.768982	-0.442177
O13	O	-0.341536	-0.871036	-0.741607
O14	O	-0.341600	-0.768958	-0.571198
O15	O	-0.264196	-0.948402	-0.741703
O16	O	-0.443637	-0.948251	-0.442264
O17	O	-0.443626	-0.870950	-0.571248
C18	C	-0.302960	-0.746130	-0.506668
C19	C	-0.302993	-0.676161	-0.506633
C20	C	-0.343293	-0.643299	-0.573710
C21	C	-0.343280	-0.577557	-0.573749
C22	C	-0.302974	-0.544679	-0.506693
C23	C	-0.262665	-0.577549	-0.439611
C24	C	-0.262675	-0.643291	-0.439581
N25	N	-0.298068	-0.441406	-0.414789
N26	N	-0.298063	-0.378954	-0.414820
C27	C	-0.302942	-0.346604	-0.506780
N28	N	-0.307839	-0.379065	-0.598710
N29	N	-0.307848	-0.441522	-0.598678
C30	C	-0.302959	-0.473394	-0.506718
C31	C	-0.343231	-0.242456	-0.573906
C32	C	-0.343214	-0.176713	-0.573947
C33	C	-0.262602	-0.176707	-0.439799
C34	C	-0.262616	-0.242449	-0.439768
C35	C	-0.302933	-0.275320	-0.506819
C36	C	-0.466472	-0.909605	-0.506770
C37	C	-0.536440	-0.909630	-0.506789
C38	C	-1.035819	-0.950032	-0.574175
C39	C	-0.970077	-0.950014	-0.574158
C40	C	-0.937280	-0.909767	-0.506874
C41	C	-0.970230	-0.869548	-0.439583
C42	C	-1.035971	-0.869572	-0.439594
N43	N	-0.834128	-0.854630	-0.498674
N44	N	-0.771677	-0.854609	-0.498670
C45	C	-0.739205	-0.909693	-0.506835
N46	N	-0.771544	-0.964800	-0.515025
N47	N	-0.834001	-0.964821	-0.515035
C48	C	-0.865994	-0.909737	-0.506854
C49	C	-0.634977	-0.949893	-0.574099
C50	C	-0.569233	-0.949876	-0.574075
C51	C	-0.569387	-0.869404	-0.439505
C52	C	-0.635130	-0.869427	-0.439524
C53	C	-0.667921	-0.909671	-0.506826
C54	C	-0.138730	-0.909775	-0.506870
C55	C	-0.068762	-0.909815	-0.506896
C56	C	-0.302857	-0.909725	-0.780842
C57	C	-0.302830	-0.909744	-0.897619
C58	C	-0.302891	-0.073872	-0.506920
C59	C	-0.302906	-0.143840	-0.506891
C60	C	-0.262571	-0.869520	-0.952461
C61	C	-0.262551	-0.869535	-1.062185
C62	C	-0.343052	-0.950003	-1.062216
C63	C	-0.343074	-0.949984	-0.952494
C64	C	-0.302938	-0.909674	-0.233841
C65	C	-0.302788	-0.909777	-0.117065
H66	H	-0.376122	-0.670058	-0.628310
H67	H	-0.229802	-0.269206	-0.385141
H68	H	-0.375817	-0.982766	-1.106908
H69	H	-1.062514	-0.982807	-0.628969
N70	N	-0.219201	-0.678740	-0.367239
H71	H	-0.193661	-0.647939	-0.324768
H72	H	-0.244792	-0.705962	-0.318526
N73	N	-0.934538	-0.993383	-0.646742
H74	H	-0.887915	-0.987258	-0.636525
H75	H	-0.945977	-1.038354	-0.630513
N76	N	-0.386502	-0.993368	-0.893334
H77	H	-0.411990	-1.018865	-0.944745
H78	H	-0.360882	-1.022506	-0.847843
H79	H	-0.376030	-0.149957	-0.628575
N80	N	-0.386748	-0.542101	-0.646101
H81	H	-0.412289	-0.572901	-0.688573
H82	H	-0.415842	-0.514770	-0.603252
N83	N	-0.219199	-0.542090	-0.367276
H84	H	-0.174233	-0.553578	-0.383717
H85	H	-0.225367	-0.495468	-0.377506
N86	N	-0.219122	-0.141256	-0.367480
H87	H	-0.225229	-0.094622	-0.377678
H88	H	-0.228868	-0.152689	-0.292410
H89	H	-0.943523	-0.836779	-0.384798
N90	N	-0.219125	-0.826152	-1.121333
H91	H	-0.225218	-0.832266	-1.199169
H92	H	-0.228937	-0.781186	-1.102106
N93	N	-0.534019	-0.826000	-0.366928
H94	H	-0.506758	-0.796803	-0.409548
H95	H	-0.564906	-0.800567	-0.324323
N96	N	-1.071507	-0.826195	-0.367025
H97	H	-1.040757	-0.800696	-0.324393
H98	H	-1.098798	-0.797057	-0.409729
N99	N	-0.670346	-0.993302	-0.646679
H100	H	-0.658861	-1.038280	-0.630457
H101	H	-0.716981	-0.987159	-0.636451
N102	N	-0.386711	-0.277916	-0.646224
H103	H	-0.412237	-0.247119	-0.688731
H104	H	-0.361126	-0.305251	-0.694904
N105	N	-0.533699	-0.993257	-0.646638
H106	H	-0.564450	-1.018751	-0.689274
H107	H	-0.506430	-0.967603	-0.695188
N108	N	-0.670660	-0.826045	-0.366960
H109	H	-0.659265	-0.781059	-0.383173
H110	H	-0.717272	-0.832219	-0.377205
N111	N	-0.219165	-0.826122	-0.893272
H112	H	-0.193659	-0.800642	-0.944668
H113	H	-0.244802	-0.796967	-0.847708
