data_functionalizedCrystal
_audit_creation_method	'MofGen! by Chris Wilmer'
_symmetry_space_group_name_H-M	'P1'
_symmetry_Int_Tables_number	1
_symmetry_cell_setting	triclinic
loop_
_symmetry_equiv_pos_as_xyz
  x,y,z
_cell_length_a	10.908891
_cell_length_b	9.482900
_cell_length_c	10.967870
_cell_angle_alpha	92.506468
_cell_angle_beta	72.684743
_cell_angle_gamma	96.961853
loop_
_atom_site_label
_atom_site_type_symbol
_atom_site_fract_x
_atom_site_fract_y
_atom_site_fract_z
O1	O	-1.713507	-0.069285	0.205943
O2	O	-1.344308	-0.092521	0.113219
O3	O	-1.530329	-0.037086	0.334445
O4	O	-1.527486	-0.124720	-0.015283
O5	O	-1.492552	0.193409	0.289361
O6	O	-1.306531	0.137974	0.068135
O7	O	-1.675730	0.161210	0.160858
Cu8	Cu	-1.487681	0.170638	0.110380
Cu9	Cu	-1.532357	-0.101949	0.163698
O10	O	-1.489709	0.105775	-0.060368
C11	C	-1.278014	0.020555	0.082011
C12	C	-1.136760	0.014087	0.056205
C13	C	-1.083014	0.037681	0.150364
C14	C	-0.937020	0.030998	0.123695
N15	N	-1.456267	0.362362	0.072882
C16	C	-1.508379	0.089202	0.355973
C17	C	-1.499240	0.122096	0.487285
C18	C	-0.742024	0.048132	0.192065
C19	C	-0.883278	0.054595	0.217867
N20	N	-1.563780	-0.293670	0.201207
C21	C	-1.523082	0.454547	0.152642
C22	C	-1.496955	0.614145	0.121435
C23	C	-1.514736	0.017357	0.569178
C24	C	-1.505291	0.051353	0.704896
C25	C	-1.511657	-0.020511	0.918104
C26	C	-1.520790	-0.053401	0.786789
H27	H	-1.074692	-0.011066	-0.044151
F28	F	-1.664061	0.655032	0.320513
H29	H	-1.541035	-0.168250	0.756427
F30	F	-0.855904	-0.001885	-0.007488
F31	F	-1.396891	0.665409	0.001980
H32	H	-0.945343	0.079734	0.318234
H33	H	-1.599624	0.415321	0.244035
F34	F	-1.356208	0.413633	-0.046568
H35	H	-1.485023	0.166199	0.735253
H36	H	-1.534989	-0.097482	0.538811
H37	H	-1.145084	0.062822	0.250723
F38	F	-1.472750	0.272202	0.526965
