data_functionalizedCrystal
_audit_creation_method	'MofGen! by Chris Wilmer'
_symmetry_space_group_name_H-M	'P1'
_symmetry_Int_Tables_number	1
_symmetry_cell_setting	triclinic
loop_
_symmetry_equiv_pos_as_xyz
  x,y,z
_cell_length_a	12.645331
_cell_length_b	16.625546
_cell_length_c	16.625539
_cell_angle_alpha	90.028532
_cell_angle_beta	90.017266
_cell_angle_gamma	90.021447
loop_
_atom_site_label
_atom_site_type_symbol
_atom_site_fract_x
_atom_site_fract_y
_atom_site_fract_z
Zn1	Zn	1.620639	-0.321037	0.455902
Zn2	Zn	1.620523	-0.455876	0.321064
Zn3	Zn	1.443371	-0.321058	0.321082
Zn4	Zn	1.443321	-0.455829	0.455854
O5	O	1.531964	-0.388450	0.388476
O6	O	1.768971	-0.338934	0.438028
O7	O	1.596996	-0.438020	0.208234
O8	O	1.466955	-0.208223	0.338994
O9	O	1.768886	-0.438000	0.338964
O10	O	1.597194	-0.208207	0.438046
O11	O	1.466843	-0.338971	0.208247
O12	O	1.295017	-0.338925	0.338947
O13	O	1.466871	-0.437920	0.568693
O14	O	1.294980	-0.437941	0.437963
O15	O	1.597146	-0.338889	0.568728
O16	O	1.596947	-0.568702	0.338917
O17	O	1.466758	-0.568668	0.437946
C18	C	1.531863	-0.597941	0.388442
C19	C	1.531917	-0.687562	0.388454
C20	C	1.256534	-0.388431	0.388452
C21	C	1.138704	-0.388442	0.388461
C22	C	1.532102	-1.015738	0.388538
C23	C	1.532047	-0.924429	0.388517
C24	C	1.532009	-0.851653	0.388496
C25	C	1.531956	-0.760338	0.388476
C26	C	0.971127	-0.325865	0.326514
C27	C	1.093687	-0.326027	0.326241
C28	C	1.094177	-0.473380	0.365243
C29	C	0.971579	-0.473038	0.364820
C30	C	0.971546	-0.366890	0.473867
C31	C	1.094152	-0.364992	0.473392
C32	C	1.808469	-0.388470	0.388499
C33	C	1.926299	-0.388478	0.388510
C34	C	1.532016	-0.388397	0.598785
C35	C	1.532038	-0.388374	0.688406
C36	C	1.532093	-0.178141	0.388527
C37	C	1.532148	-0.088520	0.388549
C38	C	1.531973	-0.388445	0.178985
C39	C	1.532156	-0.388240	0.089364
C40	C	1.532055	-0.388356	0.761188
C41	C	1.532080	-0.388326	0.852497
C42	C	1.532105	-0.388298	0.925273
C43	C	1.532131	-0.388269	1.016588
H44	H	0.941668	-0.262691	0.340912
H45	H	0.940654	-0.306034	0.494981
H46	H	1.124799	-0.407270	0.522055
N47	N	1.130670	-0.286585	0.495371
N48	N	1.184945	-0.277335	0.557543
H49	H	1.210738	-0.221959	0.573065
H50	H	1.122971	-0.340295	0.262988
H51	H	0.940286	-0.339975	0.263633
H52	H	0.942939	-0.491346	0.302420
N53	N	0.934385	-0.533548	0.418992
N54	N	0.998975	-0.575900	0.456985
H55	H	0.972713	-0.618638	0.495239
N56	N	1.130757	-0.533463	0.420115
N57	N	1.190196	-0.514306	0.477081
H58	H	1.216032	-0.556738	0.515837
N59	N	1.132645	-0.496736	0.287802
N60	N	1.192840	-0.450974	0.249579
H61	H	1.220007	-0.467464	0.194884
N62	N	0.935198	-0.424117	0.531804
N63	N	0.876227	-0.480578	0.510434
H64	H	0.850559	-0.521002	0.551345
H65	H	1.123793	-0.263042	0.340795
