data_functionalizedCrystal
_audit_creation_method	'MofGen! by Chris Wilmer'
_symmetry_space_group_name_H-M	'P1'
_symmetry_Int_Tables_number	1
_symmetry_cell_setting	triclinic
loop_
_symmetry_equiv_pos_as_xyz
  x,y,z
_cell_length_a	25.639242
_cell_length_b	25.639242
_cell_length_c	25.639233
_cell_angle_alpha	90.006304
_cell_angle_beta	90.022166
_cell_angle_gamma	90.001714
loop_
_atom_site_label
_atom_site_type_symbol
_atom_site_fract_x
_atom_site_fract_y
_atom_site_fract_z
Zn1	Zn	0.799343	-0.208277	0.295788
Zn2	Zn	1.049343	0.041723	0.545788
Zn3	Zn	1.299343	0.291723	0.795788
Zn4	Zn	1.549343	0.541723	1.045788
Zn5	Zn	0.799316	-0.295695	0.208371
Zn6	Zn	1.049316	-0.045695	0.458371
Zn7	Zn	1.299316	0.204305	0.708371
Zn8	Zn	1.549316	0.454305	0.958371
Zn9	Zn	0.711920	-0.208269	0.208352
Zn10	Zn	0.961920	0.041731	0.458352
Zn11	Zn	1.211920	0.291731	0.708352
Zn12	Zn	1.461920	0.541731	0.958352
Zn13	Zn	0.711914	-0.295676	0.295761
Zn14	Zn	0.961914	-0.045676	0.545761
Zn15	Zn	1.211914	0.204324	0.795761
Zn16	Zn	1.461914	0.454324	1.045761
O17	O	0.755623	-0.251979	0.252068
O18	O	1.005623	-0.001979	0.502068
O19	O	1.255623	0.248021	0.752068
O20	O	1.505623	0.498021	1.002068
O21	O	0.872505	-0.219884	0.284211
O22	O	1.122505	0.030116	0.534211
O23	O	1.372505	0.280116	0.784211
O24	O	1.622505	0.530116	1.034211
O25	O	0.787714	-0.284103	0.135203
O26	O	1.037714	-0.034103	0.385203
O27	O	1.287714	0.215897	0.635203
O28	O	1.537714	0.465897	0.885203
O29	O	0.723530	-0.135105	0.219953
O30	O	0.973530	0.114895	0.469953
O31	O	1.223530	0.364895	0.719953
O32	O	1.473530	0.614895	0.969953
O33	O	0.872485	-0.284110	0.219986
O34	O	1.122485	-0.034110	0.469986
O35	O	1.372485	0.215890	0.719986
O36	O	1.622485	0.465890	0.969986
O37	O	0.787760	-0.135111	0.284192
O38	O	1.037760	0.114889	0.534192
O39	O	1.287760	0.364889	0.784192
O40	O	1.537760	0.614889	1.034192
O41	O	0.723504	-0.219871	0.135189
O42	O	0.973504	0.030129	0.385189
O43	O	1.223504	0.280129	0.635189
O44	O	1.473504	0.530129	0.885189
O45	O	0.638754	-0.219852	0.219927
O46	O	0.888754	0.030148	0.469927
O47	O	1.138754	0.280148	0.719927
O48	O	1.388754	0.530148	0.969927
O49	O	0.723521	-0.284077	0.368930
O50	O	0.973521	-0.034077	0.618930
O51	O	1.223521	0.215923	0.868930
O52	O	1.473521	0.465923	1.118930
O53	O	0.638750	-0.284070	0.284146
O54	O	0.888750	-0.034070	0.534146
O55	O	1.138750	0.215930	0.784146
O56	O	1.388750	0.465930	1.034146
O57	O	0.787755	-0.219866	0.368949
O58	O	1.037755	0.030134	0.618949
O59	O	1.287755	0.280134	0.868949
O60	O	1.537755	0.530134	1.118949
O61	O	0.787709	-0.368858	0.219960
O62	O	1.037709	-0.118858	0.469960
O63	O	1.287709	0.131142	0.719960
O64	O	1.537709	0.381142	0.969960
O65	O	0.723495	-0.368844	0.284165
O66	O	0.973495	-0.118844	0.534165
O67	O	1.223495	0.131156	0.784165
O68	O	1.473495	0.381156	1.034165
C69	C	0.619781	-0.251959	0.252032
C70	C	0.869781	-0.001959	0.502032
C71	C	1.119781	0.248041	0.752032
C72	C	1.369781	0.498041	1.002032
C73	C	0.561667	-0.251963	0.252029
C74	C	0.811667	-0.001963	0.502029
C75	C	1.061667	0.248037	0.752029
C76	C	1.311667	0.498037	1.002029
C77	C	0.755648	-0.115606	0.252074
C78	C	1.005648	0.134394	0.502074
C79	C	1.255648	0.384394	0.752074
C80	C	1.505648	0.634394	1.002074
C81	C	0.755659	-0.057492	0.252076
C82	C	1.005659	0.192508	0.502076
C83	C	1.255659	0.442508	0.752076
C84	C	1.505659	0.692508	1.002076
C85	C	0.201311	-0.285473	0.285475
C86	C	0.451311	-0.035473	0.535475
C87	C	0.701311	0.214527	0.785475
C88	C	0.951311	0.464527	1.035475
C89	C	0.146706	-0.285476	0.285483
C90	C	0.396706	-0.035476	0.535483
C91	C	0.646706	0.214524	0.785483
C92	C	0.896706	0.464524	1.035483
O93	O	0.118475	-0.313943	0.313890
O94	O	0.368475	-0.063943	0.563890
O95	O	0.618475	0.186057	0.813890
O96	O	0.868475	0.436057	1.063890
N97	N	0.119384	-0.251994	0.252102
N98	N	0.369384	-0.001994	0.502102
N99	N	0.619384	0.248006	0.752102
N100	N	0.869384	0.498006	1.002102
C101	C	0.146669	-0.218502	0.218714
C102	C	0.396669	0.031498	0.468714
C103	C	0.646669	0.281498	0.718714
C104	C	0.896669	0.531498	0.968714
O105	O	0.118416	-0.190022	0.190321
O106	O	0.368416	0.059978	0.440321
O107	O	0.618416	0.309978	0.690321
O108	O	0.868416	0.559978	0.940321
C109	C	0.201273	-0.218496	0.218709
C110	C	0.451273	0.031504	0.468709
C111	C	0.701273	0.281504	0.718709
C112	C	0.951273	0.531504	0.968709
C113	C	0.228592	-0.251985	0.252088
C114	C	0.478592	-0.001985	0.502088
C115	C	0.728592	0.248015	0.752088
C116	C	0.978592	0.498015	1.002088
C117	C	0.228630	-0.318959	0.318852
C118	C	0.478630	-0.068959	0.568852
C119	C	0.728630	0.181041	0.818852
C120	C	0.978630	0.431041	1.068852
C121	C	0.283230	-0.318956	0.318843
C122	C	0.533230	-0.068956	0.568843
C123	C	0.783230	0.181044	0.818843
C124	C	1.033230	0.431044	1.068843
C125	C	0.310512	-0.285468	0.285457
C126	C	0.560512	-0.035468	0.535457
C127	C	0.810512	0.214532	0.785457
C128	C	1.060512	0.464532	1.035457
C129	C	0.283192	-0.251982	0.252079
C130	C	0.533192	-0.001982	0.502079
C131	C	0.783192	0.248018	0.752079
C132	C	1.033192	0.498018	1.002079
C133	C	0.228557	-0.185002	0.185324
C134	C	0.478557	0.064998	0.435324
C135	C	0.728557	0.314998	0.685324
C136	C	0.978557	0.564998	0.935324
C137	C	0.283164	-0.184999	0.185321
C138	C	0.533164	0.065001	0.435321
C139	C	0.783164	0.315001	0.685321
C140	C	1.033164	0.565001	0.935321
C141	C	0.310483	-0.218488	0.218701
C142	C	0.560483	0.031512	0.468701
C143	C	0.810483	0.281512	0.718701
C144	C	1.060483	0.531512	0.968701
C145	C	0.365074	-0.218492	0.218684
C146	C	0.615074	0.031508	0.468684
C147	C	0.865074	0.281508	0.718684
C148	C	1.115074	0.531508	0.968684
N149	N	0.392396	-0.251974	0.252065
N150	N	0.642396	-0.001974	0.502065
N151	N	0.892396	0.248026	0.752065
N152	N	1.142396	0.498026	1.002065
C153	C	0.365115	-0.285463	0.285452
C154	C	0.615115	-0.035463	0.535452
C155	C	0.865115	0.214537	0.785452
C156	C	1.115115	0.464537	1.035452
C157	C	0.031999	-0.218515	0.218728
C158	C	0.281999	0.031485	0.468728
C159	C	0.531999	0.281485	0.718728
C160	C	0.781999	0.531485	0.968728
C161	C	-0.022604	-0.218523	0.218730
C162	C	0.227396	0.031477	0.468730
C163	C	0.477396	0.281477	0.718730
C164	C	0.727396	0.531477	0.968730
C165	C	-0.022563	-0.285497	0.285500
C166	C	0.227437	-0.035497	0.535500
C167	C	0.477437	0.214503	0.785500
C168	C	0.727437	0.464503	1.035500
C169	C	0.032040	-0.285492	0.285495
C170	C	0.282040	-0.035492	0.535495
C171	C	0.532040	0.214508	0.785495
C172	C	0.782040	0.464508	1.035495
C173	C	0.059321	-0.251998	0.252109
C174	C	0.309321	-0.001998	0.502109
C175	C	0.559321	0.248002	0.752109
C176	C	0.809321	0.498002	1.002109
C177	C	0.479780	-0.285455	0.285430
C178	C	0.729780	-0.035455	0.535430
C179	C	0.979780	0.214545	0.785430
C180	C	1.229780	0.464545	1.035430
C181	C	0.534385	-0.285451	0.285416
C182	C	0.784385	-0.035451	0.535416
C183	C	1.034385	0.214549	0.785416
C184	C	1.284385	0.464549	1.035416
C185	C	0.534340	-0.218475	0.218648
C186	C	0.784340	0.031525	0.468648
C187	C	1.034340	0.281525	0.718648
C188	C	1.284340	0.531525	0.968648
C189	C	0.479739	-0.218481	0.218659
C190	C	0.729739	0.031519	0.468659
C191	C	0.979739	0.281519	0.718659
C192	C	1.229739	0.531519	0.968659
C193	C	0.452461	-0.251972	0.252054
C194	C	0.702461	-0.001972	0.502054
C195	C	0.952461	0.248028	0.752054
C196	C	1.202461	0.498028	1.002054
O197	O	0.393340	-0.190038	0.190293
O198	O	0.643340	0.059962	0.440293
O199	O	0.893340	0.309962	0.690293
O200	O	1.143340	0.559962	0.940293
O201	O	0.393375	-0.313933	0.313844
O202	O	0.643375	-0.063933	0.563844
O203	O	0.893375	0.186067	0.813844
O204	O	1.143375	0.436067	1.063844
C205	C	0.755612	-0.387822	0.252073
C206	C	1.005612	-0.137822	0.502073
C207	C	1.255612	0.112178	0.752073
C208	C	1.505612	0.362178	1.002073
C209	C	0.755656	-0.445936	0.252093
C210	C	1.005656	-0.195936	0.502093
C211	C	1.255656	0.054064	0.752093
C212	C	1.505656	0.304064	1.002093
C213	C	0.891996	-0.252000	0.252104
C214	C	1.141996	-0.002000	0.502104
C215	C	1.391996	0.248000	0.752104
C216	C	1.641996	0.498000	1.002104
C217	C	0.950110	-0.252009	0.252119
C218	C	1.200110	-0.002009	0.502119
C219	C	1.450110	0.247991	0.752119
C220	C	1.700110	0.497991	1.002119
C221	C	0.755640	-0.251970	0.388441
C222	C	1.005640	-0.001970	0.638441
C223	C	1.255640	0.248030	0.888441
C224	C	1.505640	0.498030	1.138441
C225	C	0.755647	-0.251966	0.446555
C226	C	1.005647	-0.001966	0.696555
C227	C	1.255647	0.248034	0.946555
C228	C	1.505647	0.498034	1.196555
C229	C	0.722207	0.302879	0.218644
C230	C	0.972207	0.552879	0.468644
C231	C	1.222207	0.802879	0.718644
C232	C	1.472207	1.052879	0.968644
C233	C	0.722206	0.357484	0.218646
C234	C	0.972206	0.607484	0.468646
C235	C	1.222206	0.857484	0.718646
C236	C	1.472206	1.107484	0.968646
O237	O	0.693755	0.385728	0.190217
O238	O	0.943755	0.635728	0.440217
O239	O	1.193755	0.885728	0.690217
O240	O	1.443755	1.135728	0.940217
N241	N	0.755649	0.384790	0.252091
N242	N	1.005649	0.634790	0.502091
N243	N	1.255649	0.884790	0.752091
N244	N	1.505649	1.134790	1.002091
C245	C	0.789091	0.357490	0.285539
C246	C	1.039091	0.607490	0.535539
C247	C	1.289091	0.857490	0.785539
C248	C	1.539091	1.107490	1.035539
O249	O	0.817536	0.385730	0.313987
O250	O	1.067536	0.635730	0.563987
O251	O	1.317536	0.885730	0.813987
O252	O	1.567536	1.135730	1.063987
C253	C	0.789088	0.302886	0.285539
C254	C	1.039088	0.552886	0.535539
C255	C	1.289088	0.802886	0.785539
C256	C	1.539088	1.052886	1.035539
C257	C	0.755647	0.275583	0.252088
C258	C	1.005647	0.525583	0.502088
C259	C	1.255647	0.775583	0.752088
C260	C	1.505647	1.025583	1.002088
C261	C	0.688768	0.275576	0.185196
C262	C	0.938768	0.525576	0.435196
C263	C	1.188768	0.775576	0.685196
C264	C	1.438768	1.025576	0.935196
C265	C	0.688770	0.220975	0.185193
C266	C	0.938770	0.470975	0.435193
C267	C	1.188770	0.720975	0.685193
C268	C	1.438770	0.970975	0.935193
C269	C	0.722210	0.193678	0.218638
C270	C	0.972210	0.443678	0.468638
C271	C	1.222210	0.693678	0.718638
C272	C	1.472210	0.943678	0.968638
C273	C	0.755648	0.220982	0.252085
C274	C	1.005648	0.470982	0.502085
C275	C	1.255648	0.720982	0.752085
C276	C	1.505648	0.970982	1.002085
C277	C	0.822527	0.275587	0.318990
C278	C	1.072527	0.525587	0.568990
C279	C	1.322527	0.775587	0.818990
C280	C	1.572527	1.025587	1.068990
C281	C	0.822521	0.220980	0.318987
C282	C	1.072521	0.470980	0.568987
C283	C	1.322521	0.720980	0.818987
C284	C	1.572521	0.970980	1.068987
C285	C	0.789080	0.193676	0.285536
C286	C	1.039080	0.443676	0.535536
C287	C	1.289080	0.693676	0.785536
C288	C	1.539080	0.943676	1.035536
C289	C	0.789090	0.139085	0.285527
C290	C	1.039090	0.389085	0.535527
C291	C	1.289090	0.639085	0.785527
C292	C	1.539090	0.889085	1.035527
N293	N	0.755647	0.111778	0.252082
N294	N	1.005647	0.361778	0.502082
N295	N	1.255647	0.611778	0.752082
N296	N	1.505647	0.861778	1.002082
C297	C	0.722207	0.139075	0.218637
C298	C	0.972207	0.389075	0.468637
C299	C	1.222207	0.639075	0.718637
C300	C	1.472207	0.889075	0.968637
C301	C	0.789093	0.472160	0.285538
C302	C	1.039093	0.722160	0.535538
C303	C	1.289093	0.972160	0.785538
C304	C	1.539093	1.222160	1.035538
C305	C	0.789098	0.526763	0.285536
C306	C	1.039098	0.776763	0.535536
C307	C	1.289098	1.026763	0.785536
C308	C	1.539098	1.276763	1.035536
C309	C	0.722213	0.526753	0.218643
C310	C	0.972213	0.776753	0.468643
C311	C	1.222213	1.026753	0.718643
C312	C	1.472213	1.276753	0.968643
C313	C	0.722210	0.472150	0.218643
C314	C	0.972210	0.722150	0.468643
C315	C	1.222210	0.972150	0.718643
C316	C	1.472210	1.222150	0.968643
C317	C	0.755650	0.444854	0.252093
C318	C	1.005650	0.694854	0.502093
C319	C	1.255650	0.944854	0.752093
C320	C	1.505650	1.194854	1.002093
C321	C	0.722213	0.024410	0.218633
C322	C	0.972213	0.274410	0.468633
C323	C	1.222213	0.524410	0.718633
C324	C	1.472213	0.774410	0.968633
C325	C	0.722219	-0.030196	0.218631
C326	C	0.972219	0.219804	0.468631
C327	C	1.222219	0.469804	0.718631
C328	C	1.472219	0.719804	0.968631
C329	C	0.789102	-0.030181	0.285526
C330	C	1.039102	0.219819	0.535526
C331	C	1.289102	0.469819	0.785526
C332	C	1.539102	0.719819	1.035526
C333	C	0.789098	0.024420	0.285526
C334	C	1.039098	0.274420	0.535526
C335	C	1.289098	0.524420	0.785526
C336	C	1.539098	0.774420	1.035526
C337	C	0.755650	0.051714	0.252078
C338	C	1.005650	0.301714	0.502078
C339	C	1.255650	0.551714	0.752078
C340	C	1.505650	0.801714	1.002078
O341	O	0.817525	0.110806	0.313943
O342	O	1.067525	0.360806	0.563943
O343	O	1.317525	0.610806	0.813943
O344	O	1.567525	0.860806	1.063943
O345	O	0.693762	0.110828	0.190199
O346	O	0.943762	0.360828	0.440199
O347	O	1.193762	0.610828	0.690199
O348	O	1.443762	0.860828	0.940199
C349	C	0.755637	-0.251951	0.116225
C350	C	1.005637	-0.001951	0.366225
C351	C	1.255637	0.248049	0.616225
C352	C	1.505637	0.498049	0.866225
C353	C	0.755731	-0.251807	0.058111
C354	C	1.005731	-0.001807	0.308111
C355	C	1.255731	0.248193	0.558111
C356	C	1.505731	0.498193	0.808111
C357	C	0.789136	-0.218432	0.806934
C358	C	1.039136	0.031568	1.056934
C359	C	1.289136	0.281568	1.306934
C360	C	1.539136	0.531568	1.556934
C361	C	0.789143	-0.218417	0.861538
C362	C	1.039143	0.031583	1.111538
C363	C	1.289143	0.281583	1.361538
C364	C	1.539143	0.531583	1.611538
O365	O	0.817574	-0.189967	0.889788
O366	O	1.067574	0.060033	1.139788
O367	O	1.317574	0.310033	1.389788
O368	O	1.567574	0.560033	1.639788
N369	N	0.755705	-0.251844	0.888837
N370	N	1.005705	-0.001844	1.138837
N371	N	1.255705	0.248156	1.388837
N372	N	1.505705	0.498156	1.638837
C373	C	0.722255	-0.285283	0.861530
C374	C	0.972255	-0.035283	1.111530
C375	C	1.222255	0.214717	1.361530
C376	C	1.472255	0.464717	1.611530
O377	O	0.693814	-0.313713	0.889764
O378	O	0.943814	-0.063713	1.139764
O379	O	1.193814	0.186287	1.389764
O380	O	1.443814	0.436287	1.639764
C381	C	0.722246	-0.285294	0.806926
C382	C	0.972246	-0.035294	1.056926
C383	C	1.222246	0.214706	1.306926
C384	C	1.472246	0.464706	1.556926
C385	C	0.755690	-0.251870	0.779630
C386	C	1.005690	-0.001870	1.029630
C387	C	1.255690	0.248130	1.279630
C388	C	1.505690	0.498130	1.529630
C389	C	0.822577	-0.185009	0.779637
C390	C	1.072577	0.064991	1.029637
C391	C	1.322577	0.314991	1.279637
C392	C	1.572577	0.564991	1.529637
C393	C	0.822571	-0.185025	0.725037
C394	C	1.072571	0.064975	0.975037
C395	C	1.322571	0.314975	1.225037
C396	C	1.572571	0.564975	1.475037
C397	C	0.789124	-0.218462	0.697733
C398	C	1.039124	0.031538	0.947733
C399	C	1.289124	0.281538	1.197733
C400	C	1.539124	0.531538	1.447733
C401	C	0.755684	-0.251885	0.725029
C402	C	1.005684	-0.001885	0.975029
C403	C	1.255684	0.248115	1.225029
C404	C	1.505684	0.498115	1.475029
C405	C	0.688794	-0.318731	0.779619
C406	C	0.938794	-0.068731	1.029619
C407	C	1.188794	0.181269	1.279619
C408	C	1.438794	0.431269	1.529619
C409	C	0.688788	-0.318739	0.725012
C410	C	0.938788	-0.068739	0.975012
C411	C	1.188788	0.181261	1.225012
C412	C	1.438788	0.431261	1.475012
C413	C	0.722231	-0.285314	0.697716
C414	C	0.972231	-0.035314	0.947716
C415	C	1.222231	0.214686	1.197716
C416	C	1.472231	0.464686	1.447716
C417	C	0.722232	-0.285338	0.643125
C418	C	0.972232	-0.035338	0.893125
C419	C	1.222232	0.214662	1.143125
C420	C	1.472232	0.464662	1.393125
N421	N	0.755669	-0.251912	0.615825
N422	N	1.005669	-0.001912	0.865825
N423	N	1.255669	0.248088	1.115825
N424	N	1.505669	0.498088	1.365825
C425	C	0.789116	-0.218474	0.643129
C426	C	1.039116	0.031526	0.893129
C427	C	1.289116	0.281526	1.143129
C428	C	1.539116	0.531526	1.393129
C429	C	0.722275	-0.285256	0.976200
C430	C	0.972275	-0.035256	1.226200
C431	C	1.222275	0.214744	1.476200
C432	C	1.472275	0.464744	1.726200
C433	C	0.722286	-0.285247	1.030803
C434	C	0.972286	-0.035247	1.280803
C435	C	1.222286	0.214753	1.530803
C436	C	1.472286	0.464753	1.780803
C437	C	0.789173	-0.218381	1.030807
C438	C	1.039173	0.031619	1.280807
C439	C	1.289173	0.281619	1.530807
C440	C	1.539173	0.531619	1.780807
C441	C	0.789165	-0.218392	0.976204
C442	C	1.039165	0.031608	1.226204
C443	C	1.289165	0.281608	1.476204
C444	C	1.539165	0.531608	1.726204
C445	C	0.755713	-0.251829	0.948901
C446	C	1.005713	-0.001829	1.198901
C447	C	1.255713	0.248171	1.448901
C448	C	1.505713	0.498171	1.698901
C449	C	0.789101	-0.218509	0.528464
C450	C	1.039101	0.031491	0.778464
C451	C	1.289101	0.281491	1.028464
C452	C	1.539101	0.531491	1.278464
C453	C	0.789094	-0.218528	0.473859
C454	C	1.039094	0.031472	0.723859
C455	C	1.289094	0.281472	0.973859
C456	C	1.539094	0.531472	1.223859
C457	C	0.722205	-0.285393	0.473859
C458	C	0.972205	-0.035393	0.723859
C459	C	1.222205	0.214607	0.973859
C460	C	1.472205	0.464607	1.223859
C461	C	0.722214	-0.285375	0.528459
C462	C	0.972214	-0.035375	0.778459
C463	C	1.222214	0.214625	1.028459
C464	C	1.472214	0.464625	1.278459
C465	C	0.755664	-0.251929	0.555761
C466	C	1.005664	-0.001929	0.805761
C467	C	1.255664	0.248071	1.055761
C468	C	1.505664	0.498071	1.305761
O469	O	0.693813	-0.313773	0.614840
O470	O	0.943813	-0.063773	0.864840
O471	O	1.193813	0.186227	1.114840
O472	O	1.443813	0.436227	1.364840
O473	O	0.817547	-0.190044	0.614889
O474	O	1.067547	0.059956	0.864889
O475	O	1.317547	0.309956	1.114889
O476	O	1.567547	0.559956	1.364889
H477	H	0.556626	-0.312723	0.312598
H478	H	0.806626	-0.062723	0.562598
H479	H	1.056626	0.187277	0.812598
H480	H	1.306626	0.437277	1.062598
Cl481	Cl	0.680172	0.561079	0.176599
Cl482	Cl	0.930172	0.811079	0.426599
Cl483	Cl	1.180172	1.061079	0.676599
Cl484	Cl	1.430172	1.311079	0.926599
Cl485	Cl	-0.056870	-0.327592	0.327478
Cl486	Cl	0.193130	-0.077592	0.577478
Cl487	Cl	0.443130	0.172408	0.827478
Cl488	Cl	0.693130	0.422408	1.077478
Cl489	Cl	-0.056941	-0.176428	0.176758
Cl490	Cl	0.193059	0.073572	0.426758
Cl491	Cl	0.443059	0.323572	0.676758
Cl492	Cl	0.693059	0.573572	0.926758
H493	H	0.816335	0.548990	0.312769
H494	H	1.066335	0.798990	0.562769
H495	H	1.316335	1.048990	0.812769
H496	H	1.566335	1.298990	1.062769
H497	H	0.054207	-0.191241	0.191537
H498	H	0.304207	0.058759	0.441537
H499	H	0.554207	0.308759	0.691537
H500	H	0.804207	0.558759	0.941537
Cl501	Cl	0.680249	-0.327277	1.065111
Cl502	Cl	0.930249	-0.077277	1.315111
Cl503	Cl	1.180249	0.172723	1.565111
Cl504	Cl	1.430249	0.422723	1.815111
Cl505	Cl	0.445495	-0.327560	0.327412
Cl506	Cl	0.695495	-0.077560	0.577412
Cl507	Cl	0.945495	0.172440	0.827412
Cl508	Cl	1.195495	0.422440	1.077412
H509	H	0.694987	-0.052424	0.191390
H510	H	0.944987	0.197576	0.441390
H511	H	1.194987	0.447576	0.691390
H512	H	1.444987	0.697576	0.941390
H513	H	0.054280	-0.312760	0.312677
H514	H	0.304280	-0.062760	0.562677
H515	H	0.554280	0.187240	0.812677
H516	H	0.804280	0.437240	1.062677
H517	H	0.816326	0.449939	0.312777
H518	H	1.066326	0.699939	0.562777
H519	H	1.316326	0.949939	0.812777
H520	H	1.566326	1.199939	1.062777
Cl521	Cl	0.680164	0.058714	0.176582
Cl522	Cl	0.930164	0.308714	0.426582
Cl523	Cl	1.180164	0.558714	0.676582
Cl524	Cl	1.430164	0.808714	0.926582
Cl525	Cl	0.831145	0.058745	0.327572
Cl526	Cl	1.081145	0.308745	0.577572
Cl527	Cl	1.331145	0.558745	0.827572
Cl528	Cl	1.581145	0.808745	1.077572
H529	H	0.305469	-0.346225	0.346026
H530	H	0.555469	-0.096225	0.596026
H531	H	0.805469	0.153775	0.846026
H532	H	1.055469	0.403775	1.096026
Cl533	Cl	0.680221	-0.327300	0.941882
Cl534	Cl	0.930221	-0.077300	1.191882
Cl535	Cl	1.180221	0.172700	1.441882
Cl536	Cl	1.430221	0.422700	1.691882
Cl537	Cl	0.646730	-0.360776	0.690692
Cl538	Cl	0.896730	-0.110776	0.940692
Cl539	Cl	1.146730	0.139224	1.190692
Cl540	Cl	1.396730	0.389224	1.440692
Cl541	Cl	0.646749	-0.360755	0.813921
Cl542	Cl	0.896749	-0.110755	1.063921
Cl543	Cl	1.146749	0.139245	1.313921
Cl544	Cl	1.396749	0.389245	1.563921
Cl545	Cl	0.864613	-0.142998	0.690729
Cl546	Cl	1.114613	0.107002	0.940729
Cl547	Cl	1.364613	0.357002	1.190729
Cl548	Cl	1.614613	0.607002	1.440729
Cl549	Cl	0.194226	-0.142896	0.143361
Cl550	Cl	0.444226	0.107104	0.393361
Cl551	Cl	0.694226	0.357104	0.643361
Cl552	Cl	0.944226	0.607104	0.893361
Cl553	Cl	0.317456	-0.142890	0.143348
Cl554	Cl	0.567456	0.107110	0.393348
Cl555	Cl	0.817456	0.357110	0.643348
Cl556	Cl	1.067456	0.607110	0.893348
Cl557	Cl	0.680173	-0.327398	0.562776
Cl558	Cl	0.930173	-0.077398	0.812776
Cl559	Cl	1.180173	0.172602	1.062776
Cl560	Cl	1.430173	0.422602	1.312776
Cl561	Cl	0.194343	-0.361065	0.360830
Cl562	Cl	0.444343	-0.111065	0.610830
Cl563	Cl	0.694343	0.138935	0.860830
Cl564	Cl	0.944343	0.388935	1.110830
H565	H	0.457495	-0.191213	0.191478
H566	H	0.707495	0.058787	0.441478
H567	H	0.957495	0.308787	0.691478
H568	H	1.207495	0.558787	0.941478
Cl569	Cl	0.831141	-0.176506	0.439547
Cl570	Cl	1.081141	0.073494	0.689547
Cl571	Cl	1.331141	0.323494	0.939547
Cl572	Cl	1.581141	0.573494	1.189547
H573	H	0.694975	-0.312619	0.451618
H574	H	0.944975	-0.062619	0.701618
H575	H	1.194975	0.187381	0.951618
H576	H	1.444975	0.437381	1.201618
H577	H	0.816330	-0.052416	0.312754
H578	H	1.066330	0.197584	0.562754
H579	H	1.316330	0.447584	0.812754
H580	H	1.566330	0.697584	1.062754
H581	H	0.816338	-0.191272	0.550687
H582	H	1.066338	0.058728	0.800687
H583	H	1.316338	0.308728	1.050687
H584	H	1.566338	0.558728	1.300687
H585	H	0.849813	-0.157777	0.801863
H586	H	1.099813	0.092223	1.051863
H587	H	1.349813	0.342223	1.301863
H588	H	1.599813	0.592223	1.551863
Cl589	Cl	0.831219	-0.176343	1.065143
Cl590	Cl	1.081219	0.073657	1.315143
Cl591	Cl	1.331219	0.323657	1.565143
Cl592	Cl	1.581219	0.573657	1.815143
Cl593	Cl	0.831208	-0.176370	0.941894
Cl594	Cl	1.081208	0.073630	1.191894
Cl595	Cl	1.331208	0.323630	1.441894
Cl596	Cl	1.581208	0.573630	1.691894
H597	H	0.556562	-0.191211	0.191464
H598	H	0.806562	0.058789	0.441464
H599	H	1.056562	0.308789	0.691464
H600	H	1.306562	0.558789	0.941464
H601	H	0.661537	0.198749	0.157955
H602	H	0.911537	0.448749	0.407955
H603	H	1.161537	0.698749	0.657955
H604	H	1.411537	0.948749	0.907955
Cl605	Cl	0.646722	0.309882	0.143147
Cl606	Cl	0.896722	0.559882	0.393147
Cl607	Cl	1.146722	0.809882	0.643147
Cl608	Cl	1.396722	1.059882	0.893147
H609	H	0.694979	0.449922	0.191405
H610	H	0.944979	0.699922	0.441405
H611	H	1.194979	0.949922	0.691405
H612	H	1.444979	1.199922	0.941405
Cl613	Cl	0.864568	0.309898	0.361047
Cl614	Cl	1.114568	0.559898	0.611047
Cl615	Cl	1.364568	0.809898	0.861047
Cl616	Cl	1.614568	1.059898	1.111047
H617	H	0.849748	0.198758	0.346231
H618	H	1.099748	0.448758	0.596231
H619	H	1.349748	0.698758	0.846231
H620	H	1.599748	0.948758	1.096231
