data_functionalizedCrystal
_audit_creation_method	'MofGen! by Chris Wilmer'
_symmetry_space_group_name_H-M	'P1'
_symmetry_Int_Tables_number	1
_symmetry_cell_setting	triclinic
loop_
_symmetry_equiv_pos_as_xyz
  x,y,z
_cell_length_a	16.120566
_cell_length_b	19.805406
_cell_length_c	19.805399
_cell_angle_alpha	90.014352
_cell_angle_beta	87.081380
_cell_angle_gamma	92.903291
loop_
_atom_site_label
_atom_site_type_symbol
_atom_site_fract_x
_atom_site_fract_y
_atom_site_fract_z
Zn1	Zn	-1.274699	-0.322017	0.435244
Zn2	Zn	-1.274659	-0.435203	0.322080
Zn3	Zn	-1.135282	-0.316289	0.316331
Zn4	Zn	-1.135302	-0.429424	0.429492
O5	O	-1.204985	-0.375733	0.375787
O6	O	-1.391362	-0.341847	0.425046
O7	O	-1.256145	-0.419451	0.226600
O8	O	-1.153785	-0.222333	0.332106
O9	O	-1.391332	-0.425005	0.341905
O10	O	-1.256214	-0.226541	0.419471
O11	O	-1.153746	-0.332085	0.222376
O12	O	-1.018617	-0.326481	0.326528
O13	O	-1.153818	-0.415154	0.524972
O14	O	-1.018631	-0.409600	0.409667
O15	O	-1.256233	-0.336243	0.529199
O16	O	-1.256164	-0.529153	0.336327
O17	O	-1.153779	-0.524907	0.415242
C18	C	-0.988373	-0.366792	0.366850
C19	C	-0.895705	-0.362984	0.363043
C20	C	-1.204992	-0.551589	0.375800
C21	C	-1.205071	-0.626825	0.375832
C22	C	-1.205032	-0.375693	0.552331
C23	C	-1.205052	-0.375675	0.627564
C24	C	-0.726040	-0.356014	0.356098
C25	C	-0.684771	-0.395510	0.395481
C26	C	-0.590364	-0.391633	0.391617
C27	C	-0.820456	-0.359891	0.359961
C28	C	-0.422444	-0.384712	0.384748
C29	C	-0.515111	-0.388543	0.388538
C30	C	-1.205002	-0.199191	0.375789
C31	C	-1.205009	-0.123960	0.375790
C32	C	-1.151686	-0.086424	0.330306
C33	C	-1.151691	-0.015735	0.330313
C34	C	-1.205024	0.017415	0.375803
C35	C	-1.258349	-0.020125	0.421292
C36	C	-1.258339	-0.090812	0.421287
C37	C	-1.258390	0.264946	0.421313
C38	C	-1.258398	0.335638	0.421313
C39	C	-1.151742	0.340023	0.330340
C40	C	-1.151732	0.269336	0.330335
C41	C	-1.205054	0.231802	0.375826
C42	C	-1.205047	0.155154	0.375818
C43	C	-1.205037	0.094062	0.375808
C44	C	-1.204987	-0.375727	0.199931
C45	C	-1.205128	-0.375560	0.124705
C46	C	-1.258381	-0.334584	0.665110
C47	C	-1.258389	-0.334565	0.735799
C48	C	-1.205073	-0.375641	0.768941
C49	C	-1.151738	-0.416734	0.731390
C50	C	-1.151726	-0.416749	0.660702
C51	C	-1.151785	-0.416672	1.016465
C52	C	-1.151803	-0.416656	1.087158
C53	C	-1.258448	-0.334488	1.091562
C54	C	-1.258436	-0.334503	1.020874
C55	C	-1.205099	-0.375593	0.983329
C56	C	-1.205089	-0.375613	0.906680
C57	C	-1.205086	-0.375625	0.845588
H58	H	-0.720342	-0.432235	0.432102
C59	C	-1.010546	0.253397	0.291545
C60	C	-1.093103	0.232898	0.280334
H61	H	-0.974349	0.230900	0.260680
H62	H	-1.002927	0.300862	0.285035
H63	H	-0.998369	0.242322	0.336521
H64	H	-1.105282	0.243978	0.235359
H65	H	-1.100726	0.185423	0.286838
H66	H	-0.690472	-0.319292	0.319480
H67	H	-1.108259	-0.113410	0.293261
H68	H	-1.301771	0.006870	0.458333
H69	H	-1.108367	-0.450141	0.985905
H70	H	-1.108271	0.014826	0.293277
H71	H	-1.301754	-0.121373	0.458330
H72	H	-1.108324	-0.450176	0.758379
C73	C	-1.269993	-0.243948	0.941869
C74	C	-1.317034	-0.289340	0.984449
H75	H	-1.306167	-0.216064	0.919382
H76	H	-1.233678	-0.216565	0.967951
H77	H	-1.238241	-0.268432	0.909390
H78	H	-1.348782	-0.264856	1.016932
H79	H	-1.353364	-0.316726	0.958366
C80	C	-1.104381	0.450329	0.289951
C81	C	-1.093119	0.381284	0.280340
H82	H	-1.068188	0.475799	0.259085
H83	H	-1.160390	0.459597	0.282356
H84	H	-1.092189	0.462418	0.334927
H85	H	-1.105317	0.369194	0.235365
H86	H	-1.037098	0.372011	0.287930
C87	C	-1.299065	0.241546	0.537598
C88	C	-1.317023	0.223701	0.471306
H89	H	-1.335273	0.216085	0.568460
H90	H	-1.243063	0.232263	0.545200
H91	H	-1.306693	0.288392	0.544096
H92	H	-1.309388	0.176856	0.464807
H93	H	-1.373038	0.232979	0.463701
H94	H	-1.301830	0.362628	0.458359
C95	C	-1.363793	-0.253355	0.676571
C96	C	-1.316987	-0.289429	0.628684
H97	H	-1.399969	-0.225474	0.654083
H98	H	-1.395685	-0.284155	0.705456
H99	H	-1.327465	-0.225963	0.702643
H100	H	-1.353315	-0.316826	0.602615
H101	H	-1.285092	-0.258626	0.599787
H102	H	-1.108383	-0.450106	1.114140
C103	C	-1.269988	-0.243966	0.815754
C104	C	-1.317006	-0.289387	0.777063
H105	H	-1.306176	-0.216069	0.841223
H106	H	-1.238249	-0.268425	0.845611
H107	H	-1.233660	-0.216594	0.786665
H108	H	-1.353330	-0.316763	0.806152
H109	H	-1.348759	-0.264926	0.747203
C110	C	-1.305820	-0.297964	1.201877
C111	C	-1.317070	-0.289311	1.132834
H112	H	-1.342007	-0.270071	1.227354
H113	H	-1.318021	-0.343935	1.213965
H114	H	-1.249803	-0.285741	1.211139
H115	H	-1.373085	-0.301539	1.123571
H116	H	-1.304874	-0.243329	1.120742
C117	C	-1.046332	-0.497988	0.663445
C118	C	-1.093120	-0.461930	0.619429
H119	H	-1.010156	-0.525886	0.637964
H120	H	-1.014441	-0.467179	0.689693
H121	H	-1.082672	-0.525363	0.692522
H122	H	-1.056780	-0.434551	0.590355
H123	H	-1.125014	-0.492743	0.593170
