data_functionalizedCrystal
_audit_creation_method	'MofGen! by Chris Wilmer'
_symmetry_space_group_name_H-M	'P1'
_symmetry_Int_Tables_number	1
_symmetry_cell_setting	triclinic
loop_
_symmetry_equiv_pos_as_xyz
  x,y,z
_cell_length_a	6.817900
_cell_length_b	15.866870
_cell_length_c	12.200875
_cell_angle_alpha	111.092108
_cell_angle_beta	107.143593
_cell_angle_gamma	102.655915
loop_
_atom_site_label
_atom_site_type_symbol
_atom_site_fract_x
_atom_site_fract_y
_atom_site_fract_z
V1	V	-4.100361	-0.132887	-0.413851
O2	O	-4.053554	0.006162	-0.348247
O3	O	-4.083035	-0.263278	-0.466540
O4	O	-4.069614	-0.130942	-0.569017
O5	O	-4.067067	-0.127091	-0.245061
V6	V	-4.577674	-0.116244	-0.386918
O7	O	-4.375239	-0.169396	-0.472932
O8	O	-4.752993	-0.079735	-0.327838
O9	O	-4.371794	0.014146	-0.334230
O10	O	-4.741878	-0.255293	-0.452523
O11	O	-4.728365	-0.122041	-0.555709
O12	O	-4.385214	-0.118190	-0.231753
C13	C	-3.935024	-0.295061	-0.474337
C14	C	-4.002262	-0.401657	-0.518451
C15	C	-3.944608	-0.683492	-0.109260
C16	C	-4.007802	-0.783660	-0.150750
C17	C	-4.119320	-0.811148	-0.372465
C18	C	-4.056123	-0.710980	-0.330993
C19	C	-3.968772	-0.647159	-0.199389
C20	C	-4.080288	-0.674647	-0.421122
C21	C	-4.017108	-0.574488	-0.379654
C22	C	-3.929762	-0.510662	-0.248056
C23	C	-3.905592	-0.547000	-0.157921
C24	C	-4.167654	-0.738470	-0.552726
C25	C	-4.191819	-0.702137	-0.642856
C26	C	-4.128623	-0.601976	-0.601387
C27	C	-4.041278	-0.538149	-0.469789
C28	C	-4.152794	-0.565637	-0.691523
C29	C	-4.089613	-0.465478	-0.650054
C30	C	-3.978098	-0.437990	-0.428321
C31	C	-3.917903	-0.126252	-0.605055
C32	C	-3.974254	-0.125524	-0.732268
C33	C	-4.077385	-0.124192	-0.965179
C34	C	-4.019987	-0.124933	-0.835571
C35	C	-4.183148	0.045925	-0.326432
C36	C	-4.095148	0.152520	-0.282326
C37	C	-4.200267	-0.122882	-0.195710
C38	C	-4.123153	-0.123606	-0.068494
H39	H	-3.906935	-0.386022	-0.321155
C40	C	-4.237141	-0.848646	-0.598341
C41	C	-4.127317	-0.906631	-0.674705
C42	C	-4.196796	-1.016806	-0.720316
C43	C	-4.376099	-1.068996	-0.689564
C44	C	-4.485934	-1.011011	-0.613196
C45	C	-4.416455	-0.900836	-0.567585
H46	H	-3.994576	-0.867997	-0.697473
H47	H	-4.115488	-1.059731	-0.776848
H48	H	-4.427532	-1.150554	-0.723328
H49	H	-4.618675	-1.049645	-0.590428
H50	H	-4.497763	-0.857911	-0.511053
C51	C	-3.860249	-0.400483	-0.202430
C52	C	-3.680912	-0.348296	-0.233163
C53	C	-3.611395	-0.238118	-0.187534
C54	C	-3.721215	-0.180128	-0.111173
C55	C	-3.900563	-0.232315	-0.080436
C56	C	-3.970080	-0.342493	-0.126064
H57	H	-3.599608	-0.391224	-0.289693
H58	H	-3.478629	-0.199485	-0.210288
H59	H	-3.669754	-0.098567	-0.077396
H60	H	-3.981868	-0.189387	-0.023905
H61	H	-4.102846	-0.381126	-0.103310
C62	C	-3.981204	-0.823623	-0.051593
C63	C	-3.834060	-0.884041	-0.042179
C64	C	-3.807468	-0.924002	0.056976
C65	C	-3.928020	-0.903544	0.146717
C66	C	-4.075175	-0.843123	0.137306
C67	C	-4.101767	-0.803162	0.038151
H68	H	-3.744810	-0.899188	-0.108613
H69	H	-3.698534	-0.968730	0.063942
H70	H	-3.908336	-0.933126	0.220117
H71	H	-4.164424	-0.827976	0.203740
H72	H	-4.210701	-0.758434	0.031185
C73	C	-3.809419	-0.476801	-0.013145
C74	C	-3.575380	-0.399532	0.053240
C75	C	-3.479181	-0.329339	0.198012
C76	C	-3.617021	-0.336415	0.276399
C77	C	-3.851074	-0.413687	0.210015
C78	C	-3.947273	-0.483880	0.065242
H79	H	-3.473331	-0.394291	-0.004787
H80	H	-3.305919	-0.272138	0.247154
H81	H	-3.545808	-0.284455	0.383568
H82	H	-3.953124	-0.418928	0.268042
H83	H	-4.120536	-0.541082	0.016101
C84	C	-3.848474	-0.613263	0.035503
C85	C	-3.986343	-0.620318	0.113881
C86	C	-3.890201	-0.550082	0.258634
C87	C	-3.656191	-0.472791	0.325009
C88	C	-3.518308	-0.465734	0.246631
C89	C	-3.614450	-0.535970	0.101878
H90	H	-4.159584	-0.677535	0.064746
H91	H	-3.992272	-0.555306	0.316654
H92	H	-3.585021	-0.420798	0.432164
H93	H	-3.345067	-0.408516	0.295766
H94	H	-3.512379	-0.530745	0.043858
H95	H	-4.190456	-0.863124	-0.479617
H96	H	-4.262955	-0.754113	-0.750009
H97	H	-4.223942	-0.617615	-0.798676
H98	H	-4.109323	-0.435897	-0.723448
