data_functionalizedCrystal
_audit_creation_method	'MofGen! by Chris Wilmer'
_symmetry_space_group_name_H-M	'P1'
_symmetry_Int_Tables_number	1
_symmetry_cell_setting	triclinic
loop_
_symmetry_equiv_pos_as_xyz
  x,y,z
_cell_length_a	10.654550
_cell_length_b	10.489741
_cell_length_c	9.130313
_cell_angle_alpha	89.999004
_cell_angle_beta	89.996220
_cell_angle_gamma	84.512038
loop_
_atom_site_label
_atom_site_type_symbol
_atom_site_fract_x
_atom_site_fract_y
_atom_site_fract_z
O1	O	1.667918	0.179156	-0.121919
O2	O	1.302447	0.196226	-0.121895
O3	O	1.493499	0.002089	-0.121899
O4	O	1.476867	0.373293	-0.121915
O5	O	1.493497	0.002094	0.121700
O6	O	1.302445	0.196231	0.121703
O7	O	1.667916	0.179161	0.121680
Cu8	Cu	1.485180	0.187697	0.143934
Cu9	Cu	1.485183	0.187690	-0.144150
O10	O	1.476864	0.373298	0.121683
C11	C	1.255648	0.194975	-0.000093
C12	C	1.116203	0.191225	-0.000084
C13	C	1.036771	0.305530	-0.000110
C14	C	0.905748	0.301999	-0.000135
C15	C	0.933603	0.069849	-0.000114
C16	C	1.064623	0.073381	-0.000078
C17	C	1.020688	0.439560	-0.000129
C18	C	0.889665	0.436029	-0.000154
C19	C	1.492241	-0.045439	-0.000100
C20	C	1.488483	-0.187067	-0.000103
C21	C	1.366923	-0.255148	-0.000106
C22	C	1.424346	-0.347296	0.119997
C23	C	1.424377	-0.347276	-0.120172
C24	C	1.545956	-0.277349	0.120099
C25	C	1.545970	-0.277320	-0.120178
C26	C	1.603481	-0.369440	-0.000045
C27	C	1.714715	0.180412	-0.000126
C28	C	1.854160	0.184162	-0.000145
C29	C	1.478122	0.420826	-0.000118
C30	C	1.481880	0.562454	-0.000126
N31	N	1.485187	0.187700	0.346557
N32	N	1.485186	0.187677	-0.346772
C33	C	1.569807	0.101766	0.423207
C34	C	1.569803	0.101751	0.576544
C35	C	1.400557	0.273615	0.576567
C36	C	1.400555	0.273623	0.423232
C37	C	1.667524	0.002545	0.423195
C38	C	1.667520	0.002530	0.576532
H39	H	0.847957	0.486527	-0.102110
C40	C	1.551515	-0.270345	-0.382918
C41	C	1.615346	-0.235429	-0.257263
H42	H	1.594335	-0.244471	-0.467554
H43	H	1.548967	-0.360599	-0.384392
H44	H	1.467956	-0.229622	-0.382033
H45	H	1.698903	-0.276159	-0.258142
H46	H	1.617908	-0.145157	-0.255788
H47	H	1.372927	-0.378217	-0.221719
H48	H	1.331651	0.343570	0.639012
H49	H	1.331641	0.343586	0.360825
H50	H	1.646035	-0.095500	0.381581
C51	C	0.745125	-0.038647	-0.000158
C52	C	0.876901	-0.059681	-0.000123
H53	H	0.710125	-0.118617	-0.000175
H54	H	0.717920	0.008459	0.084778
H55	H	0.717963	0.008466	-0.085120
H56	H	0.904063	-0.106787	0.084845
H57	H	0.904117	-0.106807	-0.085067
H58	H	1.636964	-0.090122	0.624085
C59	C	1.797794	0.032006	0.786082
C60	C	1.797814	0.032033	0.632720
H61	H	1.878230	0.050213	0.820766
H62	H	1.735288	0.095473	0.820756
H63	H	1.779869	-0.049700	0.820728
H64	H	1.815729	0.113742	0.598073
H65	H	1.860339	-0.031438	0.598032
H66	H	1.056364	0.482235	-0.105303
C67	C	1.784392	0.042475	0.205806
C68	C	1.790607	0.044546	0.358966
H69	H	1.860367	0.068435	0.166155
H70	H	1.773408	-0.041855	0.173665
H71	H	1.715195	0.099462	0.173726
H72	H	1.859799	-0.012448	0.391046
H73	H	1.801605	0.128890	0.391119
H74	H	1.703518	-0.418912	0.000015
C75	C	1.168654	-0.223128	0.126000
C76	C	1.232006	-0.188043	0.000060
H77	H	1.085368	-0.181691	0.126109
H78	H	1.165338	-0.313288	0.126858
H79	H	1.212285	-0.198178	0.210447
H80	H	1.188380	-0.213002	-0.084387
H81	H	1.235316	-0.097863	-0.000812
H82	H	1.597345	-0.246540	0.221751
C83	C	1.024204	0.445941	0.262702
C84	C	1.060333	0.510317	0.137496
H85	H	1.048688	0.489618	0.347662
H86	H	0.935313	0.443551	0.262673
H87	H	1.064130	0.360997	0.262694
H88	H	1.020400	0.595258	0.137499
H89	H	1.149241	0.512721	0.137525
C90	C	1.353137	-0.522438	0.256262
C91	C	1.354916	-0.389138	0.257077
H92	H	1.310275	-0.548264	0.340890
H93	H	1.310759	-0.547526	0.170984
H94	H	1.437178	-0.561925	0.256384
H95	H	1.270875	-0.349651	0.256943
H96	H	1.397292	-0.364038	0.342377
H97	H	1.129293	-0.019697	-0.000036
C98	C	0.765398	0.396060	0.211378
C99	C	0.828037	0.490691	0.141827
H100	H	0.727362	0.429798	0.299038
H101	H	0.702213	0.369273	0.148104
H102	H	0.824146	0.324941	0.234183
H103	H	0.769287	0.561807	0.119012
H104	H	0.891229	0.517497	0.205114
