data_functionalizedCrystal
_audit_creation_method	'MofGen! by Chris Wilmer'
_symmetry_space_group_name_H-M	'P1'
_symmetry_Int_Tables_number	1
_symmetry_cell_setting	triclinic
loop_
_symmetry_equiv_pos_as_xyz
  x,y,z
_cell_length_a	19.121102
_cell_length_b	11.169416
_cell_length_c	11.169409
_cell_angle_alpha	90.030816
_cell_angle_beta	87.536992
_cell_angle_gamma	92.435079
loop_
_atom_site_label
_atom_site_type_symbol
_atom_site_fract_x
_atom_site_fract_y
_atom_site_fract_z
Zn1	Zn	1.073843	0.556105	-0.756855
Zn2	Zn	1.407176	0.889439	-0.423522
Zn3	Zn	1.740510	1.222772	-0.090189
Zn4	Zn	1.073777	0.756841	-0.556172
Zn5	Zn	1.407110	1.090174	-0.222839
Zn6	Zn	1.740443	1.423508	0.110494
Zn7	Zn	0.956382	0.547600	-0.547625
Zn8	Zn	1.289715	0.880933	-0.214291
Zn9	Zn	1.623048	1.214267	0.119042
Zn10	Zn	0.956388	0.748170	-0.748258
Zn11	Zn	1.289721	1.081504	-0.414924
Zn12	Zn	1.623054	1.414837	-0.081591
O13	O	1.015097	0.652179	-0.652228
O14	O	1.348431	0.985513	-0.318894
O15	O	1.681764	1.318846	0.014439
O16	O	1.172120	0.589922	-0.737410
O17	O	1.505453	0.923255	-0.404076
O18	O	1.838787	1.256588	-0.070743
O19	O	1.058174	0.729154	-0.387087
O20	O	1.391507	1.062487	-0.053753
O21	O	1.724841	1.395820	0.279580
O22	O	0.971988	0.380781	-0.575401
O23	O	1.305322	0.714114	-0.242067
O24	O	1.638655	1.047447	0.091266
O25	O	1.172071	0.737401	-0.589969
O26	O	1.505405	1.070734	-0.256635
O27	O	1.838738	1.404068	0.076698
O28	O	1.058287	0.387029	-0.729121
O29	O	1.391620	0.720363	-0.395788
O30	O	1.724953	1.053696	-0.062455
O31	O	0.971924	0.575426	-0.380807
O32	O	1.305258	0.908759	-0.047473
O33	O	1.638591	1.242092	0.285860
O34	O	0.858097	0.567018	-0.567064
O35	O	1.191430	0.900351	-0.233731
O36	O	1.524763	1.233685	0.099603
O37	O	0.971998	0.722623	-0.917350
O38	O	1.305332	1.055957	-0.584017
O39	O	1.638665	1.389290	-0.250684
O40	O	0.858101	0.714376	-0.714468
O41	O	1.191434	1.047710	-0.381135
O42	O	1.524768	1.381043	-0.047801
O43	O	1.058293	0.581514	-0.923667
O44	O	1.391626	0.914847	-0.590333
O45	O	1.724959	1.248181	-0.257000
O46	O	1.058180	0.923639	-0.581632
O47	O	1.391513	1.256972	-0.248299
O48	O	1.724846	1.590305	0.085035
O49	O	0.971934	0.917268	-0.722756
O50	O	1.305268	1.250602	-0.389423
O51	O	1.638601	1.583935	-0.056090
C52	C	0.832614	0.638834	-0.638906
C53	C	1.165948	0.972168	-0.305573
C54	C	1.499281	1.305501	0.027760
C55	C	0.754547	0.633154	-0.633236
C56	C	1.087881	0.966487	-0.299902
C57	C	1.421214	1.299821	0.033431
C58	C	1.015069	0.964002	-0.652216
C59	C	1.348403	1.297335	-0.318883
C60	C	1.681736	1.630669	0.014450
C61	C	1.015122	1.097406	-0.652256
C62	C	1.348455	1.430739	-0.318923
C63	C	1.681788	1.764072	0.014410
C64	C	1.015154	0.652050	-0.965274
C65	C	1.348487	0.985384	-0.631941
C66	C	1.681820	1.318717	-0.298608
C67	C	1.015178	0.651995	-1.098676
C68	C	1.348511	0.985329	-0.765343
C69	C	1.681844	1.318662	-0.432009
C70	C	0.717892	0.707323	-0.707197
C71	C	1.051225	1.040656	-0.373863
C72	C	1.384559	1.373990	-0.040530
C73	C	0.644540	0.701970	-0.701874
C74	C	0.977873	1.035303	-0.368541
C75	C	1.311206	1.368637	-0.035208
C76	C	0.607844	0.622454	-0.622584
C77	C	0.941178	0.955787	-0.289251
C78	C	1.274511	1.289120	0.044082
C79	C	0.644505	0.548277	-0.548621
C80	C	0.977838	0.881610	-0.215287
C81	C	1.311172	1.214943	0.118046
C82	C	0.717856	0.553624	-0.553950
C83	C	1.051189	0.886958	-0.220616
C84	C	1.384522	1.220291	0.112717
C85	C	0.386371	0.602457	-0.602666
C86	C	0.719704	0.935791	-0.269333
C87	C	1.053038	1.269124	0.064001
C88	C	0.313015	0.597118	-0.597340
C89	C	0.646348	0.930451	-0.264007
C90	C	0.979682	1.263784	0.069327
C91	C	0.313055	0.750810	-0.750596
C92	C	0.646388	1.084144	-0.417263
C93	C	0.979722	1.417477	-0.083929
C94	C	0.386407	0.756156	-0.755913
C95	C	0.719741	1.089489	-0.422580
C96	C	1.053074	1.422823	-0.089246
C97	C	0.423061	0.681975	-0.681954
C98	C	0.756395	1.015308	-0.348620
C99	C	1.089728	1.348641	-0.015287
C100	C	0.532867	0.616983	-0.617140
C101	C	0.866200	0.950316	-0.283806
C102	C	1.199533	1.283650	0.049527
C103	C	0.498038	0.687440	-0.687405
C104	C	0.831371	1.020773	-0.354072
C105	C	1.164705	1.354107	-0.020739
C106	C	1.198293	0.665577	-0.665602
C107	C	1.531626	0.998910	-0.332268
C108	C	1.864959	1.332244	0.001065
C109	C	1.276360	0.671287	-0.671301
C110	C	1.609693	1.004620	-0.337968
C111	C	1.943026	1.337953	-0.004634
C112	C	1.015144	0.339140	-0.652266
C113	C	1.348478	0.672474	-0.318933
C114	C	1.681811	1.005807	0.014400
C115	C	1.015164	0.205742	-0.652283
C116	C	1.348498	0.539075	-0.318950
C117	C	1.681831	0.872408	0.014384
C118	C	1.015082	0.652224	-0.340402
C119	C	1.348415	0.985557	-0.007068
C120	C	1.681748	1.318891	0.326265
C121	C	1.015194	0.651951	-0.207010
C122	C	1.348527	0.985284	0.126323
C123	C	1.681860	1.318617	0.459656
H124	H	0.747764	0.772078	-0.771759
H125	H	1.081098	1.105411	-0.438426
H126	H	1.414431	1.438745	-0.105093
Cl127	Cl	0.432533	0.856127	-0.855593
Cl128	Cl	0.765867	1.189460	-0.522260
Cl129	Cl	1.099200	1.522793	-0.188926
H130	H	0.747700	0.493222	-0.493729
H131	H	1.081033	0.826555	-0.160396
H132	H	1.414366	1.159889	0.172938
Cl133	Cl	0.486729	0.517022	-0.517464
Cl134	Cl	0.820062	0.850355	-0.184131
Cl135	Cl	1.153396	1.183689	0.149203
Cl136	Cl	0.266972	0.844062	-0.843566
Cl137	Cl	0.600305	1.177395	-0.510232
Cl138	Cl	0.933638	1.510729	-0.176899
Cl139	Cl	0.266884	0.497156	-0.497645
Cl140	Cl	0.600218	0.830489	-0.164311
Cl141	Cl	0.933551	1.163822	0.169022
H142	H	0.614698	0.762367	-0.762100
H143	H	0.948032	1.095701	-0.428767
H144	H	1.281365	1.429034	-0.095433
Cl145	Cl	0.432441	0.509197	-0.509691
Cl146	Cl	0.765774	0.842530	-0.176357
Cl147	Cl	1.099108	1.175863	0.156976
Cl148	Cl	0.598373	0.448305	-0.448949
Cl149	Cl	0.931707	0.781638	-0.115615
Cl150	Cl	1.265040	1.114971	0.217718
H151	H	0.527918	0.752177	-0.751968
H152	H	0.861252	1.085510	-0.418635
H153	H	1.194585	1.418844	-0.085301
