data_functionalizedCrystal
_audit_creation_method	'MofGen! by Chris Wilmer'
_symmetry_space_group_name_H-M	'P1'
_symmetry_Int_Tables_number	1
_symmetry_cell_setting	triclinic
loop_
_symmetry_equiv_pos_as_xyz
  x,y,z
_cell_length_a	9.065218
_cell_length_b	12.837942
_cell_length_c	8.140239
_cell_angle_alpha	89.996939
_cell_angle_beta	89.997198
_cell_angle_gamma	89.922413
loop_
_atom_site_label
_atom_site_type_symbol
_atom_site_fract_x
_atom_site_fract_y
_atom_site_fract_z
O1	O	1.978903	0.152196	-0.136617
O2	O	2.478903	0.652196	0.363383
O3	O	1.551136	0.164680	-0.136619
O4	O	2.051136	0.664680	0.363381
O5	O	1.755534	0.007446	-0.136608
O6	O	2.255534	0.507446	0.363392
O7	O	1.774505	0.309430	-0.136628
O8	O	2.274505	0.809430	0.363372
O9	O	1.755521	0.007444	0.136619
O10	O	2.255521	0.507444	0.636619
O11	O	1.551123	0.164678	0.136608
O12	O	2.051123	0.664678	0.636608
O13	O	1.978890	0.152194	0.136610
O14	O	2.478890	0.652194	0.636610
Zn15	Zn	1.765005	0.158436	0.179990
Zn16	Zn	2.265005	0.658436	0.679990
Zn17	Zn	1.765021	0.158439	-0.179999
Zn18	Zn	2.265021	0.658439	0.320001
O19	O	1.774492	0.309428	0.136599
O20	O	2.274492	0.809428	0.636599
C21	C	1.495997	0.163479	-0.000006
C22	C	1.995997	0.663479	0.499994
C23	C	1.331718	0.159892	-0.000007
C24	C	1.831718	0.659892	0.499993
C25	C	1.749119	-0.031235	0.000004
C26	C	2.249119	0.468765	0.500004
C27	C	1.730006	-0.146492	0.000002
C28	C	2.230006	0.353508	0.500002
C29	C	1.959783	-0.385293	-0.000031
C30	C	2.459783	0.114707	0.499969
C31	C	1.941831	-0.493587	-0.000034
C32	C	2.441831	0.006413	0.499966
C33	C	1.676152	-0.471377	-0.000019
C34	C	2.176152	0.028623	0.499981
C35	C	1.694104	-0.363083	-0.000016
C36	C	2.194104	0.136917	0.499984
C37	C	1.835924	-0.320045	-0.000020
C38	C	2.335924	0.179955	0.499980
C39	C	1.853874	-0.211748	-0.000005
C40	C	2.353874	0.288252	0.499995
C41	C	1.588196	-0.189540	-0.000001
C42	C	2.088196	0.310460	0.499999
C43	C	1.570245	-0.297835	-0.000004
C44	C	2.070245	0.202165	0.499996
C45	C	2.034029	0.153395	-0.000007
C46	C	2.534029	0.653395	0.499993
C47	C	2.198308	0.156983	-0.000017
C48	C	2.698308	0.656983	0.499983
C49	C	1.780907	0.348110	-0.000017
C50	C	2.280907	0.848110	0.499983
C51	C	1.800020	0.463366	-0.000025
C52	C	2.300020	0.963366	0.499975
N53	N	1.765004	0.158434	0.425672
N54	N	2.265004	0.658434	0.925672
N55	N	1.765033	0.158433	-0.425681
N56	N	2.265033	0.658433	0.074319
H57	H	2.075258	-0.350251	-0.000019
H58	H	2.575258	0.149749	0.499981
H59	H	1.454779	-0.332891	-0.000007
H60	H	1.954779	0.167109	0.499993
H61	H	2.042690	-0.546709	-0.000049
H62	H	2.542690	-0.046709	0.499951
N63	N	2.006831	-0.165328	-0.000010
N64	N	2.506831	0.334672	0.499990
H65	H	1.999414	-0.086822	0.000002
H66	H	2.499414	0.413178	0.500002
H67	H	2.061694	-0.189116	0.101276
H68	H	2.561694	0.310884	0.601276
N69	N	1.454593	-0.119166	0.000020
N70	N	1.954593	0.380834	0.500020
H71	H	1.487480	-0.044030	0.000025
H72	H	1.987480	0.455970	0.500025
H73	H	1.393446	-0.133238	-0.101265
H74	H	1.893446	0.366762	0.398735
N75	N	1.523201	-0.517806	-0.000021
N76	N	2.023201	-0.017806	0.499979
H77	H	1.468255	-0.494100	-0.101305
H78	H	1.968255	0.005900	0.398695
H79	H	1.530757	-0.596302	0.000029
H80	H	2.030757	-0.096302	0.500029
