data_functionalizedCrystal
_audit_creation_method	'MofGen! by Chris Wilmer'
_symmetry_space_group_name_H-M	'P1'
_symmetry_Int_Tables_number	1
_symmetry_cell_setting	triclinic
loop_
_symmetry_equiv_pos_as_xyz
  x,y,z
_cell_length_a	25.639239
_cell_length_b	25.639243
_cell_length_c	21.395355
_cell_angle_alpha	90.027154
_cell_angle_beta	89.980666
_cell_angle_gamma	89.958634
loop_
_atom_site_label
_atom_site_type_symbol
_atom_site_fract_x
_atom_site_fract_y
_atom_site_fract_z
Zn1	Zn	-0.208174	-0.799283	-0.354301
Zn2	Zn	0.041826	-0.549283	-0.104301
Zn3	Zn	0.291826	-0.299283	0.145699
Zn4	Zn	0.541826	-0.049283	0.395699
Zn5	Zn	-0.295594	-0.799189	-0.249522
Zn6	Zn	-0.045594	-0.549189	0.000478
Zn7	Zn	0.204406	-0.299189	0.250478
Zn8	Zn	0.454406	-0.049189	0.500478
Zn9	Zn	-0.208178	-0.711842	-0.249533
Zn10	Zn	0.041822	-0.461842	0.000467
Zn11	Zn	0.291822	-0.211842	0.250467
Zn12	Zn	0.541822	0.038158	0.500467
Zn13	Zn	-0.295584	-0.711804	-0.354258
Zn14	Zn	-0.045584	-0.461804	-0.104258
Zn15	Zn	0.204416	-0.211804	0.145742
Zn16	Zn	0.454416	0.038196	0.395742
O17	O	-0.251883	-0.755529	-0.301904
O18	O	-0.001883	-0.505529	-0.051904
O19	O	0.248117	-0.255529	0.198096
O20	O	0.498117	-0.005529	0.448096
O21	O	-0.219773	-0.872435	-0.340416
O22	O	0.030227	-0.622435	-0.090416
O23	O	0.280227	-0.372435	0.159584
O24	O	0.530227	-0.122435	0.409584
O25	O	-0.284003	-0.787579	-0.161846
O26	O	-0.034003	-0.537579	0.088154
O27	O	0.215997	-0.287579	0.338154
O28	O	0.465997	-0.037579	0.588154
O29	O	-0.135012	-0.723496	-0.263454
O30	O	0.114988	-0.473496	-0.013454
O31	O	0.364988	-0.223496	0.236546
O32	O	0.614988	0.026504	0.486546
O33	O	-0.283999	-0.872367	-0.263435
O34	O	-0.033999	-0.622367	-0.013435
O35	O	0.216001	-0.372367	0.236565
O36	O	0.466001	-0.122367	0.486565
O37	O	-0.135009	-0.787738	-0.340426
O38	O	0.114991	-0.537738	-0.090426
O39	O	0.364991	-0.287738	0.159574
O40	O	0.614991	-0.037738	0.409574
O41	O	-0.219780	-0.723405	-0.161854
O42	O	0.030220	-0.473405	0.088146
O43	O	0.280220	-0.223405	0.338146
O44	O	0.530220	0.026595	0.588146
O45	O	-0.219771	-0.638672	-0.263412
O46	O	0.030229	-0.388672	-0.013412
O47	O	0.280229	-0.138672	0.236588
O48	O	0.530229	0.111328	0.486588
O49	O	-0.283983	-0.723432	-0.441941
O50	O	-0.033983	-0.473432	-0.191941
O51	O	0.216017	-0.223432	0.058059
O52	O	0.466017	0.026568	0.308059
O53	O	-0.283987	-0.638644	-0.340352
O54	O	-0.033987	-0.388644	-0.090352
O55	O	0.216013	-0.138644	0.159648
O56	O	0.466013	0.111356	0.409648
O57	O	-0.219763	-0.787702	-0.441973
O58	O	0.030237	-0.537702	-0.191973
O59	O	0.280237	-0.287702	0.058027
O60	O	0.530237	-0.037702	0.308027
O61	O	-0.368758	-0.787542	-0.263393
O62	O	-0.118758	-0.537542	-0.013393
O63	O	0.131242	-0.287542	0.236607
O64	O	0.381242	-0.037542	0.486607
O65	O	-0.368751	-0.723341	-0.340342
O66	O	-0.118751	-0.473341	-0.090342
O67	O	0.131249	-0.223341	0.159658
O68	O	0.381249	0.026659	0.409658
C69	C	-0.251879	-0.619687	-0.301879
C70	C	-0.001879	-0.369687	-0.051879
C71	C	0.248121	-0.119687	0.198121
C72	C	0.498121	0.130313	0.448121
C73	C	-0.251890	-0.561573	-0.301883
C74	C	-0.001890	-0.311573	-0.051883
C75	C	0.248110	-0.061573	0.198117
C76	C	0.498110	0.188427	0.448117
C77	C	-0.218492	-0.201240	-0.342054
C78	C	0.031508	0.048760	-0.092054
C79	C	0.281508	0.298760	0.157946
C80	C	0.531508	0.548760	0.407946
C81	C	-0.218491	-0.146636	-0.342058
C82	C	0.031509	0.103364	-0.092058
C83	C	0.281509	0.353364	0.157942
C84	C	0.531509	0.603364	0.407942
O85	O	-0.190085	-0.118425	-0.376182
O86	O	0.059915	0.131575	-0.126182
O87	O	0.309915	0.381575	0.123818
O88	O	0.559915	0.631575	0.373818
N89	N	-0.251881	-0.119290	-0.301920
N90	N	-0.001881	0.130710	-0.051920
N91	N	0.248119	0.380710	0.198080
N92	N	0.498119	0.630710	0.448080
C93	C	-0.285269	-0.146552	-0.261772
C94	C	-0.035269	0.103448	-0.011772
C95	C	0.214731	0.353448	0.238228
C96	C	0.464731	0.603448	0.488228
O97	O	-0.313668	-0.118279	-0.227632
O98	O	-0.063668	0.131721	0.022368
O99	O	0.186332	0.381721	0.272368
O100	O	0.436332	0.631721	0.522368
C101	C	-0.285266	-0.201155	-0.261765
C102	C	-0.035266	0.048845	-0.011765
C103	C	0.214734	0.298845	0.238235
C104	C	0.464734	0.548845	0.488235
C105	C	-0.251878	-0.228498	-0.301910
C106	C	-0.001878	0.021502	-0.051910
C107	C	0.248122	0.271502	0.198090
C108	C	0.498122	0.521502	0.448090
C109	C	-0.185106	-0.228582	-0.382195
C110	C	0.064894	0.021418	-0.132195
C111	C	0.314894	0.271418	0.117805
C112	C	0.564894	0.521418	0.367805
C113	C	-0.185108	-0.283183	-0.382191
C114	C	0.064892	-0.033183	-0.132191
C115	C	0.314892	0.216817	0.117809
C116	C	0.564892	0.466817	0.367809
C117	C	-0.218494	-0.310441	-0.342047
C118	C	0.031506	-0.060441	-0.092047
C119	C	0.281506	0.189559	0.157953
C120	C	0.531506	0.439559	0.407953
C121	C	-0.251880	-0.283098	-0.301907
C122	C	-0.001880	-0.033098	-0.051907
C123	C	0.248120	0.216902	0.198093
C124	C	0.498120	0.466902	0.448093
C125	C	-0.318651	-0.228416	-0.221615
C126	C	-0.068651	0.021584	0.028385
C127	C	0.181349	0.271584	0.278385
C128	C	0.431349	0.521584	0.528385
C129	C	-0.318646	-0.283023	-0.221611
C130	C	-0.068646	-0.033023	0.028389
C131	C	0.181354	0.216977	0.278389
C132	C	0.431354	0.466977	0.528389
C133	C	-0.285258	-0.310366	-0.261756
C134	C	-0.035258	-0.060366	-0.011756
C135	C	0.214742	0.189634	0.238244
C136	C	0.464742	0.439634	0.488244
C137	C	-0.285268	-0.364957	-0.261760
C138	C	-0.035268	-0.114957	-0.011760
C139	C	0.214732	0.135043	0.238240
C140	C	0.464732	0.385043	0.488240
N141	N	-0.251878	-0.392302	-0.301897
N142	N	-0.001878	-0.142302	-0.051897
N143	N	0.248122	0.107698	0.198103
N144	N	0.498122	0.357698	0.448103
C145	C	-0.218492	-0.365044	-0.342041
C146	C	0.031508	-0.115044	-0.092041
C147	C	0.281508	0.134956	0.157959
C148	C	0.531508	0.384956	0.407959
C149	C	-0.285271	-0.031882	-0.261788
C150	C	-0.035271	0.218118	-0.011788
C151	C	0.214729	0.468118	0.238212
C152	C	0.464729	0.718118	0.488212
C153	C	-0.285276	0.022721	-0.261797
C154	C	-0.035276	0.272721	-0.011797
C155	C	0.214724	0.522721	0.238203
C156	C	0.464724	0.772721	0.488203
C157	C	-0.218498	0.022634	-0.342082
C158	C	0.031502	0.272634	-0.092082
C159	C	0.281502	0.522634	0.157918
C160	C	0.531502	0.772634	0.407918
C161	C	-0.218496	-0.031970	-0.342076
C162	C	0.031504	0.218030	-0.092076
C163	C	0.281504	0.468030	0.157924
C164	C	0.531504	0.718030	0.407924
C165	C	-0.251882	-0.059227	-0.301925
C166	C	-0.001882	0.190773	-0.051925
C167	C	0.248118	0.440773	0.198075
C168	C	0.498118	0.690773	0.448075
C169	C	-0.218497	-0.479709	-0.342032
C170	C	0.031503	-0.229709	-0.092032
C171	C	0.281503	0.020291	0.157968
C172	C	0.531503	0.270291	0.407968
C173	C	-0.218503	-0.534315	-0.342027
C174	C	0.031497	-0.284315	-0.092027
C175	C	0.281497	-0.034315	0.157973
C176	C	0.531497	0.215685	0.407973
C177	C	-0.285279	-0.534223	-0.261740
C178	C	-0.035279	-0.284223	-0.011740
C179	C	0.214721	-0.034223	0.238260
C180	C	0.464721	0.215777	0.488260
C181	C	-0.285276	-0.479622	-0.261747
C182	C	-0.035276	-0.229622	-0.011747
C183	C	0.214724	0.020378	0.238253
C184	C	0.464724	0.270378	0.488253
C185	C	-0.251880	-0.452367	-0.301895
C186	C	-0.001880	-0.202367	-0.051895
C187	C	0.248120	0.047633	0.198105
C188	C	0.498120	0.297633	0.448105
O189	O	-0.313658	-0.393203	-0.227651
O190	O	-0.063658	-0.143203	0.022349
O191	O	0.186342	0.106797	0.272349
O192	O	0.436342	0.356797	0.522349
O193	O	-0.190092	-0.393324	-0.376169
O194	O	0.059908	-0.143324	-0.126169
O195	O	0.309908	0.106676	0.123831
O196	O	0.559908	0.356676	0.373831
C197	C	-0.387725	-0.755441	-0.301875
C198	C	-0.137725	-0.505441	-0.051875
C199	C	0.112275	-0.255441	0.198125
C200	C	0.362275	-0.005441	0.448125
C201	C	-0.445839	-0.755452	-0.301884
C202	C	-0.195839	-0.505452	-0.051884
C203	C	0.054161	-0.255452	0.198116
C204	C	0.304161	-0.005452	0.448116
C205	C	-0.806193	-0.789046	-0.261905
C206	C	-0.556193	-0.539046	-0.011905
C207	C	-0.306193	-0.289046	0.238095
C208	C	-0.056193	-0.039046	0.488095
C209	C	-0.860797	-0.789067	-0.261913
C210	C	-0.610797	-0.539067	-0.011913
C211	C	-0.360797	-0.289067	0.238087
C212	C	-0.110797	-0.039067	0.488087
O213	O	-0.889027	-0.817539	-0.227890
O214	O	-0.639027	-0.567539	0.022110
O215	O	-0.389027	-0.317539	0.272110
O216	O	-0.139027	-0.067539	0.522110
N217	N	-0.888122	-0.755621	-0.301945
N218	N	-0.638122	-0.505621	-0.051945
N219	N	-0.388122	-0.255621	0.198055
N220	N	-0.138122	-0.005621	0.448055
C221	C	-0.860838	-0.722157	-0.341976
C222	C	-0.610838	-0.472157	-0.091976
C223	C	-0.360838	-0.222157	0.158024
C224	C	-0.110838	0.027843	0.408024
O225	O	-0.889094	-0.693712	-0.376028
O226	O	-0.639094	-0.443712	-0.126028
O227	O	-0.389094	-0.193712	0.123972
O228	O	-0.139094	0.056288	0.373972
C229	C	-0.806235	-0.722140	-0.341970
C230	C	-0.556235	-0.472140	-0.091970
C231	C	-0.306235	-0.222140	0.158030
C232	C	-0.056235	0.027860	0.408030
C233	C	-0.778914	-0.755584	-0.301931
C234	C	-0.528914	-0.505584	-0.051931
C235	C	-0.278914	-0.255584	0.198069
C236	C	-0.028914	-0.005584	0.448069
C237	C	-0.778872	-0.822488	-0.221869
C238	C	-0.528872	-0.572488	0.028131
C239	C	-0.278872	-0.322488	0.278131
C240	C	-0.028872	-0.072488	0.528131
C241	C	-0.724271	-0.822467	-0.221860
C242	C	-0.474271	-0.572467	0.028140
C243	C	-0.224271	-0.322467	0.278140
C244	C	0.025729	-0.072467	0.528140
C245	C	-0.696992	-0.789004	-0.261887
C246	C	-0.446992	-0.539004	-0.011887
C247	C	-0.196992	-0.289004	0.238113
C248	C	0.053008	-0.039004	0.488113
C249	C	-0.724313	-0.755563	-0.301922
C250	C	-0.474313	-0.505563	-0.051922
C251	C	-0.224313	-0.255563	0.198078
C252	C	0.025687	-0.005563	0.448078
C253	C	-0.778953	-0.688679	-0.382004
C254	C	-0.528953	-0.438679	-0.132004
C255	C	-0.278953	-0.188679	0.117996
C256	C	-0.028953	0.061321	0.367996
C257	C	-0.724346	-0.688665	-0.381995
C258	C	-0.474346	-0.438665	-0.131995
C259	C	-0.224346	-0.188665	0.118005
C260	C	0.025654	0.061335	0.368005
C261	C	-0.697025	-0.722109	-0.341956
C262	C	-0.447025	-0.472109	-0.091956
C263	C	-0.197025	-0.222109	0.158044
C264	C	0.052975	0.027891	0.408044
C265	C	-0.642434	-0.722079	-0.341939
C266	C	-0.392434	-0.472079	-0.091939
C267	C	-0.142434	-0.222079	0.158061
C268	C	0.107566	0.027921	0.408061
N269	N	-0.615110	-0.755524	-0.301907
N270	N	-0.365110	-0.505524	-0.051907
N271	N	-0.115110	-0.255524	0.198093
N272	N	0.134890	-0.005524	0.448093
C273	C	-0.642389	-0.788987	-0.261881
C274	C	-0.392389	-0.538987	-0.011881
C275	C	-0.142389	-0.288987	0.238119
C276	C	0.107611	-0.038987	0.488119
C277	C	-0.975509	-0.722197	-0.341986
C278	C	-0.725509	-0.472197	-0.091986
C279	C	-0.475509	-0.222197	0.158014
C280	C	-0.225509	0.027803	0.408014
C281	C	-1.030111	-0.722211	-0.341989
C282	C	-0.780111	-0.472211	-0.091989
C283	C	-0.530111	-0.222211	0.158011
C284	C	-0.280111	0.027789	0.408011
C285	C	-1.030067	-0.789121	-0.261927
C286	C	-0.780067	-0.539121	-0.011927
C287	C	-0.530067	-0.289121	0.238073
C288	C	-0.280067	-0.039121	0.488073
C289	C	-0.975463	-0.789104	-0.261921
C290	C	-0.725463	-0.539104	-0.011921
C291	C	-0.475463	-0.289104	0.238079
C292	C	-0.225463	-0.039104	0.488079
C293	C	-0.948185	-0.755642	-0.301954
C294	C	-0.698185	-0.505642	-0.051954
C295	C	-0.448185	-0.255642	0.198046
C296	C	-0.198185	-0.005642	0.448046
C297	C	-0.527724	-0.788940	-0.261865
C298	C	-0.277724	-0.538940	-0.011865
C299	C	-0.027724	-0.288940	0.238135
C300	C	0.222276	-0.038940	0.488135
C301	C	-0.473118	-0.788914	-0.261857
C302	C	-0.223118	-0.538914	-0.011857
C303	C	0.026882	-0.288914	0.238143
C304	C	0.276882	-0.038914	0.488143
C305	C	-0.473168	-0.722006	-0.341921
C306	C	-0.223168	-0.472006	-0.091921
C307	C	0.026832	-0.222006	0.158079
C308	C	0.276832	0.027994	0.408079
C309	C	-0.527769	-0.722030	-0.341927
C310	C	-0.277769	-0.472030	-0.091927
C311	C	-0.027769	-0.222030	0.158073
C312	C	0.222231	0.027970	0.408073
C313	C	-0.555045	-0.755501	-0.301896
C314	C	-0.305045	-0.505501	-0.051896
C315	C	-0.055045	-0.255501	0.198104
C316	C	0.194955	-0.005501	0.448104
O317	O	-0.614170	-0.693623	-0.375947
O318	O	-0.364170	-0.443623	-0.125947
O319	O	-0.114170	-0.193623	0.124053
O320	O	0.135830	0.056377	0.374053
O321	O	-0.614127	-0.817433	-0.227841
O322	O	-0.364127	-0.567433	0.022159
O323	O	-0.114127	-0.317433	0.272159
O324	O	0.135873	-0.067433	0.522159
C325	C	-0.115509	-0.755632	-0.301946
C326	C	0.134491	-0.505632	-0.051946
C327	C	0.384491	-0.255632	0.198054
C328	C	0.634491	-0.005632	0.448054
C329	C	-0.057395	-0.755676	-0.301964
C330	C	0.192605	-0.505676	-0.051964
C331	C	0.442605	-0.255676	0.198036
C332	C	0.692605	-0.005676	0.448036
C333	C	-0.251872	-0.755573	-0.465327
C334	C	-0.001872	-0.505573	-0.215327
C335	C	0.248128	-0.255573	0.034673
C336	C	0.498128	-0.005573	0.284673
C337	C	-0.251867	-0.755591	-0.534968
C338	C	-0.001867	-0.505591	-0.284968
C339	C	0.248133	-0.255591	-0.034968
C340	C	0.498133	-0.005591	0.215032
C341	C	-0.251886	0.108098	-0.301929
C342	C	-0.001886	0.358098	-0.051929
C343	C	0.248114	0.608098	0.198071
C344	C	0.498114	0.858098	0.448071
C345	C	-0.251888	0.049984	-0.301939
C346	C	-0.001888	0.299984	-0.051939
C347	C	0.248112	0.549984	0.198061
C348	C	0.498112	0.799984	0.448061
C349	C	-0.218427	-0.789055	-0.567699
C350	C	0.031573	-0.539055	-0.317699
C351	C	0.281573	-0.289055	-0.067699
C352	C	0.531573	-0.039055	0.182301
C353	C	-0.218404	-0.789055	-0.633135
C354	C	0.031596	-0.539055	-0.383135
C355	C	0.281596	-0.289055	-0.133135
C356	C	0.531596	-0.039055	0.116865
C357	C	-0.251832	-0.755595	-0.665837
C358	C	-0.001832	-0.505595	-0.415837
C359	C	0.248168	-0.255595	-0.165837
C360	C	0.498168	-0.005595	0.084163
C361	C	-0.285275	-0.722125	-0.633098
C362	C	-0.035275	-0.472125	-0.383098
C363	C	0.214725	-0.222125	-0.133098
C364	C	0.464725	0.027875	0.116902
C365	C	-0.285293	-0.722123	-0.567664
C366	C	-0.035293	-0.472123	-0.317664
C367	C	0.214707	-0.222123	-0.067664
C368	C	0.464707	0.027877	0.182336
C369	C	-0.298909	-0.751437	-0.769501
C370	C	-0.048909	-0.501437	-0.519501
C371	C	0.201091	-0.251437	-0.269501
C372	C	0.451091	-0.001437	-0.019501
C373	C	-0.298892	-0.751442	-0.834934
C374	C	-0.048892	-0.501442	-0.584934
C375	C	0.201108	-0.251442	-0.334934
C376	C	0.451108	-0.001442	-0.084934
C377	C	-0.251777	-0.755599	-0.867658
C378	C	-0.001777	-0.505599	-0.617658
C379	C	0.248223	-0.255599	-0.367658
C380	C	0.498223	-0.005599	-0.117658
C381	C	-0.204676	-0.759760	-0.834940
C382	C	0.045324	-0.509760	-0.584940
C383	C	0.295324	-0.259760	-0.334940
C384	C	0.545324	-0.009760	-0.084940
C385	C	-0.204694	-0.759758	-0.769506
C386	C	0.045306	-0.509758	-0.519506
C387	C	0.295306	-0.259758	-0.269506
C388	C	0.545306	-0.009758	-0.019506
C389	C	-0.251816	-0.755594	-0.736789
C390	C	-0.001816	-0.505594	-0.486789
C391	C	0.248184	-0.255594	-0.236789
C392	C	0.498184	-0.005594	0.013211
C393	C	-0.218309	-0.789064	-0.971341
C394	C	0.031691	-0.539064	-0.721341
C395	C	0.281691	-0.289064	-0.471341
C396	C	0.531691	-0.039064	-0.221341
C397	C	-0.218285	-0.789059	-1.036778
C398	C	0.031715	-0.539059	-0.786778
C399	C	0.281715	-0.289059	-0.536778
C400	C	0.531715	-0.039059	-0.286778
C401	C	-0.285161	-0.722132	-1.036740
C402	C	-0.035161	-0.472132	-0.786740
C403	C	0.214839	-0.222132	-0.536740
C404	C	0.464839	0.027868	-0.286740
C405	C	-0.285179	-0.722134	-0.971304
C406	C	-0.035179	-0.472134	-0.721304
C407	C	0.214821	-0.222134	-0.471304
C408	C	0.464821	0.027866	-0.221304
C409	C	-0.251754	-0.755602	-0.938609
C410	C	-0.001754	-0.505602	-0.688609
C411	C	0.248246	-0.255602	-0.438609
C412	C	0.498246	-0.005602	-0.188609
C413	C	-0.251855	-0.755516	-0.139116
C414	C	-0.001855	-0.505516	0.110884
C415	C	0.248145	-0.255516	0.360884
C416	C	0.498145	-0.005516	0.610884
C417	C	-0.251713	-0.755599	-0.069475
C418	C	-0.001713	-0.505599	0.180525
C419	C	0.248287	-0.255599	0.430525
C420	C	0.498287	-0.005599	0.680525
H421	H	-0.191311	0.044837	-0.374768
H422	H	0.058689	0.294837	-0.124768
H423	H	0.308689	0.544837	0.125232
H424	H	0.558689	0.794837	0.375232
H425	H	-0.337244	-0.748057	-0.861568
H426	H	-0.087244	-0.498057	-0.611568
H427	H	0.162756	-0.248057	-0.361568
H428	H	0.412756	0.001943	-0.111568
H429	H	-0.312490	-0.694880	-0.659728
H430	H	-0.062490	-0.444880	-0.409728
H431	H	0.187510	-0.194880	-0.159728
H432	H	0.437510	0.055120	0.090272
H433	H	-0.191209	-0.816307	-0.541082
H434	H	0.058791	-0.566307	-0.291082
H435	H	0.308791	-0.316307	-0.041082
H436	H	0.558791	-0.066307	0.208918
H437	H	-0.345839	-0.206163	-0.188924
H438	H	-0.095839	0.043837	0.061076
H439	H	0.154161	0.293837	0.311076
H440	H	0.404161	0.543837	0.561076
H441	H	-0.191314	-0.556575	-0.374719
H442	H	0.058686	-0.306575	-0.124719
H443	H	0.308686	-0.056575	0.125281
H444	H	0.558686	0.193425	0.375281
H445	H	-0.312463	-0.556426	-0.229057
H446	H	-0.062463	-0.306426	0.020943
H447	H	0.187537	-0.056426	0.270943
H448	H	0.437537	0.193574	0.520943
O449	O	-0.182328	-0.825138	-0.668456
O450	O	0.067672	-0.575138	-0.418456
O451	O	0.317672	-0.325138	-0.168456
O452	O	0.567672	-0.075138	0.081544
H453	H	-0.205720	-0.851716	-0.698291
H454	H	0.044280	-0.601716	-0.448291
H455	H	0.294280	-0.351716	-0.198291
H456	H	0.544280	-0.101716	0.051709
O457	O	-1.059493	-0.825225	-0.218764
O458	O	-0.809493	-0.575225	0.031236
O459	O	-0.559493	-0.325225	0.281236
O460	O	-0.309493	-0.075225	0.531236
H461	H	-1.102052	-0.819621	-0.225506
H462	H	-0.852052	-0.569621	0.024494
H463	H	-0.602052	-0.319621	0.274494
H464	H	-0.352052	-0.069621	0.524494
H465	H	-0.953222	-0.816337	-0.229318
H466	H	-0.703222	-0.566337	0.020682
H467	H	-0.453222	-0.316337	0.270682
H468	H	-0.203222	-0.066337	0.520682
O469	O	-0.153851	-0.764243	-0.870219
O470	O	0.096149	-0.514243	-0.620219
O471	O	0.346149	-0.264243	-0.370219
O472	O	0.596149	-0.014243	-0.120219
H473	H	-0.128183	-0.731019	-0.857631
H474	H	0.121817	-0.481019	-0.607631
H475	H	0.371817	-0.231019	-0.357631
H476	H	0.621817	0.018981	-0.107631
O477	O	-1.059574	-0.686130	-0.385166
O478	O	-0.809574	-0.436130	-0.135166
O479	O	-0.559574	-0.186130	0.114834
O480	O	-0.309574	0.063870	0.364834
H481	H	-1.102127	-0.691758	-0.378448
H482	H	-0.852127	-0.441758	-0.128448
H483	H	-0.602127	-0.191758	0.121552
H484	H	-0.352127	0.058242	0.371552
O485	O	-0.182483	-0.450316	-0.385336
O486	O	0.067517	-0.200316	-0.135336
O487	O	0.317517	0.049684	0.114664
O488	O	0.567517	0.299684	0.364664
H489	H	-0.159274	-0.478509	-0.413249
H490	H	0.090726	-0.228509	-0.163249
H491	H	0.340726	0.021491	0.086751
H492	H	0.590726	0.271491	0.336751
O493	O	-0.443653	-0.824995	-0.218676
O494	O	-0.193653	-0.574995	0.031324
O495	O	0.056347	-0.324995	0.281324
O496	O	0.306347	-0.074995	0.531324
H497	H	-0.401100	-0.819360	-0.225389
H498	H	-0.151100	-0.569360	0.024611
H499	H	0.098900	-0.319360	0.274611
H500	H	0.348900	-0.069360	0.524611
O501	O	-0.149087	-0.312671	-0.425478
O502	O	0.100913	-0.062671	-0.175478
O503	O	0.350913	0.187329	0.074522
O504	O	0.600913	0.437329	0.324522
H505	H	-0.125868	-0.284536	-0.453382
H506	H	0.124132	-0.034536	-0.203382
H507	H	0.374132	0.215464	0.046618
H508	H	0.624132	0.465464	0.296618
H509	H	-0.345832	-0.305213	-0.188914
H510	H	-0.095832	-0.055213	0.061086
H511	H	0.154168	0.194787	0.311086
H512	H	0.404168	0.444787	0.561086
O513	O	-0.321240	-0.686025	-0.936007
O514	O	-0.071240	-0.436025	-0.686007
O515	O	0.178760	-0.186025	-0.436007
O516	O	0.428760	0.063975	-0.186007
H517	H	-0.362276	-0.694950	-0.948563
H518	H	-0.112276	-0.444950	-0.698563
H519	H	0.137724	-0.194950	-0.448563
H520	H	0.387724	0.055050	-0.198563
H521	H	-0.191089	-0.816313	-0.944719
H522	H	0.058911	-0.566313	-0.694719
H523	H	0.308911	-0.316313	-0.444719
H524	H	0.558911	-0.066313	-0.194719
O525	O	-0.349729	-0.746947	-0.734208
O526	O	-0.099729	-0.496947	-0.484208
O527	O	0.150271	-0.246947	-0.234208
O528	O	0.400271	0.003053	0.015792
H529	H	-0.382477	-0.744059	-0.767949
H530	H	-0.132477	-0.494059	-0.517949
H531	H	0.117523	-0.244059	-0.267949
H532	H	0.367523	0.005941	-0.017949
H533	H	-0.312523	-0.694870	-0.541015
H534	H	-0.062523	-0.444870	-0.291015
H535	H	0.187477	-0.194870	-0.041015
H536	H	0.437477	0.055130	0.208985
H537	H	-0.312462	-0.054071	-0.229094
H538	H	-0.062462	0.195929	0.020906
H539	H	0.187538	0.445929	0.270906
H540	H	0.437538	0.695929	0.520906
H541	H	-0.157916	-0.206395	-0.414885
H542	H	0.092084	0.043605	-0.164885
H543	H	0.342084	0.293605	0.085115
H544	H	0.592084	0.543605	0.335115
O545	O	-0.182479	-0.061460	-0.385365
O546	O	0.067521	0.188540	-0.135365
O547	O	0.317521	0.438540	0.114635
O548	O	0.567521	0.688540	0.364635
H549	H	-0.159263	-0.033327	-0.413275
H550	H	0.090737	0.216673	-0.163275
H551	H	0.340737	0.466673	0.086725
H552	H	0.590737	0.716673	0.336725
H553	H	-0.312470	0.044978	-0.229115
H554	H	-0.062470	0.294978	0.020885
H555	H	0.187530	0.544978	0.270885
H556	H	0.437530	0.794978	0.520885
O557	O	-0.443740	-0.685913	-0.385089
O558	O	-0.193740	-0.435913	-0.135089
O559	O	0.056260	-0.185913	0.114911
O560	O	0.306260	0.064087	0.364911
H561	H	-0.454193	-0.694863	-0.434275
H562	H	-0.204193	-0.444863	-0.184275
H563	H	0.045807	-0.194863	0.065725
H564	H	0.295807	0.055137	0.315725
O565	O	-0.321286	-0.450126	-0.218451
O566	O	-0.071286	-0.200126	0.031549
O567	O	0.178714	0.049874	0.281549
O568	O	0.428714	0.299874	0.531549
H569	H	-0.344500	-0.478256	-0.190535
H570	H	-0.094500	-0.228256	0.059465
H571	H	0.155500	0.021744	0.309465
H572	H	0.405500	0.271744	0.559465
H573	H	-0.549926	-0.816196	-0.229269
H574	H	-0.299926	-0.566196	0.020731
H575	H	-0.049926	-0.316196	0.270731
H576	H	0.200074	-0.066196	0.520731
O577	O	-0.694806	-0.858546	-0.178685
O578	O	-0.444806	-0.608546	0.071315
O579	O	-0.194806	-0.358546	0.321315
O580	O	0.055194	-0.108546	0.571315
H581	H	-0.722956	-0.881820	-0.150863
H582	H	-0.472956	-0.631820	0.099137
H583	H	-0.222956	-0.381820	0.349137
H584	H	0.027044	-0.131820	0.599137
H585	H	-0.801077	-0.849740	-0.189275
H586	H	-0.551077	-0.599740	0.060725
H587	H	-0.301077	-0.349740	0.310725
H588	H	-0.051077	-0.099740	0.560725
H589	H	-0.953302	-0.694944	-0.374583
H590	H	-0.703302	-0.444944	-0.124583
H591	H	-0.453302	-0.194944	0.125417
H592	H	-0.203302	0.055056	0.375417
H593	H	-0.801189	-0.661443	-0.414605
H594	H	-0.551189	-0.411443	-0.164605
H595	H	-0.301189	-0.161443	0.085395
H596	H	-0.051189	0.088557	0.335395
O597	O	-0.182216	-0.825155	-1.072085
O598	O	0.067784	-0.575155	-0.822085
O599	O	0.317784	-0.325155	-0.572085
O600	O	0.567784	-0.075155	-0.322085
H601	H	-0.158982	-0.848430	-1.038354
H602	H	0.091018	-0.598430	-0.788354
H603	H	0.341018	-0.348430	-0.538354
H604	H	0.591018	-0.098430	-0.288354
O605	O	-0.694923	-0.652567	-0.425166
O606	O	-0.444923	-0.402567	-0.175166
O607	O	-0.194923	-0.152567	0.074834
O608	O	0.055077	0.097433	0.324834
H609	H	-0.723099	-0.629313	-0.453000
H610	H	-0.473099	-0.379313	-0.203000
H611	H	-0.223099	-0.129313	0.047000
H612	H	0.026901	0.120687	0.297000
O613	O	-0.557242	-0.685959	-0.385108
O614	O	-0.307242	-0.435959	-0.135108
O615	O	-0.057242	-0.185959	0.114892
O616	O	0.192758	0.064041	0.364892
H617	H	-0.529097	-0.662688	-0.412941
H618	H	-0.279097	-0.412688	-0.162941
H619	H	-0.029097	-0.162688	0.087059
H620	H	0.220903	0.087312	0.337059
H621	H	-0.166343	-0.763145	-0.742870
H622	H	0.083657	-0.513145	-0.492870
H623	H	0.333657	-0.263145	-0.242870
H624	H	0.583657	-0.013145	0.007130
O625	O	-0.321216	-0.686042	-1.072000
O626	O	-0.071216	-0.436042	-0.822000
O627	O	0.178784	-0.186042	-0.572000
O628	O	0.428784	0.063958	-0.322000
H629	H	-0.315588	-0.691666	-1.123001
H630	H	-0.065588	-0.441666	-0.873001
H631	H	0.184412	-0.191666	-0.623001
H632	H	0.434412	0.058334	-0.373001
