data_functionalizedCrystal
_audit_creation_method	'MofGen! by Chris Wilmer'
_symmetry_space_group_name_H-M	'P1'
_symmetry_Int_Tables_number	1
_symmetry_cell_setting	triclinic
loop_
_symmetry_equiv_pos_as_xyz
  x,y,z
_cell_length_a	16.120484
_cell_length_b	14.908610
_cell_length_c	14.908308
_cell_angle_alpha	89.826017
_cell_angle_beta	95.986071
_cell_angle_gamma	90.215361
loop_
_atom_site_label
_atom_site_type_symbol
_atom_site_fract_x
_atom_site_fract_y
_atom_site_fract_z
Zn1	Zn	-0.434983	-1.320094	-0.609992
Zn2	Zn	0.065017	-0.820094	-0.109992
Zn3	Zn	-0.566804	-1.321037	-0.466415
Zn4	Zn	-0.066804	-0.821037	0.033585
Zn5	Zn	-0.418969	-1.179337	-0.450162
Zn6	Zn	0.081031	-0.679337	0.049838
Zn7	Zn	-0.565807	-1.162123	-0.608012
Zn8	Zn	-0.065807	-0.662123	-0.108012
O9	O	-0.496641	-1.245648	-0.533645
O10	O	0.003359	-0.745648	-0.033645
O11	O	-0.459588	-1.445633	-0.598576
O12	O	0.040412	-0.945633	-0.098576
O13	O	-0.540909	-1.309839	-0.338111
O14	O	-0.040909	-0.809839	0.161889
O15	O	-0.304473	-1.204819	-0.465391
O16	O	0.195527	-0.704819	0.034609
O17	O	-0.556437	-1.446326	-0.493091
O18	O	-0.056437	-0.946326	0.006909
O19	O	-0.316238	-1.308232	-0.582817
O20	O	0.183762	-0.808232	-0.082817
O21	O	-0.432295	-1.205733	-0.326170
O22	O	0.067705	-0.705733	0.173830
O23	O	-0.431328	-1.051640	-0.463471
O24	O	0.068672	-0.551640	0.036529
O25	O	-0.554737	-1.175479	-0.734422
O26	O	-0.054737	-0.675479	-0.234422
O27	O	-0.539209	-1.038993	-0.579442
O28	O	-0.039209	-0.538993	-0.079442
O29	O	-0.458621	-1.291540	-0.735877
O30	O	0.041379	-0.791540	-0.235877
O31	O	-0.683292	-1.293147	-0.491171
O32	O	-0.183292	-0.793147	0.008829
O33	O	-0.682559	-1.176393	-0.595201
O34	O	-0.182559	-0.676393	-0.095201
C35	C	-0.483423	-1.012798	-0.519479
C36	C	0.016577	-0.512798	-0.019479
C37	C	-0.477790	-0.913181	-0.513441
C38	C	0.022210	-0.413181	-0.013441
C39	C	-0.713166	-1.233028	-0.544756
C40	C	-0.213166	-0.733028	-0.044756
C41	C	-0.805803	-1.227709	-0.549544
C42	C	-0.305803	-0.727709	-0.049544
C43	C	-0.413608	-0.779334	-0.444641
C44	C	0.086392	-0.279334	0.055359
C45	C	-0.418897	-0.872933	-0.450311
C46	C	0.081103	-0.372933	0.049689
C47	C	-0.531396	-0.859824	-0.570908
C48	C	-0.031396	-0.359824	-0.070908
C49	C	-0.526107	-0.766225	-0.565238
C50	C	-0.026107	-0.266225	-0.065238
C51	C	-0.467212	-0.725983	-0.502102
C52	C	0.032788	-0.225983	-0.002102
C53	C	-0.461928	-0.632382	-0.496429
C54	C	0.038072	-0.132382	0.003571
C55	C	-0.574423	-0.619275	-0.617030
C56	C	-0.074423	-0.119275	-0.117030
C57	C	-0.579711	-0.712874	-0.622699
C58	C	-0.079711	-0.212874	-0.122699
C59	C	-0.975413	-1.218002	-0.558305
C60	C	-0.475413	-0.718002	-0.058305
C61	C	-1.017037	-1.273453	-0.509009
C62	C	-0.517037	-0.773453	-0.009009
C63	C	-1.111414	-1.268052	-0.513884
C64	C	-0.611414	-0.768052	-0.013884
C65	C	-0.881028	-1.223402	-0.553432
C66	C	-0.381028	-0.723402	-0.053432
C67	C	-0.279272	-1.258340	-0.522512
C68	C	0.220728	-0.758340	-0.022512
C69	C	-0.186642	-1.263749	-0.517768
C70	C	0.313358	-0.763749	-0.017768
C71	C	-0.508354	-1.231484	-0.768773
C72	C	-0.008354	-0.731484	-0.268773
C73	C	-0.513346	-1.225448	-0.868970
C74	C	-0.013346	-0.725448	-0.368970
C75	C	-0.509903	-0.479408	-0.547859
C76	C	-0.009903	0.020592	-0.047859
C77	C	-0.515535	-0.579024	-0.553896
C78	C	-0.015535	-0.079024	-0.053896
C79	C	-0.422621	-1.334959	-1.058767
C80	C	0.077379	-0.834959	-0.558767
C81	C	-0.427308	-1.329291	-1.152912
C82	C	0.072692	-0.829291	-0.652912
C83	C	-0.527403	-1.208440	-1.151405
C84	C	-0.027403	-0.708440	-0.651405
C85	C	-0.522716	-1.214108	-1.057260
C86	C	-0.022716	-0.714108	-0.557260
C87	C	-0.470324	-1.277371	-1.010945
C88	C	0.029676	-0.777371	-0.510945
C89	C	-0.465641	-1.283043	-0.916799
C90	C	0.034359	-0.783043	-0.416799
C91	C	-0.565731	-1.162188	-0.915294
C92	C	-0.065731	-0.662188	-0.415294
C93	C	-0.570419	-1.156520	-1.009438
C94	C	-0.070419	-0.656520	-0.509438
C95	C	-0.484915	-1.259812	-0.299432
C96	C	0.015085	-0.759812	0.200568
C97	C	-0.479699	-1.266035	-0.199234
C98	C	0.020301	-0.766035	0.300766
H99	H	-0.413973	-0.599619	-0.445021
H100	H	0.086027	-0.099619	0.054979
H101	H	-1.010654	-1.166477	-0.604166
H102	H	-0.510654	-0.666477	-0.104166
H103	H	-0.422982	-1.334555	-0.879091
H104	H	0.077018	-0.834555	-0.379091
O105	O	-0.970363	-1.341712	-0.448253
O106	O	-0.470363	-0.841712	0.051747
H107	H	-0.926201	-1.306620	-0.397909
H108	H	-0.426201	-0.806620	0.102091
O109	O	-0.366119	-1.403190	-1.008803
O110	O	0.133881	-0.903190	-0.508803
H111	H	-0.333733	-1.442282	-1.057874
H112	H	0.166267	-0.942282	-0.557874
H113	H	-0.388461	-1.376183	-1.191845
H114	H	0.111539	-0.876183	-0.691845
H115	H	-0.365655	-0.746569	-0.393232
H116	H	0.134345	-0.246569	0.106768
O117	O	-0.583894	-1.140197	-1.201363
O118	O	-0.083894	-0.640197	-0.701363
H119	H	-0.579134	-1.145931	-1.274861
H120	H	-0.079134	-0.645931	-0.774861
O121	O	-0.361095	-0.930480	-0.388324
O122	O	0.138905	-0.430480	0.111676
H123	H	-0.319263	-0.886769	-0.343464
H124	H	0.180737	-0.386769	0.156536
H125	H	-0.579341	-0.892605	-0.622314
H126	H	-0.079341	-0.392605	-0.122314
O127	O	-0.643228	-0.756286	-0.690793
O128	O	-0.143228	-0.256286	-0.190793
H129	H	-0.679611	-0.703459	-0.729800
H130	H	-0.179611	-0.203459	-0.229800
H131	H	-0.613073	-1.105012	-1.047161
H132	H	-0.113073	-0.605012	-0.547161
H133	H	-0.618071	-0.575826	-0.663819
H134	H	-0.118071	-0.075826	-0.163819
H135	H	-0.604577	-1.115297	-0.876347
H136	H	-0.104577	-0.615297	-0.376347
