data_functionalizedCrystal
_audit_creation_method	'MofGen! by Chris Wilmer'
_symmetry_space_group_name_H-M	'P1'
_symmetry_Int_Tables_number	1
_symmetry_cell_setting	triclinic
loop_
_symmetry_equiv_pos_as_xyz
  x,y,z
_cell_length_a	6.817900
_cell_length_b	11.102289
_cell_length_c	10.943624
_cell_angle_alpha	91.861746
_cell_angle_beta	108.838799
_cell_angle_gamma	108.605707
loop_
_atom_site_label
_atom_site_type_symbol
_atom_site_fract_x
_atom_site_fract_y
_atom_site_fract_z
V1	V	-4.114282	-0.175806	-0.402551
O2	O	-4.073263	0.008482	-0.394888
O3	O	-4.091041	-0.348626	-0.399798
O4	O	-4.092264	-0.173086	-0.578117
O5	O	-4.072031	-0.168273	-0.215334
V6	V	-4.591232	-0.153765	-0.380158
O7	O	-4.389960	-0.224155	-0.451671
O8	O	-4.765752	-0.105415	-0.331038
O9	O	-4.391267	0.019056	-0.382912
O10	O	-4.749649	-0.338053	-0.387821
O11	O	-4.750880	-0.161298	-0.567375
O12	O	-4.390044	-0.156484	-0.204592
C13	C	-3.941308	-0.390757	-0.393447
C14	C	-4.003768	-0.532039	-0.392366
C15	C	-3.942867	-0.166837	-0.620910
C16	C	-4.006314	-0.165757	-0.764437
C17	C	-4.217163	-0.604887	-0.398299
C18	C	-4.275844	-0.737639	-0.397294
C19	C	-3.907711	-0.724682	-0.384419
C20	C	-3.849038	-0.591934	-0.385432
C21	C	-4.429699	-0.612368	-0.405727
C22	C	-4.488380	-0.745120	-0.404723
C23	C	-3.851194	-0.158485	-0.841584
C24	C	-4.039808	-0.266416	-0.947574
C25	C	-3.930779	-0.055914	-0.914187
C26	C	-4.194138	-0.273789	-0.868550
C27	C	-4.085029	-0.063191	-0.835140
C28	C	-4.273779	-0.171153	-0.941100
C29	C	-4.204342	0.061180	-0.389259
C30	C	-4.121122	0.202461	-0.390348
C31	C	-4.202783	-0.162738	-0.161792
C32	C	-4.118573	-0.163811	-0.018265
H33	H	-3.675284	-0.532628	-0.380616
C34	C	-4.724804	-0.739149	-0.619661
C35	C	-4.667207	-0.823240	-0.533837
H36	H	-4.835207	-0.787381	-0.699365
H37	H	-4.597959	-0.687534	-0.636343
H38	H	-4.780346	-0.685517	-0.581482
H39	H	-4.611649	-0.876865	-0.572012
H40	H	-4.794077	-0.874877	-0.517157
H41	H	-3.820065	0.036144	-0.934950
C42	C	-4.051538	0.049819	-0.634443
C43	C	-4.109795	0.052798	-0.768987
H44	H	-4.066816	0.121432	-0.593600
H45	H	-3.902522	0.053504	-0.599088
H46	H	-4.145797	-0.027494	-0.619397
H47	H	-4.015525	0.130106	-0.784033
H48	H	-4.258835	0.049124	-0.804354
H49	H	-3.672029	-0.153274	-0.798136
H50	H	-4.539085	-0.770096	-0.316529
H51	H	-3.781744	-0.773465	-0.378775
C52	C	-4.369136	-0.408730	-0.290065
C53	C	-4.428947	-0.540509	-0.282844
H54	H	-4.368655	-0.364369	-0.214196
H55	H	-4.472447	-0.394781	-0.365359
H56	H	-4.225720	-0.377669	-0.295515
H57	H	-4.572371	-0.571574	-0.277404
H58	H	-4.325631	-0.554468	-0.207529
H59	H	-4.542207	-0.593140	-0.499624
C60	C	-3.794343	-0.375599	-0.963166
C61	C	-4.014906	-0.382394	-1.013670
H62	H	-3.778961	-0.447192	-1.003973
H63	H	-3.752266	-0.376703	-0.871691
H64	H	-3.702222	-0.298299	-0.979603
H65	H	-4.107026	-0.459690	-0.997224
H66	H	-4.057008	-0.381302	-1.105166
H67	H	-4.453056	-0.176535	-0.984345
C68	C	-4.282363	-0.398174	-0.705750
C69	C	-4.343638	-0.398239	-0.840829
H70	H	-4.374643	-0.475009	-0.688638
H71	H	-4.298192	-0.326089	-0.666209
H72	H	-4.132703	-0.393402	-0.670799
H73	H	-4.493294	-0.403002	-0.875778
H74	H	-4.327829	-0.470344	-0.880385
