data_functionalizedCrystal
_audit_creation_method	'MofGen! by Chris Wilmer'
_symmetry_space_group_name_H-M	'P1'
_symmetry_Int_Tables_number	1
_symmetry_cell_setting	triclinic
loop_
_symmetry_equiv_pos_as_xyz
  x,y,z
_cell_length_a	10.868271
_cell_length_b	11.792241
_cell_length_c	11.792241
_cell_angle_alpha	84.193416
_cell_angle_beta	89.994719
_cell_angle_gamma	89.999893
loop_
_atom_site_label
_atom_site_type_symbol
_atom_site_fract_x
_atom_site_fract_y
_atom_site_fract_z
O1	O	0.102203	-1.506908	-0.155568
O2	O	0.435537	-1.173575	0.177765
O3	O	0.768870	-0.840242	0.511098
O4	O	0.102232	-1.176567	-0.171601
O5	O	0.435565	-0.843234	0.161732
O6	O	0.768899	-0.509901	0.495065
O7	O	0.102208	-1.349754	0.001586
O8	O	0.435542	-1.016421	0.334919
O9	O	0.768875	-0.683088	0.668252
O10	O	0.102227	-1.333721	-0.328755
O11	O	0.435560	-1.000388	0.004578
O12	O	0.768894	-0.667055	0.337911
O13	O	-0.102436	-1.349740	0.001592
O14	O	0.230897	-1.016407	0.334926
O15	O	0.564230	-0.683073	0.668259
O16	O	-0.102413	-1.176553	-0.171595
O17	O	0.230921	-0.843220	0.161739
O18	O	0.564254	-0.509886	0.495072
O19	O	-0.102441	-1.506894	-0.155562
O20	O	0.230892	-1.173561	0.177772
O21	O	0.564225	-0.840227	0.511105
Zn22	Zn	-0.134919	-1.341721	-0.163577
Zn23	Zn	0.198415	-1.008388	0.169756
Zn24	Zn	0.531748	-0.675055	0.503090
Zn25	Zn	0.134709	-1.341740	-0.163586
Zn26	Zn	0.468043	-1.008407	0.169747
Zn27	Zn	0.801376	-0.675073	0.503081
O28	O	-0.102418	-1.333707	-0.328749
O29	O	0.230916	-1.000374	0.004585
O30	O	0.564249	-0.667040	0.337918
C31	C	-0.000087	-1.134269	-0.170591
C32	C	0.333247	-0.800936	0.162742
C33	C	0.666580	-0.467603	0.496076
C34	C	-0.000076	-1.008255	-0.167576
C35	C	0.333257	-0.674922	0.165757
C36	C	0.666591	-0.341589	0.499090
N37	N	-0.318933	-1.341717	-0.163570
N38	N	0.014400	-1.008383	0.169763
N39	N	0.347734	-0.675050	0.503096
C40	C	-0.569939	-1.341734	-0.163584
C41	C	-0.236606	-1.008401	0.169750
C42	C	0.096728	-0.675068	0.503083
C43	C	-0.430261	-1.341721	-0.163580
C44	C	-0.096928	-1.008387	0.169754
C45	C	0.236405	-0.675054	0.503087
C46	C	-0.000114	-1.348740	0.043880
C47	C	0.333220	-1.015407	0.377213
C48	C	0.666553	-0.682073	0.710547
C49	C	-0.000112	-1.345726	0.169894
C50	C	0.333221	-1.012392	0.503227
C51	C	0.666555	-0.679059	0.836560
N52	N	0.318723	-1.341754	-0.163584
N53	N	0.652057	-1.008420	0.169749
N54	N	0.985390	-0.675087	0.503083
C55	C	-0.000120	-1.549192	-0.156572
C56	C	0.333213	-1.215859	0.176761
C57	C	0.666547	-0.882525	0.510095
C58	C	-0.000123	-1.675206	-0.159587
C59	C	0.333211	-1.341873	0.173747
C60	C	0.666544	-1.008539	0.507080
C61	C	-0.000112	-0.777543	-0.162034
C62	C	0.333222	-0.444210	0.171300
C63	C	0.666555	-0.110877	0.504633
C64	C	-0.000092	-0.905928	-0.165113
C65	C	0.333241	-0.572595	0.168220
C66	C	0.666575	-0.239262	0.501553
C67	C	-0.000093	-1.334721	-0.371043
C68	C	0.333240	-1.001388	-0.037710
C69	C	0.666574	-0.668055	0.295624
C70	C	-0.000087	-1.337736	-0.497057
C71	C	0.333247	-1.004402	-0.163723
C72	C	0.666580	-0.671069	0.169610
C73	C	-0.000091	-1.340183	0.400606
C74	C	0.333242	-1.006849	0.733939
C75	C	0.666576	-0.673516	1.067272
C76	C	-0.000102	-1.343262	0.272221
C77	C	0.333231	-1.009929	0.605554
C78	C	0.666564	-0.676596	0.938887
