data_functionalizedCrystal
_audit_creation_method	'MofGen! by Chris Wilmer'
_symmetry_space_group_name_H-M	'P1'
_symmetry_Int_Tables_number	1
_symmetry_cell_setting	triclinic
loop_
_symmetry_equiv_pos_as_xyz
  x,y,z
_cell_length_a	19.188924
_cell_length_b	19.188930
_cell_length_c	7.088929
_cell_angle_alpha	96.168759
_cell_angle_beta	83.795552
_cell_angle_gamma	83.143372
loop_
_atom_site_label
_atom_site_type_symbol
_atom_site_fract_x
_atom_site_fract_y
_atom_site_fract_z
O1	O	0.094395	0.918925	-0.159608
O2	O	0.106124	0.715619	-0.159478
O3	O	-0.001397	0.823143	-0.159524
O4	O	0.201916	0.811402	-0.159561
O5	O	-0.015799	0.837512	0.158445
O6	O	0.091722	0.729989	0.158491
O7	O	0.079994	0.933295	0.158361
Cu8	Cu	0.084543	0.832954	0.187459
Cu9	Cu	0.101574	0.815960	-0.188576
O10	O	0.187515	0.825771	0.158408
C11	C	-0.034609	0.829948	-0.000537
C12	C	-0.112114	0.828810	-0.000532
C13	C	0.098542	0.696794	-0.000476
C14	C	0.097399	0.619292	-0.000426
C15	C	-0.140663	0.820445	-0.173856
C16	C	-0.213485	0.819365	-0.173870
C17	C	-0.257758	0.826663	-0.000549
C18	C	-0.229201	0.835025	0.172799
C19	C	-0.156379	0.836098	0.172807
N20	N	-0.383263	0.870540	0.128425
N21	N	-0.452440	0.869521	0.128405
C22	C	-0.477166	0.823428	-0.000566
N23	N	-0.430102	0.778400	-0.129544
N24	N	-0.360918	0.779422	-0.129529
C25	C	-0.336722	0.825500	-0.000540
C26	C	-0.584676	0.813891	-0.173918
C27	C	-0.657500	0.812806	-0.173924
C28	C	-0.673215	0.828473	0.172750
C29	C	-0.600393	0.829551	0.172751
C30	C	-0.556128	0.822262	-0.000588
C31	C	0.160492	0.574364	-0.000468
C32	C	0.159421	0.501540	-0.000488
C33	C	0.095256	0.473644	-0.000506
C34	C	0.032154	0.518582	-0.000453
C35	C	0.033226	0.591406	-0.000413
N36	N	0.051113	0.360771	-0.108793
N37	N	0.050100	0.291591	-0.108835
C38	C	0.092023	0.254230	-0.000622
N39	N	0.135010	0.288661	0.107610
N40	N	0.136026	0.357847	0.107643
C41	C	0.094087	0.394679	-0.000548
C42	C	0.153959	0.130337	-0.000684
C43	C	0.152885	0.057512	-0.000693
C44	C	0.025617	0.074555	-0.000677
C45	C	0.026692	0.147379	-0.000649
C46	C	0.090865	0.175265	-0.000661
C47	C	0.220727	0.818966	-0.000583
C48	C	0.298232	0.820104	-0.000601
C49	C	0.087575	0.952120	-0.000644
C50	C	0.088719	1.029622	-0.000707
N51	N	0.072563	0.844911	0.451942
N52	N	0.113548	0.804008	-0.453059
H53	H	-0.104626	0.814509	-0.315003
C54	C	0.015184	0.902187	0.562227
N55	N	-0.028034	0.945326	0.645294
C56	C	0.170924	0.746735	0.436665
N57	N	0.214139	0.703594	0.353593
C58	C	-0.721912	0.836502	0.363406
N59	N	-0.758593	0.842548	0.507013
H60	H	-0.236733	0.812549	-0.315017
C61	C	-0.277903	0.843051	0.363452
N62	N	-0.314585	0.849094	0.507059
H63	H	-0.548633	0.807952	-0.315060
H64	H	-0.133136	0.842906	0.313954
C65	C	-0.688907	0.803640	-0.364606
N66	N	-0.712565	0.796749	-0.508231
H67	H	-0.577150	0.836368	0.313892
C68	C	0.231083	0.605036	-0.000443
N69	N	0.284252	0.628140	-0.000412
C70	C	-0.038428	0.487895	-0.000475
N71	N	-0.091593	0.464782	-0.000486
C72	C	-0.036184	0.640827	-0.000380
N73	N	-0.088464	0.678053	-0.000362
C74	C	0.228832	0.452109	-0.000557
N75	N	0.281113	0.414880	-0.000618
C76	C	0.224549	0.161016	-0.000674
N77	N	0.277718	0.184121	-0.000662
C78	C	-0.044966	0.043874	-0.000694
N79	N	-0.098132	0.020762	-0.000703
C80	C	0.222295	0.008092	-0.000711
N81	N	0.274576	-0.029131	-0.000719
H82	H	-0.024685	0.183960	-0.000625
