data_functionalizedCrystal
_audit_creation_method	'MofGen! by Chris Wilmer'
_symmetry_space_group_name_H-M	'P1'
_symmetry_Int_Tables_number	1
_symmetry_cell_setting	triclinic
loop_
_symmetry_equiv_pos_as_xyz
  x,y,z
_cell_length_a	6.817900
_cell_length_b	16.305681
_cell_length_c	10.943624
_cell_angle_alpha	93.792097
_cell_angle_beta	108.838799
_cell_angle_gamma	103.457389
loop_
_atom_site_label
_atom_site_type_symbol
_atom_site_fract_x
_atom_site_fract_y
_atom_site_fract_z
V1	V	-4.088121	-0.116694	-0.402993
O2	O	-4.074525	0.005630	-0.394867
O3	O	-4.039163	-0.231407	-0.400674
O4	O	-4.066507	-0.114889	-0.578552
O5	O	-4.046991	-0.111694	-0.215757
V6	V	-4.568351	-0.102064	-0.380545
O7	O	-4.356604	-0.148787	-0.452234
O8	O	-4.750065	-0.069971	-0.331303
O9	O	-4.394103	0.012649	-0.382864
O10	O	-4.699344	-0.224388	-0.388671
O11	O	-4.726878	-0.107064	-0.567781
O12	O	-4.366758	-0.103869	-0.204985
C13	C	-3.883161	-0.259372	-0.394429
C14	C	-3.924597	-0.353150	-0.393704
C15	C	-3.918040	-0.110741	-0.621329
C16	C	-3.981648	-0.110024	-0.764853
C17	C	-4.000539	-0.524855	-0.392409
C18	C	-3.795079	-0.555385	-0.384329
C19	C	-3.838355	-0.652979	-0.384080
C20	C	-4.075307	-0.693909	-0.391133
C21	C	-4.231093	-0.673663	-0.518968
C22	C	-4.186546	-0.576063	-0.519759
C23	C	-4.068177	-0.550928	-0.273110
C24	C	-4.106396	-0.648249	-0.270600
C25	C	-4.117576	-0.789452	-0.390417
C26	C	-3.958281	-0.429313	-0.393135
C27	C	-3.827611	-0.105197	-0.841983
C28	C	-4.000163	-0.176838	-0.948244
C29	C	-3.922458	-0.037114	-0.914328
C30	C	-4.153396	-0.181732	-0.869238
C31	C	-4.075626	-0.041944	-0.835299
C32	C	-4.248311	-0.113606	-0.941530
C33	C	-4.213446	0.040609	-0.389105
C34	C	-4.151250	0.134387	-0.389839
C35	C	-4.178566	-0.108020	-0.162201
C36	C	-4.094197	-0.108733	-0.018676
H37	H	-3.653698	-0.520858	-0.292757
O38	O	-3.591312	-0.100604	-0.784396
H39	H	-3.571871	-0.157812	-0.737161
O40	O	-3.953504	-0.664076	-0.145403
H41	H	-3.986559	-0.733717	-0.142395
H42	H	-3.825443	0.023991	-0.934859
H43	H	-4.144590	-0.560934	-0.609987
H44	H	-3.968924	-0.233867	-0.997408
H45	H	-4.250426	-0.242919	-0.848925
H46	H	-4.426787	-0.117178	-0.984788
O47	O	-4.269737	-0.525218	-0.279349
H48	H	-4.401720	-0.557884	-0.371616
H49	H	-3.718611	-0.665877	-0.292207
O50	O	-4.329461	-0.684455	-0.267563
H51	H	-4.355531	-0.753547	-0.260934
O52	O	-3.724644	-0.532200	-0.497859
H53	H	-3.835338	-0.499028	-0.560016
O54	O	-3.795980	-0.693261	-0.497934
H55	H	-3.744481	-0.643032	-0.553393
O56	O	-4.116891	0.033594	-0.770107
H57	H	-4.020155	0.093522	-0.787518
H58	H	-4.406222	-0.701093	-0.528786
O59	O	-4.391198	-0.550506	-0.534581
H60	H	-4.521521	-0.607848	-0.541164
O61	O	-4.205328	-0.716153	-0.637558
H62	H	-4.081732	-0.751708	-0.605764
H63	H	-3.939785	-0.515113	-0.177018
