data_functionalizedCrystal
_audit_creation_method	'MofGen! by Chris Wilmer'
_symmetry_space_group_name_H-M	'P1'
_symmetry_Int_Tables_number	1
_symmetry_cell_setting	triclinic
loop_
_symmetry_equiv_pos_as_xyz
  x,y,z
_cell_length_a	10.489741
_cell_length_b	9.065218
_cell_length_c	9.565339
_cell_angle_alpha	90.005109
_cell_angle_beta	90.002575
_cell_angle_gamma	95.222470
loop_
_atom_site_label
_atom_site_type_symbol
_atom_site_fract_x
_atom_site_fract_y
_atom_site_fract_z
O1	O	0.187032	-1.959500	-0.116263
O2	O	0.202374	-1.530141	-0.116265
O3	O	0.009140	-1.754591	-0.116255
O4	O	0.380265	-1.735051	-0.116272
O5	O	0.009160	-1.754566	0.116265
O6	O	0.202394	-1.530117	0.116255
O7	O	0.187052	-1.959476	0.116257
Zn8	Zn	0.194726	-1.744792	0.153174
Zn9	Zn	0.194699	-1.744825	-0.153181
O10	O	0.380285	-1.735026	0.116248
C11	C	0.200909	-1.475149	-0.000005
C12	C	0.196501	-1.311328	-0.000005
C13	C	-0.038387	-1.753102	0.000004
C14	C	-0.180032	-1.748687	0.000001
N15	N	0.194743	-1.744781	0.362253
C16	C	-0.248688	-1.605877	-0.000010
C17	C	-0.340557	-1.673327	0.114635
C18	C	-0.340551	-1.673385	-0.114611
C19	C	-0.270036	-1.816196	0.114741
C20	C	-0.270021	-1.816235	-0.114609
C21	C	-0.361862	-1.883788	0.000064
C22	C	0.427812	-1.736514	-0.000014
C23	C	0.569458	-1.740930	-0.000021
C24	C	0.188516	-2.014467	-0.000006
C25	C	0.192925	-2.178289	-0.000014
C26	C	0.284815	-1.641840	0.546622
C27	C	0.169557	-1.610778	0.453401
C28	C	0.309992	-1.775776	0.453405
C29	C	0.079378	-1.713695	0.546570
C30	C	0.219889	-1.878753	0.546582
C31	C	0.104548	-1.847746	0.453403
N32	N	0.194695	-1.744824	0.637739
H33	H	-0.199461	-1.488459	0.000105
H34	H	0.241224	-1.991995	0.587547
H35	H	-0.238766	-1.876620	-0.211537
H36	H	0.028274	-1.934822	0.412733
H37	H	-0.410861	-2.001312	0.000128
C38	C	-0.325005	-1.446295	-0.245223
C39	C	-0.382674	-1.591805	-0.245460
H40	H	-0.351000	-1.395931	-0.326005
H41	H	-0.350329	-1.396520	-0.163826
H42	H	-0.234570	-1.447756	-0.245701
H43	H	-0.473110	-1.590345	-0.244972
H44	H	-0.357357	-1.641593	-0.326879
H45	H	0.360917	-1.554708	0.587551
C46	C	0.235264	-1.350203	0.445176
C47	C	0.140803	-1.457863	0.398130
H48	H	0.217521	-1.255802	0.411049
H49	H	0.235806	-1.348856	0.544465
H50	H	0.316528	-1.372930	0.411897
H51	H	0.059541	-1.435143	0.431418
H52	H	0.140249	-1.459207	0.298820
C53	C	0.494121	-1.693363	0.315572
C54	C	0.441581	-1.811152	0.398135
H55	H	0.575360	-1.715192	0.281455
H56	H	0.438786	-1.679441	0.239033
H57	H	0.503866	-1.605575	0.370247
H58	H	0.431826	-1.898938	0.343457
H59	H	0.496928	-1.825091	0.474685
H60	H	-0.018129	-1.687365	0.587323
H61	H	-0.371778	-1.612890	0.211558
H62	H	-0.238977	-1.876560	0.211773
