data_functionalizedCrystal
_audit_creation_method	'MofGen! by Chris Wilmer'
_symmetry_space_group_name_H-M	'P1'
_symmetry_Int_Tables_number	1
_symmetry_cell_setting	triclinic
loop_
_symmetry_equiv_pos_as_xyz
  x,y,z
_cell_length_a	10.540539
_cell_length_b	14.519709
_cell_length_c	12.996460
_cell_angle_alpha	89.999966
_cell_angle_beta	89.996006
_cell_angle_gamma	95.897182
loop_
_atom_site_label
_atom_site_type_symbol
_atom_site_fract_x
_atom_site_fract_y
_atom_site_fract_z
O1	O	0.166400	-1.224765	-0.085428
O2	O	0.499733	-0.891432	0.247906
O3	O	0.833067	-0.558099	0.581239
O4	O	0.185995	-0.956394	-0.085459
O5	O	0.519329	-0.623061	0.247875
O6	O	0.852662	-0.289727	0.581208
O7	O	-0.008571	-1.096702	-0.085441
O8	O	0.324762	-0.763369	0.247892
O9	O	0.658095	-0.430036	0.581225
O10	O	0.360967	-1.084457	-0.085445
O11	O	0.694300	-0.751124	0.247888
O12	O	1.027633	-0.417790	0.581221
O13	O	-0.008582	-1.096688	0.085693
O14	O	0.324751	-0.763354	0.419026
O15	O	0.658085	-0.430021	0.752359
O16	O	0.185985	-0.956379	0.085675
O17	O	0.519318	-0.623046	0.419008
O18	O	0.852651	-0.289713	0.752342
O19	O	0.166389	-1.224751	0.085706
O20	O	0.499722	-0.891417	0.419039
O21	O	0.833056	-0.558084	0.752373
Cu22	Cu	0.176186	-1.090563	0.101316
Cu23	Cu	0.509519	-0.757230	0.434650
Cu24	Cu	0.842853	-0.423897	0.767983
Cu25	Cu	0.176199	-1.090581	-0.101069
Cu26	Cu	0.509532	-0.757248	0.232264
Cu27	Cu	0.842865	-0.423914	0.565598
O28	O	0.360956	-1.084442	0.085689
O29	O	0.694289	-0.751109	0.419022
O30	O	1.027623	-0.417775	0.752355
C31	C	0.185077	-0.922022	0.000104
C32	C	0.518410	-0.588689	0.333438
C33	C	0.851743	-0.255355	0.666771
C34	C	0.182340	-0.819626	0.000092
C35	C	0.515674	-0.486293	0.333426
C36	C	0.849007	-0.152959	0.666759
C37	C	-0.055870	-1.095777	0.000124
C38	C	0.277463	-0.762443	0.333457
C39	C	0.610796	-0.429110	0.666790
C40	C	-0.196790	-1.093029	0.000118
C41	C	0.136543	-0.759696	0.333451
C42	C	0.469876	-0.426363	0.666784
N43	N	0.176176	-1.090558	0.243664
N44	N	0.509509	-0.757225	0.576997
N45	N	0.842843	-0.423891	0.910330
C46	C	-0.379142	-0.987750	-0.000278
C47	C	-0.045809	-0.654416	0.333055
C48	C	0.287524	-0.321083	0.666388
C49	C	-0.232553	-0.990535	0.000107
C50	C	0.100781	-0.657202	0.333440
C51	C	0.434114	-0.323868	0.666774
C52	C	-0.258958	-1.142346	0.097849
C53	C	0.074376	-0.809012	0.431183
C54	C	0.407709	-0.475679	0.764516
C55	C	-0.405467	-1.138848	0.097931
C56	C	-0.072133	-0.805514	0.431265
C57	C	0.261200	-0.472181	0.764598
C58	C	-0.405994	-1.140949	-0.096680
C59	C	-0.072660	-0.807616	0.236654
C60	C	0.260673	-0.474282	0.569987
C61	C	-0.259021	-1.141893	-0.097972
C62	C	0.074312	-0.808560	0.235362
C63	C	0.407645	-0.475226	0.568695
C64	C	0.408255	-1.085368	0.000121
C65	C	0.741588	-0.752035	0.333455
C66	C	1.074922	-0.418701	0.666788
C67	C	0.549175	-1.088115	0.000120
C68	C	0.882508	-0.754782	0.333454
C69	C	1.215842	-0.421449	0.666787
C70	C	0.167308	-1.259123	0.000141
C71	C	0.500641	-0.925789	0.333474
C72	C	0.833974	-0.592456	0.666808
C73	C	0.170044	-1.361519	0.000146
C74	C	0.503378	-1.028185	0.333479
C75	C	0.836711	-0.694852	0.666813
C76	C	0.172265	-0.444676	0.000139
C77	C	0.505599	-0.111342	0.333473
C78	C	0.838932	0.221991	0.666806
C79	C	0.175063	-0.548999	0.000126
C80	C	0.508397	-0.215665	0.333459
C81	C	0.841730	0.117668	0.666793
C82	C	0.177303	-0.632148	0.000115
C83	C	0.510636	-0.298814	0.333448
C84	C	0.843969	0.034519	0.666781
C85	C	0.180101	-0.736477	0.000103
C86	C	0.513434	-0.403144	0.333437
C87	C	0.846768	-0.069811	0.666770
N88	N	0.176198	-1.090594	-0.243416
N89	N	0.509532	-0.757261	0.089917
N90	N	0.842865	-0.423927	0.423250
C91	C	0.176200	-1.090580	0.663478
C92	C	0.509533	-0.757246	0.996811
C93	C	0.842867	-0.423913	1.330145
C94	C	0.176198	-1.090571	0.546673
C95	C	0.509531	-0.757238	0.880006
C96	C	0.842864	-0.423904	1.213339
C97	C	0.176189	-1.090569	0.453574
C98	C	0.509522	-0.757236	0.786908
C99	C	0.842856	-0.423903	1.120241
C100	C	0.176185	-1.090560	0.336762
C101	C	0.509518	-0.757226	0.670095
C102	C	0.842851	-0.423893	1.003429
H103	H	-0.189549	-0.951730	-0.069951
H104	H	0.143784	-0.618396	0.263382
H105	H	0.477118	-0.285063	0.596716
H106	H	-0.217790	-1.105809	-0.170271
H107	H	0.115543	-0.772475	0.163063
H108	H	0.448877	-0.439142	0.496396
H109	H	-0.235562	-1.216620	-0.103864
H110	H	0.097771	-0.883286	0.229469
H111	H	0.431104	-0.549953	0.562802
F112	F	-0.415975	-0.934834	-0.091886
F113	F	-0.082642	-0.601501	0.241447
F114	F	0.250692	-0.268167	0.574780
F115	F	-0.418520	-0.934898	0.090553
F116	F	-0.085187	-0.601565	0.423886
F117	F	0.248147	-0.268232	0.757220
H118	H	-0.453975	-1.214980	-0.097328
H119	H	-0.120642	-0.881647	0.236005
H120	H	0.212691	-0.548314	0.569338
F121	F	-0.446773	-1.097593	-0.193500
F122	F	-0.113439	-0.764259	0.139833
F123	F	0.219894	-0.430926	0.473166
F124	F	-0.202830	-1.097553	0.192902
F125	F	0.130503	-0.764220	0.526236
F126	F	0.463836	-0.430887	0.859569
F127	F	-0.177452	-0.939439	0.091817
F128	F	0.155881	-0.606106	0.425151
F129	F	0.489214	-0.272773	0.758484
H130	H	-0.433299	-1.102388	0.170979
H131	H	-0.099965	-0.769055	0.504312
H132	H	0.233368	-0.435721	0.837646
F133	F	-0.230747	-1.240728	0.102614
F134	F	0.102587	-0.907394	0.435947
F135	F	0.435920	-0.574061	0.769280
F136	F	-0.469152	-1.235192	0.103748
F137	F	-0.135819	-0.901859	0.437081
F138	F	0.197514	-0.568525	0.770415
