data_functionalizedCrystal
_audit_creation_method	'MofGen! by Chris Wilmer'
_symmetry_space_group_name_H-M	'P1'
_symmetry_Int_Tables_number	1
_symmetry_cell_setting	triclinic
loop_
_symmetry_equiv_pos_as_xyz
  x,y,z
_cell_length_a	11.026607
_cell_length_b	15.995292
_cell_length_c	10.065918
_cell_angle_alpha	99.815100
_cell_angle_beta	97.708363
_cell_angle_gamma	96.027316
loop_
_atom_site_label
_atom_site_type_symbol
_atom_site_fract_x
_atom_site_fract_y
_atom_site_fract_z
O1	O	1.625974	0.363938	0.113471
O2	O	2.125974	0.863938	0.613471
O3	O	1.272681	0.324014	0.113475
O4	O	1.772681	0.824014	0.613475
O5	O	1.459022	0.223546	0.113475
O6	O	1.959022	0.723546	0.613475
O7	O	1.439633	0.464405	0.113471
O8	O	1.939633	0.964405	0.613471
O9	O	1.427166	0.196888	-0.113513
O10	O	1.927166	0.696888	0.386487
O11	O	1.240825	0.297356	-0.113512
O12	O	1.740825	0.797356	0.386488
O13	O	1.594118	0.337280	-0.113517
O14	O	2.094118	0.837280	0.386483
Zn15	Zn	1.412414	0.313085	-0.149554
Zn16	Zn	1.912414	0.813085	0.350446
Zn17	Zn	1.454385	0.348208	0.149512
Zn18	Zn	1.954385	0.848208	0.649512
O19	O	1.407777	0.437747	-0.113517
O20	O	1.907777	0.937747	0.386483
C21	C	1.211544	0.303320	-0.000018
C22	C	1.711544	0.803320	0.499982
C23	C	1.076837	0.281363	-0.000016
C24	C	1.576837	0.781363	0.499984
C25	C	1.442305	0.178903	-0.000015
C26	C	1.942305	0.678903	0.499985
C27	C	1.439941	0.085595	-0.000005
C28	C	1.939941	0.585595	0.499995
C29	C	1.003013	0.341989	-0.000016
C30	C	1.503013	0.841989	0.499984
C31	C	0.863786	0.319297	-0.000014
C32	C	1.363786	0.819297	0.499986
C33	C	1.431242	-0.253456	-0.000018
C34	C	1.931242	0.246544	0.499982
C35	C	1.565667	-0.209931	-0.000526
C36	C	2.065667	0.290069	0.499474
C37	C	1.568296	-0.112809	-0.000010
C38	C	2.068296	0.387191	0.499990
C39	C	1.435558	-0.085249	-0.000012
C40	C	1.935558	0.414751	0.499988
C41	C	1.386507	-0.109263	0.129605
C42	C	1.886507	0.390737	0.629605
C43	C	1.384903	-0.206285	0.129709
C44	C	1.884903	0.293715	0.629709
C45	C	1.345930	-0.236871	-0.128418
C46	C	1.845930	0.263129	0.371582
C47	C	1.350675	-0.139828	-0.130126
C48	C	1.850675	0.360172	0.369874
C49	C	1.437991	0.009815	-0.000005
C50	C	1.937991	0.509815	0.499995
C51	C	1.428806	-0.348519	-0.000016
C52	C	1.928806	0.151481	0.499984
C53	C	1.655255	0.357974	-0.000021
C54	C	2.155255	0.857974	0.499979
C55	C	1.789963	0.379932	-0.000014
C56	C	2.289963	0.879932	0.499986
C57	C	1.424494	0.482391	-0.000023
C58	C	1.924494	0.982391	0.499977
C59	C	1.426859	0.575700	-0.000025
C60	C	1.926859	1.075700	0.499975
N61	N	1.383778	0.289116	-0.353658
N62	N	1.883778	0.789116	0.146342
C63	C	1.444414	0.339868	-0.421439
C64	C	1.944414	0.839868	0.078561
C65	C	1.422386	0.321413	-0.578606
C66	C	1.922386	0.821413	-0.078606
N67	N	1.483030	0.372173	0.353617
N68	N	1.983030	0.872173	0.853617
H69	H	1.042883	0.410690	-0.000025
H70	H	1.542883	0.910690	0.499975
H71	H	1.252691	-0.122382	-0.137956
H72	H	1.752691	0.377618	0.362044
F73	F	0.811684	0.229491	-0.000021
F74	F	1.311684	0.729491	0.499979
F75	F	1.294614	0.214460	-0.429886
F76	F	1.794614	0.714460	0.070114
H77	H	1.551258	0.429288	-0.588065
H78	H	2.051258	0.929288	-0.088065
F79	F	0.842059	0.469736	-0.000032
F80	F	1.342059	0.969736	0.499968
H81	H	1.630192	-0.220322	0.091905
H82	H	2.130192	0.279678	0.591905
H83	H	1.607918	-0.096758	-0.092923
H84	H	2.107918	0.403242	0.407077
F85	F	1.024729	0.191561	-0.000023
F86	F	1.524729	0.691561	0.499977
H87	H	1.374498	-0.270114	-0.226668
H88	H	1.874498	0.229886	0.273332
H89	H	1.604463	-0.241031	-0.093481
H90	H	2.104463	0.258969	0.406519
H91	H	1.354164	0.264295	-0.636926
H92	H	1.854164	0.764295	-0.136926
F93	F	1.654605	-0.064025	0.121650
F94	F	2.154605	0.435975	0.621650
H95	H	1.386180	-0.125144	-0.226016
H96	H	1.886180	0.374856	0.273984
H97	H	1.445070	-0.214703	0.226602
H98	H	1.945070	0.285297	0.726602
H99	H	1.289507	-0.091552	0.134423
H100	H	1.789507	0.408448	0.634423
F101	F	1.257091	-0.243831	0.137403
F102	F	1.757091	0.256169	0.637403
F103	F	1.465236	-0.059039	0.255691
F104	F	1.965236	0.440961	0.755691
H105	H	1.512639	0.396977	-0.363114
H106	H	2.012639	0.896977	0.136886
F107	F	1.216371	-0.274798	-0.129565
F108	F	1.716371	0.225202	0.370435
