data_functionalizedCrystal
_audit_creation_method	'MofGen! by Chris Wilmer'
_symmetry_space_group_name_H-M	'P1'
_symmetry_Int_Tables_number	1
_symmetry_cell_setting	triclinic
loop_
_symmetry_equiv_pos_as_xyz
  x,y,z
_cell_length_a	14.560438
_cell_length_b	21.606444
_cell_length_c	21.606444
_cell_angle_alpha	59.991153
_cell_angle_beta	90.003088
_cell_angle_gamma	60.004423
loop_
_atom_site_label
_atom_site_type_symbol
_atom_site_fract_x
_atom_site_fract_y
_atom_site_fract_z
Zr1	Zr	0.884752	0.677523	-0.081327
O2	O	0.738100	0.806656	-0.180177
O3	O	0.929708	0.548392	-0.051009
O4	O	0.929700	0.677528	-0.180153
O5	O	0.738116	0.677516	0.050822
O6	O	1.080838	0.677530	-0.180151
O7	O	0.738108	0.677520	-0.051032
O8	O	1.080853	0.446530	0.050864
O9	O	0.738100	0.908516	-0.180194
O10	O	1.061675	0.601507	-0.038095
O11	O	0.948888	0.601502	0.037916
O12	O	0.948878	0.753543	-0.114135
O13	O	0.836091	0.753538	-0.038123
Zr14	Zr	1.125812	0.677519	0.081122
Zr15	Zr	1.125800	0.677526	-0.081324
Zr16	Zr	0.884764	0.677516	0.081119
Zr17	Zr	0.884753	0.839979	-0.081354
Zr18	Zr	1.125811	0.515064	0.081149
O19	O	1.080856	0.806650	0.050804
O20	O	1.080839	0.806660	-0.180173
O21	O	0.738117	0.806646	0.050800
O22	O	1.272465	0.548386	0.179972
O23	O	1.272447	0.548396	-0.051005
O24	O	0.929726	0.548383	0.179968
O25	O	1.272449	0.677527	-0.051027
O26	O	1.080865	0.677514	0.179948
O27	O	0.929727	0.677513	0.179946
O28	O	1.272456	0.677522	0.050827
O29	O	0.929701	0.908519	-0.180192
O30	O	1.080863	0.446524	0.179987
O31	O	1.272464	0.446526	0.179989
O32	O	1.272454	0.446532	0.050866
O33	O	0.738110	0.908511	-0.051071
O34	O	0.929711	0.908513	-0.051069
O35	O	1.061687	0.601500	0.113930
O36	O	1.174474	0.601505	0.037918
O37	O	1.061676	0.753541	-0.038121
O38	O	0.948889	0.753536	0.037890
C39	C	1.005281	0.474315	-0.000068
C40	C	1.005280	0.405348	-0.000057
C41	C	0.922009	0.429084	-0.056186
C42	C	0.922012	0.364295	-0.056202
C43	C	1.005282	0.275770	-0.000085
C44	C	1.088561	0.252034	0.056047
C45	C	1.088562	0.316823	0.056059
C46	C	1.088561	-0.009252	0.056000
C47	C	1.088551	-0.074041	0.055985
C48	C	0.922011	0.038220	-0.056261
C49	C	0.922012	0.103009	-0.056249
C50	C	1.005294	0.079267	-0.000120
C51	C	1.005291	0.149520	-0.000104
C52	C	1.005281	0.205518	-0.000096
C53	C	0.703768	0.677518	-0.000106
C54	C	0.601437	0.677517	-0.000107
C55	C	0.612237	0.598157	0.039585
C56	C	0.516082	0.598161	0.039591
C57	C	0.398329	0.756892	-0.039791
C58	C	0.494483	0.756887	-0.039793
C59	C	0.719190	0.518787	0.079271
C60	C	0.729996	0.439420	0.118965
C61	C	0.633841	0.439425	0.118971
C62	C	0.526880	0.518795	0.079284
C63	C	1.306797	0.677525	-0.000099
C64	C	1.409128	0.677526	-0.000098
C65	C	1.005267	0.677530	-0.203297
C66	C	1.005262	0.677533	-0.272259
C67	C	1.005284	0.880728	-0.000136
C68	C	1.005284	0.949695	-0.000148
C69	C	0.946382	0.756894	-0.344350
C70	C	0.946392	0.756891	-0.409145
C71	C	1.005275	0.677527	-0.401848
C72	C	1.064162	0.598160	-0.329750
C73	C	1.064158	0.598164	-0.264956
C74	C	1.064180	0.598145	-0.591053
C75	C	1.064176	0.598148	-0.655853
C76	C	0.946413	0.756873	-0.735241
C77	C	0.946410	0.756876	-0.670448
C78	C	1.005301	0.677510	-0.598356
C79	C	1.005291	0.677513	-0.528098
C80	C	1.005279	0.677523	-0.472103
C81	C	1.005297	0.677513	0.203092
C82	C	1.005303	0.677510	0.272055
C83	C	1.306795	0.474318	-0.000065
C84	C	1.409126	0.405353	-0.000053
C85	C	1.005296	0.474306	0.203126
C86	C	1.005300	0.405336	0.272100
C87	C	1.306810	0.474309	0.203129
C88	C	1.409146	0.405341	0.272104
C89	C	0.703754	0.880733	-0.203334
C90	C	0.601418	0.949702	-0.272309
C91	C	0.703770	0.880725	-0.000140
C92	C	0.601439	0.949690	-0.000152
C93	C	1.005269	0.880737	-0.203331
C94	C	1.005264	0.949706	-0.272305
C95	C	1.398301	0.372967	-0.039732
C96	C	1.494443	0.308176	-0.039735
C97	C	1.601407	0.275767	-0.000054
C98	C	1.612229	0.308159	0.039626
C99	C	1.516089	0.372954	0.039625
C100	C	1.064182	0.372947	0.344176
C101	C	1.064182	0.308152	0.408991
C102	C	1.005307	0.275743	0.401728
C103	C	0.946417	0.308139	0.329644
C104	C	0.946411	0.372938	0.264831
C105	C	1.516088	0.372955	0.264819
C106	C	1.612252	0.308161	0.329622
C107	C	1.601473	0.275750	0.401710
C108	C	1.494520	0.308142	0.408994
C109	C	1.398358	0.372939	0.344192
C110	C	0.494477	0.982095	-0.265024
C111	C	0.398312	1.046909	-0.329827
C112	C	0.409092	1.079324	-0.401915
C113	C	0.516045	1.046928	-0.409199
C114	C	0.612207	0.982119	-0.344397
C115	C	0.612263	0.982082	0.039520
C116	C	0.516122	1.046892	0.039506
C117	C	0.409157	1.079303	-0.000178
C118	C	0.398335	1.046907	-0.039855
C119	C	0.494476	0.982104	-0.039844
C120	C	1.064151	0.982094	-0.265017
C121	C	1.064169	1.046890	-0.329820
C122	C	1.005292	1.079301	-0.401909
C123	C	0.946403	1.046906	-0.409195
C124	C	0.946392	0.982107	-0.344393
H125	H	0.854201	0.175088	-0.101943
H126	H	0.485678	0.955707	-0.206332
N127	N	1.482913	0.273168	0.486752
H128	H	1.440451	0.246273	0.492832
H129	H	1.440475	0.322634	0.492780
N130	N	0.282963	1.081856	-0.082639
H131	H	0.240432	1.146906	-0.122576
H132	H	0.240570	1.070507	-0.046174
N133	N	0.882920	0.407852	0.187094
H134	H	0.891845	0.453818	0.147131
H135	H	0.800582	0.434685	0.181086
N136	N	1.127666	0.512546	-0.513304
H137	H	1.118732	0.524584	-0.473362
H138	H	1.210007	0.477878	-0.507287
H139	H	1.112112	0.533541	-0.323813
H140	H	1.699329	0.281794	0.323677
H141	H	0.898435	0.955744	-0.350337
H142	H	1.156369	0.297490	0.101766
N143	N	0.527667	1.081888	-0.486952
H144	H	0.490394	1.146937	-0.515614
H145	H	0.490397	1.070552	-0.515535
N146	N	0.727624	0.947133	0.082324
H147	H	0.719875	0.977499	0.107447
H148	H	0.770076	0.958412	0.045887
H149	H	0.524955	1.073257	0.071819
N150	N	0.727544	0.947177	-0.352271
H151	H	0.770051	0.882131	-0.327154
H152	H	0.770000	0.958502	-0.327172
N153	N	1.482742	0.273246	-0.082530
H154	H	1.520015	0.208196	-0.046132
H155	H	1.519970	0.284593	-0.122473
N156	N	0.832185	0.063830	-0.116806
H157	H	0.844817	0.009357	-0.108304
H158	H	0.835857	0.099681	-0.168297
N159	N	1.127670	0.512568	-0.187199
H160	H	1.164972	0.462290	-0.192406
H161	H	1.073611	0.509108	-0.158585
H162	H	1.699332	0.281763	0.071933
N163	N	1.282941	0.407912	-0.082532
H164	H	1.290689	0.377559	-0.107668
H165	H	1.240480	0.472964	-0.122430
H166	H	0.854190	0.501163	-0.101875
N167	N	0.882947	0.842487	-0.486900
H168	H	0.845658	0.892764	-0.481691
H169	H	0.823751	0.845979	-0.515551
H170	H	1.679783	0.222988	0.454470
N171	N	1.178370	-0.169527	0.116512
H172	H	1.231132	-0.174737	0.152071
H173	H	1.222025	-0.198836	0.091962
N174	N	1.283014	0.407863	0.352056
H175	H	1.290789	0.377491	0.407558
H176	H	1.240559	0.396576	0.326909
N177	N	0.305468	1.149198	-0.000186
H178	H	0.328566	1.164794	0.030973
H179	H	0.259233	1.126597	0.022384
N180	N	0.482793	0.947169	-0.082636
H181	H	0.400441	0.977538	-0.107773
H182	H	0.520111	0.882120	-0.046193
H183	H	1.112096	0.955715	-0.206325
H184	H	1.156374	-0.028594	0.101704
N185	N	1.127690	1.081819	-0.321951
H186	H	1.164974	1.051456	-0.266449
H187	H	1.073637	1.146870	-0.347120
N188	N	1.005320	1.149182	-0.471798
H189	H	1.051564	1.164776	-0.456236
H190	H	0.925553	1.202916	-0.502975
N191	N	1.178384	0.156556	0.116570
H192	H	1.165749	0.119113	0.108047
H193	H	1.174714	0.143356	0.168066
N194	N	1.705099	0.205874	-0.000047
H195	H	1.751381	0.228422	-0.022633
H196	H	1.681913	0.190303	-0.031192
N197	N	0.832209	0.389895	-0.116747
H198	H	0.779457	0.455806	-0.152294
H199	H	0.788541	0.365447	-0.092219
N200	N	0.882898	1.081869	-0.486949
H201	H	0.936900	1.070596	-0.515597
H202	H	0.823660	1.146908	-0.515543
N203	N	0.822906	0.518772	0.079270
H204	H	0.822970	0.549924	0.101849
H205	H	0.822877	0.549919	0.025508
H206	H	1.524918	0.399314	0.071941
H207	H	0.330781	1.132095	-0.454675
N208	N	0.845350	0.353818	0.161775
H209	H	0.904626	0.365855	0.155748
H210	H	0.854239	0.319164	0.140947
N211	N	1.127691	0.407891	0.352021
H212	H	1.164984	0.377535	0.407520
H213	H	1.073628	0.472942	0.326850
H214	H	0.642644	0.374801	0.151298
H215	H	0.448589	0.518792	0.079298
H216	H	0.311236	1.073276	-0.323881
N217	N	1.127705	0.273215	0.486731
H218	H	1.165009	0.303575	0.481492
H219	H	1.186896	0.208164	0.515359
H220	H	0.311238	0.821512	-0.072104
N221	N	1.005321	0.205848	0.471634
H222	H	0.971821	0.228402	0.502816
H223	H	1.085095	0.152107	0.502767
H224	H	0.485685	0.821509	-0.072099
H225	H	0.898425	0.821521	-0.350300
N226	N	0.882901	0.842475	-0.678318
H227	H	0.845605	0.892751	-0.733820
H228	H	0.936967	0.845928	-0.653160
H229	H	0.898464	0.821497	-0.793948
H230	H	0.898482	0.281743	0.323741
N231	N	1.127701	0.512545	-0.647984
H232	H	1.165014	0.462266	-0.592482
H233	H	1.186884	0.509103	-0.673142
N234	N	1.527731	0.407898	0.187072
H235	H	1.610077	0.377543	0.192301
H236	H	1.490396	0.472950	0.158442
