data_functionalizedCrystal
_audit_creation_method	'MofGen! by Chris Wilmer'
_symmetry_space_group_name_H-M	'P1'
_symmetry_Int_Tables_number	1
_symmetry_cell_setting	triclinic
loop_
_symmetry_equiv_pos_as_xyz
  x,y,z
_cell_length_a	15.995350
_cell_length_b	16.109301
_cell_length_c	15.186229
_cell_angle_alpha	90.000638
_cell_angle_beta	89.998487
_cell_angle_gamma	96.523072
loop_
_atom_site_label
_atom_site_type_symbol
_atom_site_fract_x
_atom_site_fract_y
_atom_site_fract_z
O1	O	0.107624	-1.103160	-0.073168
O2	O	0.607624	-0.603160	0.426832
O3	O	0.121018	-0.861101	-0.073182
O4	O	0.621018	-0.361101	0.426818
O5	O	-0.007569	-0.988747	-0.073174
O6	O	0.492431	-0.488747	0.426826
O7	O	0.236210	-0.975514	-0.073176
O8	O	0.736210	-0.475514	0.426824
O9	O	-0.007570	-0.988739	0.073283
O10	O	0.492430	-0.488739	0.573283
O11	O	0.121016	-0.861093	0.073275
O12	O	0.621016	-0.361093	0.573275
O13	O	0.107622	-1.103151	0.073289
O14	O	0.607622	-0.603151	0.573289
Zn15	Zn	0.114319	-0.982121	0.096535
Zn16	Zn	0.614319	-0.482121	0.596535
Zn17	Zn	0.114321	-0.982132	-0.096428
Zn18	Zn	0.614321	-0.482132	0.403572
O19	O	0.236208	-0.975505	0.073281
O20	O	0.736208	-0.475505	0.573281
C21	C	-0.038764	-0.988196	0.000053
C22	C	0.461236	-0.488196	0.500053
C23	C	-0.131714	-0.986556	0.000048
C24	C	0.368286	-0.486556	0.500048
C25	C	0.120474	-0.830122	0.000045
C26	C	0.620474	-0.330122	0.500045
C27	C	0.118848	-0.737826	0.000040
C28	C	0.618848	-0.237826	0.500040
C29	C	0.108166	-1.134130	0.000060
C30	C	0.608166	-0.634130	0.500060
C31	C	0.109792	-1.226426	0.000059
C32	C	0.609792	-0.726426	0.500059
C33	C	-0.469460	-0.980665	0.000050
C34	C	0.030540	-0.480665	0.500050
C35	C	-0.422001	-0.889758	-0.000283
C36	C	0.077999	-0.389758	0.499717
C37	C	-0.325311	-0.891399	0.000047
C38	C	0.174689	-0.391399	0.500047
C39	C	-0.301900	-0.983587	0.000049
C40	C	0.198100	-0.483587	0.500049
C41	C	-0.342991	-1.028421	0.083684
C42	C	0.157009	-0.528421	0.583684
C43	C	-0.439626	-1.026137	0.083754
C44	C	0.060374	-0.526137	0.583754
C45	C	-0.439983	-1.028025	-0.082795
C46	C	0.060017	-0.528025	0.417205
C47	C	-0.343037	-1.028003	-0.083901
C48	C	0.156963	-0.528003	0.416099
C49	C	-0.207203	-0.985243	0.000051
C50	C	0.292797	-0.485243	0.500051
C51	C	-0.564157	-0.979012	0.000054
C52	C	-0.064157	-0.479012	0.500054
C53	C	0.267404	-0.976056	0.000052
C54	C	0.767404	-0.476056	0.500052
C55	C	0.360354	-0.977697	0.000051
C56	C	0.860354	-0.477697	0.500051
N57	N	0.114317	-0.982119	0.228228
N58	N	0.614317	-0.482119	0.728228
C59	C	0.191366	-0.515573	0.000049
C60	C	0.691366	-0.015573	0.500049
C61	C	0.189831	-0.428853	0.000055
C62	C	0.689831	0.071147	0.500055
C63	C	0.037268	-0.448686	0.000053
C64	C	0.537268	0.051314	0.500053
C65	C	0.038804	-0.535405	0.000053
C66	C	0.538804	-0.035405	0.500053
C67	C	0.115855	-0.568846	0.000047
C68	C	0.615855	-0.068846	0.500047
C69	C	0.112785	-0.395406	0.000052
C70	C	0.612785	0.104594	0.500052
C71	C	0.111120	-0.301380	0.000058
C72	C	0.611120	0.198620	0.500058
C73	C	0.117520	-0.662879	0.000043
C74	C	0.617520	-0.162879	0.500043
N75	N	0.114317	-0.982140	-0.228121
N76	N	0.614317	-0.482140	0.271879
C77	C	0.057398	-1.038660	0.453954
C78	C	0.557398	-0.538660	0.953954
C79	C	0.057396	-1.038662	0.546144
C80	C	0.557396	-0.538662	1.046144
C81	C	0.171238	-0.925593	0.546146
C82	C	0.671238	-0.425593	1.046146
C83	C	0.171236	-0.925587	0.453958
C84	C	0.671236	-0.425587	0.953958
C85	C	0.114316	-0.982125	0.407865
C86	C	0.614316	-0.482125	0.907865
C87	C	0.114317	-0.982134	0.592242
C88	C	0.614317	-0.482134	1.092242
C89	C	0.114315	-0.982136	0.692198
C90	C	0.614315	-0.482136	1.192198
C91	C	0.114317	-0.982122	0.307902
C92	C	0.614317	-0.482122	0.807902
H93	H	-0.296879	-0.856156	-0.059906
H94	H	0.203121	-0.356156	0.440094
H95	H	-0.327694	-1.095231	-0.088949
H96	H	0.172306	-0.595231	0.411051
H97	H	0.217586	-0.879546	0.416429
H98	H	0.717586	-0.379546	0.916429
F99	F	0.231815	-0.865426	0.595208
F100	F	0.731815	-0.365426	1.095208
F101	F	-0.003183	-1.098831	0.404902
F102	F	0.496817	-0.598831	0.904902
H103	H	0.251320	-0.385481	0.000058
H104	H	0.751320	0.114519	0.500058
F105	F	-0.044731	-0.413087	0.000055
F106	F	0.455269	0.086913	0.500055
F107	F	-0.446207	-0.842268	-0.078678
F108	F	0.053793	-0.342268	0.421322
F109	F	-0.447881	-0.842350	0.077455
F110	F	0.052119	-0.342350	0.577455
F111	F	-0.041570	-0.592106	0.000057
F112	F	0.458430	-0.092106	0.500057
F113	F	-0.003186	-1.098832	0.595193
F114	F	0.496814	-0.598832	1.095193
F115	F	-0.288874	-0.845013	0.078537
F116	F	0.211126	-0.345013	0.578537
H117	H	-0.457919	-0.993437	0.146271
H118	H	0.042081	-0.493437	0.646271
F119	F	-0.324554	-1.116947	0.087754
F120	F	0.175446	-0.616947	0.587754
H121	H	0.254106	-0.542798	0.000051
H122	H	0.754106	-0.042798	0.500051
F123	F	-0.305887	-0.987711	0.165034
F124	F	0.194113	-0.487711	0.665034
F125	F	-0.481803	-1.113372	0.088724
F126	F	0.018197	-0.613372	0.588724
H127	H	-0.460513	-0.998306	-0.146186
H128	H	0.039487	-0.498306	0.353814
H129	H	-0.315779	-0.995224	-0.145772
H130	H	0.184221	-0.495224	0.354228
H131	H	-0.471762	-1.095050	-0.083356
H132	H	0.028238	-0.595050	0.416644
