data_functionalizedCrystal
_audit_creation_method	'MofGen! by Chris Wilmer'
_symmetry_space_group_name_H-M	'P1'
_symmetry_Int_Tables_number	1
_symmetry_cell_setting	triclinic
loop_
_symmetry_equiv_pos_as_xyz
  x,y,z
_cell_length_a	19.805407
_cell_length_b	13.897447
_cell_length_c	13.897441
_cell_angle_alpha	89.970673
_cell_angle_beta	89.978935
_cell_angle_gamma	90.016846
loop_
_atom_site_label
_atom_site_type_symbol
_atom_site_fract_x
_atom_site_fract_y
_atom_site_fract_z
Zn1	Zn	1.034790	-0.384053	-0.545398
Zn2	Zn	1.034712	-0.545375	-0.384103
Zn3	Zn	0.921598	-0.384088	-0.384116
Zn4	Zn	0.921582	-0.545300	-0.545355
O5	O	0.978170	-0.464704	-0.464743
O6	O	1.129496	-0.405470	-0.524015
O7	O	1.019681	-0.524026	-0.249123
O8	O	0.936653	-0.249102	-0.405533
O9	O	1.129439	-0.523992	-0.405512
O10	O	1.019814	-0.249076	-0.524027
O11	O	0.936577	-0.405529	-0.249132
O12	O	0.826879	-0.405457	-0.405491
O13	O	0.936625	-0.523865	-0.680342
O14	O	0.826867	-0.523899	-0.523953
O15	O	1.019798	-0.405397	-0.680374
O16	O	1.019665	-0.680347	-0.405470
O17	O	0.936549	-0.680292	-0.523941
C18	C	0.802314	-0.464674	-0.464720
C19	C	0.727082	-0.464684	-0.464732
C20	C	0.691769	-0.403079	-0.526531
C21	C	0.621080	-0.403084	-0.526534
C22	C	0.585707	-0.464700	-0.464744
C23	C	0.621025	-0.526308	-0.402939
C24	C	0.691712	-0.526297	-0.402931
C25	C	0.335952	-0.526351	-0.402969
C26	C	0.265260	-0.526359	-0.402983
C27	C	0.265320	-0.403138	-0.526572
C28	C	0.336007	-0.403127	-0.526564
C29	C	0.371319	-0.464731	-0.464756
C30	C	0.447968	-0.464724	-0.464751
C31	C	0.509060	-0.464713	-0.464753
C32	C	0.978115	-0.715318	-0.464721
C33	C	0.978154	-0.822532	-0.464743
C34	C	0.978186	-0.909602	-0.464765
C35	C	0.978234	-1.018835	-0.464790
C36	C	1.154713	-0.464735	-0.464767
C37	C	1.229945	-0.464748	-0.464777
C38	C	0.978218	-0.464619	-0.716336
C39	C	0.978239	-0.464583	-0.823550
C40	C	0.978244	-0.213111	-0.464787
C41	C	0.978275	-0.105897	-0.464805
C42	C	0.978257	-0.464517	-1.019845
C43	C	0.978245	-0.464556	-0.910613
C44	C	0.978161	-0.464719	-0.214129
C45	C	0.978272	-0.464484	-0.106915
H46	H	0.720464	-0.576462	-0.352608
H47	H	0.236560	-0.352973	-0.576896
O48	O	0.726023	-0.343136	-0.586589
C49	C	0.718613	-0.220955	-0.709219
C50	C	0.679739	-0.288779	-0.641236
H51	H	0.681210	-0.177005	-0.753434
H52	H	0.751683	-0.170394	-0.665067
H53	H	0.751734	-0.265314	-0.759534
H54	H	0.646582	-0.244497	-0.590907
H55	H	0.646712	-0.339343	-0.685448
H56	H	0.592331	-0.352920	-0.576859
O57	O	0.370263	-0.343182	-0.586617
C58	C	0.362860	-0.220994	-0.709240
C59	C	0.323983	-0.288821	-0.641266
H60	H	0.325460	-0.177040	-0.753456
H61	H	0.395928	-0.170436	-0.665082
H62	H	0.395984	-0.265350	-0.759555
H63	H	0.290823	-0.244543	-0.590938
H64	H	0.290958	-0.339382	-0.685485
H65	H	0.236461	-0.576537	-0.352662
O66	O	0.370281	-0.586060	-0.342838
C67	C	0.450077	-0.598879	-0.212615
C68	C	0.411224	-0.531144	-0.280637
H69	H	0.483199	-0.554508	-0.162322
H70	H	0.412683	-0.642907	-0.168387
H71	H	0.483148	-0.649381	-0.256833
H72	H	0.378152	-0.480584	-0.236493
H73	H	0.448654	-0.487184	-0.324868
H74	H	0.592219	-0.576472	-0.352624
