data_functionalizedCrystal
_audit_creation_method	'MofGen! by Chris Wilmer'
_symmetry_space_group_name_H-M	'P1'
_symmetry_Int_Tables_number	1
_symmetry_cell_setting	triclinic
loop_
_symmetry_equiv_pos_as_xyz
  x,y,z
_cell_length_a	26.455835
_cell_length_b	26.455273
_cell_length_c	26.451828
_cell_angle_alpha	60.005170
_cell_angle_beta	60.010757
_cell_angle_gamma	59.993435
loop_
_atom_site_label
_atom_site_type_symbol
_atom_site_fract_x
_atom_site_fract_y
_atom_site_fract_z
O1	O	0.069940	-0.738516	0.617604
O2	O	0.026299	-0.574986	0.497618
O3	O	0.129847	-0.678463	0.497546
O4	O	-0.033607	-0.635040	0.617676
O5	O	0.164197	-0.644116	0.531822
O6	O	0.060649	-0.540639	0.531894
O7	O	0.104290	-0.704170	0.651880
Cu8	Cu	0.085606	-0.619268	0.595016
Cu9	Cu	0.044984	-0.659887	0.554481
O10	O	0.000742	-0.600693	0.651952
N11	N	0.114179	-0.590703	0.623530
N12	N	0.016416	-0.688458	0.525968
C13	C	0.157553	-0.547535	0.933368
C14	C	0.424104	-0.547506	0.666656
C15	C	0.157413	-0.547503	0.666729
C16	C	0.157397	-0.280846	0.666749
C17	C	0.200330	-0.409550	0.709625
C18	C	0.200339	-0.504608	0.709615
C19	C	0.224118	-0.480848	0.733375
C20	C	0.327800	-0.462984	0.678792
C21	C	0.392611	-0.484588	0.657175
C22	C	0.392630	-0.589450	0.697162
C23	C	0.327821	-0.567844	0.718781
C24	C	0.215955	-0.377135	0.645910
C25	C	0.194327	-0.312320	0.624323
C26	C	0.141457	-0.312339	0.730169
C27	C	0.163084	-0.377154	0.751756
C28	C	0.136618	-0.488954	0.725292
C29	C	0.115007	-0.510553	0.703686
C30	C	0.220833	-0.563461	0.650740
C31	C	0.242447	-0.541861	0.672339
C32	C	0.136680	-0.488971	0.837094
C33	C	0.115112	-0.510589	0.901907
C34	C	0.220969	-0.563508	0.901868
C35	C	0.242535	-0.541892	0.837053
C36	C	0.200389	-0.504622	0.804668
C37	C	0.295409	-0.504610	0.709593
C38	C	0.132990	-0.570876	1.004655
C39	C	0.495389	-0.570440	0.642547
C40	C	0.132802	-0.570856	0.643399
C41	C	0.133212	-0.209553	0.643833
C42	C	-0.097217	-0.706972	0.506986
C43	C	-0.002040	-0.707108	0.412067
C44	C	-0.002230	-0.802124	0.507163
C45	C	-0.002214	-0.707101	0.507221
C46	C	-0.025925	-0.730827	0.483360
N47	N	0.553723	-0.590712	0.623415
O48	O	0.751638	-0.596429	0.475603
O49	O	0.751819	-0.716773	0.638980
O50	O	0.751753	-0.716500	0.535361
O51	O	0.751705	-0.596703	0.579222
O52	O	0.648791	-0.682239	0.569747
O53	O	0.648858	-0.682512	0.673366
O54	O	0.648676	-0.562169	0.509989
Cu55	Cu	0.639366	-0.619212	0.594817
Cu56	Cu	0.761130	-0.659729	0.554152
O57	O	0.648743	-0.562442	0.613609
N58	N	0.846773	-0.688230	0.525548
N59	N	0.114157	-0.151217	0.623565
O60	O	-0.033591	0.046803	0.617717
O61	O	0.129795	0.046806	0.497390
O62	O	0.026157	0.046789	0.497680
O63	O	0.070046	0.046819	0.617427
O64	O	0.060509	-0.056181	0.532004
O65	O	0.164146	-0.056164	0.531714
O66	O	0.000760	-0.056167	0.652041
Cu67	Cu	0.085590	-0.065568	0.595012
Cu68	Cu	0.044965	0.056206	0.554419
O69	O	0.104397	-0.056151	0.651751
N70	N	0.016390	0.141855	0.525867
N71	N	0.114410	-0.590756	1.062992
O72	O	0.108565	-0.738494	1.260998
O73	O	-0.011747	-0.575059	1.261012
O74	O	-0.011470	-0.678679	1.260970
O75	O	0.108287	-0.634874	1.261040
O76	O	0.022849	-0.644347	1.158004
O77	O	0.022572	-0.540726	1.158046
O78	O	0.142884	-0.704162	1.158033
Cu79	Cu	0.085861	-0.619309	1.148638
Cu80	Cu	0.045275	-0.659911	1.270406
O81	O	0.142606	-0.600541	1.158074
N82	N	0.016726	-0.688471	1.356052
C83	C	0.039385	-0.537207	0.498225
C84	C	0.167616	-0.665350	0.498136
C85	C	0.091204	-0.741950	0.651272
C86	C	-0.037027	-0.613806	0.651361
C87	C	0.700360	-0.716215	0.676756
C88	C	0.700279	-0.715877	0.548436
C89	C	0.700133	-0.562725	0.472214
C90	C	0.700218	-0.563065	0.600533
C91	C	0.167511	-0.004552	0.497940
C92	C	0.039211	-0.004699	0.498341
C93	C	-0.036999	-0.004682	0.651449
C94	C	0.091344	-0.004663	0.651090
C95	C	-0.011156	-0.537302	1.209530
C96	C	-0.010806	-0.665617	1.209458
C97	C	0.142293	-0.741918	1.209514
C98	C	0.141950	-0.613596	1.209563
H99	H	0.102355	-0.458618	0.810728
H100	H	0.214338	-0.004265	0.460069
C101	C	0.207639	-0.816402	1.156564
C102	C	0.193288	-0.805282	1.209508
H103	H	0.239120	-0.855521	1.156562
H104	H	0.221831	-0.784906	1.120674
H105	H	0.171700	-0.816329	1.156555
H106	H	0.229226	-0.805351	1.209514
H107	H	0.179099	-0.836786	1.245406
H108	H	0.063121	-0.497793	0.716436
C109	C	0.129683	-0.239444	0.767273
C110	C	0.100515	-0.276720	0.776473
H111	H	0.104405	-0.217457	0.795861
H112	H	0.135885	-0.210869	0.726239
H113	H	0.168538	-0.264728	0.773490
H114	H	0.061662	-0.251435	0.770251
H115	H	0.094305	-0.305298	0.817517
H116	H	0.179573	-0.604224	1.209577
H117	H	0.700298	-0.753510	0.539047
H118	H	0.700073	-0.524942	0.425295
C119	C	0.079269	-0.004708	0.394444
C120	C	0.026534	-0.004708	0.447552
H121	H	0.071439	-0.004710	0.363089
H122	H	0.113039	-0.040612	0.404077
H123	H	0.089084	0.031204	0.380142
H124	H	0.016720	-0.040623	0.461856
H125	H	-0.007248	0.031200	0.437919
C126	C	-0.040112	-0.435609	1.209562
C127	C	-0.062151	-0.473938	1.209536
H128	H	-0.071596	-0.396493	1.209569
H129	H	-0.004936	-0.430193	1.173665
H130	H	-0.028865	-0.454144	1.245478
H131	H	-0.073394	-0.455405	1.173618
H132	H	-0.097338	-0.479352	1.245437
H133	H	-0.083976	-0.604550	0.689083
H134	H	-0.048413	-0.674973	1.209396
H135	H	0.700405	-0.753994	0.723681
C136	C	0.231142	-0.625013	0.394178
C137	C	0.230990	-0.677841	0.447205
H138	H	0.270266	-0.632727	0.362734
H139	H	0.223619	-0.591270	0.403864
H140	H	0.199650	-0.615221	0.379967
H141	H	0.262479	-0.687630	0.461418
H142	H	0.238520	-0.711594	0.437517
C143	C	0.012644	-0.456091	0.895426
C144	C	0.045077	-0.493371	0.937543
H145	H	-0.030592	-0.445459	0.917429
H146	H	0.023254	-0.478076	0.870147
H147	H	0.023268	-0.419448	0.870146
H148	H	0.034456	-0.530017	0.962820
H149	H	0.034462	-0.471385	0.962832
H150	H	0.255291	-0.593843	0.928229
H151	H	0.700208	-0.525435	0.609919
C152	C	0.164188	-0.843583	0.679934
C153	C	0.103779	-0.805365	0.702146
H154	H	0.171948	-0.882734	0.711341
H155	H	0.192768	-0.824999	0.668659
H156	H	0.168810	-0.848942	0.644743
H157	H	0.099158	-0.800002	0.737334
H158	H	0.075191	-0.823953	0.713429
H159	H	0.100739	-0.004653	0.688708
C160	C	0.345004	-0.596369	0.843527
C161	C	0.312570	-0.559097	0.801412
H162	H	0.388240	-0.606987	0.821524
H163	H	0.334393	-0.633014	0.868803
H164	H	0.334383	-0.574377	0.868811
H165	H	0.323188	-0.581090	0.776131
H166	H	0.323186	-0.522446	0.776126
C167	C	-0.138699	-0.004670	0.680407
C168	C	-0.100347	-0.004667	0.702444
H169	H	-0.177809	-0.004653	0.711887
H170	H	-0.120185	-0.040584	0.669177
H171	H	-0.144120	0.031232	0.645217
H172	H	-0.094922	-0.040571	0.737632
H173	H	-0.118864	0.031251	0.713683
H174	H	0.255124	-0.593799	0.620395
C175	C	0.339266	-0.537048	0.590641
C176	C	0.312488	-0.559045	0.655103
H177	H	0.382506	-0.547655	0.580000
H178	H	0.321032	-0.493323	0.575761
H179	H	0.332429	-0.555257	0.572446
H180	H	0.319321	-0.540832	0.673298
H181	H	0.330728	-0.602778	0.669990
C182	C	0.334354	-0.673667	0.756126
C183	C	0.292214	-0.613604	0.752635
H184	H	0.312370	-0.701916	0.777023
H185	H	0.359646	-0.684511	0.778202
H186	H	0.359617	-0.675310	0.715516
H187	H	0.266954	-0.611960	0.793245
H188	H	0.266912	-0.602757	0.730560
H189	H	0.102328	-0.458621	0.755642
H190	H	0.418982	-0.450689	0.632093
C191	C	0.491991	-0.669130	0.681773
C192	C	0.428265	-0.658958	0.707254
H193	H	0.513988	-0.712040	0.688002
H194	H	0.502619	-0.655726	0.701357
H195	H	0.502585	-0.646528	0.638674
H196	H	0.417670	-0.681557	0.750354
H197	H	0.417633	-0.672369	0.687672
C198	C	0.334297	-0.361504	0.637094
C199	C	0.292175	-0.393476	0.668695
H200	H	0.312301	-0.318593	0.630863
H201	H	0.359558	-0.367517	0.598156
H202	H	0.359593	-0.376714	0.660837
H203	H	0.266882	-0.378270	0.644949
H204	H	0.266903	-0.387459	0.707639
H205	H	0.246280	-0.403511	0.611604
C206	C	0.189511	-0.292346	0.527464
C207	C	0.211498	-0.276685	0.554282
H208	H	0.200116	-0.270349	0.484224
H209	H	0.145790	-0.281725	0.545678
H210	H	0.207725	-0.335584	0.534295
H211	H	0.193281	-0.233447	0.547455
H212	H	0.255228	-0.287301	0.536063
C213	C	0.167901	-0.397132	0.848616
C214	C	0.145914	-0.412791	0.821796
H215	H	0.157303	-0.419136	0.891855
H216	H	0.149689	-0.353901	0.841791
H217	H	0.211628	-0.407752	0.830397
H218	H	0.102186	-0.402167	0.840012
H219	H	0.164124	-0.456032	0.828626
C220	C	-0.033604	-0.435578	0.469558
C221	C	0.026806	-0.473795	0.447348
H222	H	-0.041369	-0.396432	0.438146
H223	H	-0.038227	-0.430210	0.504740
H224	H	-0.062184	-0.454172	0.480842
H225	H	0.055387	-0.455203	0.436069
H226	H	0.031435	-0.479162	0.412156
