data_functionalizedCrystal
_audit_creation_method	'MofGen! by Chris Wilmer'
_symmetry_space_group_name_H-M	'P1'
_symmetry_Int_Tables_number	1
_symmetry_cell_setting	triclinic
loop_
_symmetry_equiv_pos_as_xyz
  x,y,z
_cell_length_a	12.759401
_cell_length_b	29.839131
_cell_length_c	12.759393
_cell_angle_alpha	90.037890
_cell_angle_beta	90.019613
_cell_angle_gamma	90.041651
loop_
_atom_site_label
_atom_site_type_symbol
_atom_site_fract_x
_atom_site_fract_y
_atom_site_fract_z
Zn1	Zn	1.606060	-0.178824	0.593966
Zn2	Zn	1.605873	-0.253963	0.418267
Zn3	Zn	1.430362	-0.178848	0.418302
Zn4	Zn	1.430269	-0.253928	0.593905
O5	O	1.518141	-0.216391	0.506110
O6	O	1.753056	-0.188796	0.570670
O7	O	1.582551	-0.244023	0.271251
O8	O	1.453787	-0.115977	0.441645
O9	O	1.752919	-0.244000	0.441585
O10	O	1.582871	-0.115960	0.570705
O11	O	1.453605	-0.188836	0.271277
O12	O	1.283329	-0.188803	0.441586
O13	O	1.453628	-0.243941	0.740934
O14	O	1.283260	-0.243964	0.570600
O15	O	1.582781	-0.188762	0.740979
O16	O	1.582461	-0.316825	0.441525
O17	O	1.453446	-0.316800	0.570566
C18	C	1.245174	-0.216382	0.506091
C19	C	1.128397	-0.216390	0.506107
C20	C	1.517951	-0.333113	0.506058
C21	C	1.517966	-0.383048	0.506071
C22	C	1.073467	-0.245088	0.438801
C23	C	0.963743	-0.245096	0.438819
C24	C	0.963889	-0.187703	0.573453
C25	C	1.073611	-0.187698	0.573439
C26	C	1.073382	-0.278223	0.361067
C27	C	0.963658	-0.278230	0.361086
C28	C	1.585442	-0.692692	0.439017
C29	C	1.585571	-0.880365	0.439058
O30	O	1.642791	-0.904630	0.382006
N31	N	1.518359	-0.903833	0.506189
C32	C	1.451114	-0.880380	0.573321
O33	O	1.393957	-0.904647	0.630429
C34	C	1.450991	-0.692707	0.573284
C35	C	1.518200	-0.669242	0.506141
C36	C	1.652646	-0.669226	0.371880
C37	C	1.652609	-0.622310	0.371866
C38	C	1.585367	-0.598861	0.438990
C39	C	1.518163	-0.622326	0.506127
C40	C	1.383752	-0.669255	0.640420
C41	C	1.383729	-0.622334	0.640407
C42	C	1.450938	-0.598869	0.573263
C43	C	1.450884	-0.551961	0.573237
N44	N	1.518096	-0.528493	0.506106
C45	C	1.585338	-0.551943	0.438982
C46	C	1.451183	-0.978910	0.573333
C47	C	1.451212	-1.025828	0.573341
C48	C	1.585670	-1.025810	0.439080
C49	C	1.585635	-0.978891	0.439067
C50	C	1.518395	-0.955442	0.506202
C51	C	1.585254	-0.453417	0.438958
C52	C	1.585208	-0.406497	0.438947
C53	C	1.450754	-0.406520	0.573212
C54	C	1.450796	-0.453435	0.573220
C55	C	1.518054	-0.476883	0.506089
O56	O	1.393703	-0.527667	0.630268
O57	O	1.642503	-0.527667	0.381899
C58	C	1.585479	-0.739607	0.439031
C59	C	1.518274	-0.763073	0.506168
C60	C	1.451033	-0.739623	0.573292
C61	C	1.518304	-0.809990	0.506176
C62	C	1.585545	-0.833440	0.439052
C63	C	1.652757	-0.809972	0.371920
C64	C	1.652720	-0.763057	0.371907
C65	C	1.383820	-0.763091	0.640423
C66	C	1.383862	-0.810006	0.640431
C67	C	1.451104	-0.833456	0.573307
C68	C	1.792174	-0.216399	0.506131
C69	C	1.908951	-0.216403	0.506139
C70	C	1.518215	-0.216345	0.780144
C71	C	1.518246	-0.216326	0.896920
C72	C	1.518360	-0.099212	0.506186
C73	C	1.518454	-0.049278	0.506218
C74	C	1.518128	-0.216403	0.233143
C75	C	1.518301	-0.216296	0.116367
C76	C	1.585505	-0.187592	0.951808
C77	C	1.585530	-0.187575	1.061532
C78	C	1.451034	-0.245032	1.061472
C79	C	1.451004	-0.245045	0.951750
C80	C	1.663159	-0.154421	0.951843
C81	C	1.663184	-0.154405	1.061567
H82	H	1.118331	-0.164333	0.628258
C83	C	0.903621	-0.156142	0.647506
H84	H	0.830407	-0.160253	0.637872
H85	H	0.921629	-0.162750	0.718066
H86	H	0.921637	-0.125946	0.632250
H87	H	1.396286	-0.268413	1.106127
H88	H	1.103118	-0.313027	0.382704
C89	C	1.377276	-1.051635	0.647193
H90	H	1.337236	-1.030946	0.687172
H91	H	1.331528	-1.069971	0.606975
H92	H	1.417459	-1.069904	0.693015
H93	H	1.641428	-0.119629	0.922096
H94	H	1.740417	-0.166894	0.917805
C95	C	1.623923	-0.109747	1.107583
H96	H	1.606427	-0.089869	1.052148
H97	H	1.563666	-0.115074	1.149478
H98	H	1.677469	-0.096742	1.149500
C99	C	1.773085	-0.166996	1.101808
H100	H	1.773099	-0.166979	1.176265
H101	H	1.791198	-0.195992	1.076979
H102	H	1.822756	-0.145775	1.077016
C103	C	1.119341	-0.261338	0.256718
H104	H	1.063881	-0.253824	0.210257
H105	H	1.161293	-0.235577	0.269301
H106	H	1.161192	-0.284203	0.226209
C107	C	1.659632	-1.051610	0.365242
H108	H	1.650021	-1.082913	0.374873
H109	H	1.644296	-1.043952	0.294635
H110	H	1.730214	-1.043889	0.380688
H111	H	0.929594	-0.311301	0.390089
H112	H	0.933854	-0.268871	0.279760
C113	C	1.659146	-0.380688	0.365091
H114	H	1.699204	-0.401376	0.325127
H115	H	1.618973	-0.362418	0.319271
H116	H	1.704892	-0.362352	0.405324
C117	C	1.726552	-0.596504	0.298021
H118	H	1.766607	-0.617195	0.258060
H119	H	1.686390	-0.578232	0.252196
H120	H	1.772301	-0.578171	0.338257
C121	C	1.659229	-0.479203	0.365108
H122	H	1.699235	-0.458502	0.325120
H123	H	1.705006	-0.497473	0.405330
H124	H	1.619069	-0.497536	0.319294
C125	C	1.377202	-0.953122	0.647175
H126	H	1.337175	-0.973822	0.687143
H127	H	1.417340	-0.934786	0.692993
H128	H	1.331430	-0.934854	0.606932
H129	H	1.707408	-0.688314	0.317219
H130	H	1.640363	-0.959788	0.384394
C131	C	1.309828	-0.695057	0.714287
H132	H	1.269795	-0.674365	0.754266
H133	H	1.264076	-0.713395	0.674078
H134	H	1.350016	-0.713324	0.760109
H135	H	1.328975	-0.603244	0.695079
C136	C	1.376867	-0.479248	0.647073
H137	H	1.336819	-0.458561	0.687051
H138	H	1.331126	-0.497589	0.606859
H139	H	1.417059	-0.497513	0.692897
H140	H	1.396003	-0.387420	0.627861
H141	H	1.707448	-0.743954	0.317233
H142	H	1.707505	-0.829073	0.317263
H143	H	1.329123	-0.829108	0.695106
C144	C	1.377000	-0.276644	0.891377
H145	H	1.336963	-0.293746	0.939748
H146	H	1.331253	-0.259456	0.848592
H147	H	1.417130	-0.296231	0.848556
H148	H	1.329065	-0.744002	0.695085
