data_functionalizedCrystal
_audit_creation_method	'MofGen! by Chris Wilmer'
_symmetry_space_group_name_H-M	'P1'
_symmetry_Int_Tables_number	1
_symmetry_cell_setting	triclinic
loop_
_symmetry_equiv_pos_as_xyz
  x,y,z
_cell_length_a	13.930277
_cell_length_b	10.723024
_cell_length_c	10.723024
_cell_angle_alpha	95.532131
_cell_angle_beta	90.003357
_cell_angle_gamma	89.993087
loop_
_atom_site_label
_atom_site_type_symbol
_atom_site_fract_x
_atom_site_fract_y
_atom_site_fract_z
O1	O	0.079822	-1.657194	0.175026
O2	O	0.079825	-1.294041	0.191780
O3	O	0.079820	-1.483994	0.001827
O4	O	0.079827	-1.467241	0.364979
O5	O	-0.079842	-1.483967	0.001823
O6	O	-0.079837	-1.294015	0.191775
O7	O	-0.079840	-1.657167	0.175022
Zn8	Zn	-0.105188	-1.475586	0.183398
Zn9	Zn	0.105173	-1.475622	0.183404
O10	O	-0.079835	-1.467214	0.364975
C11	C	-0.000005	-1.247528	0.190558
C12	C	-0.000004	-1.108974	0.186911
N13	N	-0.248754	-1.475572	0.183393
C14	C	-0.000010	-1.482762	-0.044675
C15	C	-0.000006	-1.479114	-0.183229
C16	C	-0.701021	-1.391507	0.267481
C17	C	-0.700995	-1.559771	0.099317
C18	C	-0.600499	-1.559756	0.099312
C19	C	-0.550260	-1.475616	0.183395
C20	C	-0.600516	-1.391492	0.267483
C21	C	-0.550236	-1.643887	0.015235
C22	C	-0.449734	-1.643877	0.015229
C23	C	-0.399492	-1.559730	0.099307
C24	C	-0.449755	-1.475601	0.183396
C25	C	-0.399515	-1.391462	0.267480
C26	C	-0.449776	-1.307326	0.351564
C27	C	-0.550275	-1.307346	0.351561
C28	C	-0.298994	-1.559711	0.099310
C29	C	-0.299010	-1.391447	0.267481
N30	N	0.248739	-1.475646	0.183398
C31	C	-0.000007	-1.703680	0.176243
C32	C	-0.000002	-1.842234	0.179891
C33	C	-0.000002	-1.033991	0.293198
C34	C	-0.000000	-0.890788	0.289431
C35	C	-0.000006	-1.585401	-0.258212
C36	C	-0.000002	-1.581634	-0.401415
C37	C	-0.000003	-1.468447	0.411477
C38	C	0.000000	-1.472094	0.550031
H39	H	-0.258111	-1.322926	0.335947
H40	H	-0.000007	-1.381099	-0.385544
O41	O	-0.000047	-1.059300	0.074911
C42	C	0.000012	-1.100329	-0.150022
C43	C	0.000037	-1.156746	-0.023266
H44	H	0.000100	-1.179087	-0.229432
H45	H	-0.066821	-1.040093	-0.157315
H46	H	0.066815	-1.040026	-0.157152
H47	H	-0.066721	-1.217106	-0.016050
H48	H	0.066915	-1.216910	-0.016028
H49	H	-0.408818	-1.712383	-0.053238
H50	H	-0.741946	-1.323001	0.335939
O51	O	-0.000051	-1.697186	-0.208125
C52	C	0.000003	-1.802864	-0.019730
C53	C	0.000032	-1.676178	-0.076282
H54	H	0.000091	-1.785923	0.086872
H55	H	-0.066831	-1.858232	-0.052028
H56	H	0.066805	-1.858234	-0.052184
H57	H	-0.066725	-1.620707	-0.043855
H58	H	0.066911	-1.620906	-0.043990
H59	H	-0.408859	-1.238825	0.420031
O60	O	-0.599246	-1.225751	0.433195
C61	C	-0.754085	-1.151171	0.507679
C62	C	-0.698741	-1.243656	0.415179
H63	H	-0.834537	-1.165598	0.493127
H64	H	-0.734387	-1.168282	0.607807
H65	H	-0.734294	-1.051093	0.490522
H66	H	-0.718503	-1.343770	0.432222
H67	H	-0.718445	-1.226437	0.315082
H68	H	0.000002	-0.906659	0.088896
H69	H	-0.258076	-1.628219	0.030856
H70	H	-0.741903	-1.628281	0.030864
O71	O	-0.599185	-1.725497	-0.066388
C72	C	-0.754005	-1.800132	-0.140862
C73	C	-0.698685	-1.707621	-0.048372
H74	H	-0.834460	-1.785730	-0.126311
H75	H	-0.734324	-1.783026	-0.240994
H76	H	-0.734174	-1.900202	-0.123694
H77	H	-0.718485	-1.607516	-0.065426
H78	H	-0.718370	-1.724836	0.051728
H79	H	0.000001	-1.385328	-0.225051
O80	O	0.000127	-1.690275	-0.478145
C81	C	0.082875	-1.883262	-0.542024
C82	C	0.082836	-1.760283	-0.455033
H83	H	0.149748	-1.939886	-0.523387
H84	H	0.016102	-1.940044	-0.523349
H85	H	0.082830	-1.860852	-0.643812
H86	H	0.082914	-1.782579	-0.353214
H87	H	0.149603	-1.703537	-0.473816
H88	H	0.000006	-0.826355	0.380421
O89	O	0.000038	-1.084078	0.404983
C90	C	-0.000031	-1.272473	0.510661
C91	C	-0.000051	-1.215921	0.383975
H92	H	-0.000124	-1.379075	0.493719
H93	H	0.066803	-1.240196	0.566047
H94	H	-0.066833	-1.239999	0.566012
H95	H	0.066706	-1.248369	0.328522
H96	H	-0.066930	-1.248193	0.328684
