data_functionalizedCrystal
_audit_creation_method	'MofGen! by Chris Wilmer'
_symmetry_space_group_name_H-M	'P1'
_symmetry_Int_Tables_number	1
_symmetry_cell_setting	triclinic
loop_
_symmetry_equiv_pos_as_xyz
  x,y,z
_cell_length_a	31.640172
_cell_length_b	18.878441
_cell_length_c	18.878441
_cell_angle_alpha	89.999813
_cell_angle_beta	60.007274
_cell_angle_gamma	59.999889
loop_
_atom_site_label
_atom_site_type_symbol
_atom_site_fract_x
_atom_site_fract_y
_atom_site_fract_z
Zr1	Zr	0.462599	-0.092970	0.682487
O2	O	0.550761	-0.206068	0.569404
O3	O	0.374433	-0.058301	0.717138
O4	O	0.462597	-0.206075	0.717159
O5	O	0.462600	0.058273	0.569383
O6	O	0.462600	-0.206079	0.833727
O7	O	0.462597	-0.058294	0.569383
O8	O	0.304891	0.058261	0.833690
O9	O	0.620308	-0.206067	0.569420
O10	O	0.410700	-0.043517	0.818927
O11	O	0.410700	0.043480	0.731934
O12	O	0.514501	-0.130505	0.731958
O13	O	0.514501	-0.043509	0.644965
Zr14	Zr	0.462607	0.092935	0.868398
Zr15	Zr	0.462603	-0.092977	0.868399
Zr16	Zr	0.462603	0.092942	0.682486
Zr17	Zr	0.573519	-0.092968	0.682512
Zr18	Zr	0.351686	0.092933	0.868372
O19	O	0.550772	0.058266	0.833746
O20	O	0.550766	-0.206077	0.833748
O21	O	0.550766	0.058275	0.569403
O22	O	0.374445	0.206033	0.981480
O23	O	0.374439	-0.058310	0.981482
O24	O	0.374439	0.206042	0.717137
O25	O	0.462606	-0.058308	0.981502
O26	O	0.462608	0.206040	0.833725
O27	O	0.462606	0.206044	0.717157
O28	O	0.462608	0.058259	0.981501
O29	O	0.620311	-0.206072	0.717196
O30	O	0.304894	0.206037	0.833689
O31	O	0.304897	0.206032	0.981464
O32	O	0.304894	0.058256	0.981465
O33	O	0.620311	-0.058291	0.569420
O34	O	0.620314	-0.058296	0.717195
O35	O	0.410704	0.130470	0.818926
O36	O	0.410704	0.043474	0.905920
O37	O	0.514505	-0.043515	0.818951
O38	O	0.514505	0.043482	0.731957
C39	C	0.323858	-0.000020	0.775410
C40	C	0.276770	-0.000021	0.775400
C41	C	0.462598	-0.000010	0.542894
C42	C	0.462596	-0.000007	0.463970
C43	C	0.462608	0.232530	0.775441
C44	C	0.462609	0.311455	0.775441
C45	C	-0.015272	-0.045421	0.820870
C46	C	-0.192268	-0.045420	0.820887
O47	O	-0.215173	-0.084009	0.859539
N48	N	-0.214397	-0.000011	0.775477
C49	C	-0.192277	0.045406	0.730063
O50	O	-0.215165	0.084037	0.691446
C51	C	-0.015285	0.045410	0.730050
C52	C	0.006846	-0.000009	0.775457
C53	C	0.006859	-0.090836	0.866273
C54	C	0.051107	-0.090839	0.866265
C55	C	0.073225	-0.045428	0.820852
C56	C	0.051094	-0.000013	0.775448
C57	C	0.006831	0.090832	0.684642
C58	C	0.051080	0.090831	0.684645
C59	C	0.073211	0.045411	0.730051
C60	C	0.117461	0.045395	0.730027
N61	N	0.139590	-0.000014	0.775438
C62	C	0.117472	-0.045426	0.820850
C63	C	-0.285200	0.045400	0.730071
C64	C	-0.329447	0.045397	0.730073
C65	C	-0.329435	-0.045428	0.820899
C66	C	-0.285184	-0.045430	0.820892
C67	C	-0.263071	-0.000010	0.775482
C68	C	0.210398	-0.045430	0.820828
C69	C	0.254652	-0.045433	0.820812
C70	C	0.254634	0.045396	0.729990
C71	C	0.210386	0.045395	0.730002
C72	C	0.188267	-0.000020	0.775427
O73	O	0.140388	0.083972	0.691404
O74	O	0.140358	-0.084035	0.859477
C75	C	-0.059521	-0.045417	0.820878
C76	C	-0.081651	-0.000002	0.775475
C77	C	-0.059533	0.045409	0.730062
C78	C	-0.125898	-0.000004	0.775476
C79	C	-0.148016	-0.045416	0.820889
C80	C	-0.125887	-0.090825	0.866300
C81	C	-0.081639	-0.090829	0.866291
C82	C	-0.081662	0.090819	0.684651
C83	C	-0.125911	0.090818	0.684663
C84	C	-0.148029	0.045406	0.730075
C85	C	0.601347	-0.000015	0.775474
C86	C	0.648435	-0.000014	0.775485
C87	C	0.462598	-0.232565	0.775443
C88	C	0.462596	-0.311490	0.775444
C89	C	0.516792	0.303129	0.730045
C90	C	0.516790	0.377290	0.730041
C91	C	0.462605	0.459776	0.775438
C92	C	0.408418	0.468100	0.820835
C93	C	0.408420	0.393940	0.820833
C94	C	0.408416	0.622670	0.820836
C95	C	0.408413	0.696836	0.820839
C96	C	0.516786	0.606020	0.730044
C97	C	0.516788	0.531860	0.730043
C98	C	0.462601	0.540190	0.775441
C99	C	0.408413	0.045397	0.472286
C100	C	0.408415	0.045397	0.398124
C101	C	0.462601	-0.000011	0.315649
C102	C	0.516787	-0.045417	0.307335
C103	C	0.516785	-0.045412	0.381495
C104	C	0.516789	-0.045425	0.152765
C105	C	0.516792	-0.045432	0.078599
C106	C	0.408420	0.045384	0.169394
C107	C	0.408417	0.045389	0.243554
C108	C	0.462604	-0.000018	0.235235
C109	C	0.462608	-0.000025	1.007990
C110	C	0.462609	-0.000028	1.086915
C111	C	0.323863	-0.000028	1.007958
C112	C	0.276776	-0.000032	1.086872
C113	C	0.323863	0.232528	0.775409
C114	C	0.276776	0.311451	0.775398
C115	C	0.323868	0.232520	1.007957
C116	C	0.276783	0.311441	1.086870
C117	C	0.601337	-0.232555	0.542928
C118	C	0.648422	-0.311476	0.464014
C119	C	0.601342	-0.000007	0.542926
C120	C	0.648429	-0.000003	0.464013
C121	C	0.601342	-0.232563	0.775475
C122	C	0.648429	-0.311486	0.775487
C123	C	0.254662	-0.045449	1.078521
C124	C	0.210425	-0.045470	1.152662
C125	C	0.188300	-0.000067	1.235153
C126	C	0.210419	0.045351	1.243502
C127	C	0.254658	0.045367	1.169362
C128	C	0.254666	0.393931	0.820802
C129	C	0.210429	0.468095	0.820788
C130	C	0.188300	0.459778	0.775375
C131	C	0.210415	0.377290	0.729965
C132	C	0.254654	0.303128	0.729974
C133	C	0.254671	0.303092	1.169347
C134	C	0.210436	0.377239	1.243501
C135	C	0.188310	0.459735	1.235178
C136	C	0.210426	0.468082	1.152693
C137	C	0.254664	0.393936	1.078540
C138	C	0.670539	-0.303127	0.381538
C139	C	0.714788	-0.377275	0.307383
C140	C	0.736917	-0.459770	0.315707
C141	C	0.714798	-0.468118	0.398192
C142	C	0.670552	-0.393971	0.472344
C143	C	0.670548	0.045406	0.472363
C144	C	0.714797	0.045407	0.398222
C145	C	0.736923	0.000002	0.315732
C146	C	0.714803	-0.045414	0.307383
C147	C	0.670557	-0.045419	0.381523
C148	C	0.670543	-0.303142	0.820909
C149	C	0.714781	-0.377292	0.820936
C150	C	0.736906	-0.459786	0.775536
C151	C	0.714787	-0.468129	0.730112
C152	C	0.670547	-0.393979	0.730091
H153	H	0.192393	-0.082410	0.857819
H154	H	0.560911	0.464698	0.693082
C155	C	0.139644	0.541293	1.316752
C156	C	0.115299	0.632041	1.307608
C157	C	0.066632	0.713595	1.389185
C158	C	0.042310	0.704401	1.479905
C159	C	0.066655	0.613650	1.489052
C160	C	0.115322	0.532096	1.407475
H161	H	0.133304	0.638850	1.240449
H162	H	0.048611	0.780775	1.382414
H163	H	0.006284	0.764772	1.540293
H164	H	0.048650	0.606841	1.556212
H165	H	0.133344	0.464916	1.414247
C166	C	0.576394	-0.095372	0.143617
C167	C	0.591291	-0.169031	0.182123
C168	C	0.650893	-0.218980	0.172979
C169	C	0.695599	-0.195270	0.125328
C170	C	0.680704	-0.121607	0.086819
C171	C	0.621101	-0.071659	0.095963
H172	H	0.558196	-0.186586	0.217400
H173	H	0.661920	-0.273510	0.201486
H174	H	0.739721	-0.232244	0.118559
H175	H	0.713799	-0.104052	0.051542
H176	H	0.610075	-0.017129	0.067456
H177	H	0.192421	-0.082455	1.145847
C178	C	0.739110	-0.368101	0.870897
C179	C	0.714779	-0.277357	0.920818
C180	C	0.739108	-0.268164	0.970777
C181	C	0.787768	-0.349716	0.970814
C182	C	0.812102	-0.440466	0.920890
C183	C	0.787773	-0.449659	0.870932
H184	H	0.678755	-0.216983	0.920793
H185	H	0.721094	-0.200985	1.007733
H186	H	0.805777	-0.342910	1.007796
H187	H	0.848125	-0.500841	0.920916
H188	H	0.805787	-0.516839	0.833975
C189	C	0.785573	-0.541346	0.775560
C190	C	0.773406	-0.557145	0.861714
C191	C	0.822075	-0.638701	0.861739
C192	C	0.882911	-0.704457	0.775608
C193	C	0.895081	-0.688660	0.689447
C194	C	0.846412	-0.607104	0.689423
H195	H	0.728369	-0.508466	0.925479
H196	H	0.813066	-0.650395	0.925522
H197	H	0.918939	-0.764830	0.775627
H198	H	0.940118	-0.737339	0.625682
H199	H	0.855421	-0.595410	0.625640
H200	H	0.652536	-0.235978	0.857879
C201	C	0.278994	-0.095399	0.987788
C202	C	0.327655	-0.095394	0.906224
C203	C	0.351987	-0.145350	0.815493
C204	C	0.327657	-0.195311	0.806326
C205	C	0.278993	-0.195317	0.887892
C206	C	0.254662	-0.145361	0.978623
H207	H	0.345668	-0.058409	0.913007
H208	H	0.388011	-0.145346	0.755112
H209	H	0.345668	-0.232291	0.739161
H210	H	0.260980	-0.232303	0.881109
H211	H	0.218637	-0.145366	1.039004
H212	H	0.732808	-0.535305	0.693149
H213	H	0.652546	-0.400786	0.693099
C214	C	0.075437	-0.140791	0.916228
C215	C	0.142347	-0.214466	0.867569
C216	C	0.166669	-0.264417	0.917542
C217	C	0.124081	-0.240692	1.016173
C218	C	0.057167	-0.167014	1.064837
C219	C	0.032845	-0.117063	1.014865
H220	H	0.173877	-0.232031	0.794552
H221	H	0.216203	-0.318958	0.881517
H222	H	0.142086	-0.277669	1.053166
H223	H	0.025637	-0.149448	1.137855
H224	H	-0.016689	-0.062521	1.050890
C225	C	0.279006	0.403094	0.870753
C226	C	0.327669	0.321531	0.870773
C227	C	0.352010	0.330704	0.920720
C228	C	0.327687	0.421439	0.970649
C229	C	0.279020	0.503008	0.970631
C230	C	0.254680	0.493836	0.920684
H231	H	0.345677	0.254358	0.833811
H232	H	0.388036	0.270320	0.920733
H233	H	0.345705	0.428229	1.007623
H234	H	0.261012	0.570182	1.007593
H235	H	0.218654	0.554220	0.920671
C236	C	0.186074	0.558834	1.143551
C237	C	0.192146	0.622313	1.182058
C238	C	0.167786	0.713067	1.172921
C239	C	0.137353	0.740343	1.125276
C240	C	0.131280	0.676863	1.086765
C241	C	0.155640	0.586108	1.095902
H242	H	0.214675	0.602123	1.217331
H243	H	0.172282	0.760059	1.201430
H244	H	0.119321	0.807525	1.118513
H245	H	0.108751	0.697052	1.051493
H246	H	0.151144	0.539116	1.067394
H247	H	0.272661	0.400746	1.011387
C248	C	0.278974	0.095343	1.178556
C249	C	0.254628	0.145289	1.269297
C250	C	0.278940	0.195269	1.278499
C251	C	0.327598	0.195303	1.196960
C252	C	0.351946	0.145355	1.106212
C253	C	0.327634	0.095375	1.097010
H254	H	0.218606	0.145265	1.329663
H255	H	0.260915	0.232244	1.345677
H256	H	0.345595	0.232302	1.203772
H257	H	0.387968	0.145379	1.045846
H258	H	0.345659	0.058400	1.029832
C259	C	0.186068	0.368147	0.680018
C260	C	0.228634	0.320499	0.581387
C261	C	0.204282	0.311358	0.531446
C262	C	0.137364	0.349864	0.580136
C263	C	0.094794	0.397515	0.678772
C264	C	0.119145	0.406657	0.728713
H265	H	0.278174	0.291992	0.545339
H266	H	0.235796	0.276083	0.458428
H267	H	0.119337	0.343096	0.543166
H268	H	0.045253	0.426022	0.714820
H269	H	0.087632	0.441931	0.801731
H270	H	0.192428	0.535253	0.857769
C271	C	0.576387	-0.095359	0.372350
C272	C	0.635990	-0.145311	0.281631
C273	C	0.695594	-0.195257	0.272484
C274	C	0.695594	-0.195250	0.354055
C275	C	0.635988	-0.145296	0.444780
C276	C	0.576384	-0.095351	0.453927
H277	H	0.635993	-0.145318	0.221242
H278	H	0.739718	-0.232236	0.205323
H279	H	0.739716	-0.232223	0.347284
H280	H	0.635986	-0.145290	0.505169
H281	H	0.532260	-0.058372	0.521088
H282	H	0.152278	0.520173	0.775374
C283	C	0.576393	0.596853	0.680102
C284	C	0.576395	0.678422	0.680095
C285	C	0.636000	0.669260	0.630161
C286	C	0.695603	0.578529	0.580233
C287	C	0.695603	0.496954	0.580238
C288	C	0.635998	0.506116	0.630173
H289	H	0.532272	0.745592	0.717056
H290	H	0.636000	0.729648	0.630157
H291	H	0.739726	0.571747	0.543268
H292	H	0.739726	0.429783	0.543277
H293	H	0.635998	0.445728	0.630176
H294	H	0.732790	-0.370461	0.240228
C295	C	0.278969	0.212401	0.680034
C296	C	0.254621	0.203264	0.630088
C297	C	0.278933	0.112539	0.580144
C298	C	0.327593	0.030952	0.580144
C299	C	0.351943	0.040086	0.630092
C300	C	0.327631	0.130811	0.680037
H301	H	0.218597	0.263662	0.630086
H302	H	0.260907	0.105777	0.543169
H303	H	0.345590	-0.036208	0.543172
H304	H	0.387967	-0.020312	0.630094
H305	H	0.345657	0.137573	0.717011
C306	C	0.739140	-0.558868	0.407337
C307	C	0.733059	-0.622327	0.368820
C308	C	0.757400	-0.713080	0.377961
C309	C	0.787824	-0.740374	0.425618
C310	C	0.793907	-0.676913	0.464138
C311	C	0.769565	-0.586160	0.454997
H312	H	0.710537	-0.602124	0.333539
H313	H	0.752897	-0.760058	0.349446
H314	H	0.805843	-0.807554	0.432385
H315	H	0.816429	-0.697116	0.499419
H316	H	0.774068	-0.539183	0.483512
C317	C	0.186075	0.095300	1.334244
C318	C	0.155650	0.193942	1.361511
C319	C	0.131301	0.243897	1.452255
C320	C	0.137377	0.195211	1.515731
C321	C	0.167803	0.096564	1.488466
C322	C	0.192152	0.046608	1.397722
H323	H	0.151151	0.229987	1.314520
H324	H	0.108778	0.316922	1.472438
H325	H	0.119353	0.232190	1.582905
H326	H	0.172302	0.060518	1.535456
H327	H	0.214675	-0.026417	1.377539
C328	C	0.139633	-0.000083	1.316702
C329	C	0.151790	-0.036292	1.382472
C330	C	0.103121	-0.036309	1.464017
C331	C	0.042295	-0.000116	1.479793
C332	C	0.030135	0.036096	1.414022
C333	C	0.078804	0.036112	1.332477
H334	H	0.196819	-0.063087	1.370795
H335	H	0.112122	-0.063116	1.512705
H336	H	0.006267	-0.000129	1.540158
H337	H	-0.014895	0.062890	1.425699
H338	H	0.069802	0.062919	1.283789
H339	H	0.272680	0.235926	1.176140
C340	C	0.785583	-0.541328	0.234133
C341	C	0.809878	-0.532135	0.143413
C342	C	0.858542	-0.613689	0.061836
C343	C	0.882913	-0.704436	0.070979
C344	C	0.858619	-0.713634	0.161703
C345	C	0.809954	-0.632080	0.243280
H346	H	0.791837	-0.464954	0.136641
H347	H	0.876526	-0.606880	-0.005324
H348	H	0.918938	-0.764807	0.010591
H349	H	0.876660	-0.780814	0.168475
H350	H	0.791970	-0.638889	0.310440
H351	H	0.192434	0.370428	1.310657
H352	H	0.652549	-0.082394	0.374712
C353	C	0.576398	0.212396	0.680107
C354	C	0.635998	0.203242	0.630168
C355	C	0.695605	0.112510	0.580226
C356	C	0.695613	0.030932	0.580222
C357	C	0.636011	0.040084	0.630162
C358	C	0.576403	0.130816	0.680105
H359	H	0.635994	0.263633	0.630169
H360	H	0.739727	0.105735	0.543256
H361	H	0.739738	-0.036233	0.543251
H362	H	0.636015	-0.020307	0.630161
H363	H	0.532282	0.137590	0.717074
H364	H	0.652525	-0.235961	0.374744
H365	H	0.652545	-0.400779	0.539498
H366	H	0.272671	-0.082422	0.857787
H367	H	0.652536	0.082386	0.539525
H368	H	0.732800	0.082392	0.405037
C369	C	0.785590	0.000019	0.234182
C370	C	0.809912	0.049980	0.243378
C371	C	0.858576	0.050004	0.161832
C372	C	0.882918	0.000068	0.071090
C373	C	0.858595	-0.049896	0.061890
C374	C	0.809931	-0.049921	0.143436
H375	H	0.791893	0.086948	0.310554
H376	H	0.876581	0.086991	0.168643
H377	H	0.918941	0.000086	0.010725
H378	H	0.876614	-0.086865	-0.005287
H379	H	0.791926	-0.086908	0.136625
C380	C	-0.260880	0.095367	0.680113
C381	C	-0.266963	0.169044	0.728784
C382	C	-0.242645	0.219011	0.678825
C383	C	-0.212245	0.195301	0.580195
C384	C	-0.206160	0.121620	0.531519
C385	C	-0.230478	0.071653	0.581478
H386	H	-0.289468	0.186599	0.801801
H387	H	-0.247150	0.273554	0.714858
H388	H	-0.194244	0.232289	0.543212
H389	H	-0.183655	0.104065	0.458502
H390	H	-0.225973	0.017110	0.545444
C391	C	-0.017463	-0.140799	0.916228
C392	C	-0.011379	-0.214472	0.867550
C393	C	-0.035692	-0.264447	0.917500
C394	C	-0.066088	-0.240749	1.016129
C395	C	-0.072173	-0.167073	1.064813
C396	C	-0.047860	-0.117098	1.014862
H397	H	0.011123	-0.232018	0.794534
H398	H	-0.031187	-0.318988	0.881461
H399	H	-0.084086	-0.277744	1.053106
H400	H	-0.094676	-0.149527	1.137828
H401	H	-0.052365	-0.062558	1.050901
C402	C	-0.260845	-0.095386	0.870845
C403	C	-0.230433	-0.194025	0.847140
C404	C	-0.206098	-0.243981	0.897097
C405	C	-0.212174	-0.195299	0.970758
C406	C	-0.242587	-0.096656	0.994466
C407	C	-0.266923	-0.046699	0.944509
H408	H	-0.225934	-0.230067	0.792609
H409	H	-0.183584	-0.317004	0.879547
H410	H	-0.194159	-0.232280	1.007739
H411	H	-0.247086	-0.060614	1.048997
H412	H	-0.289437	0.026324	0.962060
H413	H	-0.347450	-0.082405	0.857874
H414	H	0.732825	-0.082381	0.240209
H415	H	-0.347455	0.082371	0.693087
H416	H	0.364291	0.763998	0.857800
H417	H	0.364291	0.629459	0.857800
H418	H	-0.011181	0.127819	0.647668
H419	H	0.364299	0.082349	0.176166
C420	C	0.576394	0.368126	0.680108
C421	C	0.591295	0.406623	0.728799
C422	C	0.650903	0.397454	0.678862
C423	C	0.695608	0.349787	0.580234
C424	C	0.680708	0.311287	0.531538
C425	C	0.621101	0.320456	0.581475
H426	H	0.558200	0.441911	0.801814
H427	H	0.661933	0.425954	0.714911
H428	H	0.739733	0.343000	0.543268
H429	H	0.713803	0.275999	0.458523
H430	H	0.610071	0.291956	0.545426
H431	H	0.192373	0.082368	0.693016
H432	H	0.069084	0.127817	0.647664
H433	H	0.560906	-0.082384	0.240176
H434	H	-0.063623	-0.127813	0.903265
H435	H	0.272652	0.082366	0.693013
H436	H	-0.143901	-0.127805	0.903273
H437	H	-0.143923	0.127801	0.647679
H438	H	-0.063660	0.127801	0.647672
H439	H	0.364299	0.535267	0.857794
H440	H	0.364289	0.082378	0.539437
H441	H	0.364299	0.400725	0.857797
H442	H	0.364295	0.082356	0.310708
H443	H	0.560914	-0.082408	0.011445
H444	H	0.364294	0.082371	0.404903
