data_functionalizedCrystal
_audit_creation_method	'MofGen! by Chris Wilmer'
_symmetry_space_group_name_H-M	'P1'
_symmetry_Int_Tables_number	1
_symmetry_cell_setting	triclinic
loop_
_symmetry_equiv_pos_as_xyz
  x,y,z
_cell_length_a	19.188905
_cell_length_b	19.188930
_cell_length_c	7.681481
_cell_angle_alpha	84.272277
_cell_angle_beta	95.696328
_cell_angle_gamma	83.139668
loop_
_atom_site_label
_atom_site_type_symbol
_atom_site_fract_x
_atom_site_fract_y
_atom_site_fract_z
O1	O	0.919520	0.093729	-0.146739
O2	O	0.716209	0.105479	-0.146681
O3	O	0.823733	-0.002053	-0.146677
O4	O	0.811996	0.201262	-0.146743
O5	O	0.836968	-0.015319	0.146181
O6	O	0.729443	0.092214	0.146177
O7	O	0.932755	0.080464	0.146119
Zn8	Zn	0.833200	0.084233	0.192646
Zn9	Zn	0.815763	0.101711	-0.193208
O10	O	0.825230	0.187997	0.146115
C11	C	0.696815	0.098469	-0.000244
C12	C	0.619311	0.097334	-0.000221
C13	C	0.575705	0.104020	-0.159862
C14	C	0.502880	0.102948	-0.159884
C15	C	0.473667	0.095175	-0.000255
C16	C	0.517282	0.088492	0.159408
C17	C	0.590104	0.089571	0.159425
N18	N	0.370016	0.048365	0.118555
N19	N	0.300837	0.047339	0.118528
C20	C	0.254258	0.091925	-0.000296
N21	N	0.279471	0.137568	-0.119119
N22	N	0.348655	0.138591	-0.119097
C23	C	0.394704	0.094005	-0.000255
C24	C	0.131687	0.097450	-0.159972
C25	C	0.058860	0.096382	-0.159987
C26	C	0.073265	0.081918	0.159309
C27	C	0.146089	0.082994	0.159319
C28	C	0.175295	0.090756	-0.000326
C29	C	0.829971	-0.034697	-0.000243
C30	C	0.828831	-0.112202	-0.000228
C31	C	0.891922	-0.157131	-0.000237
C32	C	0.890849	-0.229954	-0.000265
C33	C	0.826683	-0.257845	-0.000248
C34	C	0.763583	-0.212906	-0.000248
C35	C	0.764657	-0.140084	-0.000238
N36	N	0.782139	-0.370361	0.099431
N37	N	0.781124	-0.439539	0.099425
C38	C	0.823443	-0.477252	-0.000283
N39	N	0.866828	-0.443176	-0.099962
N40	N	0.867846	-0.373992	-0.099948
C41	C	0.825511	-0.336807	-0.000260
C42	C	0.885375	-0.601144	-0.000325
C43	C	0.884299	-0.673967	-0.000364
C44	C	0.757032	-0.656918	-0.000330
C45	C	0.758109	-0.584096	-0.000308
C46	C	0.822283	-0.556214	-0.000298
C47	C	0.952148	0.087475	-0.000321
C48	C	1.029652	0.088610	-0.000356
C49	C	0.818993	0.220641	-0.000323
C50	C	0.820132	0.298146	-0.000350
N51	N	0.845106	0.072304	0.455980
N52	N	0.803863	0.113633	-0.456542
H53	H	0.944177	-0.134435	-0.000234
H54	H	0.181594	0.077544	0.289317
N55	N	0.748086	0.169507	0.443872
H56	H	0.757476	0.217587	0.475838
H57	H	0.749460	0.168087	0.313166
H58	H	0.887214	0.030122	0.531188
H59	H	0.625609	0.084127	0.289428
N60	N	0.696606	-0.091624	-0.000187
H61	H	0.707024	-0.041261	-0.000170
H62	H	0.663721	-0.095698	-0.108745
N63	N	0.607198	0.112394	-0.332055
H64	H	0.585573	0.158638	-0.401868
H65	H	0.659946	0.112029	-0.307694
H66	H	0.155467	0.103779	-0.289965
N67	N	0.952350	-0.722433	-0.000362
H68	H	0.949842	-0.748099	-0.108933
H69	H	0.993128	-0.693671	-0.000281
N70	N	0.694379	-0.242992	-0.000217
H71	H	0.671653	-0.231516	0.108353
H72	H	0.661892	-0.221660	-0.108844
N73	N	0.011823	0.103596	-0.332180
H74	H	0.041380	0.108675	-0.433304
H75	H	-0.012904	0.060189	-0.339111
H76	H	0.706734	-0.547514	-0.000291
H77	H	0.937629	-0.578441	-0.000324
N78	N	0.455835	0.110162	-0.332074
H79	H	0.485388	0.115245	-0.433204
H80	H	0.431110	0.066753	-0.339005
N81	N	0.041768	0.073529	0.331485
H82	H	0.006072	0.116029	0.338590
H83	H	0.017717	0.029461	0.338488
N84	N	0.485840	0.079660	0.331578
H85	H	0.433110	0.079838	0.307343
H86	H	0.507682	0.033309	0.400509
H87	H	0.942227	-0.266542	-0.000280
H88	H	0.704786	-0.679627	-0.000325
