data_functionalizedCrystal
_audit_creation_method	'MofGen! by Chris Wilmer'
_symmetry_space_group_name_H-M	'P1'
_symmetry_Int_Tables_number	1
_symmetry_cell_setting	triclinic
loop_
_symmetry_equiv_pos_as_xyz
  x,y,z
_cell_length_a	12.759401
_cell_length_b	16.120444
_cell_length_c	12.759393
_cell_angle_alpha	87.135249
_cell_angle_beta	90.020938
_cell_angle_gamma	92.928028
loop_
_atom_site_label
_atom_site_type_symbol
_atom_site_fract_x
_atom_site_fract_y
_atom_site_fract_z
Zn1	Zn	1.584977	-0.331834	0.615188
Zn2	Zn	1.575922	-0.471270	0.448403
Zn3	Zn	1.409273	-0.331878	0.439526
Zn4	Zn	1.400325	-0.471211	0.624037
O5	O	1.492624	-0.401548	0.531788
O6	O	1.730796	-0.350336	0.593076
O7	O	1.553771	-0.452822	0.300207
O8	O	1.440114	-0.215206	0.455410
O9	O	1.724144	-0.452779	0.470539
O10	O	1.569203	-0.215173	0.584468
O11	O	1.431334	-0.350411	0.293685
O12	O	1.261065	-0.350355	0.463990
O13	O	1.424865	-0.452680	0.769881
O14	O	1.254492	-0.452723	0.599549
O15	O	1.560527	-0.350279	0.763380
O16	O	1.545095	-0.587928	0.479119
O17	O	1.416085	-0.587885	0.608156
C18	C	1.219658	-0.401538	0.531767
C19	C	1.102880	-0.401554	0.531784
C20	C	1.044617	-0.454938	0.602269
C21	C	0.934893	-0.454941	0.602290
C22	C	0.941704	-0.348174	0.461332
C23	C	1.051426	-0.348167	0.461317
C24	C	1.478665	-0.618157	0.545584
C25	C	1.472789	-0.710823	0.551521
C26	C	1.523362	-0.921766	0.501216
C27	C	1.462081	-0.880479	0.562372
C28	C	1.468041	-0.786073	0.556333
C29	C	1.517404	-1.016180	0.507254
C30	C	1.766657	-0.401559	0.531811
C31	C	1.883433	-0.401564	0.531820
C32	C	1.492708	-0.401468	0.805817
C33	C	1.492744	-0.401434	0.922591
C34	C	1.506667	-0.184094	0.517962
C35	C	1.512651	-0.091428	0.512070
C36	C	1.492605	-0.401568	0.258822
C37	C	1.492788	-0.401367	0.142033
C38	C	1.563389	-0.348106	0.974069
C39	C	1.563409	-0.348070	1.083791
C40	C	1.422135	-0.454698	1.090548
C41	C	1.422111	-0.454729	0.980828
H42	H	1.086508	-0.498406	0.659650
F43	F	0.872891	-0.511758	0.677312
H44	H	1.620900	-0.304707	0.926656
H45	H	0.899797	-0.304709	0.403958
F46	F	1.638606	-0.291316	1.138573
H47	H	1.098866	-0.304690	0.403919
F48	F	1.346971	-0.511417	1.152536
F49	F	1.597782	-0.875297	0.426856
F50	F	1.387652	-0.926948	0.636733
F51	F	1.346912	-0.511487	0.926037
