data_functionalizedCrystal
_audit_creation_method	'MofGen! by Chris Wilmer'
_symmetry_space_group_name_H-M	'P1'
_symmetry_Int_Tables_number	1
_symmetry_cell_setting	triclinic
loop_
_symmetry_equiv_pos_as_xyz
  x,y,z
_cell_length_a	11.026607
_cell_length_b	9.730217
_cell_length_c	11.026607
_cell_angle_alpha	89.996822
_cell_angle_beta	108.586017
_cell_angle_gamma	90.000012
loop_
_atom_site_label
_atom_site_type_symbol
_atom_site_fract_x
_atom_site_fract_y
_atom_site_fract_z
O1	O	1.726726	-0.114287	0.533622
O2	O	1.360146	-0.114289	0.472859
O3	O	1.513055	-0.114283	0.319951
O4	O	1.573818	-0.114292	0.686531
O5	O	1.513050	0.114297	0.319943
O6	O	1.360142	0.114291	0.472851
O7	O	1.726722	0.114293	0.533615
Zn8	Zn	1.543431	0.150584	0.503232
Zn9	Zn	1.543437	-0.150580	0.503242
O10	O	1.573814	0.114288	0.686523
C11	C	1.312485	0.000001	0.461645
C12	C	1.170471	0.000000	0.428228
C13	C	1.116821	-0.000003	0.520498
C14	C	0.970043	-0.000004	0.485962
N15	N	1.543440	-0.356116	0.503240
C16	C	1.679250	-0.356102	0.368234
C17	C	1.747148	-0.428034	0.300720
C18	C	1.747144	-0.571914	0.300706
C19	C	1.679238	-0.643865	0.368215
C20	C	1.611339	-0.571932	0.435728
C21	C	1.611347	-0.428049	0.435732
C22	C	1.475538	-0.571946	0.570740
C23	C	1.475533	-0.428067	0.570749
C24	C	1.407632	-0.643897	0.638249
C25	C	1.339724	-0.571964	0.705756
C26	C	1.339730	-0.428076	0.705767
C27	C	1.407635	-0.356134	0.638262
C28	C	1.774384	0.000001	0.544828
C29	C	1.916398	-0.000007	0.578245
C30	C	1.501843	0.000005	0.272287
C31	C	1.468426	0.000000	0.130273
N32	N	1.543437	0.356121	0.503226
C33	C	1.560695	-0.000001	0.076624
C34	C	1.526160	-0.000006	-0.070155
C35	C	1.585026	-0.000004	0.734187
C36	C	1.618443	-0.000008	0.876200
H37	H	1.179555	0.000002	0.625061
H38	H	1.679247	-0.238947	0.368226
H39	H	1.802438	-0.630482	0.245736
H40	H	1.107738	-0.000032	0.323666
C41	C	1.001135	-0.000012	0.719517
N42	N	1.064960	-0.000019	0.825921
H43	H	1.802440	-0.369440	0.245758
C44	C	1.679247	-0.802136	0.368204
N45	N	1.679251	-0.921349	0.368195
H46	H	1.407638	-0.761051	0.638240
C47	C	1.265036	-0.651118	0.780008
N48	N	1.208777	-0.710743	0.835933
C49	C	1.265034	-0.348961	0.780038
N50	N	1.208769	-0.289377	0.835979
C51	C	0.885303	-0.000000	0.344692
N52	N	0.821475	0.000000	0.238289
C53	C	1.384889	-0.000005	-0.154894
N54	N	1.278487	-0.000000	-0.218722
H55	H	1.407640	-0.238980	0.638259
H56	H	1.665258	0.000008	0.139357
H57	H	1.723013	-0.000110	-0.061072
C58	C	1.327162	0.000001	0.045529
N59	N	1.220759	0.000006	-0.018299
