data_functionalizedCrystal
_audit_creation_method	'MofGen! by Chris Wilmer'
_symmetry_space_group_name_H-M	'P1'
_symmetry_Int_Tables_number	1
_symmetry_cell_setting	triclinic
loop_
_symmetry_equiv_pos_as_xyz
  x,y,z
_cell_length_a	13.897449
_cell_length_b	29.839131
_cell_length_c	13.897441
_cell_angle_alpha	90.035143
_cell_angle_beta	90.020733
_cell_angle_gamma	90.042700
loop_
_atom_site_label
_atom_site_type_symbol
_atom_site_fract_x
_atom_site_fract_y
_atom_site_fract_z
Zn1	Zn	1.474544	-0.178824	0.545351
Zn2	Zn	1.474371	-0.253959	0.384039
Zn3	Zn	1.313233	-0.178845	0.384069
Zn4	Zn	1.313148	-0.253929	0.545292
O5	O	1.393824	-0.216389	0.464688
O6	O	1.609502	-0.188794	0.523965
O7	O	1.452959	-0.244016	0.249061
O8	O	1.334739	-0.115975	0.405500
O9	O	1.609375	-0.243995	0.405450
O10	O	1.453253	-0.115959	0.523993
O11	O	1.334571	-0.188830	0.249083
O12	O	1.178240	-0.188802	0.405443
O13	O	1.334594	-0.243945	0.680281
O14	O	1.178177	-0.243966	0.523893
O15	O	1.453171	-0.188765	0.680325
O16	O	1.452876	-0.316822	0.405393
O17	O	1.334426	-0.316800	0.523864
C18	C	1.143209	-0.216383	0.464666
C19	C	1.035995	-0.216391	0.464679
C20	C	0.839700	-0.216393	0.464704
C21	C	0.948933	-0.216391	0.464688
C22	C	1.393649	-0.333112	0.464640
C23	C	1.393663	-0.383046	0.464652
C24	C	1.455613	-0.692688	0.403090
C25	C	1.455732	-0.880361	0.403127
O26	O	1.508265	-0.904625	0.350748
N27	N	1.394024	-0.903831	0.464760
C28	C	1.332286	-0.880380	0.526393
O29	O	1.279809	-0.904649	0.578824
C30	C	1.332172	-0.692708	0.526360
C31	C	1.393878	-0.669240	0.464716
C32	C	1.517314	-0.669221	0.341451
C33	C	1.517280	-0.622305	0.341439
C34	C	1.455545	-0.598857	0.403065
C35	C	1.393844	-0.622325	0.464703
C36	C	1.270440	-0.669258	0.587997
C37	C	1.270419	-0.622336	0.587985
C38	C	1.332124	-0.598869	0.526341
C39	C	1.332074	-0.551962	0.526317
N40	N	1.393782	-0.528492	0.464684
C41	C	1.455518	-0.551939	0.403057
C42	C	1.332349	-0.978911	0.526405
C43	C	1.332375	-1.025828	0.526412
C44	C	1.455823	-1.025806	0.403147
C45	C	1.455790	-0.978888	0.403136
C46	C	1.394057	-0.955441	0.464772
C47	C	1.455441	-0.453414	0.403035
C48	C	1.455398	-0.406494	0.403026
C49	C	1.331955	-0.406520	0.526294
C50	C	1.331993	-0.453436	0.526301
C51	C	1.393744	-0.476881	0.464668
O52	O	1.279576	-0.527669	0.578676
O53	O	1.508002	-0.527662	0.350650
C54	C	1.455647	-0.739604	0.403102
C55	C	1.393946	-0.763071	0.464741
C56	C	1.332211	-0.739623	0.526367
C57	C	1.393973	-0.809989	0.464748
C58	C	1.455708	-0.833437	0.403122
C59	C	1.517416	-0.809967	0.341489
C60	C	1.517382	-0.763051	0.341476
C61	C	1.270503	-0.763093	0.588000
C62	C	1.270541	-0.810009	0.588007
C63	C	1.332276	-0.833457	0.526381
C64	C	1.645417	-0.216395	0.464710
C65	C	1.752631	-0.216398	0.464720
C66	C	1.393892	-0.216349	0.716281
C67	C	1.393921	-0.216332	0.823495
C68	C	1.394025	-0.099211	0.464757
C69	C	1.394111	-0.049276	0.464786
C70	C	1.393811	-0.216396	0.214073
C71	C	1.393969	-0.216287	0.106860
C72	C	1.393948	-0.216302	1.019790
C73	C	1.393930	-0.216320	0.910558
H74	H	1.505646	-0.387388	0.352824
N75	N	1.522035	-0.478692	0.336547
H76	H	1.482871	-0.498191	0.291814
H77	H	1.566728	-0.498098	0.375844
N78	N	1.583848	-0.596997	0.274965
H79	H	1.622962	-0.618976	0.235938
H80	H	1.628452	-0.577500	0.314276
H81	H	1.567591	-0.688307	0.291268
N82	N	1.522412	-1.051105	0.336687
H83	H	1.591318	-1.042904	0.351736
H84	H	1.507393	-1.042964	0.267774
N85	N	1.203974	-0.835318	0.654490
H86	H	1.164864	-0.813340	0.693525
H87	H	1.243226	-0.854748	0.699172
H88	H	1.506036	-0.959783	0.352940
H89	H	1.220232	-0.744006	0.638185
H90	H	1.282120	-1.044932	0.576600
N91	N	1.265755	-0.953624	0.592883
H92	H	1.226670	-0.975616	0.631920
H93	H	1.221125	-0.934193	0.553574
N94	N	1.203881	-0.694561	0.654481
H95	H	1.164777	-0.672581	0.693515
H96	H	1.243129	-0.713994	0.699163
H97	H	1.220149	-0.603248	0.638179
H98	H	1.281751	-0.472544	0.576499
N99	N	1.584009	-0.835263	0.275028
H100	H	1.623101	-0.813281	0.235975
H101	H	1.544782	-0.854766	0.230361
H102	H	1.281688	-0.387422	0.576466
N103	N	1.583941	-0.737743	0.274994
H104	H	1.623052	-0.759723	0.235964
H105	H	1.628549	-0.718244	0.314296
