data_functionalizedCrystal
_audit_creation_method	'MofGen! by Chris Wilmer'
_symmetry_space_group_name_H-M	'P1'
_symmetry_Int_Tables_number	1
_symmetry_cell_setting	triclinic
loop_
_symmetry_equiv_pos_as_xyz
  x,y,z
_cell_length_a	16.956995
_cell_length_b	14.853567
_cell_length_c	16.053802
_cell_angle_alpha	92.572962
_cell_angle_beta	87.607939
_cell_angle_gamma	79.844701
loop_
_atom_site_label
_atom_site_type_symbol
_atom_site_fract_x
_atom_site_fract_y
_atom_site_fract_z
O1	O	1.061441	0.033312	-0.069485
O2	O	0.829318	0.064960	-0.069472
O3	O	0.951580	-0.082565	-0.069481
O4	O	0.939179	0.180837	-0.069475
O5	O	0.944850	-0.074476	0.069378
O6	O	0.822588	0.073049	0.069388
O7	O	1.054711	0.041401	0.069375
Zn8	Zn	0.937581	0.058509	0.091428
Zn9	Zn	0.946448	0.047852	-0.091525
O10	O	0.932449	0.188925	0.069384
C11	C	0.796247	0.070625	-0.000041
C12	C	0.707731	0.075442	-0.000036
C13	C	0.208472	0.111480	-0.000066
C14	C	0.291643	0.106946	-0.000066
C15	C	0.342636	0.021850	-0.000061
C16	C	0.310457	-0.058718	-0.000066
C17	C	0.227288	-0.054184	-0.000072
C18	C	0.592383	-0.000592	-0.000047
C19	C	0.675557	-0.005120	-0.000038
C20	C	0.656737	0.160545	-0.000040
C21	C	0.573567	0.165072	-0.000041
C22	C	0.541395	0.084503	-0.000050
N23	N	0.427650	0.017215	-0.000058
N24	N	0.456383	0.089140	-0.000059
C25	C	0.947653	-0.112067	-0.000054
C26	C	0.945970	-0.212023	-0.000061
C27	C	0.866225	-0.618500	-0.000041
C28	C	1.011475	-0.650811	-0.000049
C29	C	1.013058	-0.556898	-0.000054
C30	C	0.941224	-0.493781	-0.000051
C31	C	0.867806	-0.524578	-0.000043
C32	C	1.086474	-0.526093	-0.000053
C33	C	1.088061	-0.432175	-0.000057
C34	C	1.016226	-0.369057	-0.000060
C35	C	0.942805	-0.399859	-0.000054
C36	C	0.870971	-0.336742	-0.000051
C37	C	0.797550	-0.367542	-0.000050
C38	C	0.795971	-0.461460	-0.000046
C39	C	1.017804	-0.275139	-0.000064
C40	C	0.872552	-0.242819	-0.000053
C41	C	1.087782	0.035736	-0.000058
C42	C	1.176298	0.030918	-0.000068
C43	C	0.936376	0.218427	-0.000045
C44	C	0.938059	0.318383	-0.000044
N45	N	0.931536	0.065781	0.216289
N46	N	0.952499	0.040572	-0.216386
C47	C	0.983577	0.003029	0.259979
C48	C	0.979356	0.008124	0.347386
C49	C	0.923096	0.075976	0.391101
C50	C	0.871049	0.138732	0.347405
C51	C	0.875267	0.133632	0.260000
C52	C	0.904670	0.098227	0.652512
C53	C	0.900458	0.103324	0.739924
C54	C	1.008764	-0.027285	0.739899
C55	C	1.012981	-0.032376	0.652491
C56	C	0.960931	0.030377	0.608803
N57	N	0.918781	0.081188	0.480445
N58	N	0.965242	0.025161	0.519460
H59	H	0.532053	0.234366	-0.000047
H60	H	1.144957	-0.577488	-0.000048
H61	H	0.814055	-0.191435	-0.000055
H62	H	1.029393	-0.052220	0.224391
Br63	Br	1.117437	-0.233339	-0.000045
H64	H	0.317835	0.172548	-0.000072
Br65	Br	0.183622	-0.163522	-0.000078
Br66	Br	0.379662	-0.174207	-0.000065
H67	H	1.021732	-0.042974	0.382958
H68	H	1.147845	-0.407106	-0.000059
H69	H	0.682941	0.226139	-0.000034
Br70	Br	1.089336	-0.124458	0.593162
Br71	Br	0.744763	-0.120615	-0.000031
H72	H	0.566199	-0.066196	-0.000052
H73	H	0.739062	-0.316140	-0.000042
Br74	Br	0.696338	-0.503267	-0.000051
Br75	Br	0.139273	0.226974	-0.000063
Br76	Br	1.079398	-0.112447	0.799193
H77	H	0.806447	-0.643583	-0.000043
Br78	Br	0.824102	0.195421	0.799247
H79	H	1.069959	-0.702205	-0.000044
Br80	Br	0.834035	0.183390	0.593226
H81	H	0.825237	0.193976	0.383003
Br82	Br	0.804631	0.218794	0.200706
