data_functionalizedCrystal
_audit_creation_method	'MofGen! by Chris Wilmer'
_symmetry_space_group_name_H-M	'P1'
_symmetry_Int_Tables_number	1
_symmetry_cell_setting	triclinic
loop_
_symmetry_equiv_pos_as_xyz
  x,y,z
_cell_length_a	16.992694
_cell_length_b	14.586319
_cell_length_c	16.109304
_cell_angle_alpha	90.001538
_cell_angle_beta	87.065430
_cell_angle_gamma	89.998473
loop_
_atom_site_label
_atom_site_type_symbol
_atom_site_fract_x
_atom_site_fract_y
_atom_site_fract_z
O1	O	1.040348	0.076116	0.176289
O2	O	0.812063	0.076143	0.174355
O3	O	0.932475	0.076129	0.054709
O4	O	0.919935	0.076130	0.295934
O5	O	0.932466	-0.076351	0.054705
O6	O	0.812053	-0.076338	0.174351
O7	O	1.040338	-0.076365	0.176285
Cu8	Cu	0.926195	-0.090274	0.175318
Cu9	Cu	0.926206	0.090052	0.175322
O10	O	0.919925	-0.076351	0.295930
C11	C	0.782846	-0.000094	0.171865
C12	C	0.695804	-0.000083	0.164441
N13	N	0.926192	-0.217106	0.175314
C14	C	0.931962	-0.000109	0.023699
C15	C	0.930438	-0.000102	-0.068698
C16	C	0.645546	-0.000084	0.236067
C17	C	0.563761	-0.000096	0.229087
C18	C	0.532235	-0.000102	0.150480
C19	C	0.582500	-0.000104	0.078849
C20	C	0.664283	-0.000098	0.085830
C21	C	0.288645	-0.000126	0.121548
C22	C	0.206855	-0.000130	0.114572
C23	C	0.188121	-0.000124	0.264811
C24	C	0.269907	-0.000112	0.271785
C25	C	0.320164	-0.000119	0.200154
N26	N	0.448638	-0.000112	0.143344
N27	N	0.403760	-0.000116	0.207291
C28	C	1.069555	-0.000126	0.178775
C29	C	1.156597	-0.000130	0.186198
C30	C	0.979532	-0.548105	0.122355
C31	C	0.979530	-0.452124	0.122356
C32	C	0.872873	-0.452123	0.228284
C33	C	0.872879	-0.548102	0.228287
C34	C	0.926208	-0.596091	0.175318
C35	C	0.926199	-0.404130	0.175315
C36	C	0.926197	-0.300063	0.175316
C37	C	0.926211	-0.700165	0.175318
N38	N	0.926215	0.216884	0.175319
C39	C	0.926922	0.083012	-0.281269
C40	C	0.925483	0.083011	-0.368085
C41	C	0.925476	-0.083232	-0.368086
C42	C	0.926910	-0.083230	-0.281271
C43	C	0.927637	-0.000105	-0.237865
C44	C	0.924764	-0.000108	-0.411496
C45	C	0.923203	-0.000109	-0.505626
C46	C	0.929196	-0.000104	-0.143729
C47	C	0.920439	-0.000111	0.326941
C48	C	0.921963	-0.000111	0.419338
H49	H	0.671206	-0.000078	0.300077
H50	H	0.829453	-0.413040	0.271409
H51	H	0.522843	-0.000096	0.287413
H52	H	0.829456	-0.587175	0.271420
Cl53	Cl	0.309532	-0.000099	0.370609
H54	H	0.556826	-0.000122	0.014846
H55	H	1.022952	-0.413057	0.079229
H56	H	0.927512	0.150697	-0.245930
Cl57	Cl	0.924583	0.187507	-0.422646
H58	H	0.924886	-0.150909	-0.403437
Cl59	Cl	0.167225	-0.000157	0.015745
Cl60	Cl	0.124937	-0.000119	0.354856
Cl61	Cl	0.927799	-0.187729	-0.226701
H62	H	0.329555	-0.000133	0.063220
Cl63	Cl	0.727466	-0.000101	-0.004218
Cl64	Cl	1.046576	-0.608430	0.055769
