data_functionalizedCrystal
_audit_creation_method	'MofGen! by Chris Wilmer'
_symmetry_space_group_name_H-M	'P1'
_symmetry_Int_Tables_number	1
_symmetry_cell_setting	triclinic
loop_
_symmetry_equiv_pos_as_xyz
  x,y,z
_cell_length_a	21.295420
_cell_length_b	21.295417
_cell_length_c	12.594509
_cell_angle_alpha	90.036245
_cell_angle_beta	90.021167
_cell_angle_gamma	90.028757
loop_
_atom_site_label
_atom_site_type_symbol
_atom_site_fract_x
_atom_site_fract_y
_atom_site_fract_z
Zn1	Zn	0.962333	-0.250620	0.601796
Zn2	Zn	1.462333	0.249380	1.101796
Zn3	Zn	0.962242	-0.355898	0.423793
Zn4	Zn	1.462242	0.144102	0.923793
Zn5	Zn	0.857063	-0.250644	0.423826
Zn6	Zn	1.357063	0.249356	0.923826
Zn7	Zn	0.857026	-0.355852	0.601723
Zn8	Zn	1.357026	0.144148	1.101723
O9	O	0.909666	-0.303253	0.512784
O10	O	1.409666	0.196747	1.012784
O11	O	1.050411	-0.264594	0.578200
O12	O	1.550411	0.235406	1.078200
O13	O	0.948267	-0.341966	0.274851
O14	O	1.448267	0.158034	0.774851
O15	O	0.871081	-0.162551	0.447478
O16	O	1.371081	0.337449	0.947478
O17	O	1.050344	-0.341942	0.447422
O18	O	1.550344	0.158058	0.947422
O19	O	0.948423	-0.162533	0.578232
O20	O	1.448423	0.337467	1.078232
O21	O	0.870993	-0.264636	0.274875
O22	O	1.370993	0.235364	0.774875
O23	O	0.768969	-0.264590	0.447407
O24	O	1.268969	0.235410	0.947407
O25	O	0.871018	-0.341863	0.750679
O26	O	1.371018	0.158137	1.250679
O27	O	0.768942	-0.341886	0.578108
O28	O	1.268942	0.158114	1.078108
O29	O	0.948387	-0.264549	0.750732
O30	O	1.448387	0.235451	1.250732
O31	O	0.948232	-0.443981	0.447351
O32	O	1.448232	0.056019	0.947351
O33	O	0.870930	-0.443947	0.578076
O34	O	1.370930	0.056053	1.078076
C35	C	0.746115	-0.303236	0.512754
C36	C	1.246115	0.196764	1.012754
C37	C	0.676147	-0.303244	0.512766
C38	C	1.176147	0.196756	1.012766
C39	C	0.176691	-0.343575	0.580774
C40	C	0.676691	0.156425	1.080774
C41	C	0.242433	-0.343576	0.580763
C42	C	0.742433	0.156424	1.080763
C43	C	0.275307	-0.303268	0.512818
C44	C	0.775307	0.196732	1.012818
C45	C	0.242433	-0.262968	0.444859
C46	C	0.742433	0.237032	0.944859
C47	C	0.176692	-0.262973	0.444865
C48	C	0.676692	0.237027	0.944865
N49	N	0.378548	-0.248151	0.504816
N50	N	0.878548	0.251849	1.004816
N51	N	0.441000	-0.248148	0.504817
N52	N	0.941000	0.251852	1.004817
C53	C	0.473382	-0.303250	0.512795
C54	C	0.973382	0.196750	1.012795
N55	N	0.440953	-0.358356	0.520794
N56	N	0.940953	0.141644	1.020794
N57	N	0.378496	-0.358359	0.520798
N58	N	0.878496	0.141641	1.020798
C59	C	0.346592	-0.303258	0.512804
C60	C	0.846592	0.196742	1.012804
C61	C	0.577534	-0.343551	0.580732
C62	C	1.077534	0.156449	1.080732
C63	C	0.643277	-0.343552	0.580713
C64	C	1.143277	0.156448	1.080713
C65	C	0.643276	-0.262938	0.444815
C66	C	1.143276	0.237062	0.944815
C67	C	0.577533	-0.262943	0.444828
C68	C	1.077533	0.237057	0.944828
C69	C	0.544666	-0.303248	0.512792
C70	C	1.044666	0.196752	1.012792
C71	C	0.909584	-0.466805	0.512725
C72	C	1.409584	0.033195	1.012725
C73	C	0.909606	-0.536773	0.512736
C74	C	1.409606	-0.036773	1.012736
C75	C	0.949893	-0.569637	0.444737
C76	C	1.449893	-0.069637	0.944737
C77	C	0.949922	-0.635379	0.444761
C78	C	1.449922	-0.135379	0.944761
C79	C	0.909654	-0.668256	0.512773
C80	C	1.409654	-0.168256	1.012773
C81	C	0.869364	-0.635384	0.580784
C82	C	1.369364	-0.135384	1.080784
C83	C	0.869340	-0.569643	0.580766
C84	C	1.369340	-0.069643	1.080766
N85	N	0.854586	-0.771519	0.520877
N86	N	1.354586	-0.271519	1.020877
N87	N	0.854611	-0.833971	0.520888
N88	N	1.354611	-0.333971	1.020888
C89	C	0.909724	-0.866330	0.512834
C90	C	1.409724	-0.366330	1.012834
N91	N	0.964813	-0.833879	0.504747
N92	N	1.464813	-0.333879	1.004747
N93	N	0.964788	-0.771422	0.504730
N94	N	1.464788	-0.271422	1.004730
C95	C	0.909675	-0.739541	0.512801
C96	C	1.409675	-0.239541	1.012801
C97	C	0.950047	-0.970479	0.444857
C98	C	1.450047	-0.470479	0.944857
C99	C	0.950077	-1.036223	0.444889
C100	C	1.450077	-0.536223	0.944889
C101	C	0.869513	-1.036227	0.580906
C102	C	1.369513	-0.536227	1.080906
C103	C	0.869488	-0.970484	0.580881
C104	C	1.369488	-0.470484	1.080881
C105	C	0.909754	-0.937614	0.512850
C106	C	1.409754	-0.437614	1.012850
C107	C	1.073856	-0.303271	0.512816
C108	C	1.573856	0.196729	1.012816
C109	C	1.143825	-0.303278	0.512829
C110	C	1.643825	0.196722	1.012829
C111	C	0.909708	-0.303198	0.790405
C112	C	1.409708	0.196802	1.290405
C113	C	0.909726	-0.303175	0.908711
C114	C	1.409726	0.196825	1.408711
C115	C	0.909766	-0.139063	0.512867
C116	C	1.409766	0.360937	1.012867
C117	C	0.909809	-0.069095	0.512902
C118	C	1.409809	0.430905	1.012902
C119	C	0.909660	-0.303263	0.236243
C120	C	1.409660	0.196737	0.736243
C121	C	0.909765	-0.303109	0.117939
C122	C	1.409765	0.196891	0.617939
C123	C	0.867659	-0.345202	0.977935
C124	C	1.367659	0.154798	1.477935
C125	C	0.925094	-0.360584	1.048722
C126	C	1.425094	0.139416	1.548722
C127	C	0.852336	-0.287754	1.048724
C128	C	1.352336	0.212246	1.548724
C129	C	0.967191	-0.318587	0.977939
C130	C	1.467191	0.181413	1.477939
C131	C	0.894395	-0.245731	0.977935
C132	C	1.394395	0.254269	1.477935
C133	C	0.951870	-0.261091	1.048690
C134	C	1.451870	0.238909	1.548690
H135	H	0.149932	-0.230157	0.389535
H136	H	0.649932	0.269843	0.889535
H137	H	0.836578	-0.662156	0.636162
H138	H	1.336578	-0.162156	1.136162
Cl139	Cl	1.042170	-0.338774	0.930143
Cl140	Cl	1.542170	0.161226	1.430143
Cl141	Cl	1.000572	-0.676702	0.359269
Cl142	Cl	1.500572	-0.176702	0.859269
Cl143	Cl	0.777380	-0.267659	1.096730
Cl144	Cl	1.277380	0.232341	1.596730
H145	H	0.269198	-0.376390	0.636096
H146	H	0.769198	0.123610	1.136096
H147	H	0.938082	-0.409135	1.079815
H148	H	1.438082	0.090865	1.579815
Cl149	Cl	0.812776	-0.400156	0.929965
Cl150	Cl	1.312776	0.099844	1.429965
Cl151	Cl	0.135376	-0.394249	0.666208
Cl152	Cl	0.635376	0.105751	1.166208
H153	H	0.881390	-0.197194	0.946818
H154	H	1.381390	0.302806	1.446818
H155	H	0.670036	-0.376371	0.636039
H156	H	1.170036	0.123629	1.136039
H157	H	0.269203	-0.230150	0.389536
H158	H	0.769203	0.269850	0.889536
Cl159	Cl	0.536212	-0.394222	0.666165
Cl160	Cl	1.036212	0.105778	1.166165
H161	H	0.670041	-0.230121	0.389489
H162	H	1.170041	0.269879	0.889489
H163	H	0.550773	-0.230126	0.389504
H164	H	1.050773	0.269874	0.889504
Cl165	Cl	1.006881	-0.206176	1.096361
Cl166	Cl	1.506881	0.293824	1.596361
H167	H	0.982681	-0.542876	0.389346
H168	H	1.482681	-0.042876	0.889346
Cl169	Cl	0.818689	-0.528326	0.666256
Cl170	Cl	1.318689	-0.028326	1.166256
H171	H	0.982836	-0.943716	0.389466
H172	H	1.482836	-0.443716	0.889466
Cl173	Cl	1.000733	-1.077538	0.359404
Cl174	Cl	1.500733	-0.577538	0.859404
Cl175	Cl	0.818893	-1.077551	0.666415
Cl176	Cl	1.318893	-0.577551	1.166415
H177	H	0.836680	-0.943725	0.636247
H178	H	1.336680	-0.443725	1.136247
