data_functionalizedCrystal
_audit_creation_method	'MofGen! by Chris Wilmer'
_symmetry_space_group_name_H-M	'P1'
_symmetry_Int_Tables_number	1
_symmetry_cell_setting	triclinic
loop_
_symmetry_equiv_pos_as_xyz
  x,y,z
_cell_length_a	10.540514
_cell_length_b	10.654550
_cell_length_c	9.130313
_cell_angle_alpha	90.004369
_cell_angle_beta	89.999912
_cell_angle_gamma	95.499955
loop_
_atom_site_label
_atom_site_type_symbol
_atom_site_fract_x
_atom_site_fract_y
_atom_site_fract_z
O1	O	1.685841	-0.176841	-0.121683
O2	O	1.316417	-0.193550	-0.121712
O3	O	1.509623	-0.002458	-0.121688
O4	O	1.492635	-0.367932	-0.121707
O5	O	1.509609	-0.002453	0.121911
O6	O	1.316404	-0.193544	0.121887
O7	O	1.685827	-0.176835	0.121916
Cu8	Cu	1.501114	-0.185189	0.144144
Cu9	Cu	1.501130	-0.185196	-0.143940
O10	O	1.492622	-0.367927	0.121892
C11	C	1.269108	-0.192301	0.000084
C12	C	1.128159	-0.188572	0.000074
C13	C	1.508369	0.044343	0.000111
C14	C	1.504637	0.183787	0.000108
C15	C	1.733137	-0.178084	0.000116
C16	C	1.874085	-0.181813	0.000117
C17	C	1.944840	-0.045147	0.000117
C18	C	2.091452	-0.048980	-0.000460
C19	C	2.066386	-0.256142	-0.138753
C20	C	1.919848	-0.251340	-0.138846
C21	C	1.919466	-0.253357	0.138181
C22	C	2.066444	-0.254675	0.139982
C23	C	1.493876	-0.414728	0.000090
C24	C	1.497608	-0.554172	0.000083
N25	N	1.501113	-0.185184	0.346767
C26	C	1.618393	0.263243	0.000117
C27	C	1.614879	0.394264	0.000099
C28	C	1.383843	0.366362	0.000070
C29	C	1.387358	0.235343	0.000078
N30	N	1.501142	-0.185191	-0.346563
C31	C	1.586693	-0.100604	0.423429
C32	C	1.586705	-0.100605	0.576766
C33	C	1.415552	-0.269775	0.576764
C34	C	1.415535	-0.269768	0.423430
H35	H	2.134142	0.004159	0.099040
Cl36	Cl	1.900821	0.040461	0.153811
Cl37	Cl	1.694294	0.005731	0.673137
Cl38	Cl	1.694271	0.005734	0.327058
Cl39	Cl	1.846443	-0.408989	0.140255
Cl40	Cl	1.898200	0.039197	-0.153355
Cl41	Cl	1.244338	0.135447	0.000055
Cl42	Cl	1.236415	0.431185	0.000032
Cl43	Cl	1.765829	0.198434	0.000151
Cl44	Cl	1.870886	-0.183113	0.300707
H45	H	1.345879	-0.338643	0.639199
H46	H	2.088662	-0.358668	-0.143533
H47	H	2.133195	0.003939	-0.100561
Cl48	Cl	1.876281	-0.175152	-0.299671
Cl49	Cl	1.757894	0.494147	0.000106
H50	H	1.345839	-0.338643	0.361007
Cl51	Cl	2.103726	-0.411771	0.153554
H52	H	1.871805	-0.351731	-0.144759
H53	H	2.107481	-0.205308	0.242689
Cl54	Cl	2.132119	-0.184592	-0.298881
