data_functionalizedCrystal
_audit_creation_method	'MofGen! by Chris Wilmer'
_symmetry_space_group_name_H-M	'P1'
_symmetry_Int_Tables_number	1
_symmetry_cell_setting	triclinic
loop_
_symmetry_equiv_pos_as_xyz
  x,y,z
_cell_length_a	16.109301
_cell_length_b	19.288865
_cell_length_c	18.366186
_cell_angle_alpha	90.011479
_cell_angle_beta	89.993673
_cell_angle_gamma	96.701136
loop_
_atom_site_label
_atom_site_type_symbol
_atom_site_fract_x
_atom_site_fract_y
_atom_site_fract_z
O1	O	1.102832	-0.089282	-0.060512
O2	O	0.860732	-0.100392	-0.060525
O3	O	0.988777	0.006277	-0.060504
O4	O	0.974786	-0.195951	-0.060533
O5	O	0.988756	0.006282	0.060596
O6	O	0.860710	-0.100387	0.060575
O7	O	1.102810	-0.089276	0.060587
Zn8	Zn	0.981757	-0.094831	0.079808
Zn9	Zn	0.981785	-0.094838	-0.079746
O10	O	0.974765	-0.195945	0.060566
C11	C	0.988316	0.032157	0.000048
C12	C	0.986965	0.109264	0.000054
C13	C	0.829748	-0.099940	0.000023
C14	C	0.737457	-0.098590	0.000019
N15	N	0.981743	-0.094826	0.188699
C16	C	0.514979	-0.158748	0.000019
C17	C	0.428263	-0.157475	0.000024
C18	C	0.448570	-0.030916	0.000039
C19	C	0.535284	-0.032190	0.000040
C20	C	0.568486	-0.096108	0.000026
C21	C	0.395056	-0.093561	0.000030
C22	C	0.301034	-0.092180	0.000036
C23	C	0.662513	-0.097489	0.000022
C24	C	1.133794	-0.089729	0.000037
C25	C	1.226085	-0.091078	0.000037
C26	C	0.975226	-0.221825	0.000013
C27	C	0.976577	-0.298932	0.000002
C28	C	1.062096	0.153781	0.000062
C29	C	1.060827	0.226231	0.000050
C30	C	0.984421	0.254161	0.000046
C31	C	0.909280	0.209634	0.000034
C32	C	0.910552	0.137185	0.000039
C33	C	0.924350	0.362593	0.042461
C34	C	0.923082	0.435041	0.042462
C35	C	0.980496	0.477616	0.000029
C36	C	1.039193	0.447735	-0.042393
C37	C	1.040464	0.375287	-0.042389
C38	C	0.983034	0.332718	0.000041
C39	C	1.054256	0.600692	0.000023
C40	C	1.052983	0.673143	0.000007
C41	C	0.901434	0.656544	-0.000001
C42	C	0.902709	0.584095	0.000007
C43	C	0.979122	0.556173	0.000023
N44	N	0.981805	-0.094837	-0.188637
C45	C	1.038460	-0.047616	0.226809
C46	C	1.038466	-0.047613	0.303037
C47	C	0.981762	-0.094831	0.341152
C48	C	0.925034	-0.142045	0.303033
C49	C	0.925025	-0.142042	0.226807
C50	C	0.970632	-0.158093	0.461903
C51	C	0.970647	-0.158097	0.538128
C52	C	0.981785	-0.094840	0.576259
C53	C	0.992926	-0.031577	0.538157
C54	C	0.992917	-0.031574	0.461931
C55	C	0.981765	-0.094840	0.423807
C56	C	1.038511	-0.047623	0.697024
C57	C	1.038511	-0.047619	0.773253
C58	C	0.925083	-0.142057	0.773248
C59	C	0.925080	-0.142055	0.697020
C60	C	0.981798	-0.094839	0.658913
H61	H	0.542008	-0.210794	0.000013
H62	H	1.088256	0.350962	-0.076933
H63	H	1.084692	-0.009175	0.665996
H64	H	0.875284	0.459363	0.077000
N65	N	0.370550	-0.225036	0.000057
H66	H	0.404745	-0.265719	0.000061
H67	H	0.334111	-0.227293	-0.044822
N68	N	0.412759	0.038022	0.000058
H69	H	0.349706	0.029325	0.000056
H70	H	0.432355	0.065432	-0.044830
H71	H	1.114166	0.709389	0.000009
N72	N	0.862417	0.316675	0.088226
H73	H	0.825046	0.346596	0.115103
H74	H	0.893531	0.289974	0.124468
H75	H	1.116476	0.577957	0.000033
H76	H	0.578853	0.018823	0.000047
N77	N	1.144509	0.123665	0.000078
H78	H	1.191912	0.162864	0.000080
H79	H	1.148350	0.093958	-0.044814
N80	N	0.826871	0.239753	0.000026
H81	H	0.837465	0.292404	0.000026
H82	H	0.793995	0.223474	0.044916
H83	H	1.122009	0.262483	0.000054
N84	N	1.101127	0.493644	-0.088161
H85	H	1.091415	0.544074	-0.081732
H86	H	1.093586	0.480114	-0.141080
N87	N	0.819024	0.686658	-0.000014
H88	H	0.829617	0.739309	-0.000018
H89	H	0.786147	0.670382	0.044877
H90	H	0.841529	0.547848	0.000005
H91	H	0.849369	0.100939	0.000033
H92	H	1.084642	-0.009168	0.195784
H93	H	1.084653	-0.009167	0.334071
N94	N	0.863916	-0.192982	0.814347
H95	H	0.872525	-0.185820	0.868419
H96	H	0.873328	-0.242260	0.801010
H97	H	1.001986	0.019936	0.430911
H98	H	1.001996	0.019932	0.569202
N99	N	0.863877	-0.192972	0.344143
H100	H	0.873258	-0.242273	0.330861
H101	H	0.804929	-0.184893	0.330877
H102	H	1.084694	-0.009172	0.804283
N103	N	0.863905	-0.192974	0.655910
H104	H	0.827982	-0.222887	0.691621
H105	H	0.895609	-0.223690	0.624267
H106	H	0.961581	-0.209609	0.569145
N107	N	0.958619	-0.226323	0.420778
H108	H	0.951573	-0.266399	0.456480
H109	H	1.009108	-0.230387	0.389142
H110	H	0.878838	-0.180486	0.195777
