data_functionalizedCrystal
_audit_creation_method	'MofGen! by Chris Wilmer'
_symmetry_space_group_name_H-M	'P1'
_symmetry_Int_Tables_number	1
_symmetry_cell_setting	triclinic
loop_
_symmetry_equiv_pos_as_xyz
  x,y,z
_cell_length_a	15.944551
_cell_length_b	14.519731
_cell_length_c	12.996460
_cell_angle_alpha	89.992872
_cell_angle_beta	89.998907
_cell_angle_gamma	83.593796
loop_
_atom_site_label
_atom_site_type_symbol
_atom_site_fract_x
_atom_site_fract_y
_atom_site_fract_z
O1	O	1.114706	0.118942	-0.085462
O2	O	1.614706	0.618942	0.414538
O3	O	0.870179	0.133606	-0.085488
O4	O	1.370179	0.633606	0.414512
O5	O	0.998916	-0.007974	-0.085465
O6	O	1.498916	0.492026	0.414535
O7	O	0.985969	0.260523	-0.085485
O8	O	1.485969	0.760523	0.414515
O9	O	0.998903	-0.007982	0.085669
O10	O	1.498903	0.492018	0.585669
O11	O	0.870165	0.133598	0.085646
O12	O	1.370165	0.633598	0.585646
O13	O	1.114693	0.118934	0.085672
O14	O	1.614693	0.618934	0.585672
Cu15	Cu	0.992428	0.126266	0.101285
Cu16	Cu	1.492428	0.626266	0.601285
Cu17	Cu	0.992444	0.126275	-0.101101
Cu18	Cu	1.492444	0.626275	0.398899
O19	O	0.985955	0.260515	0.085649
O20	O	1.485955	0.760515	0.585649
C21	C	0.838877	0.132993	0.000076
C22	C	1.338877	0.632993	0.500076
C23	C	0.745628	0.131168	0.000066
C24	C	1.245628	0.631168	0.500066
C25	C	0.998303	-0.042337	0.000102
C26	C	1.498303	0.457663	0.500102
C27	C	0.996485	-0.144714	0.000103
C28	C	1.496485	0.355286	0.500103
C29	C	0.530632	0.039048	0.000093
C30	C	1.030632	0.539048	0.500093
C31	C	0.469683	0.081829	-0.084288
C32	C	0.969683	0.581829	0.415712
C33	C	0.574898	0.127867	0.000079
C34	C	1.074898	0.627867	0.500079
C35	C	0.469692	0.081843	0.084437
C36	C	0.969692	0.581843	0.584437
C37	C	0.409980	0.124671	0.000095
C38	C	0.909980	0.624671	0.500095
C39	C	0.515177	0.170673	-0.084372
C40	C	1.015177	0.670673	0.415628
C41	C	0.515193	0.170674	0.084428
C42	C	1.015193	0.670674	0.584428
C43	C	0.454262	0.213520	0.000026
C44	C	0.954262	0.713520	0.500026
C45	C	0.669903	0.129705	0.000068
C46	C	1.169903	0.629705	0.500068
C47	C	0.314976	0.122839	0.000098
C48	C	0.814976	0.622839	0.500098
C49	C	0.995008	-0.227855	0.000100
C50	C	1.495008	0.272145	0.500100
C51	C	0.993162	-0.332161	0.000092
C52	C	1.493162	0.167839	0.500092
C53	C	0.991697	-0.415297	0.000085
C54	C	1.491697	0.084703	0.500085
C55	C	0.989851	-0.519609	0.000079
C56	C	1.489851	-0.019609	0.500079
C57	C	1.145994	0.119547	0.000106
C58	C	1.645994	0.619547	0.500106
C59	C	1.239243	0.121372	0.000109
C60	C	1.739243	0.621372	0.500109
C61	C	0.986569	0.294877	0.000080
C62	C	1.486569	0.794877	0.500080
C63	C	0.988386	0.397254	0.000072
C64	C	1.488386	0.897254	0.500072
N65	N	0.992423	0.126258	0.243632
N66	N	1.492423	0.626258	0.743632
N67	N	0.992455	0.126275	-0.243448
N68	N	1.492455	0.626275	0.256552
C69	C	0.992443	0.126276	0.663446
C70	C	1.492443	0.626276	1.163446
C71	C	0.992435	0.126274	0.546641
C72	C	1.492435	0.626274	1.046641
C73	C	0.992433	0.126268	0.453543
C74	C	1.492433	0.626268	0.953543
C75	C	0.992424	0.126265	0.336730
C76	C	1.492424	0.626265	0.836730
H77	H	0.563852	-0.034665	-0.000006
H78	H	1.063852	0.465335	0.499994
H79	H	0.535228	0.208214	-0.155788
H80	H	1.035228	0.708214	0.344212
H81	H	0.449521	0.044266	-0.155621
H82	H	0.949521	0.544266	0.344379
H83	H	0.449543	0.044256	0.155772
H84	H	0.949543	0.544256	0.655772
H85	H	0.535375	0.208206	0.155764
H86	H	1.035375	0.708206	0.655764
H87	H	0.421216	0.287308	-0.000026
H88	H	0.921216	0.787308	0.499974
