data_functionalizedCrystal
_audit_creation_method	'MofGen! by Chris Wilmer'
_symmetry_space_group_name_H-M	'P1'
_symmetry_Int_Tables_number	1
_symmetry_cell_setting	triclinic
loop_
_symmetry_equiv_pos_as_xyz
  x,y,z
_cell_length_a	15.538191
_cell_length_b	16.109301
_cell_length_c	14.586319
_cell_angle_alpha	90.003133
_cell_angle_beta	89.997979
_cell_angle_gamma	65.366787
loop_
_atom_site_label
_atom_site_type_symbol
_atom_site_fract_x
_atom_site_fract_y
_atom_site_fract_z
O1	O	0.121088	1.066621	0.076175
O2	O	0.621088	1.566621	0.576175
O3	O	0.136158	0.820015	0.076189
O4	O	0.636158	1.320015	0.576189
O5	O	-0.008521	0.991322	0.076184
O6	O	0.491479	1.491322	0.576184
O7	O	0.265767	0.895314	0.076180
O8	O	0.765767	1.395314	0.576180
O9	O	-0.008513	0.991304	-0.076297
O10	O	0.491487	1.491304	0.423703
O11	O	0.136167	0.819997	-0.076292
O12	O	0.636167	1.319997	0.423708
O13	O	0.121097	1.066603	-0.076306
O14	O	0.621097	1.566603	0.423694
Cu15	Cu	0.128632	0.943298	-0.090221
Cu16	Cu	0.628632	1.443298	0.409779
Cu17	Cu	0.128622	0.943320	0.090105
Cu18	Cu	0.628622	1.443320	0.590105
O19	O	0.265776	0.895296	-0.076300
O20	O	0.765776	1.395296	0.423700
C21	C	0.135552	0.789215	-0.000050
C22	C	0.635552	1.289215	0.499950
C23	C	0.133722	0.697472	-0.000044
C24	C	0.633722	1.197472	0.499956
C25	C	-0.043615	1.001358	-0.000054
C26	C	0.456385	1.501358	0.499946
C27	C	-0.148198	1.031279	-0.000047
C28	C	0.351802	1.531279	0.499953
C29	C	0.215316	0.450596	-0.000056
C30	C	0.715316	0.950596	0.499944
C31	C	0.213589	0.364396	-0.000062
C32	C	0.713589	0.864396	0.499938
C33	C	0.041932	0.436032	-0.000056
C34	C	0.541932	0.936032	0.499944
C35	C	0.043660	0.522229	-0.000056
C36	C	0.543660	1.022229	0.499944
C37	C	0.130355	0.529508	-0.000052
C38	C	0.630355	1.029508	0.499948
C39	C	0.126900	0.357111	-0.000057
C40	C	0.626900	0.857111	0.499943
C41	C	0.125027	0.263649	-0.000063
C42	C	0.625027	0.763649	0.499937
C43	C	0.132228	0.622975	-0.000047
C44	C	0.632228	1.122975	0.499953
C45	C	-0.435898	0.734025	-0.000050
C46	C	0.064102	1.234025	0.499950
C47	C	-0.534172	0.762161	-0.000053
C48	C	-0.034172	1.262161	0.499947
C49	C	-0.556664	0.920419	-0.000062
C50	C	-0.056664	1.420419	0.499938
C51	C	-0.458389	0.892297	-0.000054
C52	C	0.041611	1.392297	0.499946
C53	C	-0.398013	0.799099	-0.000049
C54	C	0.101987	1.299099	0.499951
C55	C	-0.420505	0.957370	-0.000053
C56	C	0.079495	1.457370	0.499947
C57	C	-0.322239	0.929249	-0.000049
C58	C	0.177761	1.429249	0.499951
C59	C	-0.261857	0.836055	-0.000047
C60	C	0.238143	1.336055	0.499953
C61	C	-0.299747	0.770978	-0.000046
C62	C	0.200253	1.270978	0.499954
C63	C	-0.480882	1.050568	-0.000064
C64	C	0.019118	1.550568	0.499936
C65	C	-0.442998	1.115641	-0.000063
C66	C	0.057002	1.615641	0.499937
C67	C	-0.344730	1.087520	-0.000053
C68	C	0.155270	1.587520	0.499947
C69	C	-0.284349	0.994326	-0.000051
C70	C	0.215651	1.494326	0.499949
C71	C	-0.306840	1.152598	-0.000055
C72	C	0.193160	1.652598	0.499945
C73	C	-0.208574	1.124477	-0.000052
C74	C	0.291426	1.624477	0.499948
C75	C	-0.186083	0.966206	-0.000048
C76	C	0.313917	1.466206	0.499952
C77	C	0.300870	0.885260	-0.000060
C78	C	0.800870	1.385260	0.499940
C79	C	0.405453	0.855340	-0.000062
C80	C	0.905453	1.355340	0.499938
C81	C	0.121703	1.097403	-0.000065
C82	C	0.621703	1.597403	0.499935
C83	C	0.123533	1.189147	-0.000065
C84	C	0.623533	1.689147	0.499935
N85	N	0.128639	0.943290	-0.217053
N86	N	0.628639	1.443290	0.282947
C87	C	0.185781	0.976482	-0.452063
C88	C	0.685781	1.476482	0.047937
C89	C	0.185775	0.976493	-0.548045
C90	C	0.685775	1.476493	-0.048045
C91	C	0.071459	0.910145	-0.548047
C92	C	0.571459	1.410145	-0.048047
C93	C	0.071462	0.910141	-0.452067
C94	C	0.571462	1.410141	0.047933
C95	C	0.128628	0.943306	-0.404078
C96	C	0.628628	1.443306	0.095922
C97	C	0.128619	0.943321	-0.596039
C98	C	0.628619	1.443321	-0.096039
C99	C	0.128612	0.943332	-0.700106
C100	C	0.628612	1.443332	-0.200106
C101	C	0.128634	0.943297	-0.300004
C102	C	0.628634	1.443297	0.199996
N103	N	0.128608	0.943338	0.216937
N104	N	0.628608	1.443338	0.716937
H105	H	0.285908	0.456517	-0.000059
H106	H	0.785908	0.956517	0.499941
H107	H	-0.028652	0.430094	-0.000065
H108	H	0.471348	0.930094	0.499935
Br109	Br	-0.353950	0.607540	-0.000030
Br110	Br	0.146050	1.107540	0.499970
H111	H	-0.492169	1.191523	-0.000071
H112	H	0.007831	1.691523	0.499929
Br113	Br	-0.388789	1.279076	-0.000084
Br114	Br	0.111211	1.779076	0.499916
Br115	Br	-0.071653	0.629334	-0.000063
Br116	Br	0.428347	1.129334	0.499937
H117	H	-0.136921	0.890314	-0.000037
H118	H	0.363079	1.390314	0.499963
H119	H	0.232314	1.003509	-0.587110
H120	H	0.732314	1.503509	-0.087110
H121	H	-0.181843	0.813161	-0.000050
H122	H	0.318157	1.313161	0.499950
H123	H	-0.250585	0.695087	-0.000035
H124	H	0.249415	1.195087	0.499965
H125	H	0.024918	0.883142	-0.587131
H126	H	0.524918	1.383142	-0.087131
H127	H	0.282773	0.300146	-0.000067
H128	H	0.782773	0.800146	0.499933
H129	H	-0.565012	0.709164	-0.000068
H130	H	-0.065012	1.209164	0.499932
Br131	Br	-0.157154	1.212790	-0.000073
Br132	Br	0.342846	1.712790	0.499927
H133	H	-0.605834	0.996301	-0.000070
H134	H	-0.105834	1.496301	0.499930
Br135	Br	-0.006110	0.865114	-0.386938
Br136	Br	0.493890	1.365114	0.113062
H137	H	-0.560896	1.073460	-0.000059
H138	H	-0.060896	1.573460	0.499941
H139	H	0.232330	1.003487	-0.412993
H140	H	0.732330	1.503487	0.087007
