data_functionalizedCrystal
_audit_creation_method	'MofGen! by Chris Wilmer'
_symmetry_space_group_name_H-M	'P1'
_symmetry_Int_Tables_number	1
_symmetry_cell_setting	triclinic
loop_
_symmetry_equiv_pos_as_xyz
  x,y,z
_cell_length_a	14.519709
_cell_length_b	16.109301
_cell_length_c	14.586319
_cell_angle_alpha	90.000787
_cell_angle_beta	89.995260
_cell_angle_gamma	96.429187
loop_
_atom_site_label
_atom_site_type_symbol
_atom_site_fract_x
_atom_site_fract_y
_atom_site_fract_z
O1	O	0.118540	-1.103336	-0.076184
O2	O	0.451873	-0.770003	0.257149
O3	O	0.785207	-0.436669	0.590482
O4	O	0.133292	-0.861300	-0.076199
O5	O	0.466625	-0.527966	0.257134
O6	O	0.799959	-0.194633	0.590468
O7	O	-0.008336	-0.988735	-0.076183
O8	O	0.324997	-0.655402	0.257150
O9	O	0.658330	-0.322068	0.590484
O10	O	0.260168	-0.975901	-0.076200
O11	O	0.593501	-0.642567	0.257133
O12	O	0.926835	-0.309234	0.590466
O13	O	-0.008338	-0.988726	0.076298
O14	O	0.324995	-0.655393	0.409631
O15	O	0.658328	-0.322060	0.742964
O16	O	0.133290	-0.861291	0.076282
O17	O	0.466623	-0.527957	0.409615
O18	O	0.799957	-0.194624	0.742948
O19	O	0.118538	-1.103327	0.076296
O20	O	0.451871	-0.769994	0.409630
O21	O	0.785204	-0.436660	0.742963
Cu22	Cu	0.125914	-0.982308	0.090212
Cu23	Cu	0.459247	-0.648975	0.423545
Cu24	Cu	0.792580	-0.315641	0.756878
Cu25	Cu	0.125916	-0.982319	-0.090114
Cu26	Cu	0.459249	-0.648985	0.243219
Cu27	Cu	0.792583	-0.315652	0.576552
O28	O	0.260166	-0.975892	0.076280
O29	O	0.593499	-0.642558	0.409614
O30	O	0.926833	-0.309225	0.742947
C31	C	-0.042696	-0.988132	0.000057
C32	C	0.290638	-0.654799	0.333391
C33	C	0.623971	-0.321466	0.666724
C34	C	-0.145073	-0.986340	0.000058
C35	C	0.188260	-0.653007	0.333391
C36	C	0.521594	-0.319673	0.666724
C37	C	0.132693	-0.830319	0.000039
C38	C	0.466027	-0.496986	0.333373
C39	C	0.799360	-0.163653	0.666706
C40	C	0.130902	-0.738021	0.000034
C41	C	0.464235	-0.404687	0.333367
C42	C	0.797569	-0.071354	0.666701
C43	C	0.119136	-1.134307	0.000056
C44	C	0.452470	-0.800974	0.333389
C45	C	0.785803	-0.467641	0.666723
C46	C	0.120928	-1.226606	0.000055
C47	C	0.454261	-0.893273	0.333389
C48	C	0.787595	-0.559939	0.666722
C49	C	-0.519955	-0.979741	0.000034
C50	C	-0.186622	-0.646408	0.333367
C51	C	0.146712	-0.313075	0.666700
C52	C	-0.415651	-0.981574	0.000041
C53	C	-0.082318	-0.648241	0.333374
C54	C	0.251016	-0.314907	0.666707
C55	C	-0.332517	-0.983041	0.000047
C56	C	0.000816	-0.649707	0.333380
C57	C	0.334149	-0.316374	0.666713
C58	C	-0.228207	-0.984873	0.000052
C59	C	0.105127	-0.651540	0.333385
C60	C	0.438460	-0.318207	0.666719
C61	C	0.294526	-0.976494	0.000038
C62	C	0.627859	-0.643161	0.333371
C63	C	0.961192	-0.309828	0.666705
C64	C	0.396903	-0.978287	0.000031
C65	C	0.730236	-0.644953	0.333365
C66	C	1.063570	-0.311620	0.666698
N67	N	0.125911	-0.982307	0.217044
N68	N	0.459245	-0.648973	0.550377
N69	N	0.792578	-0.315640	0.883710
C70	C	0.210775	-0.515887	0.000040
C71	C	0.544109	-0.182553	0.333373
C72	C	0.877442	0.150780	0.666706
C73	C	0.209085	-0.429163	0.000046
C74	C	0.542418	-0.095830	0.333379
C75	C	0.875752	0.237503	0.666712
C76	C	0.041048	-0.448747	0.000053
C77	C	0.374381	-0.115414	0.333386
C78	C	0.707715	0.217920	0.666719
C79	C	0.042739	-0.535468	0.000053
C80	C	0.376073	-0.202135	0.333386
C81	C	0.709406	0.131198	0.666720
C82	C	0.127606	-0.569036	0.000042
C83	C	0.460939	-0.235703	0.333375
C84	C	0.794273	0.097631	0.666709
C85	C	0.124224	-0.395591	0.000047
C86	C	0.457557	-0.062258	0.333381
C87	C	0.790891	0.271076	0.666714
C88	C	0.122390	-0.301562	0.000054
C89	C	0.455724	0.031772	0.333387
C90	C	0.789057	0.365105	0.666721
C91	C	0.129440	-0.663071	0.000037
C92	C	0.462773	-0.329738	0.333370
C93	C	0.796107	0.003596	0.666704
N94	N	0.125911	-0.982326	-0.216946
N95	N	0.459244	-0.648993	0.116387
N96	N	0.792578	-0.315660	0.449720
C97	C	0.063219	-1.038754	0.452057
C98	C	0.396553	-0.705421	0.785390
C99	C	0.729886	-0.372087	1.118724
C100	C	0.063217	-1.038756	0.548038
C101	C	0.396550	-0.705423	0.881372
C102	C	0.729884	-0.372090	1.214705
C103	C	0.188606	-0.925873	0.548034
C104	C	0.521939	-0.592540	0.881367
C105	C	0.855273	-0.259207	1.214700
C106	C	0.188603	-0.925868	0.452054
C107	C	0.521937	-0.592534	0.785387
C108	C	0.855270	-0.259201	1.118721
C109	C	0.125911	-0.982313	0.404068
C110	C	0.459244	-0.648979	0.737402
C111	C	0.792578	-0.315646	1.070735
C112	C	0.125912	-0.982321	0.596029
C113	C	0.459245	-0.648987	0.929362
C114	C	0.792578	-0.315654	1.262696
C115	C	0.125910	-0.982323	0.700096
C116	C	0.459243	-0.648990	1.033430
C117	C	0.792576	-0.315656	1.366763
C118	C	0.125911	-0.982310	0.299995
C119	C	0.459245	-0.648976	0.633328
C120	C	0.792578	-0.315643	0.966661
H121	H	0.279879	-0.543214	0.000037
H122	H	0.613213	-0.209881	0.333371
H123	H	0.946546	0.123453	0.666704
H124	H	0.276810	-0.385892	0.000045
H125	H	0.610143	-0.052559	0.333379
H126	H	0.943477	0.280774	0.666712
C127	C	-0.052300	-0.411814	0.000056
C128	C	0.281033	-0.078481	0.333390
C129	C	0.614366	0.254853	0.666723
N130	N	-0.122612	-0.383997	0.000055
N131	N	0.210721	-0.050664	0.333389
N132	N	0.544054	0.282669	0.666722
H133	H	-0.024991	-0.578745	0.000058
H134	H	0.308342	-0.245412	0.333391
H135	H	0.641675	0.087922	0.666724
C136	C	-0.005751	-1.100838	0.399276
C137	C	0.327582	-0.767505	0.732609
C138	C	0.660916	-0.434172	1.065943
N139	N	-0.057705	-1.147600	0.359524
N140	N	0.275628	-0.814266	0.692857
N141	N	0.608962	-0.480933	1.026191
H142	H	0.012167	-1.084715	0.587108
H143	H	0.345500	-0.751382	0.920442
H144	H	0.678834	-0.418048	1.253775
H145	H	0.239650	-0.879918	0.587113
H146	H	0.572983	-0.546585	0.920446
H147	H	0.906317	-0.213251	1.253780
C148	C	0.257614	-0.863812	0.399263
C149	C	0.590947	-0.530479	0.732597
C150	C	0.924281	-0.197146	1.065930
N151	N	0.309605	-0.817087	0.359501
N152	N	0.642938	-0.483753	0.692835
N153	N	0.976271	-0.150420	1.026168
