data_functionalizedCrystal
_audit_creation_method	'MofGen! by Chris Wilmer'
_symmetry_space_group_name_H-M	'P1'
_symmetry_Int_Tables_number	1
_symmetry_cell_setting	triclinic
loop_
_symmetry_equiv_pos_as_xyz
  x,y,z
_cell_length_a	11.026644
_cell_length_b	10.868271
_cell_length_c	11.026607
_cell_angle_alpha	90.002960
_cell_angle_beta	71.414918
_cell_angle_gamma	89.995680
loop_
_atom_site_label
_atom_site_type_symbol
_atom_site_fract_x
_atom_site_fract_y
_atom_site_fract_z
O1	O	-1.726718	0.102345	0.533595
O2	O	-1.393384	0.435678	0.866928
O3	O	-1.060051	0.769011	1.200261
O4	O	-1.360141	0.102341	0.472837
O5	O	-1.026808	0.435675	0.806171
O6	O	-0.693474	0.769008	1.139504
O7	O	-1.513048	0.102338	0.319926
O8	O	-1.179715	0.435672	0.653260
O9	O	-0.846381	0.769005	0.986593
O10	O	-1.573811	0.102348	0.686505
O11	O	-1.240478	0.435681	1.019839
O12	O	-0.907144	0.769014	1.353172
O13	O	-1.513030	-0.102306	0.319915
O14	O	-1.179697	0.231027	0.653249
O15	O	-0.846364	0.564360	0.986582
O16	O	-1.360123	-0.102303	0.472826
O17	O	-1.026790	0.231030	0.806160
O18	O	-0.693457	0.564363	1.139493
O19	O	-1.726700	-0.102300	0.533583
O20	O	-1.393367	0.231033	0.866917
O21	O	-1.060033	0.564367	1.200250
Zn22	Zn	-1.543409	-0.134793	0.503203
Zn23	Zn	-1.210076	0.198540	0.836536
Zn24	Zn	-0.876742	0.531873	1.169870
Zn25	Zn	-1.543432	0.134835	0.503218
Zn26	Zn	-1.210099	0.468168	0.836551
Zn27	Zn	-0.876766	0.801501	1.169884
O28	O	-1.573793	-0.102297	0.686494
O29	O	-1.240460	0.231036	1.019828
O30	O	-0.907127	0.564370	1.353161
C31	C	-1.312473	0.000018	0.461623
C32	C	-0.979140	0.333352	0.794956
C33	C	-0.645806	0.666685	1.128289
C34	C	-1.170460	0.000017	0.428208
C35	C	-0.837127	0.333351	0.761542
C36	C	-0.503794	0.666684	1.094875
C37	C	-0.970034	0.000020	0.485951
C38	C	-0.636701	0.333353	0.819285
C39	C	-0.303368	0.666686	1.152618
C40	C	-1.116812	0.000020	0.520489
C41	C	-0.783479	0.333353	0.853823
C42	C	-0.450145	0.666687	1.187156
N43	N	-1.543402	-0.318808	0.503194
N44	N	-1.210069	0.014526	0.836528
N45	N	-0.876735	0.347859	1.169861
C46	C	-1.543425	-0.569814	0.503214
C47	C	-1.210092	-0.236480	0.836547
C48	C	-0.876758	0.096853	1.169880
C49	C	-1.543409	-0.430136	0.503206
C50	C	-1.210076	-0.096803	0.836539
C51	C	-0.876742	0.236531	1.169872
C52	C	-0.774368	0.000022	0.544800
C53	C	-0.441035	0.333356	0.878133
C54	C	-0.107702	0.666689	1.211466
C55	C	-0.916381	0.000022	0.578219
C56	C	-0.583048	0.333356	0.911552
C57	C	-0.249715	0.666689	1.244885
C58	C	-1.501829	0.000017	0.272261
C59	C	-1.168496	0.333351	0.605595
C60	C	-0.835163	0.666684	0.938928
C61	C	-1.468413	0.000021	0.130248
C62	C	-1.135079	0.333355	0.463581
C63	C	-0.801746	0.666688	0.796915
N64	N	-1.543447	0.318849	0.503218
N65	N	-1.210114	0.652182	0.836552
N66	N	-0.876780	0.985515	1.169885
C67	C	-1.560681	0.000024	0.076597
C68	C	-1.227348	0.333357	0.409930
C69	C	-0.894015	0.666691	0.743264
C70	C	-1.526146	0.000028	-0.070181
C71	C	-1.192813	0.333361	0.263152
C72	C	-0.859479	0.666695	0.596486
C73	C	-1.585012	0.000027	0.734159
C74	C	-1.251678	0.333360	1.067493
C75	C	-0.918345	0.666693	1.400826
C76	C	-1.618428	0.000031	0.876173
C77	C	-1.285095	0.333364	1.209506
C78	C	-0.951762	0.666697	1.542839
H79	H	-1.107737	0.000096	0.323638
H80	H	-0.774403	0.333429	0.656971
H81	H	-0.441070	0.666762	0.990305
Br82	Br	-1.221349	0.000009	0.694781
Br83	Br	-0.888015	0.333342	1.028115
Br84	Br	-0.554682	0.666676	1.361448
Br85	Br	-0.865493	0.000002	0.311666
Br86	Br	-0.532160	0.333336	0.644999
Br87	Br	-0.198827	0.666669	0.978333
Br88	Br	-1.792720	0.000043	-0.019291
Br89	Br	-1.459387	0.333376	0.314042
Br90	Br	-1.126053	0.666710	0.647375
H91	H	-0.979111	0.000018	0.682782
H92	H	-0.645778	0.333351	1.016115
H93	H	-0.312444	0.666684	1.349448
Br94	Br	-1.734965	0.000038	0.181141
Br95	Br	-1.401632	0.333372	0.514474
Br96	Br	-1.068298	0.666705	0.847808
Br97	Br	-1.351856	0.000044	-0.174720
Br98	Br	-1.018522	0.333378	0.158613
Br99	Br	-0.685189	0.666711	0.491946
Br100	Br	-1.294129	0.000038	0.025704
Br101	Br	-0.960796	0.333371	0.359038
Br102	Br	-0.627462	0.666704	0.692371
