data_functionalizedCrystal
_audit_creation_method	'MofGen! by Chris Wilmer'
_symmetry_space_group_name_H-M	'P1'
_symmetry_Int_Tables_number	1
_symmetry_cell_setting	triclinic
loop_
_symmetry_equiv_pos_as_xyz
  x,y,z
_cell_length_a	12.645331
_cell_length_b	12.645330
_cell_length_c	13.032268
_cell_angle_alpha	97.151313
_cell_angle_beta	97.161946
_cell_angle_gamma	90.017906
loop_
_atom_site_label
_atom_site_type_symbol
_atom_site_fract_x
_atom_site_fract_y
_atom_site_fract_z
Zn1	Zn	1.544545	-0.498121	-0.590898
Zn2	Zn	1.566955	-0.652907	-0.416167
Zn3	Zn	1.389787	-0.475659	-0.416171
Zn4	Zn	1.367247	-0.675338	-0.590854
O5	O	1.467133	-0.575506	-0.503523
O6	O	1.695862	-0.518667	-0.567737
O7	O	1.562266	-0.610607	-0.269937
O8	O	1.410371	-0.330294	-0.439369
O9	O	1.712327	-0.632387	-0.439363
O10	O	1.524070	-0.346797	-0.567740
O11	O	1.432101	-0.480384	-0.269940
O12	O	1.238452	-0.502134	-0.439326
O13	O	1.371953	-0.670617	-0.737091
O14	O	1.221892	-0.648837	-0.567665
O15	O	1.502214	-0.540417	-0.737123
O16	O	1.540409	-0.804227	-0.439320
O17	O	1.393684	-0.820707	-0.567661
C18	C	1.191708	-0.575483	-0.503492
C19	C	1.073876	-0.575502	-0.503503
C20	C	1.039360	-0.483100	-0.422897
C21	C	0.916765	-0.482833	-0.423173
C22	C	0.891824	-0.559915	-0.613814
C23	C	1.014487	-0.559237	-0.613311
C24	C	1.032357	-0.683868	-0.474839
C25	C	0.910057	-0.682975	-0.472448
C26	C	1.467058	-0.850934	-0.503508
C27	C	1.467118	-0.968768	-0.503537
C28	C	1.375119	-1.146775	-0.584525
C29	C	1.374736	-1.024182	-0.584265
C30	C	1.451072	-0.999180	-0.393409
C31	C	1.450511	-1.121841	-0.393900
C32	C	1.575777	-1.139494	-0.531783
C33	C	1.574779	-1.017197	-0.534191
C34	C	1.743635	-0.575530	-0.503554
C35	C	1.861463	-0.575541	-0.503568
C36	C	1.432069	-0.610525	-0.776083
C37	C	1.417127	-0.625447	-0.892232
C38	C	1.467235	-0.299006	-0.503560
C39	C	1.467278	-0.181178	-0.503576
C40	C	1.474915	-0.567680	-0.944031
C41	C	1.459473	-0.583102	-1.064078
C42	C	1.502122	-0.540547	-0.232022
C43	C	1.517270	-0.525326	-0.115874
H44	H	1.073415	-0.700918	-0.395784
H45	H	1.398555	-0.643973	-1.108600
Br46	Br	1.315598	-0.726904	-0.966435
H47	H	1.371620	-1.147456	-0.370005
H48	H	0.872446	-0.754334	-0.526845
Br49	Br	0.884082	-0.496288	-0.286943
H50	H	1.515492	-1.143466	-0.331530
H51	H	1.516696	-0.962042	-0.331447
H52	H	1.053827	-0.752533	-0.533550
H53	H	1.535819	-0.506802	-0.899505
H54	H	1.079337	-0.490931	-0.340886
H55	H	1.578175	-0.464441	-1.071353
Br56	Br	0.863813	-0.348537	-0.454902
H57	H	1.383306	-1.186738	-0.666452
H58	H	1.294013	-0.992541	-0.565578
Br59	Br	1.689930	-1.175177	-0.433533
H60	H	1.067764	-0.402957	-0.441683
H61	H	1.373091	-0.965436	-0.369082
Br62	Br	1.050667	-0.667855	-0.716873
H63	H	1.039981	-0.480460	-0.637540
H64	H	1.593189	-1.180504	-0.610724
H65	H	1.383130	-1.004544	-0.665924
Br66	Br	0.830065	-0.669706	-0.716702
H67	H	0.857964	-0.482103	-0.638477
H68	H	1.294885	-1.175301	-0.566077
Br69	Br	0.878927	-0.703062	-0.337215
Br70	Br	1.595383	-0.986013	-0.669279
Br71	Br	1.693361	-0.954370	-0.443088
