data_functionalizedCrystal
_audit_creation_method	'MofGen! by Chris Wilmer'
_symmetry_space_group_name_H-M	'P1'
_symmetry_Int_Tables_number	1
_symmetry_cell_setting	triclinic
loop_
_symmetry_equiv_pos_as_xyz
  x,y,z
_cell_length_a	17.699083
_cell_length_b	19.188930
_cell_length_c	16.776229
_cell_angle_alpha	89.988225
_cell_angle_beta	89.998886
_cell_angle_gamma	83.213899
loop_
_atom_site_label
_atom_site_type_symbol
_atom_site_fract_x
_atom_site_fract_y
_atom_site_fract_z
O1	O	1.003962	0.088294	-0.066185
O2	O	0.783569	0.099782	-0.066213
O3	O	0.900126	-0.007611	-0.066183
O4	O	0.887405	0.195686	-0.066215
O5	O	0.900110	-0.007617	0.066394
O6	O	0.783553	0.099775	0.066364
O7	O	1.003947	0.088288	0.066391
Zn8	Zn	0.893748	0.094030	0.087427
Zn9	Zn	0.893768	0.094039	-0.087249
O10	O	0.887390	0.195680	0.066361
C11	C	0.755365	0.099367	0.000072
C12	C	0.671348	0.098132	0.000062
C13	C	0.899706	-0.033625	0.000108
C14	C	0.898469	-0.111131	0.000114
C15	C	0.622644	0.161169	0.000053
C16	C	0.543702	0.160004	0.000063
C17	C	0.513466	0.095802	0.000078
C18	C	0.562176	0.032761	0.000090
C19	C	0.641117	0.033926	0.000085
C20	C	0.243819	0.028060	0.000111
C21	C	0.164873	0.026900	0.000113
C22	C	0.146405	0.154139	0.000088
C23	C	0.225345	0.155304	0.000084
C24	C	0.274049	0.092263	0.000100
C25	C	0.359646	0.093526	0.000090
C26	C	0.427870	0.094538	0.000082
C27	C	0.966861	-0.155978	0.000127
C28	C	0.965699	-0.228804	0.000114
C29	C	0.896142	-0.256778	0.000105
C30	C	0.827741	-0.211921	0.000088
C31	C	0.828905	-0.139098	0.000093
N32	N	0.842969	-0.364845	0.045216
N33	N	0.841868	-0.434025	0.045213
C34	C	0.892632	-0.476191	0.000088
N35	N	0.944550	-0.446565	-0.045024
N36	N	0.945653	-0.377379	-0.045018
C37	C	0.894873	-0.335742	0.000099
C38	C	0.959769	-0.600004	0.000085
C39	C	0.958604	-0.672830	0.000067
C40	C	0.820644	-0.655946	0.000049
C41	C	0.821811	-0.583121	0.000059
C42	C	0.891375	-0.555155	0.000081
C43	C	1.032151	0.088703	0.000104
C44	C	1.116167	0.089938	0.000109
C45	C	0.887810	0.221695	0.000069
C46	C	0.889046	0.299201	0.000057
N47	N	0.893739	0.094024	0.206638
N48	N	0.893782	0.094040	-0.206460
C49	C	0.945366	0.046490	0.248368
C50	C	0.945370	0.046490	0.331821
C51	C	0.893751	0.094027	0.373541
C52	C	0.842118	0.141563	0.331805
C53	C	0.842111	0.141559	0.248354
C54	C	0.842146	0.141576	0.668352
C55	C	0.842158	0.141578	0.751808
C56	C	0.945405	0.046507	0.751818
C57	C	0.945398	0.046503	0.668368
C58	C	0.893763	0.094037	0.626639
C59	C	0.893758	0.094036	0.536150
C60	C	0.893759	0.094031	0.464028
H61	H	0.504050	0.211335	0.000054
O62	O	0.135465	-0.035452	-0.000009
C63	C	0.090340	-0.039926	-0.068659
H64	H	0.108892	-0.003475	-0.116661
H65	H	0.097609	-0.096209	-0.091691
H66	H	0.028032	-0.023711	-0.053140
H67	H	0.249959	0.207584	0.000068
H68	H	0.647256	0.213450	0.000040
H69	H	0.283465	-0.023272	0.000125
O70	O	0.762486	-0.095501	-0.000056
C71	C	0.759050	-0.052841	-0.068704
H72	H	0.797849	-0.079565	-0.116692
H73	H	0.698060	-0.044542	-0.091761
H74	H	0.778463	0.000078	-0.053170
O75	O	0.532681	-0.029545	0.000070
C76	C	0.452563	-0.017058	0.000090
H77	H	0.433842	0.037460	-0.025019
H78	H	0.428460	-0.058131	-0.038391
H79	H	0.430600	-0.020407	0.063695
H80	H	0.106741	0.205470	0.000079
H81	H	0.680771	-0.017406	0.000093
O82	O	0.791934	0.187780	0.792213
C83	C	0.746368	0.229744	0.737489
H84	H	0.745604	0.201118	0.678009
H85	H	0.685895	0.240458	0.761610
H86	H	0.770757	0.281587	0.728596
H87	H	0.987409	0.007784	0.365797
H88	H	0.800070	0.180265	0.214378
H89	H	1.023506	-0.133213	0.000142
O90	O	0.755444	-0.539453	0.000020
C91	C	0.771385	-0.469179	0.000047
H92	H	0.830828	-0.466482	-0.025043
H93	H	0.727781	-0.436103	-0.038448
H94	H	0.768438	-0.448127	0.063651
H95	H	0.764009	-0.678722	0.000038
H96	H	0.987434	0.007797	0.634402
H97	H	1.021394	-0.265325	0.000121
O98	O	0.995486	0.000352	0.792479
C99	C	0.984439	0.010554	0.875081
H100	H	0.924180	0.036717	0.886481
H101	H	0.993043	-0.042332	0.906808
H102	H	1.027158	0.045526	0.898749
H103	H	0.771107	-0.234702	0.000079
H104	H	1.016412	-0.577233	0.000099
O105	O	1.025114	-0.716298	0.000114
C106	C	1.086757	-0.675994	0.000115
H107	H	1.067360	-0.621614	0.025217
H108	H	1.134655	-0.702948	0.038615
H109	H	1.108104	-0.670828	-0.063482
H110	H	0.987404	0.007783	0.214405
O111	O	0.792101	0.187788	0.627740
C112	C	0.832486	0.230826	0.579470
H113	H	0.891796	0.202943	0.566959
H114	H	0.800850	0.241919	0.520793
H115	H	0.837468	0.282418	0.611624
H116	H	0.800085	0.180266	0.365778
