data_functionalizedCrystal
_audit_creation_method	'MofGen! by Chris Wilmer'
_symmetry_space_group_name_H-M	'P1'
_symmetry_Int_Tables_number	1
_symmetry_cell_setting	triclinic
loop_
_symmetry_equiv_pos_as_xyz
  x,y,z
_cell_length_a	10.908878
_cell_length_b	10.654545
_cell_length_c	10.065875
_cell_angle_alpha	98.876977
_cell_angle_beta	83.443480
_cell_angle_gamma	72.285109
loop_
_atom_site_label
_atom_site_type_symbol
_atom_site_fract_x
_atom_site_fract_y
_atom_site_fract_z
O1	O	1.720715	-0.215942	-0.113475
O2	O	1.347724	-0.118057	-0.113479
O3	O	1.542795	-0.351603	-0.113476
O4	O	1.525645	0.017603	-0.113478
O5	O	1.505599	-0.306922	0.113512
O6	O	1.310528	-0.073376	0.113509
O7	O	1.683519	-0.171261	0.113513
Zn8	Zn	1.491118	-0.115224	0.149550
Zn9	Zn	1.540126	-0.174094	-0.149516
O10	O	1.488449	0.062285	0.113510
C11	C	1.281366	-0.086569	0.000014
C12	C	1.139057	-0.059326	0.000012
C13	C	1.089162	-0.158730	0.000012
C14	C	0.942078	-0.130576	0.000010
C15	C	1.522938	-0.375787	0.000015
C16	C	1.519170	-0.514412	0.000007
C17	C	1.559738	-0.563137	-0.247462
C18	C	1.578256	-0.652626	-0.371196
C19	C	1.574716	-0.782875	-0.371198
C20	C	1.552652	-0.823635	-0.247452
C21	C	1.534134	-0.734147	-0.123718
C22	C	1.537680	-0.603898	-0.123730
C23	C	1.493557	-0.685420	0.123748
C24	C	1.497106	-0.555173	0.123753
C25	C	1.471493	-0.726180	0.247494
C26	C	1.452984	-0.636694	0.371231
C27	C	1.456526	-0.506438	0.371228
C28	C	1.478588	-0.465684	0.247487
C29	C	1.749878	-0.202750	0.000017
C30	C	1.892189	-0.229994	0.000010
C31	C	1.508307	0.086468	0.000015
C32	C	1.512075	0.225092	0.000014
N33	N	1.457681	-0.075050	0.353655
N34	N	1.573572	-0.214280	-0.353622
C35	C	1.528484	-0.160122	0.421435
C36	C	1.502760	-0.129196	0.578602
H37	H	0.958359	-0.335951	0.000001
H38	H	1.378016	0.020676	0.411980
O39	O	1.168086	-0.285198	-0.000232
C40	C	1.252837	-0.516841	-0.117792
C41	C	1.163438	-0.373674	-0.117699
H42	H	1.249088	-0.588419	-0.212739
H43	H	1.357435	-0.517121	-0.117882
H44	H	1.218098	-0.550988	-0.022755
H45	H	1.198059	-0.339439	-0.212720
H46	H	1.058857	-0.373475	-0.117538
H47	H	1.608140	-0.255856	0.363112
H48	H	1.072884	0.046619	0.000005
H49	H	1.423089	-0.033464	0.636922
O50	O	1.599650	-0.613229	-0.491520
C51	C	1.639608	-0.675338	-0.736981
C52	C	1.615364	-0.720113	-0.600815
H53	H	1.652346	-0.761738	-0.825381
H54	H	1.552737	-0.585432	-0.743278
H55	H	1.731788	-0.645712	-0.743081
H56	H	1.523228	-0.749808	-0.594623
H57	H	1.702306	-0.809972	-0.594575
O58	O	1.438554	-0.419696	0.491548
C59	C	1.397815	-0.385087	0.737009
C60	C	1.418187	-0.483464	0.600844
H61	H	1.381316	-0.436596	0.825409
H62	H	1.487996	-0.353094	0.743320
H63	H	1.308952	-0.292692	0.743095
H64	H	1.507003	-0.575924	0.594666
H65	H	1.327940	-0.515347	0.594590
O66	O	1.668319	-0.328712	0.576807
C67	C	1.719377	-0.537360	0.415825
C68	C	1.612051	-0.407698	0.494413
H69	H	1.673921	-0.601269	0.349213
H70	H	1.795158	-0.510392	0.348678
H71	H	1.768504	-0.596454	0.491493
H72	H	1.562823	-0.348543	0.418843
H73	H	1.536355	-0.434758	0.561580
H74	H	0.875909	-0.024624	0.000003
H75	H	1.562637	-0.457089	-0.247473
H76	H	1.589783	-0.855734	-0.471953
H77	H	1.549755	-0.929688	-0.247464
H78	H	1.468604	-0.832235	0.247484
H79	H	1.435011	-0.669890	0.471975
H80	H	1.481480	-0.359634	0.247472
