data_functionalizedCrystal
_audit_creation_method	'MofGen! by Chris Wilmer'
_symmetry_space_group_name_H-M	'P1'
_symmetry_Int_Tables_number	1
_symmetry_cell_setting	triclinic
loop_
_symmetry_equiv_pos_as_xyz
  x,y,z
_cell_length_a	18.101395
_cell_length_b	18.101398
_cell_length_c	16.120256
_cell_angle_alpha	87.130576
_cell_angle_beta	92.874436
_cell_angle_gamma	89.973721
loop_
_atom_site_label
_atom_site_type_symbol
_atom_site_fract_x
_atom_site_fract_y
_atom_site_fract_z
Zn1	Zn	-0.316196	-1.110882	-0.471592
Zn2	Zn	-0.433757	-1.117056	-0.332184
Zn3	Zn	-0.309923	-0.993320	-0.332174
Zn4	Zn	-0.439987	-0.986994	-0.471527
O5	O	-0.374966	-1.052063	-0.401869
O6	O	-0.331809	-1.215332	-0.453131
O7	O	-0.412097	-1.105873	-0.215520
O8	O	-0.207123	-1.008978	-0.350691
O9	O	-0.418180	-1.219868	-0.350708
O10	O	-0.211732	-1.095350	-0.453121
O11	O	-0.321117	-1.014965	-0.215513
O12	O	-0.327158	-0.888849	-0.350628
O13	O	-0.428799	-0.998197	-0.588198
O14	O	-0.422716	-0.884202	-0.453010
O15	O	-0.337850	-1.089216	-0.588246
O16	O	-0.538215	-1.099740	-0.350645
O17	O	-0.542792	-1.004184	-0.453020
C18	C	-0.567375	-1.051965	-0.401845
C19	C	-0.649690	-1.051989	-0.401862
C20	C	-0.374933	-0.859655	-0.401811
C21	C	-0.374937	-0.777341	-0.401806
C22	C	-0.384719	-1.042312	-0.619317
C23	C	-0.388876	-1.038157	-0.711980
C24	C	-0.948783	-1.052150	-0.401907
C25	C	-0.920376	-0.992154	-0.466478
C26	C	-0.834749	-0.991892	-0.466276
C27	C	-0.800400	-1.052070	-0.401886
C28	C	-0.827586	-1.034898	-0.314019
C29	C	-0.913249	-1.034513	-0.314406
C30	C	-0.918149	-1.129477	-0.424429
C31	C	-0.832585	-1.128930	-0.426355
C32	C	-0.716539	-1.052027	-0.401868
C33	C	-1.032643	-1.052192	-0.401919
C34	C	-0.181806	-1.052181	-0.401912
C35	C	-0.099492	-1.052231	-0.401930
C36	C	-0.374947	-0.626631	-0.401834
C37	C	-0.314746	-0.598172	-0.337523
C38	C	-0.314536	-0.512545	-0.337729
C39	C	-0.374956	-0.478248	-0.401860
C40	C	-0.358092	-0.505426	-0.489820
C41	C	-0.357654	-0.591088	-0.489433
C42	C	-0.452195	-0.596058	-0.378958
C43	C	-0.451691	-0.510493	-0.377036
C44	C	-0.374963	-0.394387	-0.401880
C45	C	-0.374939	-0.710491	-0.401820
C46	C	-0.374987	-0.245223	-0.401911
C47	C	-0.374966	-0.327538	-0.401887
C48	C	-0.353272	-1.073730	-0.922948
C49	C	-0.396433	-1.030546	-0.881632
C50	C	-0.392227	-1.034782	-0.787229
C51	C	-0.357477	-1.069495	-1.017359
C52	C	-0.365197	-1.061818	-0.185267
C53	C	-0.360832	-1.066117	-0.092605
H54	H	-0.816624	-1.002177	-0.531428
Cl55	Cl	-0.805652	-1.149037	-0.526193
Cl56	Cl	-0.422764	-0.619675	-0.565973
Cl57	Cl	-0.477175	-0.633727	-0.281585
Cl58	Cl	-0.226043	-0.479891	-0.361177
Cl59	Cl	-0.458364	-0.968555	-0.936480
Cl60	Cl	-0.802165	-0.903274	-0.443246
Cl61	Cl	-0.952686	-0.904071	-0.443753
H62	H	-0.931725	-1.076530	-0.264654
H63	H	-0.942539	-1.145905	-0.487410
H64	H	-0.943873	-1.002299	-0.531841
Cl65	Cl	-0.942861	-0.947423	-0.284955
Cl66	Cl	-0.792702	-1.100509	-0.237710
Cl67	Cl	-0.291338	-1.135709	-0.868099
Cl68	Cl	-0.423988	-0.470600	-0.565848
H69	H	-0.936281	-1.174128	-0.377399
Cl70	Cl	-0.796491	-1.201108	-0.359044
Cl71	Cl	-0.793217	-0.948766	-0.284038
Cl72	Cl	-0.330051	-0.484565	-0.237046
H73	H	-0.257747	-0.619044	-0.352516
Cl74	Cl	-0.330006	-0.634463	-0.236515
H75	H	-0.301315	-0.610222	-0.508769
H76	H	-0.302400	-0.483120	-0.509494
Cl77	Cl	-0.471451	-0.483564	-0.277091
H78	H	-0.498602	-0.487151	-0.420428
H79	H	-0.496995	-0.614222	-0.425799
