data_functionalizedCrystal
_audit_creation_method	'MofGen! by Chris Wilmer'
_symmetry_space_group_name_H-M	'P1'
_symmetry_Int_Tables_number	1
_symmetry_cell_setting	triclinic
loop_
_symmetry_equiv_pos_as_xyz
  x,y,z
_cell_length_a	11.026607
_cell_length_b	16.992694
_cell_length_c	16.053802
_cell_angle_alpha	92.750953
_cell_angle_beta	93.134017
_cell_angle_gamma	80.372880
loop_
_atom_site_label
_atom_site_type_symbol
_atom_site_fract_x
_atom_site_fract_y
_atom_site_fract_z
O1	O	0.256038	-1.079834	-0.069317
O2	O	0.756038	-0.579834	0.430683
O3	O	0.253175	-0.851145	-0.069342
O4	O	0.753175	-0.351145	0.430658
O5	O	0.076115	-0.946536	-0.069328
O6	O	0.576115	-0.446536	0.430672
O7	O	0.433098	-0.984443	-0.069330
O8	O	0.933098	-0.484443	0.430670
O9	O	0.085818	-0.941279	0.069530
O10	O	0.585818	-0.441279	0.569530
O11	O	0.262878	-0.845889	0.069516
O12	O	0.762878	-0.345889	0.569516
O13	O	0.265741	-1.074577	0.069541
O14	O	0.765741	-0.574577	0.569541
Zn15	Zn	0.265850	-0.959398	0.091575
Zn16	Zn	0.765850	-0.459398	0.591575
Zn17	Zn	0.253066	-0.966324	-0.091376
Zn18	Zn	0.753066	-0.466324	0.408624
O19	O	0.442801	-0.979186	0.069528
O20	O	0.942801	-0.479186	0.569528
C21	C	0.254344	-0.818785	0.000084
C22	C	0.754344	-0.318785	0.500084
C23	C	0.243357	-0.730190	0.000075
C24	C	0.743357	-0.230190	0.500075
C25	C	0.035078	-0.936914	0.000099
C26	C	0.535078	-0.436914	0.500099
C27	C	-0.101658	-0.916068	0.000094
C28	C	0.398342	-0.416068	0.500094
C29	C	0.264572	-1.106937	0.000113
C30	C	0.764572	-0.606937	0.500113
C31	C	0.275558	-1.195532	0.000117
C32	C	0.775558	-0.695532	0.500117
C33	C	-0.169881	-0.973629	0.000099
C34	C	0.330119	-0.473629	0.500099
C35	C	-0.311205	-0.952085	0.000093
C36	C	0.188795	-0.452085	0.500093
C37	C	0.483838	-0.988808	0.000099
C38	C	0.983838	-0.488808	0.500099
C39	C	0.620574	-1.009655	0.000098
C40	C	1.120574	-0.509655	0.500098
N41	N	0.274575	-0.954677	0.216435
N42	N	0.774575	-0.454677	0.716435
C43	C	0.349355	-0.694911	0.000075
C44	C	0.849355	-0.194911	0.500075
C45	C	0.339026	-0.611666	0.000086
C46	C	0.839026	-0.111666	0.500086
C47	C	0.222698	-0.563702	0.000092
C48	C	0.722698	-0.063702	0.500092
C49	C	0.116693	-0.598986	0.000094
C50	C	0.616693	-0.098986	0.500094
C51	C	0.127024	-0.682229	0.000089
C52	C	0.627024	-0.182229	0.500089
C53	C	0.179883	-0.314060	0.000114
C54	C	0.679883	0.185940	0.500114
C55	C	0.169561	-0.230811	0.000117
C56	C	0.669561	0.269189	0.500117
C57	C	0.391895	-0.243497	0.000111
C58	C	0.891895	0.256503	0.500111
C59	C	0.402215	-0.326741	0.000100
C60	C	0.902215	0.173259	0.500100
C61	C	0.296210	-0.362018	0.000107
C62	C	0.796210	0.137982	0.500107
N63	N	0.212138	-0.478612	0.000101
N64	N	0.712138	0.021388	0.500101
N65	N	0.306772	-0.447107	0.000104
N66	N	0.806772	0.052893	0.500104
N67	N	0.244332	-0.971050	-0.216236
N68	N	0.744332	-0.471050	0.283764
C69	C	0.199266	-0.995289	0.260135
C70	C	0.699266	-0.495289	0.760135
C71	C	0.205382	-0.991996	0.347541
C72	C	0.705382	-0.491996	0.847541
C73	C	0.286813	-0.948095	0.391246
C74	C	0.786813	-0.448095	0.891246
C75	C	0.362124	-0.907478	0.347540
C76	C	0.862124	-0.407478	0.847540
C77	C	0.356002	-0.910767	0.260136
C78	C	0.856002	-0.410767	0.760136
C79	C	0.313521	-0.933722	0.652654
C80	C	0.813521	-0.433722	1.152654
C81	C	0.319641	-0.930438	0.740065
C82	C	0.819641	-0.430438	1.240065
C83	C	0.162896	-1.014955	0.740059
C84	C	0.662896	-0.514955	1.240059
C85	C	0.156786	-1.018244	0.652653
C86	C	0.656786	-0.518244	1.152653
C87	C	0.232093	-0.977624	0.608955
C88	C	0.732093	-0.477624	1.108955
N89	N	0.293068	-0.944729	0.480589
N90	N	0.793068	-0.444729	0.980589
N91	N	0.225830	-0.980985	0.519613
N92	N	0.725830	-0.480985	1.019613
H93	H	-0.123663	-1.038860	0.000111
H94	H	0.376337	-0.538860	0.500111
C95	C	-0.373624	-0.863958	0.000083
C96	C	0.126376	-0.363958	0.500083
H97	H	-0.460421	-0.861038	0.000086
H98	H	0.039579	-0.361038	0.500086
H99	H	-0.352865	-0.840067	-0.048341
H100	H	0.147135	-0.340067	0.451659
H101	H	-0.346108	-0.836404	0.048511
H102	H	0.153892	-0.336404	0.548511
C103	C	0.122554	-1.036678	0.395607
C104	C	0.622554	-0.536678	0.895607
H105	H	0.073195	-1.063305	0.357060
H106	H	0.573195	-0.563305	0.857060
H107	H	0.070919	-0.999575	0.429714
H108	H	0.570919	-0.499575	0.929714
H109	H	0.172459	-1.074737	0.429693
H110	H	0.672459	-0.574737	0.929693
H111	H	-0.333220	-1.074893	0.000043
H112	H	0.166780	-0.574893	0.500043
C113	C	-0.164083	-0.827945	0.000083
C114	C	0.335917	-0.327945	0.500083
H115	H	-0.250879	-0.825025	0.000087
H116	H	0.249121	-0.325025	0.500087
H117	H	-0.143324	-0.804054	-0.048341
H118	H	0.356676	-0.304054	0.451659
H119	H	-0.136566	-0.800391	0.048511
H120	H	0.363434	-0.300391	0.548511
H121	H	0.101583	-1.048025	0.775646
H122	H	0.601583	-0.548025	1.275646
C123	C	0.477316	-0.747665	0.000068
C124	C	0.977316	-0.247665	0.500068
H125	H	0.538964	-0.714728	0.000077
H126	H	1.038964	-0.214728	0.500077
H127	H	0.482587	-0.782228	-0.048357
H128	H	0.982587	-0.282228	0.451643
H129	H	0.489352	-0.778575	0.048495
H130	H	0.989352	-0.278575	0.548495
C131	C	0.455624	-0.572863	0.000083
C132	C	0.955624	-0.072863	0.500083
H133	H	0.526382	-0.613351	0.000069
H134	H	1.026382	-0.113351	0.500069
H135	H	0.459607	-0.538829	0.048509
H136	H	0.959607	-0.038829	0.548509
H137	H	0.452826	-0.542478	-0.048343
H138	H	0.952826	-0.042478	0.451657
C139	C	0.530176	-0.379496	0.000106
C140	C	1.030176	0.120504	0.500106
H141	H	0.591827	-0.346562	0.000117
H142	H	1.091827	0.153438	0.500117
H143	H	0.535450	-0.414062	-0.048316
H144	H	1.035450	0.085938	0.451684
H145	H	0.542202	-0.410403	0.048536
H146	H	1.042202	0.089597	0.548536
H147	H	0.478198	-0.214765	0.000107
H148	H	0.978198	0.285235	0.500107
H149	H	0.132962	-1.031042	0.224556
H150	H	0.632962	-0.531042	0.724556
H151	H	0.074828	-0.191760	0.000121
H152	H	0.574828	0.308240	0.500121
H153	H	0.093566	-0.342772	0.000121
H154	H	0.593566	0.157228	0.500121
H155	H	0.090478	-1.053992	0.617070
H156	H	0.590478	-0.553992	1.117070
C157	C	-0.011265	-0.546228	0.000099
C158	C	0.488735	-0.046228	0.500099
H159	H	-0.002239	-0.491598	0.000093
H160	H	0.497761	0.008402	0.500093
H161	H	-0.051866	-0.555437	0.048521
H162	H	0.448134	-0.055437	0.548521
H163	H	-0.058628	-0.559093	-0.048331
H164	H	0.441372	-0.059093	0.451669
C165	C	0.010426	-0.721037	0.000080
C166	C	0.510426	-0.221037	0.500080
H167	H	-0.060335	-0.680550	0.000075
H168	H	0.439665	-0.180550	0.500075
H169	H	0.013215	-0.751423	0.048499
H170	H	0.513215	-0.251423	0.548499
H171	H	0.006454	-0.755070	-0.048353
H172	H	0.506454	-0.255070	0.451647
C173	C	0.409149	-0.882093	0.788139
C174	C	0.909149	-0.382093	1.288139
H175	H	0.453095	-0.858352	0.749596
H176	H	0.953095	-0.358352	1.249596
H177	H	0.465578	-0.916600	0.822249
H178	H	0.965578	-0.416600	1.322249
H179	H	0.363963	-0.841478	0.822222
H180	H	0.863963	-0.341478	1.322222
C181	C	0.396367	-0.889050	0.604597
C182	C	0.896367	-0.389050	1.104597
H183	H	0.445749	-0.862442	0.643147
H184	H	0.945749	-0.362442	1.143147
H185	H	0.346486	-0.850989	0.570508
H186	H	0.846486	-0.350989	1.070508
H187	H	0.448000	-0.926166	0.570493
H188	H	0.948000	-0.426166	1.070493
C189	C	0.451698	-0.859189	0.395614
C190	C	0.951698	-0.359189	0.895614
H191	H	0.444570	-0.863053	0.453928
H192	H	0.944570	-0.363053	0.953928
H193	H	0.432144	-0.804781	0.381300
H194	H	0.932144	-0.304781	0.881300
H195	H	0.533657	-0.879958	0.381278
H196	H	1.033657	-0.379958	0.881278
H197	H	0.417324	-0.877695	0.224556
H198	H	0.917324	-0.377695	0.724556
