data_functionalizedCrystal
_audit_creation_method	'MofGen! by Chris Wilmer'
_symmetry_space_group_name_H-M	'P1'
_symmetry_Int_Tables_number	1
_symmetry_cell_setting	triclinic
loop_
_symmetry_equiv_pos_as_xyz
  x,y,z
_cell_length_a	15.944545
_cell_length_b	19.188924
_cell_length_c	14.421503
_cell_angle_alpha	90.002214
_cell_angle_beta	89.995153
_cell_angle_gamma	83.319068
loop_
_atom_site_label
_atom_site_type_symbol
_atom_site_fract_x
_atom_site_fract_y
_atom_site_fract_z
O1	O	1.114193	0.090018	-0.077056
O2	O	1.447526	0.423351	0.256277
O3	O	1.780860	0.756684	0.589611
O4	O	0.869601	0.101124	-0.077072
O5	O	1.202934	0.434458	0.256262
O6	O	1.536267	0.767791	0.589595
O7	O	0.998958	-0.006067	-0.077052
O8	O	1.332292	0.327266	0.256281
O9	O	1.665625	0.660600	0.589614
O10	O	0.984836	0.197209	-0.077075
O11	O	1.318169	0.530542	0.256258
O12	O	1.651502	0.863875	0.589592
O13	O	0.998937	-0.006051	0.077171
O14	O	1.332270	0.327282	0.410504
O15	O	1.665604	0.660616	0.743838
O16	O	0.869579	0.101140	0.077152
O17	O	1.202913	0.434474	0.410485
O18	O	1.536246	0.767807	0.743819
O19	O	1.114172	0.090034	0.077167
O20	O	1.447505	0.423367	0.410501
O21	O	1.780838	0.756700	0.743834
Cu22	Cu	0.991874	0.095588	0.091242
Cu23	Cu	1.325207	0.428922	0.424575
Cu24	Cu	1.658540	0.762255	0.757908
Cu25	Cu	0.991899	0.095570	-0.091146
Cu26	Cu	1.325232	0.428903	0.242188
Cu27	Cu	1.658566	0.762236	0.575521
O28	O	0.984814	0.197225	0.077148
O29	O	1.318147	0.530558	0.410482
O30	O	1.651481	0.863891	0.743815
C31	C	0.838298	0.100672	0.000038
C32	C	1.171631	0.434005	0.333372
C33	C	1.504964	0.767339	0.666705
C34	C	0.745057	0.099292	0.000033
C35	C	1.078390	0.432625	0.333366
C36	C	1.411723	0.765959	0.666699
C37	C	0.474690	0.028726	0.000050
C38	C	0.808023	0.362060	0.333384
C39	C	1.141357	0.695393	0.666717
C40	C	0.525133	0.062755	0.076089
C41	C	0.858466	0.396089	0.409423
C42	C	1.191800	0.729422	0.742756
C43	C	0.409431	0.094371	0.000049
C44	C	0.742765	0.427704	0.333383
C45	C	1.076098	0.761037	0.666716
C46	C	0.525135	0.062757	-0.075963
C47	C	0.858468	0.396090	0.257370
C48	C	1.191801	0.729424	0.590704
C49	C	0.574336	0.096785	0.000040
C50	C	0.907669	0.430118	0.333373
C51	C	1.241003	0.763452	0.666706
C52	C	0.458646	0.128382	0.076151
C53	C	0.791979	0.461715	0.409484
C54	C	1.125313	0.795049	0.742817
C55	C	0.458644	0.128374	-0.075970
C56	C	0.791978	0.461708	0.257363
C57	C	1.125311	0.795041	0.590697
C58	C	0.509054	0.162451	0.000087
C59	C	0.842387	0.495785	0.333421
C60	C	1.175721	0.829118	0.666754
C61	C	0.314435	0.092978	0.000056
C62	C	0.647768	0.426311	0.333389
C63	C	0.981101	0.759644	0.666722
C64	C	0.669330	0.098183	0.000040
C65	C	1.002663	0.431516	0.333373
C66	C	1.335997	0.764850	0.666707
C67	C	0.998491	-0.032071	0.000060
C68	C	1.331825	0.301262	0.333393
C69	C	1.665158	0.634595	0.666727
C70	C	0.997121	-0.109579	0.000063
C71	C	1.330455	0.223754	0.333396
C72	C	1.663788	0.557087	0.666729
C73	C	0.996494	-0.145989	-0.084005
C74	C	1.329827	0.187345	0.249328
C75	C	1.663160	0.520678	0.582662
C76	C	0.995194	-0.218815	-0.084012
C77	C	1.328528	0.114519	0.249321
C78	C	1.661861	0.447852	0.582655
C79	C	0.994540	-0.255231	0.000053
C80	C	1.327873	0.078103	0.333386
C81	C	1.661207	0.411436	0.666720
C82	C	0.995163	-0.218812	0.084132
C83	C	1.328496	0.114521	0.417465
C84	C	1.661830	0.447855	0.750798
C85	C	0.996454	-0.145987	0.084136
C86	C	1.329787	0.187347	0.417470
C87	C	1.663120	0.520680	0.750803
N88	N	1.040304	-0.374770	0.062624
N89	N	1.373638	-0.041437	0.395957
N90	N	1.706971	0.291897	0.729290
N91	N	1.039080	-0.443951	0.062613
N92	N	1.372413	-0.110618	0.395947
N93	N	1.705747	0.222715	0.729280
C94	C	0.990649	-0.474650	0.000044
C95	C	1.323982	-0.141316	0.333377
C96	C	1.657316	0.192017	0.666711
N97	N	0.943500	-0.433554	-0.062529
N98	N	1.276833	-0.100221	0.270804
N99	N	1.610166	0.233112	0.604137
N100	N	0.944728	-0.364367	-0.062522
N101	N	1.278061	-0.031034	0.270812
N102	N	1.611394	0.302300	0.604145
C103	C	0.993140	-0.334198	0.000057
C104	C	1.326473	-0.000864	0.333391
C105	C	1.659806	0.332469	0.666724
C106	C	0.988612	-0.590025	-0.084037
C107	C	1.321945	-0.256692	0.249296
C108	C	1.655278	0.076642	0.582630
C109	C	0.987307	-0.662852	-0.084041
C110	C	1.320640	-0.329519	0.249293
C111	C	1.653974	0.003815	0.582626
C112	C	0.987284	-0.662849	0.084105
C113	C	1.320617	-0.329515	0.417439
C114	C	1.653951	0.003818	0.750772
C115	C	0.988580	-0.590022	0.084107
C116	C	1.321913	-0.256689	0.417440
C117	C	1.655247	0.076644	0.750773
C118	C	0.989248	-0.553615	0.000033
C119	C	1.322581	-0.220282	0.333366
C120	C	1.655914	0.113051	0.666699
C121	C	1.145475	0.090486	0.000056
C122	C	1.478808	0.423819	0.333389
C123	C	1.812141	0.757153	0.666722
C124	C	1.238716	0.091866	0.000055
C125	C	1.572049	0.425199	0.333388
C126	C	1.905382	0.758533	0.666722
C127	C	0.985281	0.223229	0.000034
C128	C	1.318615	0.556562	0.333367
C129	C	1.651948	0.889896	0.666700
C130	C	0.986651	0.300737	0.000025
C131	C	1.319985	0.634071	0.333359
C132	C	1.653318	0.967404	0.666692
N133	N	0.991862	0.095601	0.219523
N134	N	1.325195	0.428935	0.552856
N135	N	1.658529	0.762268	0.886189
N136	N	0.991917	0.095551	-0.219427
N137	N	1.325251	0.428884	0.113907
N138	N	1.658584	0.762218	0.447240
C139	C	0.932036	0.145144	0.469168
C140	C	1.265370	0.478477	0.802501
C141	C	1.598703	0.811811	1.135834
C142	C	1.007886	0.158698	0.530973
C143	C	1.341219	0.492031	0.864307
C144	C	1.674552	0.825364	1.197640
C145	C	0.991882	0.095585	0.408684
C146	C	1.325216	0.428918	0.742018
C147	C	1.658549	0.762251	1.075351
C148	C	0.916053	0.082047	0.530972
C149	C	1.249386	0.415381	0.864306
C150	C	1.582719	0.748714	1.197639
C151	C	0.991895	0.095570	0.591406
C152	C	1.325229	0.428903	0.924739
C153	C	1.658562	0.762237	1.258072
C154	C	1.067770	0.109170	0.469129
C155	C	1.401103	0.442503	0.802462
C156	C	1.734436	0.775836	1.135796
C157	C	0.975887	0.032492	0.469123
C158	C	1.309220	0.365825	0.802456
C159	C	1.642554	0.699158	1.135789
C160	C	1.051791	0.046018	0.530901
C161	C	1.385124	0.379352	0.864234
C162	C	1.718458	0.712685	1.197567
C163	C	0.991874	0.095595	0.303423
C164	C	1.325207	0.428928	0.636756
C165	C	1.658540	0.762261	0.970090
C166	C	0.991913	0.095559	0.696665
C167	C	1.325246	0.428893	1.029998
C168	C	1.658579	0.762226	1.363331
H169	H	0.554165	0.035016	-0.140244
H170	H	0.887499	0.368349	0.193089
H171	H	1.220832	0.701683	0.526423
Br172	Br	1.136240	-0.023851	0.575802
Br173	Br	1.469574	0.309483	0.909135
Br174	Br	1.802907	0.642816	1.242469
Br175	Br	0.989513	-0.540611	-0.198134
Br176	Br	1.322846	-0.207277	0.135200
Br177	Br	1.656180	0.126056	0.468533
H178	H	0.429723	0.156091	0.140504
H179	H	0.763056	0.489424	0.473838
H180	H	1.096390	0.822758	0.807171
H181	H	0.524332	0.219028	0.000126
H182	H	0.857666	0.552362	0.333459
H183	H	1.190999	0.885695	0.666792
Br184	Br	0.989428	-0.540606	0.198205
Br185	Br	1.322761	-0.207273	0.531538
Br186	Br	1.656095	0.126061	0.864871
Br187	Br	0.997301	-0.096570	0.198237
Br188	Br	1.330635	0.236763	0.531570
Br189	Br	1.663968	0.570097	0.864904
Br190	Br	0.997396	-0.096582	-0.198104
Br191	Br	1.330729	0.236752	0.135229
Br192	Br	1.664063	0.570085	0.468562
H193	H	0.851920	0.070604	0.558140
H194	H	1.185253	0.403937	0.891473
H195	H	1.518586	0.737271	1.224807
H196	H	0.994627	-0.248466	0.152578
H197	H	1.327961	0.084867	0.485911
H198	H	1.661294	0.418200	0.819245
Br199	Br	0.847769	0.215050	0.423984
Br200	Br	1.181102	0.548383	0.757317
Br201	Br	1.514435	0.881717	1.090651
H202	H	1.021427	0.212048	0.558141
H203	H	1.354760	0.545381	0.891474
H204	H	1.688094	0.878714	1.224807
H205	H	0.994678	-0.248464	-0.152472
H206	H	1.328011	0.084869	0.180861
H207	H	1.661345	0.418202	0.514195
H208	H	0.986792	-0.692495	-0.152501
H209	H	1.320125	-0.359161	0.180832
H210	H	1.653458	-0.025828	0.514165
Br211	Br	0.448952	-0.065498	0.000178
Br212	Br	0.782285	0.267836	0.333511
Br213	Br	1.115618	0.601169	0.666845
Br214	Br	1.174689	0.128345	0.424050
Br215	Br	1.508022	0.461679	0.757383
Br216	Br	1.841356	0.795012	1.090717
H217	H	0.429602	0.156067	-0.140263
H218	H	0.762936	0.489400	0.193070
H219	H	1.096269	0.822733	0.526404
Br220	Br	0.953279	-0.056402	0.423803
Br221	Br	1.286612	0.276931	0.757136
Br222	Br	1.619946	0.610265	1.090469
Br223	Br	0.573509	0.016563	0.183249
Br224	Br	0.906842	0.349896	0.516582
Br225	Br	1.240175	0.683230	0.849915
Br226	Br	0.986387	-0.712261	0.198196
Br227	Br	1.319721	-0.378928	0.531530
Br228	Br	1.653054	-0.045595	0.864863
