data_functionalizedCrystal
_audit_creation_method	'MofGen! by Chris Wilmer'
_symmetry_space_group_name_H-M	'P1'
_symmetry_Int_Tables_number	1
_symmetry_cell_setting	triclinic
loop_
_symmetry_equiv_pos_as_xyz
  x,y,z
_cell_length_a	10.654550
_cell_length_b	15.944545
_cell_length_c	9.130313
_cell_angle_alpha	90.002549
_cell_angle_beta	89.999890
_cell_angle_gamma	83.990538
loop_
_atom_site_label
_atom_site_type_symbol
_atom_site_fract_x
_atom_site_fract_y
_atom_site_fract_z
O1	O	0.161923	1.115460	-0.121701
O2	O	0.181900	0.871025	-0.121724
O3	O	-0.010901	0.998863	-0.121706
O4	O	0.354724	0.987622	-0.121718
O5	O	-0.010895	0.998861	0.121892
O6	O	0.181905	0.871024	0.121875
O7	O	0.161928	1.115458	0.121898
Cu8	Cu	0.171917	0.993241	0.144129
Cu9	Cu	0.171911	0.993243	-0.143955
O10	O	0.354729	0.987621	0.121881
C11	C	0.181075	0.839725	0.000072
C12	C	0.178593	0.746465	0.000064
C13	C	0.051669	0.475097	0.000083
C14	C	0.112864	0.526033	0.120192
C15	C	0.169741	0.410770	0.000089
C16	C	0.112890	0.526015	-0.119978
C17	C	0.174083	0.575708	0.000074
C18	C	0.230904	0.460476	0.120297
C19	C	0.230913	0.460455	-0.119981
C20	C	0.292195	0.511358	0.000157
C21	C	0.167236	0.315753	0.000099
C22	C	0.176598	0.670722	0.000075
C23	C	-0.057685	0.998036	0.000091
C24	C	-0.197096	0.995567	0.000086
C25	C	-0.277559	1.070836	0.000097
C26	C	-0.408549	1.068511	0.000087
C27	C	-0.378603	0.915642	0.000059
C28	C	-0.247615	0.917968	0.000059
C29	C	-0.294849	1.159094	0.000120
C30	C	-0.425840	1.156769	0.000109
C31	C	0.401514	0.988447	0.000080
C32	C	0.540925	0.990916	0.000075
N33	N	0.171921	0.993246	0.346752
C34	C	0.162754	1.146758	0.000098
C35	C	0.165236	1.240019	0.000098
N36	N	0.171898	0.993244	-0.346578
C37	C	0.086577	1.049867	0.423411
C38	C	0.086562	1.049864	0.576748
C39	C	0.257245	0.936617	0.576752
C40	C	0.257253	0.936616	0.423418
C41	C	-0.011961	1.115252	0.423410
C42	C	-0.011976	1.115249	0.576747
H43	H	0.063003	0.554644	-0.221514
N44	N	-0.139574	1.096253	0.368264
H45	H	-0.178182	1.144949	0.306806
H46	H	-0.196431	1.087754	0.454330
N47	N	0.426982	0.532675	0.000223
H48	H	0.471912	0.507754	-0.089621
H49	H	0.471320	0.508606	0.091037
H50	H	0.017836	1.176236	0.375857
H51	H	0.326735	0.890504	0.361003
N52	N	-0.433085	0.831946	0.000054
H53	H	-0.403740	0.798937	-0.090251
H54	H	-0.528266	0.841959	0.000110
H55	H	-0.265941	1.193615	-0.101816
H56	H	-0.102934	1.094842	0.624295
N57	N	-0.160828	0.836786	0.000020
H58	H	-0.212711	0.787277	0.000006
H59	H	-0.105824	0.834413	0.090323
N60	N	0.296896	0.422711	0.254961
H61	H	0.387462	0.436126	0.255380
H62	H	0.294692	0.359542	0.254085
H63	H	-0.259585	1.187197	0.105304
H64	H	0.008705	1.179797	0.618369
H65	H	-0.050016	0.458856	0.000203
H66	H	-0.471831	1.183442	-0.105068
H67	H	-0.468029	1.190022	0.102056
H68	H	0.280732	0.431798	-0.221530
H69	H	0.326720	0.890511	0.639190
H70	H	0.063001	0.554674	0.221737
