data_functionalizedCrystal
_audit_creation_method	'MofGen! by Chris Wilmer'
_symmetry_space_group_name_H-M	'P1'
_symmetry_Int_Tables_number	1
_symmetry_cell_setting	triclinic
loop_
_symmetry_equiv_pos_as_xyz
  x,y,z
_cell_length_a	6.817900
_cell_length_b	11.102250
_cell_length_c	11.452834
_cell_angle_alpha	80.919879
_cell_angle_beta	108.697278
_cell_angle_gamma	108.605052
loop_
_atom_site_label
_atom_site_type_symbol
_atom_site_fract_x
_atom_site_fract_y
_atom_site_fract_z
V1	V	-4.066890	-0.091647	-0.380652
O2	O	-4.026773	0.091038	-0.373400
O3	O	-4.043972	-0.265043	-0.378053
O4	O	-4.024203	-0.052224	-0.546664
O5	O	-4.046680	-0.123254	-0.203622
V6	V	-4.546476	-0.074288	-0.359477
O7	O	-4.336785	-0.129727	-0.427100
O8	O	-4.726779	-0.036208	-0.313028
O9	O	-4.346188	0.099108	-0.362075
O10	O	-4.703990	-0.256973	-0.366728
O11	O	-4.684084	-0.042681	-0.536507
O12	O	-4.365957	-0.113711	-0.193464
C13	C	-3.894987	-0.308501	-0.372050
C14	C	-3.957573	-0.450009	-0.371032
C15	C	-3.998715	-0.656028	-0.257781
C16	C	-3.939909	-0.523065	-0.258746
C17	C	-4.034029	-0.509923	-0.482360
C18	C	-4.092818	-0.642883	-0.481393
C19	C	-3.944384	-0.663614	-0.128680
C20	C	-3.885579	-0.530651	-0.129645
C21	C	-3.869768	-0.037028	-0.587128
C22	C	-3.916318	-0.005942	-0.722845
C23	C	-3.992311	-0.099024	-0.799926
C24	C	-4.040424	-0.066897	-0.940196
C25	C	-4.158516	0.142559	-0.368075
C26	C	-4.075168	0.284068	-0.369101
C27	C	-4.183735	-0.128913	-0.152993
C28	C	-4.116422	-0.159992	-0.017276
H29	H	-3.798750	-0.698671	-0.074170
H30	H	-4.021762	-0.202498	-0.762072
C31	C	-4.142368	-0.728012	-0.080666
C32	C	-4.251450	-0.646206	-0.040524
C33	C	-4.449432	-0.710605	0.007491
C34	C	-4.538332	-0.856811	0.015363
C35	C	-4.429249	-0.938626	-0.024781
C36	C	-4.231267	-0.874227	-0.072796
H37	H	-4.185641	-0.537968	-0.046350
H38	H	-4.530182	-0.650039	0.037208
H39	H	-4.684891	-0.904483	0.050906
H40	H	-4.495058	-1.046864	-0.018955
H41	H	-4.150517	-0.934792	-0.102513
C42	C	-4.156213	-0.299794	-0.966163
C43	C	-4.316661	-0.355454	-0.889163
C44	C	-4.356452	-0.495253	-0.838051
C45	C	-4.235794	-0.579392	-0.863940
C46	C	-4.075336	-0.523734	-0.940945
C47	C	-4.035545	-0.383935	-0.992056
H48	H	-4.405988	-0.293167	-0.869994
H49	H	-4.475234	-0.536454	-0.781047
H50	H	-4.265250	-0.682880	-0.826105
H51	H	-3.986009	-0.586020	-0.960113
H52	H	-3.916762	-0.342733	-1.049060
H53	H	-4.155044	-0.691651	-0.572040
H54	H	-3.705284	-0.487706	-0.085050
H55	H	-4.048388	-0.450430	-0.573785
H56	H	-4.010990	0.036584	-0.978045
H57	H	-3.989475	-0.501417	-0.085011
H58	H	-3.886890	0.097532	-0.760700
