data_functionalizedCrystal
_audit_creation_method	'MofGen! by Chris Wilmer'
_symmetry_space_group_name_H-M	'P1'
_symmetry_Int_Tables_number	1
_symmetry_cell_setting	triclinic
loop_
_symmetry_equiv_pos_as_xyz
  x,y,z
_cell_length_a	12.759401
_cell_length_b	16.625546
_cell_length_c	12.759401
_cell_angle_alpha	90.012536
_cell_angle_beta	90.006940
_cell_angle_gamma	90.023993
loop_
_atom_site_label
_atom_site_type_symbol
_atom_site_fract_x
_atom_site_fract_y
_atom_site_fract_z
Zn1	Zn	1.606064	-0.321110	0.593986
Zn2	Zn	1.939398	0.012224	0.927319
Zn3	Zn	2.272731	0.345557	1.260653
Zn4	Zn	1.605975	-0.455911	0.418292
Zn5	Zn	1.939308	-0.122577	0.751625
Zn6	Zn	2.272641	0.210756	1.084959
Zn7	Zn	1.430406	-0.321099	0.418321
Zn8	Zn	1.763739	0.012234	0.751655
Zn9	Zn	2.097073	0.345567	1.084988
Zn10	Zn	1.430331	-0.455907	0.593929
Zn11	Zn	1.763665	-0.122574	0.927262
Zn12	Zn	2.096998	0.210759	1.260596
O13	O	1.518194	-0.388507	0.506132
O14	O	1.851527	-0.055173	0.839465
O15	O	2.184861	0.278160	1.172799
O16	O	1.753074	-0.338997	0.570691
O17	O	2.086407	-0.005663	0.904025
O18	O	2.419740	0.327670	1.237358
O19	O	1.582679	-0.438025	0.271275
O20	O	1.916012	-0.104691	0.604608
O21	O	2.249346	0.228642	0.937941
O22	O	1.453776	-0.208268	0.441659
O23	O	1.787110	0.125065	0.774993
O24	O	2.120443	0.458398	1.108326
O25	O	1.753008	-0.438035	0.441610
O26	O	2.086341	-0.104701	0.774943
O27	O	2.419674	0.228632	1.108276
O28	O	1.582832	-0.208276	0.570720
O29	O	1.916165	0.125058	0.904053
O30	O	2.249499	0.458391	1.237386
O31	O	1.453689	-0.338979	0.271296
O32	O	1.787023	-0.005646	0.604630
O33	O	2.120356	0.327687	0.937963
O34	O	1.283375	-0.338976	0.441604
O35	O	1.616709	-0.005643	0.774938
O36	O	1.950042	0.327690	1.108271
O37	O	1.453649	-0.438029	0.740958
O38	O	1.786982	-0.104696	1.074291
O39	O	2.120316	0.228638	1.407624
O40	O	1.283320	-0.438019	0.570623
O41	O	1.616654	-0.104686	0.903956
O42	O	1.949987	0.228647	1.237289
O43	O	1.582759	-0.338994	0.740999
O44	O	1.916093	-0.005660	1.074333
O45	O	2.249426	0.327673	1.407666
O46	O	1.582606	-0.568743	0.441555
O47	O	1.915940	-0.235409	0.774888
O48	O	2.249273	0.097924	1.108221
O49	O	1.453562	-0.568740	0.570594
O50	O	1.786895	-0.235407	0.903928
O51	O	2.120228	0.097926	1.237261
C52	C	1.245227	-0.388497	0.506111
C53	C	1.578560	-0.055164	0.839444
C54	C	1.911893	0.278170	1.172778
C55	C	1.128450	-0.388512	0.506127
C56	C	1.461783	-0.055179	0.839460
C57	C	1.795117	0.278155	1.172794
C58	C	1.073587	-0.440162	0.573201
C59	C	1.406920	-0.106829	0.906535
C60	C	1.740254	0.226505	1.239868
C61	C	0.963863	-0.440165	0.573222
C62	C	1.297196	-0.106832	0.906555
C63	C	1.630530	0.226501	1.239889
C64	C	0.963875	-0.336866	0.439086
C65	C	1.297208	-0.003533	0.772419
C66	C	1.630541	0.329801	1.105752
C67	C	1.073597	-0.336859	0.439071
C68	C	1.406930	-0.003526	0.772404
C69	C	1.740263	0.329807	1.105738
C70	C	1.518095	-0.597998	0.506088
C71	C	1.851428	-0.264664	0.839421
C72	C	2.184761	0.068669	1.172755
C73	C	1.518148	-0.687619	0.506104
C74	C	1.851482	-0.354285	0.839438
C75	C	2.184815	-0.020952	1.172771
C76	C	1.518332	-1.015794	0.506214
C77	C	1.851665	-0.682461	0.839547
C78	C	2.184998	-0.349128	1.172880
C79	C	1.518277	-0.924486	0.506186
C80	C	1.851611	-0.591152	0.839520
C81	C	2.184944	-0.257819	1.172853
C82	C	1.518239	-0.851709	0.506158
C83	C	1.851572	-0.518376	0.839492
C84	C	2.184906	-0.185043	1.172825
C85	C	1.518186	-0.760395	0.506132
C86	C	1.851520	-0.427062	0.839465
C87	C	2.184853	-0.093728	1.172799
C88	C	1.792227	-0.388517	0.506154
C89	C	2.125561	-0.055184	0.839487
C90	C	2.458894	0.278149	1.172820
C91	C	1.909004	-0.388522	0.506163
C92	C	2.242337	-0.055188	0.839496
C93	C	2.575671	0.278145	1.172829
C94	C	1.518206	-0.388512	0.780165
C95	C	1.851539	-0.055179	1.113499
C96	C	2.184872	0.278154	1.446832
C97	C	1.518211	-0.388515	0.896942
C98	C	1.851544	-0.055181	1.230275
C99	C	2.184877	0.278152	1.563609
C100	C	1.518323	-0.178198	0.506199
C101	C	1.851656	0.155136	0.839532
C102	C	2.184989	0.488469	1.172866
C103	C	1.518377	-0.088577	0.506228
C104	C	1.851711	0.244757	0.839561
C105	C	2.185044	0.578090	1.172894
C106	C	1.585430	-0.336955	0.951827
C107	C	1.918763	-0.003622	1.285161
C108	C	2.252097	0.329711	1.618494
C109	C	1.585421	-0.336954	1.061551
C110	C	1.918754	-0.003620	1.394885
C111	C	2.252088	0.329713	1.728218
C112	C	1.450970	-0.440078	1.061495
C113	C	1.784304	-0.106744	1.394828
C114	C	2.117637	0.226589	1.728162
C115	C	1.450975	-0.440075	0.951773
C116	C	1.784308	-0.106741	1.285106
C117	C	2.117642	0.226592	1.618440
C118	C	1.518182	-0.388519	1.233165
C119	C	1.851515	-0.055186	1.566498
C120	C	2.184848	0.278148	1.899831
C121	C	1.518197	-0.388516	1.116388
C122	C	1.851530	-0.055183	1.449721
C123	C	2.184864	0.278151	1.783055
H124	H	0.919200	-0.294813	0.384489
H125	H	1.252533	0.038520	0.717823
H126	H	1.585866	0.371853	1.051156
H127	H	1.396232	-0.482058	1.106152
H128	H	1.729565	-0.148725	1.439485
H129	H	2.062898	0.184609	1.772818
F130	F	1.656986	-0.282078	0.893476
F131	F	1.990319	0.051255	1.226809
F132	F	2.323652	0.384588	1.560142
H133	H	1.118245	-0.482219	0.627805
H134	H	1.451579	-0.148886	0.961139
H135	H	1.784912	0.184448	1.294472
F136	F	0.905478	-0.495137	0.644614
F137	F	1.238812	-0.161804	0.977947
F138	F	1.572145	0.171530	1.311280
F139	F	1.656972	-0.282082	1.119960
F140	F	1.990305	0.051251	1.453293
F141	F	2.323639	0.384584	1.786626
H142	H	1.396229	-0.482060	0.907084
H143	H	1.729563	-0.148727	1.240417
H144	H	2.062896	0.184607	1.573751
H145	H	1.118268	-0.294795	0.384451
H146	H	1.451601	0.038539	0.717784
H147	H	1.784934	0.371872	1.051118
