data_functionalizedCrystal
_audit_creation_method	'MofGen! by Chris Wilmer'
_symmetry_space_group_name_H-M	'P1'
_symmetry_Int_Tables_number	1
_symmetry_cell_setting	triclinic
loop_
_symmetry_equiv_pos_as_xyz
  x,y,z
_cell_length_a	23.532407
_cell_length_b	23.532407
_cell_length_c	22.610064
_cell_angle_alpha	90.000603
_cell_angle_beta	89.997161
_cell_angle_gamma	97.151322
loop_
_atom_site_label
_atom_site_type_symbol
_atom_site_fract_x
_atom_site_fract_y
_atom_site_fract_z
O1	O	0.755263	-0.069127	-0.049117
O2	O	1.088597	0.264206	0.284217
O3	O	1.421930	0.597540	0.617550
O4	O	0.589400	-0.079130	-0.049135
O5	O	0.922733	0.254203	0.284198
O6	O	1.256067	0.587536	0.617532
O7	O	0.677333	0.008803	-0.049114
O8	O	1.010667	0.342136	0.284219
O9	O	1.344000	0.675470	0.617552
O10	O	0.667330	-0.157060	-0.049137
O11	O	1.000664	0.176273	0.284196
O12	O	1.333997	0.509606	0.617529
O13	O	0.677318	0.008790	0.049255
O14	O	1.010651	0.342124	0.382588
O15	O	1.343985	0.675457	0.715921
O16	O	0.589385	-0.079143	0.049234
O17	O	0.922718	0.254190	0.382568
O18	O	1.256051	0.587524	0.715901
O19	O	0.755248	-0.069140	0.049252
O20	O	1.088581	0.264193	0.382586
O21	O	1.421915	0.597527	0.715919
Zn22	Zn	0.672314	-0.074144	0.064862
Zn23	Zn	1.005647	0.259190	0.398195
Zn24	Zn	1.338980	0.592523	0.731528
Zn25	Zn	0.672334	-0.074127	-0.064744
Zn26	Zn	1.005668	0.259207	0.268589
Zn27	Zn	1.339001	0.592540	0.601923
O28	O	0.667315	-0.157073	0.049232
O29	O	1.000648	0.176260	0.382565
O30	O	1.333981	0.509593	0.715899
C31	C	0.568176	-0.078882	0.000048
C32	C	0.901510	0.254451	0.333381
C33	C	1.234843	0.587785	0.666714
C34	C	0.504959	-0.078116	0.000041
C35	C	0.838293	0.255217	0.333374
C36	C	1.171626	0.588551	0.666708
C37	C	0.105856	-0.125350	0.000061
C38	C	0.439190	0.207984	0.333395
C39	C	0.772523	0.541317	0.666728
C40	C	0.046456	-0.124638	0.000065
C41	C	0.379789	0.208695	0.333398
C42	C	0.713123	0.542029	0.666732
O43	O	0.009711	-0.168424	0.000081
O44	O	0.343045	0.164909	0.333414
O45	O	0.676378	0.498243	0.666747
N46	N	0.023830	-0.072362	0.000071
N47	N	0.357163	0.260972	0.333405
N48	N	0.690496	0.594305	0.666738
C49	C	0.060607	-0.020794	0.000080
C50	C	0.393941	0.312540	0.333413
C51	C	0.727274	0.645873	0.666746
O52	O	0.035908	0.023737	0.000086
O53	O	0.369241	0.357070	0.333419
O54	O	0.702574	0.690404	0.666753
C55	C	0.120006	-0.021506	0.000080
C56	C	0.453340	0.311828	0.333414
C57	C	0.786673	0.645161	0.666747
C58	C	0.142629	-0.073785	0.000068
C59	C	0.475962	0.259548	0.333401
C60	C	0.809296	0.592881	0.666735
C61	C	0.128479	-0.177625	0.000050
C62	C	0.461813	0.155708	0.333383
C63	C	0.795146	0.489042	0.666716
C64	C	0.187876	-0.178336	0.000045
C65	C	0.521209	0.154997	0.333378
C66	C	0.854542	0.488330	0.666712
C67	C	0.224649	-0.126772	0.000052
C68	C	0.557982	0.206561	0.333385
C69	C	0.891315	0.539895	0.666718
C70	C	0.202025	-0.074497	0.000063
C71	C	0.535359	0.258837	0.333397
C72	C	0.868692	0.592170	0.666730
C73	C	0.156783	0.030062	0.000093
C74	C	0.490116	0.363395	0.333426
C75	C	0.823450	0.696729	0.666760
C76	C	0.216185	0.029345	0.000094
C77	C	0.549519	0.362679	0.333427
C78	C	0.882852	0.696012	0.666761
C79	C	0.238808	-0.022934	0.000082
C80	C	0.572141	0.310399	0.333415
C81	C	0.905475	0.643732	0.666748
C82	C	0.298194	-0.023643	0.000065
C83	C	0.631528	0.309690	0.333398
C84	C	0.964861	0.643023	0.666732
N85	N	0.320820	-0.075920	0.000059
N86	N	0.654154	0.257414	0.333392
N87	N	0.987487	0.590747	0.666726
C88	C	0.284048	-0.127484	0.000052
C89	C	0.617381	0.205849	0.333386
C90	C	0.950714	0.539183	0.666719
C91	C	-0.064135	-0.019302	0.000080
C92	C	0.269198	0.314031	0.333413
C93	C	0.602532	0.647365	0.666746
C94	C	-0.123533	-0.018589	0.000075
C95	C	0.209800	0.314744	0.333408
C96	C	0.543134	0.648077	0.666742
C97	C	-0.137680	-0.122434	0.000061
C98	C	0.195653	0.210899	0.333395
C99	C	0.528986	0.544232	0.666728
C100	C	-0.078281	-0.123146	0.000062
C101	C	0.255052	0.210187	0.333395
C102	C	0.588385	0.543520	0.666729
C103	C	-0.041509	-0.071578	0.000074
C104	C	0.291824	0.261755	0.333407
C105	C	0.625158	0.595088	0.666740
C106	C	0.408784	-0.128974	0.000042
C107	C	0.742118	0.204360	0.333375
C108	C	1.075451	0.537693	0.666708
C109	C	0.468186	-0.129680	0.000034
C110	C	0.801520	0.203653	0.333368
C111	C	1.134853	0.536986	0.666701
C112	C	0.482329	-0.025836	0.000051
C113	C	0.815662	0.307497	0.333384
C114	C	1.148995	0.640831	0.666718
C115	C	0.422932	-0.025129	0.000055
C116	C	0.756265	0.308204	0.333389
C117	C	1.089598	0.641538	0.666722
C118	C	0.386160	-0.076702	0.000052
C119	C	0.719494	0.256631	0.333386
C120	C	1.052827	0.589964	0.666719
O121	O	0.334974	0.020119	0.000052
O122	O	0.668307	0.353453	0.333385
O123	O	1.001640	0.686786	0.666719
O124	O	0.308755	-0.172007	0.000054
O125	O	0.642089	0.161326	0.333387
O126	O	0.975422	0.494660	0.666721
C127	C	0.677071	0.030013	0.000072
C128	C	1.010404	0.363346	0.333405
C129	C	1.343738	0.696679	0.666738
C130	C	0.676305	0.093230	0.000076
C131	C	1.009638	0.426563	0.333409
C132	C	1.342972	0.759896	0.666743
C133	C	0.776472	-0.069388	0.000069
C134	C	1.109805	0.263945	0.333402
C135	C	1.443138	0.597278	0.666735
C136	C	0.839689	-0.070154	0.000071
C137	C	1.173022	0.263179	0.333405
C138	C	1.506355	0.596513	0.666738
C139	C	0.667577	-0.178283	0.000045
C140	C	1.000910	0.155051	0.333378
C141	C	1.334244	0.488384	0.666711
C142	C	0.668343	-0.241500	0.000036
C143	C	1.001676	0.091833	0.333370
C144	C	1.335010	0.425167	0.666703
N145	N	0.672304	-0.074155	0.153314
N146	N	1.005637	0.259179	0.486647
N147	N	1.338971	0.592512	0.819981
C148	C	0.723539	0.492333	0.000049
C149	C	1.056872	0.825666	0.333382
C150	C	1.390205	1.158999	0.666716
C151	C	0.722827	0.551733	0.000044
C152	C	1.056160	0.885066	0.333378
C153	C	1.389494	1.218400	0.666711
O154	O	0.766613	0.588478	0.000027
O155	O	1.099946	0.921811	0.333361
O156	O	1.433280	1.255144	0.666694
N157	N	0.670551	0.574359	0.000039
N158	N	1.003884	0.907693	0.333372
N159	N	1.337217	1.241026	0.666706
C160	C	0.618983	0.537582	0.000032
C161	C	0.952316	0.870915	0.333366
C162	C	1.285649	1.204248	0.666699
O163	O	0.574452	0.562281	0.000027
O164	O	0.907785	0.895615	0.333360
O165	O	1.241119	1.228948	0.666693
C166	C	0.619695	0.478182	0.000033
C167	C	0.953028	0.811516	0.333366
C168	C	1.286361	1.144849	0.666699
C169	C	0.671974	0.455560	0.000044
C170	C	1.005308	0.788893	0.333377
C171	C	1.338641	1.122227	0.666711
C172	C	0.775814	0.469710	0.000060
C173	C	1.109147	0.803043	0.333393
C174	C	1.442481	1.136376	0.666726
C175	C	0.776525	0.410313	0.000065
C176	C	1.109859	0.743647	0.333399
C177	C	1.443192	1.076980	0.666732
C178	C	0.724961	0.373540	0.000060
C179	C	1.058294	0.706874	0.333394
C180	C	1.391628	1.040207	0.666727
C181	C	0.672685	0.396164	0.000050
C182	C	1.006019	0.729497	0.333383
C183	C	1.339352	1.062830	0.666716
C184	C	0.568127	0.441406	0.000022
C185	C	0.901460	0.774739	0.333355
C186	C	1.234794	1.108073	0.666688
C187	C	0.568844	0.382004	0.000021
C188	C	0.902177	0.715337	0.333355
C189	C	1.235510	1.048670	0.666688
C190	C	0.621123	0.359381	0.000033
C191	C	0.954457	0.692714	0.333366
C192	C	1.287790	1.026048	0.666699
C193	C	0.621832	0.299995	0.000050
C194	C	0.955166	0.633328	0.333384
C195	C	1.288499	0.966661	0.666717
N196	N	0.674109	0.277368	0.000056
N197	N	1.007442	0.610702	0.333389
N198	N	1.340775	0.944035	0.666722
C199	C	0.725673	0.314141	0.000061
C200	C	1.059006	0.647475	0.333394
C201	C	1.392340	0.980808	0.666727
C202	C	0.617491	0.662324	0.000031
C203	C	0.950824	0.995657	0.333364
C204	C	1.284158	1.328991	0.666697
C205	C	0.616778	0.721722	0.000034
C206	C	0.950112	1.055055	0.333368
C207	C	1.283445	1.388389	0.666701
C208	C	0.720623	0.735869	0.000045
C209	C	1.053957	1.069203	0.333379
C210	C	1.387290	1.402536	0.666712
C211	C	0.721335	0.676470	0.000046
C212	C	1.054669	1.009804	0.333379
C213	C	1.388002	1.343137	0.666712
C214	C	0.669767	0.639698	0.000036
C215	C	1.003101	0.973031	0.333369
C216	C	1.336434	1.306365	0.666702
C217	C	0.727163	0.189405	0.000073
C218	C	1.060496	0.522738	0.333406
C219	C	1.393829	0.856071	0.666740
C220	C	0.727869	0.130003	0.000081
C221	C	1.061203	0.463336	0.333414
C222	C	1.394536	0.796669	0.666748
C223	C	0.624025	0.115860	0.000067
C224	C	0.957358	0.449194	0.333400
C225	C	1.290692	0.782527	0.666734
C226	C	0.623318	0.175257	0.000062
C227	C	0.956651	0.508591	0.333395
C228	C	1.289985	0.841924	0.666729
C229	C	0.674891	0.212029	0.000063
C230	C	1.008225	0.545362	0.333396
C231	C	1.341558	0.878695	0.666730
O232	O	0.578070	0.263215	0.000065
O233	O	0.911403	0.596549	0.333398
O234	O	1.244736	0.929882	0.666732
O235	O	0.770196	0.289433	0.000058
O236	O	1.103529	0.622767	0.333392
O237	O	1.436863	0.956100	0.666725
N238	N	0.672349	-0.074111	-0.153196
N239	N	1.005682	0.259222	0.180137
N240	N	1.339015	0.592556	0.513470
C241	C	0.711273	-0.035196	0.561965
C242	C	1.044606	0.298138	0.895298
C243	C	1.377940	0.631471	1.228631
C244	C	0.711276	-0.035192	0.623884
C245	C	1.044609	0.298142	0.957218
C246	C	1.377942	0.631475	1.290551
O247	O	0.744384	-0.002076	0.655911
O248	O	1.077718	0.331258	0.989244
O249	O	1.411051	0.664591	1.322578
N250	N	0.672334	-0.074115	0.654851
N251	N	1.005667	0.259219	0.988185
N252	N	1.339001	0.592552	1.321518
C253	C	0.633383	-0.113041	0.623895
C254	C	0.966716	0.220292	0.957228
C255	C	1.300049	0.553626	1.290562
O256	O	0.600259	-0.146147	0.655920
O257	O	0.933593	0.187186	0.989254
O258	O	1.266926	0.520519	1.322587
C259	C	0.633377	-0.113042	0.561976
C260	C	0.966711	0.220291	0.895309
C261	C	1.300044	0.553625	1.228643
C262	C	0.672326	-0.074120	0.531013
C263	C	1.005659	0.259213	0.864346
C264	C	1.338992	0.592547	1.197679
C265	C	0.750218	0.003724	0.531001
C266	C	1.083551	0.337057	0.864334
C267	C	1.416884	0.670390	1.197668
C268	C	0.750215	0.003719	0.469085
C269	C	1.083549	0.337052	0.802419
C270	C	1.416882	0.670385	1.135752
C271	C	0.711268	-0.035206	0.438133
C272	C	1.044601	0.298128	0.771467
C273	C	1.377935	0.631461	1.104800
C274	C	0.672323	-0.074125	0.469097
C275	C	1.005657	0.259208	0.802430
C276	C	1.338990	0.592542	1.135764
C277	C	0.594424	-0.151965	0.531021
C278	C	0.927757	0.181369	0.864354
C279	C	1.261091	0.514702	1.197688
C280	C	0.594422	-0.151962	0.469098
C281	C	0.927755	0.181371	0.802431
C282	C	1.261089	0.514705	1.135765
C283	C	0.633370	-0.113040	0.438134
C284	C	0.966704	0.220293	0.771468
C285	C	1.300037	0.553626	1.104801
C286	C	0.633374	-0.113054	0.376229
C287	C	0.966707	0.220279	0.709563
C288	C	1.300041	0.553613	1.042896
N289	N	0.672316	-0.074131	0.345262
N290	N	1.005649	0.259202	0.678596
N291	N	1.338983	0.592536	1.011929
C292	C	0.711263	-0.035207	0.376214
C293	C	1.044596	0.298127	0.709548
C294	C	1.377930	0.631460	1.042881
C295	C	0.633396	-0.113035	0.753928
C296	C	0.966729	0.220298	1.087262
C297	C	1.300063	0.553631	1.420595
C298	C	0.633403	-0.113037	0.815846
C299	C	0.966737	0.220296	1.149179
C300	C	1.300070	0.553629	1.482513
C301	C	0.711296	-0.035187	0.815831
C302	C	1.044629	0.298146	1.149165
C303	C	1.377962	0.631479	1.482498
C304	C	0.711291	-0.035188	0.753913
C305	C	1.044624	0.298145	1.087246
C306	C	1.377957	0.631479	1.420579
C307	C	0.672338	-0.074112	0.722962
C308	C	1.005671	0.259221	1.056295
C309	C	1.339004	0.592555	1.389628
C310	C	0.711255	-0.035220	0.246187
C311	C	1.044589	0.298113	0.579520
C312	C	1.377922	0.631446	0.912854
C313	C	0.711251	-0.035230	0.184266
C314	C	1.044584	0.298103	0.517599
C315	C	1.377918	0.631436	0.850933
C316	C	0.633357	-0.113078	0.184286
C317	C	0.966690	0.220255	0.517619
C318	C	1.300023	0.553588	0.850953
C319	C	0.633363	-0.113071	0.246202
C320	C	0.966696	0.220263	0.579535
C321	C	1.300029	0.553596	0.912869
C322	C	0.672314	-0.074137	0.277151
C323	C	1.005648	0.259196	0.610484
C324	C	1.338981	0.592530	0.943818
O325	O	0.600281	-0.146152	0.344163
O326	O	0.933614	0.187182	0.677497
O327	O	1.266948	0.520515	1.010830
O328	O	0.744376	-0.002101	0.344182
O329	O	1.077709	0.331233	0.677515
O330	O	1.411042	0.664566	1.010848
H331	H	-0.141947	0.023982	0.000076
H332	H	0.191387	0.357315	0.333409
H333	H	0.524720	0.690648	0.666742
O334	O	0.777223	0.225176	0.000155
O335	O	1.110557	0.558509	0.333489
O336	O	1.443890	0.891843	0.666822
C337	C	0.779920	0.259951	0.051108
C338	C	1.113253	0.593284	0.384441
C339	C	1.446587	0.926617	0.717774
H340	H	0.734731	0.262715	0.068084
H341	H	1.068065	0.596049	0.401417
H342	H	1.401398	0.929382	0.734750
H343	H	0.801405	0.304711	0.039651
H344	H	1.134738	0.638045	0.372985
H345	H	1.468072	0.971378	0.706318
H346	H	0.805805	0.240546	0.086788
H347	H	1.139138	0.573879	0.420122
H348	H	1.472471	0.907213	0.753455
O349	O	0.595616	-0.150933	0.723892
O350	O	0.928949	0.182400	1.057225
O351	O	1.262283	0.515733	1.390559
C352	C	0.604550	-0.207261	0.739040
C353	C	0.937883	0.126072	1.072374
C354	C	1.271216	0.459405	1.405707
H355	H	0.650146	-0.207302	0.756051
H356	H	0.983480	0.126031	1.089385
H357	H	1.316813	0.459365	1.422718
H358	H	0.597831	-0.235885	0.698326
H359	H	0.931164	0.097449	1.031659
H360	H	1.264497	0.430782	1.364993
H361	H	0.572896	-0.224145	0.774991
H362	H	0.906230	0.109188	1.108325
H363	H	1.239563	0.442521	1.441658
H364	H	0.781933	0.035423	0.556197
H365	H	1.115266	0.368756	0.889530
H366	H	1.448600	0.702090	1.222863
H367	H	0.525555	0.459814	0.000009
H368	H	0.858889	0.793148	0.333342
H369	H	1.192222	1.126481	0.666675
H370	H	0.404512	0.017441	0.000056
H371	H	0.737845	0.350775	0.333390
H372	H	1.071178	0.684108	0.666723
H373	H	0.138375	0.072634	0.000103
H374	H	0.471708	0.405967	0.333437
H375	H	0.805041	0.739300	0.666770
H376	H	0.601694	-0.144737	0.841052
H377	H	0.935027	0.188596	1.174386
H378	H	1.268361	0.521930	1.507719
H379	H	0.512280	0.016146	0.000054
H380	H	0.845613	0.349480	0.333388
H381	H	1.178946	0.682813	0.666721
H382	H	0.098544	-0.219617	0.000046
H383	H	0.431877	0.113716	0.333380
H384	H	0.765211	0.447049	0.666713
O385	O	0.825870	0.505484	0.000144
O386	O	1.159204	0.838817	0.333477
O387	O	1.492537	1.172151	0.666811
C388	C	0.828568	0.540255	0.051099
C389	C	1.161901	0.873588	0.384432
C390	C	1.495235	1.206921	0.717766
H391	H	0.783379	0.543019	0.068076
H392	H	1.116713	0.876352	0.401409
H393	H	1.450046	1.209685	0.734743
H394	H	0.850053	0.585016	0.039646
H395	H	1.183387	0.918349	0.372979
H396	H	1.516720	1.251683	0.706313
H397	H	0.854452	0.520847	0.086778
H398	H	1.187786	0.854180	0.420111
H399	H	1.521119	1.187513	0.753444
H400	H	-0.059867	-0.165717	0.000055
H401	H	0.273467	0.167616	0.333389
H402	H	0.606800	0.500950	0.666722
H403	H	0.743008	-0.003492	0.841044
H404	H	1.076341	0.329841	1.174377
H405	H	1.409675	0.663175	1.507710
H406	H	-0.034198	0.022693	0.000084
H407	H	0.299136	0.356027	0.333417
H408	H	0.632469	0.689360	0.666751
O409	O	0.748976	0.002668	0.154161
O410	O	1.082309	0.336001	0.487494
O411	O	1.415643	0.669335	0.820828
C412	C	0.718619	0.037650	0.118410
C413	C	1.051952	0.370984	0.451743
C414	C	1.385286	0.704317	0.785076
H415	H	0.673958	0.014682	0.109099
H416	H	1.007292	0.348016	0.442433
H417	H	1.340625	0.681349	0.775766
H418	H	0.742439	0.046882	0.074882
H419	H	1.075772	0.380215	0.408215
H420	H	1.409105	0.713548	0.741548
H421	H	0.714912	0.079674	0.142337
H422	H	1.048246	0.413007	0.475670
H423	H	1.381579	0.746340	0.809004
O424	O	0.251824	0.079493	0.000076
O425	O	0.585158	0.412826	0.333409
O426	O	0.918491	0.746159	0.666742
C427	C	0.219114	0.125783	0.000101
C428	C	0.552447	0.459116	0.333435
C429	C	0.885781	0.792450	0.666768
H430	H	0.174698	0.111068	-0.018521
H431	H	0.508032	0.444402	0.314813
H432	H	0.841365	0.777735	0.648146
H433	H	0.241221	0.161896	-0.028454
H434	H	0.574555	0.495230	0.304879
H435	H	0.907888	0.828563	0.638213
H436	H	0.214972	0.141816	0.047297
H437	H	0.548305	0.475149	0.380630
H438	H	0.881638	0.808483	0.713964
H439	H	-0.167632	-0.164421	0.000059
H440	H	0.165701	0.168913	0.333392
H441	H	0.499035	0.502246	0.666725
O442	O	0.778707	0.108123	0.000063
O443	O	1.112040	0.441456	0.333397
O444	O	1.445373	0.774790	0.666730
C445	C	0.824064	0.153322	0.000079
C446	C	1.157397	0.486655	0.333412
C447	C	1.490730	0.819988	0.666746
H448	H	0.808335	0.193587	-0.018549
H449	H	1.141668	0.526920	0.314784
H450	H	1.475001	0.860253	0.648117
H451	H	0.860588	0.141108	-0.028475
H452	H	1.193921	0.474442	0.304858
H453	H	1.527255	0.807775	0.638191
H454	H	0.839946	0.161819	0.047273
H455	H	1.173279	0.495152	0.380606
H456	H	1.506613	0.828485	0.713939
O457	O	0.827360	0.388437	0.000045
O458	O	1.160694	0.721770	0.333378
O459	O	1.494027	1.055104	0.666712
C460	C	0.872713	0.433640	0.000062
C461	C	1.206046	0.766973	0.333396
C462	C	1.539380	1.100307	0.666729
H463	H	0.856979	0.473904	-0.018563
H464	H	1.190312	0.807237	0.314770
H465	H	1.523645	1.140570	0.648104
H466	H	0.909238	0.421433	-0.028494
H467	H	1.242572	0.754766	0.304839
H468	H	1.575905	1.088100	0.638173
H469	H	0.888595	0.442136	0.047256
H470	H	1.221929	0.775469	0.380589
H471	H	1.555262	1.108803	0.713923
O472	O	0.595602	-0.150909	0.154147
O473	O	0.928935	0.182424	0.487480
O474	O	1.262269	0.515758	0.820814
C475	C	0.625895	-0.185901	0.118337
C476	C	0.959228	0.147432	0.451670
C477	C	1.292562	0.480765	0.785004
H478	H	0.670590	-0.162998	0.109062
H479	H	1.003924	0.170336	0.442396
H480	H	1.337257	0.503669	0.775729
H481	H	0.602074	-0.195024	0.074795
H482	H	0.935407	0.138309	0.408129
H483	H	1.268741	0.471643	0.741462
H484	H	0.629516	-0.227978	0.142195
H485	H	0.962850	0.105355	0.475529
H486	H	1.296183	0.438689	0.808862
H487	H	0.762610	0.765821	0.000047
H488	H	1.095943	1.099154	0.333380
H489	H	1.429276	1.432488	0.666714
O490	O	0.490066	-0.180518	0.000050
O491	O	0.823399	0.152816	0.333384
O492	O	1.156733	0.486149	0.666717
C493	C	0.444867	-0.225875	0.000033
C494	C	0.778201	0.107459	0.333366
C495	C	1.111534	0.440792	0.666699
H496	H	0.404601	-0.210146	0.018661
H497	H	0.737935	0.123188	0.351995
H498	H	1.071268	0.456521	0.685328
H499	H	0.457079	-0.262399	0.028586
H500	H	0.790412	0.070935	0.361919
H501	H	1.123745	0.404268	0.695252
H502	H	0.436373	-0.241758	-0.047162
H503	H	0.769707	0.091576	0.286172
H504	H	1.103040	0.424909	0.619505
H505	H	0.574207	0.740136	0.000035
H506	H	0.907540	1.073469	0.333369
H507	H	1.240874	1.406802	0.666702
O508	O	0.556664	-0.189826	0.561117
O509	O	0.889998	0.143507	0.894450
O510	O	1.223331	0.476840	1.227784
C511	C	0.586951	-0.224806	0.596945
C512	C	0.920284	0.108527	0.930278
C513	C	1.253618	0.441861	1.263612
H514	H	0.631858	-0.225548	0.578288
H515	H	0.965191	0.107786	0.911621
H516	H	1.298525	0.441119	1.244955
H517	H	0.563450	-0.270189	0.597645
H518	H	0.896783	0.063144	0.930978
H519	H	1.230116	0.396478	1.264312
H520	H	0.590036	-0.206968	0.643873
H521	H	0.923369	0.126365	0.977206
H522	H	1.256703	0.459699	1.310540
H523	H	0.562700	-0.183658	0.443901
H524	H	0.896033	0.149675	0.777234
H525	H	1.229367	0.483009	1.110567
O526	O	0.772169	0.654592	0.000024
O527	O	1.105503	0.987925	0.333358
O528	O	1.438836	1.321259	0.666691
C529	C	0.817524	0.699793	0.000045
C530	C	1.150858	1.033126	0.333379
C531	C	1.484191	1.366460	0.666712
H532	H	0.801793	0.740059	-0.018577
H533	H	1.135126	1.073393	0.314757
H534	H	1.468459	1.406726	0.648090
H535	H	0.854049	0.687586	-0.028512
H536	H	1.187383	1.020919	0.304822
H537	H	1.520716	1.354252	0.638155
H538	H	0.833407	0.708284	0.047240
H539	H	1.166740	1.041618	0.380573
H540	H	1.500073	1.374951	0.713907
O541	O	0.749117	0.002520	0.276309
O542	O	1.082451	0.335854	0.609642
O543	O	1.415784	0.669187	0.942976
C544	C	0.784092	-0.027797	0.312111
C545	C	1.117425	0.305537	0.645445
C546	C	1.450758	0.638870	0.978778
H547	H	0.761155	-0.072475	0.321402
H548	H	1.094488	0.260859	0.654736
H549	H	1.427822	0.594192	0.988069
H550	H	0.793247	-0.003970	0.355646
H551	H	1.126581	0.329364	0.688979
H552	H	1.459914	0.662697	1.022312
H553	H	0.826153	-0.031460	0.288238
H554	H	1.159486	0.301873	0.621571
H555	H	1.492820	0.635206	0.954905
H556	H	0.575496	0.632386	0.000028
H557	H	0.908829	0.965720	0.333361
H558	H	1.242162	1.299053	0.666694
H559	H	0.526850	0.352066	0.000013
H560	H	0.860183	0.685399	0.333346
H561	H	1.193516	1.018732	0.666679
H562	H	0.601653	-0.144770	0.271413
H563	H	0.934986	0.188563	0.604746
H564	H	1.268320	0.521897	0.938080
H565	H	0.378851	-0.170970	0.000041
H566	H	0.712185	0.162363	0.333375
H567	H	1.045518	0.495697	0.666708
O568	O	0.572485	0.197142	0.000027
O569	O	0.905818	0.530475	0.333360
O570	O	1.239151	0.863808	0.666694
C571	C	0.527126	0.151944	0.000041
C572	C	0.860459	0.485278	0.333374
C573	C	1.193793	0.818611	0.666708
H574	H	0.542861	0.111674	-0.018569
H575	H	0.876194	0.445007	0.314764
H576	H	1.209527	0.778340	0.648097
H577	H	0.490613	0.164152	-0.028530
H578	H	0.823947	0.497485	0.304804
H579	H	1.157280	0.830818	0.638137
H580	H	0.511226	0.143460	0.047232
H581	H	0.844559	0.476794	0.380565
H582	H	1.177892	0.810127	0.713898
O583	O	0.573990	0.080053	0.000035
O584	O	0.907323	0.413386	0.333369
O585	O	1.240657	0.746719	0.666702
C586	C	0.585835	0.022777	0.000054
C587	C	0.919168	0.356110	0.333388
C588	C	1.252502	0.689443	0.666721
H589	H	0.630560	0.020751	-0.018559
H590	H	0.963893	0.354084	0.314775
H591	H	1.297227	0.687417	0.648108
H592	H	0.552956	-0.004321	-0.028512
H593	H	0.886290	0.329012	0.304822
H594	H	1.219623	0.662346	0.638155
H595	H	0.583566	0.005585	0.047247
H596	H	0.916899	0.338918	0.380580
H597	H	1.250232	0.672252	0.713914
H598	H	0.781929	0.035414	0.443878
H599	H	1.115262	0.368747	0.777212
H600	H	1.448595	0.702080	1.110545
H601	H	0.206289	-0.220908	0.000035
H602	H	0.539622	0.112426	0.333368
H603	H	0.872956	0.445759	0.666702
H604	H	0.743005	-0.003494	0.728706
H605	H	1.076339	0.329839	1.062039
H606	H	1.409672	0.663172	1.395372
