data_functionalizedCrystal
_audit_creation_method	'MofGen! by Chris Wilmer'
_symmetry_space_group_name_H-M	'P1'
_symmetry_Int_Tables_number	1
_symmetry_cell_setting	triclinic
loop_
_symmetry_equiv_pos_as_xyz
  x,y,z
_cell_length_a	17.699083
_cell_length_b	13.596369
_cell_length_c	17.699083
_cell_angle_alpha	90.006725
_cell_angle_beta	96.716985
_cell_angle_gamma	90.000190
loop_
_atom_site_label
_atom_site_type_symbol
_atom_site_fract_x
_atom_site_fract_y
_atom_site_fract_z
O1	O	1.004077	-0.081655	-0.095712
O2	O	1.337410	0.251678	0.237621
O3	O	1.670744	0.585011	0.570954
O4	O	0.783699	-0.081688	-0.108165
O5	O	1.117032	0.251645	0.225169
O6	O	1.450365	0.584979	0.558502
O7	O	0.900114	-0.081662	0.008251
O8	O	1.233448	0.251671	0.341584
O9	O	1.566781	0.585005	0.674917
O10	O	0.887662	-0.081681	-0.212128
O11	O	1.220995	0.251652	0.121206
O12	O	1.554328	0.584985	0.454539
O13	O	0.900101	0.081921	0.008256
O14	O	1.233435	0.415254	0.341590
O15	O	1.566768	0.748587	0.674923
O16	O	0.783686	0.081895	-0.108159
O17	O	1.117019	0.415228	0.225174
O18	O	1.450353	0.748562	0.558508
O19	O	1.004064	0.081927	-0.095707
O20	O	1.337398	0.415261	0.237627
O21	O	1.670731	0.748594	0.570960
Zn22	Zn	0.893873	0.107884	-0.101932
Zn23	Zn	1.227207	0.441217	0.231401
Zn24	Zn	1.560540	0.774550	0.564735
Zn25	Zn	0.893890	-0.107644	-0.101939
Zn26	Zn	1.227223	0.225689	0.231394
Zn27	Zn	1.560557	0.559023	0.564727
O28	O	0.887649	0.081902	-0.212122
O29	O	1.220982	0.415235	0.121211
O30	O	1.554316	0.748568	0.454545
C31	C	0.755495	0.000099	-0.107716
C32	C	1.088829	0.333433	0.225618
C33	C	1.422162	0.666766	0.558951
C34	C	0.671477	0.000087	-0.106377
C35	C	1.004811	0.333421	0.226956
C36	C	1.338144	0.666754	0.560290
N37	N	0.893867	0.254975	-0.101926
N38	N	1.227201	0.588309	0.231407
N39	N	1.560534	0.921642	0.564740
C40	C	0.622856	0.000082	-0.174710
C41	C	0.956190	0.333415	0.158623
C42	C	1.289523	0.666748	0.491956
C43	C	0.543913	0.000095	-0.173448
C44	C	0.877246	0.333428	0.159885
C45	C	1.210580	0.666761	0.493218
C46	C	0.513592	0.000106	-0.103852
C47	C	0.846926	0.333439	0.229482
C48	C	1.180259	0.666773	0.562815
C49	C	0.562219	0.000115	-0.035513
C50	C	0.895553	0.333448	0.297820
C51	C	1.228886	0.666781	0.631154
C52	C	0.641161	0.000109	-0.036776
C53	C	0.974495	0.333442	0.296557
C54	C	1.307828	0.666775	0.629891
C55	C	0.243856	0.000139	-0.030418
C56	C	0.577190	0.333473	0.302915
C57	C	0.910523	0.666806	0.636249
C58	C	0.164908	0.000142	-0.029160
C59	C	0.498242	0.333476	0.304173
C60	C	0.831575	0.666809	0.637507
C61	C	0.146608	0.000125	-0.167090
C62	C	0.479942	0.333458	0.166243
C63	C	0.813275	0.666792	0.499577
C64	C	0.225550	0.000119	-0.168353
C65	C	0.558883	0.333453	0.164980
C66	C	0.892217	0.666786	0.498314
C67	C	0.274170	0.000133	-0.100015
C68	C	0.607504	0.333466	0.233319
C69	C	0.940837	0.666800	0.566652
C70	C	0.359769	0.000121	-0.101384
C71	C	0.693103	0.333454	0.231949
C72	C	1.026436	0.666788	0.565282
C73	C	0.427995	0.000111	-0.102481
C74	C	0.761328	0.333444	0.230852
C75	C	1.094661	0.666778	0.564185
C76	C	0.893883	0.656266	-0.101942
C77	C	1.227217	0.989600	0.231391
C78	C	1.560550	1.322933	0.564724
C79	C	0.893877	0.544615	-0.101940
C80	C	1.227210	0.877948	0.231393
C81	C	1.560543	1.211282	0.564726
C82	C	0.893876	0.455624	-0.101935
C83	C	1.227209	0.788958	0.231398
C84	C	1.560542	1.122291	0.564732
C85	C	0.893868	0.343966	-0.101932
C86	C	1.227202	0.677299	0.231401
C87	C	1.560535	1.010633	0.564735
C88	C	1.032268	0.000138	-0.096156
C89	C	1.365601	0.333471	0.237178
C90	C	1.698934	0.666805	0.570511
C91	C	1.116286	0.000144	-0.097494
C92	C	1.449619	0.333477	0.235839
C93	C	1.782953	0.666810	0.569172
C94	C	0.899662	0.000129	0.036451
C95	C	1.232995	0.333463	0.369784
C96	C	1.566328	0.666796	0.703117
C97	C	0.898323	0.000130	0.120469
C98	C	1.231656	0.333463	0.453802
C99	C	1.564990	0.666796	0.787135
N100	N	0.893895	0.745264	-0.101942
N101	N	1.227228	1.078597	0.231392
N102	N	1.560561	1.411931	0.564725
C103	C	0.888102	0.000108	-0.240322
C104	C	1.221435	0.333441	0.093011
C105	C	1.554768	0.666775	0.426345
C106	C	0.889440	0.000101	-0.324340
C107	C	1.222773	0.333435	0.008993
C108	C	1.556107	0.666768	0.342327
C109	C	0.966656	0.000141	0.169090
C110	C	1.299990	0.333474	0.502423
C111	C	1.633323	0.666808	0.835756
C112	C	0.965394	0.000132	0.248033
C113	C	1.298727	0.333466	0.581366
C114	C	1.632061	0.666799	0.914700
C115	C	0.895798	0.000119	0.278354
C116	C	1.229131	0.333452	0.611687
C117	C	1.562464	0.666786	0.945020
C118	C	0.827459	0.000104	0.229727
C119	C	1.160792	0.333438	0.563060
C120	C	1.494126	0.666771	0.896393
C121	C	0.828722	0.000106	0.150785
C122	C	1.162055	0.333440	0.484118
C123	C	1.495389	0.666773	0.817451
C124	C	0.822364	0.000096	0.548090
C125	C	1.155697	0.333429	0.881423
C126	C	1.489030	0.666762	1.214756
C127	C	0.821106	0.000097	0.627038
C128	C	1.154439	0.333430	0.960371
C129	C	1.487773	0.666764	1.293704
C130	C	0.959036	0.000122	0.645338
C131	C	1.292369	0.333455	0.978671
C132	C	1.625703	0.666788	1.312004
C133	C	0.960299	0.000123	0.566396
C134	C	1.293632	0.333457	0.899729
C135	C	1.626966	0.666790	1.233063
C136	C	0.891961	0.000104	0.517776
C137	C	1.225294	0.333437	0.851109
C138	C	1.558627	0.666771	1.184442
C139	C	0.893330	0.000112	0.432177
C140	C	1.226664	0.333445	0.765510
C141	C	1.559997	0.666778	1.098843
C142	C	0.894427	0.000118	0.363951
C143	C	1.227761	0.333451	0.697285
C144	C	1.561094	0.666785	1.030618
H145	H	0.504328	0.000089	-0.229092
H146	H	0.837662	0.333422	0.104241
H147	H	1.170995	0.666755	0.437574
H148	H	0.250232	0.000105	-0.225025
H149	H	0.583566	0.333439	0.108308
H150	H	0.916899	0.666772	0.441641
H151	H	0.537526	0.000138	0.021154
H152	H	0.870859	0.333471	0.354487
H153	H	1.204193	0.666805	0.687820
H154	H	1.023330	0.000158	0.144409
H155	H	1.356663	0.333491	0.477742
H156	H	1.689997	0.666825	0.811076
O157	O	1.032748	0.000139	0.697778
O158	O	1.366082	0.333473	1.031111
O159	O	1.699415	0.666806	1.364444
H160	H	1.035489	-0.066538	0.734171
H161	H	1.368822	0.266795	1.067505
H162	H	1.702156	0.600128	1.400838
O163	O	0.746038	0.000075	0.659745
O164	O	1.079372	0.333408	0.993079
O165	O	1.412705	0.666741	1.326412
H166	H	0.698730	0.000052	0.612675
H167	H	1.032063	0.333385	0.946008
H168	H	1.365396	0.666718	1.279342
O169	O	0.752396	0.000095	0.262433
O170	O	1.085729	0.333428	0.595766
O171	O	1.419062	0.666762	0.929099
H172	H	0.719573	-0.066588	0.242895
H173	H	1.052907	0.266746	0.576229
H174	H	1.386240	0.600079	0.909562
H175	H	0.766718	0.000080	0.508512
H176	H	1.100052	0.333413	0.841845
H177	H	1.433385	0.666747	1.175179
H178	H	1.021038	0.000144	0.287618
H179	H	1.354372	0.333477	0.620951
H180	H	1.687705	0.666810	0.954284
O181	O	0.755021	0.000105	0.098338
O182	O	1.088354	0.333438	0.431671
O183	O	1.421687	0.666771	0.765004
H184	H	0.706413	0.000107	0.132682
H185	H	1.039746	0.333440	0.466015
H186	H	1.373080	0.666773	0.799349
O187	O	0.693602	0.000114	0.036930
O188	O	1.026935	0.333448	0.370263
O189	O	1.360268	0.666781	0.703596
H190	H	0.730000	0.066793	0.039656
H191	H	1.063334	0.400127	0.372989
H192	H	1.396667	0.733460	0.706322
O193	O	0.655559	0.000079	-0.249776
O194	O	0.988892	0.333412	0.083558
O195	O	1.322226	0.666746	0.416891
H196	H	0.608484	0.000090	-0.297079
H197	H	0.941817	0.333423	0.036254
H198	H	1.275150	0.666757	0.369587
O199	O	1.035366	0.000123	0.533697
O200	O	1.368699	0.333457	0.867030
O201	O	1.702032	0.666790	1.200363
H202	H	1.068198	0.066793	0.553247
H203	H	1.401531	0.400127	0.886580
H204	H	1.734864	0.733460	1.219913
O205	O	0.094169	0.000131	-0.240803
O206	O	0.427502	0.333465	0.092531
O207	O	0.760836	0.666798	0.425864
H208	H	0.034181	0.000152	-0.228237
H209	H	0.367514	0.333486	0.105096
H210	H	0.700848	0.666819	0.438430
H211	H	0.283434	0.000151	0.025228
H212	H	0.616767	0.333485	0.358561
H213	H	0.950101	0.666818	0.691894
O214	O	0.132201	0.000171	0.045908
O215	O	0.465534	0.333505	0.379241
O216	O	0.798867	0.666838	0.712574
H217	H	0.179271	0.000193	0.093216
H218	H	0.512604	0.333527	0.426549
H219	H	0.845938	0.666860	0.759883
