data_functionalizedCrystal
_audit_creation_method	'MofGen! by Chris Wilmer'
_symmetry_space_group_name_H-M	'P1'
_symmetry_Int_Tables_number	1
_symmetry_cell_setting	triclinic
loop_
_symmetry_equiv_pos_as_xyz
  x,y,z
_cell_length_a	14.044220
_cell_length_b	15.944545
_cell_length_c	12.503572
_cell_angle_alpha	93.521358
_cell_angle_beta	86.164750
_cell_angle_gamma	88.342525
loop_
_atom_site_label
_atom_site_type_symbol
_atom_site_fract_x
_atom_site_fract_y
_atom_site_fract_z
O1	O	1.263174	0.198062	-0.089215
O2	O	1.596507	0.531395	0.244118
O3	O	1.929840	0.864728	0.577451
O4	O	0.987206	0.190753	-0.089242
O5	O	1.320539	0.524086	0.244091
O6	O	1.653873	0.857419	0.577424
O7	O	1.132728	0.072697	-0.089215
O8	O	1.466062	0.406031	0.244118
O9	O	1.799395	0.739364	0.577451
O10	O	1.117651	0.316117	-0.089242
O11	O	1.450985	0.649451	0.244091
O12	O	1.784318	0.982784	0.577424
O13	O	1.121784	0.081592	0.089425
O14	O	1.455117	0.414925	0.422758
O15	O	1.788451	0.748258	0.756091
O16	O	0.976262	0.199647	0.089398
O17	O	1.309595	0.532981	0.422731
O18	O	1.642928	0.866314	0.756064
O19	O	1.252230	0.206956	0.089424
O20	O	1.585563	0.540290	0.422758
O21	O	1.918896	0.873623	0.756091
Cu22	Cu	1.113246	0.204114	0.105722
Cu23	Cu	1.446580	0.537447	0.439056
Cu24	Cu	1.779913	0.870781	0.772389
Cu25	Cu	1.126189	0.193595	-0.105540
Cu26	Cu	1.459522	0.526928	0.227793
Cu27	Cu	1.792856	0.860262	0.561127
O28	O	1.106707	0.325012	0.089398
O29	O	1.440041	0.658345	0.422731
O30	O	1.773374	0.991678	0.756064
C31	C	0.946419	0.192001	0.000074
C32	C	1.279753	0.525335	0.333408
C33	C	1.613086	0.858668	0.666741
C34	C	0.841194	0.182459	0.000065
C35	C	1.174527	0.515793	0.333398
C36	C	1.507861	0.849126	0.666731
C37	C	0.648530	0.165017	0.000088
C38	C	0.981864	0.498350	0.333421
C39	C	1.315197	0.831684	0.666755
C40	C	0.590900	0.232688	0.000085
C41	C	0.924233	0.566021	0.333418
C42	C	1.257567	0.899354	0.666752
C43	C	0.483695	0.222983	0.000098
C44	C	0.817029	0.556316	0.333431
C45	C	1.150362	0.889649	0.666764
C46	C	0.755745	0.174721	0.000075
C47	C	1.089078	0.508054	0.333408
C48	C	1.422412	0.841388	0.666742
C49	C	1.126631	0.045804	0.000106
C50	C	1.459964	0.379137	0.333439
C51	C	1.793298	0.712470	0.666772
C52	C	1.124758	-0.047583	0.000108
C53	C	1.458091	0.285751	0.333442
C54	C	1.791424	0.619084	0.666775
C55	C	1.028959	-0.325390	0.000077
C56	C	1.362292	0.007943	0.333411
C57	C	1.695625	0.341276	0.666744
C58	C	1.080542	-0.275732	-0.087997
C59	C	1.413875	0.057602	0.245336
C60	C	1.747209	0.390935	0.578669
C61	C	1.118078	-0.383728	0.000077
C62	C	1.451411	-0.050395	0.333411
C63	C	1.784745	0.282938	0.666744
C64	C	1.069776	-0.266988	0.088127
C65	C	1.403109	0.066346	0.421461
C66	C	1.736442	0.399679	0.754794
C67	C	1.121355	-0.218569	0.000094
C68	C	1.454688	0.114765	0.333428
C69	C	1.788022	0.448098	0.666761
C70	C	1.169642	-0.335303	-0.088070
C71	C	1.502975	-0.001970	0.245263
C72	C	1.836309	0.331363	0.578596
C73	C	1.158858	-0.326560	0.088134
C74	C	1.492191	0.006773	0.421467
C75	C	1.825524	0.340107	0.754800
C76	C	1.210508	-0.276930	0.000037
C77	C	1.543841	0.056403	0.333371
C78	C	1.877174	0.389736	0.666704
C79	C	1.116188	-0.478873	0.000066
C80	C	1.449521	-0.145539	0.333400
C81	C	1.782855	0.187794	0.666733
C82	C	1.123253	-0.123427	0.000097
C83	C	1.456586	0.209906	0.333431
C84	C	1.789919	0.543240	0.666764
C85	C	1.293016	0.205708	0.000105
C86	C	1.626350	0.539041	0.333439
C87	C	1.959683	0.872374	0.666772
C88	C	1.398242	0.215249	0.000108
C89	C	1.731576	0.548582	0.333441
C90	C	2.064909	0.881916	0.666775
C91	C	1.112804	0.351905	0.000074
C92	C	1.446138	0.685239	0.333408
C93	C	1.779471	1.018572	0.666741
C94	C	1.114679	0.445291	0.000064
C95	C	1.448012	0.778625	0.333398
C96	C	1.781345	1.111958	0.666731
N97	N	1.104150	0.211512	0.254313
N98	N	1.437483	0.544846	0.587646
N99	N	1.770817	0.878179	0.920980
N100	N	1.135293	0.186191	-0.254131
N101	N	1.468626	0.519524	0.079203
N102	N	1.801960	0.852857	0.412536
C103	C	1.090769	0.222403	0.473426
C104	C	1.424102	0.555736	0.806759
C105	C	1.757436	0.889069	1.140092
C106	C	1.148671	0.175303	0.526763
C107	C	1.482004	0.508636	0.860097
C108	C	1.815338	0.841969	1.193430
C109	C	1.141225	0.181362	0.648685
C110	C	1.474559	0.514696	0.982019
C111	C	1.807892	0.848029	1.315352
C112	C	1.098213	0.216344	0.351493
C113	C	1.431547	0.549677	0.684826
C114	C	1.764880	0.883011	1.018159
H115	H	0.617358	0.099799	0.000101
H116	H	0.950691	0.433132	0.333434
H117	H	1.284025	0.766465	0.666768
H118	H	0.952214	-0.346794	-0.000016
H119	H	1.285547	-0.013461	0.333317
H120	H	1.618880	0.319872	0.666650
H121	H	1.047467	-0.253323	-0.162466
H122	H	1.380800	0.080010	0.170867
H123	H	1.714133	0.413343	0.504201
C124	C	0.633014	0.320802	0.000056
C125	C	0.966347	0.654135	0.333389
C126	C	1.299680	0.987469	0.666722
N127	N	0.664739	0.387167	0.000028
N128	N	0.998072	0.720500	0.333361
N129	N	1.331405	1.053833	0.666694
H130	H	1.203834	0.130429	0.480861
H131	H	1.537168	0.463762	0.814194
H132	H	1.870501	0.797096	1.147527
H133	H	1.211818	-0.365005	-0.162613
H134	H	1.545152	-0.031672	0.170720
H135	H	1.878485	0.301662	0.504054
H136	H	1.287320	-0.255690	-0.000005
H137	H	1.620654	0.077643	0.333328
H138	H	1.953987	0.410976	0.666662
H139	H	1.191900	-0.348986	0.162605
H140	H	1.525233	-0.015653	0.495938
H141	H	1.858566	0.317681	0.829272
C142	C	1.016249	0.283021	0.535435
C143	C	1.349583	0.616354	0.868768
C144	C	1.682916	0.949688	1.202102
N145	N	0.960122	0.328678	0.582153
N146	N	1.293456	0.662012	0.915486
N147	N	1.626789	0.995345	1.248819
C148	C	1.012748	-0.226730	0.188720
C149	C	1.346082	0.106604	0.522054
C150	C	1.679415	0.439937	0.855387
N151	N	0.969789	-0.196411	0.264484
N152	N	1.303123	0.136923	0.597817
N153	N	1.636456	0.470256	0.931150
