data_functionalizedCrystal
_audit_creation_method	'MofGen! by Chris Wilmer'
_symmetry_space_group_name_H-M	'P1'
_symmetry_Int_Tables_number	1
_symmetry_cell_setting	triclinic
loop_
_symmetry_equiv_pos_as_xyz
  x,y,z
_cell_length_a	19.188930
_cell_length_b	23.532407
_cell_length_c	18.266242
_cell_angle_alpha	89.988983
_cell_angle_beta	89.977082
_cell_angle_gamma	82.996728
loop_
_atom_site_label
_atom_site_type_symbol
_atom_site_fract_x
_atom_site_fract_y
_atom_site_fract_z
O1	O	0.925922	0.071102	-0.061124
O2	O	0.722581	0.080673	-0.061074
O3	O	0.830383	-0.007031	-0.061087
O4	O	0.818120	0.158806	-0.061111
O5	O	0.830365	-0.007035	0.060675
O6	O	0.722562	0.080669	0.060688
O7	O	0.925904	0.071097	0.060638
Zn8	Zn	0.824230	0.075882	0.079995
Zn9	Zn	0.824254	0.075888	-0.080431
O10	O	0.818102	0.158802	0.060651
C11	C	0.696561	0.080361	-0.000187
C12	C	0.619060	0.079431	-0.000168
C13	C	0.830062	-0.028250	-0.000204
C14	C	0.829123	-0.091469	-0.000198
C15	C	0.573972	0.130893	-0.000187
C16	C	0.501151	0.130019	-0.000194
C17	C	0.473421	0.077680	-0.000198
C18	C	0.518519	0.026211	-0.000175
C19	C	0.591339	0.027086	-0.000160
N20	N	0.365575	0.037674	-0.041663
N21	N	0.296399	0.036846	-0.041679
C22	C	0.254021	0.075038	-0.000243
N23	N	0.283431	0.114099	0.041201
N24	N	0.352613	0.114929	0.041214
C25	C	0.394462	0.076724	-0.000214
C26	C	0.129971	0.125556	-0.000269
C27	C	0.057149	0.124680	-0.000272
C28	C	0.074520	0.020870	-0.000260
C29	C	0.147340	0.021748	-0.000250
C30	C	0.175061	0.074092	-0.000257
C31	C	0.887029	-0.490449	-0.000252
C32	C	0.886157	-0.549851	-0.000258
O33	O	0.939837	-0.586482	-0.000298
N34	N	0.822068	-0.572613	-0.000242
C35	C	0.758848	-0.535970	-0.000228
O36	O	0.704255	-0.560786	-0.000215
C37	C	0.759721	-0.476569	-0.000228
C38	C	0.823814	-0.453810	-0.000236
C39	C	0.951117	-0.467690	-0.000262
C40	C	0.951989	-0.408292	-0.000255
C41	C	0.888773	-0.371653	-0.000239
C42	C	0.824685	-0.394412	-0.000230
C43	C	0.696501	-0.439927	-0.000219
C44	C	0.697379	-0.380523	-0.000219
C45	C	0.761472	-0.357764	-0.000228
C46	C	0.762342	-0.298376	-0.000207
N47	N	0.826430	-0.275614	-0.000223
C48	C	0.889646	-0.312252	-0.000239
C49	C	0.757019	-0.660717	-0.000229
C50	C	0.756146	-0.720116	-0.000224
C51	C	0.883455	-0.733993	-0.000256
C52	C	0.884328	-0.674592	-0.000255
C53	C	0.821108	-0.637954	-0.000245
C54	C	0.891472	-0.187512	-0.000224
C55	C	0.892339	-0.128108	-0.000214
C56	C	0.765029	-0.114236	-0.000187
C57	C	0.764163	-0.173634	-0.000193
C58	C	0.827390	-0.210272	-0.000214
O59	O	0.708690	-0.261710	-0.000170
O60	O	0.944230	-0.287428	-0.000261
C61	C	0.951923	0.071410	-0.000251
C62	C	1.029425	0.072340	-0.000275
C63	C	0.818423	0.180021	-0.000234
C64	C	0.819362	0.243240	-0.000244
N65	N	0.824219	0.075878	0.189482
N66	N	0.824271	0.075888	-0.189918
C67	C	0.871970	0.037062	0.227785
C68	C	0.871974	0.037059	0.304430
C69	C	0.824235	0.075883	0.342769
C70	C	0.776475	0.114702	0.304457
C71	C	0.776468	0.114700	0.227813
N72	N	0.814998	0.126298	0.463096
N73	N	0.815010	0.126298	0.535904
C74	C	0.824254	0.075891	0.573691
N75	N	0.833500	0.025481	0.535921
N76	N	0.833492	0.025482	0.463106
C77	C	0.824238	0.075889	0.425876
C78	C	0.872012	0.037068	0.695102
C79	C	0.872012	0.037065	0.771748
C80	C	0.776516	0.114713	0.771773
C81	C	0.776513	0.114711	0.695128
C82	C	0.824265	0.075890	0.656797
H83	H	0.596537	0.173516	-0.000194
C84	C	0.724605	0.156891	0.813256
C85	C	0.682775	0.190879	0.763302
C86	C	0.634937	0.229734	0.801492
H87	H	0.749473	0.180603	0.843138
H88	H	0.695649	0.136477	0.843159
H89	H	0.711727	0.211291	0.733411
H90	H	0.657891	0.167182	0.733418
H91	H	0.605981	0.209319	0.831396
H92	H	0.659812	0.253442	0.831373
H93	H	0.606546	0.252795	0.767605
H94	H	0.495937	-0.016404	-0.000188
H95	H	0.910894	0.005453	0.802935
H96	H	0.628050	-0.014822	-0.000145
C97	C	0.008308	0.180618	-0.000328
C98	C	0.048176	0.226643	-0.000352
C99	C	0.003207	0.278182	-0.000413
H100	H	-0.020498	0.182517	0.042117
H101	H	-0.020428	0.182464	-0.042811
H102	H	0.076900	0.224798	0.042127
H103	H	0.076981	0.224763	-0.042793
H104	H	-0.025529	0.280028	-0.042896
H105	H	-0.025597	0.280075	0.042033
H106	H	0.030251	0.309416	-0.000436
C107	C	0.960097	-0.227311	-0.000393
C108	C	0.963345	-0.261798	-0.063049
C109	C	1.026554	-0.298462	-0.063230
H110	H	0.962466	-0.250833	0.042016
H111	H	0.998405	-0.205261	-0.000436
H112	H	0.925047	-0.283845	-0.063000
H113	H	0.960988	-0.238291	-0.105469
H114	H	1.064862	-0.276413	-0.063273
H115	H	1.028917	-0.321980	-0.020818
H116	H	1.028769	-0.321862	-0.105744
C117	C	0.724547	0.156759	0.186182
C118	C	0.682007	0.126508	0.142222
C119	C	0.634167	0.165235	0.103867
H120	H	0.749414	0.180430	0.156206
H121	H	0.696073	0.179873	0.219966
H122	H	0.710478	0.103403	0.108443
H123	H	0.657125	0.102839	0.172180
H124	H	0.605692	0.188349	0.137650
H125	H	0.659040	0.188904	0.073895
H126	H	0.605293	0.144715	0.074041
C127	C	0.923976	-0.004973	0.653470
C128	C	0.966508	0.025309	0.609489
C129	C	1.014413	-0.013391	0.571150
H130	H	0.899158	-0.028668	0.623509
H131	H	0.952450	-0.028066	0.687263
H132	H	0.938038	0.048392	0.575700
H133	H	0.991342	0.049001	0.639431
H134	H	1.042887	-0.036484	0.604943
H135	H	0.989589	-0.037084	0.541194
H136	H	1.043281	0.007149	0.541310
H137	H	0.464433	0.171927	-0.000208
C138	C	0.160117	0.182367	-0.000415
C139	C	0.201434	0.185914	-0.063060
C140	C	0.229206	0.238242	-0.063222
H141	H	0.188188	0.184916	0.042002
H142	H	0.122852	0.212910	-0.000459
H143	H	0.238694	0.155380	-0.063009
H144	H	0.173378	0.183375	-0.105487
H145	H	0.191941	0.268785	-0.063266
H146	H	0.257274	0.240787	-0.020802
H147	H	0.257238	0.240658	-0.105729
H148	H	0.051943	-0.021745	-0.000309
C149	C	0.686487	-0.744711	-0.000244
C150	C	0.631317	-0.699904	-0.000246
C151	C	0.567135	-0.722536	-0.000278
H152	H	0.683390	-0.767594	0.042204
H153	H	0.683465	-0.767569	-0.042724
H154	H	0.634337	-0.677055	0.042230
H155	H	0.634390	-0.677017	-0.042690
H156	H	0.564114	-0.745394	-0.042759
H157	H	0.564046	-0.745419	0.042170
H158	H	0.529695	-0.692138	-0.000287
C159	C	0.196182	-0.034188	-0.000275
C160	C	0.156315	-0.080213	-0.000299
C161	C	0.201284	-0.131752	-0.000330
H162	H	0.224943	-0.036087	0.042180
H163	H	0.224963	-0.036033	-0.042748
H164	H	0.127546	-0.078369	0.042169
H165	H	0.127556	-0.078332	-0.042751
H166	H	0.230066	-0.133597	-0.042802
H167	H	0.230043	-0.133646	0.042126
H168	H	0.174241	-0.162986	-0.000353
C169	C	0.688396	-0.620913	-0.000358
C170	C	0.685169	-0.586405	-0.063009
C171	C	0.621961	-0.549740	-0.063158
H172	H	0.686014	-0.597404	0.042055
H173	H	0.650087	-0.642961	-0.000387
H174	H	0.723468	-0.564358	-0.062973
H175	H	0.687540	-0.609897	-0.105432
H176	H	0.583652	-0.571788	-0.063187
H177	H	0.619584	-0.526235	-0.020743
H178	H	0.619761	-0.526325	-0.105669
H179	H	0.644310	-0.458446	-0.000216
C180	C	0.724788	0.156892	0.653445
C181	C	0.761734	0.191669	0.609403
C182	C	0.714105	0.230529	0.570988
H183	H	0.696337	0.180070	0.687171
H184	H	0.695873	0.136481	0.623524
H185	H	0.790636	0.212079	0.639321
H186	H	0.790182	0.168507	0.575664
H187	H	0.685190	0.210118	0.541067
H188	H	0.685657	0.253703	0.604719
H189	H	0.739166	0.254126	0.541096
C190	C	0.628663	-0.340839	-0.000171
C191	C	0.572353	-0.373490	-0.000146
C192	C	0.509042	-0.336955	-0.000090
H193	H	0.626264	-0.317358	-0.042618
H194	H	0.626307	-0.317394	0.042310
H195	H	0.574707	-0.396926	-0.042622
H196	H	0.574728	-0.396971	0.042298
H197	H	0.506686	-0.313510	0.042390
H198	H	0.506651	-0.313476	-0.042538
H199	H	0.470828	-0.359103	-0.000067
C200	C	0.962001	-0.103510	-0.000265
C201	C	1.017173	-0.148315	-0.000303
C202	C	1.081353	-0.125680	-0.000360
H203	H	0.965084	-0.080643	0.042186
H204	H	0.965032	-0.080635	-0.042742
H205	H	1.014143	-0.171181	0.042170
H206	H	1.014113	-0.171185	-0.042750
H207	H	1.084384	-0.102805	-0.042837
H208	H	1.084429	-0.102814	0.042091
H209	H	1.118795	-0.156076	-0.000393
C210	C	0.923839	-0.005155	0.186302
C211	C	0.965645	-0.039161	0.236258
C212	C	1.013427	-0.078063	0.198069
H213	H	0.952822	0.015204	0.156377
H214	H	0.898904	-0.028846	0.156442
H215	H	0.990578	-0.015473	0.266105
H216	H	0.936681	-0.059533	0.266185
H217	H	0.988492	-0.101754	0.168209
H218	H	1.042405	-0.057698	0.168145
H219	H	1.041794	-0.101144	0.231958
C220	C	1.021649	-0.383698	-0.000309
C221	C	1.076816	-0.428508	-0.000345
C222	C	1.140999	-0.405879	-0.000406
H223	H	1.024736	-0.360830	0.042140
H224	H	1.024682	-0.360825	-0.042788
H225	H	1.073783	-0.451371	0.042130
H226	H	1.073751	-0.451379	-0.042791
H227	H	1.144033	-0.383006	-0.042885
H228	H	1.144080	-0.383011	0.042043
H229	H	1.178438	-0.436278	-0.000438
C230	C	1.019737	-0.507490	-0.000428
C231	C	1.022988	-0.541981	-0.063081
C232	C	1.086200	-0.578642	-0.063258
H233	H	1.022109	-0.531010	0.041983
H234	H	1.058044	-0.485438	-0.000474
H235	H	0.984692	-0.564031	-0.063028
H236	H	1.020629	-0.518477	-0.105503
H237	H	1.124506	-0.556590	-0.063304
H238	H	1.088566	-0.602158	-0.020844
H239	H	1.088417	-0.602045	-0.105770
C240	C	0.724564	0.156879	0.345946
C241	C	0.682729	0.190864	0.295992
C242	C	0.634890	0.229717	0.334184
H243	H	0.749431	0.180593	0.375826
H244	H	0.695611	0.136463	0.375850
H245	H	0.711678	0.211278	0.266100
H246	H	0.657847	0.167165	0.266110
H247	H	0.605937	0.209301	0.364088
H248	H	0.659763	0.253427	0.364063
H249	H	0.606495	0.252776	0.300296
H250	H	0.934929	-0.763836	-0.000272
C251	C	0.694506	-0.198237	-0.000219
C252	C	0.639332	-0.153433	-0.000220
C253	C	0.575153	-0.176071	-0.000264
H254	H	0.691408	-0.221125	0.042224
H255	H	0.691491	-0.221092	-0.042704
H256	H	0.642345	-0.130589	0.042260
H257	H	0.642406	-0.130542	-0.042660
H258	H	0.572138	-0.198925	-0.042748
H259	H	0.572062	-0.198958	0.042180
H260	H	0.537710	-0.145675	-0.000271
C261	C	0.923857	-0.004996	0.346118
C262	C	0.966373	0.025261	0.390100
C263	C	1.014169	-0.013461	0.428515
H264	H	0.952360	-0.028132	0.312393
H265	H	0.898934	-0.028647	0.376081
H266	H	0.991294	0.048902	0.360139
H267	H	0.937890	0.048395	0.423838
H268	H	0.989246	-0.037111	0.458478
H269	H	1.042667	-0.036595	0.394785
H270	H	1.043017	0.007063	0.458366
H271	H	0.936518	-0.656067	-0.000263
H272	H	0.713561	-0.084394	-0.000171
