data_functionalizedCrystal
_audit_creation_method	'MofGen! by Chris Wilmer'
_symmetry_space_group_name_H-M	'P1'
_symmetry_Int_Tables_number	1
_symmetry_cell_setting	triclinic
loop_
_symmetry_equiv_pos_as_xyz
  x,y,z
_cell_length_a	11.804673
_cell_length_b	17.699083
_cell_length_c	17.699083
_cell_angle_alpha	83.283015
_cell_angle_beta	76.679533
_cell_angle_gamma	76.697554
loop_
_atom_site_label
_atom_site_type_symbol
_atom_site_fract_x
_atom_site_fract_y
_atom_site_fract_z
O1	O	0.098858	-1.017658	-0.109308
O2	O	0.098897	-0.797285	-0.121765
O3	O	0.098866	-0.913696	-0.005346
O4	O	0.098889	-0.901247	-0.225727
O5	O	-0.099179	-0.886476	0.021896
O6	O	-0.099148	-0.770065	-0.094524
O7	O	-0.099187	-0.990438	-0.082066
Cu8	Cu	-0.117251	-0.877766	-0.085808
Cu9	Cu	0.116961	-0.909957	-0.118024
O10	O	-0.099156	-0.874027	-0.198486
C11	C	-0.000120	-0.755479	-0.107699
C12	C	-0.000106	-0.671463	-0.106363
C13	C	-0.000157	-0.899640	0.036472
C14	C	-0.000157	-0.898301	0.120490
N15	N	-0.281982	-0.855130	-0.063148
C16	C	-0.344306	-0.800750	-0.008724
C17	C	-0.468961	-0.783613	0.008421
C18	C	-0.531304	-0.820858	-0.028852
C19	C	-0.468980	-0.875243	-0.083273
C20	C	-0.344313	-0.892378	-0.100424
C21	C	-0.531310	-0.912486	-0.120552
C22	C	-0.468986	-0.966871	-0.174973
C23	C	-0.344331	-0.984004	-0.192121
C24	C	-0.281988	-0.946758	-0.154848
C25	C	-0.655977	-0.895351	-0.103401
C26	C	-0.655984	-0.986979	-0.195102
C27	C	-0.531329	-1.004117	-0.212246
N28	N	0.281692	-0.932599	-0.140678
C29	C	-0.000167	-1.032245	-0.096133
C30	C	-0.000174	-1.116262	-0.097470
C31	C	-0.000099	-0.622843	-0.174697
C32	C	-0.000114	-0.543897	-0.173432
C33	C	-0.000128	-0.513575	-0.103834
C34	C	-0.000139	-0.562200	-0.035494
C35	C	-0.000132	-0.641143	-0.036758
C36	C	-0.000169	-0.243833	-0.030395
C37	C	-0.000172	-0.164885	-0.029136
C38	C	-0.000151	-0.146587	-0.167069
C39	C	-0.000144	-0.225530	-0.168333
C40	C	-0.000161	-0.274148	-0.099993
C41	C	-0.000146	-0.359749	-0.101364
C42	C	-0.000134	-0.427976	-0.102463
C43	C	-0.000131	-0.888084	-0.240304
C44	C	-0.000123	-0.889423	-0.324323
C45	C	-0.000171	-0.966633	0.169113
C46	C	-0.000160	-0.965372	0.248055
C47	C	-0.000144	-0.895778	0.278374
C48	C	-0.000126	-0.827442	0.229744
C49	C	-0.000129	-0.828704	0.150802
C50	C	-0.000116	-0.822348	0.548106
C51	C	-0.000117	-0.821090	0.627054
C52	C	-0.000147	-0.959016	0.645358
C53	C	-0.000149	-0.960278	0.566417
C54	C	-0.000126	-0.891943	0.517793
C55	C	-0.000135	-0.893312	0.432195
C56	C	-0.000143	-0.894408	0.363971
H57	H	-0.706710	-0.851070	-0.059092
N58	N	-0.665752	-0.802469	-0.010098
H59	H	-0.695973	-0.745294	-0.022895
H60	H	-0.695289	-0.815547	0.047111
H61	H	-0.706743	-1.017304	-0.225456
H62	H	-0.519697	-0.739332	0.052730
N63	N	-0.000176	-1.035339	0.533717
H64	H	-0.000182	-1.078437	0.576499
H65	H	0.073239	-1.048957	0.491259
H66	H	-0.000117	-0.773062	0.111214
H67	H	-0.000097	-0.766705	0.508525
H68	H	-0.000087	-0.647525	-0.231372
H69	H	-0.293536	-0.770427	0.021614
H70	H	-0.000185	-0.140199	0.027543
N71	N	-0.000118	-0.752375	0.262439
H72	H	0.073303	-0.732535	0.234598
H73	H	-0.000169	-0.761997	0.319828
N74	N	-0.147535	-0.965250	-0.173336
H75	H	-0.117505	-0.933406	-0.141460
H76	H	-0.117585	-0.952311	-0.230522
H77	H	-0.000107	-0.504314	-0.229077
H78	H	-0.000183	-0.283409	0.025253
H79	H	-0.293590	-1.028282	-0.236440
N80	N	-0.464103	-1.062775	-0.270940
H81	H	-0.375674	-1.067977	-0.276145
H82	H	-0.485880	-1.044726	-0.323011
H83	H	-0.000144	-0.106992	-0.222714
H84	H	-0.000167	-0.537503	0.021177
N85	N	-0.000148	-0.693586	0.036946
H86	H	-0.000157	-0.662400	0.081229
H87	H	0.073269	-0.736824	0.029331
N88	N	-0.000199	-1.041695	0.136417
H89	H	-0.000205	-1.084791	0.179200
H90	H	0.073215	-1.055315	0.093959
N91	N	-0.000173	-1.032723	0.697802
H92	H	-0.000166	-1.021368	0.752412
H93	H	0.073234	-1.073154	0.677898
H94	H	-0.000174	-1.021014	0.287641
H95	H	-0.000128	-0.250215	-0.225008
H96	H	-0.000106	-0.764414	0.651736
