data_functionalizedCrystal
_audit_creation_method	'MofGen! by Chris Wilmer'
_symmetry_space_group_name_H-M	'P1'
_symmetry_Int_Tables_number	1
_symmetry_cell_setting	triclinic
loop_
_symmetry_equiv_pos_as_xyz
  x,y,z
_cell_length_a	14.853566
_cell_length_b	17.038272
_cell_length_c	13.930277
_cell_angle_alpha	89.995405
_cell_angle_beta	89.995631
_cell_angle_gamma	87.372985
loop_
_atom_site_label
_atom_site_type_symbol
_atom_site_fract_x
_atom_site_fract_y
_atom_site_fract_z
O1	O	1.204051	0.102081	-0.079768
O2	O	0.942507	0.114243	-0.079784
O3	O	1.071724	-0.005655	-0.079769
O4	O	1.074833	0.221980	-0.079784
O5	O	1.071705	-0.005658	0.079893
O6	O	0.942487	0.114241	0.079878
O7	O	1.204032	0.102079	0.079894
Zn8	Zn	1.073256	0.108159	0.105236
Zn9	Zn	1.073282	0.108163	-0.105126
O10	O	1.074814	0.221977	0.079878
C11	C	0.908867	0.113691	0.000045
C12	C	0.808659	0.112040	0.000039
C13	C	0.384959	0.105059	-0.086975
C14	C	0.384959	0.105057	0.087094
C15	C	0.479110	0.106607	0.087091
C16	C	0.526189	0.107385	0.000054
C17	C	0.479118	0.106612	-0.086981
C18	C	0.526188	0.107388	0.174124
C19	C	0.620344	0.108939	0.174125
C20	C	0.667426	0.109711	0.087086
C21	C	0.620349	0.108937	0.000048
C22	C	0.667428	0.109715	-0.086990
C23	C	0.620353	0.108935	-0.174029
C24	C	0.526200	0.107384	-0.174020
C25	C	0.761579	0.111263	0.087077
C26	C	0.761588	0.111267	-0.086996
C27	C	1.068887	-0.034788	0.000062
C28	C	1.060451	-0.121592	0.000061
C29	C	1.137904	-0.171605	0.000067
C30	C	1.129972	-0.253166	0.000057
C31	C	1.044586	-0.284713	0.000049
C32	C	0.967127	-0.234694	0.000040
C33	C	0.975060	-0.153134	0.000043
C34	C	1.016561	-0.530507	0.000034
C35	C	1.008634	-0.612073	0.000034
C36	C	1.171480	-0.630540	0.000050
C37	C	1.179405	-0.548978	0.000058
C38	C	1.101946	-0.498966	0.000044
C39	C	1.036476	-0.368081	0.000042
C40	C	1.110057	-0.415600	0.000044
C41	C	1.237671	0.102631	0.000063
C42	C	1.337879	0.104282	0.000062
C43	C	1.077651	0.251110	0.000045
C44	C	1.086087	0.337914	0.000040
N45	N	1.073245	0.108156	0.248802
N46	N	1.073299	0.108159	-0.248692
C47	C	1.016060	0.161233	0.701064
C48	C	1.130528	0.055086	0.701047
C49	C	1.130517	0.055084	0.600551
C50	C	1.073278	0.108157	0.550307
C51	C	1.016050	0.161233	0.600559
C52	C	1.187751	0.002014	0.550292
C53	C	1.187743	0.002010	0.449790
C54	C	1.130498	0.055081	0.399544
C55	C	1.073267	0.108158	0.449802
C56	C	1.016028	0.161232	0.399558
C57	C	0.958791	0.214306	0.449814
C58	C	0.958805	0.214304	0.550313
C59	C	1.130485	0.055083	0.299046
C60	C	1.016017	0.161232	0.299053
H61	H	0.487863	0.106748	-0.244882
O62	O	1.255018	-0.684485	0.000061
H63	H	1.315724	-0.648846	0.000074
O64	O	0.916535	-0.646103	0.000014
H65	H	0.864005	-0.597625	-0.000006
O66	O	0.812350	0.112106	0.180944
H67	H	0.851290	0.166068	0.185096
O68	O	0.933020	-0.476570	0.000044
H69	H	0.872316	-0.512211	0.000055
H70	H	0.658665	0.109572	0.244997
O71	O	0.944385	-0.402112	0.000038
H72	H	0.891852	-0.353636	0.000032
O73	O	0.875032	-0.268718	0.000042
H74	H	0.867530	-0.305439	-0.065027
O75	O	0.334201	0.104216	-0.180855
H76	H	0.287355	0.156761	-0.185034
H77	H	1.193043	-0.293884	0.000064
H78	H	0.911989	-0.112414	0.000038
H79	H	1.177135	0.011879	0.741959
H80	H	1.179578	-0.389911	0.000030
O81	O	0.954282	0.218479	0.244861
H82	H	0.914493	0.255385	0.296693
H83	H	0.912191	0.257522	0.408894
O84	O	0.334147	0.104787	0.180965
H85	H	0.260753	0.103781	0.166346
O86	O	0.897085	0.271554	0.604514
H87	H	0.906721	0.262644	0.682838
H88	H	0.969456	0.204443	0.741985
H89	H	0.487848	0.106760	0.244985
O90	O	1.249487	-0.055226	0.604478
H91	H	1.239870	-0.046315	0.682804
O92	O	1.249461	-0.055239	0.395586
H93	H	1.289258	-0.092148	0.447410
O94	O	1.271507	-0.514966	0.000059
H95	H	1.279016	-0.478261	0.065140
O96	O	1.192194	-0.002159	0.244827
H97	H	1.263250	0.007906	0.264089
O98	O	0.812370	0.112102	-0.180871
H99	H	0.790354	0.165057	-0.222610
O100	O	0.671142	0.109764	-0.267901
H101	H	0.710093	0.163720	-0.272067
O102	O	1.230000	-0.137581	0.000067
H103	H	1.282524	-0.186063	0.000057
