data_functionalizedCrystal
_audit_creation_method	'MofGen! by Chris Wilmer'
_symmetry_space_group_name_H-M	'P1'
_symmetry_Int_Tables_number	1
_symmetry_cell_setting	triclinic
loop_
_symmetry_equiv_pos_as_xyz
  x,y,z
_cell_length_a	17.699104
_cell_length_b	17.699092
_cell_length_c	14.586319
_cell_angle_alpha	89.997896
_cell_angle_beta	89.995610
_cell_angle_gamma	83.288943
loop_
_atom_site_label
_atom_site_type_symbol
_atom_site_fract_x
_atom_site_fract_y
_atom_site_fract_z
O1	O	1.004068	0.095785	-0.076255
O2	O	0.783692	0.108221	-0.076253
O3	O	0.900103	-0.008185	-0.076252
O4	O	0.887657	0.212191	-0.076256
O5	O	0.900095	-0.008187	0.076229
O6	O	0.783684	0.108219	0.076228
O7	O	1.004060	0.095783	0.076225
Cu8	Cu	0.893871	0.102001	0.090149
Cu9	Cu	0.893881	0.102003	-0.090177
O10	O	0.887649	0.212189	0.076225
C11	C	0.755491	0.107772	-0.000012
C12	C	0.671474	0.106427	-0.000011
C13	C	0.146605	0.167170	-0.000022
C14	C	0.225548	0.168430	-0.000025
C15	C	0.274164	0.100095	-0.000023
C16	C	0.243832	0.030496	-0.000028
C17	C	0.164890	0.029238	-0.000032
C18	C	0.562198	0.035569	-0.000014
C19	C	0.641145	0.036833	-0.000007
C20	C	0.622857	0.174761	-0.000006
C21	C	0.543915	0.173503	-0.000010
C22	C	0.513590	0.103905	-0.000020
C23	C	0.427990	0.102540	-0.000019
C24	C	0.359762	0.101458	-0.000018
C25	C	0.899652	-0.036383	-0.000013
C26	C	0.898311	-0.120401	-0.000017
C27	C	0.897687	-0.159868	-0.083136
C28	C	0.896422	-0.238811	-0.083137
C29	C	0.895786	-0.278286	-0.000018
C30	C	0.896408	-0.238814	0.083106
C31	C	0.897667	-0.159872	0.083106
C32	C	0.891328	-0.557179	0.083108
C33	C	0.890070	-0.636128	0.083101
C34	C	0.890082	-0.636118	-0.083135
C35	C	0.891341	-0.557176	-0.083135
C36	C	0.891959	-0.517710	-0.000011
C37	C	0.893329	-0.432111	-0.000011
C38	C	0.894421	-0.363885	-0.000018
C39	C	1.032260	0.096232	-0.000017
C40	C	1.116278	0.097577	-0.000024
C41	C	0.888100	0.240387	-0.000016
C42	C	0.889441	0.324405	-0.000018
N43	N	0.893870	0.101999	0.216981
N44	N	0.893888	0.101999	-0.217009
C45	C	0.945433	0.050472	0.451988
C46	C	0.945436	0.050470	0.547969
C47	C	0.842319	0.153529	0.547978
C48	C	0.842313	0.153526	0.451998
C49	C	0.893875	0.101999	0.404006
C50	C	0.893882	0.101999	0.595967
C51	C	0.893884	0.101998	0.700034
C52	C	0.893872	0.101999	0.299932
H53	H	0.504335	0.229148	-0.000007
C54	C	0.892020	-0.513778	0.174540
H55	H	0.891472	-0.548599	0.224039
H56	H	0.848394	-0.477133	0.178006
H57	H	0.936637	-0.488835	0.177991
C58	C	1.002148	-0.006209	0.600750
H59	H	0.994763	0.001165	0.664786
H60	H	1.052643	0.001949	0.585014
H61	H	0.994015	-0.056714	0.585021
H62	H	0.889575	-0.668261	-0.150819
H63	H	0.800325	0.195486	0.412929
C64	C	0.785612	0.210211	0.600773
H65	H	0.793004	0.202840	0.664807
H66	H	0.735115	0.202056	0.585055
H67	H	0.793746	0.260716	0.585034
H68	H	0.891863	-0.525039	-0.150819
C69	C	0.656216	0.251319	-0.000009
H70	H	0.710194	0.242285	-0.000018
H71	H	0.639519	0.279448	0.053164
H72	H	0.639524	0.279448	-0.053190
H73	H	0.895886	-0.270961	0.150783
H74	H	0.898165	-0.127738	0.150790
C75	C	0.093131	0.242338	-0.000023
H76	H	0.041771	0.231624	-0.000017
H77	H	0.102318	0.270882	-0.053195
H78	H	0.102309	0.270878	0.053158
C79	C	0.258905	0.244982	-0.000010
H80	H	0.218645	0.285499	0.000002
H81	H	0.289326	0.248349	-0.053180
H82	H	0.289314	0.248332	0.053173
C83	C	0.889363	-0.679552	0.174533
H84	H	0.888532	-0.732221	0.162624
H85	H	0.845445	-0.660770	0.208681
H86	H	0.933688	-0.672466	0.208691
C87	C	0.694625	-0.038337	-0.000013
H88	H	0.745983	-0.027617	0.000001
H89	H	0.685453	-0.066877	-0.053190
H90	H	0.685440	-0.066884	0.053164
C91	C	0.528850	-0.040985	-0.000009
H92	H	0.569112	-0.081500	0.000005
H93	H	0.498439	-0.044350	-0.053182
H94	H	0.498432	-0.044341	0.053171
H95	H	0.283421	-0.025143	-0.000033
H96	H	0.140199	-0.027432	-0.000036
C97	C	1.002142	-0.006213	0.399199
H98	H	1.032843	-0.036905	0.441525
H99	H	1.033596	0.020971	0.361748
H100	H	0.974966	-0.037689	0.361767
H101	H	0.895917	-0.270941	-0.150820
C102	C	0.898385	-0.116451	-0.174567
H103	H	0.897826	-0.151264	-0.224069
H104	H	0.942995	-0.091503	-0.178026
H105	H	0.854752	-0.079808	-0.178021
