data_functionalizedCrystal
_audit_creation_method	'MofGen! by Chris Wilmer'
_symmetry_space_group_name_H-M	'P1'
_symmetry_Int_Tables_number	1
_symmetry_cell_setting	triclinic
loop_
_symmetry_equiv_pos_as_xyz
  x,y,z
_cell_length_a	29.839131
_cell_length_b	13.897449
_cell_length_c	13.897441
_cell_angle_alpha	89.978743
_cell_angle_beta	89.965828
_cell_angle_gamma	90.042247
loop_
_atom_site_label
_atom_site_type_symbol
_atom_site_fract_x
_atom_site_fract_y
_atom_site_fract_z
Zn1	Zn	-0.178833	1.474523	-0.545419
Zn2	Zn	0.321167	1.974523	-0.045419
Zn3	Zn	-0.253967	1.474356	-0.384108
Zn4	Zn	0.246033	1.974356	0.115892
Zn5	Zn	-0.178853	1.313218	-0.384130
Zn6	Zn	0.321147	1.813218	0.115870
Zn7	Zn	-0.253938	1.313127	-0.545353
Zn8	Zn	0.246062	1.813127	-0.045353
O9	O	-0.216398	1.393806	-0.464752
O10	O	0.283602	1.893806	0.035248
O11	O	-0.188804	1.609483	-0.524039
O12	O	0.311196	2.109483	-0.024039
O13	O	-0.244023	1.452949	-0.249129
O14	O	0.255977	1.952949	0.250871
O15	O	-0.115983	1.334724	-0.405562
O16	O	0.384017	1.834724	0.094438
O17	O	-0.244004	1.609360	-0.405524
O18	O	0.255996	2.109360	0.094476
O19	O	-0.115969	1.453234	-0.524061
O20	O	0.384031	1.953234	-0.024061
O21	O	-0.188837	1.334562	-0.249145
O22	O	0.311163	1.834562	0.250855
O23	O	-0.188809	1.178225	-0.405498
O24	O	0.311191	1.678225	0.094502
O25	O	-0.243955	1.334569	-0.680343
O26	O	0.256045	1.834569	-0.180343
O27	O	-0.243974	1.178158	-0.523948
O28	O	0.256026	1.678158	-0.023948
O29	O	-0.188776	1.453145	-0.680392
O30	O	0.311224	1.953145	-0.180392
O31	O	-0.316830	1.452861	-0.405460
O32	O	0.183170	1.952861	0.094540
O33	O	-0.316809	1.334407	-0.523926
O34	O	0.183191	1.834407	-0.023926
C35	C	-0.216391	1.143192	-0.464719
C36	C	0.283609	1.643192	0.035281
C37	C	-0.216399	1.035978	-0.464727
C38	C	0.283601	1.535978	0.035273
C39	C	-0.216400	0.948908	-0.464743
C40	C	0.283600	1.448908	0.035257
C41	C	-0.216404	0.839676	-0.464773
C42	C	0.283596	1.339676	0.035227
C43	C	-0.333120	1.393632	-0.464705
C44	C	0.166880	1.893632	0.035295
C45	C	-0.383055	1.393646	-0.464716
C46	C	0.116945	1.893646	0.035284
C47	C	-0.692697	1.455598	-0.403157
C48	C	-0.192697	1.955598	0.096843
C49	C	-0.880370	1.455717	-0.403195
C50	C	-0.380370	1.955717	0.096805
O51	O	-0.904633	1.508252	-0.350818
O52	O	-0.404633	2.008252	0.149182
N53	N	-0.903840	1.394006	-0.464825
N54	N	-0.403840	1.894006	0.035175
C55	C	-0.880389	1.332266	-0.526455
C56	C	-0.380389	1.832266	-0.026455
O57	O	-0.904658	1.279788	-0.578883
O58	O	-0.404658	1.779788	-0.078883
C59	C	-0.692717	1.332153	-0.526422
C60	C	-0.192717	1.832153	-0.026422
C61	C	-0.669249	1.393860	-0.464780
C62	C	-0.169249	1.893860	0.035220
C63	C	-0.669229	1.517301	-0.341522
C64	C	-0.169229	2.017301	0.158478
C65	C	-0.622313	1.517267	-0.341509
C66	C	-0.122313	2.017267	0.158491
C67	C	-0.598866	1.455530	-0.403132
C68	C	-0.098866	1.955530	0.096868
C69	C	-0.622334	1.393826	-0.464768
C70	C	-0.122334	1.893826	0.035232
C71	C	-0.669267	1.270418	-0.588056
C72	C	-0.169267	1.770418	-0.088056
C73	C	-0.622346	1.270397	-0.588044
C74	C	-0.122346	1.770397	-0.088044
C75	C	-0.598878	1.332105	-0.526403
C76	C	-0.098878	1.832105	-0.026403
C77	C	-0.551971	1.332055	-0.526379
C78	C	-0.051971	1.832055	-0.026379
N79	N	-0.528500	1.393765	-0.464748
N80	N	-0.028500	1.893765	0.035252
C81	C	-0.551948	1.455503	-0.403125
C82	C	-0.051948	1.955503	0.096875
C83	C	-0.978920	1.332329	-0.526467
C84	C	-0.478920	1.832329	-0.026467
C85	C	-1.025837	1.332356	-0.526474
C86	C	-0.525837	1.832356	-0.026474
C87	C	-1.025815	1.455808	-0.403215
C88	C	-0.525815	1.955808	0.096785
C89	C	-0.978896	1.455775	-0.403203
C90	C	-0.478896	1.955775	0.096797
C91	C	-0.955449	1.394039	-0.464836
C92	C	-0.455449	1.894039	0.035164
C93	C	-0.453422	1.455426	-0.403103
C94	C	0.046578	1.955426	0.096897
C95	C	-0.406503	1.455383	-0.403093
C96	C	0.093497	1.955383	0.096907
C97	C	-0.406529	1.331935	-0.526356
C98	C	0.093471	1.831935	-0.026356
C99	C	-0.453445	1.331974	-0.526362
C100	C	0.046555	1.831974	-0.026362
C101	C	-0.476890	1.393727	-0.464733
C102	C	0.023110	1.893727	0.035267
O103	O	-0.527678	1.279555	-0.578735
O104	O	-0.027678	1.779555	-0.078735
O105	O	-0.527671	1.507989	-0.350720
O106	O	-0.027671	2.007989	0.149280
C107	C	-0.739612	1.455632	-0.403170
C108	C	-0.239612	1.955632	0.096830
C109	C	-0.763080	1.393929	-0.464805
C110	C	-0.263080	1.893929	0.035195
C111	C	-0.739632	1.332191	-0.526429
C112	C	-0.239632	1.832191	-0.026429
C113	C	-0.809998	1.393956	-0.464813
C114	C	-0.309998	1.893956	0.035187
C115	C	-0.833445	1.455693	-0.403189
C116	C	-0.333445	1.955693	0.096811
C117	C	-0.809975	1.517403	-0.341559
C118	C	-0.309975	2.017403	0.158441
C119	C	-0.763060	1.517369	-0.341547
C120	C	-0.263060	2.017369	0.158453
C121	C	-0.763103	1.270481	-0.588059
C122	C	-0.263103	1.770481	-0.088059
C123	C	-0.810018	1.270519	-0.588066
C124	C	-0.310018	1.770519	-0.088066
C125	C	-0.833466	1.332257	-0.526442
C126	C	-0.333466	1.832257	-0.026442
C127	C	-0.099220	1.394008	-0.464822
C128	C	0.400780	1.894008	0.035178
C129	C	-0.049285	1.394093	-0.464851
C130	C	0.450715	1.894093	0.035149
C131	C	-0.216360	1.393865	-0.716346
C132	C	0.283640	1.893865	-0.216346
C133	C	-0.216344	1.393891	-0.823560
C134	C	0.283656	1.893891	-0.323560
C135	C	-0.216405	1.645399	-0.464787
C136	C	0.283595	2.145399	0.035213
C137	C	-0.216408	1.752613	-0.464801
C138	C	0.283592	2.252613	0.035199
C139	C	-0.216331	1.393910	-0.910629
C140	C	0.283669	1.893910	-0.410629
C141	C	-0.216311	1.393938	-1.019862
C142	C	0.283689	1.893938	-0.519862
C143	C	-0.216403	1.393803	-0.214138
C144	C	0.283597	1.893803	0.285862
C145	C	-0.216293	1.393965	-0.106925
C146	C	0.283707	1.893965	0.393075
H147	H	-0.387396	1.505633	-0.352894
H148	H	0.112604	2.005633	0.147106
N149	N	-0.477359	1.518508	-0.340143
N150	N	0.022641	2.018508	0.159857
N151	N	-0.456393	1.573588	-0.285118
N152	N	0.043607	2.073588	0.214882
H153	H	-0.473298	1.618135	-0.240646
H154	H	0.026702	2.118135	0.259354
N155	N	-0.739154	1.207403	-0.650995
N156	N	-0.239154	1.707403	-0.150995
N157	N	-0.713017	1.145933	-0.616995
N158	N	-0.213017	1.645933	-0.116995
H159	H	-0.696104	1.101378	-0.661444
H160	H	-0.196104	1.601378	-0.161444
H161	H	-0.743956	1.567617	-0.291353
H162	H	-0.243956	2.067617	0.208647
N163	N	-0.598352	1.580308	-0.278539
N164	N	-0.098352	2.080308	0.221461
N165	N	-0.619301	1.635423	-0.223530
N166	N	-0.119301	2.135423	0.276470
H167	H	-0.602381	1.679951	-0.179054
H168	H	-0.102381	2.179951	0.320946
N169	N	-0.693168	1.580381	-0.278568
N170	N	-0.193168	2.080381	0.221432
N171	N	-0.672200	1.635465	-0.223549
N172	N	-0.172200	2.135465	0.276451
H173	H	-0.689104	1.680016	-0.179080
H174	H	-0.189104	2.180016	0.320920
N175	N	-0.954926	1.518823	-0.340256
N176	N	-0.454926	2.018823	0.159744
N177	N	-0.928708	1.580262	-0.374245
N178	N	-0.428708	2.080262	0.125755
H179	H	-0.911781	1.624794	-0.329787
H180	H	-0.411781	2.124794	0.170213
N181	N	-0.598396	1.207346	-0.651015
N182	N	-0.098396	1.707346	-0.151015
N183	N	-0.603605	1.213705	-0.740028
N184	N	-0.103605	1.713705	-0.240028
H185	H	-0.586691	1.169176	-0.784502
H186	H	-0.086691	1.669176	-0.284502
H187	H	-0.472553	1.281729	-0.576559
H188	H	0.027447	1.781729	-0.076559
H189	H	-0.387431	1.281666	-0.576526
H190	H	0.112569	1.781666	-0.076526
N191	N	-0.833938	1.580455	-0.278611
N192	N	-0.333938	2.080455	0.221389
N193	N	-0.875829	1.580464	-0.278639
N194	N	-0.375829	2.080464	0.221361
H195	H	-0.892755	1.624993	-0.234187
H196	H	-0.392755	2.124993	0.265813
N197	N	-0.954971	1.269250	-0.589412
N198	N	-0.454971	1.769250	-0.089412
N199	N	-0.928831	1.207783	-0.555418
N200	N	-0.428831	1.707783	-0.055418
H201	H	-0.911918	1.163232	-0.599871
H202	H	-0.411918	1.663232	-0.099871
H203	H	-1.044914	1.506077	-0.353039
H204	H	-0.544914	2.006077	0.146961
N205	N	-0.833987	1.207494	-0.651048
N206	N	-0.333987	1.707494	-0.151048
N207	N	-0.860126	1.241420	-0.712559
N208	N	-0.360126	1.741420	-0.212559
H209	H	-0.877053	1.196916	-0.757045
H210	H	-0.377053	1.696916	-0.257045
H211	H	-1.044941	1.282098	-0.576660
H212	H	-0.544941	1.782098	-0.076660
N213	N	-0.693224	1.207378	-0.651028
N214	N	-0.193224	1.707378	-0.151028
N215	N	-0.672274	1.152272	-0.706044
N216	N	-0.172274	1.652272	-0.206044
H217	H	-0.689192	1.107746	-0.750524
H218	H	-0.189192	1.607746	-0.250524
