data_functionalizedCrystal
_audit_creation_method	'MofGen! by Chris Wilmer'
_symmetry_space_group_name_H-M	'P1'
_symmetry_Int_Tables_number	1
_symmetry_cell_setting	triclinic
loop_
_symmetry_equiv_pos_as_xyz
  x,y,z
_cell_length_a	16.959455
_cell_length_b	16.959454
_cell_length_c	15.296720
_cell_angle_alpha	99.648278
_cell_angle_beta	99.660201
_cell_angle_gamma	90.019023
loop_
_atom_site_label
_atom_site_type_symbol
_atom_site_fract_x
_atom_site_fract_y
_atom_site_fract_z
Zn1	Zn	1.131019	-0.392037	-0.510124
Zn2	Zn	1.631019	0.107963	-0.010124
Zn3	Zn	1.153818	-0.501357	-0.359282
Zn4	Zn	1.653818	-0.001357	0.140718
Zn5	Zn	1.021724	-0.369195	-0.359285
Zn6	Zn	1.521724	0.130805	0.140715
Zn7	Zn	0.998819	-0.524168	-0.510082
Zn8	Zn	1.498819	-0.024168	-0.010082
O9	O	1.076345	-0.446689	-0.434693
O10	O	1.576345	0.053311	0.065307
O11	O	1.244652	-0.406551	-0.490131
O12	O	1.744652	0.093449	0.009869
O13	O	1.155423	-0.464720	-0.233045
O14	O	1.655423	0.035280	0.266955
O15	O	1.036266	-0.261617	-0.379313
O16	O	1.536266	0.238383	0.120687
O17	O	1.261402	-0.486869	-0.379308
O18	O	1.761402	0.013131	0.120692
O19	O	1.116565	-0.278399	-0.490134
O20	O	1.616565	0.221601	0.009866
O21	O	1.058373	-0.367621	-0.233047
O22	O	1.558373	0.132379	0.266953
O23	O	0.908077	-0.389739	-0.379271
O24	O	1.408077	0.110261	0.120729
O25	O	0.997228	-0.525747	-0.636324
O26	O	1.497228	-0.025747	-0.136324
O27	O	0.891249	-0.503598	-0.490061
O28	O	1.391249	-0.003598	0.009939
O29	O	1.094355	-0.428670	-0.636355
O30	O	1.594355	0.071330	-0.136355
O31	O	1.133213	-0.614991	-0.379267
O32	O	1.633213	-0.114991	0.120733
O33	O	1.019335	-0.631750	-0.490059
O34	O	1.519335	-0.131750	0.009941
C35	C	0.870983	-0.446666	-0.434663
C36	C	1.370983	0.053334	0.065337
C37	C	0.783125	-0.446678	-0.434671
C38	C	1.283125	0.053322	0.065329
C39	C	0.750575	-0.387339	-0.377080
C40	C	1.250575	0.112661	0.122920
C41	C	0.733119	-0.506025	-0.492275
C42	C	1.233119	-0.006025	0.007725
C43	C	0.650572	-0.506036	-0.492288
C44	C	1.150572	-0.006036	0.007712
C45	C	0.618022	-0.446697	-0.434697
C46	C	1.118022	0.053303	0.065303
C47	C	0.668020	-0.387347	-0.377093
C48	C	1.168020	0.112653	0.122907
C49	C	0.600567	-0.565380	-0.549898
C50	C	1.100567	-0.065380	-0.049898
C51	C	0.518013	-0.565393	-0.549914
C52	C	1.018013	-0.065393	-0.049914
C53	C	0.485463	-0.506057	-0.492318
C54	C	0.985463	-0.006057	0.007682
C55	C	0.535466	-0.446705	-0.434711
C56	C	1.035466	0.053295	0.065289
C57	C	0.502916	-0.387366	-0.377120
C58	C	1.002916	0.112634	0.122880
C59	C	0.552919	-0.328017	-0.319508
C60	C	1.052919	0.171983	0.180492
C61	C	0.635469	-0.328011	-0.319497
C62	C	1.135469	0.171989	0.180503
C63	C	0.402913	-0.506063	-0.492328
C64	C	0.902913	-0.006063	0.007672
C65	C	0.420361	-0.387374	-0.377133
C66	C	0.920361	0.112626	0.122867
C67	C	1.076281	-0.652053	-0.434678
C68	C	1.576281	-0.152053	0.065322
C69	C	1.076321	-0.739913	-0.434701
C70	C	1.576321	-0.239913	0.065299
C71	C	1.017123	-1.120143	-0.492376
C72	C	1.517123	-0.620143	0.007624
C73	C	1.135773	-1.102646	-0.377102
C74	C	1.635773	-0.602646	0.122898
C75	C	1.135746	-1.020099	-0.377093
C76	C	1.635746	-0.520099	0.122907
C77	C	1.076407	-0.987570	-0.434726
C78	C	1.576407	-0.487570	0.065274
C79	C	1.017094	-1.037588	-0.492368
C80	C	1.517094	-0.537588	0.007632
C81	C	1.195054	-0.970074	-0.319447
C82	C	1.695054	-0.470074	0.180553
C83	C	1.195029	-0.887521	-0.319436
C84	C	1.695029	-0.387521	0.180564
C85	C	1.135692	-0.854992	-0.377074
C86	C	1.635692	-0.354992	0.122926
C87	C	1.076377	-0.905015	-0.434718
C88	C	1.576377	-0.405015	0.065282
C89	C	1.017038	-0.872486	-0.492351
C90	C	1.517038	-0.372486	0.007649
C91	C	0.957725	-0.922509	-0.550001
C92	C	1.457725	-0.422509	-0.050001
C93	C	0.957756	-1.005059	-0.550006
C94	C	1.457756	-0.505059	-0.050006
C95	C	1.135661	-0.772442	-0.377068
C96	C	1.635661	-0.272442	0.122932
C97	C	1.017008	-0.789932	-0.492343
C98	C	1.517008	-0.289932	0.007657
C99	C	1.282508	-0.446714	-0.434724
C100	C	1.782508	0.053286	0.065276
C101	C	1.370363	-0.446724	-0.434737
C102	C	1.870363	0.053276	0.065263
C103	C	1.040693	-0.482301	-0.669987
C104	C	1.540693	0.017699	-0.169987
C105	C	1.025501	-0.497476	-0.770255
C106	C	1.525501	0.002524	-0.270255
C107	C	1.076427	-0.240526	-0.434728
C108	C	1.576427	0.259474	0.065272
C109	C	1.076463	-0.152672	-0.434743
C110	C	1.576463	0.347328	0.065257
C111	C	1.184958	-0.338089	-1.052960
C112	C	1.684958	0.161911	-0.552960
C113	C	1.199237	-0.323832	-0.958753
C114	C	1.699237	0.176168	-0.458753
C115	C	1.155804	-0.367242	-0.911624
C116	C	1.655804	0.132758	-0.411624
C117	C	1.098090	-0.424911	-0.958711
C118	C	1.598090	0.075089	-0.458711
C119	C	1.083814	-0.439174	-1.052927
C120	C	1.583814	0.060826	-0.552927
C121	C	1.054660	-0.468326	-0.911591
C122	C	1.554660	0.031674	-0.411591
C123	C	0.996945	-0.525996	-0.958678
C124	C	1.496945	-0.025996	-0.458678
C125	C	0.982672	-0.540255	-1.052885
C126	C	1.482672	-0.040255	-0.552885
C127	C	1.026104	-0.496846	-1.100014
C128	C	1.526104	0.003154	-0.600014
C129	C	1.068936	-0.454064	-0.817375
C130	C	1.568936	0.045936	-0.317375
C131	C	0.967792	-0.555148	-0.817342
C132	C	1.467792	-0.055148	-0.317342
C133	C	0.953513	-0.569405	-0.911549
C134	C	1.453513	-0.069405	-0.411549
C135	C	1.111903	-0.411159	-0.200315
C136	C	1.611903	0.088841	0.299685
C137	C	1.127249	-0.395761	-0.100047
C138	C	1.627249	0.104239	0.399953
H139	H	0.791292	-0.339020	-0.330171
H140	H	1.291292	0.160980	0.169829
H141	H	0.909407	-0.896014	-0.596922
H142	H	1.409407	-0.396014	-0.096922
Cl143	Cl	0.698333	-0.253404	-0.247083
Cl144	Cl	1.198333	0.246596	0.252917
Cl145	Cl	0.511988	-0.253417	-0.247118
Cl146	Cl	1.011988	0.246583	0.252882
H147	H	1.184080	-1.129136	-0.330174
H148	H	1.684080	-0.629136	0.169826
Cl149	Cl	1.269598	-0.824644	-0.246971
Cl150	Cl	1.769598	-0.324644	0.253029
Cl151	Cl	1.269651	-1.010972	-0.247005
Cl152	Cl	1.769651	-0.510972	0.252995
H153	H	0.477307	-0.613720	-0.596824
H154	H	0.977307	-0.113720	-0.096824
H155	H	0.362203	-0.554380	-0.539241
H156	H	0.862203	-0.054380	-0.039241
H157	H	0.759626	-0.554333	-0.539167
H158	H	1.259626	-0.054333	-0.039167
Cl159	Cl	0.880961	-0.641902	-0.970755
Cl160	Cl	1.380961	-0.141902	-0.470755
H161	H	1.014482	-0.508451	-1.176725
H162	H	1.514482	-0.008451	-0.676725
Cl163	Cl	0.910130	-0.612767	-1.112078
Cl164	Cl	1.410130	-0.112767	-0.612078
Cl165	Cl	1.210212	-0.709559	-0.304591
Cl166	Cl	1.710212	-0.209559	0.195409
H167	H	0.968834	-1.160876	-0.539315
H168	H	1.468834	-0.660876	-0.039315
H169	H	0.968689	-0.763453	-0.539278
H170	H	1.468689	-0.263453	-0.039278
Cl171	Cl	0.641492	-0.639984	-0.622276
Cl172	Cl	1.141492	-0.139984	-0.122276
Cl173	Cl	0.913191	-0.609728	-0.758101
Cl174	Cl	1.413191	-0.109728	-0.258101
H175	H	0.909467	-1.045794	-0.596940
H176	H	1.409467	-0.545794	-0.096940
H177	H	1.115927	-0.407108	-0.779046
H178	H	1.615927	0.092892	-0.279046
H179	H	1.167434	-0.355631	-0.834916
H180	H	1.667434	0.144369	-0.334916
Cl181	Cl	1.271788	-0.251337	-0.899564
Cl182	Cl	1.771788	0.248663	-0.399564
Cl183	Cl	1.239559	-0.283532	-1.112211
Cl184	Cl	1.739559	0.216468	-0.612211
Cl185	Cl	0.379449	-0.312775	-0.304724
Cl186	Cl	0.879449	0.187225	0.195276
