data_functionalizedCrystal
_audit_creation_method	'MofGen! by Chris Wilmer'
_symmetry_space_group_name_H-M	'P1'
_symmetry_Int_Tables_number	1
_symmetry_cell_setting	triclinic
loop_
_symmetry_equiv_pos_as_xyz
  x,y,z
_cell_length_a	10.489741
_cell_length_b	19.288864
_cell_length_c	17.766277
_cell_angle_alpha	89.976791
_cell_angle_beta	90.002761
_cell_angle_gamma	96.162289
loop_
_atom_site_label
_atom_site_type_symbol
_atom_site_fract_x
_atom_site_fract_y
_atom_site_fract_z
O1	O	-0.159110	0.922420	-0.062830
O2	O	-0.180573	0.720303	-0.062778
O3	O	0.015860	0.825961	-0.062807
O4	O	-0.355544	0.816763	-0.062801
O5	O	0.015870	0.825942	0.062382
O6	O	-0.180564	0.720285	0.062411
O7	O	-0.159100	0.922401	0.062358
Cu8	Cu	-0.169831	0.821341	0.073815
Cu9	Cu	-0.169843	0.821363	-0.074235
O10	O	-0.355534	0.816744	0.062387
C11	C	-0.179878	0.694413	-0.000177
C12	C	-0.177805	0.617295	-0.000157
C13	C	-0.293063	0.573372	-0.000167
C14	C	-0.291115	0.500912	-0.000176
C15	C	-0.173903	0.472378	-0.000189
C16	C	-0.058629	0.516311	-0.000175
C17	C	-0.060580	0.588770	-0.000159
C18	C	-0.081764	0.363505	-0.044075
C19	C	-0.079818	0.291047	-0.044096
C20	C	-0.167880	0.248892	-0.000235
C21	C	-0.257911	0.279202	0.043637
C22	C	-0.259862	0.351661	0.043653
C23	C	-0.171774	0.393810	-0.000206
C24	C	-0.281035	0.126399	-0.000253
C25	C	-0.279082	0.053938	-0.000257
C26	C	-0.046593	0.069339	-0.000263
C27	C	-0.048549	0.141798	-0.000252
C28	C	-0.165773	0.170324	-0.000250
C29	C	-0.403055	0.817448	-0.000207
C30	C	-0.544637	0.819526	-0.000206
C31	C	-0.611257	0.886753	-0.000229
C32	C	-0.704091	0.854987	0.061503
C33	C	-0.704079	0.854989	-0.061923
C34	C	-0.635606	0.787732	0.061577
C35	C	-0.635585	0.787744	-0.061904
C36	C	-0.728392	0.755929	-0.000157
C37	C	0.063381	0.825257	-0.000215
C38	C	0.204964	0.823178	-0.000220
C39	C	-0.159796	0.948292	-0.000244
C40	C	-0.161869	1.025409	-0.000269
N41	N	-0.169822	0.821331	0.177946
N42	N	-0.169842	0.821379	-0.178365
C43	C	-0.082883	0.868131	0.217320
C44	C	-0.082878	0.868135	0.296121
C45	C	-0.169832	0.821345	0.335546
C46	C	-0.256777	0.774536	0.296163
C47	C	-0.256772	0.774528	0.217362
C48	C	-0.286045	0.812826	0.460387
C49	C	-0.286051	0.812838	0.539186
C50	C	-0.169847	0.821364	0.578592
C51	C	-0.053631	0.829892	0.539190
C52	C	-0.053626	0.829885	0.460390
C53	C	-0.169847	0.821348	0.420992
C54	C	-0.082895	0.868171	0.703412
C55	C	-0.082888	0.868171	0.782216
C56	C	-0.256798	0.774575	0.782255
C57	C	-0.256795	0.774572	0.703454
C58	C	-0.169845	0.821374	0.664037
H59	H	-0.372944	0.018175	-0.000260
H60	H	-0.376486	0.149625	-0.000240
N61	N	0.079830	0.038572	-0.000281
H62	H	0.152553	0.077396	-0.000275
H63	H	0.085706	0.008819	0.046123
H64	H	-0.605412	0.759302	0.113825
N65	N	-0.595308	0.750106	-0.131017
H66	H	-0.619916	0.775550	-0.177627
H67	H	-0.499376	0.748595	-0.130162
N68	N	0.010898	0.918613	0.338602
H69	H	0.065982	0.948259	0.301674
H70	H	-0.037801	0.949559	0.371276
H71	H	-0.734423	0.883454	-0.114112
H72	H	0.041001	0.836827	0.428312
N73	N	-0.350556	0.724068	0.338684
H74	H	-0.406913	0.750890	0.371359
H75	H	-0.405546	0.694427	0.301734
H76	H	-0.388516	0.596592	-0.000167
N77	N	-0.350560	0.724055	0.174892
H78	H	-0.337365	0.731153	0.118991
H79	H	-0.336056	0.674712	0.188690
N80	N	-0.795522	0.682649	-0.000102
H81	H	-0.770650	0.657349	0.046547
H82	H	-0.891373	0.684506	-0.000576
N83	N	-0.744329	0.892654	0.130611
H84	H	-0.805346	0.860063	0.161535
H85	H	-0.666103	0.908751	0.161690
H86	H	0.045307	0.177562	-0.000248
H87	H	-0.380681	0.805898	0.571262
H88	H	-0.384976	0.465143	-0.000182
H89	H	-0.012085	0.906279	0.814275
N90	N	-0.411387	0.803631	0.417888
H91	H	-0.485006	0.798237	0.454804
H92	H	-0.418628	0.845860	0.385172
N93	N	-0.356951	0.384354	0.090970
H94	H	-0.412447	0.346660	0.118755
H95	H	-0.310816	0.417505	0.128435
H96	H	-0.006515	0.266375	-0.079821
H97	H	-0.012081	0.906239	0.185229
N98	N	-0.543829	0.959967	-0.000174
H99	H	-0.568546	0.985261	0.046489
H100	H	-0.448011	0.957988	-0.000678
N101	N	-0.352907	0.233753	0.090952
H102	H	-0.406881	0.200076	0.057355
H103	H	-0.305167	0.206821	0.128450
N104	N	0.013227	0.408970	-0.091382
H105	H	0.070547	0.378775	-0.119181
H106	H	-0.034522	0.435945	-0.128836
N107	N	0.067795	0.485541	-0.000181
H108	H	0.051542	0.432974	-0.000193
H109	H	0.118218	0.501595	-0.046585
N110	N	0.071716	0.839093	0.581679
H111	H	0.054084	0.837800	0.637578
H112	H	0.124654	0.800215	0.567926
H113	H	-0.012091	0.906279	0.671318
N114	N	-0.350578	0.724102	0.824766
H115	H	-0.337388	0.731205	0.880661
H116	H	-0.441024	0.732571	0.810984
N117	N	-0.350573	0.724092	0.660987
H118	H	-0.441062	0.732541	0.674691
H119	H	-0.337268	0.731208	0.605099
H120	H	0.033280	0.624533	-0.000151
