data_functionalizedCrystal
_audit_creation_method	'MofGen! by Chris Wilmer'
_symmetry_space_group_name_H-M	'P1'
_symmetry_Int_Tables_number	1
_symmetry_cell_setting	triclinic
loop_
_symmetry_equiv_pos_as_xyz
  x,y,z
_cell_length_a	14.853569
_cell_length_b	19.188930
_cell_length_c	13.930277
_cell_angle_alpha	89.990320
_cell_angle_beta	89.994756
_cell_angle_gamma	83.390173
loop_
_atom_site_label
_atom_site_type_symbol
_atom_site_fract_x
_atom_site_fract_y
_atom_site_fract_z
O1	O	1.195861	0.091160	-0.079798
O2	O	0.933341	0.102018	-0.079811
O3	O	1.072177	-0.005041	-0.079785
O4	O	1.057025	0.198219	-0.079824
O5	O	1.072157	-0.005044	0.079876
O6	O	0.933322	0.102016	0.079851
O7	O	1.195841	0.091158	0.079864
Zn8	Zn	1.064579	0.096586	0.105207
Zn9	Zn	1.064604	0.096589	-0.105154
O10	O	1.057006	0.198217	0.079838
C11	C	0.899745	0.101525	0.000019
C12	C	0.799670	0.100050	0.000014
C13	C	1.071676	-0.031055	0.000048
C14	C	1.070203	-0.108565	0.000056
C15	C	0.763651	0.035762	0.000023
C16	C	0.741654	0.162952	0.000010
C17	C	0.647628	0.161568	0.000011
C18	C	0.611609	0.097281	0.000020
C19	C	0.669616	0.034377	0.000027
C20	C	0.589614	0.224471	0.000014
C21	C	0.495581	0.223090	0.000016
C22	C	0.459560	0.158802	0.000018
C23	C	0.517574	0.095895	0.000024
C24	C	0.481555	0.031608	0.000033
C25	C	0.539567	-0.031300	0.000032
C26	C	0.633595	-0.029912	0.000029
C27	C	0.365532	0.157413	0.000021
C28	C	0.387520	0.030222	0.000037
C29	C	1.151668	-0.153216	0.000065
C30	C	1.150284	-0.226045	0.000050
C31	C	1.067431	-0.254218	0.000045
C32	C	0.985956	-0.209556	0.000031
C33	C	0.987342	-0.136730	0.000037
N34	N	1.004094	-0.362435	0.054378
N35	N	1.002783	-0.431618	0.054374
C36	C	1.063250	-0.473641	0.000025
N37	N	1.125092	-0.443868	-0.054308
N38	N	1.126406	-0.374679	-0.054300
C39	C	1.065919	-0.333186	0.000038
C40	C	1.143220	-0.597262	0.000016
C41	C	1.141832	-0.670092	-0.000006
C42	C	0.977503	-0.653601	-0.000015
C43	C	0.978892	-0.580774	-0.000003
C44	C	1.061753	-0.552609	0.000017
C45	C	1.229437	0.091651	0.000032
C46	C	1.329512	0.093126	0.000030
C47	C	1.057506	0.224231	0.000002
C48	C	1.058979	0.301740	-0.000012
N49	N	1.064568	0.096584	0.248773
N50	N	1.064622	0.096586	-0.248720
C51	C	1.003125	0.143977	0.701031
C52	C	1.126107	0.049197	0.701023
C53	C	1.126097	0.049195	0.600527
C54	C	1.064600	0.096585	0.550279
C55	C	1.003114	0.143977	0.600526
C56	C	1.187587	0.001808	0.550273
C57	C	1.187580	0.001804	0.449771
C58	C	1.126078	0.049192	0.399520
C59	C	1.064589	0.096585	0.449774
C60	C	1.003093	0.143976	0.399525
C61	C	0.941599	0.191367	0.449777
C62	C	0.941613	0.191365	0.550276
C63	C	1.126064	0.049194	0.299022
C64	C	1.003082	0.143976	0.299020
H65	H	0.358201	-0.022129	0.000039
H66	H	0.770987	0.215292	0.000009
H67	H	0.953001	0.182565	0.258114
H68	H	0.810888	-0.015455	0.000019
H69	H	1.219139	-0.130290	0.000078
H70	H	0.618948	0.276810	0.000013
H71	H	0.953055	0.182560	0.741948
H72	H	1.210690	-0.574329	0.000027
H73	H	0.448355	0.274313	0.000015
O74	O	0.896963	-0.680878	0.000107
C75	C	0.756102	-0.689121	0.082838
C76	C	0.847274	-0.658165	0.082814
H77	H	0.715910	-0.670782	0.149709
H78	H	0.715804	-0.670705	0.016063
H79	H	0.769127	-0.748841	0.082785
H80	H	0.834331	-0.598444	0.082900
H81	H	0.887542	-0.676636	0.149582
O82	O	1.185704	0.003076	0.250239
C83	C	1.239074	-0.118243	0.219517
C84	C	1.171465	-0.066094	0.274812
H85	H	1.227598	-0.174178	0.239379
H86	H	1.228493	-0.110155	0.139048
H87	H	1.311234	-0.108997	0.239241
H88	H	1.099278	-0.075308	0.255169
H89	H	1.182125	-0.074194	0.355267
O90	O	0.309309	0.218578	-0.000022
C91	C	0.297419	0.344880	0.000032
C92	C	0.361193	0.275660	0.000061
H93	H	0.339342	0.391049	0.000120
H94	H	0.252869	0.347467	-0.066802
H95	H	0.252823	0.347366	0.066834
H96	H	0.405846	0.273128	-0.066695
H97	H	0.405682	0.273102	0.066940
H98	H	1.176181	0.010616	0.741939
H99	H	1.216624	-0.262407	0.000053
O100	O	0.899817	-0.537323	0.000126
C101	C	0.805981	-0.445571	0.082871
C102	C	0.895580	-0.494727	0.082838
H103	H	0.802518	-0.411130	0.149746
H104	H	0.802520	-0.411004	0.016101
H105	H	0.746538	-0.478227	0.082818
H106	H	0.955074	-0.462126	0.082925
H107	H	0.898962	-0.529296	0.149603
O108	O	0.905530	-0.237003	-0.000100
C109	C	0.808587	-0.309614	-0.082857
C110	C	0.899713	-0.278592	-0.082811
H111	H	0.803847	-0.343233	-0.149732
H112	H	0.803806	-0.343352	-0.016086
H113	H	0.750613	-0.265175	-0.082816
H114	H	0.957740	-0.322986	-0.082886
H115	H	0.904415	-0.244836	-0.149576
H116	H	0.680836	-0.081127	0.000031
O117	O	0.881898	0.237334	0.400812
C118	C	0.827436	0.279366	0.245979
C119	C	0.895077	0.227261	0.301316
H120	H	0.838080	0.271250	0.165527
H121	H	0.755247	0.270164	0.265673
H122	H	0.838947	0.335299	0.265782
H123	H	0.883649	0.171308	0.281543
H124	H	0.967242	0.236524	0.281617
H125	H	0.921002	-0.100373	0.000030
O126	O	0.881975	0.237375	0.599238
C127	C	0.827466	0.279355	0.754069
C128	C	0.895063	0.227221	0.698735
H129	H	0.838012	0.271154	0.834522
H130	H	0.838989	0.335309	0.734363
H131	H	0.755303	0.270164	0.734277
H132	H	0.967253	0.236348	0.718498
H133	H	0.883462	0.171285	0.718447
O134	O	1.247236	-0.044196	0.599231
C135	C	1.301785	-0.086171	0.754059
C136	C	1.234169	-0.034043	0.698728
H137	H	1.291257	-0.077970	0.834512
H138	H	1.290266	-0.142127	0.734386
H139	H	1.373942	-0.076974	0.734229
H140	H	1.161986	-0.043176	0.718528
H141	H	1.245767	0.021896	0.718406
H142	H	1.208173	-0.706447	-0.000004
H143	H	1.237650	-0.036784	0.408862
H144	H	0.510228	-0.083643	0.000033
