data_functionalizedCrystal
_audit_creation_method	'MofGen! by Chris Wilmer'
_symmetry_space_group_name_H-M	'P1'
_symmetry_Int_Tables_number	1
_symmetry_cell_setting	triclinic
loop_
_symmetry_equiv_pos_as_xyz
  x,y,z
_cell_length_a	12.837943
_cell_length_b	17.038272
_cell_length_c	11.892095
_cell_angle_alpha	94.170821
_cell_angle_beta	85.689438
_cell_angle_gamma	92.970248
loop_
_atom_site_label
_atom_site_type_symbol
_atom_site_fract_x
_atom_site_fract_y
_atom_site_fract_z
O1	O	1.399724	0.200065	-0.093986
O2	O	1.899724	0.700065	0.406014
O3	O	1.097028	0.189958	-0.093992
O4	O	1.597028	0.689958	0.406008
O5	O	1.246576	0.081062	-0.093980
O6	O	1.746576	0.581062	0.406020
O7	O	1.250175	0.308961	-0.093998
O8	O	1.750175	0.808961	0.406002
O9	O	1.234106	0.090126	0.094026
O10	O	1.734106	0.590126	0.594026
O11	O	1.084557	0.199022	0.094014
O12	O	1.584557	0.699022	0.594014
O13	O	1.387254	0.209129	0.094021
O14	O	1.887254	0.709129	0.594021
Zn15	Zn	1.233926	0.205514	0.123868
Zn16	Zn	1.733926	0.705514	0.623868
Zn17	Zn	1.250356	0.193572	-0.123839
Zn18	Zn	1.750356	0.693572	0.376161
O19	O	1.237705	0.318025	0.094009
O20	O	1.737705	0.818025	0.594009
C21	C	1.051871	0.191076	0.000010
C22	C	1.551871	0.691076	0.500010
C23	C	0.935896	0.180893	0.000008
C24	C	1.435896	0.680893	0.500008
C25	C	0.705733	0.303310	0.000015
C26	C	1.205733	0.803310	0.500015
C27	C	0.596764	0.293746	0.000013
C28	C	1.096764	0.793746	0.500013
C29	C	0.608986	0.152201	0.000012
C30	C	1.108986	0.652201	0.500012
C31	C	0.717955	0.161765	0.000014
C32	C	1.217955	0.661765	0.500014
C33	C	0.766325	0.237322	0.000013
C34	C	1.266325	0.737322	0.500013
C35	C	0.875296	0.246885	0.000006
C36	C	1.375296	0.746885	0.500006
C37	C	0.887516	0.105342	0.000013
C38	C	1.387516	0.605342	0.500013
C39	C	0.778547	0.095777	0.000012
C40	C	1.278547	0.595777	0.500012
C41	C	1.237069	0.056221	0.000023
C42	C	1.737069	0.556221	0.500023
C43	C	1.227305	-0.031301	0.000022
C44	C	1.727305	0.468699	0.500022
C45	C	1.316945	-0.074719	0.000026
C46	C	1.816945	0.425281	0.500026
C47	C	1.307766	-0.156956	0.000015
C48	C	1.807766	0.343044	0.500015
C49	C	1.208945	-0.195773	0.000009
C50	C	1.708945	0.304227	0.500009
C51	C	1.119299	-0.152349	0.000002
C52	C	1.619299	0.347651	0.500002
C53	C	1.128480	-0.070114	0.000005
C54	C	1.628480	0.429886	0.500005
C55	C	1.176511	-0.443954	-0.000008
C56	C	1.676511	0.056046	0.499992
C57	C	1.167337	-0.526195	-0.000007
C58	C	1.667337	-0.026195	0.499993
C59	C	1.355805	-0.530796	0.000003
C60	C	1.855805	-0.030796	0.500003
C61	C	1.364977	-0.448559	0.000013
C62	C	1.864977	0.051441	0.500013
C63	C	1.275331	-0.405143	0.000001
C64	C	1.775331	0.094857	0.500001
C65	C	1.199560	-0.279832	0.000001
C66	C	1.699560	0.220168	0.500001
C67	C	1.284718	-0.321086	0.000000
C68	C	1.784718	0.178914	0.500000
C69	C	1.432411	0.208011	0.000016
C70	C	1.932411	0.708011	0.500016
C71	C	1.548386	0.218194	0.000011
C72	C	2.048386	0.718194	0.500011
C73	C	1.247213	0.342865	0.000003
C74	C	1.747213	0.842865	0.500003
C75	C	1.256977	0.430387	-0.000004
C76	C	1.756977	0.930387	0.499996
N77	N	1.222720	0.213665	0.292921
N78	N	1.722720	0.713665	0.792921
N79	N	1.261569	0.185416	-0.292892
N80	N	1.761569	0.685416	0.207108
C81	C	1.339540	0.128657	0.529578
C82	C	1.839540	0.628657	1.029578
C83	C	1.331715	0.134361	0.647919
C84	C	1.831715	0.634361	1.147919
C85	C	1.199241	0.230770	0.647947
C86	C	1.699241	0.730770	1.147947
C87	C	1.207066	0.225067	0.529605
C88	C	1.707066	0.725067	1.029605
C89	C	1.277219	0.174010	0.470425
C90	C	1.777219	0.674010	0.970425
C91	C	1.285048	0.168311	0.352082
C92	C	1.785048	0.668311	0.852082
C93	C	1.152569	0.264716	0.352111
C94	C	1.652569	0.764716	0.852111
C95	C	1.144745	0.270419	0.470453
C96	C	1.644745	0.770419	0.970453
H97	H	0.936862	0.051609	0.000004
H98	H	1.436862	0.551609	0.500004
H99	H	1.101826	0.301647	0.303936
H100	H	1.601826	0.801647	0.803936
H101	H	1.396668	0.087090	0.481393
H102	H	1.896668	0.587090	0.981393
N103	N	1.452484	-0.577631	0.000004
N104	N	1.952484	-0.077631	0.500004
H105	H	1.499900	-0.567682	-0.069689
H106	H	1.999900	-0.067682	0.430311
H107	H	1.490573	-0.560950	0.069745
H108	H	1.990573	-0.060950	0.569745
N109	N	1.079824	-0.397134	-0.000014
N110	N	1.579824	0.102866	0.499986
H111	H	1.084053	-0.366274	-0.069712
H112	H	1.584053	0.133726	0.430288
H113	H	1.015885	-0.434257	0.000028
H114	H	1.515885	0.065743	0.500028
N115	N	0.556803	0.070715	0.000007
N116	N	1.056803	0.570715	0.500007
H117	H	0.611721	0.030359	0.000004
H118	H	1.111721	0.530359	0.500004
H119	H	0.507237	0.067023	0.069705
H120	H	1.007237	0.567023	0.569705
N121	N	0.927463	0.328376	-0.000001
N122	N	1.427463	0.828376	0.499999
H123	H	0.901206	0.361007	0.069695
H124	H	1.401206	0.861007	0.569695
H125	H	1.005680	0.324359	-0.000047
H126	H	1.505680	0.824359	0.499953
H127	H	0.547433	0.347480	0.000018
H128	H	1.047433	0.847480	0.500018
N129	N	1.398943	0.085454	0.711722
N130	N	1.898943	0.585454	1.211722
H131	H	1.383369	0.027702	0.691134
H132	H	1.883369	0.527702	1.191134
H133	H	1.475134	0.099144	0.691077
H134	H	1.975134	0.599144	1.191077
H135	H	0.745116	0.364831	0.000012
H136	H	1.245116	0.864831	0.500012
N137	N	1.060745	-0.568061	-0.000015
N138	N	1.560745	-0.068061	0.499985
H139	H	1.025773	-0.556106	-0.069716
H140	H	1.525773	-0.056106	0.430284
H141	H	1.068621	-0.626730	0.000033
H142	H	1.568621	-0.126730	0.500033
N143	N	1.423531	-0.032855	0.000035
N144	N	1.923531	0.467145	0.500035
H145	H	1.426916	0.004515	0.069734
H146	H	1.926916	0.504515	0.569734
H147	H	1.478860	-0.072893	-0.000008
H148	H	1.978860	0.427107	0.499992
H149	H	0.739148	0.034262	0.000025
H150	H	1.239148	0.534262	0.500025
N151	N	1.404448	-0.203786	0.000024
N152	N	1.904448	0.296214	0.500024
H153	H	1.468442	-0.166717	0.000039
H154	H	1.968442	0.333283	0.500039
H155	H	1.400111	-0.234649	0.069721
H156	H	1.900111	0.265351	0.569721
N157	N	1.012712	-0.194211	-0.000012
N158	N	1.512712	0.305789	0.499988
H159	H	1.020496	-0.252895	-0.000009
H160	H	1.520496	0.247105	0.499991
H161	H	0.968544	-0.175473	0.069683
H162	H	1.468544	0.324527	0.569683
N163	N	1.471561	-0.406693	0.000026
N164	N	1.971561	0.093307	0.500026
H165	H	1.526957	-0.446678	0.000027
H166	H	2.026957	0.053322	0.500027
H167	H	1.484101	-0.376028	-0.069667
H168	H	1.984101	0.123972	0.430333
H169	H	1.055485	-0.034764	0.000002
H170	H	1.555485	0.465236	0.500002
N171	N	1.391298	-0.279220	0.000019
N172	N	1.891298	0.220780	0.500019
H173	H	1.446698	-0.319201	0.000026
H174	H	1.946698	0.180799	0.500026
H175	H	1.403838	-0.248556	-0.069675
H176	H	1.903838	0.251444	0.430325
H177	H	1.119099	-0.311445	-0.000001
H178	H	1.619099	0.188555	0.499999
H179	H	1.342172	0.126740	0.303898
H180	H	1.842172	0.626740	0.803898
N181	N	1.123569	0.285824	0.711786
N182	N	1.623569	0.785824	1.211786
H183	H	1.128068	0.282549	0.795730
H184	H	1.628068	0.782549	1.295730
H185	H	1.141908	0.341566	0.691107
H186	H	1.641908	0.841566	1.191107
H187	H	1.087625	0.311987	0.518651
H188	H	1.587625	0.811987	1.018651
