data_functionalizedCrystal
_audit_creation_method	'MofGen! by Chris Wilmer'
_symmetry_space_group_name_H-M	'P1'
_symmetry_Int_Tables_number	1
_symmetry_cell_setting	triclinic
loop_
_symmetry_equiv_pos_as_xyz
  x,y,z
_cell_length_a	10.654550
_cell_length_b	14.044220
_cell_length_c	9.730223
_cell_angle_alpha	89.997406
_cell_angle_beta	89.996251
_cell_angle_gamma	88.836890
loop_
_atom_site_label
_atom_site_type_symbol
_atom_site_fract_x
_atom_site_fract_y
_atom_site_fract_z
O1	O	1.681222	0.133227	-0.114408
O2	O	1.317019	0.145921	-0.114387
O3	O	1.493654	0.001554	-0.114384
O4	O	1.504587	0.277595	-0.114411
O5	O	1.493652	0.001557	0.114196
O6	O	1.317017	0.145925	0.114193
O7	O	1.681220	0.133231	0.114172
Zn8	Zn	1.499118	0.139578	0.150474
Zn9	Zn	1.499121	0.139574	-0.150689
O10	O	1.504585	0.277598	0.114169
C11	C	1.270127	0.144991	-0.000094
C12	C	1.130403	0.142202	-0.000085
C13	C	1.059459	0.227203	-0.000114
C14	C	0.928175	0.224578	-0.000137
C15	C	0.938790	0.051942	-0.000109
C16	C	1.070072	0.054569	-0.000076
C17	C	1.119790	0.314837	-0.000123
C18	C	1.048846	0.399845	-0.000153
C19	C	0.917561	0.397219	-0.000177
C20	C	0.857221	0.309585	-0.000170
C21	C	1.488867	-0.033790	-0.000093
C22	C	1.474592	-0.139110	-0.000090
C23	C	1.448493	-0.331943	-0.000108
C24	C	1.549741	-0.388911	-0.000119
C25	C	1.535219	-0.496210	-0.000129
C26	C	1.463013	-0.224634	-0.000098
C27	C	1.728113	0.134161	-0.000124
C28	C	1.867836	0.136950	-0.000142
C29	C	1.509372	0.312942	-0.000125
C30	C	1.523648	0.418262	-0.000137
N31	N	1.499126	0.139581	0.356011
N32	N	1.499123	0.139563	-0.356226
C33	C	1.577364	0.075677	0.427938
C34	C	1.577359	0.075666	0.571821
C35	C	1.420876	0.203470	0.571837
C36	C	1.420875	0.203477	0.427956
C37	C	1.655615	0.011782	0.355993
C38	C	1.733861	-0.052127	0.427920
C39	C	1.733856	-0.052138	0.571803
C40	C	1.655606	0.011759	0.643759
H41	H	1.127836	-0.014647	-0.000056
O42	O	1.344692	0.265444	0.641670
C43	C	1.132396	0.319526	0.685662
C44	C	1.218525	0.249270	0.606516
H45	H	1.030375	0.306488	0.657246
H46	H	1.145731	0.308544	0.800868
H47	H	1.157339	0.395613	0.657391
H48	H	1.193637	0.173156	0.634672
H49	H	1.205178	0.260336	0.491329
H50	H	1.655629	0.011787	0.238836
O51	O	1.107255	0.485049	-0.000095
C52	C	1.082868	0.656002	-0.000206
C53	C	1.016564	0.559573	-0.000241
H54	H	1.009575	0.716280	-0.000353
H55	H	1.144007	0.661617	0.095487
H56	H	1.144123	0.661493	-0.095834
H57	H	0.955245	0.554017	0.095322
H58	H	0.955502	0.554000	-0.095997
H59	H	1.797557	-0.104181	0.630365
H60	H	1.647328	-0.357098	-0.000217
H61	H	1.350913	-0.363754	-0.000106
H62	H	1.797562	-0.104155	0.369327
O63	O	1.655786	0.011644	0.783527
C64	C	1.741567	-0.058548	0.989994
C65	C	1.741507	-0.058505	0.831713
H66	H	1.810846	-0.115270	1.029000
H67	H	1.770419	0.014318	1.029147
H68	H	1.643398	-0.074764	1.029015
H69	H	1.839645	-0.042328	0.792575
H70	H	1.712585	-0.131377	0.792653
O71	O	1.345020	0.265686	0.358136
C72	C	1.289787	0.430109	0.314164
C73	C	1.375800	0.359766	0.393297
H74	H	1.314624	0.506188	0.342584
H75	H	1.303237	0.419215	0.198956
H76	H	1.187750	0.416990	0.342440
H77	H	1.477869	0.372842	0.365136
H78	H	1.362242	0.370676	0.508486
H79	H	1.226688	0.316985	-0.000110
H80	H	0.889650	-0.019405	-0.000126
H81	H	0.859801	0.466437	-0.000187
H82	H	0.750320	0.307454	-0.000168
