data_functionalizedCrystal
_audit_creation_method	'MofGen! by Chris Wilmer'
_symmetry_space_group_name_H-M	'P1'
_symmetry_Int_Tables_number	1
_symmetry_cell_setting	triclinic
loop_
_symmetry_equiv_pos_as_xyz
  x,y,z
_cell_length_a	23.096457
_cell_length_b	12.970454
_cell_length_c	12.970454
_cell_angle_alpha	60.000396
_cell_angle_beta	89.998137
_cell_angle_gamma	59.999661
loop_
_atom_site_label
_atom_site_type_symbol
_atom_site_fract_x
_atom_site_fract_y
_atom_site_fract_z
Zr1	Zr	0.557767	1.128527	-0.135326
O2	O	0.465320	1.343613	-0.299942
O3	O	0.586107	0.913439	-0.084864
O4	O	0.586108	1.128527	-0.299952
O5	O	0.465318	1.128526	0.084813
O6	O	0.681389	1.128530	-0.299958
O7	O	0.465319	1.128525	-0.084854
O8	O	0.681387	0.743777	0.084795
O9	O	0.465320	1.513279	-0.299940
O10	O	0.669301	1.001911	-0.063345
O11	O	0.598194	1.001910	0.063280
O12	O	0.598195	1.255148	-0.189959
O13	O	0.527088	1.255147	-0.063334
Zr14	Zr	0.709728	1.128533	0.135263
Zr15	Zr	0.709729	1.128532	-0.135336
Zr16	Zr	0.557766	1.128529	0.135273
Zr17	Zr	0.557768	1.399125	-0.135324
Zr18	Zr	0.709727	0.857936	0.135260
O19	O	0.681388	1.343621	0.084800
O20	O	0.681389	1.343619	-0.299956
O21	O	0.465319	1.343615	0.084814
O22	O	0.802175	0.913448	0.299878
O23	O	0.802176	0.913446	-0.084878
O24	O	0.586106	0.913441	0.299893
O25	O	0.802177	1.128535	-0.084876
O26	O	0.681387	1.128533	0.299888
O27	O	0.586106	1.128531	0.299894
O28	O	0.802176	1.128536	0.084791
O29	O	0.586109	1.513282	-0.299948
O30	O	0.681386	0.743778	0.299885
O31	O	0.802175	0.743782	0.299877
O32	O	0.802175	0.743781	0.084787
O33	O	0.465320	1.513280	-0.084851
O34	O	0.586108	1.513283	-0.084859
O35	O	0.669300	1.001913	0.189895
O36	O	0.740407	1.001914	0.063270
O37	O	0.669301	1.255151	-0.063343
O38	O	0.598194	1.255149	0.063282
C39	C	0.633747	0.790054	-0.000035
C40	C	0.633747	0.675178	-0.000036
C41	C	0.443667	1.128525	-0.000019
C42	C	0.379156	1.128523	-0.000015
C43	C	0.385966	0.996340	0.066064
C44	C	0.325351	0.996338	0.066069
C45	C	0.257925	1.128526	-0.000029
C46	C	0.251117	1.260727	-0.066111
C47	C	0.311732	1.260725	-0.066104
N48	N	0.135130	1.226921	-0.107601
N49	N	0.077551	1.226913	-0.107605
C50	C	0.075292	1.128539	-0.000051
N51	N	0.132795	1.030150	0.107505
N52	N	0.190381	1.030154	0.107507
C53	C	0.192194	1.128543	-0.000043
C54	C	0.016379	0.996345	0.066040
C55	C	-0.044239	0.996348	0.066049
C56	C	-0.118473	1.260741	-0.066143
C57	C	-0.057855	1.260734	-0.066140
C58	C	0.009569	1.128532	-0.000052
C59	C	0.823828	1.128536	-0.000044
C60	C	0.888339	1.128538	-0.000048
C61	C	0.633749	1.128529	-0.338509
C62	C	0.633749	1.128528	-0.453385
C63	C	0.633748	1.467007	-0.000029
C64	C	0.633748	1.581882	-0.000028
C65	C	0.633746	1.128532	0.338446
C66	C	0.633746	1.128533	0.453322
C67	C	0.823827	0.790060	-0.000047
C68	C	0.888338	0.675186	-0.000052
C69	C	0.633746	0.790056	0.338443
C70	C	0.633745	0.675181	0.453318
C71	C	0.823826	0.790061	0.338431
C72	C	0.888337	0.675188	0.453302
C73	C	0.443669	1.466999	-0.338494
C74	C	0.379158	1.581872	-0.453365
C75	C	0.443668	1.467001	-0.000016
C76	C	0.379157	1.581875	-0.000011
C77	C	0.633750	1.467005	-0.338506
C78	C	0.633750	1.581880	-0.453382
C79	C	0.881517	0.621238	-0.066158
C80	C	0.942126	0.513317	-0.066188
C81	C	1.009557	0.459338	-0.000104
C82	C	1.016377	0.513296	0.066003
C83	C	0.955768	0.621223	0.066025
C84	C	0.955755	0.621243	0.441149
C85	C	1.016376	0.513323	0.549072
C86	C	1.009576	0.459342	0.669147
C87	C	0.942151	0.513297	0.681296
C88	C	0.881532	0.621223	0.573374
C89	C	0.311740	1.635830	-0.441213
C90	C	0.251119	1.743785	-0.549136
C91	C	0.257919	1.797771	-0.669210
C92	C	0.325344	1.743809	-0.681360
C93	C	0.385963	1.635864	-0.573438
C94	C	0.385978	1.635834	0.066083
C95	C	0.325369	1.743785	0.066084
C96	C	0.257938	1.797768	-0.000004
C97	C	0.251118	1.743804	-0.066107
C98	C	0.311727	1.635863	-0.066114
H99	H	0.330897	0.888695	0.119879
H100	H	0.208553	1.885666	-0.757077
H101	H	0.330872	1.787779	-0.779137
O102	O	1.068502	0.354531	-0.000034
C103	C	1.196219	0.199530	0.072543
C104	C	1.129527	0.318254	0.072543
H105	H	1.245573	0.170142	0.131237
H106	H	1.196277	0.241949	-0.028488
H107	H	1.196174	0.098524	0.114953
H108	H	1.129527	0.419299	0.030191
H109	H	1.129494	0.275717	0.173597
O110	O	0.935425	0.461061	0.797846
C111	C	0.855424	0.472330	0.917637
C112	C	0.862936	0.531646	0.785568
H113	H	0.796820	0.529351	0.907756
H114	H	0.881905	0.493613	0.971482
H115	H	0.881994	0.350022	0.971455
H116	H	0.836362	0.653962	0.731645
H117	H	0.836473	0.510251	0.731819
O118	O	0.451512	1.583438	0.130099
C119	C	0.563013	1.550508	0.117958
C120	C	0.488827	1.609860	0.045313
H121	H	0.593198	1.571876	0.049436
H122	H	0.593295	1.428195	0.192996
H123	H	0.557444	1.607609	0.165222
H124	H	0.494331	1.552870	-0.002029
H125	H	0.458573	1.732183	-0.029655
O126	O	0.962526	0.673403	0.130368
C127	C	1.042585	0.662003	0.261439
C128	C	1.035026	0.602764	0.188644
H129	H	1.101197	0.604940	0.308552
H130	H	1.016115	0.640709	0.336586
H131	H	1.016029	0.784310	0.192984
H132	H	1.061586	0.480450	0.257001
H133	H	1.061477	0.624171	0.113479
O134	O	0.185652	1.795990	-0.130197
C135	C	0.103622	1.740211	-0.154238
C136	C	0.177791	1.680919	-0.081587
H137	H	0.097237	1.647211	-0.114947
H138	H	0.097199	1.790692	-0.258603
H139	H	0.061496	1.826663	-0.142892
H140	H	0.219961	1.594418	-0.092831
H141	H	0.184153	1.630530	0.022749
O142	O	0.815989	0.673814	0.584964
C143	C	0.689703	0.839975	0.477336
C144	C	0.763885	0.780577	0.464018
H145	H	0.647557	0.926281	0.379567
H146	H	0.683269	0.890604	0.531092
H147	H	0.683369	0.746922	0.531227
H148	H	0.770270	0.873550	0.410101
H149	H	0.770285	0.729906	0.410313
O150	O	1.081827	0.461178	0.537082
C151	C	1.163806	0.517041	0.457093
C152	C	1.089661	0.576281	0.470567
H153	H	1.170169	0.610066	0.403340
H154	H	1.170198	0.466573	0.403205
H155	H	1.205963	0.430590	0.554851
H156	H	1.047459	0.662782	0.372861
H157	H	1.083329	0.626658	0.524518
H158	H	0.826617	0.665187	-0.119987
H159	H	1.071286	0.469330	0.119806
H160	H	0.330936	1.787703	0.119917
H161	H	0.936559	0.469398	-0.120021
O162	O	-0.183978	1.389114	-0.130515
C163	C	-0.295510	1.542524	-0.296022
C164	C	-0.221337	1.397100	-0.223247
H165	H	-0.325742	1.549014	-0.370995
H166	H	-0.290005	1.637058	-0.343351
H167	H	-0.325715	1.549115	-0.227523
H168	H	-0.191091	1.390366	-0.291663
H169	H	-0.226893	1.302634	-0.175899
O170	O	0.304998	1.583620	-0.324675
C171	C	0.224962	1.595002	-0.204952
C172	C	0.232502	1.654260	-0.337000
H173	H	0.166352	1.652067	-0.214872
H174	H	0.251445	1.616279	-0.151105
H175	H	0.251514	1.472698	-0.151116
H176	H	0.205946	1.776571	-0.390942
H177	H	0.206038	1.632871	-0.390752
O178	O	0.198993	1.902673	-0.000172
C179	C	0.071276	2.057548	-0.072624
C180	C	0.137968	1.938766	-0.072565
H181	H	0.021921	2.086744	-0.131125
H182	H	0.071230	2.158671	-0.115153
H183	H	0.071310	2.015085	0.028454
H184	H	0.137979	1.981092	-0.173604
H185	H	0.137990	1.837666	-0.029964
O186	O	0.185613	1.796409	-0.537381
C187	C	0.074083	2.007081	-0.582509
C188	C	0.148249	1.947677	-0.595890
H189	H	0.043848	2.129393	-0.629827
H190	H	0.079601	1.950046	-0.478166
H191	H	0.043875	1.985786	-0.629705
H192	H	0.178499	1.968959	-0.548764
H193	H	0.142681	2.004714	-0.700255
H194	H	0.961305	0.665179	0.343388
O195	O	0.451412	1.583709	-0.585426
C196	C	0.533398	1.639557	-0.665400
C197	C	0.459255	1.698802	-0.651918
H198	H	0.539769	1.732574	-0.719134
H199	H	0.539779	1.589116	-0.719309
H200	H	0.575557	1.553082	-0.567644
H201	H	0.417051	1.785326	-0.749621
H202	H	0.452934	1.749150	-0.597945
H203	H	0.440862	0.888690	0.119870
H204	H	0.196215	1.368355	-0.119927
H205	H	0.306163	1.591933	-0.119932
H206	H	1.058942	0.371461	0.757013
H207	H	0.306181	1.368368	-0.119910
H208	H	-0.038687	0.888704	0.119867
H209	H	0.071279	0.888698	0.119879
H210	H	-0.063404	1.368372	-0.119958
