data_functionalizedCrystal
_audit_creation_method	'MofGen! by Chris Wilmer'
_symmetry_space_group_name_H-M	'P1'
_symmetry_Int_Tables_number	1
_symmetry_cell_setting	triclinic
loop_
_symmetry_equiv_pos_as_xyz
  x,y,z
_cell_length_a	19.188905
_cell_length_b	10.540539
_cell_length_c	18.266242
_cell_angle_alpha	90.002342
_cell_angle_beta	89.987252
_cell_angle_gamma	96.169976
loop_
_atom_site_label
_atom_site_type_symbol
_atom_site_fract_x
_atom_site_fract_y
_atom_site_fract_z
O1	O	0.927212	-0.158317	-0.060998
O2	O	1.427212	0.341683	0.439002
O3	O	0.724041	-0.179683	-0.060973
O4	O	1.224041	0.320317	0.439027
O5	O	0.830262	0.015809	-0.060985
O6	O	1.330262	0.515809	0.439015
O7	O	0.820992	-0.353810	-0.060986
O8	O	1.320992	0.146190	0.439014
O9	O	0.830250	0.015814	0.060777
O10	O	1.330250	0.515814	0.560777
O11	O	0.724030	-0.179679	0.060789
O12	O	1.224030	0.320321	0.560789
O13	O	0.927201	-0.158313	0.060764
O14	O	1.427201	0.341687	0.560764
Zn15	Zn	0.825613	-0.168995	0.080109
Zn16	Zn	1.325613	0.331005	0.580109
Zn17	Zn	0.825629	-0.169001	-0.080318
Zn18	Zn	1.325629	0.330999	0.419682
O19	O	0.820980	-0.353805	0.060776
O20	O	1.320980	0.146195	0.560776
C21	C	0.698019	-0.178994	-0.000089
C22	C	1.198019	0.321006	0.499911
C23	C	0.620500	-0.176933	-0.000079
C24	C	1.120500	0.323067	0.499921
C25	C	0.584108	-0.175946	-0.066453
C26	C	1.084108	0.324054	0.433547
C27	C	0.511272	-0.173995	-0.066463
C28	C	1.011272	0.326005	0.433537
C29	C	0.474831	-0.173006	-0.000094
C30	C	0.974831	0.326994	0.499906
C31	C	0.511232	-0.174001	0.066290
C32	C	1.011232	0.325999	0.566290
C33	C	0.584066	-0.175965	0.066297
C34	C	1.084066	0.324035	0.566297
N35	N	0.365304	-0.097688	0.049299
N36	N	0.865304	0.402312	0.549299
N37	N	0.296115	-0.095820	0.049287
N38	N	0.796115	0.404180	0.549287
C39	C	0.255385	-0.167093	-0.000111
C40	C	0.755385	0.332907	0.499889
N41	N	0.286460	-0.240289	-0.049509
N42	N	0.786460	0.259711	0.450491
N43	N	0.355656	-0.242151	-0.049500
N44	N	0.855656	0.257849	0.450500
C45	C	0.395855	-0.170878	-0.000094
C46	C	0.895855	0.329122	0.499906
C47	C	0.140015	-0.163992	-0.066500
C48	C	0.640015	0.336008	0.433500
C49	C	0.067177	-0.162049	-0.066506
C50	C	0.567177	0.337951	0.433494
C51	C	0.067139	-0.162043	0.066248
C52	C	0.567139	0.337957	0.566248
C53	C	0.139976	-0.163998	0.066252
C54	C	0.639976	0.336002	0.566252
C55	C	0.176410	-0.164967	-0.000124
C56	C	0.676410	0.335033	0.499876
C57	C	0.829561	0.063099	-0.000106
C58	C	1.329561	0.563099	0.499894
C59	C	0.827481	0.204001	-0.000109
C60	C	1.327481	0.704001	0.499891
C61	C	0.953223	-0.159002	-0.000122
C62	C	1.453223	0.340998	0.499878
C63	C	1.030742	-0.161063	-0.000137
C64	C	1.530742	0.338937	0.499863
C65	C	0.821681	-0.401095	-0.000105
C66	C	1.321681	0.098905	0.499895
C67	C	0.823761	-0.541997	-0.000106
C68	C	1.323761	-0.041997	0.499894
N69	N	0.825608	-0.168990	0.189596
N70	N	1.325608	0.331010	0.689596
C71	C	0.747779	0.385658	-0.000373
C72	C	1.247779	0.885658	0.499627
C73	C	0.749887	0.239087	-0.000099
C74	C	1.249887	0.739087	0.499901
C75	C	0.864816	0.266490	0.069418
C76	C	1.364816	0.766490	0.569418
C77	C	0.862168	0.412976	0.069477
C78	C	1.362168	0.912976	0.569477
C79	C	0.863759	0.413524	-0.068989
C80	C	1.363759	0.913524	0.431011
C81	C	0.864474	0.266558	-0.069909
C82	C	1.364474	0.766558	0.430091
N83	N	0.825640	-0.168996	-0.189805
N84	N	1.325640	0.331004	0.310195
C85	C	0.872675	-0.082455	0.771867
C86	C	1.372675	0.417545	1.271867
C87	C	0.872676	-0.082458	0.695222
C88	C	1.372676	0.417542	1.195222
C89	C	0.825629	-0.168990	0.656908
C90	C	1.325629	0.331010	1.156908
C91	C	0.778590	-0.255546	0.695245
C92	C	1.278590	0.244454	1.195245
C93	C	0.778595	-0.255549	0.771889
C94	C	1.278595	0.244451	1.271889
N95	N	0.763926	-0.185449	0.536589
N96	N	1.263926	0.314551	1.036589
N97	N	0.763923	-0.185438	0.463781
N98	N	1.263923	0.314562	0.963781
C99	C	0.825612	-0.168987	0.425986
C100	C	1.325612	0.331013	0.925986
N101	N	0.887306	-0.152522	0.463749
N102	N	1.387306	0.347478	0.963749
N103	N	0.887308	-0.152526	0.536564
N104	N	1.387308	0.347474	1.036564
C105	C	0.825619	-0.168996	0.573801
C106	C	1.325619	0.331004	1.073801
C107	C	0.872653	-0.082445	0.304551
C108	C	1.372653	0.417555	0.804551
C109	C	0.872655	-0.082457	0.227905
C110	C	1.372655	0.417543	0.727905
C111	C	0.778562	-0.255539	0.227929
C112	C	1.278562	0.244461	0.727929
C113	C	0.778566	-0.255533	0.304574
C114	C	1.278566	0.244467	0.804574
C115	C	0.825611	-0.168979	0.342880
C116	C	1.325611	0.331021	0.842880
H117	H	0.169681	-0.164794	-0.120547
H118	H	0.669681	0.335206	0.379453
H119	H	0.919805	0.461994	-0.069464
H120	H	1.419805	0.961994	0.430536
H121	H	0.740292	-0.326023	0.803096
H122	H	1.240292	0.173977	1.303096
H123	H	0.613768	-0.176735	-0.120502
H124	H	1.113768	0.323265	0.379498
H125	H	0.717248	0.415190	0.049215
H126	H	1.217248	0.915190	0.549215
H127	H	0.834566	0.440564	0.121457
H128	H	1.334566	0.940564	0.621457
H129	H	0.910961	-0.011971	0.335741
H130	H	1.410961	0.488029	0.835741
H131	H	0.838651	0.444517	-0.121687
H132	H	1.338651	0.944517	0.378313
H133	H	0.169607	-0.164794	0.120302
H134	H	0.669607	0.335206	0.620302
H135	H	0.720510	0.195830	-0.049938
H136	H	1.220510	0.695830	0.450062
H137	H	0.740263	-0.325997	0.335782
H138	H	1.240263	0.174003	0.835782
H139	H	0.037470	-0.161245	0.120287
H140	H	0.537470	0.338755	0.620287
H141	H	0.481635	-0.173193	-0.120514
H142	H	0.981635	0.326807	0.379486
H143	H	0.481557	-0.173199	0.120328
H144	H	0.981557	0.326801	0.620328
H145	H	0.720294	0.196676	0.049831
H146	H	1.220294	0.696676	0.549831
H147	H	0.910983	-0.011982	0.803054
H148	H	1.410983	0.488018	1.303054
H149	H	0.837156	0.225091	-0.121343
H150	H	1.337156	0.725091	0.378657
H151	H	0.921046	0.243592	-0.074115
H152	H	1.421046	0.743592	0.425885
H153	H	0.613696	-0.176770	0.120349
H154	H	1.113696	0.323230	0.620349
H155	H	0.037547	-0.161253	-0.120559
H156	H	0.537547	0.338747	0.379441
H157	H	0.917972	0.462183	0.072625
H158	H	1.417972	0.962183	0.572625
H159	H	0.921798	0.245401	0.071996
H160	H	1.421798	0.745401	0.571996
H161	H	0.910961	-0.011989	0.196698
H162	H	1.410961	0.488011	0.696698
H163	H	0.740285	-0.326003	0.664046
H164	H	1.240285	0.173997	1.164046
H165	H	0.717132	0.413576	-0.050231
H166	H	1.217132	0.913576	0.449769
H167	H	0.838872	0.223317	0.121165
H168	H	1.338872	0.723317	0.621165
H169	H	0.910980	-0.011984	0.664010
H170	H	1.410980	0.488016	1.164010
H171	H	0.740258	-0.325999	0.196734
H172	H	1.240258	0.174001	0.696734
