data_functionalizedCrystal
_audit_creation_method	'MofGen! by Chris Wilmer'
_symmetry_space_group_name_H-M	'P1'
_symmetry_Int_Tables_number	1
_symmetry_cell_setting	triclinic
loop_
_symmetry_equiv_pos_as_xyz
  x,y,z
_cell_length_a	15.944551
_cell_length_b	14.519709
_cell_length_c	13.596369
_cell_angle_alpha	89.999709
_cell_angle_beta	89.993059
_cell_angle_gamma	96.410558
loop_
_atom_site_label
_atom_site_type_symbol
_atom_site_fract_x
_atom_site_fract_y
_atom_site_fract_z
O1	O	0.110109	-1.223676	-0.081665
O2	O	0.610109	-0.723676	0.418335
O3	O	0.123076	-0.955176	-0.081696
O4	O	0.623076	-0.455176	0.418304
O5	O	-0.005672	-1.096758	-0.081671
O6	O	0.494328	-0.596758	0.418329
O7	O	0.238856	-1.082094	-0.081690
O8	O	0.738856	-0.582094	0.418310
O9	O	-0.005679	-1.096744	0.081912
O10	O	0.494321	-0.596744	0.581912
O11	O	0.123069	-0.955162	0.081887
O12	O	0.623069	-0.455162	0.581887
O13	O	0.110102	-1.223662	0.081917
O14	O	0.610102	-0.723662	0.581917
Zn15	Zn	0.116584	-1.089410	0.107875
Zn16	Zn	0.616584	-0.589410	0.607875
Zn17	Zn	0.116593	-1.089428	-0.107653
Zn18	Zn	0.616593	-0.589428	0.392347
O19	O	0.238850	-1.082080	0.081893
O20	O	0.738850	-0.582080	0.581893
C21	C	0.122468	-0.920810	0.000092
C22	C	0.622468	-0.420810	0.500092
C23	C	0.120657	-0.818432	0.000081
C24	C	0.620657	-0.318432	0.500081
C25	C	-0.036970	-1.096142	0.000121
C26	C	0.463030	-0.596142	0.500121
C27	C	-0.130219	-1.094317	0.000121
C28	C	0.369781	-0.594317	0.500121
C29	C	0.110710	-1.258028	0.000128
C30	C	0.610710	-0.758028	0.500128
C31	C	0.112521	-1.360406	0.000132
C32	C	0.612521	-0.860406	0.500132
C33	C	-0.345209	-1.002196	0.000097
C34	C	0.154791	-0.502196	0.500097
C35	C	-0.406168	-1.044967	0.080758
C36	C	0.093832	-0.544967	0.580758
C37	C	-0.300950	-1.091015	0.000113
C38	C	0.199050	-0.591015	0.500113
C39	C	-0.406144	-1.045002	-0.080522
C40	C	0.093856	-0.545002	0.419478
C41	C	-0.465867	-1.087820	0.000101
C42	C	0.034133	-0.587820	0.500101
C43	C	-0.360680	-1.133811	0.080841
C44	C	0.139320	-0.633811	0.580841
C45	C	-0.360650	-1.133833	-0.080512
C46	C	0.139350	-0.633833	0.419488
C47	C	-0.421591	-1.176669	0.000169
C48	C	0.078409	-0.676669	0.500169
C49	C	-0.205945	-1.092854	0.000121
C50	C	0.294055	-0.592854	0.500121
C51	C	-0.560871	-1.085988	0.000100
C52	C	-0.060871	-0.585988	0.500100
C53	C	0.270148	-1.082696	0.000099
C54	C	0.770148	-0.582696	0.500099
C55	C	0.363397	-1.084521	0.000092
C56	C	0.863397	-0.584521	0.500092
N57	N	0.116578	-1.089404	0.254966
N58	N	0.616578	-0.589404	0.754966
C59	C	0.113990	-0.443548	0.000126
C60	C	0.613990	0.056452	0.500126
C61	C	0.115842	-0.547853	0.000113
C62	C	0.615842	-0.047853	0.500113
C63	C	0.117323	-0.630987	0.000102
C64	C	0.617323	-0.130987	0.500102
C65	C	0.119175	-0.735298	0.000091
C66	C	0.619175	-0.235298	0.500091
N67	N	0.116593	-1.089442	-0.254745
N68	N	0.616593	-0.589442	0.245255
C69	C	0.116594	-1.089427	0.656257
C70	C	0.616594	-0.589427	1.156257
C71	C	0.116592	-1.089418	0.544606
C72	C	0.616592	-0.589418	1.044606
C73	C	0.116587	-1.089416	0.455615
C74	C	0.616587	-0.589416	0.955615
C75	C	0.116584	-1.089406	0.343957
C76	C	0.616584	-0.589406	0.843957
H77	H	-0.312009	-0.928471	0.000169
H78	H	0.187991	-0.428471	0.500169
C79	C	-0.404917	-1.213986	0.229697
C80	C	0.095083	-0.713986	0.729697
C81	C	-0.333633	-1.184476	0.173003
C82	C	0.166367	-0.684476	0.673003
H83	H	-0.388217	-1.245266	0.286590
H84	H	0.111783	-0.745266	0.786590
H85	H	-0.431986	-1.161795	0.248963
H86	H	0.068014	-0.661795	0.748963
H87	H	-0.442887	-1.254924	0.191991
H88	H	0.057113	-0.754924	0.691991
H89	H	-0.295666	-1.143532	0.210707
H90	H	0.204334	-0.643532	0.710707
H91	H	-0.306551	-1.236674	0.153738
H92	H	0.193449	-0.736674	0.653738
H93	H	-0.454643	-1.250458	0.000223
H94	H	0.045357	-0.750458	0.500223
H95	H	-0.340463	-1.171374	-0.148699
H96	H	0.159537	-0.671374	0.351301
C97	C	-0.362042	-0.963967	-0.228923
C98	C	0.137958	-0.463967	0.271077
C99	C	-0.433331	-0.994285	-0.172582
C100	C	0.066669	-0.494285	0.327418
H101	H	-0.378826	-0.932658	-0.285756
H102	H	0.121174	-0.432658	0.214244
H103	H	-0.324448	-0.922877	-0.190940
H104	H	0.175552	-0.422877	0.309060
H105	H	-0.334513	-1.015808	-0.248296
H106	H	0.165487	-0.515808	0.251704
H107	H	-0.460857	-0.942443	-0.153203
H108	H	0.039143	-0.442443	0.346797
H109	H	-0.470939	-1.035377	-0.210572
H110	H	0.029061	-0.535377	0.289428
C111	C	-0.394465	-0.902902	0.172647
C112	C	0.105535	-0.402902	0.672647
C113	C	-0.433399	-0.994249	0.172802
C114	C	0.066601	-0.494249	0.672802
H115	H	-0.411279	-0.871588	0.229467
H116	H	0.088721	-0.371588	0.729467
H117	H	-0.334927	-0.903205	0.173010
H118	H	0.165073	-0.403205	0.673010
H119	H	-0.410797	-0.871960	0.115366
H120	H	0.089203	-0.371960	0.615366
H121	H	-0.417062	-1.025193	0.230081
H122	H	0.082938	-0.525193	0.730081
H123	H	-0.492950	-0.993950	0.172449
H124	H	0.007050	-0.493950	0.672449
