data_functionalizedCrystal
_audit_creation_method	'MofGen! by Chris Wilmer'
_symmetry_space_group_name_H-M	'P1'
_symmetry_Int_Tables_number	1
_symmetry_cell_setting	triclinic
loop_
_symmetry_equiv_pos_as_xyz
  x,y,z
_cell_length_a	11.026607
_cell_length_b	22.610064
_cell_length_c	10.967829
_cell_angle_alpha	102.123763
_cell_angle_beta	96.380563
_cell_angle_gamma	90.009417
loop_
_atom_site_label
_atom_site_type_symbol
_atom_site_fract_x
_atom_site_fract_y
_atom_site_fract_z
O1	O	1.614546	0.102539	0.523484
O2	O	1.260742	0.096464	0.463873
O3	O	1.445799	0.081172	0.313866
O4	O	1.429489	0.117831	0.673491
O5	O	1.445767	-0.017195	0.313887
O6	O	1.260709	-0.001903	0.463894
O7	O	1.614513	0.004172	0.523504
Zn8	Zn	1.437606	-0.014484	0.493702
Zn9	Zn	1.437649	0.115119	0.493675
O10	O	1.429456	0.019464	0.673511
C11	C	1.215423	0.046160	0.452886
C12	C	1.080435	0.042819	0.420104
N13	N	1.437585	-0.102934	0.493722
C14	C	1.007386	0.052046	0.510622
C15	C	0.867868	0.048593	0.476742
C16	C	1.519596	-0.518350	0.427266
C17	C	1.519603	-0.580271	0.427258
O18	O	1.589280	-0.618049	0.370762
N19	N	1.437648	-0.604479	0.493649
C20	C	1.355674	-0.566763	0.560041
O21	O	1.285965	-0.593040	0.616510
C22	C	1.355663	-0.504844	0.560041
C23	C	1.437631	-0.480639	0.493656
C24	C	1.601557	-0.494144	0.360886
C25	C	1.601552	-0.432228	0.360895
C26	C	1.519587	-0.394517	0.427286
C27	C	1.437626	-0.418723	0.493666
C28	C	1.273683	-0.467131	0.626425
C29	C	1.273679	-0.405209	0.626418
C30	C	1.355647	-0.381003	0.560034
C31	C	1.355655	-0.319095	0.560066
N32	N	1.437610	-0.294887	0.493676
C33	C	1.519576	-0.332598	0.427285
C34	C	1.355702	-0.696797	0.560035
C35	C	1.355717	-0.758714	0.560044
C36	C	1.519645	-0.772218	0.427259
C37	C	1.519634	-0.710299	0.427258
C38	C	1.437656	-0.672590	0.493645
C39	C	1.519560	-0.202568	0.427312
C40	C	1.519551	-0.140645	0.427332
C41	C	1.355619	-0.127147	0.560111
C42	C	1.355632	-0.189065	0.560097
C43	C	1.437607	-0.226774	0.493688
O44	O	1.286010	-0.281281	0.616530
O45	O	1.589262	-0.306314	0.370813
C46	C	1.659832	0.054477	0.534491
C47	C	1.794820	0.057822	0.567274
C48	C	1.444594	0.027224	0.267121
C49	C	1.441036	0.013026	0.127802
N50	N	1.437679	0.203569	0.493648
C51	C	1.439466	0.057654	0.065684
C52	C	1.435789	0.042981	-0.078310
C53	C	1.430662	0.073413	0.720257
C54	C	1.434220	0.087615	0.859576
H55	H	1.048134	0.062499	0.613201
H56	H	1.206918	-0.374508	0.680476
H57	H	1.440840	0.106724	0.119105
H58	H	1.288948	-0.666096	0.614106
H59	H	1.439649	-0.036044	0.074379
O60	O	1.681212	-0.408823	0.296286
C61	C	1.753565	-0.455393	0.237717
H62	H	1.703706	-0.500821	0.225094
H63	H	1.844219	-0.455762	0.298644
C64	C	1.838732	-0.388604	0.123991
C65	C	1.777489	-0.444399	0.108478
H66	H	1.853495	-0.381822	0.044273
H67	H	1.789990	-0.357229	0.163454
H68	H	1.914270	-0.388919	0.174768
H69	H	1.701947	-0.444081	0.057715
H70	H	1.826219	-0.475775	0.069004
H71	H	0.827125	0.038151	0.374156
O72	O	0.843462	0.070408	0.689645
C73	C	0.916071	0.123829	0.713961
H74	H	0.885463	0.152085	0.641902
H75	H	1.015810	0.111649	0.707471
C76	C	0.939591	0.125760	0.935131
C77	C	0.901992	0.160467	0.846634
H78	H	0.930913	0.148359	1.016972
H79	H	0.890678	0.089768	0.918750
H80	H	1.022705	0.115613	0.929707
H81	H	0.818876	0.170607	0.852049
H82	H	0.950892	0.196462	0.863019
H83	H	1.288887	-0.096433	0.614170
H84	H	1.288898	-0.208771	0.614168
O85	O	1.031777	0.030451	0.297742
C86	C	0.959193	0.078909	0.273398
H87	H	0.989829	0.121859	0.345425
H88	H	0.859450	0.068054	0.279912
C89	C	0.935629	0.035733	0.052243
C90	C	0.973264	0.088486	0.140702
H91	H	0.944304	0.041640	-0.029612
H92	H	0.984527	0.003085	0.068644
H93	H	0.852513	0.026693	0.057688
H94	H	1.056383	0.097521	0.135266
H95	H	0.924381	0.121136	0.124297
O96	O	1.681020	-0.530814	0.296231
C97	C	1.615303	-0.576002	0.204449
H98	H	1.519399	-0.559778	0.180737
H99	H	1.609281	-0.619094	0.242129
C100	C	1.798995	-0.608993	0.114443
C101	C	1.681207	-0.589065	0.085313
H102	H	1.839649	-0.617054	0.040956
H103	H	1.843272	-0.578551	0.176281
H104	H	1.793961	-0.644901	0.145846
H105	H	1.686243	-0.553155	0.053926
H106	H	1.636932	-0.619502	0.023467
H107	H	1.434402	-0.006093	-0.131727
O108	O	1.435616	0.146143	-0.076642
C109	C	1.332373	0.156029	-0.010489
H110	H	1.297894	0.111119	0.005891
H111	H	1.257467	0.176653	-0.067590
C112	C	1.409708	0.254794	0.096661
C113	C	1.367365	0.199635	0.116789
H114	H	1.431289	0.281694	0.175170
H115	H	1.479262	0.248134	0.052090
H116	H	1.347278	0.271972	0.049074
H117	H	1.429799	0.182454	0.164361
H118	H	1.297822	0.206293	0.161371
H119	H	1.586304	-0.120939	0.373274
O120	O	1.599304	-0.239104	0.362781
C121	C	1.671612	-0.204453	0.304174
H122	H	1.673397	-0.155065	0.355756
H123	H	1.631363	-0.208232	0.202417
C124	C	1.800364	-0.288874	0.244580
C125	C	1.802565	-0.228215	0.307941
H126	H	1.881141	-0.303532	0.246898
H127	H	1.751647	-0.312220	0.284061
H128	H	1.766818	-0.292015	0.159788
H129	H	1.836096	-0.225076	0.392734
H130	H	1.851291	-0.204869	0.268474
O131	O	1.599145	-0.808947	0.362776
C132	C	1.581586	-0.868784	0.377040
H133	H	1.485320	-0.874702	0.402004
H134	H	1.650922	-0.878385	0.455236
C135	C	1.717018	-0.905916	0.222608
C136	C	1.598779	-0.913186	0.253259
H137	H	1.727629	-0.933306	0.146257
H138	H	1.728853	-0.865603	0.213001
H139	H	1.774785	-0.913916	0.287781
H140	H	1.541016	-0.905179	0.188094
H141	H	1.586935	-0.953500	0.262852
H142	H	1.586379	-0.690595	0.373201
H143	H	1.288984	-0.778416	0.614116
H144	H	1.206937	-0.486830	0.680481
