data_functionalizedCrystal
_audit_creation_method	'MofGen! by Chris Wilmer'
_symmetry_space_group_name_H-M	'P1'
_symmetry_Int_Tables_number	1
_symmetry_cell_setting	triclinic
loop_
_symmetry_equiv_pos_as_xyz
  x,y,z
_cell_length_a	10.540510
_cell_length_b	15.995350
_cell_length_c	9.616153
_cell_angle_alpha	89.999971
_cell_angle_beta	89.992871
_cell_angle_gamma	84.002843
loop_
_atom_site_label
_atom_site_type_symbol
_atom_site_fract_x
_atom_site_fract_y
_atom_site_fract_z
O1	O	1.684294	0.117876	-0.115647
O2	O	1.314723	0.129019	-0.115647
O3	O	1.509611	0.001620	-0.115646
O4	O	1.489406	0.245276	-0.115648
O5	O	1.509584	0.001622	0.115646
O6	O	1.314696	0.129022	0.115645
O7	O	1.684267	0.117878	0.115645
Zn8	Zn	1.499478	0.123451	0.152367
Zn9	Zn	1.499513	0.123447	-0.152369
O10	O	1.489379	0.245278	0.115643
C11	C	1.267417	0.128190	-0.000001
C12	C	1.126502	0.125706	-0.000002
C13	C	0.907830	0.214210	-0.000534
C14	C	1.054389	0.216860	-0.000004
C15	C	1.082368	0.079045	0.132074
C16	C	0.935635	0.077041	0.132177
C17	C	0.935885	0.075139	-0.130845
C18	C	1.082167	0.079463	-0.132582
C19	C	1.508762	-0.029579	-0.000002
C20	C	1.506258	-0.122544	-0.000010
C21	C	1.497265	-0.460345	-0.000006
C22	C	1.358469	-0.413731	-0.000524
C23	C	1.360974	-0.317026	-0.000003
C24	C	1.501726	-0.292758	-0.000009
C25	C	1.570169	-0.333429	0.132068
C26	C	1.566683	-0.430085	0.132178
C27	C	1.569580	-0.430430	-0.130844
C28	C	1.569547	-0.333484	-0.132589
C29	C	1.504254	-0.198045	-0.000006
C30	C	1.494740	-0.555057	0.000001
C31	C	1.731573	0.118707	-0.000004
C32	C	1.872489	0.121192	-0.000013
C33	C	1.490228	0.276477	-0.000003
C34	C	1.492732	0.369442	-0.000004
N35	N	1.499463	0.123453	0.360342
N36	N	1.499538	0.123439	-0.360344
C37	C	1.394898	0.191374	0.580711
C38	C	1.395123	0.191629	0.419543
C39	C	1.631915	0.143318	0.418791
C40	C	1.631344	0.143799	0.580009
C41	C	1.472900	0.035442	0.580254
C42	C	1.469846	0.036013	0.419027
H43	H	1.112766	0.111452	0.230365
C44	C	1.092082	0.266464	0.128116
H45	H	1.181885	0.268262	0.128871
H46	H	1.066911	0.239639	0.210272
H47	H	1.050715	0.322104	0.124234
H48	H	0.913576	0.008863	0.138177
H49	H	1.130680	0.011939	0.136987
C50	C	0.848408	0.261910	0.126704
H51	H	0.802158	0.225383	0.180146
H52	H	0.792298	0.308683	0.096338
H53	H	0.914123	0.281078	0.182148
H54	H	1.655941	0.206792	0.378400
H55	H	1.541101	-0.016970	0.378733
C56	C	0.880690	0.120129	0.265537
H57	H	0.948078	0.138695	0.319138
H58	H	0.838189	0.081300	0.318344
H59	H	0.821920	0.166992	0.241397
C60	C	1.345240	0.009914	0.635225
H61	H	1.306988	0.052690	0.694924
H62	H	1.360075	-0.041319	0.685436
H63	H	1.289880	0.002644	0.559219
H64	H	1.303005	-0.432591	-0.095239
H65	H	1.549208	-0.015123	0.618371
H66	H	1.303229	-0.433650	0.093662
C67	C	1.287793	-0.279809	0.128125
H68	H	1.256426	-0.323803	0.180067
H69	H	1.218330	-0.241248	0.098683
H70	H	1.343494	-0.251427	0.184695
C71	C	0.878044	0.114061	-0.266086
H72	H	0.814684	0.158766	-0.244019
H73	H	0.840511	0.072370	-0.317663
H74	H	0.943259	0.135080	-0.319996
H75	H	1.516751	-0.448681	0.230911
C76	C	1.508291	-0.458533	-0.266079
H77	H	1.438018	-0.488776	-0.244007
H78	H	1.569541	-0.493646	-0.317654
H79	H	1.479471	-0.410505	-0.319994
H80	H	1.307172	-0.288923	-0.094681
H81	H	1.711640	0.096311	0.618998
H82	H	1.412125	0.256915	0.380963
C83	C	1.704333	-0.472841	0.140295
H84	H	1.762134	-0.431115	0.143522
H85	H	1.721854	-0.507256	0.060655
H86	H	1.713935	-0.506516	0.221747
C87	C	1.502047	-0.297004	-0.264589
H88	H	1.432825	-0.257116	-0.239024
H89	H	1.470874	-0.341089	-0.316450
H90	H	1.560802	-0.270282	-0.319718
H91	H	1.673575	-0.318692	0.136975
C92	C	1.120205	0.125323	-0.264582
H93	H	1.162936	0.172452	-0.239017
H94	H	1.045824	0.143795	-0.316442
H95	H	1.175353	0.088014	-0.319713
C96	C	1.149673	-0.010444	-0.143355
H97	H	1.206025	-0.021004	-0.066789
H98	H	1.196775	-0.016187	-0.227650
H99	H	1.087856	-0.049613	-0.142235
C100	C	1.262101	0.175542	0.366147
H101	H	1.262056	0.175689	0.267352
H102	H	1.200465	0.218499	0.399279
H103	H	1.241718	0.122518	0.398859
C104	C	1.338223	0.015667	0.367432
H105	H	1.301466	0.060267	0.310356
H106	H	1.284236	0.009177	0.444941
H107	H	1.347771	-0.034990	0.315137
H108	H	1.654816	0.207999	0.617596
H109	H	1.522610	-0.305327	0.230358
H110	H	1.672190	-0.317516	-0.140568
H111	H	1.671914	-0.461586	-0.131735
H112	H	1.083244	0.253364	-0.094685
H113	H	1.296134	0.179606	0.619522
H114	H	1.411674	0.256290	0.621209
C115	C	0.850496	0.262192	-0.128477
H116	H	0.804484	0.225931	-0.182722
H117	H	0.917142	0.281066	-0.182863
H118	H	0.794459	0.309178	-0.098772
H119	H	1.711632	0.095188	0.380439
H120	H	0.914672	0.006701	-0.131737
