data_functionalizedCrystal
_audit_creation_method	'MofGen! by Chris Wilmer'
_symmetry_space_group_name_H-M	'P1'
_symmetry_Int_Tables_number	1
_symmetry_cell_setting	triclinic
loop_
_symmetry_equiv_pos_as_xyz
  x,y,z
_cell_length_a	12.594517
_cell_length_b	18.050590
_cell_length_c	12.594509
_cell_angle_alpha	89.967171
_cell_angle_beta	89.977786
_cell_angle_gamma	90.017985
loop_
_atom_site_label
_atom_site_type_symbol
_atom_site_fract_x
_atom_site_fract_y
_atom_site_fract_z
Zn1	Zn	1.627248	-0.295648	-0.601851
Zn2	Zn	1.627132	-0.419852	-0.423858
Zn3	Zn	1.449252	-0.295679	-0.423877
Zn4	Zn	1.449227	-0.419800	-0.601786
O5	O	1.538215	-0.357745	-0.512843
O6	O	1.776179	-0.312133	-0.578260
O7	O	1.603497	-0.403415	-0.274915
O8	O	1.472924	-0.191751	-0.447521
O9	O	1.776093	-0.403385	-0.447489
O10	O	1.603697	-0.191728	-0.578278
O11	O	1.472810	-0.312186	-0.274929
O12	O	1.300303	-0.312135	-0.447458
O13	O	1.472880	-0.403296	-0.750740
O14	O	1.300284	-0.403326	-0.578166
O15	O	1.603672	-0.312082	-0.750788
O16	O	1.603472	-0.523770	-0.447425
O17	O	1.472767	-0.523731	-0.578148
C18	C	1.261674	-0.357729	-0.512808
C19	C	1.143368	-0.357740	-0.512818
C20	C	1.003331	-0.308087	-0.441888
C21	C	1.074191	-0.289992	-0.539016
C22	C	1.074080	-0.375801	-0.415700
C23	C	1.003443	-0.339639	-0.610075
C24	C	1.003326	-0.425480	-0.486694
C25	C	1.074154	-0.407411	-0.583889
C26	C	1.538133	-0.550697	-0.512801
C27	C	1.538195	-0.633243	-0.512818
C28	C	1.609421	-0.832687	-0.441831
C29	C	1.635423	-0.882015	-0.538974
C30	C	1.538256	-0.784373	-0.512861
C31	C	1.512362	-0.882127	-0.415761
C32	C	1.538316	-0.930358	-0.512893
C33	C	1.564308	-0.832613	-0.610055
C34	C	1.441201	-0.832721	-0.486776
C35	C	1.467167	-0.882027	-0.583987
C36	C	1.538224	-0.700275	-0.512841
C37	C	1.538348	-1.014455	-0.512924
C38	C	1.815836	-0.357762	-0.512880
C39	C	1.934141	-0.357769	-0.512895
C40	C	1.538286	-0.357680	-0.790464
C41	C	1.538316	-0.357652	-0.908770
C42	C	1.538326	-0.164039	-0.512909
C43	C	1.538373	-0.081493	-0.512937
C44	C	1.467201	-0.407235	-0.977997
C45	C	1.564321	-0.425381	-1.048787
C46	C	1.441273	-0.339461	-1.048779
C47	C	1.635487	-0.375834	-0.978001
C48	C	1.512373	-0.289882	-0.977988
C49	C	1.609560	-0.308003	-1.048745
C50	C	1.538205	-0.357756	-0.236302
C51	C	1.538381	-0.357575	-0.117997
H52	H	0.972542	-0.324309	-0.692263
N53	N	1.689165	-0.803982	-0.362354
H54	H	1.688099	-0.748033	-0.362426
H55	H	1.670293	-0.822817	-0.289215
H56	H	1.490367	-0.232621	-0.946865
H57	H	1.586153	-0.810957	-0.692256
H58	H	1.586299	-0.482659	-1.079885
H59	H	0.972238	-0.266053	-0.381946
N60	N	1.332534	-0.319119	-1.089969
H61	H	1.278855	-0.356639	-1.064232
H62	H	1.312455	-0.268310	-1.063100
H63	H	1.105299	-0.232715	-0.561164
N64	N	1.689344	-0.252424	-1.089663
H65	H	1.762608	-0.266234	-1.063784
H66	H	1.688393	-0.252428	-1.169848
H67	H	1.717606	-0.391252	-0.947042
N68	N	1.115083	-0.463054	-0.663466
H69	H	1.089247	-0.449329	-0.736790
H70	H	1.195267	-0.463027	-0.662479
H71	H	0.972176	-0.482737	-0.464530
H72	H	1.105112	-0.391064	-0.333536
N73	N	1.332485	-0.804000	-0.457493
H74	H	1.278538	-0.822728	-0.510382
H75	H	1.313057	-0.821983	-0.384060
H76	H	1.407010	-0.903554	-0.644138
H77	H	1.717526	-0.903669	-0.561058
H78	H	1.490436	-0.903875	-0.333631
H79	H	1.407108	-0.449231	-0.946933
