data_functionalizedCrystal
_audit_creation_method	'MofGen! by Chris Wilmer'
_symmetry_space_group_name_H-M	'P1'
_symmetry_Int_Tables_number	1
_symmetry_cell_setting	triclinic
loop_
_symmetry_equiv_pos_as_xyz
  x,y,z
_cell_length_a	12.827893
_cell_length_b	19.077068
_cell_length_c	19.077579
_cell_angle_alpha	89.936576
_cell_angle_beta	87.688646
_cell_angle_gamma	87.673061
loop_
_atom_site_label
_atom_site_type_symbol
_atom_site_fract_x
_atom_site_fract_y
_atom_site_fract_z
Zn1	Zn	1.606155	0.263803	-0.408505
Zn2	Zn	1.939488	0.597137	-0.075171
Zn3	Zn	2.272822	0.930470	0.258162
Zn4	Zn	1.592009	0.386035	-0.295711
Zn5	Zn	1.925343	0.719368	0.037622
Zn6	Zn	2.258676	1.052702	0.370956
Zn7	Zn	1.424122	0.268544	-0.291015
Zn8	Zn	1.757456	0.601877	0.042318
Zn9	Zn	2.090789	0.935211	0.375652
Zn10	Zn	1.424616	0.381277	-0.413182
Zn11	Zn	1.757949	0.714610	-0.079849
Zn12	Zn	2.091283	1.047944	0.253485
O13	O	1.511726	0.324915	-0.352103
O14	O	1.845059	0.658248	-0.018770
O15	O	2.178392	0.991582	0.314563
O16	O	1.750515	0.280025	-0.393550
O17	O	2.083848	0.613358	-0.060217
O18	O	2.417181	0.946692	0.273117
O19	O	1.563612	0.374425	-0.196756
O20	O	1.896945	0.707758	0.136577
O21	O	2.230279	1.041091	0.469911
O22	O	1.453983	0.169582	-0.302678
O23	O	1.787316	0.502915	0.030656
O24	O	2.120649	0.836248	0.363989
O25	O	1.740122	0.369828	-0.310681
O26	O	2.073455	0.703161	0.022652
O27	O	2.406788	1.036495	0.355986
O28	O	1.587722	0.166099	-0.388997
O29	O	1.921055	0.499432	-0.055663
O30	O	2.254388	0.832765	0.277670
O31	O	1.440266	0.288104	-0.193306
O32	O	1.773599	0.621438	0.140027
O33	O	2.106933	0.954771	0.473361
O34	O	1.277952	0.283491	-0.307213
O35	O	1.611285	0.616824	0.026120
O36	O	1.944618	0.950158	0.359454
O37	O	1.454824	0.361719	-0.510894
O38	O	1.788158	0.695052	-0.177560
O39	O	2.121491	1.028386	0.155773
O40	O	1.278314	0.366316	-0.396969
O41	O	1.611648	0.699649	-0.063635
O42	O	1.944981	1.032982	0.269698
O43	O	1.588200	0.275411	-0.507457
O44	O	1.921534	0.608745	-0.174124
O45	O	2.254867	0.942078	0.159210
O46	O	1.564091	0.483737	-0.315216
O47	O	1.897424	0.817071	0.018117
O48	O	2.230757	1.150404	0.351450
O49	O	1.441108	0.480242	-0.401522
O50	O	1.774441	0.813575	-0.068189
O51	O	2.107774	1.146909	0.265145
C52	C	1.240216	0.324902	-0.352089
C53	C	1.573549	0.658235	-0.018756
C54	C	1.906882	0.991569	0.314577
C55	C	1.124063	0.324913	-0.352101
C56	C	1.457396	0.658246	-0.018767
C57	C	1.790729	0.991579	0.314566
C58	C	1.501147	0.507486	-0.359402
C59	C	1.834480	0.840819	-0.026068
C60	C	2.167814	1.174152	0.307265
C61	C	1.496719	0.585589	-0.362547
C62	C	1.830052	0.918923	-0.029214
C63	C	2.163385	1.252256	0.304119
C64	C	1.523145	0.317506	-0.535385
C65	C	1.856479	0.650839	-0.202051
C66	C	2.189812	0.984172	0.131282
C67	C	1.528012	0.314348	-0.613488
C68	C	1.861345	0.647682	-0.280155
C69	C	2.194678	0.981015	0.053178
C70	C	1.072477	0.365966	-0.396451
C71	C	1.405810	0.699299	-0.063118
C72	C	1.739144	1.032633	0.270215
C73	C	0.952427	0.365978	-0.396464
C74	C	1.285760	0.699311	-0.063131
C75	C	1.619093	1.032645	0.270202
C76	C	1.784296	0.324928	-0.352118
C77	C	2.117629	0.658262	-0.018784
C78	C	2.450962	0.991595	0.314549
C79	C	1.900449	0.324934	-0.352124
C80	C	2.233782	0.658268	-0.018790
C81	C	2.567116	0.991601	0.314543
C82	C	1.522375	0.141630	-0.344792
C83	C	1.855708	0.474964	-0.011458
C84	C	2.189042	0.808297	0.321875
C85	C	1.526913	0.063525	-0.341676
C86	C	1.860246	0.396859	-0.008343
C87	C	2.193580	0.730192	0.324991
C88	C	1.558723	0.624078	-0.319128
C89	C	1.892056	0.957411	0.014205
C90	C	2.225390	1.290745	0.347539
C91	C	1.554564	0.697464	-0.322091
C92	C	1.887897	1.030798	0.011243
C93	C	2.221231	1.364131	0.344576
C94	C	1.488395	0.732361	-0.368470
C95	C	1.821728	1.065694	-0.035137
C96	C	2.155061	1.399028	0.298196
C97	C	1.426388	0.693867	-0.411894
C98	C	1.759721	1.027201	-0.078561
C99	C	2.093055	1.360534	0.254772
C100	C	1.430553	0.620482	-0.408935
C101	C	1.763886	0.953815	-0.075601
C102	C	2.097220	1.287149	0.257732
C103	C	1.469071	0.951647	-0.382140
C104	C	1.802405	1.284980	-0.048807
C105	C	2.135738	1.618313	0.284526
C106	C	1.464909	1.025037	-0.385095
C107	C	1.798242	1.358370	-0.051762
C108	C	2.131575	1.691704	0.281571
C109	C	1.593087	1.028629	-0.295292
C110	C	1.926420	1.361962	0.038041
C111	C	2.259753	1.695296	0.371374
C112	C	1.597241	0.955242	-0.292334
C113	C	1.930575	1.288576	0.041000
C114	C	2.263908	1.621909	0.374333
C115	C	1.535239	0.916755	-0.335760
C116	C	1.868572	1.250088	-0.002427
C117	C	2.201905	1.583422	0.330906
N118	N	1.484140	0.807374	-0.371498
N119	N	1.817473	1.140707	-0.038165
N120	N	2.150807	1.474040	0.295168
N121	N	1.539500	0.841743	-0.332735
N122	N	1.872833	1.175077	0.000598
N123	N	2.206166	1.508410	0.333931
C124	C	1.562912	0.291754	-1.052937
C125	C	1.896246	0.625088	-0.719604
C126	C	2.229579	0.958421	-0.386270
C127	C	1.558333	0.294724	-0.979551
C128	C	1.891666	0.628058	-0.646217
C129	C	2.225000	0.961391	-0.312884
C130	C	1.486597	0.341141	-0.944650
C131	C	1.819930	0.674474	-0.611316
C132	C	2.153264	1.007808	-0.277983
C133	C	1.419443	0.384595	-0.983140
C134	C	1.752776	0.717929	-0.649806
C135	C	2.086109	1.051262	-0.316473
C136	C	1.424028	0.381628	-1.056525
C137	C	1.757361	0.714962	-0.723192
C138	C	2.090694	1.048295	-0.389858
C139	C	1.465442	0.354836	-0.725363
C140	C	1.798776	0.688169	-0.392030
C141	C	2.132109	1.021502	-0.058697
C142	C	1.460860	0.357798	-0.651973
C143	C	1.794194	0.691131	-0.318639
C144	C	2.127527	1.024465	0.014694
C145	C	1.599753	0.267927	-0.648389
C146	C	1.933086	0.601261	-0.315055
C147	C	2.266419	0.934594	0.018278
C148	C	1.604327	0.264962	-0.721776
C149	C	1.937660	0.598295	-0.388442
C150	C	2.270994	0.931628	-0.055109
C151	C	1.537177	0.308419	-0.760259
C152	C	1.870510	0.641752	-0.426926
C153	C	2.203843	0.975085	-0.093592
N154	N	1.481912	0.344176	-0.869637
N155	N	1.815246	0.677510	-0.536304
N156	N	2.148579	1.010843	-0.202970
N157	N	1.541867	0.305386	-0.835271
N158	N	1.875200	0.638720	-0.501937
N159	N	2.208534	0.972053	-0.168604
C160	C	1.500413	0.332245	-0.169533
C161	C	1.833747	0.665578	0.163801
C162	C	2.167080	0.998911	0.497134
C163	C	1.495761	0.335204	-0.091422
C164	C	1.829094	0.668537	0.241912
C165	C	2.162428	1.001871	0.575245
H166	H	1.117190	0.401102	-0.434415
H167	H	1.450523	0.734435	-0.101081
H168	H	1.783856	1.067769	0.232252
H169	H	1.411039	1.053447	-0.422875
H170	H	1.744372	1.386781	-0.089542
H171	H	2.077706	1.720114	0.243791
Br172	Br	1.374317	0.413819	-0.777582
Br173	Br	1.707650	0.747152	-0.444249
Br174	Br	2.040983	1.080485	-0.110916
H175	H	1.643567	1.059973	-0.259938
H176	H	1.976901	1.393306	0.073396
H177	H	2.310234	1.726640	0.406729
H178	H	1.612600	0.595670	-0.281358
H179	H	1.945934	0.929003	0.051976
H180	H	2.279267	1.262337	0.385309
H181	H	1.402420	0.395583	-0.623558
H182	H	1.735753	0.728916	-0.290225
H183	H	2.069086	1.062249	0.043108
H184	H	1.418584	0.920316	-0.417499
H185	H	1.751918	1.253649	-0.084165
H186	H	2.085251	1.586983	0.249168
Br187	Br	1.336595	0.741226	-0.474845
Br188	Br	1.669928	1.074559	-0.141512
Br189	Br	2.003262	1.407893	0.191822
Br190	Br	0.974375	0.266353	-0.288825
Br191	Br	1.307709	0.599687	0.044508
Br192	Br	1.641042	0.933020	0.377841
H193	H	1.605054	0.728798	-0.286733
H194	H	1.938387	1.062132	0.046600
H195	H	2.271721	1.395465	0.379933
Br196	Br	1.322089	0.447593	-0.935775
Br197	Br	1.655422	0.780927	-0.602442
Br198	Br	1.988756	1.114260	-0.269109
H199	H	1.380064	0.589145	-0.444292
H200	H	1.713397	0.922479	-0.110959
H201	H	2.046731	1.255812	0.222374
Br202	Br	0.878492	0.424570	-0.459749
Br203	Br	1.211826	0.757903	-0.126416
Br204	Br	1.545159	1.091236	0.206918
H205	H	1.651122	0.926831	-0.254568
H206	H	1.984455	1.260164	0.078766
H207	H	2.317788	1.593498	0.412099
H208	H	1.079351	0.289771	-0.314143
H209	H	1.412684	0.623104	0.019191
H210	H	1.746017	0.956438	0.352524
H211	H	1.621321	0.253952	-1.081348
H212	H	1.954655	0.587286	-0.748014
H213	H	2.287988	0.920619	-0.414681
H214	H	1.662747	0.227167	-0.750187
H215	H	1.996080	0.560501	-0.416853
H216	H	2.329413	0.893834	-0.083520
Br217	Br	1.649474	0.235756	-0.927324
Br218	Br	1.982808	0.569089	-0.593991
Br219	Br	2.316141	0.902423	-0.260657
Br220	Br	1.690871	0.208947	-0.596158
Br221	Br	2.024204	0.542280	-0.262824
Br222	Br	2.357538	0.875614	0.070509
Br223	Br	1.332895	0.440602	-1.108755
Br224	Br	1.666229	0.773935	-0.775422
Br225	Br	1.999562	1.107269	-0.442089
