data_functionalizedCrystal
_audit_creation_method	'MofGen! by Chris Wilmer'
_symmetry_space_group_name_H-M	'P1'
_symmetry_Int_Tables_number	1
_symmetry_cell_setting	triclinic
loop_
_symmetry_equiv_pos_as_xyz
  x,y,z
_cell_length_a	19.288864
_cell_length_b	15.995350
_cell_length_c	17.766277
_cell_angle_alpha	89.995869
_cell_angle_beta	89.976791
_cell_angle_gamma	83.314311
loop_
_atom_site_label
_atom_site_type_symbol
_atom_site_fract_x
_atom_site_fract_y
_atom_site_fract_z
O1	O	0.921624	0.104452	-0.062832
O2	O	0.719400	0.118542	-0.062780
O3	O	0.826040	-0.010412	-0.062807
O4	O	0.814984	0.233405	-0.062805
O5	O	0.826021	-0.010418	0.062382
O6	O	0.719381	0.118535	0.062408
O7	O	0.921605	0.104445	0.062357
Cu8	Cu	0.820492	0.111490	0.073813
Cu9	Cu	0.820514	0.111497	-0.074237
O10	O	0.814965	0.233399	0.062383
C11	C	0.693513	0.118085	-0.000179
C12	C	0.616406	0.116724	-0.000159
C13	C	0.825574	-0.041608	-0.000214
C14	C	0.824203	-0.134553	-0.000218
C15	C	0.571906	0.192388	-0.000171
C16	C	0.499456	0.191110	-0.000179
C17	C	0.471508	0.114163	-0.000191
C18	C	0.516018	0.038489	-0.000176
C19	C	0.588467	0.039769	-0.000160
C20	C	0.363096	0.053676	-0.044076
C21	C	0.290648	0.052398	-0.044097
C22	C	0.248053	0.110209	-0.000237
C23	C	0.277912	0.169312	0.043634
C24	C	0.350361	0.170593	0.043650
C25	C	0.392951	0.112765	-0.000208
C26	C	0.124993	0.184492	-0.000256
C27	C	0.052542	0.183210	-0.000260
C28	C	0.069106	0.030587	-0.000264
C29	C	0.141556	0.031871	-0.000253
C30	C	0.169495	0.108826	-0.000252
C31	C	0.819282	-0.472282	-0.000214
C32	C	0.743335	-0.424562	-0.000475
C33	C	0.744706	-0.327877	-0.000193
C34	C	0.821723	-0.304731	-0.000216
C35	C	0.859172	-0.345953	0.071262
C36	C	0.857264	-0.442582	0.071322
C37	C	0.858855	-0.442939	-0.071041
C38	C	0.858837	-0.345993	-0.071986
C39	C	0.823107	-0.210039	-0.000215
C40	C	0.817901	-0.566975	-0.000210
C41	C	0.947492	0.104902	-0.000246
C42	C	1.024600	0.106263	-0.000271
C43	C	0.815432	0.264595	-0.000211
C44	C	0.816802	0.357540	-0.000212
N45	N	0.820481	0.111484	0.177944
N46	N	0.820530	0.111497	-0.178367
C47	C	0.867717	0.054411	0.217319
C48	C	0.867721	0.054407	0.296120
C49	C	0.820496	0.111490	0.335544
C50	C	0.773251	0.168567	0.296160
C51	C	0.773244	0.168564	0.217359
C52	C	0.811395	0.187781	0.460384
C53	C	0.811407	0.187785	0.539183
C54	C	0.820514	0.111500	0.578590
C55	C	0.829624	0.035208	0.539190
C56	C	0.829617	0.035204	0.460389
C57	C	0.820498	0.111500	0.420990
C58	C	0.867757	0.054419	0.703411
C59	C	0.867756	0.054414	0.782215
C60	C	0.773290	0.168581	0.782252
C61	C	0.773288	0.168579	0.703451
C62	C	0.820525	0.111499	0.664035
H63	H	0.463217	0.252727	-0.000186
H64	H	0.147742	0.247153	-0.000245
C65	C	0.934501	-0.486128	-0.071723
C66	C	0.995877	-0.432626	-0.069531
C67	C	1.071520	-0.475819	-0.070207
C68	C	1.085786	-0.572513	-0.073075
C69	C	1.024409	-0.626021	-0.075267
C70	C	0.948766	-0.582829	-0.074591
H71	H	0.985317	-0.361042	-0.067409
H72	H	1.116955	-0.436208	-0.068585
H73	H	1.141782	-0.604487	-0.073575
H74	H	1.034968	-0.697605	-0.077389
H75	H	0.903330	-0.622439	-0.076213
H76	H	0.906187	0.007930	0.328186
C77	C	0.825323	-0.470550	-0.144234
C78	C	0.821756	-0.564662	-0.159787
C79	C	0.788217	-0.592272	-0.232975
C80	C	0.758245	-0.525770	-0.290611
C81	C	0.761811	-0.431652	-0.275060
C82	C	0.795350	-0.404041	-0.201872
H83	H	0.843944	-0.613896	-0.117120
H84	H	0.785577	-0.661945	-0.244487
H85	H	0.733417	-0.546209	-0.344790
H86	H	0.739623	-0.382417	-0.317727
H87	H	0.797990	-0.334368	-0.190360
C88	C	0.839628	-0.048712	0.417048
C89	C	0.839619	-0.048711	0.330370
C90	C	0.849626	-0.132628	0.287029
C91	C	0.859644	-0.216545	0.330364
C92	C	0.859654	-0.216548	0.417046
C93	C	0.849646	-0.132632	0.460388
H94	H	0.832203	0.013412	0.298287
H95	H	0.849619	-0.132625	0.222861
H96	H	0.867052	-0.278665	0.298280
H97	H	0.867070	-0.278671	0.449130
H98	H	0.849654	-0.132635	0.524556
C99	C	0.919718	-0.008371	0.825533
C100	C	0.971689	-0.071136	0.782175
C101	C	1.023652	-0.133921	0.825495
C102	C	1.023642	-0.133939	0.912172
C103	C	0.971668	-0.071171	0.955535
C104	C	0.919706	-0.008387	0.912215
H105	H	0.971698	-0.071125	0.718007
H106	H	1.062126	-0.180386	0.793395
H107	H	1.062108	-0.180416	0.944240
H108	H	0.971660	-0.071183	1.019703
H109	H	0.881232	0.038078	0.944315
H110	H	0.266342	0.004277	-0.079822
C111	C	0.485280	-0.046155	-0.000191
C112	C	0.405590	-0.047568	-0.000214
C113	C	0.374853	-0.132214	-0.000225
C114	C	0.423806	-0.215447	-0.000213
C115	C	0.503501	-0.214038	-0.000191
C116	C	0.534238	-0.129391	-0.000179
H117	H	0.369347	0.014050	-0.000222
H118	H	0.315857	-0.133257	-0.000242
H119	H	0.401053	-0.278108	-0.000222
H120	H	0.539744	-0.275655	-0.000182
H121	H	0.593234	-0.128348	-0.000162
C122	C	0.704929	-0.289324	-0.069407
C123	C	0.742804	-0.239901	-0.127874
C124	C	0.703021	-0.201354	-0.197088
C125	C	0.625364	-0.212230	-0.207835
C126	C	0.587485	-0.261655	-0.149366
C127	C	0.627268	-0.300202	-0.080152
H128	H	0.800294	-0.231848	-0.119921
H129	H	0.731061	-0.164766	-0.240371
H130	H	0.595914	-0.183696	-0.259071
H131	H	0.529995	-0.269709	-0.157319
H132	H	0.599227	-0.336790	-0.036869
H133	H	0.734836	0.215056	0.814350
H134	H	0.734827	0.215056	0.671389
C135	C	0.637421	-0.043467	-0.000154
C136	C	0.634260	-0.106602	0.064850
C137	C	0.683216	-0.189839	0.064854
C138	C	0.735334	-0.209940	-0.000146
C139	C	0.738497	-0.146803	-0.065154
C140	C	0.689541	-0.063566	-0.065158
H141	H	0.595678	-0.091723	0.112971
H142	H	0.680874	-0.236577	0.112977
H143	H	0.771574	-0.271557	-0.000143
H144	H	0.777079	-0.161682	-0.113275
H145	H	0.691883	-0.016829	-0.113281
C146	C	0.721286	0.231352	0.174041
C147	C	0.669356	0.294169	0.217398
C148	C	0.617399	0.356959	0.174078
C149	C	0.617371	0.356932	0.087401
C150	C	0.669303	0.294113	0.044039
C151	C	0.721260	0.231323	0.087359
H152	H	0.669375	0.294190	0.281566
H153	H	0.578956	0.403461	0.206178
H154	H	0.578909	0.403413	0.055332
H155	H	0.669284	0.294092	-0.020129
H156	H	0.759703	0.184821	0.055259
H157	H	0.837040	-0.026911	0.571273
C158	C	0.932586	-0.486438	0.075701
C159	C	0.994279	-0.433503	0.079135
C160	C	1.069599	-0.477354	0.083522
C161	C	1.083226	-0.574142	0.084476
C162	C	1.021532	-0.627083	0.081042
C163	C	0.946212	-0.583231	0.076654
H164	H	0.984193	-0.361850	0.078429
H165	H	1.115269	-0.438163	0.086064
H166	H	1.138982	-0.606603	0.087723
H167	H	1.031618	-0.698736	0.081747
H168	H	0.900542	-0.622423	0.074112
H169	H	0.046352	-0.032065	-0.000320
H170	H	0.713107	-0.444044	0.050512
C171	C	0.383208	0.235594	0.091910
C172	C	0.336365	0.299189	0.140157
C173	C	0.369213	0.364189	0.188420
C174	C	0.448904	0.365594	0.188436
C175	C	0.495752	0.301997	0.140187
C176	C	0.462904	0.236998	0.091923
H177	H	0.277368	0.298151	0.140147
H178	H	0.334532	0.411268	0.224138
H179	H	0.473220	0.413711	0.224163
H180	H	0.554748	0.303036	0.140197
H181	H	0.497585	0.189919	0.056206
C182	C	0.919669	-0.008382	0.173959
C183	C	0.892526	-0.072337	0.119809
C184	C	0.944476	-0.135131	0.076447
C185	C	1.023569	-0.133970	0.087234
C186	C	1.050716	-0.070012	0.141387
C187	C	0.998766	-0.007218	0.184749
H188	H	0.833974	-0.073199	0.111822
H189	H	0.924380	-0.182477	0.036359
H190	H	1.062026	-0.180454	0.055134
H191	H	1.109268	-0.069151	0.149374
H192	H	1.018862	0.040127	0.224837
H193	H	0.803994	0.249907	0.571257
H194	H	0.906218	0.007938	0.671318
C195	C	0.824014	-0.307494	0.143146
C196	C	0.791328	-0.364152	0.199997
C197	C	0.756165	-0.325695	0.271879
C198	C	0.753688	-0.230579	0.286909
C199	C	0.786376	-0.173916	0.230056
C200	C	0.821538	-0.212373	0.158174
H201	H	0.793160	-0.434568	0.188872
H202	H	0.731968	-0.367642	0.313965
H203	H	0.727659	-0.202111	0.340120
H204	H	0.784543	-0.103500	0.241181
H205	H	0.845736	-0.170426	0.116088
H206	H	0.397772	0.006598	-0.079796
C207	C	0.702339	-0.449434	-0.069725
C208	C	0.690069	-0.541915	-0.081737
C209	C	0.649077	-0.566792	-0.150993
C210	C	0.620355	-0.499188	-0.208237
C211	C	0.632624	-0.406701	-0.196227
C212	C	0.673617	-0.381824	-0.126971
H213	H	0.711331	-0.591965	-0.039359
H214	H	0.639994	-0.635257	-0.159883
H215	H	0.590010	-0.517603	-0.259505
H216	H	0.611362	-0.356651	-0.238605
H217	H	0.682699	-0.313359	-0.118081
H218	H	0.177789	-0.029743	-0.000247
H219	H	0.715054	-0.299903	0.051147
C220	C	0.820344	-0.467176	0.143519
C221	C	0.850310	-0.448112	0.221157
C222	C	0.813386	-0.472699	0.293354
C223	C	0.746497	-0.516351	0.287914
C224	C	0.716528	-0.535417	0.210273
C225	C	0.753451	-0.510829	0.138075
H226	H	0.899828	-0.415796	0.225187
H227	H	0.835572	-0.458585	0.350829
H228	H	0.719164	-0.534552	0.341359
H229	H	0.667009	-0.567733	0.206243
H230	H	0.731266	-0.524944	0.080600
H231	H	0.803967	0.249906	0.428305
H232	H	0.594649	0.255051	-0.000172
H233	H	0.243232	0.216387	0.079349
H234	H	0.016310	0.244828	-0.000265
H235	H	0.734799	0.215044	0.328262
H236	H	0.831457	-0.318638	-0.124863
H237	H	0.915755	-0.332041	0.073903
H238	H	0.915002	-0.330843	-0.076319
