data_functionalizedCrystal
_audit_creation_method	'MofGen! by Chris Wilmer'
_symmetry_space_group_name_H-M	'P1'
_symmetry_Int_Tables_number	1
_symmetry_cell_setting	triclinic
loop_
_symmetry_equiv_pos_as_xyz
  x,y,z
_cell_length_a	12.759401
_cell_length_b	12.827892
_cell_length_c	12.759393
_cell_angle_alpha	90.029972
_cell_angle_beta	90.019676
_cell_angle_gamma	90.015818
loop_
_atom_site_label
_atom_site_type_symbol
_atom_site_fract_x
_atom_site_fract_y
_atom_site_fract_z
Zn1	Zn	1.606261	-0.415971	0.593989
Zn2	Zn	1.606150	-0.590748	0.418310
Zn3	Zn	1.430560	-0.416023	0.418328
Zn4	Zn	1.430550	-0.590672	0.593951
O5	O	1.518380	-0.503353	0.506144
O6	O	1.753268	-0.439165	0.570693
O7	O	1.582816	-0.567624	0.271291
O8	O	1.453918	-0.269780	0.441652
O9	O	1.753186	-0.567573	0.441623
O10	O	1.583005	-0.269741	0.570710
O11	O	1.453810	-0.439254	0.271304
O12	O	1.283538	-0.439180	0.441616
O13	O	1.453900	-0.567443	0.740977
O14	O	1.283530	-0.567494	0.570646
O15	O	1.582995	-0.439091	0.741005
O16	O	1.582806	-0.736974	0.441587
O17	O	1.453793	-0.736918	0.570629
C18	C	1.245413	-0.503335	0.506130
C19	C	1.128636	-0.503353	0.506148
C20	C	1.073817	-0.436611	0.573459
C21	C	0.964093	-0.436622	0.573466
C22	C	0.964017	-0.570124	0.438849
C23	C	1.073739	-0.570108	0.438837
C24	C	1.518315	-0.774863	0.506125
C25	C	1.518383	-0.891016	0.506152
C26	C	1.582231	-0.942699	0.570071
C27	C	1.582302	-1.062749	0.570100
C28	C	1.792414	-0.503372	0.506160
C29	C	1.909190	-0.503380	0.506167
C30	C	1.518459	-0.503253	0.780178
C31	C	1.518492	-0.503210	0.896955
C32	C	1.518475	-0.230783	0.506187
C33	C	1.518515	-0.114630	0.506205
C34	C	1.518362	-0.503378	0.233177
C35	C	1.518533	-0.503126	0.116401
C36	C	1.585717	-0.436367	0.951833
C37	C	1.585735	-0.436322	1.061557
C38	C	1.451301	-0.569973	1.061515
C39	C	1.451278	-0.570012	0.951793
H40	H	0.919465	-0.382273	0.628275
O41	O	0.910525	-0.634939	0.373572
C42	C	0.741459	-0.694093	0.313887
C43	C	0.801904	-0.620650	0.387882
H44	H	0.653628	-0.682550	0.325416
H45	H	0.762953	-0.778398	0.332190
H46	H	0.763058	-0.675648	0.229212
H47	H	0.780337	-0.639001	0.472583
H48	H	0.780404	-0.536367	0.369489
O49	O	1.386071	-0.635012	1.114674
C50	C	1.335060	-0.812758	1.148257
C51	C	1.408979	-0.739214	1.087975
H52	H	1.353568	-0.897022	1.126710
H53	H	1.250328	-0.794494	1.126658
H54	H	1.346608	-0.801197	1.236100
H55	H	1.397524	-0.750735	1.000118
H56	H	1.493684	-0.757496	1.109661
O57	O	1.126834	-0.635044	0.373415
C58	C	1.115189	-0.767417	0.239849
C59	C	1.054928	-0.693956	0.313902
H60	H	1.057079	-0.815051	0.191697
H61	H	1.166546	-0.822177	0.287934
H62	H	1.166567	-0.719344	0.185040
H63	H	1.003493	-0.741945	0.368726
H64	H	1.003637	-0.639193	0.265752
H65	H	1.396529	-0.624443	0.907110
O66	O	1.453406	-1.061670	0.440765
C67	C	1.402461	-1.028301	0.262035
C68	C	1.476278	-1.088333	0.336024
H69	H	1.420911	-1.049853	0.177338
H70	H	1.414025	-0.940914	0.273551
H71	H	1.317736	-1.049747	0.280455
H72	H	1.561031	-1.066974	0.317649
H73	H	1.464624	-1.175705	0.324494
H74	H	1.463768	-0.935646	0.451455
H75	H	1.118512	-0.382252	0.628264
O76	O	1.647234	-0.889348	0.635385
C77	C	1.661096	-0.765915	0.777142
C78	C	1.587361	-0.826249	0.703221
H79	H	1.612717	-0.714902	0.832021
H80	H	1.715960	-0.714731	0.728952
H81	H	1.709206	-0.823515	0.825226
H82	H	1.539183	-0.768724	0.655121
H83	H	1.532565	-0.877449	0.751471
O84	O	1.647419	-1.115925	0.635355
C85	C	1.706940	-1.284065	0.694805
C86	C	1.633122	-1.223972	0.620866
H87	H	1.695422	-1.371432	0.683101
H88	H	1.688449	-1.262698	0.779543
H89	H	1.791661	-1.262543	0.676456
H90	H	1.548377	-1.245462	0.639120
H91	H	1.651703	-1.245344	0.536150
O92	O	1.650988	-0.371245	1.114746
C93	C	1.702023	-0.193475	1.148386
C94	C	1.628073	-0.267062	1.088068
H95	H	1.683508	-0.109227	1.126856
H96	H	1.786745	-0.211759	1.126801
H97	H	1.690515	-0.204966	1.236223
H98	H	1.639488	-0.255612	1.000217
H99	H	1.543379	-0.248760	1.109740
H100	H	1.640444	-0.381970	0.907186
