data_functionalizedCrystal
_audit_creation_method	'MofGen! by Chris Wilmer'
_symmetry_space_group_name_H-M	'P1'
_symmetry_Int_Tables_number	1
_symmetry_cell_setting	triclinic
loop_
_symmetry_equiv_pos_as_xyz
  x,y,z
_cell_length_a	23.532407
_cell_length_b	14.519709
_cell_length_c	13.596369
_cell_angle_alpha	89.993066
_cell_angle_beta	90.000007
_cell_angle_gamma	83.264411
loop_
_atom_site_label
_atom_site_type_symbol
_atom_site_fract_x
_atom_site_fract_y
_atom_site_fract_z
O1	O	0.755765	0.111951	-0.081671
O2	O	1.255765	0.611951	0.418329
O3	O	0.589975	0.128149	-0.081700
O4	O	1.089975	0.628149	0.418300
O5	O	0.677266	-0.014241	-0.081676
O6	O	1.177266	0.485759	0.418324
O7	O	0.668474	0.254340	-0.081695
O8	O	1.168474	0.754340	0.418305
O9	O	0.677257	-0.014248	0.081907
O10	O	1.177257	0.485752	0.581907
O11	O	0.589966	0.128142	0.081883
O12	O	1.089966	0.628142	0.581883
O13	O	0.755756	0.111943	0.081912
O14	O	1.255756	0.611943	0.581912
Zn15	Zn	0.672860	0.120041	0.107870
Zn16	Zn	1.172860	0.620041	0.607870
Zn17	Zn	0.672871	0.120051	-0.107658
Zn18	Zn	1.172871	0.620051	0.392342
O19	O	0.668466	0.254333	0.081888
O20	O	1.168466	0.754333	0.581888
C21	C	0.676852	-0.048599	0.000116
C22	C	1.176852	0.451401	0.500116
C23	C	0.675624	-0.150966	0.000116
C24	C	1.175624	0.349034	0.500116
C25	C	0.568753	0.127733	0.000088
C26	C	1.068753	0.627733	0.500088
C27	C	0.505530	0.126493	0.000077
C28	C	1.005530	0.626493	0.500077
C29	C	0.671104	-0.525808	0.000090
C30	C	1.171104	-0.025808	0.500090
C31	C	0.672359	-0.421515	0.000097
C32	C	1.172359	0.078485	0.500097
C33	C	0.673364	-0.338390	0.000104
C34	C	1.173364	0.161610	0.500104
C35	C	0.674619	-0.234091	0.000110
C36	C	1.174619	0.265909	0.500110
C37	C	0.106772	0.202977	0.000116
C38	C	0.606772	0.702977	0.500116
C39	C	0.047367	0.201825	0.000122
C40	C	0.547367	0.701825	0.500122
O41	O	0.010942	0.272727	0.000153
O42	O	0.510942	0.772727	0.500153
N43	N	0.024358	0.117175	0.000127
N44	N	0.524358	0.617175	0.500127
C45	C	0.060759	0.033671	0.000135
C46	C	0.560759	0.533671	0.500135
O47	O	0.035734	-0.038437	0.000140
O48	O	0.535734	0.461563	0.500140
C49	C	0.120164	0.034824	0.000136
C50	C	0.620164	0.534824	0.500136
C51	C	0.143168	0.119480	0.000121
C52	C	0.643168	0.619480	0.500121
C53	C	0.129777	0.287626	0.000103
C54	C	0.629777	0.787626	0.500103
C55	C	0.189179	0.288778	0.000095
C56	C	0.689179	0.788778	0.500095
C57	C	0.225575	0.205281	0.000100
C58	C	0.725575	0.705281	0.500100
C59	C	0.202570	0.120631	0.000114
C60	C	0.702570	0.620631	0.500114
C61	C	0.156563	-0.048679	0.000151
C62	C	0.656563	0.451321	0.500151
C63	C	0.215971	-0.047519	0.000153
C64	C	0.715971	0.452481	0.500153
C65	C	0.238976	0.037137	0.000139
C66	C	0.738976	0.537137	0.500139
C67	C	0.298367	0.038286	0.000111
C68	C	0.798367	0.538286	0.500111
N69	N	0.321375	0.122936	0.000107
N70	N	0.821375	0.622936	0.500107
C71	C	0.284979	0.206434	0.000101
C72	C	0.784979	0.706434	0.500101
C73	C	-0.063994	0.031256	0.000135
C74	C	0.436006	0.531256	0.500135
C75	C	-0.123397	0.030102	0.000127
C76	C	0.376603	0.530102	0.500127
C77	C	-0.136786	0.198257	0.000116
C78	C	0.363214	0.698257	0.500116
C79	C	-0.077382	0.199410	0.000117
C80	C	0.422618	0.699410	0.500117
C81	C	-0.040986	0.115906	0.000130
C82	C	0.459014	0.615906	0.500130
C83	C	0.409727	0.208846	0.000084
C84	C	0.909727	0.708846	0.500084
C85	C	0.469134	0.209990	0.000072
C86	C	0.969134	0.709990	0.500072
C87	C	0.482517	0.041836	0.000088
C88	C	0.982517	0.541836	0.500088
C89	C	0.423115	0.040691	0.000095
C90	C	0.923115	0.540691	0.500095
C91	C	0.386721	0.124204	0.000096
C92	C	0.886721	0.624204	0.500096
O93	O	0.334827	-0.032579	0.000084
O94	O	0.834827	0.467421	0.500084
O95	O	0.310012	0.278529	0.000109
O96	O	0.810012	0.778529	0.500109
C97	C	0.776979	0.112360	0.000122
C98	C	1.276979	0.612360	0.500122
C99	C	0.840201	0.113600	0.000127
C100	C	1.340201	0.613600	0.500127
C101	C	0.668880	0.288692	0.000094
C102	C	1.168880	0.788692	0.500094
C103	C	0.670107	0.391058	0.000087
C104	C	1.170107	0.891058	0.500087
N105	N	0.672856	0.120034	0.254962
N106	N	1.172856	0.620034	0.754962
N107	N	0.672880	0.120051	-0.254750
N108	N	1.172880	0.620051	0.245250
C109	C	0.672871	0.120052	0.656253
C110	C	1.172871	0.620052	1.156253
C111	C	0.672865	0.120050	0.544601
C112	C	1.172865	0.620050	1.044601
C113	C	0.672864	0.120044	0.455611
C114	C	1.172864	0.620044	0.955611
C115	C	0.672858	0.120040	0.343952
C116	C	1.172858	0.620040	0.843952
H117	H	0.487861	0.278930	0.000059
H118	H	0.987861	0.778930	0.500059
H119	H	-0.034363	-0.036747	0.000137
H120	H	0.465637	0.463253	0.500137
H121	H	0.137844	-0.117615	0.000164
H122	H	0.637844	0.382385	0.500164
C123	C	0.364085	-0.058164	0.084203
C124	C	0.864085	0.441836	0.584203
C125	C	0.397825	-0.052363	0.000103
C126	C	0.897825	0.447637	0.500103
H127	H	0.348474	-0.115610	0.084210
H128	H	0.848474	0.384390	0.584210
H129	H	0.386987	-0.054222	0.141230
H130	H	0.886987	0.445778	0.641230
H131	H	0.333906	-0.008598	0.084194
H132	H	0.833906	0.491402	0.584194
H133	H	0.428007	-0.101924	0.000115
H134	H	0.928007	0.398076	0.500115
H135	H	0.374922	-0.056313	-0.056939
H136	H	0.874922	0.443687	0.443061
H137	H	0.100149	0.355624	0.000102
H138	H	0.600149	0.855624	0.500102
H139	H	0.512162	-0.026146	0.000088
H140	H	1.012162	0.473854	0.500088
C141	C	-0.018355	0.298274	-0.083989
C142	C	0.481645	0.798274	0.416011
C143	C	-0.052100	0.292467	0.000103
C144	C	0.447900	0.792467	0.500103
H145	H	-0.002753	0.355730	-0.083998
H146	H	0.497247	0.855730	0.416002
H147	H	0.011826	0.248724	-0.083974
H148	H	0.511826	0.748724	0.416026
H149	H	-0.041255	0.294322	-0.141028
H150	H	0.458745	0.794322	0.358972
H151	H	-0.029198	0.296412	0.057142
H152	H	0.470802	0.796412	0.557142
H153	H	-0.082285	0.342030	0.000097
H154	H	0.417715	0.842030	0.500097
H155	H	0.245602	-0.115519	0.000165
H156	H	0.745602	0.384481	0.500165
H157	H	0.380101	0.276850	0.000088
H158	H	0.880101	0.776850	0.500088
C159	C	-0.233798	0.271142	0.000127
C160	C	0.266202	0.771142	0.500127
C161	C	-0.176801	0.290041	0.000118
C162	C	0.323199	0.790041	0.500118
H163	H	-0.258501	0.327803	0.000133
H164	H	0.241499	0.827803	0.500133
H165	H	-0.240778	0.236418	-0.056913
H166	H	0.259222	0.736418	0.443087
H167	H	-0.240771	0.236400	0.057177
H168	H	0.259229	0.736400	0.557177
H169	H	-0.169827	0.324777	-0.056937
H170	H	0.330173	0.824777	0.443063
H171	H	-0.169818	0.324780	0.057163
H172	H	0.330182	0.824780	0.557163
H173	H	-0.142122	-0.038834	0.000123
H174	H	0.357878	0.461166	0.500123
C175	C	0.169959	0.454870	0.000101
C176	C	0.669959	0.954870	0.500101
C177	C	0.214460	0.381836	0.000097
C178	C	0.714460	0.881836	0.500097
H179	H	0.185565	0.512322	0.000112
H180	H	0.685565	1.012322	0.500112
H181	H	0.147071	0.450926	-0.056942
H182	H	0.647071	0.950926	0.443058
H183	H	0.147068	0.450900	0.057148
H184	H	0.647068	0.950900	0.557148
H185	H	0.237349	0.385802	-0.056955
H186	H	0.737349	0.885802	0.443045
H187	H	0.237358	0.385781	0.057146
H188	H	0.737358	0.885781	0.557146
