data_functionalizedCrystal
_audit_creation_method	'MofGen! by Chris Wilmer'
_symmetry_space_group_name_H-M	'P1'
_symmetry_Int_Tables_number	1
_symmetry_cell_setting	triclinic
loop_
_symmetry_equiv_pos_as_xyz
  x,y,z
_cell_length_a	6.817900
_cell_length_b	12.840946
_cell_length_c	17.982959
_cell_angle_alpha	81.772463
_cell_angle_beta	76.724534
_cell_angle_gamma	88.344365
loop_
_atom_site_label
_atom_site_type_symbol
_atom_site_fract_x
_atom_site_fract_y
_atom_site_fract_z
V1	V	-3.894555	0.281457	0.107221
O2	O	-3.888434	0.320370	-0.003294
O3	O	-3.843275	0.236955	0.210814
O4	O	-3.790184	0.423635	0.106387
O5	O	-3.941893	0.132397	0.101856
V6	V	-4.385809	0.268801	0.093906
O7	O	-4.138856	0.309220	0.136429
O8	O	-4.591706	0.241037	0.064698
O9	O	-4.213883	0.313303	-0.009687
O10	O	-4.509327	0.229888	0.204421
O11	O	-4.455869	0.417861	0.099271
O12	O	-4.266974	0.126622	0.094740
C13	C	-3.689386	0.221528	0.236042
C14	C	-3.728372	0.186090	0.320736
C15	C	-3.926616	0.173062	0.364423
C16	C	-3.963276	0.139779	0.444005
C17	C	-3.801689	0.119518	0.479897
C18	C	-3.603428	0.132551	0.436204
C19	C	-3.566771	0.165840	0.356625
C20	C	-3.621675	0.459658	0.102832
C21	C	-3.617527	0.577789	0.102835
C22	C	-4.081852	-0.027541	0.098324
C23	C	-4.098853	0.090594	0.098308
V24	V	-3.877525	0.767616	0.107243
O25	O	-3.914258	0.921009	0.101887
O26	O	-3.783288	0.620775	0.106400
O27	O	-3.824708	0.766742	0.210836
O28	O	-3.872551	0.774031	-0.003272
V29	V	-4.366836	0.810493	0.093934
O30	O	-4.123761	0.740169	0.136452
O31	O	-4.570004	0.860624	0.064731
O32	O	-4.238259	0.946087	0.094775
O33	O	-4.447293	0.663015	0.099292
O34	O	-4.489000	0.809992	0.204451
O35	O	-4.196839	0.800120	-0.009661
C36	C	-4.031115	0.328725	-0.034911
C37	C	-3.971365	0.364170	-0.119604
C38	C	-3.670371	0.763982	0.236059
C39	C	-3.708023	0.766409	0.320753
C40	C	-4.015111	0.785914	-0.034892
C41	C	-3.956734	0.782451	-0.119588
C42	C	-3.905619	0.771397	0.364454
C43	C	-3.940985	0.773683	0.444032
C44	C	-3.778753	0.770974	0.479908
C45	C	-3.581140	0.765989	0.436201
C46	C	-3.545776	0.763711	0.356624
C47	C	-3.723755	0.775180	0.757127
C48	C	-3.759136	0.777456	0.836711
C49	C	-4.118964	0.785153	0.844536
C50	C	-4.083600	0.782874	0.764958
C51	C	-3.885991	0.777895	0.721257
C52	C	-3.847645	0.775418	0.634970
C53	C	-3.817097	0.773444	0.566195
C54	C	-4.118107	0.377200	-0.163291
C55	C	-4.061989	0.410488	-0.242872
C56	C	-3.859129	0.430752	-0.278763
C57	C	-3.712377	0.417716	-0.235071
C58	C	-3.768494	0.384422	-0.155493
H59	H	-4.124721	0.129170	0.479568
H60	H	-4.037733	0.773595	0.335251
F61	F	-3.431472	0.110979	0.474414
H62	H	-4.181509	0.421098	-0.278435
F63	F	-3.612292	0.370561	-0.109006
F64	F	-3.355765	0.179694	0.310137
H65	H	-4.215711	0.785075	0.735753
F66	F	-3.496481	0.439281	-0.273282
F67	F	-4.151292	0.778990	0.490539
H68	H	-3.449050	0.763790	0.465417
F69	F	-3.840734	0.084087	0.564593
H70	H	-4.279870	0.789210	0.880126
F71	F	-3.513447	0.769873	0.710628
F72	F	-4.098622	0.194627	0.326240
H73	H	-3.627014	0.775255	0.865918
F74	F	-3.335468	0.758407	0.310113
H75	H	-4.283296	0.360706	-0.134079
H76	H	-3.813462	0.457861	-0.343562
