data_functionalizedCrystal
_audit_creation_method	'MofGen! by Chris Wilmer'
_symmetry_space_group_name_H-M	'P1'
_symmetry_Int_Tables_number	1
_symmetry_cell_setting	triclinic
loop_
_symmetry_equiv_pos_as_xyz
  x,y,z
_cell_length_a	12.759400
_cell_length_b	19.077105
_cell_length_c	19.077237
_cell_angle_alpha	94.513445
_cell_angle_beta	92.273918
_cell_angle_gamma	92.288943
loop_
_atom_site_label
_atom_site_type_symbol
_atom_site_fract_x
_atom_site_fract_y
_atom_site_fract_z
Zn1	Zn	-0.510464	-1.093744	-0.441859
Zn2	Zn	-0.678808	-1.088955	-0.323979
Zn3	Zn	-0.495783	-0.971134	-0.319257
Zn4	Zn	-0.678734	-0.975843	-0.437096
O5	O	-0.590947	-1.032419	-0.380548
O6	O	-0.538970	-1.191760	-0.430192
O7	O	-0.648415	-1.069351	-0.224704
O8	O	-0.350712	-0.987431	-0.335538
O9	O	-0.662651	-1.188241	-0.343586
O10	O	-0.361499	-1.077513	-0.425613
O11	O	-0.513948	-0.982788	-0.221235
O12	O	-0.513877	-0.873108	-0.330919
O13	O	-0.662526	-0.995458	-0.536377
O14	O	-0.648290	-0.876568	-0.417495
O15	O	-0.538899	-1.082080	-0.539877
O16	O	-0.825816	-1.073917	-0.338967
O17	O	-0.825762	-0.990814	-0.422073
C18	C	-0.579483	-0.849259	-0.373178
C19	C	-0.574605	-0.770903	-0.370042
C20	C	-0.863911	-1.032377	-0.380532
C21	C	-0.980692	-1.032424	-0.380551
C22	C	-0.602342	-1.039829	-0.564421
C23	C	-0.607198	-1.042986	-0.642776
C24	C	-1.145288	-1.075792	-0.337353
C25	C	-1.035560	-1.075749	-0.337330
C26	C	-1.035556	-0.989135	-0.423794
C27	C	-1.145282	-0.989175	-0.423813
C28	C	-0.882053	-1.097599	-0.255200
C29	C	-0.827193	-1.140895	-0.211966
C30	C	-0.866362	-1.209270	-0.203973
C31	C	-0.960390	-1.234363	-0.239224
C32	C	-1.015245	-1.191071	-0.282464
C33	C	-0.976076	-1.122686	-0.290443
C34	C	-1.298792	-0.967332	-0.505944
C35	C	-1.353649	-0.924043	-0.549187
C36	C	-1.314482	-0.855668	-0.557188
C37	C	-1.220451	-0.830578	-0.521949
C38	C	-1.165594	-0.873866	-0.478705
C39	C	-1.204768	-0.942241	-0.470704
C40	C	-0.316920	-1.032481	-0.380580
C41	C	-0.200145	-1.032508	-0.380594
C42	C	-0.602457	-1.216294	-0.387947
C43	C	-0.607362	-1.294651	-0.391100
C44	C	-0.642392	-0.735908	-0.413573
C45	C	-0.637795	-0.662284	-0.410630
C46	C	-0.565415	-0.623656	-0.364152
C47	C	-0.497621	-0.658656	-0.320619
C48	C	-0.502214	-0.732279	-0.323566
C49	C	-0.544160	-0.403274	-0.350514
C50	C	-0.539574	-0.329646	-0.347569
C51	C	-0.679748	-0.333279	-0.437581
C52	C	-0.684338	-0.406903	-0.440521
C53	C	-0.616540	-0.441896	-0.396991
N54	N	-0.560717	-0.548401	-0.361140
N55	N	-0.621235	-0.517151	-0.400006
C56	C	-0.642104	-1.065637	-1.084030
C57	C	-0.637534	-1.062660	-1.010406
C58	C	-0.565234	-1.016107	-0.971796
C59	C	-0.497507	-0.972523	-1.006813
C60	C	-0.502083	-0.975497	-1.080436
C61	C	-0.544047	-1.002376	-0.751416
C62	C	-0.539474	-0.999407	-0.677788
C63	C	-0.679503	-1.089543	-0.681386
C64	C	-0.684068	-1.092516	-0.755010
C65	C	-0.616345	-1.048930	-0.790021
N66	N	-0.560559	-1.013064	-0.896541
N67	N	-0.621026	-1.051969	-0.865275
C68	C	-0.579523	-1.025079	-0.197392
C69	C	-0.574380	-1.022058	-0.119042
H70	H	-1.189955	-1.111076	-0.302161
H71	H	-0.734944	-0.304779	-0.473022
H72	H	-0.700973	-1.103549	-1.115462
H73	H	-1.430209	-0.944480	-0.577886
H74	H	-0.438683	-0.627200	-0.282778
C75	C	-0.363214	-0.721297	-0.234286
C76	C	-0.427709	-0.770748	-0.275709
H77	H	-0.317222	-0.745047	-0.204739
H78	H	-0.323211	-0.693836	-0.263896
H79	H	-0.405474	-0.691479	-0.206122
H80	H	-0.385450	-0.800563	-0.303877
H81	H	-0.467716	-0.798221	-0.246095
H82	H	-0.692694	-1.098138	-0.981903
C83	C	-0.822033	-1.181305	-0.751168
C84	C	-0.763549	-1.143684	-0.797448
H85	H	-0.871104	-1.212891	-0.777369
H86	H	-0.776167	-1.207124	-0.723547
H87	H	-0.858506	-1.149412	-0.721209
H88	H	-0.727070	-1.175577	-0.827403
H89	H	-0.809421	-1.117864	-0.825082
C90	C	-0.316051	-0.937306	-0.982809
C91	C	-0.418035	-0.921347	-0.964379
H92	H	-0.266988	-0.905707	-0.956615
H93	H	-0.302897	-0.984181	-0.972642
H94	H	-0.309102	-0.932840	-1.031669
H95	H	-0.424987	-0.925817	-0.915520
H96	H	-0.431193	-0.874460	-0.974540
H97	H	-1.359152	-0.820426	-0.592408
H98	H	-1.091799	-1.211502	-0.311167
H99	H	-0.734640	-1.125028	-0.652873
C100	C	-0.668250	-0.822543	-0.511693
C101	C	-0.721954	-0.778367	-0.464664
H102	H	-0.717369	-0.848757	-0.543233
H103	H	-0.622430	-0.794922	-0.537559
H104	H	-0.628541	-0.853920	-0.486180
H105	H	-0.761656	-0.746986	-0.490177
H106	H	-0.767792	-0.805990	-0.438796
H107	H	-1.330693	-1.023008	-0.499430
H108	H	-0.446934	-0.940011	-1.108942
H109	H	-0.480592	-0.961499	-0.646354
C110	C	-0.405165	-0.912993	-0.740454
C111	C	-0.469595	-0.954474	-0.789894
H112	H	-0.359195	-0.883423	-0.764213
H113	H	-0.447464	-0.884856	-0.710650
H114	H	-0.365128	-0.942570	-0.712979
H115	H	-0.509639	-0.924898	-0.817366
H116	H	-0.427292	-0.982614	-0.819710
C117	C	-0.935439	-1.342225	-0.185042
C118	C	-1.003440	-1.309526	-0.230441
H119	H	-0.962024	-1.388626	-0.179616
H120	H	-0.867963	-1.344165	-0.204240
H121	H	-0.930226	-1.316063	-0.140477
H122	H	-1.008647	-1.335685	-0.275007
H123	H	-1.070934	-1.307590	-0.211245
C124	C	-0.776838	-0.673269	-0.499878
C125	C	-0.712326	-0.623818	-0.458469
H126	H	-0.822858	-0.649520	-0.529407
H127	H	-0.734600	-0.703081	-0.528053
H128	H	-0.816821	-0.700737	-0.470252
H129	H	-0.672337	-0.596353	-0.488095
H130	H	-0.754569	-0.593994	-0.430291
H131	H	-0.821686	-1.244521	-0.168771
H132	H	-0.750634	-1.120458	-0.183264
H133	H	-0.850160	-1.041920	-0.261696
H134	H	-0.990876	-0.953856	-0.458982
H135	H	-1.188558	-0.774902	-0.528467
C136	C	-1.039456	-0.777120	-0.456097
C137	C	-1.062249	-0.846281	-0.439951
H138	H	-0.975662	-0.760089	-0.432164
H139	H	-1.032472	-0.776229	-0.505406
H140	H	-1.094771	-0.748135	-0.441658
H141	H	-1.006936	-0.875267	-0.454395
H142	H	-1.069226	-0.847176	-0.390632
C143	C	-0.822427	-0.403096	-0.529204
C144	C	-0.763898	-0.449360	-0.491614
H145	H	-0.871542	-0.429309	-0.560747
H146	H	-0.858842	-0.373130	-0.497293
H147	H	-0.776588	-0.375480	-0.555073
H148	H	-0.809736	-0.476973	-0.465740
H149	H	-0.727481	-0.479338	-0.523529
C150	C	-0.401460	-0.333446	-0.258896
C151	C	-0.460003	-0.287185	-0.296479
H152	H	-0.352337	-0.307231	-0.227360
H153	H	-0.447281	-0.361062	-0.233025
H154	H	-0.365045	-0.363413	-0.290816
H155	H	-0.496425	-0.257221	-0.264560
H156	H	-0.414176	-0.259557	-0.322352
C157	C	-0.528621	-0.482220	-0.259017
C158	C	-0.469643	-0.441730	-0.302660
H159	H	-0.482612	-0.505965	-0.229475
H160	H	-0.570862	-0.452400	-0.230854
H161	H	-0.572373	-0.515764	-0.287126
H162	H	-0.425896	-0.408183	-0.274551
H163	H	-0.427383	-0.471553	-0.330826
