data_functionalizedCrystal
_audit_creation_method	'MofGen! by Chris Wilmer'
_symmetry_space_group_name_H-M	'P1'
_symmetry_Int_Tables_number	1
_symmetry_cell_setting	triclinic
loop_
_symmetry_equiv_pos_as_xyz
  x,y,z
_cell_length_a	19.288859
_cell_length_b	10.654546
_cell_length_c	17.766277
_cell_angle_alpha	90.013515
_cell_angle_beta	89.993242
_cell_angle_gamma	96.191375
loop_
_atom_site_label
_atom_site_type_symbol
_atom_site_fract_x
_atom_site_fract_y
_atom_site_fract_z
O1	O	0.922377	-0.156617	-0.062624
O2	O	0.720254	-0.177758	-0.062624
O3	O	0.825964	0.015652	-0.062602
O4	O	0.816667	-0.350027	-0.062646
O5	O	0.825952	0.015656	0.062587
O6	O	0.720242	-0.177754	0.062564
O7	O	0.922365	-0.156613	0.062565
Cu8	Cu	0.821302	-0.167183	0.073995
Cu9	Cu	0.821316	-0.167188	-0.074055
O10	O	0.816655	-0.350023	0.062542
C11	C	0.694367	-0.177077	-0.000030
C12	C	0.617250	-0.175039	-0.000029
C13	C	0.825276	0.062437	-0.000003
C14	C	0.823235	0.201837	0.000009
C15	C	0.053861	-0.274735	-0.000042
C16	C	0.126320	-0.276662	-0.000046
C17	C	0.170285	-0.163178	-0.000031
C18	C	0.141785	-0.047759	-0.000031
C19	C	0.069327	-0.045836	-0.000034
C20	C	0.290997	-0.078540	0.043841
C21	C	0.363453	-0.080468	0.043849
C22	C	0.393769	-0.169103	-0.000024
C23	C	0.351619	-0.255832	-0.043895
C24	C	0.279161	-0.253910	-0.043899
C25	C	0.248854	-0.165250	-0.000028
C26	C	0.500829	-0.286603	-0.000034
C27	C	0.573290	-0.288524	-0.000043
C28	C	0.588753	-0.059618	-0.000020
C29	C	0.516294	-0.057700	-0.000018
C30	C	0.472336	-0.171196	-0.000022
C31	C	0.885475	0.282657	0.000019
C32	C	0.883553	0.413637	0.000028
C33	C	0.757146	0.382963	0.000019
C34	C	0.759068	0.251986	0.000005
C35	C	0.958455	0.300368	0.000027
C36	C	0.956533	0.431348	0.000036
C37	C	0.948252	-0.157294	-0.000032
C38	C	1.025369	-0.159332	-0.000038
N39	N	0.821297	-0.167179	0.178125
C40	C	0.817345	0.603192	-0.000031
C41	C	0.819391	0.463794	0.000032
C42	C	0.868134	-0.081567	0.782424
C43	C	0.868135	-0.081569	0.703622
C44	C	0.821315	-0.167179	0.664214
C45	C	0.774501	-0.252813	0.703615
C46	C	0.774506	-0.252816	0.782415
C47	C	0.758132	-0.183940	0.539381
C48	C	0.758126	-0.183928	0.460582
C49	C	0.821300	-0.167176	0.421168
C50	C	0.884482	-0.150409	0.460562
C51	C	0.884487	-0.150412	0.539362
C52	C	0.821305	-0.167185	0.578769
C53	C	0.868115	-0.081556	0.296331
C54	C	0.868117	-0.081567	0.217528
C55	C	0.774478	-0.252805	0.217522
C56	C	0.774481	-0.252799	0.296324
C57	C	0.821299	-0.167168	0.335724
N58	N	0.821324	-0.167185	0.821815
H59	H	0.018074	-0.367153	-0.000048
H60	H	0.736362	-0.322513	0.328398
Br61	Br	0.710963	-0.369008	0.650135
Br62	Br	1.006040	0.252440	-0.087290
Br63	Br	1.002355	0.501949	0.087360
Br64	Br	0.931669	0.034636	0.650154
H65	H	0.906239	-0.011833	0.328412
Br66	Br	0.420649	0.037220	0.103398
H67	H	0.978595	0.477462	-0.054012
Br68	Br	0.997164	0.241804	0.090119
Br69	Br	0.674596	0.142302	-0.000032
Br70	Br	0.970229	-0.127668	0.592824
H71	H	0.704903	0.423810	0.000016
Br72	Br	0.931656	0.034627	0.164065
Br73	Br	0.931673	0.034639	0.835896
H74	H	0.706680	-0.197567	0.428514
Br75	Br	0.970224	-0.127657	0.407082
H76	H	0.244845	-0.324525	-0.079622
Br77	Br	0.672389	-0.206688	0.592864
Br78	Br	0.249867	0.041834	0.103338
H79	H	0.736387	-0.322539	0.814487
Br80	Br	0.164999	-0.433292	-0.000052
Br81	Br	0.392750	-0.376149	-0.103430
Br82	Br	0.710942	-0.369003	0.164046
H83	H	0.465037	-0.379018	-0.000038
H84	H	0.624549	0.032783	-0.000013
Br85	Br	0.611959	-0.445157	-0.000060
Br86	Br	0.201449	0.106257	-0.000017
Br87	Br	0.477623	0.098928	-0.000019
Br88	Br	0.030656	0.110795	-0.000033
