data_functionalizedCrystal
_audit_creation_method	'MofGen! by Chris Wilmer'
_symmetry_space_group_name_H-M	'P1'
_symmetry_Int_Tables_number	1
_symmetry_cell_setting	triclinic
loop_
_symmetry_equiv_pos_as_xyz
  x,y,z
_cell_length_a	15.995350
_cell_length_b	16.956995
_cell_length_c	16.053789
_cell_angle_alpha	86.947539
_cell_angle_beta	92.885883
_cell_angle_gamma	100.226577
loop_
_atom_site_label
_atom_site_type_symbol
_atom_site_fract_x
_atom_site_fract_y
_atom_site_fract_z
O1	O	0.037645	-1.061038	0.069486
O2	O	0.067039	-0.828881	0.069474
O3	O	-0.069984	-0.951306	0.069479
O4	O	0.174669	-0.938613	0.069480
O5	O	-0.075869	-0.945297	-0.069380
O6	O	0.061155	-0.822872	-0.069386
O7	O	0.031760	-1.055030	-0.069374
Zn8	Zn	0.045523	-0.937997	-0.091427
Zn9	Zn	0.053277	-0.945913	0.091527
O10	O	0.168784	-0.932605	-0.069379
C11	C	-0.104085	-0.947777	0.000051
C12	C	-0.196927	-0.946204	0.000056
C13	C	0.065602	-0.796168	0.000042
C14	C	0.070076	-0.707648	0.000038
C15	C	0.033198	-1.087742	0.000059
C16	C	0.028724	-1.176263	0.000069
C17	C	-0.534283	-0.940554	0.000053
C18	C	-0.480802	-0.853379	0.000360
C19	C	-0.384234	-0.854939	0.000047
C20	C	-0.366917	-0.943357	0.000055
C21	C	-0.414331	-0.982930	-0.079237
C22	C	-0.510818	-0.980737	-0.079304
C23	C	-0.504608	-0.989371	0.078606
C24	C	-0.407617	-0.989395	0.079654
C25	C	-0.272329	-0.944945	0.000053
C26	C	-0.628871	-0.938968	0.000049
C27	C	0.202885	-0.936134	0.000051
C28	C	0.295727	-0.937707	0.000052
C29	C	0.103552	-0.208349	0.000069
C30	C	0.099341	-0.291524	0.000069
C31	C	0.020301	-0.342612	0.000062
C32	C	-0.054532	-0.310521	0.000064
C33	C	-0.050320	-0.227348	0.000071
C34	C	-0.000545	-0.592384	0.000047
C35	C	-0.004752	-0.675562	0.000038
C36	C	0.149122	-0.656559	0.000044
C37	C	0.153327	-0.573385	0.000045
C38	C	0.078494	-0.541301	0.000052
N39	N	0.015995	-0.427630	0.000059
N40	N	0.082801	-0.456285	0.000061
N41	N	0.040230	-0.932600	-0.216288
C42	C	0.085847	-0.979072	-0.259976
C43	C	0.082138	-0.975307	-0.347383
C44	C	0.032818	-0.925067	-0.391101
C45	C	-0.012804	-0.878593	-0.347407
C46	C	-0.009100	-0.882363	-0.260001
C47	C	0.016645	-0.908612	-0.652513
C48	C	0.012946	-0.904845	-0.739924
C49	C	0.107887	-1.001561	-0.739894
C50	C	0.111591	-1.005322	-0.652487
C51	C	0.065966	-0.958852	-0.608801
N52	N	0.029028	-0.921216	-0.480445
N53	N	0.069752	-0.962707	-0.519458
N54	N	0.058562	-0.951317	0.216388
H55	H	-0.351064	-0.823594	0.056886
H56	H	-0.020507	-0.870773	-0.616954
N57	N	0.188801	-0.153248	0.000050
H58	H	0.235565	-0.186198	0.000045
H59	H	0.196094	-0.120549	0.051523
H60	H	-0.375706	-0.960492	0.138312
N61	N	-0.498960	-0.810467	0.075674
H62	H	-0.542031	-0.847116	0.110327
H63	H	-0.522310	-0.760624	0.056678
N64	N	-0.139784	-0.365619	0.000061
H65	H	-0.131100	-0.423178	0.000053
H66	H	-0.174821	-0.352992	-0.051417
H67	H	-0.111253	-0.201226	0.000073
N68	N	-0.552527	-1.074556	0.079322
H69	H	-0.585449	-1.086421	0.131929
H70	H	-0.510915	-1.112729	0.077441
N71	N	0.164781	-1.059517	-0.605337
H72	H	0.127181	-1.100106	-0.569065
H73	H	0.209675	-1.026305	-0.569126
N74	N	-0.081254	-0.557783	0.000045
H75	H	-0.113446	-0.578649	0.051515
H76	H	-0.117730	-0.574186	-0.051470
H77	H	-0.052966	-0.837690	-0.383009
H78	H	0.160274	-0.317644	0.000076
N79	N	-0.090005	-0.730668	0.000030
H80	H	-0.136773	-0.697723	0.000037
H81	H	-0.092919	-0.767827	0.051502
H82	H	-0.500392	-0.816238	-0.056189
N83	N	0.139047	-1.033257	-0.212826
H84	H	0.167380	-1.062126	-0.253768
H85	H	0.101402	-1.073802	-0.176553
N86	N	-0.347392	-0.806603	-0.075377
H87	H	-0.393893	-0.784203	-0.108554
H88	H	-0.321647	-0.842258	-0.111441
H89	H	0.217690	-0.531793	0.000053
N90	N	-0.535522	-0.935803	-0.157821
H91	H	-0.483755	-0.917602	-0.192063
H92	H	-0.559434	-0.887529	-0.142392
H93	H	0.210047	-0.682691	0.000039
H94	H	-0.396514	-1.054081	0.084447
H95	H	0.119282	-1.013151	-0.382950
N96	N	-0.559612	-1.065317	-0.084068
H97	H	-0.518406	-1.103860	-0.086119
H98	H	-0.598141	-1.069450	-0.136041
H99	H	-0.046245	-0.844520	-0.224432
H100	H	0.145032	-1.039394	-0.775473
H101	H	-0.520628	-0.963465	0.138705
H102	H	-0.027216	-0.863929	-0.775517
H103	H	-0.404825	-1.047761	-0.082180
H104	H	-0.386383	-0.950508	-0.138249
