data_functionalizedCrystal
_audit_creation_method	'MofGen! by Chris Wilmer'
_symmetry_space_group_name_H-M	'P1'
_symmetry_Int_Tables_number	1
_symmetry_cell_setting	triclinic
loop_
_symmetry_equiv_pos_as_xyz
  x,y,z
_cell_length_a	10.685980
_cell_length_b	10.686285
_cell_length_c	12.759393
_cell_angle_alpha	94.397013
_cell_angle_beta	94.396603
_cell_angle_gamma	89.665709
loop_
_atom_site_label
_atom_site_type_symbol
_atom_site_fract_x
_atom_site_fract_y
_atom_site_fract_z
Zn1	Zn	1.956351	-0.352377	0.696632
Zn2	Zn	2.456351	0.147623	1.196632
Zn3	Zn	1.972344	-0.562191	0.508600
Zn4	Zn	2.472344	-0.062191	1.008600
Zn5	Zn	1.746558	-0.368514	0.506526
Zn6	Zn	2.246558	0.131486	1.006526
Zn7	Zn	1.762659	-0.578165	0.669814
Zn8	Zn	2.262659	-0.078165	1.169814
O9	O	1.859478	-0.465312	0.595393
O10	O	2.359478	0.034688	1.095393
O11	O	2.134025	-0.366770	0.683781
O12	O	2.634025	0.133230	1.183781
O13	O	1.942347	-0.536568	0.361297
O14	O	2.442347	-0.036568	0.861297
O15	O	1.760956	-0.190826	0.542100
O16	O	2.260956	0.309174	1.042100
O17	O	2.145775	-0.520920	0.545635
O18	O	2.645775	-0.020920	1.045635
O19	O	1.915090	-0.178970	0.681770
O20	O	2.415090	0.321030	1.181770
O21	O	1.776463	-0.394275	0.359773
O22	O	2.276463	0.105725	0.859773
O23	O	1.573141	-0.409764	0.516095
O24	O	2.073141	0.090236	1.016095
O25	O	1.788398	-0.548145	0.820400
O26	O	2.288398	-0.048145	1.320400
O27	O	1.584971	-0.563793	0.636062
O28	O	2.084971	-0.063793	1.136062
O29	O	1.930703	-0.382260	0.840103
O30	O	2.430703	0.117740	1.340103
O31	O	1.957960	-0.739857	0.519630
O32	O	2.457960	-0.239857	1.019630
O33	O	1.803906	-0.751593	0.638073
O34	O	2.303906	-0.251593	1.138073
C35	C	1.533537	-0.490264	0.572944
C36	C	2.033537	0.009736	1.072944
C37	C	1.394100	-0.500969	0.563363
C38	C	1.894100	-0.000969	1.063363
C39	C	1.884450	-0.791240	0.576192
C40	C	2.384450	-0.291240	1.076192
C41	C	1.895248	-0.930665	0.568020
C42	C	2.395248	-0.430665	1.068020
C43	C	2.186692	-0.440263	0.617931
C44	C	2.686692	0.059737	1.117931
C45	C	2.326131	-0.429589	0.627535
C46	C	2.826131	0.070411	1.127535
C47	C	1.859563	-0.465184	0.869440
C48	C	2.359563	0.034816	1.369440
C49	C	1.859599	-0.465130	0.986223
C50	C	2.359599	0.034870	1.486223
C51	C	1.834443	-0.138108	0.614695
C52	C	2.334443	0.361892	1.114695
C53	C	1.823774	0.001326	0.622920
C54	C	2.323774	0.501326	1.122920
C55	C	1.859459	-0.465343	0.322423
C56	C	2.359459	0.034657	0.822423
C57	C	1.859639	-0.465025	0.205678
C58	C	2.359639	0.034975	0.705678
C59	C	1.933701	-0.378740	1.051347
C60	C	2.433701	0.121260	1.551347
C61	C	1.933718	-0.378684	1.161076
C62	C	2.433718	0.121316	1.661076
C63	C	1.785527	-0.551419	1.140545
C64	C	2.285527	-0.051419	1.640545
C65	C	1.785504	-0.551468	1.030819
C66	C	2.285504	-0.051468	1.530819
H67	H	1.345613	-0.570274	0.501083
H68	H	1.845613	-0.070274	1.001083
H69	H	1.725152	-0.621817	0.977791
H70	H	2.225152	-0.121817	1.477791
C71	C	1.391625	-0.335959	0.711665
C72	C	1.891625	0.164041	1.211665
N73	N	1.440963	-0.265437	0.775034
N74	N	1.940963	0.234563	1.275034
H75	H	1.964695	-0.979110	0.514755
H76	H	2.464695	-0.479110	1.014755
H77	H	1.754322	-0.950236	0.676175
H78	H	2.254322	-0.450236	1.176175
C79	C	2.015195	-0.283755	1.002296
C80	C	2.515195	0.216245	1.502296
N81	N	2.076574	-0.212205	0.965353
N82	N	2.576574	0.287795	1.465353
C83	C	2.015241	-0.283651	1.232709
C84	C	2.515241	0.216349	1.732709
N85	N	2.076647	-0.212068	1.286662
N86	N	2.576647	0.287932	1.786662
C87	C	1.704025	-0.646384	1.189612
C88	C	2.204025	-0.146384	1.689612
N89	N	1.642636	-0.717913	1.226567
N90	N	2.142636	-0.217913	1.726567
