data_functionalizedCrystal
_audit_creation_method	'MofGen! by Chris Wilmer'
_symmetry_space_group_name_H-M	'P1'
_symmetry_Int_Tables_number	1
_symmetry_cell_setting	triclinic
loop_
_symmetry_equiv_pos_as_xyz
  x,y,z
_cell_length_a	16.109301
_cell_length_b	15.995350
_cell_length_c	14.586319
_cell_angle_alpha	89.998440
_cell_angle_beta	89.999213
_cell_angle_gamma	83.476928
loop_
_atom_site_label
_atom_site_type_symbol
_atom_site_fract_x
_atom_site_fract_y
_atom_site_fract_z
O1	O	1.103160	0.107624	-0.076178
O2	O	1.603160	0.607624	0.423822
O3	O	0.861101	0.121018	-0.076192
O4	O	1.361101	0.621018	0.423808
O5	O	0.988747	-0.007569	-0.076184
O6	O	1.488747	0.492431	0.423816
O7	O	0.975514	0.236210	-0.076186
O8	O	1.475514	0.736210	0.423814
O9	O	0.988739	-0.007570	0.076297
O10	O	1.488739	0.492430	0.576297
O11	O	0.861093	0.121016	0.076289
O12	O	1.361093	0.621016	0.576289
O13	O	1.103151	0.107622	0.076303
O14	O	1.603151	0.607622	0.576303
Cu15	Cu	0.982121	0.114319	0.090219
Cu16	Cu	1.482121	0.614319	0.590219
Cu17	Cu	0.982131	0.114321	-0.090107
Cu18	Cu	1.482131	0.614321	0.409893
O19	O	0.975505	0.236208	0.076295
O20	O	1.475505	0.736208	0.576295
C21	C	0.830122	0.120474	0.000047
C22	C	1.330122	0.620474	0.500047
C23	C	0.737826	0.118848	0.000041
C24	C	1.237826	0.618848	0.500041
C25	C	0.515573	0.191366	0.000051
C26	C	1.015573	0.691366	0.500051
C27	C	0.428853	0.189831	0.000057
C28	C	0.928853	0.689831	0.500057
C29	C	0.448686	0.037268	0.000055
C30	C	0.948686	0.537268	0.500055
C31	C	0.535405	0.038804	0.000055
C32	C	1.035405	0.538804	0.500055
C33	C	0.568846	0.115855	0.000049
C34	C	1.068846	0.615855	0.500049
C35	C	0.395406	0.112785	0.000054
C36	C	0.895406	0.612785	0.500054
C37	C	0.301380	0.111120	0.000061
C38	C	0.801380	0.611120	0.500061
C39	C	0.662879	0.117520	0.000044
C40	C	1.162879	0.617520	0.500044
C41	C	0.988196	-0.038764	0.000055
C42	C	1.488196	0.461236	0.500055
C43	C	0.986556	-0.131714	0.000050
C44	C	1.486556	0.368286	0.500050
C45	C	0.980665	-0.469460	0.000053
C46	C	1.480665	0.030540	0.500053
C47	C	0.889758	-0.422001	-0.000295
C48	C	1.389758	0.077999	0.499705
C49	C	0.891399	-0.325311	0.000049
C50	C	1.391399	0.174689	0.500049
C51	C	0.983587	-0.301900	0.000051
C52	C	1.483587	0.198100	0.500051
C53	C	1.028421	-0.342991	0.087126
C54	C	1.528421	0.157009	0.587126
C55	C	1.026137	-0.439626	0.087198
C56	C	1.526137	0.060374	0.587198
C57	C	1.028025	-0.439983	-0.086201
C58	C	1.528025	0.060017	0.413799
C59	C	1.028003	-0.343037	-0.087351
C60	C	1.528003	0.156963	0.412649
C61	C	0.985243	-0.207203	0.000053
C62	C	1.485243	0.292797	0.500053
C63	C	0.979012	-0.564157	0.000057
C64	C	1.479012	-0.064157	0.500057
C65	C	1.134130	0.108166	0.000062
C66	C	1.634130	0.608166	0.500062
C67	C	1.226426	0.109792	0.000062
C68	C	1.726426	0.609792	0.500062
C69	C	0.976056	0.267404	0.000054
C70	C	1.476056	0.767404	0.500054
C71	C	0.977697	0.360354	0.000053
C72	C	1.477697	0.860354	0.500053
N73	N	0.982120	0.114317	0.217050
N74	N	1.482120	0.614317	0.717050
N75	N	0.982139	0.114317	-0.216939
N76	N	1.482139	0.614317	0.283061
C77	C	1.038660	0.057398	0.452061
C78	C	1.538660	0.557398	0.952061
C79	C	1.038662	0.057396	0.548042
C80	C	1.538662	0.557396	1.048042
C81	C	0.925593	0.171238	0.548044
C82	C	1.425593	0.671238	1.048044
C83	C	0.925587	0.171236	0.452064
C84	C	1.425587	0.671236	0.952064
C85	C	0.982125	0.114316	0.404075
C86	C	1.482125	0.614316	0.904075
C87	C	0.982134	0.114317	0.596036
C88	C	1.482134	0.614317	1.096036
C89	C	0.982136	0.114315	0.700103
C90	C	1.482136	0.614315	1.200103
C91	C	0.982122	0.114317	0.300001
C92	C	1.482122	0.614317	0.800001
H93	H	0.385481	0.251320	0.000061
H94	H	0.885481	0.751320	0.500061
N95	N	1.114539	-0.482371	0.092466
N96	N	1.614539	0.017629	0.592466
H97	H	1.113746	-0.545419	0.092559
H98	H	1.613746	-0.045419	0.592559
H99	H	1.147260	-0.465520	0.037737
H100	H	1.647260	0.034480	0.537737
H101	H	0.997274	-0.314602	0.151923
H102	H	1.497274	0.185398	0.651923
N103	N	1.116809	-0.482070	-0.086970
N104	N	1.616809	0.017930	0.413030
H105	H	1.156758	-0.437797	-0.084931
H106	H	1.656758	0.062203	0.415069
H107	H	1.126260	-0.520049	-0.031747
H108	H	1.626260	-0.020049	0.468253
H109	H	0.853581	-0.441586	0.061797
H110	H	1.353581	0.058414	0.561797
H111	H	0.542798	0.254106	0.000053
H112	H	1.042798	0.754106	0.500053
N113	N	0.864626	0.232631	0.599813
N114	N	1.364626	0.732631	1.099813
H115	H	0.874199	0.292060	0.583103
H116	H	1.374199	0.792060	1.083103
H117	H	0.805646	0.222899	0.583100
H118	H	1.305646	0.722899	1.083100
N119	N	0.412607	-0.045829	0.000062
N120	N	0.912607	0.454171	0.500062
H121	H	0.377070	-0.049865	-0.056463
H122	H	0.877070	0.450135	0.443537
H123	H	0.459559	-0.093387	0.000100
H124	H	0.959559	0.406613	0.500100
N125	N	1.099636	-0.003991	0.400299
N126	N	1.599636	0.496009	0.900299
H127	H	1.135449	-0.040050	0.445265
H128	H	1.635449	0.459950	0.945265
H129	H	1.067807	-0.041018	0.360481
H130	H	1.567807	0.458982	0.860481
N131	N	0.844726	-0.287639	-0.082633
N132	N	1.344726	0.212361	0.417367
H133	H	0.796342	-0.246272	-0.061848
H134	H	1.296342	0.253728	0.438152
H135	H	0.883734	-0.257615	-0.121776
H136	H	1.383734	0.242385	0.378224
N137	N	0.844399	-0.288380	0.082866
N138	N	1.344399	0.211620	0.582866
H139	H	0.822538	-0.334921	0.119295
H140	H	1.322538	0.165079	0.619295
H141	H	0.883200	-0.258542	0.122472
H142	H	1.383200	0.241458	0.622472
H143	H	1.084697	0.011047	0.587109
H144	H	1.584697	0.511047	1.087109
N145	N	0.592872	-0.042644	0.000064
N146	N	1.092872	0.457356	0.500064
H147	H	0.558529	-0.091689	0.000063
H148	H	1.058529	0.408311	0.500063
H149	H	0.629289	-0.045329	-0.056460
H150	H	1.129289	0.454671	0.443540
H151	H	0.879546	0.217586	0.412992
H152	H	1.379546	0.717586	0.912992
H153	H	0.853427	-0.440522	-0.062738
H154	H	1.353427	0.059478	0.437262
N155	N	0.982821	-0.463859	0.173413
N156	N	1.482821	0.036141	0.673413
H157	H	0.924000	-0.434299	0.174882
H158	H	1.424000	0.065701	0.674882
H159	H	0.980965	-0.526755	0.174274
H160	H	1.480965	-0.026755	0.674274
N161	N	1.118144	-0.324339	0.091407
N162	N	1.618144	0.175661	0.591407
H163	H	1.130621	-0.288983	0.036815
H164	H	1.630621	0.211017	0.536815
H165	H	1.127396	-0.292693	0.149758
H166	H	1.627396	0.207307	0.649758
N167	N	0.988668	-0.467177	-0.173626
N168	N	1.488668	0.032823	0.326374
H169	H	0.939734	-0.498886	-0.158202
H170	H	1.439734	0.001114	0.341798
H171	H	0.968643	-0.415916	-0.211411
H172	H	1.468643	0.084084	0.288589
H173	H	0.995224	-0.315779	-0.151767
H174	H	1.495224	0.184221	0.348233
H175	H	1.095231	-0.327694	-0.092608
H176	H	1.595231	0.172306	0.407392
