data_functionalizedCrystal
_audit_creation_method	'MofGen! by Chris Wilmer'
_symmetry_space_group_name_H-M	'P1'
_symmetry_Int_Tables_number	1
_symmetry_cell_setting	triclinic
loop_
_symmetry_equiv_pos_as_xyz
  x,y,z
_cell_length_a	12.759401
_cell_length_b	12.759399
_cell_length_c	12.759393
_cell_angle_alpha	90.026805
_cell_angle_beta	90.022497
_cell_angle_gamma	90.015072
loop_
_atom_site_label
_atom_site_type_symbol
_atom_site_fract_x
_atom_site_fract_y
_atom_site_fract_z
Zn1	Zn	-1.606270	0.418192	-0.594091
Zn2	Zn	-1.606162	0.593908	-0.418422
Zn3	Zn	-1.430568	0.418246	-0.418421
Zn4	Zn	-1.430562	0.593832	-0.594055
O5	O	-1.518390	0.506045	-0.506247
O6	O	-1.753276	0.441511	-0.570804
O7	O	-1.582827	0.570660	-0.271401
O8	O	-1.453923	0.271218	-0.441739
O9	O	-1.753197	0.570608	-0.441741
O10	O	-1.583010	0.271178	-0.570802
O11	O	-1.453819	0.441602	-0.271400
O12	O	-1.283546	0.441529	-0.441704
O13	O	-1.453912	0.570479	-0.741081
O14	O	-1.283542	0.570531	-0.570741
O15	O	-1.583004	0.441437	-0.741107
O16	O	-1.582821	0.740919	-0.441706
O17	O	-1.453808	0.740863	-0.570742
C18	C	-1.245423	0.506029	-0.506219
C19	C	-1.128646	0.506047	-0.506232
C20	C	-1.518330	0.779012	-0.506243
C21	C	-1.518401	0.895789	-0.506276
C22	C	-1.073809	0.573320	-0.573314
C23	C	-0.964085	0.573323	-0.573332
C24	C	-0.964045	0.438776	-0.439176
C25	C	-1.073767	0.438769	-0.439164
C26	C	-1.518469	0.505944	-0.780281
C27	C	-1.518503	0.505901	-0.897057
C28	C	-0.792424	0.506059	-0.506269
C29	C	-0.909200	0.506057	-0.506261
C30	C	-1.585655	0.950645	-0.439167
C31	C	-1.585724	1.060369	-0.439210
C32	C	-1.451275	1.060371	-0.573474
C33	C	-1.451212	0.950649	-0.573436
C34	C	-1.518483	1.232011	-0.506293
C35	C	-1.518533	1.115235	-0.506358
C36	C	-1.585726	0.438698	-0.951935
C37	C	-1.585744	0.438653	-1.061659
C38	C	-1.451312	0.573022	-1.061619
C39	C	-1.451290	0.573061	-0.951896
C40	C	-1.518373	0.506069	-0.233280
C41	C	-1.518543	0.505816	-0.116504
H42	H	-0.919442	0.628102	-0.627959
H43	H	-1.396571	1.105052	-0.628151
H44	H	-1.396541	0.627785	-0.907214
H45	H	-1.640452	0.384009	-0.907288
H46	H	-1.640491	1.105028	-0.384565
O47	O	-1.651146	0.373341	-1.114804
C48	C	-1.784440	0.240028	-1.103258
C49	C	-1.710441	0.313962	-1.042942
H50	H	-1.832384	0.191986	-1.045183
H51	H	-1.839437	0.288199	-1.154606
H52	H	-1.736218	0.185111	-1.154649
H53	H	-1.758578	0.368894	-0.991493
H54	H	-1.655441	0.265726	-0.991659
H55	H	-1.118489	0.628099	-0.627928
O56	O	-1.386182	0.638376	-1.114939
C57	C	-1.372023	0.780134	-1.238848
C58	C	-1.445902	0.706201	-1.178513
H59	H	-1.420276	0.834975	-1.290278
H60	H	-1.323988	0.828249	-1.180824
H61	H	-1.317096	0.731854	-1.290168
H62	H	-1.500893	0.754400	-1.127192
H63	H	-1.493863	0.658082	-1.236594
O64	O	-0.910571	0.373527	-0.374062
C65	C	-0.741521	0.313856	-0.314674
C66	C	-0.801946	0.387823	-0.388452
H67	H	-0.653687	0.325373	-0.326298
H68	H	-0.762968	0.332197	-0.229900
H69	H	-0.763185	0.229174	-0.333258
H70	H	-0.780314	0.472530	-0.369963
H71	H	-0.780493	0.369391	-0.473204
O72	O	-1.126880	0.373383	-0.373896
C73	C	-1.115271	0.239887	-0.240877
C74	C	-1.054990	0.313898	-0.314714
H75	H	-1.057174	0.191758	-0.193025
H76	H	-1.166576	0.288003	-0.185787
H77	H	-1.166703	0.185054	-0.289220
H78	H	-1.003501	0.368746	-0.266455
H79	H	-1.003751	0.265717	-0.369807
H80	H	-1.640365	0.905980	-0.384483
H81	H	-1.396445	0.905982	-0.628089
