data_functionalizedCrystal
_audit_creation_method	'MofGen! by Chris Wilmer'
_symmetry_space_group_name_H-M	'P1'
_symmetry_Int_Tables_number	1
_symmetry_cell_setting	triclinic
loop_
_symmetry_equiv_pos_as_xyz
  x,y,z
_cell_length_a	12.594517
_cell_length_b	12.594516
_cell_length_c	21.395364
_cell_angle_alpha	89.998450
_cell_angle_beta	90.018202
_cell_angle_gamma	90.011248
loop_
_atom_site_label
_atom_site_type_symbol
_atom_site_fract_x
_atom_site_fract_y
_atom_site_fract_z
Zn1	Zn	1.627256	-0.424035	0.354305
Zn2	Zn	1.627173	-0.601954	0.249537
Zn3	Zn	1.449272	-0.423988	0.249539
Zn4	Zn	1.449255	-0.601970	0.354275
O5	O	1.538239	-0.512987	0.301914
O6	O	1.776191	-0.447649	0.340419
O7	O	1.603546	-0.578320	0.161860
O8	O	1.472924	-0.275049	0.263450
O9	O	1.776129	-0.578366	0.263447
O10	O	1.603688	-0.275083	0.340421
O11	O	1.472844	-0.447569	0.161861
O12	O	1.300324	-0.447585	0.263421
O13	O	1.472895	-0.578393	0.441957
O14	O	1.300312	-0.578348	0.340370
O15	O	1.603672	-0.447665	0.441979
O16	O	1.603529	-0.750902	0.263418
O17	O	1.472814	-0.750914	0.340368
C18	C	1.261698	-0.512964	0.301893
C19	C	1.143393	-0.512980	0.301899
C20	C	1.003352	-0.441780	0.260142
C21	C	1.074202	-0.415896	0.317316
C22	C	1.074114	-0.538815	0.244732
C23	C	1.003457	-0.487088	0.359149
C24	C	1.003363	-0.610052	0.286526
C25	C	1.074181	-0.584205	0.343739
C26	C	1.538190	-0.789528	0.301903
C27	C	1.538266	-0.907833	0.301920
C28	C	1.609445	-0.977041	0.260111
C29	C	1.635448	-1.047788	0.317299
C30	C	1.512395	-1.047886	0.244768
C31	C	1.564320	-0.977022	0.359137
C32	C	1.441222	-0.977113	0.286568
C33	C	1.467188	-1.047828	0.343796
C34	C	1.815860	-0.513011	0.301936
C35	C	1.934165	-0.513021	0.301945
C36	C	1.538291	-0.513036	0.465338
C37	C	1.538313	-0.513057	0.534979
C38	C	1.538318	-0.235366	0.301939
C39	C	1.538351	-0.117061	0.301949
C40	C	1.606398	-0.444999	0.567704
C41	C	1.606382	-0.444981	0.633140
C42	C	1.538292	-0.513042	0.665847
C43	C	1.470194	-0.581105	0.633114
C44	C	1.470204	-0.581113	0.567680
C45	C	1.529847	-0.608924	0.769518
C46	C	1.529844	-0.608918	0.834951
C47	C	1.538253	-0.513017	0.867668
C48	C	1.546688	-0.417119	0.834944
C49	C	1.546698	-0.417127	0.769510
C50	C	1.538273	-0.513040	0.736799
C51	C	1.606325	-0.444933	0.971346
C52	C	1.606301	-0.444914	1.036782
C53	C	1.470118	-0.581048	1.036755
C54	C	1.470136	-0.581057	0.971320
C55	C	1.538245	-0.513002	0.938619
C56	C	1.538193	-0.512970	1.139127
C57	C	1.538209	-0.512974	1.069485
H58	H	0.972225	-0.692103	0.273483
H59	H	1.661742	-0.389486	1.063426
N60	N	0.964309	-0.366186	0.215874
N61	N	0.907483	-0.396219	0.171345
H62	H	0.879905	-0.342830	0.140082
N63	N	0.964716	-0.459581	0.419848
N64	N	0.988166	-0.515698	0.466019
H65	H	0.960807	-0.496270	0.508887
N66	N	1.555310	-0.319188	0.736073
N67	N	1.631345	-0.304295	0.699573
H68	H	1.637424	-0.235125	0.675957
N69	N	1.391710	-1.086558	0.388213
N70	N	1.338475	-1.022692	0.420098
H71	H	1.285172	-1.050043	0.451471
H72	H	1.522715	-0.686998	0.742885
N73	N	1.675883	-0.375424	0.937929
N74	N	1.743707	-0.412883	0.901437
H75	H	1.792833	-0.363791	0.877837
N76	N	1.591954	-0.938166	0.419805
N77	N	1.611643	-1.001942	0.463045
H78	H	1.631164	-0.974500	0.505891
N79	N	1.738449	-1.086756	0.333587
N80	N	1.812186	-1.023070	0.344750
H81	H	1.884934	-1.050597	0.356240
N82	N	1.113228	-0.312936	0.333665
N83	N	1.049570	-0.239242	0.344899
H84	H	1.077127	-0.166523	0.356443
H85	H	1.553537	-0.339027	0.861581
H86	H	1.359140	-0.946043	0.273550
H87	H	1.522983	-0.687004	0.861590
N88	N	1.400641	-0.650614	0.666530
N89	N	1.400641	-0.650599	0.724953
H90	H	1.351513	-0.699688	0.748554
N91	N	1.112941	-0.659759	0.388116
N92	N	1.090097	-0.650184	0.444686
H93	H	1.117471	-0.703541	0.476029
H94	H	1.105155	-0.560649	0.196366
N95	N	1.684973	-0.938058	0.215798
N96	N	1.781093	-0.960713	0.221614
H97	H	1.834438	-0.933181	0.190321
N98	N	1.484910	-1.086931	0.184119
N99	N	1.541435	-1.064239	0.138001
H100	H	1.522032	-1.091811	0.095165
H101	H	1.414667	-0.636453	1.063385
N102	N	1.675976	-0.375479	0.534312
N103	N	1.736764	-0.314717	0.563544
H104	H	1.785905	-0.265618	0.539961
H105	H	1.661823	-0.389554	0.659790
N106	N	1.400583	-0.650587	0.937898
N107	N	1.339788	-0.711348	0.967105
H108	H	1.290660	-0.760455	0.943502
H109	H	1.414756	-0.636533	0.541035
