data_functionalizedCrystal
_audit_creation_method	'MofGen! by Chris Wilmer'
_symmetry_space_group_name_H-M	'P1'
_symmetry_Int_Tables_number	1
_symmetry_cell_setting	triclinic
loop_
_symmetry_equiv_pos_as_xyz
  x,y,z
_cell_length_a	21.295418
_cell_length_b	21.295417
_cell_length_c	21.295411
_cell_angle_alpha	89.978356
_cell_angle_beta	90.043738
_cell_angle_gamma	89.953681
loop_
_atom_site_label
_atom_site_type_symbol
_atom_site_fract_x
_atom_site_fract_y
_atom_site_fract_z
Zn1	Zn	0.962356	0.250415	0.356234
Zn2	Zn	1.295689	0.583749	0.689567
Zn3	Zn	1.629022	0.917082	1.022900
Zn4	Zn	0.962258	0.355667	0.250959
Zn5	Zn	1.295592	0.689000	0.584292
Zn6	Zn	1.628925	1.022334	0.917626
Zn7	Zn	0.857079	0.250445	0.250943
Zn8	Zn	1.190412	0.583778	0.584277
Zn9	Zn	1.523746	0.917111	0.917610
Zn10	Zn	0.857048	0.355680	0.356155
Zn11	Zn	1.190382	0.689013	0.689489
Zn12	Zn	1.523715	1.022346	1.022822
O13	O	0.909685	0.303052	0.303573
O14	O	1.243019	0.636385	0.636906
O15	O	1.576352	0.969718	0.970240
O16	O	1.050432	0.264360	0.342308
O17	O	1.383766	0.597693	0.675641
O18	O	1.717099	0.931026	1.008975
O19	O	0.948278	0.341716	0.162867
O20	O	1.281611	0.675050	0.496201
O21	O	1.614945	1.008383	0.829534
O22	O	0.871098	0.162351	0.264937
O23	O	1.204431	0.495685	0.598270
O24	O	1.537764	0.829018	0.931603
O25	O	1.050361	0.341688	0.264963
O26	O	1.383694	0.675021	0.598296
O27	O	1.717027	1.008354	0.931630
O28	O	0.948444	0.162330	0.342293
O29	O	1.281778	0.495663	0.675626
O30	O	1.615111	0.828996	1.008960
O31	O	0.871003	0.264410	0.162856
O32	O	1.204337	0.597743	0.496189
O33	O	1.537670	0.931077	0.829523
O34	O	0.768985	0.264422	0.264861
O35	O	1.102319	0.597755	0.598194
O36	O	1.435652	0.931089	0.931527
O37	O	0.871046	0.341709	0.444255
O38	O	1.204379	0.675042	0.777589
O39	O	1.537712	1.008376	1.110922
O40	O	0.768963	0.341738	0.342160
O41	O	1.102296	0.675071	0.675493
O42	O	1.435630	1.008404	1.008826
O43	O	0.948415	0.264372	0.444313
O44	O	1.281748	0.597705	0.777646
O45	O	1.615081	0.931038	1.110979
O46	O	0.948248	0.443758	0.264887
O47	O	1.281582	0.777091	0.598221
O48	O	1.614915	1.110425	0.931554
O49	O	0.870951	0.443767	0.342175
O50	O	1.204284	0.777101	0.675508
O51	O	1.537618	1.110434	1.008841
C52	C	0.746134	0.303085	0.303500
C53	C	1.079467	0.636418	0.636834
C54	C	1.412800	0.969751	0.970167
C55	C	0.676166	0.303114	0.303484
C56	C	1.009499	0.636447	0.636818
C57	C	1.342832	0.969781	0.970151
C58	C	0.909603	0.466603	0.303538
C59	C	1.242936	0.799937	0.636871
C60	C	1.576269	1.133270	0.970205
C61	C	0.909625	0.536571	0.303544
C62	C	1.242958	0.869905	0.636877
C63	C	1.576292	1.203238	0.970211
C64	C	0.643304	0.343426	0.343674
C65	C	0.976637	0.676759	0.677007
C66	C	1.309970	1.010092	1.010340
C67	C	0.577561	0.343410	0.343702
C68	C	0.910894	0.676743	0.677035
C69	C	1.244228	1.010077	1.010369
C70	C	0.544683	0.303090	0.303530
C71	C	0.878016	0.636423	0.636863
C72	C	1.211350	0.969756	0.970196
C73	C	0.577553	0.262770	0.263337
C74	C	0.910886	0.596104	0.596671
C75	C	1.244220	0.929437	0.930004
C76	C	0.643294	0.262783	0.263315
C77	C	0.976627	0.596116	0.596648
C78	C	1.309961	0.929449	0.929982
N79	N	0.441407	0.298163	0.248472
N80	N	0.774740	0.631496	0.581805
N81	N	1.108074	0.964829	0.915139
N82	N	0.378956	0.298155	0.248495
N83	N	0.712289	0.631488	0.581829
N84	N	1.045622	0.964821	0.915162
C85	C	0.346608	0.303050	0.303596
C86	C	0.679942	0.636383	0.636930
C87	C	1.013275	0.969716	0.970263
N88	N	0.379072	0.307965	0.358675
N89	N	0.712405	0.641298	0.692008
N90	N	1.045739	0.974632	1.025341
N91	N	0.441529	0.307976	0.358650
N92	N	0.774862	0.641309	0.691984
N93	N	1.108196	0.974643	1.025317
C94	C	0.473398	0.303072	0.303550
C95	C	0.806731	0.636405	0.636883
C96	C	1.140064	0.969738	0.970217
C97	C	0.242461	0.343346	0.343820
C98	C	0.575794	0.676680	0.677153
C99	C	0.909128	1.010013	1.010486
C100	C	0.176717	0.343326	0.343849
C101	C	0.510051	0.676660	0.677182
C102	C	0.843384	1.009993	1.010516
C103	C	0.176710	0.262690	0.263479
C104	C	0.510044	0.596023	0.596812
C105	C	0.843377	0.929357	0.930146
C106	C	0.242453	0.262707	0.263455
C107	C	0.575786	0.596040	0.596789
C108	C	0.909119	0.929373	0.930122
C109	C	0.275324	0.303038	0.303625
C110	C	0.608657	0.636372	0.636958
C111	C	0.941991	0.969705	0.970291
C112	C	0.909738	0.303038	0.467763
C113	C	1.243071	0.636372	0.801097
C114	C	1.576404	0.969705	1.134430
C115	C	0.909760	0.303033	0.537731
C116	C	1.243093	0.636366	0.871065
C117	C	1.576427	0.969699	1.204398
C118	C	1.073876	0.303019	0.303646
C119	C	1.407209	0.636352	0.636979
C120	C	1.740542	0.969686	0.970313
C121	C	1.143844	0.303005	0.303677
C122	C	1.477177	0.636338	0.637010
C123	C	1.810510	0.969672	0.970344
C124	C	0.909785	0.138861	0.303622
C125	C	1.243119	0.472195	0.636955
C126	C	1.576452	0.805528	0.970288
C127	C	0.909828	0.068893	0.303642
C128	C	1.243161	0.402227	0.636976
C129	C	1.576495	0.735560	0.970309
C130	C	0.949910	0.569412	0.263342
C131	C	1.283243	0.902746	0.596675
C132	C	1.616576	1.236079	0.930009
C133	C	0.949939	0.635155	0.263356
C134	C	1.283272	0.968488	0.596689
C135	C	1.616606	1.301822	0.930023
C136	C	0.909673	0.668054	0.303566
C137	C	1.243006	1.001387	0.636899
C138	C	1.576340	1.334721	0.970233
C139	C	0.869386	0.635205	0.343776
C140	C	1.202719	0.968538	0.677109
C141	C	1.536052	1.301872	1.010443
C142	C	0.869362	0.569464	0.343765
C143	C	1.202695	0.902797	0.677098
C144	C	1.536028	1.236130	1.010432
N145	N	0.854606	0.771336	0.308340
N146	N	1.187939	1.104669	0.641674
N147	N	1.521272	1.438002	0.975007
N148	N	0.854630	0.833787	0.308347
N149	N	1.187964	1.167120	0.641680
N150	N	1.521297	1.500454	0.975014
C151	C	0.909743	0.866129	0.303602
C152	C	1.243077	1.199462	0.636935
C153	C	1.576410	1.532795	0.970269
N154	N	0.964832	0.833659	0.298838
N155	N	1.298166	1.166993	0.632171
N156	N	1.631499	1.500326	0.965504
N157	N	0.964807	0.771202	0.298828
N158	N	1.298140	1.104535	0.632161
N159	N	1.631474	1.437869	0.965494
C160	C	0.909695	0.739339	0.303582
C161	C	1.243028	1.072673	0.636916
C162	C	1.576361	1.406006	0.970249
C163	C	0.950063	0.970255	0.263413
C164	C	1.283397	1.303588	0.596746
C165	C	1.616730	1.636922	0.930080
C166	C	0.950094	1.035999	0.263431
C167	C	1.283427	1.369332	0.596765
C168	C	1.616760	1.702665	0.930098
C169	C	0.869535	1.036048	0.343848
C170	C	1.202868	1.369381	0.677181
C171	C	1.536201	1.702714	1.010515
C172	C	0.869510	0.970305	0.343833
C173	C	1.202843	1.303638	0.677166
C174	C	1.536176	1.636972	1.010500
C175	C	0.909773	0.937413	0.303612
C176	C	1.243106	1.270746	0.636945
C177	C	1.576440	1.604079	0.970279
C178	C	0.909670	0.303019	0.140021
C179	C	1.243003	0.636353	0.473355
C180	C	1.576336	0.969686	0.806688
C181	C	0.909769	0.302848	0.070054
C182	C	1.243103	0.636181	0.403387
C183	C	1.576436	0.969514	0.736720
C184	C	0.950044	0.262761	0.570629
C185	C	1.283377	0.596095	0.903962
C186	C	1.616711	0.929428	1.237296
C187	C	0.950043	0.262734	0.636371
C188	C	1.283377	0.596067	0.969705
C189	C	1.616710	0.929401	1.303038
C190	C	0.909765	0.302989	0.669214
C191	C	1.243098	0.636323	1.002547
C192	C	1.576431	0.969656	1.335881
C193	C	0.869473	0.343263	0.636308
C194	C	1.202806	0.676597	0.969642
C195	C	1.536139	1.009930	1.302975
C196	C	0.869470	0.343285	0.570567
C197	C	1.202804	0.676618	0.903900
C198	C	1.536137	1.009952	1.237234
N199	N	0.904908	0.358058	0.772428
N200	N	1.238241	0.691392	1.105761
N201	N	1.571575	1.024725	1.439094
N202	N	0.904914	0.358036	0.834879
N203	N	1.238247	0.691369	1.168213
N204	N	1.571581	1.024703	1.501546
C205	C	0.909769	0.302926	0.867289
C206	C	1.243102	0.636259	1.200622
C207	C	1.576435	0.969592	1.533955
N208	N	0.914629	0.247837	0.834888
N209	N	1.247963	0.581170	1.168221
N210	N	1.581296	0.914504	1.501554
N211	N	0.914627	0.247860	0.772430
N212	N	1.247960	0.581193	1.105764
N213	N	1.581293	0.914527	1.439097
C214	C	0.909763	0.302970	0.740499
C215	C	1.243096	0.636303	1.073833
C216	C	1.576429	0.969637	1.407166
C217	C	0.950054	0.262621	0.971472
C218	C	1.283388	0.595955	1.304805
C219	C	1.616721	0.929288	1.638139
C220	C	0.950049	0.262593	1.037216
C221	C	1.283382	0.595926	1.370549
C222	C	1.616716	0.929260	1.703882
C223	C	0.869482	0.343128	1.037151
C224	C	1.202815	0.676461	1.370485
C225	C	1.536148	1.009795	1.703818
C226	C	0.869484	0.343151	0.971409
C227	C	1.202817	0.676484	1.304742
C228	C	1.536150	1.009817	1.638076
C229	C	0.909773	0.302898	0.938573
C230	C	1.243107	0.636231	1.271906
C231	C	1.576440	0.969565	1.605240
H232	H	0.550800	0.376236	0.376431
H233	H	0.884133	0.709570	0.709765
H234	H	1.217466	1.042903	1.043098
C235	C	0.825920	1.071837	0.387545
C236	C	1.159253	1.405171	0.720878
C237	C	1.492586	1.738504	1.054212
C238	C	0.861557	1.109525	0.427933
C239	C	1.194891	1.442858	0.761267
C240	C	1.528224	1.776192	1.094600
C241	C	0.821402	1.142512	0.468194
C242	C	1.154735	1.475845	0.801527
C243	C	1.488069	1.809179	1.134860
H244	H	0.801908	1.042931	0.411546
H245	H	1.135241	1.376265	0.744879
H246	H	1.468575	1.709598	1.078212
H247	H	0.798522	1.097567	0.363454
H248	H	1.131856	1.430900	0.696788
H249	H	1.465189	1.764233	1.030121
H250	H	0.888944	1.083798	0.452022
H251	H	1.222277	1.417131	0.785355
H252	H	1.555610	1.750465	1.118688
H253	H	0.885568	1.138443	0.403950
H254	H	1.218901	1.471776	0.737284
H255	H	1.552235	1.805109	1.070617
H256	H	0.794005	1.168241	0.444103
H257	H	1.127338	1.501574	0.777436
H258	H	1.460671	1.834908	1.110770
H259	H	0.797392	1.113601	0.492190
H260	H	1.130725	1.446935	0.825523
H261	H	1.464059	1.780268	1.158857
H262	H	0.845576	1.168091	0.495598
H263	H	1.178909	1.501424	0.828931
H264	H	1.512243	1.834758	1.162265
H265	H	0.836683	0.375948	0.944623
H266	H	1.170017	0.709281	1.277957
H267	H	1.503350	1.042614	1.611290
C268	C	0.141136	0.218843	0.219839
C269	C	0.474469	0.552176	0.553172
C270	C	0.807803	0.885509	0.886506
C271	C	0.183991	0.183532	0.184645
C272	C	0.517324	0.516866	0.517978
C273	C	0.850657	0.850199	0.851312
C274	C	0.151240	0.143125	0.144445
C275	C	0.484573	0.476458	0.477778
C276	C	0.817906	0.809791	0.811111
H277	H	0.115432	0.242806	0.192320
H278	H	0.448765	0.576139	0.525654
H279	H	0.782099	0.909473	0.858987
H280	H	0.115559	0.191411	0.243966
H281	H	0.448893	0.524744	0.577299
H282	H	0.782226	0.858078	0.910633
H283	H	0.209556	0.210960	0.160520
H284	H	0.542890	0.544294	0.493853
H285	H	0.876223	0.877627	0.827187
H286	H	0.209696	0.159556	0.212147
H287	H	0.543029	0.492890	0.545481
H288	H	0.876363	0.826223	0.878814
H289	H	0.125663	0.115693	0.168572
H290	H	0.458996	0.449026	0.501905
H291	H	0.792330	0.782360	0.835238
H292	H	0.125537	0.167093	0.116930
H293	H	0.458870	0.500426	0.450263
H294	H	0.792203	0.833760	0.783597
H295	H	0.180311	0.119158	0.120565
H296	H	0.513645	0.452491	0.453898
H297	H	0.846978	0.785824	0.787232
H298	H	0.269209	0.229884	0.230726
H299	H	0.602543	0.563217	0.564059
H300	H	0.935876	0.896550	0.897392
H301	H	0.836704	0.943564	0.376567
H302	H	1.170037	1.276898	0.709900
H303	H	1.503370	1.610231	1.043233
H304	H	0.982902	1.062737	0.230695
H305	H	1.316235	1.396070	0.564029
H306	H	1.649569	1.729403	0.897362
C307	C	0.993805	0.218986	0.535093
C308	C	1.327138	0.552319	0.868426
C309	C	1.660471	0.885652	1.201760
C310	C	1.029072	0.183699	0.577980
C311	C	1.362405	0.517033	0.911313
C312	C	1.695739	0.850366	1.244647
C313	C	1.069383	0.143360	0.545266
C314	C	1.402716	0.476693	0.878600
C315	C	1.736050	0.810026	1.211933
H316	H	1.021272	0.242997	0.509462
H317	H	1.354606	0.576330	0.842796
H318	H	1.687939	0.909664	1.176129
H319	H	0.969754	0.191536	0.509446
H320	H	1.303087	0.524869	0.842780
H321	H	1.636420	0.858202	1.176113
H322	H	1.053121	0.211146	0.603616
H323	H	1.386454	0.544479	0.936949
H324	H	1.719788	0.877812	1.270283
H325	H	1.001621	0.159675	0.603612
H326	H	1.334954	0.493008	0.936946
H327	H	1.668288	0.826342	1.270279
H328	H	1.045332	0.115910	0.519620
H329	H	1.378666	0.449243	0.852953
H330	H	1.711999	0.782576	1.186286
H331	H	1.096847	0.167376	0.519637
H332	H	1.430180	0.500710	0.852970
H333	H	1.763513	0.834043	1.186303
H334	H	1.093313	0.119409	0.574360
H335	H	1.426646	0.452743	0.907693
H336	H	1.759979	0.786076	1.241027
H337	H	0.982857	0.229842	0.944736
H338	H	1.316190	0.563175	1.278069
H339	H	1.649524	0.896508	1.611402
C340	C	0.993594	0.533784	0.219578
C341	C	1.326928	0.867117	0.552912
C342	C	1.660261	1.200451	0.886245
C343	C	0.979935	0.549837	0.157282
C344	C	1.313269	0.883171	0.490615
C345	C	1.646602	1.216504	0.823948
C346	C	1.020172	0.517035	0.116952
C347	C	1.353505	0.850368	0.450285
C348	C	1.686839	1.183701	0.783618
H349	H	0.987855	0.489917	0.225242
H350	H	1.321188	0.823250	0.558575
H351	H	1.654521	1.156583	0.891909
H352	H	1.035898	0.544521	0.228810
H353	H	1.369231	0.877855	0.562144
H354	H	1.702565	1.211188	0.895477
H355	H	0.937642	0.539096	0.148053
H356	H	1.270975	0.872429	0.481386
H357	H	1.604308	1.205762	0.814720
H358	H	0.985679	0.593699	0.151598
H359	H	1.319012	0.927032	0.484932
H360	H	1.652345	1.260366	0.818265
H361	H	1.062476	0.527772	0.126184
H362	H	1.395809	0.861105	0.459517
H363	H	1.729142	1.194439	0.792850
H364	H	1.014429	0.473169	0.122621
H365	H	1.347762	0.806502	0.455954
H366	H	1.681096	1.139836	0.789288
H367	H	1.010914	0.527926	0.074680
H368	H	1.344247	0.861260	0.408013
H369	H	1.677580	1.194593	0.741346
C370	C	0.679027	0.387282	0.387187
C371	C	1.012360	0.720615	0.720521
C372	C	1.345694	1.053949	1.053854
C373	C	0.716681	0.427594	0.351460
C374	C	1.050015	0.760927	0.684794
C375	C	1.383348	1.094261	1.018127
C376	C	0.749594	0.468005	0.391524
C377	C	1.082928	0.801339	0.724858
C378	C	1.416261	1.134672	1.058191
H379	H	0.704776	0.363317	0.414662
H380	H	1.038109	0.696650	0.747996
H381	H	1.371442	1.029984	1.081329
H382	H	0.650058	0.411325	0.411118
H383	H	0.983391	0.744658	0.744452
H384	H	1.316724	1.077991	1.077785
H385	H	0.745647	0.403554	0.327540
H386	H	1.078981	0.736887	0.660873
H387	H	1.412314	1.070221	0.994207
H388	H	0.690948	0.451573	0.323987
H389	H	1.024281	0.784906	0.657320
H390	H	1.357615	1.118240	0.990653
H391	H	0.720625	0.492048	0.415456
H392	H	1.053958	0.825382	0.748789
H393	H	1.387292	1.158715	1.082122
H394	H	0.775340	0.444035	0.418998
H395	H	1.108673	0.777369	0.752331
H396	H	1.442006	1.110702	1.085664
H397	H	0.775142	0.495366	0.367290
H398	H	1.108475	0.828699	0.700623
H399	H	1.441809	1.162032	1.033956
C400	C	0.993753	0.218762	1.072852
C401	C	1.327086	0.552095	1.406186
C402	C	1.660419	0.885428	1.739519
C403	C	0.980098	0.156488	1.056835
C404	C	1.313432	0.489822	1.390168
C405	C	1.646765	0.823155	1.723502
C406	C	1.020351	0.116093	1.089644
C407	C	1.353685	0.449426	1.422977
C408	C	1.687018	0.782760	1.756310
H409	H	0.988025	0.224422	1.116719
H410	H	1.321358	0.557755	1.450052
H411	H	1.654692	0.891089	1.783385
H412	H	1.036052	0.227936	1.062096
H413	H	1.369385	0.561270	1.395429
H414	H	1.702718	0.894603	1.728762
H415	H	0.937809	0.147317	1.067596
H416	H	1.271143	0.480650	1.400929
H417	H	1.604476	0.813983	1.734262
H418	H	0.985830	0.150808	1.012974
H419	H	1.319163	0.484141	1.346307
H420	H	1.652496	0.817475	1.679641
H421	H	1.062650	0.125268	1.078887
H422	H	1.395984	0.458601	1.412221
H423	H	1.729317	0.791934	1.745554
H424	H	1.014621	0.121759	1.133509
H425	H	1.347954	0.455092	1.466842
H426	H	1.681287	0.788426	1.800175
H427	H	1.011096	0.073837	1.078776
H428	H	1.344430	0.407170	1.412110
H429	H	1.677763	0.740503	1.745443
H430	H	0.269226	0.376183	0.376531
H431	H	0.602560	0.709517	0.709865
H432	H	0.935893	1.042850	1.043198
H433	H	0.982746	0.661899	0.230619
H434	H	1.316079	0.995233	0.563952
H435	H	1.649412	1.328566	0.897285
H436	H	0.550779	0.229940	0.230630
H437	H	0.884113	0.563273	0.563963
H438	H	1.217446	0.896607	0.897297
C439	C	0.993847	0.934652	0.219725
C440	C	1.327181	1.267985	0.553059
C441	C	1.660514	1.601318	0.886392
C442	C	1.029149	0.977487	0.184535
C443	C	1.362483	1.310821	0.517868
C444	C	1.695816	1.644154	0.851201
C445	C	1.069494	0.944715	0.144289
C446	C	1.402828	1.278048	0.477622
C447	C	1.736161	1.611381	0.810955
H448	H	0.969839	0.909050	0.192207
H449	H	1.303172	1.242383	0.525540
H450	H	1.636506	1.575717	0.858873
H451	H	1.021287	0.908971	0.243820
H452	H	1.354620	1.242304	0.577153
H453	H	1.687953	1.575637	0.910486
H454	H	1.001713	1.003157	0.160442
H455	H	1.335047	1.336491	0.493776
H456	H	1.668380	1.669824	0.827109
H457	H	1.053171	1.003090	0.212037
H458	H	1.386504	1.336424	0.545370
H459	H	1.719837	1.669757	0.878703
H460	H	1.096934	0.919034	0.168383
H461	H	1.430267	1.252367	0.501716
H462	H	1.763601	1.585700	0.835049
H463	H	1.045481	0.919114	0.116774
H464	H	1.378814	1.252448	0.450107
H465	H	1.712148	1.585781	0.783441
H466	H	1.093456	0.973774	0.120411
H467	H	1.426789	1.307107	0.453744
H468	H	1.760123	1.640440	0.787078
C469	C	0.141149	0.387166	0.387509
C470	C	0.474483	0.720500	0.720842
C471	C	0.807816	1.053833	1.054175
C472	C	0.184011	0.422500	0.422667
C473	C	0.517345	0.755833	0.756000
C474	C	0.850678	1.089167	1.089333
C475	C	0.151268	0.462899	0.462886
C476	C	0.484602	0.796232	0.796219
C477	C	0.817935	1.129566	1.129552
H478	H	0.115557	0.363196	0.415050
H479	H	0.448890	0.696529	0.748383
H480	H	0.782223	1.029863	1.081716
H481	H	0.115462	0.414584	0.363397
H482	H	0.448796	0.747917	0.696730
H483	H	0.782129	1.081251	1.030063
H484	H	0.209687	0.395086	0.446777
H485	H	0.543021	0.728419	0.780110
H486	H	0.876354	1.061753	1.113444
H487	H	0.209605	0.446483	0.395142
H488	H	0.542939	0.779817	0.728476
H489	H	0.876272	1.113150	1.061809
H490	H	0.125581	0.490316	0.438774
H491	H	0.458915	0.823650	0.772107
H492	H	0.792248	1.156983	1.105440
H493	H	0.125677	0.438924	0.490422
H494	H	0.459010	0.772257	0.823756
H495	H	0.792343	1.105590	1.157089
H496	H	0.180345	0.486882	0.486741
H497	H	0.513678	0.820215	0.820074
H498	H	0.847012	1.153548	1.153408
C499	C	0.678863	0.218993	0.219605
C500	C	1.012197	0.552327	0.552939
C501	C	1.345530	0.885660	0.886272
C502	C	0.636003	0.183687	0.184419
C503	C	0.969336	0.517020	0.517752
C504	C	1.302669	0.850353	0.851085
C505	C	0.668747	0.143349	0.144139
C506	C	1.002080	0.476682	0.477473
C507	C	1.335414	0.810016	0.810806
H508	H	0.704568	0.191552	0.243656
H509	H	1.037902	0.524885	0.576989
H510	H	1.371235	0.858218	0.910322
H511	H	0.704438	0.243027	0.192090
H512	H	1.037771	0.576360	0.525423
H513	H	1.371105	0.909693	0.858756
H514	H	0.610439	0.159655	0.211931
H515	H	0.943772	0.492988	0.545264
H516	H	1.277105	0.826322	0.878597
H517	H	0.610296	0.211112	0.160356
H518	H	0.943630	0.544445	0.493689
H519	H	1.276963	0.877779	0.827022
H520	H	0.694322	0.167382	0.116624
H521	H	1.027655	0.500716	0.449957
H522	H	1.360988	0.834049	0.783291
H523	H	0.694451	0.115911	0.168195
H524	H	1.027784	0.449245	0.501528
H525	H	1.361118	0.782578	0.834861
H526	H	0.639671	0.119393	0.120256
H527	H	0.973005	0.452726	0.453590
H528	H	1.306338	0.786059	0.786923
C529	C	0.825745	0.670888	0.387538
C530	C	1.159079	1.004221	0.720871
C531	C	1.492412	1.337555	1.054204
C532	C	0.839429	0.654861	0.449836
C533	C	1.172762	0.988194	0.783169
C534	C	1.506096	1.321528	1.116503
C535	C	0.799247	0.687725	0.490171
C536	C	1.132581	1.021058	0.823504
C537	C	1.465914	1.354392	1.156837
H538	H	0.783428	0.660195	0.378356
H539	H	1.116761	0.993528	0.711689
H540	H	1.450094	1.326861	1.045022
H541	H	0.831533	0.714751	0.381828
H542	H	1.164867	1.048084	0.715161
H543	H	1.498200	1.381418	1.048495
H544	H	0.833636	0.611008	0.455543
H545	H	1.166969	0.944341	0.788876
H546	H	1.500302	1.277674	1.122210
H547	H	0.881739	0.665556	0.459038
H548	H	1.215072	0.998889	0.792371
H549	H	1.548406	1.332222	1.125704
H550	H	0.805035	0.731588	0.484461
H551	H	1.138369	1.064921	0.817794
H552	H	1.471702	1.398255	1.151128
H553	H	0.756932	0.677029	0.480983
H554	H	1.090266	1.010363	0.814316
H555	H	1.423599	1.343696	1.147650
H556	H	0.808530	0.676860	0.532445
H557	H	1.141863	1.010193	0.865778
H558	H	1.475197	1.343526	1.199111
C559	C	0.993682	0.218935	0.672133
C560	C	1.327015	0.552269	1.005466
C561	C	1.660348	0.885602	1.338800
C562	C	0.958070	0.178570	0.709843
C563	C	1.291404	0.511903	1.043176
C564	C	1.624737	0.845237	1.376509
C565	C	0.998249	0.138211	0.742787
C566	C	1.331582	0.471544	1.076120
C567	C	1.664915	0.804877	1.409454
H568	H	1.021104	0.242936	0.697847
H569	H	1.354437	0.576269	1.031180
H570	H	1.687770	0.909602	1.364514
H571	H	1.017665	0.194928	0.643182
H572	H	1.350999	0.528262	0.976516
H573	H	1.684332	0.861595	1.309849
H574	H	0.934098	0.202574	0.738790
H575	H	1.267431	0.535908	1.072124
H576	H	1.600764	0.869241	1.405457
H577	H	0.930650	0.154556	0.684144
H578	H	1.263983	0.487889	1.017478
H579	H	1.597317	0.821223	1.350811
H580	H	1.022232	0.114204	0.713836
H581	H	1.355565	0.447537	1.047170
H582	H	1.688899	0.780871	1.380503
H583	H	1.025669	0.162216	0.768497
H584	H	1.359002	0.495550	1.101831
H585	H	1.692335	0.828883	1.435164
H586	H	0.974092	0.110815	0.768372
H587	H	1.307425	0.444148	1.101706
H588	H	1.640759	0.777481	1.435039
H589	H	0.836557	0.542724	0.376503
H590	H	1.169890	0.876057	0.709837
H591	H	1.503223	1.209391	1.043170
H592	H	0.836676	0.376038	0.663053
H593	H	1.170009	0.709371	0.996386
H594	H	1.503342	1.042704	1.329720
H595	H	0.836663	0.376078	0.543782
H596	H	1.169996	0.709411	0.877116
H597	H	1.503330	1.042745	1.210449
C598	C	0.825824	0.386817	1.072914
C599	C	1.159157	0.720150	1.406248
C600	C	1.492490	1.053483	1.739581
C601	C	0.834459	0.378192	1.137530
C602	C	1.167793	0.711525	1.470863
C603	C	1.501126	1.044858	1.804197
C604	C	0.794259	0.418435	1.170497
C605	C	1.127592	0.751768	1.503830
C606	C	1.460925	1.085102	1.837164
H607	H	0.783506	0.377663	1.062188
H608	H	1.116840	0.710996	1.395521
H609	H	1.450173	1.044329	1.728855
H610	H	0.835023	0.429125	1.062179
H611	H	1.168357	0.762459	1.395512
H612	H	1.501690	1.095792	1.728845
H613	H	0.825256	0.335893	1.148261
H614	H	1.158589	0.669226	1.481594
H615	H	1.491922	1.002559	1.814928
H616	H	0.876769	0.387350	1.148275
H617	H	1.210102	0.720684	1.481608
H618	H	1.543435	1.054017	1.814941
H619	H	0.803458	0.460744	1.159761
H620	H	1.136792	0.794077	1.493095
H621	H	1.470125	1.127410	1.826428
H622	H	0.751944	0.409277	1.159766
H623	H	1.085277	0.742611	1.493099
H624	H	1.418610	1.075944	1.826432
H625	H	0.800117	0.412593	1.214342
H626	H	1.133450	0.745926	1.547675
H627	H	1.466783	1.079259	1.881009
