data_functionalizedCrystal
_audit_creation_method	'MofGen! by Chris Wilmer'
_symmetry_space_group_name_H-M	'P1'
_symmetry_Int_Tables_number	1
_symmetry_cell_setting	triclinic
loop_
_symmetry_equiv_pos_as_xyz
  x,y,z
_cell_length_a	12.759401
_cell_length_b	21.295412
_cell_length_c	12.759400
_cell_angle_alpha	90.023063
_cell_angle_beta	89.985672
_cell_angle_gamma	89.979066
loop_
_atom_site_label
_atom_site_type_symbol
_atom_site_fract_x
_atom_site_fract_y
_atom_site_fract_z
Zn1	Zn	1.606274	-0.355901	0.418302
Zn2	Zn	1.606163	-0.250641	0.593995
Zn3	Zn	1.430571	-0.250651	0.418330
Zn4	Zn	1.430565	-0.355877	0.593939
O5	O	1.518393	-0.303268	0.506142
O6	O	1.753280	-0.341944	0.441621
O7	O	1.582826	-0.162553	0.570728
O8	O	1.453927	-0.264627	0.271305
O9	O	1.753199	-0.264610	0.570701
O10	O	1.583016	-0.341954	0.271285
O11	O	1.453819	-0.162560	0.441667
O12	O	1.283549	-0.264604	0.441613
O13	O	1.453917	-0.443970	0.570605
O14	O	1.283545	-0.341913	0.570632
O15	O	1.583010	-0.443988	0.441566
O16	O	1.582821	-0.264586	0.741009
O17	O	1.453809	-0.341903	0.740967
C18	C	1.245426	-0.303257	0.506120
C19	C	1.128649	-0.303268	0.506136
C20	C	0.964034	-0.263090	0.438890
C21	C	1.073758	-0.263084	0.438868
C22	C	1.073811	-0.343465	0.573423
C23	C	0.964089	-0.343474	0.573439
C24	C	0.909148	-0.222899	0.371625
C25	C	0.963979	-0.182702	0.304336
C26	C	1.073703	-0.182696	0.304314
C27	C	1.128596	-0.222886	0.371581
C28	C	1.518475	-0.467458	0.506076
C29	C	1.518510	-0.537426	0.506048
C30	C	1.451354	-0.570287	0.438839
C31	C	1.451351	-0.636029	0.438819
C32	C	1.518522	-0.668909	0.505998
C33	C	1.585682	-0.636040	0.573221
C34	C	1.585677	-0.570299	0.573246
N35	N	1.610493	-0.772145	0.514023
N36	N	1.610496	-0.834597	0.513993
C37	C	1.518541	-0.866983	0.505928
N38	N	1.426582	-0.834560	0.497875
N39	N	1.426581	-0.772102	0.497899
C40	C	1.518535	-0.740194	0.505979
C41	C	1.451375	-0.971130	0.438694
C42	C	1.451370	-1.036874	0.438682
C43	C	1.585711	-1.036883	0.573078
C44	C	1.585707	-0.971140	0.573096
C45	C	1.518541	-0.938268	0.505898
C46	C	1.792426	-0.303278	0.506164
C47	C	1.909203	-0.303283	0.506174
C48	C	1.518331	-0.303254	0.779109
C49	C	1.518400	-0.303270	0.895886
C50	C	1.518372	-0.139716	0.506131
C51	C	1.518540	-0.069748	0.505863
C52	C	1.518484	-0.303295	0.232108
C53	C	1.518523	-0.303306	0.115332
C54	C	1.585651	-0.263056	0.950734
C55	C	1.585716	-0.263075	1.060458
C56	C	1.451270	-0.343525	1.060475
C57	C	1.451211	-0.343508	0.950753
C58	C	1.652840	-0.222817	0.895867
C59	C	1.720095	-0.182599	0.950715
C60	C	1.720160	-0.182619	1.060439
C61	C	1.652969	-0.222856	1.115315
H62	H	1.217941	-0.222884	0.371547
H63	H	1.774806	-0.149843	0.906030
H64	H	1.118514	-0.376186	0.628188
H65	H	1.653035	-0.222874	1.204659
H66	H	0.819805	-0.222898	0.371637
H67	H	0.919445	-0.376205	0.628224
H68	H	1.640396	-0.944385	0.627822
H69	H	1.396658	-0.543526	0.384125
H70	H	1.640373	-0.662815	0.627919
H71	H	1.396565	-0.376284	1.105163
H72	H	0.919277	-0.149984	0.249564
H73	H	1.774930	-0.149876	1.105094
H74	H	1.396666	-0.662790	0.384084
H75	H	1.640368	-0.543544	0.627975
H76	H	1.640405	-1.063653	0.627774
H77	H	1.396684	-0.944363	0.383979
H78	H	1.396676	-1.063628	0.383955
H79	H	1.652792	-0.222795	0.806524
H80	H	1.118343	-0.149971	0.249517
H81	H	1.396451	-0.376255	0.906095
