data_functionalizedCrystal
_audit_creation_method	'MofGen! by Chris Wilmer'
_symmetry_space_group_name_H-M	'P1'
_symmetry_Int_Tables_number	1
_symmetry_cell_setting	triclinic
loop_
_symmetry_equiv_pos_as_xyz
  x,y,z
_cell_length_a	19.077142
_cell_length_b	19.077068
_cell_length_c	19.076919
_cell_angle_alpha	85.529249
_cell_angle_beta	89.925643
_cell_angle_gamma	90.114550
loop_
_atom_site_label
_atom_site_type_symbol
_atom_site_fract_x
_atom_site_fract_y
_atom_site_fract_z
Zn1	Zn	-1.044046	0.340467	-0.453535
Zn2	Zn	-0.544046	0.840467	0.046465
Zn3	Zn	-1.043960	0.453617	-0.340376
Zn4	Zn	-0.543960	0.953617	0.159624
Zn5	Zn	-0.931658	0.331038	-0.330962
Zn6	Zn	-0.431658	0.831038	0.169038
Zn7	Zn	-0.921799	0.453191	-0.453108
Zn8	Zn	-0.421799	0.953191	0.046892
O9	O	-0.985366	0.394578	-0.394495
O10	O	-0.485366	0.894578	0.105505
O11	O	-1.142194	0.359601	-0.442642
O12	O	-0.642194	0.859601	0.057358
O13	O	-1.033152	0.433589	-0.240651
O14	O	-0.533152	0.933589	0.259349
O15	O	-0.950729	0.233814	-0.343461
O16	O	-0.450729	0.733814	0.156539
O17	O	-1.142130	0.442732	-0.359505
O18	O	-0.642130	0.942732	0.140495
O19	O	-1.033300	0.240742	-0.433514
O20	O	-0.533300	0.740742	0.066486
O21	O	-0.950645	0.343531	-0.233735
O22	O	-0.450645	0.843531	0.266265
O23	O	-0.832191	0.343117	-0.343047
O24	O	-0.332191	0.843117	0.156953
O25	O	-0.933926	0.442005	-0.551640
O26	O	-0.433926	0.942005	-0.051640
O27	O	-0.824948	0.432862	-0.432787
O28	O	-0.324948	0.932862	0.067213
O29	O	-1.023740	0.359188	-0.551954
O30	O	-0.523740	0.859188	-0.051954
O31	O	-1.023592	0.552035	-0.359091
O32	O	-0.523592	1.052035	0.140909
O33	O	-0.933842	0.551722	-0.441915
O34	O	-0.433842	1.051722	0.058085
C35	C	-0.803118	0.386921	-0.386849
C36	C	-0.303118	0.886921	0.113151
C37	C	-0.725150	0.383663	-0.383596
C38	C	-0.225150	0.883663	0.116404
C39	C	-0.684768	0.428922	-0.428722
C40	C	-0.184768	0.928922	0.071278
C41	C	-0.611509	0.425852	-0.425668
C42	C	-0.111509	0.925852	0.074332
C43	C	-0.578633	0.377525	-0.377484
C44	C	-0.078633	0.877525	0.122516
C45	C	-0.619021	0.332260	-0.332356
C46	C	-0.119021	0.832260	0.167644
C47	C	-0.692278	0.335328	-0.335414
C48	C	-0.192278	0.835328	0.164586
C49	C	-0.359939	0.363329	-0.363338
C50	C	0.140061	0.863329	0.136662
C51	C	-0.286676	0.360266	-0.360282
C52	C	0.213324	0.860266	0.139718
C53	C	-0.279169	0.453858	-0.453596
C54	C	0.220831	0.953858	0.046404
C55	C	-0.352428	0.456924	-0.456647
C56	C	0.147572	0.956924	0.043353
C57	C	-0.392810	0.411657	-0.411521
C58	C	0.107190	0.911657	0.088479
N59	N	-0.503751	0.374386	-0.374359
N60	N	-0.003751	0.874386	0.125641
N61	N	-0.467691	0.414792	-0.414650
N62	N	0.032309	0.914792	0.085350
C63	C	-0.977656	0.577413	-0.401494
C64	C	-0.477656	1.077413	0.098506
C65	C	-0.974421	0.655634	-0.404515
C66	C	-0.474421	1.155634	0.095485
C67	C	-0.977743	0.401601	-0.578045
C68	C	-0.477743	0.901601	-0.078045
C69	C	-0.974495	0.404593	-0.656263
C70	C	-0.474495	0.904593	-0.156263
C71	C	-0.168326	0.402262	-0.402163
C72	C	0.331674	0.902262	0.097837
C73	C	-0.246294	0.405526	-0.405409
C74	C	0.253706	0.905526	0.094591
C75	C	-0.993124	0.211031	-0.387485
C76	C	-0.493124	0.711031	0.112515
C77	C	-0.996430	0.132814	-0.384498
C78	C	-0.496430	0.632814	0.115502
C79	C	-1.019663	0.692526	-0.362850
C80	C	-0.519663	1.192526	0.137150
C81	C	-1.016624	0.766023	-0.365696
C82	C	-0.516624	1.266023	0.134304
C83	C	-0.968340	0.802628	-0.410202
C84	C	-0.468340	1.302628	0.089798
C85	C	-0.923096	0.765732	-0.451871
C86	C	-0.423096	1.265732	0.048129
C87	C	-0.926139	0.692236	-0.449029
C88	C	-0.426139	1.192236	0.050971
C89	C	-0.954229	1.022422	-0.423325
C90	C	-0.454229	1.522422	0.076675
C91	C	-0.951188	1.095922	-0.426162
C92	C	-0.451188	1.595922	0.073838
C93	C	-1.044718	1.096209	-0.339988
C94	C	-0.544718	1.596209	0.160012
C95	C	-1.047753	1.022711	-0.337147
C96	C	-0.547753	1.522711	0.162853
C97	C	-1.002512	0.985822	-0.378818
C98	C	-0.502512	1.485822	0.121182
N99	N	-0.965231	0.877754	-0.413109
N100	N	-0.465231	1.377754	0.086891
N101	N	-1.005625	0.910697	-0.375914
N102	N	-0.505625	1.410697	0.124086
C103	C	-1.019728	0.362883	-0.693174
C104	C	-0.519728	0.862883	-0.193174
C105	C	-1.016667	0.365691	-0.766668
C106	C	-0.516667	0.865691	-0.266668
C107	C	-0.968376	0.410215	-0.803249
C108	C	-0.468376	0.910215	-0.303249
C109	C	-0.923138	0.451927	-0.766332
C110	C	-0.423138	0.951927	-0.266332
C111	C	-0.926196	0.449114	-0.692840
C112	C	-0.426196	0.949114	-0.192840
C113	C	-0.954214	0.423248	-1.023031
C114	C	-0.454214	0.923248	-0.523031
C115	C	-0.951161	0.426060	-1.096528
C116	C	-0.451161	0.926060	-0.596528
C117	C	-1.044689	0.339822	-1.096859
C118	C	-0.544689	0.839822	-0.596859
C119	C	-1.047745	0.337016	-1.023365
C120	C	-0.547745	0.837016	-0.523365
C121	C	-1.002505	0.378726	-0.986454
C122	C	-0.502505	0.878726	-0.486454
N123	N	-0.965248	0.413089	-0.878372
N124	N	-0.465248	0.913089	-0.378372
N125	N	-1.005630	0.375848	-0.911333
N126	N	-0.505630	0.875848	-0.411333
C127	C	-0.993001	0.387534	-0.211659
C128	C	-0.493001	0.887534	0.288341
C129	C	-0.996394	0.384349	-0.133440
C130	C	-0.496394	0.884349	0.366560
H131	H	-0.711529	0.468278	-0.467956
H132	H	-0.211529	0.968278	0.032044
C133	C	-0.250515	0.307099	-0.307275
C134	C	0.249485	0.807099	0.192725
N135	N	-0.223279	0.267057	-0.267350
N136	N	0.276721	0.767057	0.232650
C137	C	-0.736699	0.285540	-0.285770
C138	C	-0.236699	0.785540	0.214230
N139	N	-0.770155	0.248037	-0.248377
N140	N	-0.270155	0.748037	0.251623
C141	C	-0.904496	0.981856	-0.469202
C142	C	-0.404496	1.481856	0.030798
N143	N	-0.867047	0.951300	-0.503774
N144	N	-0.367047	1.451300	-0.003774
H145	H	-0.578632	0.462708	-0.462414
H146	H	-0.078632	0.962708	0.037586
H147	H	-1.081552	1.126252	-0.306062
H148	H	-0.581552	1.626252	0.193938
C149	C	-0.904446	0.469128	-0.982438
C150	C	-0.404446	0.969128	-0.482438
N151	N	-0.866956	0.503686	-0.951862
N152	N	-0.366956	1.003686	-0.451862
H153	H	-0.883816	0.488177	-0.796123
H154	H	-0.383816	0.988177	-0.296123
C155	C	-0.388585	0.510091	-0.509650
C156	C	0.111415	1.010091	-0.009650
N157	N	-0.415819	0.550140	-0.549570
N158	N	0.084181	1.050140	-0.049570
C159	C	-1.066390	0.806600	-0.319857
C160	C	-0.566390	1.306600	0.180143
N161	N	-1.103875	0.837161	-0.285328
N162	N	-0.603875	1.337161	0.214672
C163	C	-0.234744	0.503643	-0.503236
C164	C	0.265256	1.003643	-0.003236
N165	N	-0.201283	0.541141	-0.540629
N166	N	0.298717	1.041141	-0.040629
C167	C	-1.100862	0.288029	-0.983131
C168	C	-0.600862	0.788029	-0.483131
N169	N	-1.140870	0.251131	-0.952826
N170	N	-0.640870	0.751131	-0.452826
C171	C	-1.072851	0.313902	-0.652942
C172	C	-0.572851	0.813902	-0.152942
N173	N	-1.112863	0.277006	-0.622640
N174	N	-0.612863	0.777006	-0.122640
C175	C	-0.898074	1.136187	-0.475129
C176	C	-0.398074	1.636187	0.024871
N177	N	-0.858070	1.166513	-0.512010
N178	N	-0.358070	1.666513	-0.012010
C179	C	-0.898033	0.475039	-1.136766
C180	C	-0.398033	0.975039	-0.636766
N181	N	-0.858019	0.511929	-1.167073
N182	N	-0.358019	1.011929	-0.667073
C183	C	-0.869980	0.805999	-0.500825
C184	C	-0.369980	1.305999	-0.000825
N185	N	-0.829970	0.836328	-0.537696
N186	N	-0.329970	1.336328	-0.037696
H187	H	-1.053502	0.331728	-0.796718
H188	H	-0.553502	0.831728	-0.296718
H189	H	-0.392809	0.326474	-0.326589
H190	H	0.107191	0.826474	0.173411
C191	C	-0.582855	0.279097	-0.279354
C192	C	-0.082855	0.779097	0.220646
N193	N	-0.555616	0.239056	-0.239431
N194	N	-0.055616	0.739056	0.260569
H195	H	-1.081520	0.305864	-1.126919
H196	H	-0.581520	0.805864	-0.626919
H197	H	-1.058978	0.662727	-0.326606
H198	H	-0.558978	1.162727	0.173394
C199	C	-1.100853	0.982450	-0.288167
C200	C	-0.600853	1.482450	0.211833
N201	N	-1.140840	0.952125	-0.251267
N202	N	-0.640840	1.452125	0.248733
C203	C	-0.876369	0.651656	-0.494863
C204	C	-0.376369	1.151656	0.005137
N205	N	-0.838883	0.621092	-0.529389
N206	N	-0.338883	1.121092	-0.029389
H207	H	-0.889356	0.483072	-0.662787
H208	H	-0.389356	0.983072	-0.162787
