data_functionalizedCrystal
_audit_creation_method	'MofGen! by Chris Wilmer'
_symmetry_space_group_name_H-M	'P1'
_symmetry_Int_Tables_number	1
_symmetry_cell_setting	triclinic
loop_
_symmetry_equiv_pos_as_xyz
  x,y,z
_cell_length_a	11.169417
_cell_length_b	12.827892
_cell_length_c	11.169409
_cell_angle_alpha	89.969812
_cell_angle_beta	90.019824
_cell_angle_gamma	89.981791
loop_
_atom_site_label
_atom_site_type_symbol
_atom_site_fract_x
_atom_site_fract_y
_atom_site_fract_z
Zn1	Zn	1.834904	0.415924	0.678561
Zn2	Zn	2.334904	0.915924	1.178561
Zn3	Zn	1.834769	0.590711	0.477885
Zn4	Zn	2.334769	1.090711	0.977885
Zn5	Zn	1.634190	0.415988	0.477895
Zn6	Zn	2.134190	0.915988	0.977895
Zn7	Zn	1.634173	0.590626	0.678530
Zn8	Zn	2.134173	1.090626	1.178530
O9	O	1.734509	0.503312	0.578218
O10	O	2.234509	1.003312	1.078218
O11	O	2.002836	0.439119	0.651949
O12	O	2.502836	0.939119	1.151949
O13	O	1.808112	0.567596	0.309937
O14	O	2.308112	1.067596	0.809937
O15	O	1.660879	0.269743	0.504531
O16	O	2.160879	0.769743	1.004531
O17	O	2.002737	0.567534	0.504514
O18	O	2.502737	1.067534	1.004514
O19	O	1.808343	0.269696	0.651959
O20	O	2.308343	0.769696	1.151959
O21	O	1.660748	0.439227	0.309944
O22	O	2.160748	0.939227	0.809944
O23	O	1.466238	0.439145	0.504501
O24	O	1.966238	0.939145	1.004501
O25	O	1.660850	0.567389	0.846484
O26	O	2.160850	1.067389	1.346484
O27	O	1.466226	0.567451	0.651907
O28	O	1.966226	1.067451	1.151907
O29	O	1.808326	0.439036	0.846506
O30	O	2.308326	0.939036	1.346506
O31	O	1.808096	0.736936	0.504484
O32	O	2.308096	1.236936	1.004484
O33	O	1.660719	0.736874	0.651897
O34	O	2.160719	1.236874	1.151897
C35	C	1.422684	0.503296	0.578202
C36	C	1.922684	1.003296	1.078202
C37	C	1.289284	0.503315	0.578224
C38	C	1.789284	1.003315	1.078224
C39	C	1.734423	0.774822	0.578212
C40	C	2.234423	1.274822	1.078212
C41	C	1.734497	0.890975	0.578250
C42	C	2.234497	1.390975	1.078250
C43	C	1.807508	0.942756	0.505389
C44	C	2.307508	1.442756	1.005389
C45	C	1.807585	1.062807	0.505427
C46	C	2.307585	1.562807	1.005427
C47	C	2.047551	0.503329	0.578234
C48	C	2.547551	1.003329	1.078234
C49	C	2.180951	0.503336	0.578241
C50	C	2.680951	1.003336	1.078241
C51	C	1.734601	0.503196	0.891260
C52	C	2.234601	1.003196	1.391260
C53	C	1.734640	0.503147	1.024660
C54	C	2.234640	1.003147	1.524660
C55	C	1.734618	1.230742	0.578264
C56	C	2.234618	1.730742	1.078264
C57	C	1.734639	1.114589	0.578321
C58	C	2.234639	1.614589	1.078321
C59	C	1.734486	0.503352	0.266393
C60	C	2.234486	1.003352	0.766393
C61	C	1.734679	0.503108	0.132994
C62	C	2.234679	1.003108	0.632994
H63	H	1.869964	0.898214	0.442987
H64	H	2.369964	1.398214	0.942987
H65	H	1.870090	1.107337	0.443045
H66	H	2.370090	1.607337	0.943045
C67	C	1.651485	1.055172	0.661654
C68	C	2.151485	1.555172	1.161654
C69	C	1.719429	0.992424	0.738571
C70	C	2.219429	1.492424	1.238571
C71	C	1.642871	0.937677	0.815364
C72	C	2.142871	1.437677	1.315364
H73	H	1.599208	1.012580	0.615781
H74	H	2.099208	1.512580	1.115781
H75	H	1.605751	1.103199	0.707464
H76	H	2.105751	1.603199	1.207464
H77	H	1.765143	0.944403	0.692767
H78	H	2.265143	1.444403	1.192767
H79	H	1.771703	1.034991	0.784471
H80	H	2.271703	1.534991	1.284471
H81	H	1.597137	0.985704	0.861173
H82	H	2.097137	1.485704	1.361173
H83	H	1.590597	0.895090	0.769481
H84	H	2.090597	1.395090	1.269481
H85	H	1.688960	0.895103	0.867568
H86	H	2.188960	1.395103	1.367568
H87	H	1.672051	0.935520	0.640661
H88	H	2.172051	1.435520	1.140661
