data_functionalizedCrystal
_audit_creation_method	'MofGen! by Chris Wilmer'
_symmetry_space_group_name_H-M	'P1'
_symmetry_Int_Tables_number	1
_symmetry_cell_setting	triclinic
loop_
_symmetry_equiv_pos_as_xyz
  x,y,z
_cell_length_a	18.101398
_cell_length_b	18.050589
_cell_length_c	18.101389
_cell_angle_alpha	89.985984
_cell_angle_beta	89.975673
_cell_angle_gamma	90.023488
loop_
_atom_site_label
_atom_site_type_symbol
_atom_site_fract_x
_atom_site_fract_y
_atom_site_fract_z
Zn1	Zn	1.132136	-0.295831	-0.418861
Zn2	Zn	1.132038	-0.420005	-0.295029
Zn3	Zn	1.008295	-0.295823	-0.295023
Zn4	Zn	1.008252	-0.419974	-0.418818
O5	O	1.070180	-0.357908	-0.356933
O6	O	1.235756	-0.312320	-0.402456
O7	O	1.115600	-0.403542	-0.191396
O8	O	1.024782	-0.191900	-0.311465
O9	O	1.235684	-0.403550	-0.311477
O10	O	1.115767	-0.191905	-0.402449
O11	O	1.024687	-0.312306	-0.191391
O12	O	0.904656	-0.312276	-0.311423
O13	O	1.024708	-0.403496	-0.522457
O14	O	0.904625	-0.403488	-0.402375
O15	O	1.115725	-0.312289	-0.522489
O16	O	1.115558	-0.523926	-0.311435
O17	O	1.024613	-0.523902	-0.402382
C18	C	0.877770	-0.357878	-0.356894
C19	C	0.795455	-0.357883	-0.356895
C20	C	0.496364	-0.357930	-0.356957
C21	C	0.527685	-0.300254	-0.300012
C22	C	0.613303	-0.300409	-0.299769
C23	C	0.644747	-0.357906	-0.356927
C24	C	0.613633	-0.436133	-0.335608
C25	C	0.527988	-0.435813	-0.335212
C26	C	0.527978	-0.338057	-0.435355
C27	C	0.613629	-0.336315	-0.434927
C28	C	0.728606	-0.357897	-0.356910
C29	C	0.412505	-0.357943	-0.356972
C30	C	1.070091	-0.550860	-0.356921
C31	C	1.070120	-0.633406	-0.356940
C32	C	1.020713	-0.832871	-0.406380
C33	C	1.002661	-0.882299	-0.338801
C34	C	1.070193	-0.784537	-0.356950
C35	C	1.088281	-0.882191	-0.424536
C36	C	1.070262	-0.930522	-0.356965
C37	C	1.052106	-0.832877	-0.289335
C38	C	1.137757	-0.832765	-0.375116
C39	C	1.119731	-0.882170	-0.307491
C40	C	1.070151	-0.700438	-0.356942
C41	C	1.070304	-1.014618	-0.356965
C42	C	1.263342	-0.357939	-0.356972
C43	C	1.345656	-0.357952	-0.356989
C44	C	1.070223	-0.357890	-0.550095
C45	C	1.070241	-0.357882	-0.632409
C46	C	1.070290	-0.164203	-0.356961
C47	C	1.070337	-0.081657	-0.356974
C48	C	1.070284	-0.357742	-0.931500
C49	C	1.012822	-0.414945	-0.900155
C50	C	1.012977	-0.415210	-0.814536
C51	C	1.070262	-0.357811	-0.783117
C52	C	1.148289	-0.379062	-0.814225
C53	C	1.147969	-0.379437	-0.899870
C54	C	1.050399	-0.279163	-0.899918
C55	C	1.048663	-0.279616	-0.814267
C56	C	1.070255	-0.357849	-0.699258
C57	C	1.070297	-0.357706	-1.015360
C58	C	1.070180	-0.357873	-0.164522
C59	C	1.070305	-0.357672	-0.082209
H60	H	0.507112	-0.242068	-0.313227
O61	O	1.168180	-0.447966	-0.923628
C62	C	1.239594	-0.464558	-0.897342
H63	H	1.251704	-0.429740	-0.846224
H64	H	1.281993	-0.451509	-0.942085
C65	C	1.229095	-0.590104	-0.940022
C66	C	1.243967	-0.547345	-0.877234
H67	H	1.231795	-0.641171	-0.927622
H68	H	1.180983	-0.578925	-0.957734
H69	H	1.264429	-0.579221	-0.977302
H70	H	1.208627	-0.558221	-0.839959
H71	H	1.292073	-0.558527	-0.859515
H72	H	1.026106	-0.473456	-0.794059
O73	O	1.033784	-0.807024	-0.221187
C74	C	1.033956	-0.728918	-0.222005
H75	H	1.025676	-0.708460	-0.281009
H76	H	1.089078	-0.707731	-0.200063
C77	C	0.981038	-0.724981	-0.100364
C78	C	0.970862	-0.699855	-0.172833
H79	H	0.942121	-0.707053	-0.070030
H80	H	0.980925	-0.777603	-0.099811
H81	H	1.026976	-0.707324	-0.082089
H82	H	0.924930	-0.717520	-0.191110
H83	H	0.970966	-0.647235	-0.173388
H84	H	1.087462	-0.234735	-0.792880
O85	O	0.504019	-0.455813	-0.266841
C86	C	0.461318	-0.398040	-0.236461
H87	H	0.438511	-0.362011	-0.282877
H88	H	0.497333	-0.362855	-0.198544
C89	C	0.424845	-0.475382	-0.134786
C90	C	0.396828	-0.431134	-0.191795
H91	H	0.385066	-0.495795	-0.107231
H92	H	0.453615	-0.514304	-0.155251
H93	H	0.454857	-0.446054	-0.103196
H94	H	0.366824	-0.460464	-0.223389
H95	H	0.368051	-0.392218	-0.171334
O96	O	1.100368	-0.228403	-0.924197
C97	C	1.153085	-0.263684	-0.969473
H98	H	1.128557	-0.316914	-0.992861
H99	H	1.204210	-0.277464	-0.935382
C100	C	1.204867	-0.146325	-1.004663
C101	C	1.174739	-0.211700	-1.033394
H102	H	1.218228	-0.114258	-1.044091
H103	H	1.169353	-0.122555	-0.974158
H104	H	1.247468	-0.157818	-0.976254
H105	H	1.132135	-0.200207	-1.061794
H106	H	1.210247	-0.235467	-1.063906
H107	H	0.635036	-0.375263	-0.479629
H108	H	0.945556	-0.904073	-0.323450
O109	O	0.638308	-0.231188	-0.315786
C110	C	0.612503	-0.209806	-0.386108
H111	H	0.560818	-0.242942	-0.400377
H112	H	0.657124	-0.220991	-0.429145
C113	C	0.657336	-0.085880	-0.367988
C114	C	0.593852	-0.126573	-0.385511
H115	H	0.645835	-0.034537	-0.367622
H116	H	0.674724	-0.100285	-0.320612
H117	H	0.694514	-0.095209	-0.403855
H118	H	0.556679	-0.117251	-0.349640
H119	H	0.576458	-0.112164	-0.432882
H120	H	1.192234	-0.339582	-0.920607
H121	H	0.506136	-0.313242	-0.242258
H122	H	1.194849	-0.810992	-0.390500
H123	H	0.954788	-0.401782	-0.920740
O124	O	0.637673	-0.316214	-0.230484
C125	C	0.611214	-0.386449	-0.208936
H126	H	0.597790	-0.420579	-0.260186
H127	H	0.559172	-0.379459	-0.174139
C128	C	0.687231	-0.384591	-0.100225
C129	C	0.670749	-0.426512	-0.163172
H130	H	0.723953	-0.409302	-0.071992
H131	H	0.705055	-0.337271	-0.114740
H132	H	0.643858	-0.378768	-0.071236
H133	H	0.714120	-0.432326	-0.192163
H134	H	0.652934	-0.473834	-0.148660
H135	H	0.507268	-0.480240	-0.374880
H136	H	0.991242	-0.263592	-0.793934
O137	O	0.638023	-0.488690	-0.383582
C138	C	0.683671	-0.455411	-0.437305
H139	H	0.707087	-0.401387	-0.414598
H140	H	0.649882	-0.443398	-0.489073
C141	C	0.718785	-0.574617	-0.484622
C142	C	0.747551	-0.508267	-0.456730
H143	H	0.758188	-0.607222	-0.496607
H144	H	0.688030	-0.597039	-0.448429
H145	H	0.690628	-0.564596	-0.527758
H146	H	0.775699	-0.518287	-0.413590
H147	H	0.778313	-0.485848	-0.492916
O148	O	0.637791	-0.267630	-0.454206
C149	C	0.609532	-0.248836	-0.524318
H150	H	0.557525	-0.282605	-0.535644
H151	H	0.652713	-0.261420	-0.568425
C152	C	0.654461	-0.124217	-0.512114
C153	C	0.590581	-0.165687	-0.526022
H154	H	0.642774	-0.072926	-0.513167
H155	H	0.673502	-0.136879	-0.464879
H156	H	0.690439	-0.134711	-0.548872
H157	H	0.554608	-0.155199	-0.489259
H158	H	0.571533	-0.153021	-0.573250
O159	O	0.639165	-0.456739	-0.268012
C160	C	0.610701	-0.527110	-0.249705
H161	H	0.594710	-0.557747	-0.302393
H162	H	0.559868	-0.520281	-0.213134
C163	C	0.689514	-0.534190	-0.143222
C164	C	0.669881	-0.571822	-0.207935
H165	H	0.726017	-0.561770	-0.117454
H166	H	0.708689	-0.486779	-0.155554
H167	H	0.647148	-0.528502	-0.112755
H168	H	0.712244	-0.577501	-0.238405
H169	H	0.650714	-0.619236	-0.195607
O170	O	0.502199	-0.271164	-0.458359
C171	C	0.455118	-0.241297	-0.403921
H172	H	0.468861	-0.266891	-0.348013
H173	H	0.395236	-0.254122	-0.418650
C174	C	0.449136	-0.125335	-0.468748
C175	C	0.466020	-0.156767	-0.400080
H176	H	0.455858	-0.073193	-0.466380
H177	H	0.480854	-0.145458	-0.505425
H178	H	0.399235	-0.136030	-0.481014
H179	H	0.515922	-0.146080	-0.387819
H180	H	0.434311	-0.136640	-0.363400
O181	O	0.503723	-0.388213	-0.485889
C182	C	0.458433	-0.441048	-0.450614
H183	H	0.435022	-0.416404	-0.397566
H184	H	0.492521	-0.492303	-0.436802
C185	C	0.423296	-0.493082	-0.567555
C186	C	0.394536	-0.462812	-0.502403
H187	H	0.383882	-0.506510	-0.599501
H188	H	0.453810	-0.457489	-0.591321
H189	H	0.451701	-0.535791	-0.556035
H190	H	0.366139	-0.420099	-0.513924
H191	H	0.364015	-0.498399	-0.478641
H192	H	1.192253	-0.338707	-0.793876
H193	H	0.978808	-0.811224	-0.448122
O194	O	0.943911	-0.399467	-0.789477
C195	C	0.893944	-0.453341	-0.815642
H196	H	0.925283	-0.506312	-0.829516
H197	H	0.865176	-0.431751	-0.867356
C198	C	0.797398	-0.404738	-0.738586
C199	C	0.835889	-0.469800	-0.755620
H200	H	0.761584	-0.414890	-0.701564
H201	H	0.831060	-0.368440	-0.720960
H202	H	0.773431	-0.386754	-0.781686
H203	H	0.859862	-0.487779	-0.712523
H204	H	0.802229	-0.506102	-0.773238
H205	H	1.161604	-0.903680	-0.265648
O206	O	1.106419	-0.907946	-0.492771
C207	C	1.054057	-0.882842	-0.544692
H208	H	1.025835	-0.830875	-0.522715
H209	H	1.010942	-0.927865	-0.554340
C210	C	1.127885	-0.928630	-0.645057
C211	C	1.093227	-0.864799	-0.618067
H212	H	1.152045	-0.917503	-0.690320
H213	H	1.163161	-0.945545	-0.610077
H214	H	1.091950	-0.966143	-0.653091
H215	H	1.129163	-0.827290	-0.610026
H216	H	1.057958	-0.847877	-0.653048
O217	O	1.028343	-0.483959	-0.925959
C218	C	1.024695	-0.483949	-1.003763
H219	H	1.033449	-0.425205	-1.025195
H220	H	0.968176	-0.504874	-1.022110
C221	C	1.074483	-0.607172	-1.008693
C222	C	1.085241	-0.535024	-1.035017
H223	H	1.111827	-0.638680	-1.027972
H224	H	1.076938	-0.607181	-0.956275
H225	H	1.027381	-0.624600	-1.023984
H226	H	1.132337	-0.517594	-1.019717
H227	H	1.082795	-0.535013	-1.087433
H228	H	1.165437	-0.435894	-0.792787
O229	O	0.983677	-0.256187	-0.925713
C230	C	0.953944	-0.310809	-0.972775
H231	H	0.979508	-0.366841	-0.959004
H232	H	0.966731	-0.296006	-1.032662
C233	C	0.838259	-0.245964	-0.978802
C234	C	0.869652	-0.314785	-0.961884
H235	H	0.786264	-0.248415	-0.972088
H236	H	0.858291	-0.209162	-0.947098
H237	H	0.848922	-0.233636	-1.028707
H238	H	0.858996	-0.327107	-0.911978
H239	H	0.849616	-0.351589	-0.993581
