data_functionalizedCrystal
_audit_creation_method	'MofGen! by Chris Wilmer'
_symmetry_space_group_name_H-M	'P1'
_symmetry_Int_Tables_number	1
_symmetry_cell_setting	triclinic
loop_
_symmetry_equiv_pos_as_xyz
  x,y,z
_cell_length_a	15.944545
_cell_length_b	15.944551
_cell_length_c	10.868271
_cell_angle_alpha	89.993912
_cell_angle_beta	89.998467
_cell_angle_gamma	83.497455
loop_
_atom_site_label
_atom_site_type_symbol
_atom_site_fract_x
_atom_site_fract_y
_atom_site_fract_z
O1	O	1.114527	0.108307	-0.102245
O2	O	0.869977	0.121669	-0.102266
O3	O	0.998930	-0.007287	-0.102244
O4	O	0.985574	0.237263	-0.102267
O5	O	0.998920	-0.007292	0.102401
O6	O	0.869966	0.121664	0.102379
O7	O	1.114517	0.108302	0.102399
Zn8	Zn	0.992240	0.114983	0.134881
Zn9	Zn	0.992254	0.114989	-0.134747
O10	O	0.985563	0.237258	0.102378
C11	C	0.838677	0.121113	0.000054
C12	C	0.745431	0.119453	0.000047
C13	C	0.474798	0.034559	0.000068
C14	C	0.525375	0.075485	0.100968
C15	C	0.409787	0.113532	0.000069
C16	C	0.525366	0.075512	-0.100796
C17	C	0.574701	0.116437	0.000056
C18	C	0.459135	0.154437	0.101051
C19	C	0.459123	0.154452	-0.100803
C20	C	0.509667	0.195436	0.000122
C21	C	0.314785	0.111856	0.000077
C22	C	0.669700	0.118119	0.000056
C23	C	0.998370	-0.038583	0.000079
C24	C	0.996708	-0.131829	0.000079
C25	C	0.912803	-0.346684	0.000055
C26	C	0.951761	-0.407705	0.100961
C27	C	0.993701	-0.302555	0.000070
C28	C	0.951790	-0.407683	-0.100803
C29	C	0.990790	-0.467468	0.000055
C30	C	1.032680	-0.362347	0.101058
C31	C	1.032698	-0.362319	-0.100796
C32	C	1.071715	-0.423322	0.000134
C33	C	0.995375	-0.207553	0.000079
C34	C	0.989122	-0.562469	0.000054
C35	C	1.145816	0.108859	0.000077
C36	C	1.239062	0.110519	0.000076
C37	C	0.986123	0.268555	0.000052
C38	C	0.987785	0.361801	0.000044
N39	N	0.992236	0.114978	0.318895
N40	N	0.992264	0.114987	-0.318761
C41	C	0.992249	0.114987	0.569901
C42	C	0.992239	0.114984	0.430224
H43	H	0.554288	0.042148	-0.186093
H44	H	0.430181	0.187777	-0.186115
H45	H	1.138922	-0.456483	0.000197
H46	H	0.917540	-0.427814	0.186263
H47	H	0.845655	-0.313375	0.000151
H48	H	1.066863	-0.342360	0.186460
H49	H	1.066890	-0.342188	-0.186102
H50	H	0.917568	-0.427757	-0.186116
C51	C	0.453643	-0.057319	0.000211
N52	N	0.437706	-0.126520	0.000327
H53	H	0.554301	0.042131	0.186277
C54	C	0.420213	0.199454	0.216421
N55	N	0.390895	0.233355	0.303319
C56	C	0.530603	0.287386	0.000194
N57	N	0.546376	0.356642	0.000256
