data_functionalizedCrystal
_audit_creation_method	'MofGen! by Chris Wilmer'
_symmetry_space_group_name_H-M	'P1'
_symmetry_Int_Tables_number	1
_symmetry_cell_setting	triclinic
loop_
_symmetry_equiv_pos_as_xyz
  x,y,z
_cell_length_a	11.169417
_cell_length_b	16.959454
_cell_length_c	11.169409
_cell_angle_alpha	90.032943
_cell_angle_beta	90.019824
_cell_angle_gamma	90.020954
loop_
_atom_site_label
_atom_site_type_symbol
_atom_site_fract_x
_atom_site_fract_y
_atom_site_fract_z
Zn1	Zn	1.834881	-0.314599	0.678538
Zn2	Zn	1.834736	-0.446806	0.477852
Zn3	Zn	1.634167	-0.314647	0.477872
Zn4	Zn	1.634140	-0.446741	0.678497
O5	O	1.734481	-0.380698	0.578190
O6	O	2.002812	-0.332143	0.651925
O7	O	1.808081	-0.429322	0.309905
O8	O	1.660864	-0.204030	0.504516
O9	O	2.002705	-0.429275	0.504482
O10	O	1.808328	-0.203995	0.651944
O11	O	1.660724	-0.332225	0.309920
O12	O	1.466214	-0.332163	0.504477
O13	O	1.660819	-0.429165	0.846452
O14	O	1.466194	-0.429212	0.651875
O15	O	1.808302	-0.332081	0.846482
O16	O	1.808055	-0.557408	0.504443
O17	O	1.660678	-0.557361	0.651856
C18	C	1.422657	-0.380686	0.578174
C19	C	1.289257	-0.380700	0.578196
C20	C	1.734381	-0.586065	0.578169
C21	C	1.734447	-0.673921	0.578201
C22	C	1.657853	-1.045402	0.654940
C23	C	1.811443	-1.045391	0.501562
C24	C	1.811401	-0.962846	0.501551
C25	C	1.734583	-0.921574	0.578234
C26	C	1.657807	-0.962849	0.654928
C27	C	1.888168	-0.921565	0.424850
C28	C	1.888128	-0.839014	0.424835
C29	C	1.811315	-0.797741	0.501525
C30	C	1.734536	-0.839021	0.578223
C31	C	1.657718	-0.797749	0.654906
C32	C	1.580944	-0.839027	0.731611
C33	C	1.580993	-0.921576	0.731618
C34	C	1.811266	-0.715193	0.501518
C35	C	1.657671	-0.715196	0.654895
C36	C	2.047524	-0.380711	0.578206
C37	C	2.180924	-0.380716	0.578213
C38	C	1.734573	-0.380611	0.891232
C39	C	1.734613	-0.380573	1.024633
C40	C	1.734615	-0.174530	0.578237
C41	C	1.734672	-0.086674	0.578257
C42	C	1.734459	-0.380729	0.266365
C43	C	1.734652	-0.380543	0.132966
H44	H	1.595120	-0.681597	0.717344
H45	H	1.950642	-0.805410	0.362380
O46	O	1.506498	-0.798895	0.806226
C47	C	1.574767	-0.751058	0.883760
H48	H	1.669301	-0.775889	0.891262
H49	H	1.578890	-0.688514	0.846630
C50	C	1.399965	-0.719248	0.999265
C51	C	1.516070	-0.749750	1.008486
H52	H	1.363756	-0.718438	1.076200
H53	H	1.353968	-0.751475	0.947026
H54	H	1.403416	-0.667131	0.968318
H55	H	1.512616	-0.801869	1.039417
H56	H	1.562065	-0.717532	1.060733
O57	O	1.962651	-0.961583	0.350144
C58	C	1.936428	-0.941416	0.230534
H59	H	1.840521	-0.918796	0.224453
H60	H	2.000719	-0.893451	0.199232
C61	C	2.068282	-1.042519	0.157847
C62	C	1.950485	-1.014743	0.150376
H63	H	2.076958	-1.087748	0.108400
H64	H	2.085954	-1.056104	0.238430
H65	H	2.121845	-1.002541	0.131763
H66	H	1.896926	-1.054717	0.176474
H67	H	1.932805	-1.001166	0.069795
O68	O	1.506582	-0.961761	0.806173
C69	C	1.574896	-1.009434	0.883771
H70	H	1.665882	-1.021771	0.841526
H71	H	1.588013	-0.977582	0.972726
C72	C	1.397146	-1.072720	0.957324
C73	C	1.508892	-1.087878	0.905432
H74	H	1.356430	-1.121107	0.970691
H75	H	1.351120	-1.040600	0.905048
H76	H	1.408092	-1.046175	1.031447
H77	H	1.497944	-1.114414	0.831304
H78	H	1.554915	-1.120005	0.957696
O79	O	1.583316	-1.085616	0.729333
C80	C	1.599849	-1.167327	0.712933
H81	H	1.639210	-1.178628	0.620348
H82	H	1.663738	-1.190687	0.784183
C83	C	1.430089	-1.195883	0.837552
C84	C	1.478424	-1.209763	0.723833
H85	H	1.355190	-1.222061	0.844281
H86	H	1.418953	-1.140833	0.848605
H87	H	1.483342	-1.215349	0.896914
H88	H	1.425178	-1.190288	0.664474
H89	H	1.489548	-1.264811	0.712770
O90	O	1.885976	-1.085601	0.427144
C91	C	1.869504	-1.167312	0.443550
H92	H	1.830212	-1.178575	0.536161
H93	H	1.805581	-1.190771	0.372341
C94	C	2.039198	-1.195832	0.318816
C95	C	1.990947	-1.209666	0.432566
H96	H	2.114108	-1.221959	0.312035
H97	H	2.050293	-1.140782	0.307758
H98	H	1.985917	-1.215382	0.259488
H99	H	2.044221	-1.190107	0.491890
H100	H	1.979864	-1.264714	0.443633
O101	O	1.885770	-0.675181	0.426847
C102	C	1.859580	-0.695400	0.307210
H103	H	1.813479	-0.755360	0.304692
H104	H	1.797865	-0.648988	0.266737
C105	C	2.033236	-0.625542	0.237690
C106	C	1.976623	-0.699189	0.234597
H107	H	2.105431	-0.627876	0.192896
H108	H	2.050878	-0.611917	0.318291
H109	H	1.981794	-0.586873	0.203964
H110	H	2.028059	-0.737855	0.268336
H111	H	1.958992	-0.712821	0.154000
