data_functionalizedCrystal
_audit_creation_method	'MofGen! by Chris Wilmer'
_symmetry_space_group_name_H-M	'P1'
_symmetry_Int_Tables_number	1
_symmetry_cell_setting	triclinic
loop_
_symmetry_equiv_pos_as_xyz
  x,y,z
_cell_length_a	14.519731
_cell_length_b	14.519709
_cell_length_c	12.376457
_cell_angle_alpha	101.296542
_cell_angle_beta	78.684744
_cell_angle_gamma	83.684499
loop_
_atom_site_label
_atom_site_type_symbol
_atom_site_fract_x
_atom_site_fract_y
_atom_site_fract_z
O1	O	1.241513	0.103338	-0.094009
O2	O	0.973039	0.117553	-0.094012
O3	O	1.114392	-0.023790	-0.094000
O4	O	1.100160	0.244682	-0.094021
O5	O	1.079067	0.011497	0.094009
O6	O	0.937713	0.152841	0.093998
O7	O	1.206187	0.138626	0.094000
Zn8	Zn	1.066342	0.151336	0.123849
Zn9	Zn	1.112885	0.104843	-0.123861
O10	O	1.064834	0.279969	0.093989
C11	C	0.921017	0.134531	-0.000007
C12	C	0.818637	0.132535	-0.000007
C13	C	0.735493	0.130912	-0.000012
C14	C	0.631185	0.128886	-0.000012
C15	C	0.548046	0.127277	-0.000012
C16	C	0.443731	0.125250	-0.000014
C17	C	1.096066	-0.040506	0.000005
C18	C	1.094078	-0.142888	0.000005
C19	C	1.086764	-0.517789	-0.000024
C20	C	1.088795	-0.413480	-0.000016
C21	C	1.090420	-0.330342	-0.000008
C22	C	1.092452	-0.226026	-0.000002
C23	C	1.258210	0.121647	-0.000007
C24	C	1.360592	0.123642	-0.000014
C25	C	1.083161	0.296685	-0.000019
C26	C	1.085151	0.399065	-0.000027
N27	N	1.034584	0.183066	0.292905
N28	N	1.144650	0.073106	-0.292917
C29	C	1.218370	-0.000567	0.647905
C30	C	1.240592	-0.022775	0.529567
C31	C	1.189092	0.028683	0.470395
C32	C	1.115366	0.102353	0.529574
C33	C	1.093146	0.124568	0.647924
C34	C	1.063868	0.153818	0.470414
C35	C	0.990142	0.227489	0.529593
C36	C	0.967926	0.249699	0.647931
C37	C	1.019426	0.198241	0.707102
C38	C	1.086088	0.131603	0.352065
C39	C	0.960864	0.256739	0.352084
C40	C	0.938642	0.278947	0.470422
H41	H	1.146116	0.071621	0.303892
H42	H	1.207188	0.010598	0.374039
Br43	Br	0.890972	0.326586	0.271789
H44	H	1.300620	-0.082756	0.481388
Br45	Br	0.989259	0.228377	0.867711
Br46	Br	1.288267	-0.070386	0.728208
H47	H	0.907901	0.309693	0.696114
Br48	Br	0.838586	0.378924	0.550746
