data_functionalizedCrystal
_audit_creation_method	'MofGen! by Chris Wilmer'
_symmetry_space_group_name_H-M	'P1'
_symmetry_Int_Tables_number	1
_symmetry_cell_setting	triclinic
loop_
_symmetry_equiv_pos_as_xyz
  x,y,z
_cell_length_a	14.853566
_cell_length_b	13.930277
_cell_length_c	9.065218
_cell_angle_alpha	89.992402
_cell_angle_beta	95.674850
_cell_angle_gamma	89.995720
loop_
_atom_site_label
_atom_site_type_symbol
_atom_site_fract_x
_atom_site_fract_y
_atom_site_fract_z
O1	O	1.197796	-0.079763	-0.192584
O2	O	0.935506	-0.079779	-0.215531
O3	O	1.072072	-0.079769	0.010692
O4	O	1.061229	-0.079773	-0.418807
O5	O	1.072051	0.079893	0.010653
O6	O	0.935484	0.079883	-0.215571
O7	O	1.197774	0.079898	-0.192623
Zn8	Zn	1.066626	0.105240	-0.204103
Zn9	Zn	1.066654	-0.105121	-0.204051
O10	O	1.061208	0.079888	-0.418847
C11	C	0.901899	0.000050	-0.214511
C12	C	0.801792	0.000044	-0.211397
C13	C	0.378521	-0.086971	-0.198201
C14	C	0.378519	0.087099	-0.198245
C15	C	0.472575	0.087096	-0.201170
C16	C	0.519608	0.000058	-0.202612
C17	C	0.472585	-0.086976	-0.201130
C18	C	0.519603	0.174129	-0.202667
C19	C	0.613664	0.174130	-0.205594
C20	C	0.660700	0.087091	-0.207026
C21	C	0.613672	0.000053	-0.205542
C22	C	0.660705	-0.086985	-0.206985
C23	C	0.613679	-0.174024	-0.205490
C24	C	0.519621	-0.174015	-0.202563
C25	C	0.754759	0.087082	-0.209954
C26	C	0.754769	-0.086990	-0.209915
N27	N	1.066613	0.248807	-0.204138
C28	C	1.122065	0.701068	-0.293692
C29	C	1.011254	0.701053	-0.114399
C30	C	1.011242	0.600557	-0.114420
C31	C	1.066643	0.550312	-0.204076
C32	C	1.122056	0.600563	-0.293712
C33	C	0.955836	0.550299	-0.024775
C34	C	0.955822	0.449797	-0.024791
C35	C	1.011219	0.399550	-0.114456
C36	C	1.066634	0.449807	-0.204097
C37	C	1.122035	0.399562	-0.293753
C38	C	1.177446	0.449818	-0.383402
C39	C	1.177453	0.550316	-0.383377
C40	C	1.011212	0.299051	-0.114482
C41	C	1.122026	0.299057	-0.293773
C42	C	1.231381	0.000067	-0.193643
C43	C	1.331488	0.000067	-0.196758
C44	C	1.071019	0.000060	0.065639
C45	C	1.067903	0.000056	0.229420
N46	N	1.066664	0.751313	-0.204035
C47	C	1.062260	0.000057	-0.473793
C48	C	1.065376	0.000056	-0.637574
H49	H	0.651945	0.245002	-0.206807
H50	H	0.340229	-0.157836	-0.196978
Cl51	Cl	0.319390	0.196511	-0.196447
Cl52	Cl	1.191672	0.235900	-0.406500
H53	H	0.793057	-0.157868	-0.211085
H54	H	0.966100	0.258138	-0.041486
H55	H	0.793042	0.157948	-0.211185
Cl56	Cl	0.672817	-0.283438	-0.207315
Cl57	Cl	0.886148	0.386628	0.087882
H58	H	0.966155	0.741968	-0.041395
H59	H	0.481301	0.244990	-0.201502
Cl60	Cl	0.886192	0.613468	0.087925
Cl61	Cl	1.247096	0.386641	-0.496098
H62	H	0.481324	-0.244877	-0.201344
H63	H	1.222567	0.591243	-0.456362
H64	H	1.167176	0.741990	-0.366686
