data_functionalizedCrystal
_audit_creation_method	'MofGen! by Chris Wilmer'
_symmetry_space_group_name_H-M	'P1'
_symmetry_Int_Tables_number	1
_symmetry_cell_setting	triclinic
loop_
_symmetry_equiv_pos_as_xyz
  x,y,z
_cell_length_a	21.295418
_cell_length_b	21.295418
_cell_length_c	19.805399
_cell_angle_alpha	89.972053
_cell_angle_beta	90.037822
_cell_angle_gamma	89.950467
loop_
_atom_site_label
_atom_site_type_symbol
_atom_site_fract_x
_atom_site_fract_y
_atom_site_fract_z
Zn1	Zn	0.962305	0.250358	0.383048
Zn2	Zn	1.462305	0.750358	0.883048
Zn3	Zn	0.962212	0.355627	0.269859
Zn4	Zn	1.462212	0.855627	0.769859
Zn5	Zn	0.857039	0.250404	0.269836
Zn6	Zn	1.357039	0.750404	0.769836
Zn7	Zn	0.856992	0.355622	0.382969
Zn8	Zn	1.356992	0.855622	0.882969
O9	O	0.909637	0.303003	0.326428
O10	O	1.409637	0.803003	0.826428
O11	O	1.050382	0.264305	0.368075
O12	O	1.550382	0.764305	0.868075
O13	O	0.948242	0.341690	0.175139
O14	O	1.448242	0.841690	0.675139
O15	O	0.871061	0.162309	0.284877
O16	O	1.371061	0.662309	0.784877
O17	O	1.050314	0.341645	0.284916
O18	O	1.550314	0.841645	0.784916
O19	O	0.948400	0.162275	0.368053
O20	O	1.448400	0.662275	0.868053
O21	O	0.870972	0.264384	0.175122
O22	O	1.370972	0.764384	0.675122
O23	O	0.768943	0.264379	0.284801
O24	O	1.268943	0.764379	0.784801
O25	O	0.870981	0.341638	0.477696
O26	O	1.370981	0.841638	0.977696
O27	O	0.768909	0.341683	0.367920
O28	O	1.268909	0.841683	0.867920
O29	O	0.948354	0.264300	0.477754
O30	O	1.448354	0.764300	0.977754
O31	O	0.948196	0.443716	0.284840
O32	O	1.448196	0.943716	0.784840
O33	O	0.870891	0.443712	0.367942
O34	O	1.370891	0.943712	0.867942
C35	C	0.746085	0.303036	0.326350
C36	C	1.246085	0.803036	0.826350
C37	C	0.676117	0.303065	0.326333
C38	C	1.176117	0.803065	0.826333
C39	C	0.909545	0.466555	0.326399
C40	C	1.409545	0.966555	0.826399
C41	C	0.909564	0.536523	0.326410
C42	C	1.409564	1.036523	0.826410
C43	C	0.909672	0.302963	0.502971
C44	C	1.409672	0.802963	1.002971
C45	C	0.909687	0.302946	0.578203
C46	C	1.409687	0.802946	1.078203
C47	C	0.643249	0.343370	0.369548
C48	C	1.143249	0.843370	0.869548
C49	C	0.577506	0.343355	0.369578
C50	C	1.077506	0.843355	0.869578
C51	C	0.544635	0.303041	0.326381
C52	C	1.044635	0.803041	0.826381
C53	C	0.577511	0.262728	0.283163
C54	C	1.077511	0.762728	0.783163
C55	C	0.643252	0.262740	0.283139
C56	C	1.143252	0.762740	0.783139
N57	N	0.441365	0.298123	0.267181
N58	N	0.941365	0.798123	0.767181
N59	N	0.378913	0.298115	0.267206
N60	N	0.878913	0.798115	0.767206
C61	C	0.346560	0.303001	0.326453
C62	C	0.846560	0.803001	0.826453
N63	N	0.379018	0.307907	0.385675
N64	N	0.879018	0.807907	0.885675
N65	N	0.441475	0.307918	0.385649
N66	N	0.941475	0.807918	0.885649
C67	C	0.473349	0.303023	0.326403
C68	C	0.973349	0.803023	0.826403
C69	C	0.242406	0.343291	0.369705
C70	C	0.742406	0.843291	0.869705
C71	C	0.176663	0.343271	0.369736
C72	C	0.676663	0.843271	0.869736
C73	C	0.176668	0.262648	0.283316
C74	C	0.676668	0.762648	0.783316
C75	C	0.242411	0.262664	0.283290
C76	C	0.742411	0.762664	0.783290
C77	C	0.275276	0.302989	0.326484
C78	C	0.775276	0.802989	0.826484
C79	C	1.073827	0.302970	0.326507
C80	C	1.573827	0.802970	0.826507
C81	C	1.143795	0.302956	0.326540
C82	C	1.643795	0.802956	0.826540
C83	C	0.949917	1.035910	0.369807
C84	C	1.449917	1.535910	0.869807
C85	C	0.949905	0.970167	0.369798
C86	C	1.449905	1.470167	0.869798
C87	C	0.909664	0.937362	0.326455
C88	C	1.409664	1.437362	0.826455
C89	C	0.869443	0.970305	0.283106
C90	C	1.369443	1.470305	0.783106
C91	C	0.869461	1.036046	0.283112
C92	C	1.369461	1.536046	0.783112
N93	N	0.854537	0.834208	0.321179
N94	N	1.354537	1.334208	0.821179
N95	N	0.854521	0.771756	0.321178
N96	N	1.354521	1.271756	0.821178
C97	C	0.909608	0.739287	0.326435
C98	C	1.409608	1.239287	0.826435
N99	N	0.964712	0.771629	0.331706
N100	N	1.464712	1.271629	0.831706
N101	N	0.964727	0.834086	0.331711
N102	N	1.464727	1.334086	0.831711
C103	C	0.909640	0.866077	0.326444
C104	C	1.409640	1.366077	0.826444
C105	C	0.949816	0.635067	0.369768
C106	C	1.449816	1.135067	0.869768
C107	C	0.949805	0.569323	0.369754
C108	C	1.449805	1.069323	0.869754
C109	C	0.869337	0.569462	0.283065
C110	C	1.369337	1.069462	0.783065
C111	C	0.869354	0.635205	0.283076
C112	C	1.369354	1.135205	0.783076
C113	C	0.909593	0.668003	0.326430
C114	C	1.409593	1.168003	0.826430
C115	C	0.909723	1.138813	0.326466
C116	C	1.409723	1.638813	0.826466
C117	C	0.909700	1.068845	0.326466
C118	C	1.409700	1.568845	0.826466
C119	C	0.909638	0.302997	0.150572
C120	C	1.409638	0.802997	0.650572
C121	C	0.909745	0.302837	0.075340
C122	C	1.409745	0.802837	0.575340
C123	C	0.949977	0.262675	0.613578
C124	C	1.449977	0.762675	1.113578
C125	C	0.949983	0.262657	0.684266
C126	C	1.449983	0.762657	1.184266
C127	C	0.909703	0.302913	0.719578
C128	C	1.409703	0.802913	1.219578
C129	C	0.869409	0.343187	0.684198
C130	C	1.369409	0.843187	1.184198
C131	C	0.869400	0.343201	0.613511
C132	C	1.369400	0.843201	1.113511
C133	C	0.869445	0.343128	0.969272
C134	C	1.369445	0.843128	1.469272
C135	C	0.869459	0.343112	1.039964
C136	C	1.369459	0.843112	1.539964
C137	C	0.950028	0.262583	1.040027
C138	C	1.450028	0.762583	1.540027
C139	C	0.950019	0.262598	0.969340
C140	C	1.450019	0.762598	1.469340
C141	C	0.909723	0.302869	0.933966
C142	C	1.409723	0.802869	1.433966
C143	C	0.909716	0.302887	0.857317
C144	C	1.409716	0.802887	1.357317
C145	C	0.909713	0.302899	0.796226
C146	C	1.409713	0.802899	1.296226
H147	H	0.670004	0.376205	0.404721
H148	H	1.170004	0.876205	0.904721
C149	C	0.678909	0.219060	0.236100
C150	C	1.178909	0.719060	0.736100
C151	C	0.662850	0.232693	0.169110
C152	C	1.162850	0.732693	0.669110
C153	C	0.695692	0.192474	0.125757
C154	C	1.195692	0.692474	0.625757
H155	H	0.668219	0.176751	0.246001
H156	H	1.168219	0.676751	0.746001
H157	H	0.722775	0.224849	0.242224
H158	H	1.222775	0.724849	0.742224
H159	H	0.618994	0.226898	0.162989
H160	H	1.118994	0.726898	0.662989
H161	H	0.673541	0.274994	0.159188
H162	H	1.173541	0.774994	0.659188
H163	H	0.739558	0.198263	0.131882
H164	H	1.239558	0.698263	0.631882
H165	H	0.684999	0.150168	0.135664
H166	H	1.184999	0.650168	0.635664
H167	H	0.684805	0.201722	0.080300
H168	H	1.184805	0.701722	0.580300
C169	C	0.825756	0.386922	1.078216
C170	C	1.325756	0.886922	1.578216
C171	C	0.839401	0.449206	1.060997
C172	C	1.339401	0.949206	1.560997
C173	C	0.799153	0.489579	1.096214
C174	C	1.299153	0.989579	1.596214
H175	H	0.831494	0.381233	1.125391
H176	H	1.331494	0.881233	1.625391
H177	H	0.783455	0.377753	1.066599
H178	H	1.283455	0.877753	1.566599
H179	H	0.881692	0.458371	1.072619
H180	H	1.381692	0.958371	1.572619
H181	H	0.833659	0.454915	1.013828
H182	H	1.333659	0.954915	1.513828
H183	H	0.756852	0.480410	1.084597
H184	H	1.256852	0.980410	1.584597
H185	H	0.804895	0.483884	1.143388
H186	H	1.304895	0.983884	1.643388
H187	H	0.808402	0.531842	1.084532
H188	H	1.308402	1.031842	1.584532
C189	C	0.825725	0.934805	0.235977
C190	C	1.325725	1.434805	0.735977
C191	C	0.790516	0.977723	0.198010
C192	C	1.290516	1.477723	0.698010
C193	C	0.750242	0.945044	0.154578
C194	C	1.250242	1.445044	0.654578
H195	H	0.798219	0.909177	0.261755
H196	H	1.298219	1.409177	0.761755
H197	H	0.849800	0.909158	0.206481
H198	H	1.349800	1.409158	0.706481
H199	H	0.766443	1.003359	0.227502
H200	H	1.266443	1.503359	0.727502
H201	H	0.818005	1.003352	0.172218
H202	H	1.318005	1.503352	0.672218
H203	H	0.774317	0.919398	0.125083
H204	H	1.274317	1.419398	0.625083
H205	H	0.722740	0.919418	0.180362
H206	H	1.222740	1.419418	0.680362
H207	H	0.726352	0.974159	0.128808
H208	H	1.226352	1.474159	0.628808
H209	H	0.269173	0.229847	0.248096
H210	H	0.769173	0.729847	0.748096
H211	H	0.982576	0.661773	0.405075
H212	H	1.482576	1.161773	0.905075
C213	C	0.993607	0.218927	0.575157
C214	C	1.493607	0.718927	1.075157
C215	C	0.957985	0.178606	0.534556
C216	C	1.457985	0.678606	1.034556
C217	C	0.998154	0.138299	0.499150
C218	C	1.498154	0.638299	0.999150
H219	H	1.017615	0.194879	0.606276
H220	H	1.517615	0.694879	1.106276
H221	H	1.021008	0.242987	0.547551
H222	H	1.521008	0.742987	1.047551
H223	H	0.930595	0.154549	0.562160
H224	H	1.430595	0.654549	1.062160
H225	H	0.933978	0.202636	0.503425
H226	H	1.433978	0.702636	1.003425
H227	H	1.025555	0.162359	0.471543
H228	H	1.525555	0.662359	0.971543
H229	H	1.022160	0.114256	0.530273
H230	H	1.522160	0.614256	1.030273
H231	H	0.973991	0.110941	0.471593
H232	H	1.473991	0.610941	0.971593
H233	H	0.836602	0.662021	0.247786
H234	H	1.336602	1.162021	0.747786
H235	H	0.836586	0.375988	0.584709
H236	H	1.336586	0.875988	1.084709
H237	H	0.982656	0.943347	0.405092
H238	H	1.482656	1.443347	0.905092
H239	H	0.836643	0.375928	0.940479
H240	H	1.336643	0.875928	1.440479
H241	H	0.836710	1.062862	0.247817
H242	H	1.336710	1.562862	0.747817
H243	H	0.149902	0.376091	0.404932
H244	H	0.649902	0.876091	0.904932
H245	H	0.982558	0.542507	0.405045
H246	H	1.482558	1.042507	0.905045
C247	C	0.993798	0.218912	0.722552
C248	C	1.493798	0.718912	1.222552
C249	C	1.029086	0.183675	0.676498
C250	C	1.529086	0.683675	1.176498
C251	C	1.069463	0.143375	0.711741
C252	C	1.569463	0.643375	1.211741
H253	H	0.969813	0.191424	0.750123
H254	H	1.469813	0.691424	1.250123
H255	H	1.021245	0.242969	0.750122
H256	H	1.521245	0.742969	1.250122
H257	H	1.001643	0.159620	0.648940
H258	H	1.501643	0.659620	1.148940
H259	H	1.053084	0.211146	0.648925
H260	H	1.553084	0.711146	1.148925
H261	H	1.096910	0.167432	0.739311
H262	H	1.596910	0.667432	1.239311
H263	H	1.045473	0.115891	0.739311
H264	H	1.545473	0.615891	1.239311
H265	H	1.093415	0.119466	0.680499
H266	H	1.593415	0.619466	1.180499
H267	H	0.982821	0.229819	0.940592
H268	H	1.482821	0.729819	1.440592
C269	C	0.993704	0.218876	1.078557
C270	C	1.493704	0.718876	1.578557
C271	C	0.985080	0.227462	1.148020
C272	C	1.485080	0.727462	1.648020
C273	C	1.025298	0.187207	1.183531
C274	C	1.525298	0.687207	1.683531
H275	H	1.036017	0.228044	1.067076
H276	H	1.536017	0.728044	1.567076
H277	H	0.984512	0.176572	1.067014
H278	H	1.484512	0.676572	1.567014
H279	H	0.994277	0.269757	1.159557
H280	H	1.494277	0.769757	1.659557
H281	H	0.942776	0.218290	1.159521
H282	H	1.442776	0.718290	1.659521
H283	H	1.016106	0.144903	1.171989
H284	H	1.516106	0.644903	1.671989
H285	H	1.067608	0.196378	1.172045
H286	H	1.567608	0.696378	1.672045
H287	H	1.019448	0.193023	1.230666
H288	H	1.519448	0.693023	1.730666
H289	H	0.836575	0.542753	0.247772
H290	H	1.336575	1.042753	0.747772
C291	C	0.278207	0.387041	0.416531
C292	C	0.778207	0.887041	0.916531
C293	C	0.342816	0.378441	0.407244
C294	C	0.842816	0.878441	0.907244
C295	C	0.375813	0.418739	0.450361
C296	C	0.875813	0.918739	0.950361
H297	H	0.267564	0.377921	0.462057
H298	H	0.767564	0.877921	0.962057
H299	H	0.267413	0.429336	0.406541
H300	H	0.767413	0.929336	0.906541
H301	H	0.353606	0.336157	0.417237
H302	H	0.853606	0.836157	0.917237
H303	H	0.353478	0.387566	0.361726
H304	H	0.853478	0.887566	0.861726
H305	H	0.365019	0.461033	0.440372
H306	H	0.865019	0.961033	0.940372
H307	H	0.365165	0.409615	0.495885
H308	H	0.865165	0.909615	0.995885
H309	H	0.419653	0.412913	0.444061
H310	H	0.919653	0.912913	0.944061
C311	C	0.825780	0.386972	0.722571
C312	C	1.325780	0.886972	1.222571
C313	C	0.861402	0.427316	0.763147
C314	C	1.361402	0.927316	1.263147
C315	C	0.821233	0.467667	0.798497
C316	C	1.321233	0.967667	1.298497
H317	H	0.798361	0.362965	0.750194
H318	H	1.298361	0.862965	1.250194
H319	H	0.801794	0.410995	0.691399
H320	H	1.301794	0.910995	1.191399
H321	H	0.885378	0.403295	0.794315
H322	H	1.385378	0.903295	1.294315
H323	H	0.888820	0.451337	0.735541
H324	H	1.388820	0.951337	1.235541
H325	H	0.797247	0.491689	0.767325
H326	H	1.297247	0.991689	1.267325
H327	H	0.793816	0.443654	0.826116
H328	H	1.293816	0.943654	1.326116
H329	H	0.845397	0.495048	0.826027
H330	H	1.345397	0.995048	1.326027
C331	C	0.541924	0.387182	0.416529
C332	C	1.041924	0.887182	0.916529
C333	C	0.584777	0.422507	0.454342
C334	C	1.084777	0.922507	0.954342
C335	C	0.552024	0.462890	0.497596
C336	C	1.052024	0.962890	0.997596
H337	H	0.516330	0.363201	0.446135
H338	H	1.016330	0.863201	0.946135
H339	H	0.516237	0.414606	0.390609
H340	H	1.016237	0.914606	0.890609
H341	H	0.610453	0.395086	0.480261
H342	H	1.110453	0.895086	0.980261
H343	H	0.610372	0.446501	0.424754
H344	H	1.110372	0.946501	0.924754
H345	H	0.526337	0.490314	0.471675
H346	H	1.026337	0.990314	0.971675
H347	H	0.526431	0.438904	0.527197
H348	H	1.026431	0.938904	1.027197
H349	H	0.581094	0.486867	0.523253
H350	H	1.081094	0.986867	1.023253
C351	C	0.141101	0.218807	0.236390
C352	C	0.641101	0.718807	0.736390
C353	C	0.183961	0.183503	0.198546
C354	C	0.683961	0.683503	0.698546
C355	C	0.151217	0.143101	0.155319
C356	C	0.651217	0.643101	0.655319
H357	H	0.115399	0.242775	0.206802
H358	H	0.615399	0.742775	0.706802
H359	H	0.115523	0.191372	0.262331
H360	H	0.615523	0.691372	0.762331
H361	H	0.209528	0.210935	0.172608
H362	H	0.709528	0.710935	0.672608
H363	H	0.209665	0.159522	0.228116
H364	H	0.709665	0.659522	0.728116
H365	H	0.125639	0.115666	0.181260
H366	H	0.625639	0.615666	0.681260
H367	H	0.125515	0.167074	0.125736
H368	H	0.625515	0.667074	0.625736
H369	H	0.180292	0.119138	0.129642
H370	H	0.680292	0.619138	0.629642
C371	C	0.541711	0.219031	0.236284
C372	C	1.041711	0.719031	0.736284
C373	C	0.477102	0.227661	0.245539
C374	C	0.977102	0.727661	0.745539
C375	C	0.444105	0.187423	0.202358
C376	C	0.944105	0.687423	0.702358
H377	H	0.552460	0.176723	0.246222
H378	H	1.052460	0.676723	0.746222
H379	H	0.552400	0.228199	0.190772
H380	H	1.052400	0.728199	0.690772
H381	H	0.466418	0.218489	0.291040
H382	H	0.966418	0.718489	0.791040
H383	H	0.466335	0.269961	0.235596
H384	H	0.966335	0.769961	0.735596
H385	H	0.454794	0.196591	0.156846
H386	H	0.954794	0.696591	0.656846
H387	H	0.454858	0.145117	0.212299
H388	H	0.954858	0.645117	0.712299
H389	H	0.400265	0.193277	0.208627
H390	H	0.900265	0.693277	0.708627
H391	H	0.982688	1.062610	0.405105
H392	H	1.482688	1.562610	0.905105
