data_functionalizedCrystal
_audit_creation_method	'MofGen! by Chris Wilmer'
_symmetry_space_group_name_H-M	'P1'
_symmetry_Int_Tables_number	1
_symmetry_cell_setting	triclinic
loop_
_symmetry_equiv_pos_as_xyz
  x,y,z
_cell_length_a	22.610064
_cell_length_b	14.853567
_cell_length_c	14.853559
_cell_angle_alpha	96.366808
_cell_angle_beta	90.012760
_cell_angle_gamma	89.998830
loop_
_atom_site_label
_atom_site_type_symbol
_atom_site_fract_x
_atom_site_fract_y
_atom_site_fract_z
O1	O	-0.049141	-1.196360	0.117685
O2	O	0.284193	-0.863027	0.451018
O3	O	0.617526	-0.529693	0.784351
O4	O	-0.049151	-0.933900	0.131706
O5	O	0.284183	-0.600567	0.465040
O6	O	0.617516	-0.267233	0.798373
O7	O	-0.049145	-1.072145	-0.006535
O8	O	0.284188	-0.738811	0.326799
O9	O	0.617522	-0.405478	0.660132
O10	O	-0.049147	-1.058115	0.255926
O11	O	0.284187	-0.724782	0.589259
O12	O	0.617520	-0.391449	0.922592
O13	O	0.049224	-1.072135	-0.006499
O14	O	0.382558	-0.738802	0.326834
O15	O	0.715891	-0.405469	0.660167
O16	O	0.049219	-0.933891	0.131742
O17	O	0.382552	-0.600557	0.465075
O18	O	0.715885	-0.267224	0.798408
O19	O	0.049228	-1.196351	0.117720
O20	O	0.382562	-0.863017	0.451054
O21	O	0.715895	-0.529684	0.784387
Zn22	Zn	0.064842	-1.065119	0.124737
Zn23	Zn	0.398175	-0.731786	0.458070
Zn24	Zn	0.731508	-0.398452	0.791403
Zn25	Zn	-0.064764	-1.065131	0.124690
Zn26	Zn	0.268569	-0.731798	0.458023
Zn27	Zn	0.601903	-0.398465	0.791357
O28	O	0.049223	-1.058106	0.255961
O29	O	0.382556	-0.724773	0.589295
O30	O	0.715889	-0.391439	0.922628
C31	C	0.000033	-0.900307	0.131089
C32	C	0.333366	-0.566973	0.464422
C33	C	0.666699	-0.233640	0.797755
C34	C	0.000029	-0.800223	0.129185
C35	C	0.333362	-0.466890	0.462518
C36	C	0.666696	-0.133556	0.795851
N37	N	0.153294	-1.065117	0.124768
N38	N	0.486627	-0.731784	0.458101
N39	N	0.819961	-0.398451	0.791435
N40	N	-0.153216	-1.065140	0.124651
N41	N	0.180117	-0.731807	0.457985
N42	N	0.513450	-0.398474	0.791318
C43	C	0.438140	-1.003882	0.185906
C44	C	0.771473	-0.670549	0.519240
C45	C	1.104806	-0.337215	0.852573
C46	C	0.376220	-1.003880	0.185915
C47	C	0.709553	-0.670546	0.519248
C48	C	1.042886	-0.337213	0.852582
O49	O	0.344199	-0.951788	0.237937
O50	O	0.677532	-0.618455	0.571270
O51	O	1.010866	-0.285121	0.904604
N52	N	0.345246	-1.065111	0.124732
N53	N	0.678580	-0.731777	0.458065
N54	N	1.011913	-0.398444	0.791398
C55	C	0.376196	-1.126342	0.063530
C56	C	0.709530	-0.793009	0.396863
C57	C	1.042863	-0.459675	0.730196
O58	O	0.344165	-1.178423	0.011489
O59	O	0.677499	-0.845090	0.344822
O60	O	1.010832	-0.511756	0.678155
C61	C	0.438115	-1.126339	0.063517
C62	C	0.771448	-0.793006	0.396851
C63	C	1.104782	-0.459673	0.730184
C64	C	0.469085	-1.065110	0.124711
C65	C	0.802418	-0.731777	0.458044
C66	C	1.135752	-0.398444	0.791377
C67	C	0.469110	-0.942657	0.247094
C68	C	0.802443	-0.609324	0.580428
C69	C	1.135777	-0.275991	0.913761
C70	C	0.531026	-0.942661	0.247086
C71	C	0.864359	-0.609328	0.580420
C72	C	1.197692	-0.275995	0.913753
C73	C	0.561971	-1.003890	0.185891
C74	C	0.895304	-0.670556	0.519224
C75	C	1.228638	-0.337223	0.852557
C76	C	0.531001	-1.065114	0.124703
C77	C	0.864334	-0.731781	0.458036
C78	C	1.197667	-0.398448	0.791370
C79	C	0.469064	-1.187566	0.002311
C80	C	0.802397	-0.854232	0.335645
C81	C	1.135730	-0.520899	0.668978
C82	C	0.530987	-1.187557	0.002304
C83	C	0.864320	-0.854224	0.335637
C84	C	1.197653	-0.520891	0.668971
C85	C	0.561957	-1.126328	0.063497
C86	C	0.895290	-0.792995	0.396831
C87	C	1.228623	-0.459662	0.730164
C88	C	0.623862	-1.126346	0.063499
C89	C	0.957195	-0.793013	0.396833
C90	C	1.290529	-0.459680	0.730166
N91	N	0.654835	-1.065115	0.124683
N92	N	0.988169	-0.731782	0.458016
N93	N	1.321502	-0.398449	0.791349
C94	C	0.623890	-1.003887	0.185878
C95	C	0.957223	-0.670554	0.519212
C96	C	1.290556	-0.337220	0.852545
C97	C	0.246163	-1.126342	0.063559
C98	C	0.579496	-0.793008	0.396892
C99	C	0.912829	-0.459675	0.730226
C100	C	0.184245	-1.126349	0.063575
C101	C	0.517578	-0.793016	0.396908
C102	C	0.850912	-0.459683	0.730242
C103	C	0.184273	-1.003886	0.185960
C104	C	0.517606	-0.670552	0.519293
C105	C	0.850939	-0.337219	0.852626
C106	C	0.246192	-1.003883	0.185947
C107	C	0.579525	-0.670550	0.519281
C108	C	0.912858	-0.337216	0.852614
C109	C	0.277136	-1.065111	0.124742
C110	C	0.610469	-0.731777	0.458076
C111	C	0.943803	-0.398444	0.791409
C112	C	0.753917	-1.003900	0.185858
C113	C	1.087250	-0.670567	0.519191
C114	C	1.420584	-0.337233	0.852525
C115	C	0.815838	-1.003912	0.185847
C116	C	1.149172	-0.670579	0.519180
C117	C	1.482505	-0.337245	0.852514
C118	C	0.815805	-1.126372	0.063460
C119	C	1.149138	-0.793039	0.396793
C120	C	1.482472	-0.459705	0.730126
C121	C	0.753889	-1.126364	0.063473
C122	C	1.087223	-0.793031	0.396807
C123	C	1.420556	-0.459697	0.730140
C124	C	0.722947	-1.065120	0.124676
C125	C	1.056280	-0.731787	0.458009
C126	C	1.389613	-0.398454	0.791342
O127	O	0.655922	-1.178409	0.011502
O128	O	0.989255	-0.845076	0.344835
O129	O	1.322589	-0.511742	0.678168
O130	O	0.655928	-0.951807	0.237903
O131	O	0.989262	-0.618474	0.571236
O132	O	1.322595	-0.285140	0.904569
C133	C	0.000039	-1.071506	-0.040106
C134	C	0.333372	-0.738172	0.293227
C135	C	0.666705	-0.404839	0.626561
C136	C	0.000035	-1.069605	-0.140190
C137	C	0.333369	-0.736272	0.193143
C138	C	0.666702	-0.402938	0.526477
C139	C	0.000044	-1.229944	0.118338
C140	C	0.333377	-0.896611	0.451671
C141	C	0.666710	-0.563277	0.785004
C142	C	0.000044	-1.330028	0.120242
C143	C	0.333377	-0.996694	0.453575
C144	C	0.666710	-0.663361	0.786908
C145	C	0.000043	-0.387692	0.039019
C146	C	0.333376	-0.054359	0.372352
C147	C	0.666709	0.278975	0.705685
C148	C	0.000041	-0.366406	0.203252
C149	C	0.333374	-0.033073	0.536586
C150	C	0.666708	0.300261	0.869919
C151	C	0.000039	-0.460440	0.205042
C152	C	0.333372	-0.127106	0.538376
C153	C	0.666706	0.206227	0.871709
C154	C	0.000038	-0.518104	0.123819
C155	C	0.333371	-0.184771	0.457153
C156	C	0.666705	0.148563	0.790486
C157	C	0.000039	-0.481735	0.040806
C158	C	0.333372	-0.148401	0.374140
C159	C	0.666706	0.184932	0.707473
C160	C	0.000032	-0.496816	0.288054
C161	C	0.333366	-0.163483	0.621387
C162	C	0.666699	0.169851	0.954721
C163	C	0.000030	-0.590855	0.289847
C164	C	0.333363	-0.257522	0.623181
C165	C	0.666696	0.075812	0.956514
C166	C	0.000033	-0.648521	0.208623
C167	C	0.333366	-0.315188	0.541957
C168	C	0.666700	0.018145	0.875290
C169	C	0.000034	-0.612147	0.125607
C170	C	0.333368	-0.278813	0.458940
C171	C	0.666701	0.054520	0.792274
C172	C	0.000033	-0.669811	0.044384
C173	C	0.333367	-0.336478	0.377717
C174	C	0.666700	-0.003144	0.711051
C175	C	0.000039	-0.633438	-0.038633
C176	C	0.333373	-0.300105	0.294700
C177	C	0.666706	0.033229	0.628033
C178	C	0.000042	-0.539401	-0.040417
C179	C	0.333376	-0.206067	0.292916
C180	C	0.666709	0.127266	0.626249
C181	C	0.000030	-0.742559	0.210408
C182	C	0.333363	-0.409225	0.543741
C183	C	0.666697	-0.075892	0.877074
C184	C	0.000030	-0.763854	0.046172
C185	C	0.333363	-0.430520	0.379505
C186	C	0.666696	-0.097187	0.712838
C187	C	-0.053586	-1.061546	-0.563384
C188	C	0.279747	-0.728213	-0.230051
C189	C	0.613080	-0.394879	0.103282
C190	C	0.053660	-1.061536	-0.563340
C191	C	0.386993	-0.728203	-0.230007
C192	C	0.720326	-0.394869	0.103326
C193	C	0.053660	-1.063329	-0.469307
C194	C	0.386994	-0.729996	-0.135974
C195	C	0.720327	-0.396663	0.197360
C196	C	0.000037	-1.064230	-0.422308
C197	C	0.333370	-0.730896	-0.088975
C198	C	0.666703	-0.397563	0.244359
C199	C	-0.053587	-1.063337	-0.469342
C200	C	0.279746	-0.730004	-0.136009
C201	C	0.613079	-0.396670	0.197325
C202	C	0.107283	-1.064213	-0.422265
C203	C	0.440617	-0.730880	-0.088931
C204	C	0.773950	-0.397546	0.244402
C205	C	0.107286	-1.066006	-0.328226
C206	C	0.440619	-0.732672	0.005108
C207	C	0.773953	-0.399339	0.338441
C208	C	0.053662	-1.066913	-0.281226
C209	C	0.386995	-0.733579	0.052108
C210	C	0.720329	-0.400246	0.385441
C211	C	0.000036	-1.066021	-0.328266
C212	C	0.333369	-0.732687	0.005068
C213	C	0.666702	-0.399354	0.338401
C214	C	-0.053588	-1.066921	-0.281266
C215	C	0.279746	-0.733588	0.052067
C216	C	0.613079	-0.400255	0.385400
C217	C	-0.107215	-1.066036	-0.328306
C218	C	0.226119	-0.732702	0.005028
C219	C	0.559452	-0.399369	0.338361
C220	C	-0.107211	-1.064244	-0.422342
C221	C	0.226122	-0.730911	-0.089009
C222	C	0.559455	-0.397577	0.244325
C223	C	0.053659	-1.068704	-0.187189
C224	C	0.386992	-0.735371	0.146144
C225	C	0.720325	-0.402038	0.479478
C226	C	-0.053589	-1.068712	-0.187224
C227	C	0.279745	-0.735379	0.146109
C228	C	0.613078	-0.402045	0.479443
C229	C	0.000038	-1.058745	0.289532
C230	C	0.333371	-0.725411	0.622866
C231	C	0.666704	-0.392078	0.956199
C232	C	0.000037	-1.060646	0.389616
C233	C	0.333371	-0.727312	0.722950
C234	C	0.666704	-0.393979	1.056283
H235	H	0.841052	-0.954052	0.235681
H236	H	1.174386	-0.620719	0.569015
H237	H	1.507719	-0.287385	0.902348
H238	H	0.271404	-0.954025	0.235776
H239	H	0.604737	-0.620691	0.569109
H240	H	0.938071	-0.287358	0.902442
H241	H	0.000037	-0.319450	0.269380
H242	H	0.333370	0.013883	0.602713
H243	H	0.666704	0.347216	0.936047
H244	H	-0.150871	-1.063522	-0.460649
H245	H	0.182462	-0.730189	-0.127316
H246	H	0.515795	-0.396855	0.206017
H247	H	0.000050	-0.358073	-0.028572
H248	H	0.333383	-0.024739	0.304761
H249	H	0.666716	0.308594	0.638095
H250	H	0.000031	-0.810799	-0.019971
H251	H	0.333365	-0.477465	0.313362
H252	H	0.666698	-0.144132	0.646696
H253	H	0.150952	-1.066730	-0.289935
H254	H	0.484286	-0.733397	0.043399
H255	H	0.817619	-0.400063	0.376732
H256	H	0.728731	-0.954029	0.235694
H257	H	1.062064	-0.620696	0.569027
H258	H	1.395397	-0.287362	0.902360
H259	H	0.000027	-0.449859	0.354181
H260	H	0.333360	-0.116526	0.687514
H261	H	0.666694	0.216807	1.020848
H262	H	0.000061	-0.509777	-0.108006
H263	H	0.333394	-0.176444	0.225327
H264	H	0.666728	0.156890	0.558661
H265	H	0.097321	-1.069405	-0.148891
H266	H	0.430654	-0.736071	0.184442
H267	H	0.763988	-0.402738	0.517775
H268	H	0.000025	-0.620461	0.357445
H269	H	0.333358	-0.287128	0.690778
H270	H	0.666692	0.046205	1.024112
H271	H	0.000026	-0.772169	0.277999
H272	H	0.333360	-0.438836	0.611332
H273	H	0.666693	-0.105503	0.944666
H274	H	0.556238	-0.892801	0.296913
H275	H	0.889571	-0.559468	0.630246
H276	H	1.222904	-0.226134	0.963579
H277	H	0.443920	-0.892794	0.296927
H278	H	0.777253	-0.559461	0.630260
H279	H	1.110586	-0.226127	0.963594
H280	H	-0.097256	-1.069449	-0.148964
H281	H	0.236077	-0.736116	0.184369
H282	H	0.569410	-0.402783	0.517702
H283	H	0.097317	-1.060797	-0.601612
H284	H	0.430651	-0.727463	-0.268279
H285	H	0.763984	-0.394130	0.065055
H286	H	-0.150875	-1.066762	-0.290026
H287	H	0.182459	-0.733429	0.043308
H288	H	0.515792	-0.400096	0.376641
H289	H	-0.097248	-1.060829	-0.601688
H290	H	0.236085	-0.727495	-0.268355
H291	H	0.569419	-0.394162	0.064978
H292	H	0.159066	-0.954029	0.235787
H293	H	0.492399	-0.620695	0.569121
H294	H	0.825732	-0.287362	0.902454
H295	H	0.271355	-1.176208	0.013721
H296	H	0.604688	-0.842875	0.347054
H297	H	0.938021	-0.509541	0.680388
H298	H	0.159033	-1.176217	0.013755
H299	H	0.492367	-0.842884	0.347088
H300	H	0.825700	-0.509550	0.680422
H301	H	0.150941	-1.063475	-0.460538
H302	H	0.484274	-0.730142	-0.127205
H303	H	0.817607	-0.396808	0.206129
H304	H	0.443856	-1.237423	-0.047518
H305	H	0.777190	-0.904090	0.285815
H306	H	1.110523	-0.570756	0.619148
H307	H	0.556179	-1.237415	-0.047539
H308	H	0.889512	-0.904082	0.285794
H309	H	1.222845	-0.570749	0.619127
H310	H	0.841010	-1.176226	0.013637
H311	H	1.174344	-0.842893	0.346971
H312	H	1.507677	-0.509559	0.680304
H313	H	0.000034	-0.680401	-0.104765
H314	H	0.333368	-0.347067	0.228569
H315	H	0.666701	-0.013734	0.561902
H316	H	0.728673	-1.176231	0.013653
H317	H	1.062006	-0.842897	0.346986
H318	H	1.395340	-0.509564	0.680319
