data_functionalizedCrystal
_audit_creation_method	'MofGen! by Chris Wilmer'
_symmetry_space_group_name_H-M	'P1'
_symmetry_Int_Tables_number	1
_symmetry_cell_setting	triclinic
loop_
_symmetry_equiv_pos_as_xyz
  x,y,z
_cell_length_a	14.519709
_cell_length_b	17.699083
_cell_length_c	16.176319
_cell_angle_alpha	90.007696
_cell_angle_beta	90.001796
_cell_angle_gamma	83.481580
loop_
_atom_site_label
_atom_site_type_symbol
_atom_site_fract_x
_atom_site_fract_y
_atom_site_fract_z
O1	O	-1.223449	-0.099215	-0.068641
O2	O	-0.954923	-0.110899	-0.068666
O3	O	-1.096773	0.005110	-0.068645
O4	O	-1.081600	-0.215225	-0.068661
O5	O	-1.096753	0.005118	0.068848
O6	O	-0.954903	-0.110892	0.068827
O7	O	-1.223430	-0.099208	0.068853
Cu8	Cu	-1.089165	-0.105049	0.081394
Cu9	Cu	-1.089188	-0.105058	-0.081208
O10	O	-1.081580	-0.215217	0.068832
C11	C	-0.920556	-0.110351	0.000077
C12	C	-0.818181	-0.108719	0.000068
C13	C	-1.096219	0.033312	0.000101
C14	C	-1.094588	0.117335	0.000101
C15	C	-1.257797	-0.099756	0.000107
C16	C	-1.360171	-0.101388	0.000111
C17	C	-0.443311	-0.102712	0.000106
C18	C	-0.547612	-0.104380	0.000095
C19	C	-0.630743	-0.105716	0.000086
C20	C	-0.735050	-0.107384	0.000077
C21	C	-1.082134	-0.243420	0.000083
C22	C	-1.083765	-0.327442	0.000078
N23	N	-1.089155	-0.105043	0.195759
C24	C	-1.177851	0.165718	0.000111
C25	C	-1.176313	0.244665	0.000103
C26	C	-1.091511	0.275229	0.000093
C27	C	-1.008242	0.226840	0.000081
C28	C	-1.009781	0.147894	0.000082
C29	C	-1.002033	0.545221	0.000074
C30	C	-1.000501	0.624173	0.000075
C31	C	-1.168566	0.641992	0.000094
C32	C	-1.170105	0.563046	0.000096
C33	C	-1.086836	0.514664	0.000080
C34	C	-1.088505	0.429060	0.000086
C35	C	-1.089841	0.360831	0.000092
N36	N	-1.089205	-0.105059	-0.195573
C37	C	-1.151985	-0.053695	0.239033
C38	C	-1.151990	-0.053694	0.325580
C39	C	-1.089168	-0.105045	0.368852
C40	C	-1.026332	-0.156396	0.325572
C41	C	-1.026323	-0.156392	0.239027
C42	C	-1.026363	-0.156410	0.674601
C43	C	-1.026378	-0.156411	0.761152
C44	C	-1.152030	-0.053712	0.761154
C45	C	-1.152022	-0.053708	0.674608
C46	C	-1.089182	-0.105055	0.631336
C47	C	-1.089177	-0.105055	0.537492
C48	C	-1.089178	-0.105050	0.462694
H49	H	-1.246907	0.140840	0.000124
C50	C	-0.958298	-0.212207	0.627527
C51	C	-1.007313	-0.258615	0.577814
C52	C	-0.944642	-0.310025	0.534428
H53	H	-0.920868	-0.242864	0.665605
H54	H	-0.919973	-0.184939	0.593725
H55	H	-1.045621	-0.285881	0.611612
H56	H	-1.044739	-0.227979	0.539721
H57	H	-0.906317	-0.282756	0.500627
H58	H	-0.907216	-0.340676	0.572512
H59	H	-0.977889	-0.341514	0.500688
C60	C	-1.266814	0.297069	0.000162
C61	C	-1.341408	0.253406	0.000200
C62	C	-1.424795	0.301654	0.000266
H63	H	-1.269853	0.328248	-0.047772
H64	H	-1.269745	0.328231	0.048128
H65	H	-1.338478	0.222257	-0.047761
H66	H	-1.338399	0.222229	0.048131
H67	H	-1.427726	0.332816	0.048232
H68	H	-1.427824	0.332830	-0.047669
H69	H	-1.475417	0.272035	0.000300
H70	H	-1.239159	0.538166	0.000109
H71	H	-1.236367	0.681395	0.000103
C72	C	-1.220120	0.002233	0.627752
C73	C	-1.205232	0.076592	0.648902
C74	C	-1.267937	0.128177	0.605785
H75	H	-1.281690	-0.005976	0.641915
H76	H	-1.211171	-0.005000	0.569988
H77	H	-1.214189	0.083822	0.706654
H78	H	-1.143675	0.084825	0.634737
H79	H	-1.258988	0.120945	0.548020
H80	H	-1.329502	0.119962	0.619951
H81	H	-1.257838	0.178636	0.620123
H82	H	-1.203146	-0.011882	0.203806
C83	C	-0.911656	0.492666	-0.000108
C84	C	-0.907621	0.446830	-0.070858
C85	C	-0.824369	0.398411	-0.071059
H86	H	-0.908661	0.461430	0.047781
H87	H	-0.860910	0.522154	-0.000156
H88	H	-0.958353	0.417344	-0.070802
H89	H	-0.910601	0.478044	-0.118759
H90	H	-0.773623	0.427899	-0.071107
H91	H	-0.821381	0.367181	-0.023167
H92	H	-0.821617	0.367311	-0.119065
C93	C	-0.916143	0.259980	-0.000103
C94	C	-0.865841	0.235409	-0.070858
C95	C	-0.780999	0.265928	-0.071059
H96	H	-0.881746	0.243406	0.047783
H97	H	-0.927112	0.313930	-0.000146
H98	H	-0.854869	0.181470	-0.070808
H99	H	-0.900210	0.251981	-0.118755
H100	H	-0.791969	0.319878	-0.071102
H101	H	-0.746611	0.249352	-0.023170
H102	H	-0.746863	0.249267	-0.119069
C103	C	-0.908330	0.657212	0.000013
C104	C	-0.835735	0.597944	-0.000025
C105	C	-0.750821	0.628351	-0.000093
H106	H	-0.904094	0.687632	0.047946
H107	H	-0.904204	0.687613	-0.047954
H108	H	-0.839859	0.567556	0.047937
H109	H	-0.839941	0.567519	-0.047955
H110	H	-0.746695	0.658752	-0.048059
H111	H	-0.746594	0.658771	0.047841
H112	H	-0.701555	0.588143	-0.000126
H113	H	-0.975177	-0.198204	0.360810
H114	H	-1.203150	-0.011882	0.360813
H115	H	-0.975160	-0.198204	0.203795
H116	H	-0.941980	0.108501	0.000075
C117	C	-1.220396	0.001962	0.808090
C118	C	-1.310985	-0.010492	0.787043
C119	C	-1.373987	0.040772	0.830269
H120	H	-1.210620	0.052526	0.793947
H121	H	-1.211469	-0.005390	0.865839
H122	H	-1.319909	-0.003133	0.729306
H123	H	-1.320791	-0.061045	0.801188
H124	H	-1.365059	0.033419	0.888018
H125	H	-1.364202	0.091332	0.816122
H126	H	-1.435458	0.032324	0.816000
H127	H	-0.975218	-0.198229	0.796383
