data_functionalizedCrystal
_audit_creation_method	'MofGen! by Chris Wilmer'
_symmetry_space_group_name_H-M	'P1'
_symmetry_Int_Tables_number	1
_symmetry_cell_setting	triclinic
loop_
_symmetry_equiv_pos_as_xyz
  x,y,z
_cell_length_a	10.654562
_cell_length_b	9.065215
_cell_length_c	8.140239
_cell_angle_alpha	89.997785
_cell_angle_beta	89.995712
_cell_angle_gamma	84.752401
loop_
_atom_site_label
_atom_site_type_symbol
_atom_site_fract_x
_atom_site_fract_y
_atom_site_fract_z
O1	O	1.668646	0.207322	-0.136718
O2	O	2.168646	0.707322	0.363282
O3	O	1.303247	0.227046	-0.136697
O4	O	1.803247	0.727046	0.363303
O5	O	1.493501	0.002500	-0.136701
O6	O	1.993501	0.502500	0.363299
O7	O	1.478392	0.431867	-0.136714
O8	O	1.978392	0.931867	0.363286
O9	O	1.493495	0.002499	0.136526
O10	O	1.993495	0.502499	0.636526
O11	O	1.303241	0.227044	0.136530
O12	O	1.803241	0.727044	0.636530
O13	O	1.668640	0.207320	0.136509
O14	O	2.168640	0.707320	0.636509
Zn15	Zn	1.485940	0.217182	0.179900
Zn16	Zn	1.985940	0.717182	0.679900
Zn17	Zn	1.485948	0.217184	-0.180088
Zn18	Zn	1.985948	0.717184	0.319912
O19	O	1.478386	0.431866	0.136513
O20	O	1.978386	0.931866	0.636513
C21	C	1.256441	0.225593	-0.000081
C22	C	1.756441	0.725593	0.499919
C23	C	1.116981	0.221248	-0.000073
C24	C	1.616981	0.721248	0.499927
C25	C	1.051439	0.219221	0.148850
C26	C	1.551439	0.719221	0.648850
C27	C	0.920401	0.215150	0.148823
C28	C	1.420401	0.715150	0.648823
C29	C	0.920458	0.215141	-0.149064
C30	C	1.420458	0.715141	0.350936
C31	C	1.051495	0.219201	-0.149035
C32	C	1.551495	0.719201	0.350965
C33	C	1.051405	0.219233	0.320833
C34	C	1.551405	0.719233	0.820833
C35	C	0.920366	0.215162	0.320806
C36	C	1.420366	0.715162	0.820806
C37	C	1.492047	-0.052479	-0.000089
C38	C	1.992047	0.447521	0.499911
C39	C	1.487708	-0.216299	-0.000094
C40	C	1.987708	0.283701	0.499906
C41	C	1.715446	0.208773	-0.000111
C42	C	2.215446	0.708773	0.499889
C43	C	1.854906	0.213118	-0.000129
C44	C	2.354906	0.713118	0.499871
C45	C	1.479840	0.486845	-0.000103
C46	C	1.979840	0.986845	0.499897
C47	C	1.484180	0.650665	-0.000109
C48	C	1.984180	1.150665	0.499891
N49	N	1.485943	0.217180	0.425583
N50	N	1.985943	0.717180	0.925583
N51	N	1.485954	0.217175	-0.425771
N52	N	1.985954	0.717175	0.074229
H53	H	0.867122	0.213474	-0.270344
H54	H	1.367122	0.713474	0.229656
C55	C	0.858352	0.353129	0.409580
C56	C	1.358352	0.853129	0.909580
N57	N	0.811636	0.457120	0.476294
N58	N	1.311636	0.957120	0.976294
C59	C	0.879810	0.069805	0.392931
C60	C	1.379810	0.569805	0.892931
N61	N	0.849261	-0.039674	0.447259
N62	N	1.349261	0.460326	0.947259
C63	C	1.123590	0.221395	-0.312862
C64	C	1.623590	0.721395	0.187138
N65	N	1.177892	0.223042	-0.436263
N66	N	1.677892	0.723042	0.063737
C67	C	1.113359	0.081479	0.410051
C68	C	1.613359	0.581479	0.910051
N69	N	1.160023	-0.022277	0.477245
N70	N	1.660023	0.477723	0.977245
C71	C	1.091939	0.364595	0.392939
C72	C	1.591939	0.864595	0.892939
N73	N	1.122469	0.474083	0.447251
N74	N	1.622469	0.974083	0.947251
