data_functionalizedCrystal
_audit_creation_method	'MofGen! by Chris Wilmer'
_symmetry_space_group_name_H-M	'P1'
_symmetry_Int_Tables_number	1
_symmetry_cell_setting	triclinic
loop_
_symmetry_equiv_pos_as_xyz
  x,y,z
_cell_length_a	19.805407
_cell_length_b	12.759400
_cell_length_c	19.805399
_cell_angle_alpha	89.975356
_cell_angle_beta	89.983114
_cell_angle_gamma	90.014685
loop_
_atom_site_label
_atom_site_type_symbol
_atom_site_fract_x
_atom_site_fract_y
_atom_site_fract_z
Zn1	Zn	1.034773	-0.418276	-0.382740
Zn2	Zn	1.534773	0.081724	0.117260
Zn3	Zn	1.034716	-0.593974	-0.269560
Zn4	Zn	1.534716	-0.093974	0.230440
Zn5	Zn	0.921593	-0.418309	-0.269565
Zn6	Zn	1.421593	0.081691	0.230435
Zn7	Zn	0.921574	-0.593914	-0.382707
Zn8	Zn	1.421574	-0.093914	0.117293
O9	O	0.978164	-0.506118	-0.326143
O10	O	1.478164	-0.006118	0.173857
O11	O	1.129482	-0.441594	-0.367739
O12	O	1.629482	0.058406	0.132261
O13	O	1.019694	-0.570711	-0.174844
O14	O	1.519694	-0.070711	0.325156
O15	O	0.936638	-0.271284	-0.284593
O16	O	1.436638	0.228716	0.215407
O17	O	1.129440	-0.570678	-0.284586
O18	O	1.629440	-0.070678	0.215414
O19	O	1.019791	-0.271259	-0.367743
O20	O	1.519791	0.228741	0.132257
O21	O	0.936583	-0.441651	-0.174848
O22	O	1.436583	0.058349	0.325152
O23	O	0.826874	-0.441592	-0.284561
O24	O	1.326874	0.058408	0.215439
O25	O	0.936606	-0.570576	-0.477428
O26	O	1.436606	-0.070576	0.022572
O27	O	0.826860	-0.570608	-0.367687
O28	O	1.326860	-0.070608	0.132313
O29	O	1.019773	-0.441536	-0.477452
O30	O	1.519773	0.058464	0.022548
O31	O	1.019676	-0.740987	-0.284554
O32	O	1.519676	-0.240987	0.215446
O33	O	0.936551	-0.740943	-0.367682
O34	O	1.436551	-0.240943	0.132318
C35	C	0.802308	-0.506098	-0.326121
C36	C	1.302308	-0.006098	0.173879
C37	C	0.727076	-0.506115	-0.326128
C38	C	1.227076	-0.006115	0.173872
C39	C	0.978124	-0.779086	-0.326129
C40	C	1.478124	-0.279086	0.173871
C41	C	0.978169	-0.895862	-0.326146
C42	C	1.478169	-0.395862	0.173854
C43	C	0.691742	-0.573394	-0.369341
C44	C	1.191742	-0.073394	0.130659
C45	C	0.621054	-0.573396	-0.369351
C46	C	1.121054	-0.073396	0.130649
C47	C	0.585700	-0.506123	-0.326143
C48	C	1.085700	-0.006123	0.173857
C49	C	0.621039	-0.438836	-0.282928
C50	C	1.121039	0.061164	0.217072
C51	C	0.691726	-0.438830	-0.282922
C52	C	1.191726	0.061170	0.217078
C53	C	0.335966	-0.438859	-0.282950
C54	C	0.835966	0.061141	0.217050
C55	C	0.265274	-0.438873	-0.282958
C56	C	0.765274	0.061127	0.217042
C57	C	0.265294	-0.573426	-0.369379
C58	C	0.765294	-0.073426	0.130621
C59	C	0.335981	-0.573419	-0.369373
C60	C	0.835981	-0.073419	0.130627
C61	C	0.371313	-0.506129	-0.326161
C62	C	0.871313	-0.006129	0.173839
C63	C	0.447961	-0.506126	-0.326152
C64	C	0.947961	-0.006126	0.173848
C65	C	0.509053	-0.506130	-0.326148
C66	C	1.009053	-0.006130	0.173852
C67	C	1.021500	-0.950712	-0.282908
C68	C	1.521500	-0.450712	0.217092
C69	C	1.021541	-1.060436	-0.282929
C70	C	1.521541	-0.560436	0.217071
C71	C	0.934915	-1.060450	-0.369426
C72	C	1.434915	-0.560450	0.130574
C73	C	0.934877	-0.950728	-0.369408
C74	C	1.434877	-0.450728	0.130592
C75	C	1.064791	-0.895846	-0.239646
C76	C	1.564791	-0.395846	0.260354
C77	C	1.108125	-0.950696	-0.196404
C78	C	1.608125	-0.450696	0.303596
C79	C	1.108167	-1.060420	-0.196425
C80	C	1.608167	-0.560420	0.303575
C81	C	1.064874	-1.115294	-0.239687
C82	C	1.564874	-0.615294	0.260313
C83	C	1.154707	-0.506139	-0.326165
C84	C	1.654707	-0.006139	0.173835
C85	C	1.229939	-0.506148	-0.326175
C86	C	1.729939	-0.006148	0.173825
C87	C	0.978194	-0.506045	-0.502686
C88	C	1.478194	-0.006045	-0.002686
C89	C	0.978206	-0.506014	-0.577918
C90	C	1.478206	-0.006014	-0.077918
C91	C	0.978223	-0.232085	-0.326172
C92	C	1.478223	0.267915	0.173828
C93	C	0.978248	-0.115308	-0.326184
C94	C	1.478248	0.384692	0.173816
C95	C	0.934943	-0.438806	-0.613263
C96	C	1.434943	0.061194	-0.113263
C97	C	0.934952	-0.438786	-0.683952
C98	C	1.434952	0.061214	-0.183952
C99	C	0.978229	-0.505969	-0.719294
C100	C	1.478229	-0.005969	-0.219294
C101	C	1.021495	-0.573184	-0.683943
C102	C	1.521495	-0.073184	-0.183943
C103	C	1.021481	-0.573209	-0.613256
C104	C	1.521481	-0.073209	-0.113256
C105	C	1.021548	-0.573086	-0.969017
C106	C	1.521548	-0.073086	-0.469017
C107	C	1.021560	-0.573053	-1.039709
C108	C	1.521560	-0.073053	-0.539709
C109	C	0.935019	-0.438663	-1.039712
C110	C	1.435019	0.061337	-0.539712
C111	C	0.935006	-0.438688	-0.969025
C112	C	1.435006	0.061312	-0.469025
C113	C	0.978268	-0.505906	-0.933681
C114	C	1.478268	-0.005906	-0.433681
C115	C	0.978257	-0.505929	-0.857033
C116	C	1.478257	-0.005929	-0.357033
C117	C	0.978244	-0.505941	-0.795941
C118	C	1.478244	-0.005941	-0.295941
C119	C	0.978173	-0.506115	-0.150287
C120	C	1.478173	-0.006115	0.349713
C121	C	0.978292	-0.505850	-0.075055
C122	C	1.478292	-0.005850	0.424945
H123	H	0.720522	-0.628180	-0.404524
H124	H	1.220522	-0.128180	0.095476
H125	H	1.143377	-0.906012	-0.161186
H126	H	1.643377	-0.406012	0.338814
C127	C	0.226429	-0.647400	-0.416944
C128	C	0.726429	-0.147400	0.083056
H129	H	0.257610	-0.687460	-0.442677
H130	H	0.757610	-0.187460	0.057323
H131	H	0.198884	-0.607240	-0.446476
H132	H	0.698884	-0.107240	0.053524
H133	H	0.198826	-0.693144	-0.391023
H134	H	0.698826	-0.193144	0.108977
H135	H	1.143456	-1.105076	-0.161221
H136	H	1.643456	-0.605076	0.338779
C137	C	1.064924	-1.235988	-0.239713
C138	C	1.564924	-0.735988	0.260287
H139	H	1.096930	-1.260799	-0.207765
H140	H	1.596930	-0.760799	0.292235
H141	H	1.076608	-1.260745	-0.283407
H142	H	1.576608	-0.760745	0.216593
H143	H	1.021260	-1.260879	-0.227967
H144	H	1.521260	-0.760879	0.272033
H145	H	0.592248	-0.384056	-0.247750
H146	H	1.092248	0.115944	0.252250
H147	H	1.064760	-0.806503	-0.239622
H148	H	1.564760	-0.306503	0.260378
C149	C	0.887292	-1.120809	-0.417004
C150	C	1.387292	-0.620809	0.082996
H151	H	0.893516	-1.194011	-0.410817
H152	H	1.393516	-0.694011	0.089183
H153	H	0.897160	-1.102770	-0.462489
H154	H	1.397160	-0.602770	0.037511
H155	H	0.841813	-1.102892	-0.407047
H156	H	1.341813	-0.602892	0.092953
C157	C	0.887217	-0.890389	-0.416971
C158	C	1.387217	-0.390389	0.083029
H159	H	0.861434	-0.938778	-0.442734
H160	H	1.361434	-0.438778	0.057266
H161	H	0.913081	-0.847527	-0.446476
H162	H	1.413081	-0.347527	0.053524
H163	H	0.857724	-0.847647	-0.391045
H164	H	1.357724	-0.347647	0.108955
H165	H	0.899705	-0.384092	-0.584493
H166	H	1.399705	0.115908	-0.084493
C167	C	1.069162	-0.646960	-1.078587
C168	C	1.569162	-0.146960	-0.578587
H169	H	1.062978	-0.637307	-1.125748
H170	H	1.562978	-0.137307	-0.625748
H171	H	1.059237	-0.717554	-1.066997
H172	H	1.559237	-0.217554	-0.566997
H173	H	1.114644	-0.631593	-1.067010
H174	H	1.614644	-0.131593	-0.567010
C175	C	0.887366	-0.364851	-0.722829
C176	C	1.387366	0.135149	-0.222829
H177	H	0.861597	-0.324833	-0.691656
H178	H	1.361597	0.175167	-0.191656
H179	H	0.857868	-0.405020	-0.750396
H180	H	1.357868	0.094980	-0.250396
H181	H	0.913280	-0.319068	-0.750412
H182	H	1.413280	0.180932	-0.250412
H183	H	1.056768	-0.627831	-0.940248
H184	H	1.556768	-0.127831	-0.440248
C185	C	0.374822	-0.364861	-0.235407
C186	C	0.874822	0.135139	0.264593
H187	H	0.343641	-0.324811	-0.209669
H188	H	0.843641	0.175189	0.290331
H189	H	0.402416	-0.319126	-0.261338
H190	H	0.902416	0.180874	0.238662
H191	H	0.402377	-0.405005	-0.205868
H192	H	0.902377	0.094995	0.294132
H193	H	0.720494	-0.384038	-0.247737
H194	H	1.220494	0.115962	0.252263
H195	H	0.364762	-0.628204	-0.404555
H196	H	0.864762	-0.128204	0.095445
C197	C	0.887399	-0.364791	-0.930153
C198	C	1.387399	0.135209	-0.430153
H199	H	0.861628	-0.324768	-0.961328
H200	H	1.361628	0.175232	-0.461328
H201	H	0.913292	-0.319027	-0.902584
H202	H	1.413292	0.180973	-0.402584
H203	H	0.857893	-0.404999	-0.902572
H204	H	1.357893	0.095001	-0.402572
C205	C	1.069099	-0.647082	-0.722817
C206	C	1.569099	-0.147082	-0.222817
H207	H	1.062917	-0.637435	-0.769979
H208	H	1.562917	-0.137435	-0.269979
H209	H	1.059178	-0.717676	-0.711225
H210	H	1.559178	-0.217676	-0.211225
H211	H	1.114579	-0.631707	-0.711238
H212	H	1.614579	-0.131707	-0.211238
H213	H	0.899790	-0.383933	-1.068498
H214	H	1.399790	0.116067	-0.568498
H215	H	1.056716	-0.627929	-0.584479
H216	H	1.556716	-0.127929	-0.084479
C217	C	0.226386	-0.364861	-0.235433
C218	C	0.726386	0.135139	0.264567
H219	H	0.257552	-0.324775	-0.209701
H220	H	0.757552	0.175225	0.290299
H221	H	0.198794	-0.404989	-0.205897
H222	H	0.698794	0.095011	0.294103
H223	H	0.198827	-0.319143	-0.261387
H224	H	0.698827	0.180857	0.238613
C225	C	0.582190	-0.647468	-0.416844
C226	C	1.082190	-0.147468	0.083156
H227	H	0.613369	-0.687560	-0.442557
H228	H	1.113369	-0.187560	0.057443
H229	H	0.554611	-0.607402	-0.446398
H230	H	1.054611	-0.107402	0.053602
H231	H	0.554620	-0.693176	-0.390861
H232	H	1.054620	-0.193176	0.109139
