data_functionalizedCrystal
_audit_creation_method	'MofGen! by Chris Wilmer'
_symmetry_space_group_name_H-M	'P1'
_symmetry_Int_Tables_number	1
_symmetry_cell_setting	triclinic
loop_
_symmetry_equiv_pos_as_xyz
  x,y,z
_cell_length_a	16.109293
_cell_length_b	16.109301
_cell_length_c	15.186229
_cell_angle_alpha	90.000894
_cell_angle_beta	90.006769
_cell_angle_gamma	96.540124
loop_
_atom_site_label
_atom_site_type_symbol
_atom_site_fract_x
_atom_site_fract_y
_atom_site_fract_z
O1	O	-1.103135	0.106835	-0.073289
O2	O	-0.769801	0.440168	0.260044
O3	O	-0.436468	0.773502	0.593378
O4	O	-0.861072	0.120141	-0.073274
O5	O	-0.527739	0.453474	0.260059
O6	O	-0.194405	0.786808	0.593392
O7	O	-0.988753	-0.007543	-0.073287
O8	O	-0.655420	0.325790	0.260047
O9	O	-0.322086	0.659124	0.593380
O10	O	-0.975454	0.234519	-0.073277
O11	O	-0.642120	0.567853	0.260057
O12	O	-0.308787	0.901186	0.593390
O13	O	-0.988744	-0.007545	0.073171
O14	O	-0.655411	0.325788	0.406504
O15	O	-0.322078	0.659122	0.739837
O16	O	-0.861063	0.120139	0.073183
O17	O	-0.527730	0.453473	0.406516
O18	O	-0.194397	0.786806	0.739850
O19	O	-1.103126	0.106833	0.073168
O20	O	-0.769793	0.440166	0.406502
O21	O	-0.436460	0.773500	0.739835
Zn22	Zn	-0.982093	0.113486	0.096429
Zn23	Zn	-0.648760	0.446819	0.429762
Zn24	Zn	-0.315427	0.780153	0.763096
Zn25	Zn	-0.982105	0.113488	-0.096535
Zn26	Zn	-0.648771	0.446822	0.236798
Zn27	Zn	-0.315438	0.780155	0.570132
O28	O	-0.975445	0.234517	0.073181
O29	O	-0.642112	0.567851	0.406514
O30	O	-0.308778	0.901184	0.739847
C31	C	-0.830093	0.119602	-0.000044
C32	C	-0.496759	0.452936	0.333289
C33	C	-0.163426	0.786269	0.666623
C34	C	-0.737797	0.117990	-0.000039
C35	C	-0.404464	0.451323	0.333294
C36	C	-0.071130	0.784657	0.666628
C37	C	-0.525451	0.114260	0.079792
C38	C	-0.192117	0.447594	0.413125
C39	C	0.141216	0.780927	0.746459
C40	C	-0.438730	0.112736	0.079791
C41	C	-0.105397	0.446070	0.413125
C42	C	0.227937	0.779403	0.746458
C43	C	-0.438750	0.112742	-0.079885
C44	C	-0.105417	0.446076	0.253449
C45	C	0.227917	0.779409	0.586782
C46	C	-0.525469	0.114260	-0.079883
C47	C	-0.192136	0.447594	0.253450
C48	C	0.141197	0.780927	0.586784
C49	C	-0.568817	0.115024	-0.000042
C50	C	-0.235484	0.448357	0.333291
C51	C	0.097850	0.781690	0.666625
C52	C	-0.395377	0.111981	-0.000044
C53	C	-0.062044	0.445315	0.333289
C54	C	0.271290	0.778648	0.666622
C55	C	-0.301351	0.110329	-0.000046
C56	C	0.031982	0.443662	0.333287
C57	C	0.365316	0.776996	0.666621
C58	C	-0.662849	0.116675	-0.000040
C59	C	-0.329516	0.450008	0.333293
C60	C	0.003817	0.783341	0.666626
C61	C	-0.988210	-0.038519	-0.000061
C62	C	-0.654877	0.294814	0.333272
C63	C	-0.321543	0.628148	0.666606
C64	C	-0.986595	-0.130814	-0.000070
C65	C	-0.653262	0.202519	0.333263
C66	C	-0.319928	0.535852	0.666597
C67	C	-0.134104	0.107380	-0.000057
C68	C	0.199229	0.440713	0.333276
C69	C	0.532562	0.774046	0.666610
C70	C	-0.226397	0.109015	-0.000048
C71	C	0.106936	0.442349	0.333286
C72	C	0.440270	0.775682	0.666619
C73	C	-0.975988	0.265493	-0.000047
C74	C	-0.642655	0.598826	0.333286
C75	C	-0.309321	0.932160	0.666620
C76	C	-0.977603	0.357788	-0.000044
C77	C	-0.644270	0.691122	0.333290
C78	C	-0.310936	1.024455	0.666623
N79	N	-0.982092	0.113484	0.228122
N80	N	-0.648758	0.446817	0.561455
N81	N	-0.315425	0.780150	0.894788
C82	C	-0.905595	0.580063	-0.000052
C83	C	-0.572262	0.913396	0.333281
C84	C	-0.238929	1.246730	0.666615
C85	C	-0.907119	0.666783	-0.000059
C86	C	-0.573786	1.000117	0.333274
C87	C	-0.240453	1.333450	0.666608
C88	C	-1.058609	0.646905	-0.000064
C89	C	-0.725275	0.980238	0.333269
C90	C	-0.391942	1.313571	0.666602
C91	C	-1.057084	0.560186	-0.000064
C92	C	-0.723750	0.893519	0.333270
C93	C	-0.390417	1.226853	0.666603
C94	C	-0.980575	0.526768	-0.000053
C95	C	-0.647241	0.860101	0.333280
C96	C	-0.313908	1.193434	0.666613
C97	C	-0.983624	0.700207	-0.000060
C98	C	-0.650290	1.033540	0.333273
C99	C	-0.316957	1.366873	0.666606
C100	C	-0.985277	0.794233	-0.000068
C101	C	-0.651943	1.127566	0.333266
C102	C	-0.318610	1.460899	0.666599
C103	C	-0.978921	0.432736	-0.000048
C104	C	-0.645588	0.766069	0.333286
C105	C	-0.312254	1.099402	0.666619
N106	N	-0.982113	0.113484	-0.228228
N107	N	-0.648779	0.446817	0.105106
N108	N	-0.315446	0.780151	0.438439
C109	C	-1.038648	0.056964	0.453839
C110	C	-0.705315	0.390298	0.787172
C111	C	-0.371982	0.723631	1.120506
C112	C	-1.038651	0.056962	0.546029
C113	C	-0.705318	0.390296	0.879362
C114	C	-0.371984	0.723629	1.212695
C115	C	-0.925550	0.170006	0.546049
C116	C	-0.592217	0.503339	0.879382
C117	C	-0.258884	0.836673	1.212715
C118	C	-0.925544	0.170003	0.453861
C119	C	-0.592211	0.503337	0.787194
C120	C	-0.258878	0.836670	1.120527
C121	C	-0.982098	0.113483	0.407758
C122	C	-0.648765	0.446817	0.741092
C123	C	-0.315431	0.780150	1.074425
C124	C	-0.982107	0.113484	0.592136
C125	C	-0.648773	0.446818	0.925469
C126	C	-0.315440	0.780151	1.258802
C127	C	-0.982109	0.113482	0.692092
C128	C	-0.648776	0.446816	1.025425
C129	C	-0.315442	0.780149	1.358759
C130	C	-0.982095	0.113484	0.307796
C131	C	-0.648761	0.446817	0.641129
C132	C	-0.315428	0.780151	0.974462
H133	H	-0.560742	0.114882	0.144804
H134	H	-0.227408	0.448215	0.478137
H135	H	0.105925	0.781548	0.811470
N136	N	-0.572244	0.115077	-0.165998
N137	N	-0.238911	0.448410	0.167335
N138	N	0.094422	0.781743	0.500669
H139	H	-0.550406	0.166321	-0.200901
H140	H	-0.217073	0.499655	0.132432
H141	H	0.116261	0.832988	0.465766
H142	H	-0.633748	0.116117	-0.153811
H143	H	-0.300415	0.449450	0.179522
H144	H	0.032918	0.782784	0.512855
H145	H	-0.846063	0.710173	-0.000059
H146	H	-0.512730	1.043507	0.333274
H147	H	-0.179397	1.376840	0.666607
H148	H	-1.084698	0.010938	0.583545
H149	H	-0.751365	0.344272	0.916878
H150	H	-0.418031	0.677605	1.250212
N151	N	-0.864541	0.230959	0.404151
N152	N	-0.531208	0.564293	0.737484
N153	N	-0.197875	0.897626	1.070818
H154	H	-0.828719	0.266768	0.447344
H155	H	-0.495385	0.600101	0.780677
H156	H	-0.162052	0.933435	1.114010
H157	H	-0.896353	0.267722	0.365890
H158	H	-0.563019	0.601056	0.699224
H159	H	-0.229686	0.934389	1.032557
H160	H	-0.879507	0.216025	0.583594
H161	H	-0.546173	0.549358	0.916928
H162	H	-0.212840	0.882691	1.250261
H163	H	-0.403446	0.112122	-0.144888
H164	H	-0.070112	0.445455	0.188445
H165	H	0.263221	0.778789	0.521778
N166	N	-0.391956	0.111909	0.165898
N167	N	-0.058623	0.445242	0.499231
N168	N	0.274710	0.778575	0.832564
H169	H	-0.432654	0.112037	0.216471
H170	H	-0.099320	0.445370	0.549804
H171	H	0.234013	0.778703	0.883137
H172	H	-0.349616	0.163084	0.169648
H173	H	-0.016282	0.496418	0.502981
H174	H	0.317051	0.829751	0.836314
N175	N	-1.141126	0.682949	-0.000057
N176	N	-0.807792	1.016282	0.333276
N177	N	-0.474459	1.349616	0.666609
H178	H	-1.130716	0.745972	-0.000050
H179	H	-0.797383	1.079306	0.333284
H180	H	-0.464049	1.412639	0.666617
H181	H	-1.173919	0.663446	0.054240
H182	H	-0.840586	0.996779	0.387574
H183	H	-0.507252	1.330113	0.720907
N184	N	-0.823079	0.544016	-0.000040
N185	N	-0.489746	0.877350	0.333294
N186	N	-0.156412	1.210683	0.666627
H187	H	-0.775812	0.590941	-0.000041
H188	H	-0.442479	0.924274	0.333293
H189	H	-0.109145	1.257608	0.666626
H190	H	-0.819150	0.508466	-0.054331
H191	H	-0.485816	0.841799	0.279002
H192	H	-0.152483	1.175132	0.612335
N193	N	-1.137958	0.502695	-0.000068
N194	N	-0.804624	0.836028	0.333265
N195	N	-0.471291	1.169362	0.666599
H196	H	-1.186657	0.537023	-0.000068
H197	H	-0.853324	0.870356	0.333266
H198	H	-0.519991	1.203689	0.666599
H199	H	-1.140617	0.466283	0.054225
H200	H	-0.807284	0.799616	0.387558
H201	H	-0.473951	1.132950	0.720892
H202	H	-1.084696	0.010941	0.416305
H203	H	-0.751363	0.344274	0.749638
H204	H	-0.418030	0.677608	1.082971
