data_functionalizedCrystal
_audit_creation_method	'MofGen! by Chris Wilmer'
_symmetry_space_group_name_H-M	'P1'
_symmetry_Int_Tables_number	1
_symmetry_cell_setting	triclinic
loop_
_symmetry_equiv_pos_as_xyz
  x,y,z
_cell_length_a	14.971486
_cell_length_b	9.730217
_cell_length_c	14.971486
_cell_angle_alpha	89.994685
_cell_angle_beta	96.385871
_cell_angle_gamma	89.998766
loop_
_atom_site_label
_atom_site_type_symbol
_atom_site_fract_x
_atom_site_fract_y
_atom_site_fract_z
O1	O	1.186944	0.114133	-0.116563
O2	O	0.926543	0.114170	-0.130522
O3	O	1.063723	0.114141	0.006657
O4	O	1.049764	0.114162	-0.253743
O5	O	1.063713	-0.114440	0.006663
O6	O	0.926534	-0.114410	-0.130517
O7	O	1.186934	-0.114448	-0.116558
Zn8	Zn	1.056732	-0.150721	-0.123536
Zn9	Zn	1.056745	0.150443	-0.123544
O10	O	1.049754	-0.114418	-0.253737
C11	C	0.893214	-0.000115	-0.129895
C12	C	0.793917	-0.000101	-0.128024
N13	N	1.056730	-0.356257	-0.123531
C14	C	0.736692	-0.000096	-0.208614
C15	C	0.643392	-0.000117	-0.206850
C16	C	0.607320	-0.000133	-0.124497
C17	C	0.664552	-0.000141	-0.043902
C18	C	0.757850	-0.000131	-0.045666
C19	C	0.470090	-0.000161	-0.040231
C20	C	0.376786	-0.000169	-0.038466
C21	C	0.355632	-0.000147	-0.201415
C22	C	0.448930	-0.000136	-0.203179
C23	C	0.506156	-0.000143	-0.122584
C24	C	0.948135	-0.356306	-0.014842
C25	C	0.893847	-0.428271	0.039505
C26	C	0.893860	-0.572151	0.039505
C27	C	0.948165	-0.644069	-0.014849
C28	C	1.002453	-0.572105	-0.069196
C29	C	1.002436	-0.428222	-0.069188
C30	C	1.111042	-0.572056	-0.177888
C31	C	1.111035	-0.428176	-0.177885
C32	C	1.165347	-0.643974	-0.232243
C33	C	1.219641	-0.572010	-0.286586
C34	C	1.219626	-0.428121	-0.286583
C35	C	1.165323	-0.356212	-0.232232
C36	C	1.220263	-0.000159	-0.117185
C37	C	1.319561	-0.000164	-0.119056
C38	C	1.063094	-0.000149	0.039985
C39	C	1.061223	-0.000148	0.139282
N40	N	1.056754	0.355980	-0.123542
C41	C	1.050384	-0.000125	-0.287065
C42	C	1.052254	-0.000118	-0.386362
C43	C	1.141812	-0.000160	0.196507
C44	C	1.140049	-0.000146	0.289807
C45	C	1.057696	-0.000129	0.325879
C46	C	0.977101	-0.000112	0.268646
C47	C	0.978865	-0.000117	0.175349
C48	C	0.973430	-0.000107	0.463109
C49	C	0.971665	-0.000105	0.556413
C50	C	1.134614	-0.000136	0.577567
C51	C	1.136378	-0.000141	0.484269
C52	C	1.055782	-0.000126	0.427043
H53	H	0.766054	-0.000083	-0.275675
H54	H	0.948163	-0.761224	-0.014852
Br55	Br	1.165357	-0.839241	-0.232253
H56	H	0.948125	-0.239152	-0.014830
Br57	Br	1.293302	-0.330467	-0.360349
Br58	Br	1.253584	-0.000203	0.147562
H59	H	0.478296	-0.000111	-0.270239
Br60	Br	0.820144	-0.330663	0.113261
H61	H	1.203437	-0.000164	0.454903
Br62	Br	0.864048	-0.000083	0.385445
Br63	Br	1.249425	-0.000163	0.367467
H64	H	0.635175	-0.000174	0.023152
H65	H	0.849650	-0.630744	0.083755
H66	H	1.200238	-0.000144	0.624165
Br67	Br	1.293322	-0.669618	-0.360355
H68	H	0.309033	-0.000148	-0.267039
Br69	Br	0.327830	-0.000236	0.073300
Br70	Br	1.165304	-0.160945	-0.232218
Br71	Br	0.859899	-0.000089	0.605368
Br72	Br	0.865334	-0.000067	0.317600
Br73	Br	0.869489	-0.000089	0.097684
H74	H	0.804443	-0.000134	0.019958
H75	H	0.516682	-0.000168	0.025399
Br76	Br	0.565731	-0.000106	-0.316227
