data_functionalizedCrystal
_audit_creation_method	'MofGen! by Chris Wilmer'
_symmetry_space_group_name_H-M	'P1'
_symmetry_Int_Tables_number	1
_symmetry_cell_setting	triclinic
loop_
_symmetry_equiv_pos_as_xyz
  x,y,z
_cell_length_a	8.965430
_cell_length_b	14.044220
_cell_length_c	10.489763
_cell_angle_alpha	88.868620
_cell_angle_beta	90.004324
_cell_angle_gamma	89.999271
loop_
_atom_site_label
_atom_site_type_symbol
_atom_site_fract_x
_atom_site_fract_y
_atom_site_fract_z
O1	O	-0.123911	-1.259826	-0.307733
O2	O	-0.123948	-0.983780	-0.296628
O3	O	-0.123900	-1.128073	-0.117220
O4	O	-0.123958	-1.115533	-0.487141
O5	O	0.124178	-1.128061	-0.117232
O6	O	0.124131	-0.983768	-0.296640
O7	O	0.124168	-1.259813	-0.307745
Cu8	Cu	0.146801	-1.121789	-0.302193
Cu9	Cu	-0.146581	-1.121804	-0.302180
O10	O	0.124121	-1.115520	-0.487152
C11	C	0.000088	-0.948426	-0.291773
C12	C	0.000075	-0.843100	-0.277273
N13	N	0.353150	-1.121786	-0.302203
N14	N	-0.352930	-1.121815	-0.302161
C15	C	0.450434	-1.055035	-0.385141
C16	C	0.549855	-1.140927	-0.419663
C17	C	0.549857	-1.035930	-0.267696
C18	C	0.450382	-1.207722	-0.336787
C19	C	0.450375	-1.102668	-0.184764
C20	C	0.549751	-1.188622	-0.219244
C21	C	0.000143	-1.127115	-0.069599
C22	C	0.000154	-1.124268	0.072318
C23	C	0.000130	-1.295167	-0.312600
C24	C	0.000133	-1.400493	-0.327100
C25	C	0.000109	-0.650256	-0.250765
C26	C	0.000099	-0.593331	-0.353602
C27	C	0.000118	-0.486026	-0.338853
C28	C	0.000090	-0.757571	-0.265513
C29	C	0.000139	-1.032447	0.149771
C30	C	0.122470	-1.075809	0.237488
C31	C	-0.122117	-1.075843	0.237472
C32	C	0.122586	-1.167668	0.158166
C33	C	-0.122110	-1.167689	0.158142
C34	C	0.000250	-1.211117	0.245825
C35	C	0.000100	-1.116463	0.465225
C36	C	0.000156	-1.119265	0.323305
H37	H	0.406827	-0.998637	-0.455355
H38	H	0.000132	-0.618405	-0.151654
C39	C	0.000582	-0.931776	0.093834
C40	C	0.128952	-0.884134	0.133948
C41	C	0.129428	-0.791402	0.082429
H42	H	-0.085331	-0.898714	0.122106
H43	H	-0.000233	-0.934252	0.003393
H44	H	0.129753	-0.881653	0.224370
H45	H	0.214885	-0.917167	0.105677
H46	H	0.128613	-0.793879	-0.008012
H47	H	0.043509	-0.758350	0.110705
H48	H	0.216531	-0.759069	0.109630
C49	C	0.260506	-1.219597	0.111896
C50	C	0.260655	-1.312825	0.161711
C51	C	0.387672	-1.360689	0.119098
H52	H	0.347368	-1.187308	0.139691
H53	H	0.259689	-1.221128	0.021392
H54	H	0.261487	-1.311289	0.252196
H55	H	0.173823	-1.345139	0.133921
H56	H	0.386855	-1.362220	0.028595
H57	H	0.474524	-1.328393	0.146896
H58	H	0.387784	-1.423952	0.152882
C59	C	0.260475	-1.024180	0.284183
C60	C	0.345100	-1.086110	0.361406
C61	C	0.472242	-1.038581	0.404426
H62	H	0.231259	-0.970584	0.332053
H63	H	0.318551	-1.003540	0.213102
H64	H	0.287034	-1.106736	0.432476
H65	H	0.374353	-1.139707	0.313564
H66	H	0.530318	-1.017941	0.333346
H67	H	0.443012	-0.984986	0.452291
H68	H	0.529682	-1.080595	0.456817
H69	H	0.593551	-1.157117	-0.518962
H70	H	0.000333	-1.286674	0.287585
H71	H	0.406870	-1.280358	-0.366073
H72	H	0.593085	-1.245146	-0.149090
C73	C	-0.000276	-0.635841	-0.485744
C74	C	-0.127953	-0.692022	-0.500145
C75	C	-0.128377	-0.731187	-0.621858
H76	H	0.086114	-0.674101	-0.495928
H77	H	-0.000374	-0.586033	-0.548360
H78	H	-0.127843	-0.741823	-0.437546
H79	H	-0.214365	-0.653784	-0.489986
H80	H	-0.128474	-0.681379	-0.684475
H81	H	-0.041981	-0.769442	-0.632031
H82	H	-0.215010	-0.769303	-0.631650
H83	H	0.406645	-1.086452	-0.085493
H84	H	-0.225523	-1.206512	0.123165
H85	H	-0.225537	-1.036985	0.272382
H86	H	0.593556	-0.963311	-0.238529
