data_functionalizedCrystal
_audit_creation_method	'MofGen! by Chris Wilmer'
_symmetry_space_group_name_H-M	'P1'
_symmetry_Int_Tables_number	1
_symmetry_cell_setting	triclinic
loop_
_symmetry_equiv_pos_as_xyz
  x,y,z
_cell_length_a	19.121063
_cell_length_b	18.215407
_cell_length_c	18.215399
_cell_angle_alpha	89.980167
_cell_angle_beta	87.590157
_cell_angle_gamma	87.530554
loop_
_atom_site_label
_atom_site_type_symbol
_atom_site_fract_x
_atom_site_fract_y
_atom_site_fract_z
Zn1	Zn	-0.279613	-1.112559	0.428596
Zn2	Zn	0.220387	-0.612559	0.928596
Zn3	Zn	-0.397068	-1.107212	0.310772
Zn4	Zn	0.102932	-0.607212	0.810772
Zn5	Zn	-0.279636	-0.989491	0.305544
Zn6	Zn	0.220364	-0.489491	0.805544
Zn7	Zn	-0.397029	-0.984203	0.433795
Zn8	Zn	0.102971	-0.484203	0.933795
O9	O	-0.338336	-1.048366	0.369677
O10	O	0.161664	-0.548366	0.869677
O11	O	-0.295200	-1.214834	0.412978
O12	O	0.204800	-0.714834	0.912978
O13	O	-0.381516	-1.091570	0.207095
O14	O	0.118484	-0.591570	0.707095
O15	O	-0.181348	-1.010267	0.317504
O16	O	0.318652	-0.510267	0.817504
O17	O	-0.381494	-1.210905	0.326414
O18	O	0.118506	-0.710905	0.826414
O19	O	-0.181331	-1.100685	0.407909
O20	O	0.318669	-0.600685	0.907909
O21	O	-0.295240	-1.005081	0.203255
O22	O	0.204760	-0.505081	0.703255
O23	O	-0.295202	-0.885805	0.322545
O24	O	0.204798	-0.385805	0.822545
O25	O	-0.381427	-1.001255	0.536089
O26	O	0.118573	-0.501255	1.036089
O27	O	-0.381450	-0.881921	0.416771
O28	O	0.118550	-0.381921	0.916771
O29	O	-0.295162	-1.095558	0.532269
O30	O	0.204838	-0.595558	1.032269
O31	O	-0.495348	-1.086443	0.331455
O32	O	0.004652	-0.586443	0.831455
O33	O	-0.495319	-0.996070	0.421840
O34	O	0.004681	-0.496070	0.921840
C35	C	-0.338324	-0.857160	0.369655
C36	C	0.161676	-0.357160	0.869655
C37	C	-0.338336	-0.775361	0.369664
C38	C	0.161664	-0.275361	0.869664
C39	C	-0.520817	-1.040122	0.377795
C40	C	-0.020817	-0.540122	0.877795
C41	C	-0.598883	-1.036663	0.381293
C42	C	-0.098883	-0.536663	0.881293
C43	C	-0.338288	-1.048413	0.561628
C44	C	0.161712	-0.548413	1.061628
C45	C	-0.338267	-1.048433	0.643426
C46	C	0.161733	-0.548433	1.143426
C47	C	-0.635551	-1.082127	0.335916
C48	C	-0.135551	-0.582127	0.835916
C49	C	-0.708902	-1.078878	0.339210
C50	C	-0.208902	-0.578878	0.839210
C51	C	-0.745585	-1.030161	0.387877
C52	C	-0.245585	-0.530161	0.887877
C53	C	-0.708912	-0.984695	0.433258
C54	C	-0.208912	-0.484695	0.933258
C55	C	-0.635562	-0.987948	0.429968
C56	C	-0.135562	-0.487948	0.929968
C57	C	-0.967055	-1.017985	0.400168
C58	C	-0.467055	-0.517985	0.900168
C59	C	-1.040410	-1.014733	0.403454
C60	C	-0.540410	-0.514733	0.903454
C61	C	-1.040394	-1.108918	0.309406
C62	C	-0.540394	-0.608918	0.809406
C63	C	-0.967043	-1.112164	0.306117
C64	C	-0.467043	-0.612164	0.806117
C65	C	-0.930377	-1.066701	0.351501
C66	C	-0.430377	-0.566701	0.851501
C67	C	-0.820561	-1.026837	0.391243
C68	C	-0.320561	-0.526837	0.891243
C69	C	-0.855401	-1.070029	0.348138
C70	C	-0.355401	-0.570029	0.848138
C71	C	-0.155143	-1.056662	0.361543
C72	C	0.344857	-0.556662	0.861543
C73	C	-0.077077	-1.060197	0.358077
C74	C	0.422923	-0.560197	0.858077
C75	C	-0.338349	-1.240319	0.369699
C76	C	0.161651	-0.740319	0.869699
C77	C	-0.338354	-1.322117	0.369709
C78	C	0.161646	-0.822117	0.869709
C79	C	-0.383316	-0.585160	0.418671
C80	C	0.116684	-0.085160	0.918671
C81	C	-0.383318	-0.508302	0.418681
C82	C	0.116682	-0.008302	0.918681
C83	C	-0.293369	-0.512323	0.320699
C84	C	0.206631	-0.012323	0.820699
C85	C	-0.293364	-0.589181	0.320694
C86	C	0.206636	-0.089181	0.820694
C87	C	-0.338342	-0.625597	0.369679
C88	C	0.161658	-0.125597	0.869679
C89	C	-0.338349	-0.471881	0.369694
C90	C	0.161651	0.028119	0.869694
C91	C	-0.338351	-0.388547	0.369703
C92	C	0.161649	0.111453	0.869703
C93	C	-0.338339	-0.708936	0.369671
C94	C	0.161661	-0.208936	0.869671
C95	C	-0.338334	-1.048364	0.178471
C96	C	0.161666	-0.548364	0.678471
C97	C	-0.338157	-1.048495	0.096664
C98	C	0.161843	-0.548495	0.596664
C99	C	-0.293307	-1.097555	0.829630
C100	C	0.206693	-0.597555	1.329630
C101	C	-0.293287	-1.097565	0.906488
C102	C	0.206713	-0.597565	1.406488
C103	C	-0.383119	-0.999368	0.910455
C104	C	0.116881	-0.499368	1.410455
C105	C	-0.383135	-0.999355	0.833598
C106	C	0.116865	-0.499355	1.333598
C107	C	-0.338231	-1.048453	0.793188
C108	C	0.161769	-0.548453	1.293188
C109	C	-0.338194	-1.048476	0.946902
C110	C	0.161806	-0.548476	1.446902
C111	C	-0.338172	-1.048486	1.030235
C112	C	0.161828	-0.548486	1.530235
C113	C	-0.338251	-1.048442	0.709850
C114	C	0.161749	-0.548442	1.209850
H115	H	-0.738753	-1.115899	0.302259
H116	H	-0.238753	-0.615899	0.802259
O117	O	-0.431904	-0.464726	0.471480
O118	O	0.068096	0.035274	0.971480
H119	H	-0.419988	-0.480038	0.528742
H120	H	0.080012	0.019962	1.028742
H121	H	-0.256736	-0.622106	0.280798
H122	H	0.243264	-0.122106	0.780798
O123	O	-0.431807	-0.624443	0.471520
O124	O	0.068193	-0.124443	0.971520
H125	H	-0.467507	-0.657837	0.440119
H126	H	0.032493	-0.157837	0.940119
O127	O	-0.244870	-1.150506	0.786048
O128	O	0.255130	-0.650506	1.286048
H129	H	-0.276314	-1.186527	0.752440
H130	H	0.223686	-0.686527	1.252440
H131	H	-0.937177	-1.151834	0.266488
H132	H	-0.437177	-0.651834	0.766488
H133	H	-0.738785	-0.945031	0.472887
H134	H	-0.238785	-0.445031	0.972887
H135	H	-0.937207	-0.980966	0.437120
H136	H	-0.437207	-0.480966	0.937120
O137	O	-0.431591	-0.946388	0.794290
O138	O	0.068409	-0.446388	1.294290
H139	H	-0.424050	-0.954623	0.734057
H140	H	0.075950	-0.454623	1.234057
H141	H	-0.825532	-1.109698	0.308516
H142	H	-0.325532	-0.609698	0.808516
H143	H	-0.256705	-1.137548	0.936156
H144	H	0.243295	-0.637548	1.436156
H145	H	-0.256752	-0.482664	0.280816
H146	H	0.243248	0.017336	0.780816
O147	O	-0.431550	-0.946414	0.954041
O148	O	0.068450	-0.446414	1.454041
H149	H	-0.467282	-0.977738	0.990645
H150	H	0.032718	-0.477738	1.490645
O151	O	-0.595984	-1.134679	0.283433
O152	O	-0.095984	-0.634679	0.783433
H153	H	-0.610110	-1.121476	0.226294
H154	H	-0.110110	-0.621476	0.726294
O155	O	-1.079939	-1.157973	0.260479
O156	O	-0.579939	-0.657973	0.760479
H157	H	-1.137107	-1.147539	0.270950
H158	H	-0.637107	-0.647539	0.770950
H159	H	-0.605708	-0.950927	0.466919
H160	H	-0.105708	-0.450927	0.966919
H161	H	-1.070275	-0.975071	0.443097
H162	H	-0.570275	-0.475071	0.943097
H163	H	-0.850437	-0.987169	0.430866
H164	H	-0.350437	-0.487169	0.930866
