data_functionalizedCrystal
_audit_creation_method	'MofGen! by Chris Wilmer'
_symmetry_space_group_name_H-M	'P1'
_symmetry_Int_Tables_number	1
_symmetry_cell_setting	triclinic
loop_
_symmetry_equiv_pos_as_xyz
  x,y,z
_cell_length_a	13.635800
_cell_length_b	12.095502
_cell_length_c	11.102289
_cell_angle_alpha	78.393448
_cell_angle_beta	71.394293
_cell_angle_gamma	31.195806
loop_
_atom_site_label
_atom_site_type_symbol
_atom_site_fract_x
_atom_site_fract_y
_atom_site_fract_z
V1	V	-2.456881	0.664997	0.173797
O2	O	-2.428762	0.652339	-0.010453
O3	O	-2.442526	0.660449	0.346631
O4	O	-2.620212	0.955026	0.170202
O5	O	-2.249846	0.355723	0.167198
V6	V	-2.673119	0.628005	0.151868
O7	O	-2.643497	0.746141	0.221901
O8	O	-2.711602	0.546861	0.103764
O9	O	-2.575871	0.632554	-0.020966
O10	O	-2.759937	0.640664	0.336118
O11	O	-2.938853	0.937280	0.158467
O12	O	-2.398185	0.337977	0.155463
C13	C	-2.361353	0.649958	0.388794
C14	C	-2.391510	0.648172	0.530082
V15	V	-1.956881	0.664997	0.173797
O16	O	-1.928762	0.652339	-0.010453
O17	O	-1.942526	0.660449	0.346631
O18	O	-2.120212	0.955026	0.170202
O19	O	-1.749846	0.355723	0.167198
V20	V	-2.173119	0.628005	0.151868
O21	O	-2.143497	0.746141	0.221901
O22	O	-2.211602	0.546861	0.103764
O23	O	-2.075871	0.632554	-0.020966
O24	O	-2.259937	0.640664	0.336118
O25	O	-2.438853	0.937280	0.158467
O26	O	-1.898185	0.337977	0.155463
C27	C	-2.265543	1.267275	0.161934
C28	C	-2.088006	1.025715	0.163751
C29	C	-2.588013	1.025717	0.163734
C30	C	-2.765535	1.267273	0.161903
C31	C	-2.488711	0.643039	-0.063122
C32	C	-2.448183	0.644838	-0.204409
C33	C	-1.861353	0.649958	0.388794
C34	C	-1.891510	0.648172	0.530082
C35	C	-1.988711	0.643039	-0.063122
C36	C	-1.948183	0.644838	-0.204409
C37	C	-2.504099	0.657973	0.602900
C38	C	-2.532442	0.656314	0.735657
C39	C	-2.335589	0.635043	0.722764
C40	C	-2.307260	0.636718	0.590011
C41	C	-2.617743	0.670244	0.610344
C42	C	-2.646086	0.668585	0.743100
C43	C	-2.004099	0.657973	0.602900
C44	C	-2.032442	0.656314	0.735657
C45	C	-1.835589	0.635043	0.722764
C46	C	-1.807260	0.636718	0.590011
C47	C	-2.117743	0.670244	0.610344
C48	C	-2.146086	0.668585	0.743100
H49	H	-2.215600	0.628762	0.530729
H50	H	-2.807299	0.826594	0.800482
C51	C	-2.363865	0.882019	0.820643
C52	C	-2.475812	0.882300	0.912672
C53	C	-2.693583	1.095725	0.990221
C54	C	-2.799406	1.308869	0.975742
C55	C	-2.687459	1.308596	0.883709
C56	C	-2.469688	1.095171	0.806159
H57	H	-2.397476	0.724511	0.923394
H58	H	-2.776453	1.095927	1.058350
H59	H	-2.960612	1.466859	1.033149
H60	H	-2.765795	1.466385	0.872987
H61	H	-2.386818	1.094969	0.738030
C62	C	-2.319687	0.879796	0.583720
C63	C	-2.511116	1.047050	0.696386
C64	C	-2.713053	1.256597	0.669761
C65	C	-2.723562	1.298891	0.530470
C66	C	-2.532127	1.131633	0.417795
C67	C	-2.330190	0.922086	0.444420
H68	H	-2.503342	1.015745	0.799505
H69	H	-2.854766	1.380412	0.753171
H70	H	-2.873048	1.454011	0.510761
H71	H	-2.539900	1.162938	0.314676
H72	H	-2.188477	0.798271	0.361010
H73	H	-2.267002	0.625720	0.771575
H74	H	-2.583861	0.522892	0.768517
C75	C	-2.062035	0.471776	0.777451
C76	C	-1.965626	0.314783	0.671013
C77	C	-1.881581	0.117985	0.705365
C78	C	-1.893945	0.078179	0.846155
C79	C	-1.990358	0.235176	0.952603
C80	C	-2.074402	0.431974	0.918251
H81	H	-1.956470	0.344246	0.566783
H82	H	-1.810210	0.001766	0.626564
H83	H	-1.831730	-0.067502	0.871584
H84	H	-1.999514	0.205713	1.056832
H85	H	-2.145773	0.548193	0.997051
C86	C	-2.819687	0.879796	0.583720
C87	C	-3.011116	1.047050	0.696386
C88	C	-3.213053	1.256597	0.669761
C89	C	-3.223562	1.298891	0.530470
C90	C	-3.032127	1.131633	0.417795
C91	C	-2.830190	0.922086	0.444420
H92	H	-3.003342	1.015745	0.799505
H93	H	-3.354766	1.380412	0.753171
H94	H	-3.373048	1.454011	0.510761
H95	H	-3.039900	1.162938	0.314676
H96	H	-2.688477	0.798271	0.361010
H97	H	-2.527070	0.519863	0.557578
H98	H	-1.715600	0.628762	0.530729
H99	H	-1.767002	0.625720	0.771575
H100	H	-2.027070	0.519863	0.557578
