data_functionalizedCrystal
_audit_creation_method	'MofGen! by Chris Wilmer'
_symmetry_space_group_name_H-M	'P1'
_symmetry_Int_Tables_number	1
_symmetry_cell_setting	triclinic
loop_
_symmetry_equiv_pos_as_xyz
  x,y,z
_cell_length_a	16.120530
_cell_length_b	21.295417
_cell_length_c	16.120297
_cell_angle_alpha	87.131911
_cell_angle_beta	89.871860
_cell_angle_gamma	87.125028
loop_
_atom_site_label
_atom_site_type_symbol
_atom_site_fract_x
_atom_site_fract_y
_atom_site_fract_z
Zn1	Zn	1.247396	-0.318916	0.534531
Zn2	Zn	1.747396	0.181084	1.034531
Zn3	Zn	1.254333	-0.419126	0.395463
Zn4	Zn	1.754333	0.080874	0.895463
Zn5	Zn	1.115388	-0.308279	0.388451
Zn6	Zn	1.615388	0.191721	0.888451
Zn7	Zn	1.108290	-0.418546	0.527433
Zn8	Zn	1.608290	0.081454	1.027433
O9	O	1.181352	-0.366216	0.461470
O10	O	1.681352	0.133784	0.961470
O11	O	1.364682	-0.336903	0.521989
O12	O	1.864682	0.163097	1.021989
O13	O	1.241776	-0.400212	0.278168
O14	O	1.741776	0.099788	0.778168
O15	O	1.132967	-0.221604	0.407864
O16	O	1.632967	0.278396	0.907864
O17	O	1.369779	-0.410527	0.419817
O18	O	1.869779	0.089473	0.919817
O19	O	1.229953	-0.229419	0.515189
O20	O	1.729953	0.270581	1.015189
O21	O	1.139693	-0.318774	0.273016
O22	O	1.639693	0.181226	0.773016
O23	O	0.998081	-0.318211	0.400981
O24	O	1.498081	0.181789	0.900981
O25	O	1.120869	-0.409539	0.644739
O26	O	1.620869	0.090461	1.144739
O27	O	0.992866	-0.399224	0.503091
O28	O	1.492866	0.100776	1.003091
O29	O	1.223070	-0.336341	0.649955
O30	O	1.723070	0.163659	1.149955
O31	O	1.234893	-0.507134	0.412933
O32	O	1.734893	-0.007134	0.912933
O33	O	1.127595	-0.506708	0.509891
O34	O	1.627595	-0.006708	1.009891
C35	C	0.965301	-0.357501	0.450505
C36	C	1.465301	0.142499	0.950505
C37	C	0.872872	-0.353789	0.445834
C38	C	1.372872	0.146211	0.945834
C39	C	0.703644	-0.346996	0.437314
C40	C	1.203644	0.153004	0.937314
C41	C	0.659897	-0.385485	0.485686
C42	C	1.159897	0.114515	0.985686
C43	C	0.565733	-0.381706	0.480945
C44	C	1.065733	0.118294	0.980945
C45	C	0.797817	-0.350775	0.442053
C46	C	1.297817	0.149225	0.942053
C47	C	1.181248	-0.529762	0.461422
C48	C	1.681248	-0.029762	0.961422
C49	C	1.181278	-0.599732	0.461433
C50	C	1.681278	-0.099732	0.961433
C51	C	1.231746	-0.636611	0.517354
C52	C	1.731746	-0.136611	1.017354
C53	C	1.231775	-0.702355	0.517376
C54	C	1.731775	-0.202355	1.017376
C55	C	1.181344	-0.731218	0.461463
C56	C	1.681344	-0.231218	0.961463
C57	C	1.130866	-0.694331	0.405538
C58	C	1.630866	-0.194331	0.905538
C59	C	1.130833	-0.628588	0.405523
C60	C	1.630833	-0.128588	0.905523
N61	N	1.178754	-0.831581	0.388371
N62	N	1.678754	-0.331581	0.888371
N63	N	1.178790	-0.894035	0.388388
N64	N	1.678790	-0.394035	0.888388
C65	C	1.181440	-0.929298	0.461505
C66	C	1.681440	-0.429298	0.961505
N67	N	1.184068	-0.899749	0.534608
N68	N	1.684068	-0.399749	1.034608
N69	N	1.184036	-0.837290	0.534591
N70	N	1.684036	-0.337290	1.034591
C71	C	1.181374	-0.802505	0.461473
C72	C	1.681374	-0.302505	0.961473
C73	C	1.231941	-1.037465	0.517455
C74	C	1.731941	-0.537465	1.017455
C75	C	1.231963	-1.103210	0.517478
C76	C	1.731963	-0.603210	1.017478
C77	C	1.131059	-1.095184	0.405633
C78	C	1.631059	-0.595184	0.905633
C79	C	1.131032	-1.029440	0.405617
C80	C	1.631032	-0.529440	0.905617
C81	C	1.181478	-1.000585	0.461527
C82	C	1.681478	-0.500585	0.961527
C83	C	1.398246	-0.374966	0.472477
C84	C	1.898246	0.125034	0.972477
C85	C	1.490674	-0.378695	0.477168
C86	C	1.990674	0.121305	0.977168
C87	C	1.170404	-0.374062	0.678363
C88	C	1.670404	0.125938	1.178363
C89	C	1.165738	-0.377405	0.770790
C90	C	1.665738	0.122595	1.270790
C91	C	1.181478	-0.202034	0.461536
C92	C	1.681478	0.297966	0.961536
C93	C	1.181531	-0.132069	0.461565
C94	C	1.681531	0.367931	0.961565
C95	C	1.192305	-0.358358	0.245422
C96	C	1.692305	0.141642	0.745422
C97	C	1.197132	-0.354844	0.153004
C98	C	1.697132	0.145156	0.653004
C99	C	1.157190	-0.383494	0.940014
C100	C	1.657190	0.116506	1.440014
C101	C	1.205678	-0.348757	0.983785
C102	C	1.705678	0.151243	1.483785
C103	C	1.200922	-0.352145	1.077947
C104	C	1.700922	0.147855	1.577947
C105	C	1.161945	-0.380107	0.845843
C106	C	1.661945	0.119893	1.345843
H107	H	1.272820	-0.613119	0.562881
H108	H	1.772820	-0.113119	1.062881
H109	H	1.112109	-0.415775	0.973256
H110	H	1.612109	0.084225	1.473256
H111	H	0.693165	-0.421275	0.530661
H112	H	1.193165	0.078725	1.030661
C113	C	0.992303	-1.002171	0.357837
C114	C	1.492303	-0.502171	0.857837
C115	C	1.075564	-0.988900	0.344136
C116	C	1.575564	-0.488900	0.844136
H117	H	0.958058	-0.977146	0.319876
H118	H	1.458058	-0.477146	0.819876
H119	H	0.977267	-0.992911	0.413068
H120	H	1.477267	-0.492911	0.913068
H121	H	0.985116	-1.045458	0.349845
H122	H	1.485116	-0.545458	0.849845
H123	H	1.082752	-0.945615	0.352135
H124	H	1.582752	-0.445615	0.852135
H125	H	1.090605	-0.998157	0.288892
H126	H	1.590605	-0.498157	0.788892
C127	C	0.717449	-0.263826	0.332782
C128	C	1.217449	0.236174	0.832782
C129	C	0.658742	-0.298686	0.376598
C130	C	1.158742	0.201314	0.876598
H131	H	0.689720	-0.234001	0.295302
H132	H	1.189720	0.265999	0.795302
H133	H	0.752911	-0.291394	0.302582
H134	H	1.252911	0.208606	0.802582
H135	H	0.749522	-0.242432	0.370747
H136	H	1.249522	0.257568	0.870747
H137	H	0.626673	-0.320083	0.338632
H138	H	1.126673	0.179917	0.838632
H139	H	0.623265	-0.271113	0.406799
H140	H	1.123265	0.228887	0.906799
C141	C	1.331508	-0.703692	0.627930
C142	C	1.831508	-0.203692	1.127930
C143	C	1.287245	-0.742903	0.578856
C144	C	1.787245	-0.242903	1.078856
H145	H	1.365753	-0.728724	0.665884
H146	H	1.865753	-0.228724	1.165884
H147	H	1.293636	-0.677751	0.657857
H148	H	1.793636	-0.177751	1.157857
H149	H	1.365167	-0.678014	0.593330
H150	H	1.865167	-0.178014	1.093330
H151	H	1.253582	-0.768578	0.613456
H152	H	1.753582	-0.268578	1.113456
H153	H	1.325122	-0.768855	0.548927
H154	H	1.825122	-0.268855	1.048927
H155	H	1.250762	-0.316474	0.950541
H156	H	1.750762	0.183526	1.450541
H157	H	1.089803	-0.717835	0.360015
H158	H	1.589803	-0.217835	0.860015
H159	H	1.089735	-0.598560	0.359985
H160	H	1.589735	-0.098560	0.859985
C161	C	1.331665	-1.051999	0.628025
C162	C	1.831665	-0.551999	1.128025
C163	C	1.287372	-1.005742	0.578924
C164	C	1.787372	-0.505742	1.078924
H165	H	1.365879	-1.032414	0.665978
H166	H	1.865879	-0.532414	1.165978
H167	H	1.365348	-1.077602	0.593447
H168	H	1.865348	-0.577602	1.093447
H169	H	1.293804	-1.077346	0.657959
H170	H	1.793804	-0.577346	1.157959
H171	H	1.325233	-0.980397	0.548984
H172	H	1.825233	-0.480397	1.048984
H173	H	1.253686	-0.980128	0.613505
H174	H	1.753686	-0.480128	1.113505
C175	C	1.237827	-1.181599	0.629950
C176	C	1.737827	-0.681599	1.129950
C177	C	1.287443	-1.143749	0.578953
C178	C	1.787443	-0.643749	1.078953
H179	H	1.272080	-1.206622	0.667906
H180	H	1.772080	-0.706622	1.167906
H181	H	1.207800	-1.208195	0.596659
H182	H	1.707800	-0.708195	1.096659
H183	H	1.199960	-1.155647	0.659881
H184	H	1.699960	-0.655647	1.159881
H185	H	1.325305	-1.169701	0.549017
H186	H	1.825305	-0.669701	1.049017
H187	H	1.317483	-1.117150	0.612248
H188	H	1.817483	-0.617150	1.112248
C189	C	1.086301	-1.192396	0.356000
C190	C	1.586301	-0.692396	0.856000
C191	C	1.075619	-1.126903	0.344176
C192	C	1.575619	-0.626903	0.844176
H193	H	1.052072	-1.211978	0.318057
H194	H	1.552072	-0.711978	0.818057
H195	H	1.071274	-1.204682	0.411239
H196	H	1.571274	-0.704682	0.911239
H197	H	1.142800	-1.204945	0.346707
H198	H	1.642800	-0.704945	0.846707
H199	H	1.019120	-1.114353	0.353474
H200	H	1.519120	-0.614353	0.853474
H201	H	1.090640	-1.114612	0.288923
H202	H	1.590640	-0.614612	0.788923
