data_functionalizedCrystal
_audit_creation_method	'MofGen! by Chris Wilmer'
_symmetry_space_group_name_H-M	'P1'
_symmetry_Int_Tables_number	1
_symmetry_cell_setting	triclinic
loop_
_symmetry_equiv_pos_as_xyz
  x,y,z
_cell_length_a	15.995350
_cell_length_b	10.723024
_cell_length_c	9.798715
_cell_angle_alpha	90.001978
_cell_angle_beta	90.000039
_cell_angle_gamma	83.980122
loop_
_atom_site_label
_atom_site_type_symbol
_atom_site_fract_x
_atom_site_fract_y
_atom_site_fract_z
O1	O	-1.111909	-0.160839	-0.113372
O2	O	-0.868247	-0.180701	-0.113399
O3	O	-0.995698	0.010878	-0.113380
O4	O	-0.984458	-0.352418	-0.113391
O5	O	-0.995689	0.010878	0.113602
O6	O	-0.868238	-0.180701	0.113583
O7	O	-1.111899	-0.160839	0.113610
Zn8	Zn	-0.990067	-0.170770	0.149635
Zn9	Zn	-0.990080	-0.170770	-0.149424
O10	O	-0.984448	-0.352418	0.113591
C11	C	-0.837043	-0.179880	0.000088
C12	C	-0.744079	-0.177418	0.000077
C13	C	-1.143103	-0.161660	0.000120
C14	C	-1.236068	-0.164122	0.000121
C15	C	-0.406280	-0.168577	0.000106
C16	C	-0.452931	-0.032138	0.000617
C17	C	-0.549635	-0.034601	0.000096
C18	C	-0.573866	-0.172962	0.000093
C19	C	-0.533171	-0.240259	-0.129522
C20	C	-0.436516	-0.236831	-0.129621
C21	C	-0.436182	-0.239650	0.128500
C22	C	-0.533127	-0.239618	0.130204
C23	C	-0.668578	-0.175448	0.000081
C24	C	-0.311568	-0.166096	0.000109
C25	C	-0.994876	0.057367	0.000109
C26	C	-0.992428	0.195890	0.000104
C27	C	-0.985271	-0.398907	0.000098
C28	C	-0.987718	-0.537430	0.000095
N29	N	-0.990064	-0.170768	0.353735
C30	C	-1.063743	0.271783	0.000111
C31	C	-1.061215	0.414954	0.000105
N32	N	-0.990089	-0.170761	-0.353524
C33	C	-1.043578	-0.089978	0.421520
C34	C	-1.043591	-0.089974	0.578682
H35	H	-0.577756	0.018298	0.093009
C36	C	-0.408104	-0.179392	0.261233
C37	C	-0.313943	-0.172975	0.289456
C38	C	-0.285868	-0.112703	0.422182
C39	C	-0.351954	-0.058847	0.526685
C40	C	-0.446121	-0.065263	0.498466
C41	C	-0.474196	-0.125535	0.365740
H42	H	-0.265017	-0.212844	0.212094
H43	H	-0.216160	-0.107954	0.443072
H44	H	-0.331172	-0.014230	0.624937
H45	H	-0.495047	-0.025394	0.575828
H46	H	-0.543905	-0.130283	0.344850
C47	C	-0.553040	-0.377583	-0.136051
C48	C	-0.606576	-0.430339	-0.023493
C49	C	-0.626445	-0.567664	-0.030018
C50	C	-0.592778	-0.652232	-0.149100
C51	C	-0.539239	-0.599478	-0.261667
C52	C	-0.519370	-0.462153	-0.255142
H53	H	-0.631501	-0.367735	0.064666
H54	H	-0.666078	-0.606715	0.053311
H55	H	-0.607486	-0.753888	-0.153931
H56	H	-0.514313	-0.662082	-0.349826
H57	H	-0.479736	-0.423101	-0.338471
H58	H	-0.929501	0.236910	0.000088
C59	C	-1.148760	0.216386	0.000127
C60	C	-1.211327	0.246429	-0.117729
C61	C	-1.296347	0.191038	-0.117710
C62	C	-1.318800	0.105605	0.000165
C63	C	-1.256231	0.075557	0.118029
C64	C	-1.171211	0.130948	0.118011
H65	H	-1.194707	0.309676	-0.204994
H66	H	-1.342664	0.213282	-0.204962
H67	H	-1.381737	0.064601	0.000179
H68	H	-1.272851	0.012310	0.205295
H69	H	-1.124894	0.108705	0.205262
H70	H	-0.549072	-0.340515	0.138031
C71	C	-0.571132	-0.177102	-0.259835
C72	C	-0.666212	-0.172642	-0.287100
C73	C	-0.704170	-0.109471	-0.417407
C74	C	-0.647046	-0.050759	-0.520450
C75	C	-0.551960	-0.055217	-0.493188
C76	C	-0.514002	-0.118388	-0.362881
H77	H	-0.708504	-0.216106	-0.210819
H78	H	-0.774559	-0.106171	-0.437587
H79	H	-0.675145	-0.003996	-0.616911
H80	H	-0.509669	-0.011753	-0.569469
H81	H	-0.443613	-0.121688	-0.342701
C82	C	-0.394056	-0.375547	0.129693
C83	C	-0.332827	-0.421860	0.014791
C84	C	-0.290697	-0.557750	0.015970
C85	C	-0.309796	-0.647328	0.132051
C86	C	-0.371028	-0.601017	0.246962
C87	C	-0.413158	-0.465126	0.245783
H88	H	-0.318686	-0.355547	-0.071147
H89	H	-0.245369	-0.592032	-0.069095
H90	H	-0.278609	-0.747923	0.132924
H91	H	-0.385170	-0.667329	0.332900
H92	H	-0.458486	-0.430844	0.330848
C93	C	-0.586870	0.037338	-0.125639
C94	C	-0.682376	0.049417	-0.151127
C95	C	-0.719611	0.121360	-0.276868
C96	C	-0.661339	0.181224	-0.377121
C97	C	-0.565826	0.169147	-0.351636
C98	C	-0.528592	0.097204	-0.225895
H99	H	-0.725518	0.005100	-0.076912
H100	H	-0.790315	0.130299	-0.295734
H101	H	-0.688902	0.234480	-0.470202
H102	H	-0.522685	0.213464	-0.425851
H103	H	-0.457887	0.088265	-0.207029
C104	C	-0.905233	0.374492	0.000088
C105	C	-0.842050	0.379989	-0.117786
C106	C	-0.759565	0.291900	-0.117793
C107	C	-0.740262	0.198313	0.000074
C108	C	-0.803446	0.192812	0.117956
C109	C	-0.885932	0.280901	0.117963
H110	H	-0.856338	0.449271	-0.205046
H111	H	-0.712792	0.295973	-0.205058
H112	H	-0.679202	0.133105	0.000068
H113	H	-0.789159	0.123530	0.205216
H114	H	-0.932704	0.276828	0.205228
H115	H	-0.434091	0.022400	0.093569
H116	H	-0.560157	-0.190492	0.226092
H117	H	-1.089380	-0.020809	0.363204
C118	C	-0.928189	-0.264212	0.567747
C119	C	-0.864265	-0.215609	0.468672
C120	C	-0.802365	-0.309060	0.389931
C121	C	-0.804391	-0.451113	0.410265
C122	C	-0.868318	-0.499723	0.509344
C123	C	-0.930217	-0.406273	0.588085
H124	H	-0.862763	-0.110446	0.453616
H125	H	-0.755042	-0.273075	0.316586
H126	H	-0.758569	-0.520291	0.351976
H127	H	-0.869820	-0.604886	0.524400
H128	H	-0.977540	-0.442258	0.661430
H129	H	-0.433029	0.022148	-0.091819
H130	H	-0.417929	-0.187756	-0.226509
H131	H	-1.089409	-0.020810	0.636975
H132	H	-0.404843	-0.337003	-0.135505
H133	H	-0.944256	-0.239928	0.412052
H134	H	-1.122266	0.480165	0.000117
