data_functionalizedCrystal
_audit_creation_method	'MofGen! by Chris Wilmer'
_symmetry_space_group_name_H-M	'P1'
_symmetry_Int_Tables_number	1
_symmetry_cell_setting	triclinic
loop_
_symmetry_equiv_pos_as_xyz
  x,y,z
_cell_length_a	13.635800
_cell_length_b	10.773890
_cell_length_c	11.168136
_cell_angle_alpha	84.558960
_cell_angle_beta	108.508683
_cell_angle_gamma	83.354284
loop_
_atom_site_label
_atom_site_type_symbol
_atom_site_fract_x
_atom_site_fract_y
_atom_site_fract_z
V1	V	2.024759	-0.172613	0.391642
O2	O	2.036180	0.008275	0.386303
O3	O	1.983243	-0.342244	0.386928
O4	O	2.013368	-0.169966	0.563379
O5	O	2.005847	-0.165195	0.208630
V6	V	2.267158	-0.150976	0.370000
O7	O	2.153992	-0.220076	0.439116
O8	O	2.363024	-0.103512	0.322525
O9	O	2.197071	0.018655	0.374714
O10	O	2.314435	-0.331864	0.375338
O11	O	2.344768	-0.158394	0.553011
O12	O	2.166946	-0.153622	0.198262
V13	V	2.524759	-0.172613	0.391642
O14	O	2.536180	0.008275	0.386303
O15	O	2.483243	-0.342244	0.386928
O16	O	2.513368	-0.169966	0.563379
O17	O	2.505847	-0.165195	0.208630
V18	V	2.767158	-0.150976	0.370000
O19	O	2.653992	-0.220076	0.439116
O20	O	2.863024	-0.103512	0.322525
O21	O	2.697071	0.018655	0.374714
O22	O	2.814435	-0.331864	0.375338
O23	O	2.844768	-0.158394	0.553011
O24	O	2.666946	-0.153622	0.198262
C25	C	1.901117	-0.383596	0.380224
C26	C	1.907901	-0.522272	0.377514
C27	C	1.997290	-0.590135	0.382223
C28	C	2.004304	-0.733464	0.379423
C29	C	1.939543	-0.163837	0.605304
C30	C	1.970756	-0.162796	0.745687
C31	C	2.110867	0.060001	0.381414
C32	C	2.093702	0.198675	0.384132
C33	C	2.072441	-0.159756	0.156331
C34	C	2.030848	-0.160791	0.015947
C35	C	2.401117	-0.383596	0.380224
C36	C	2.407901	-0.522272	0.377514
C37	C	2.071056	-0.168248	0.814314
C38	C	2.103319	-0.167172	0.959407
C39	C	2.497290	-0.590135	0.382223
C40	C	2.504304	-0.733464	0.379423
C41	C	2.439543	-0.163837	0.605304
C42	C	2.470756	-0.162796	0.745687
C43	C	2.610867	0.060001	0.381414
C44	C	2.593702	0.198675	0.384132
C45	C	2.572441	-0.159756	0.156331
C46	C	2.530848	-0.160791	0.015947
C47	C	2.571056	-0.168248	0.814314
C48	C	2.603319	-0.167172	0.959407
H49	H	1.932963	-0.781470	0.373325
C50	C	2.401878	-0.262459	0.875856
C51	C	2.414846	-0.154523	0.936343
H52	H	2.330262	-0.258592	0.826706
H53	H	2.423411	-0.335392	0.938257
H54	H	2.443155	-0.266579	0.821565
H55	H	2.373574	-0.150407	0.990642
H56	H	2.393301	-0.081570	0.873935
H57	H	2.665047	-0.753322	0.390242
C58	C	2.337181	-0.716514	0.368086
C59	C	2.311591	-0.587070	0.369268
H60	H	2.277717	-0.756511	0.362986
H61	H	2.392704	-0.751811	0.444067
H62	H	2.358459	-0.729006	0.296387
H63	H	2.290320	-0.574578	0.440973
H64	H	2.256050	-0.551763	0.293279
H65	H	1.944922	-0.156131	0.956961
H66	H	2.568627	-0.542126	0.388334
C67	C	2.757979	-0.069760	0.995364
C68	C	2.719321	-0.173481	1.039031
H69	H	2.829599	-0.073665	1.044518
H70	H	2.719066	0.006030	1.003658
H71	H	2.751505	-0.071318	0.908303
H72	H	2.725788	-0.171917	1.126089
H73	H	2.758245	-0.249291	1.030748
C74	C	1.837181	-0.716514	0.368086
C75	C	1.811591	-0.587070	0.369268
H76	H	1.777717	-0.756511	0.362986
H77	H	1.892704	-0.751811	0.444067
H78	H	1.858459	-0.729006	0.296387
H79	H	1.790320	-0.574578	0.440973
H80	H	1.756050	-0.551763	0.293279
H81	H	2.633042	-0.173704	0.765650
C82	C	1.889111	-0.046746	0.871113
C83	C	1.887068	-0.155417	0.811369
H84	H	1.837447	-0.042198	0.911665
H85	H	1.875044	0.025685	0.809243
H86	H	1.956224	-0.050041	0.932965
H87	H	1.819957	-0.152119	0.749510
H88	H	1.901128	-0.227867	0.873245
C89	C	2.106586	-0.175267	0.617613
C90	C	2.154746	-0.175628	0.748635
H91	H	2.158258	-0.179831	0.577072
H92	H	2.058087	-0.099788	0.582788
H93	H	2.070767	-0.245955	0.604124
H94	H	2.190559	-0.104935	0.762125
H95	H	2.203263	-0.251115	0.783471
H96	H	2.068627	-0.542126	0.388334
H97	H	2.165047	-0.753322	0.390242
H98	H	2.432963	-0.781470	0.373325
C99	C	2.251003	-0.281019	1.130999
C100	C	2.219317	-0.173473	1.039043
H101	H	2.322616	-0.284903	1.180170
H102	H	2.242183	-0.354214	1.089938
H103	H	2.209708	-0.276863	1.185268
H104	H	2.260607	-0.177634	0.984768
H105	H	2.228146	-0.100260	1.080107
H106	H	2.408769	-0.157323	0.794348
