data_functionalizedCrystal
_audit_creation_method	'MofGen! by Chris Wilmer'
_symmetry_space_group_name_H-M	'P1'
_symmetry_Int_Tables_number	1
_symmetry_cell_setting	triclinic
loop_
_symmetry_equiv_pos_as_xyz
  x,y,z
_cell_length_a	14.519731
_cell_length_b	14.519709
_cell_length_c	10.268362
_cell_angle_alpha	89.993769
_cell_angle_beta	89.995325
_cell_angle_gamma	83.684499
loop_
_atom_site_label
_atom_site_type_symbol
_atom_site_fract_x
_atom_site_fract_y
_atom_site_fract_z
O1	O	1.223855	0.120985	-0.108306
O2	O	1.723855	0.620985	0.391694
O3	O	0.955381	0.135202	-0.108308
O4	O	1.455381	0.635202	0.391692
O5	O	1.096737	-0.006144	-0.108295
O6	O	1.596737	0.493856	0.391705
O7	O	1.082500	0.262331	-0.108319
O8	O	1.582500	0.762331	0.391681
O9	O	1.096724	-0.006150	0.108305
O10	O	1.596724	0.493850	0.608305
O11	O	0.955369	0.135196	0.108292
O12	O	1.455369	0.635196	0.608292
O13	O	1.223843	0.120980	0.108295
O14	O	1.723843	0.620980	0.608295
Cu15	Cu	1.089605	0.128087	0.128071
Cu16	Cu	1.589605	0.628087	0.628071
Cu17	Cu	1.089619	0.128094	-0.128084
Cu18	Cu	1.589619	0.628094	0.371916
O19	O	1.082488	0.262326	0.108282
O20	O	1.582488	0.762326	0.608282
C21	C	0.921016	0.134532	-0.000008
C22	C	1.421016	0.634532	0.499992
C23	C	0.818635	0.132536	-0.000009
C24	C	1.318635	0.632536	0.499991
C25	C	1.096067	-0.040507	0.000005
C26	C	1.596067	0.459493	0.500005
C27	C	1.094079	-0.142889	0.000006
C28	C	1.594079	0.357111	0.500006
C29	C	0.735491	0.130915	-0.000014
C30	C	1.235491	0.630915	0.499986
C31	C	0.631182	0.128888	-0.000014
C32	C	1.131182	0.628888	0.499986
C33	C	0.548043	0.127280	-0.000014
C34	C	1.048043	0.627280	0.499986
C35	C	0.443728	0.125253	-0.000017
C36	C	0.943728	0.625253	0.499983
C37	C	1.086759	-0.517785	-0.000028
C38	C	1.586759	-0.017785	0.499972
C39	C	1.088792	-0.413477	-0.000018
C40	C	1.588792	0.086523	0.499982
C41	C	1.090419	-0.330340	-0.000010
C42	C	1.590419	0.169660	0.499990
C43	C	1.092452	-0.226025	-0.000002
C44	C	1.592452	0.273975	0.499998
C45	C	1.258209	0.121649	-0.000008
C46	C	1.758209	0.621649	0.499992
C47	C	1.360589	0.123645	-0.000016
C48	C	1.860589	0.623645	0.499984
C49	C	1.083157	0.296688	-0.000022
C50	C	1.583157	0.796688	0.499978
C51	C	1.085146	0.399070	-0.000031
C52	C	1.585146	0.899070	0.499969
N53	N	1.089601	0.128082	0.308237
N54	N	1.589601	0.628082	0.808237
N55	N	1.089630	0.128092	-0.308250
N56	N	1.589630	0.628092	0.191750
C57	C	1.089615	0.128092	0.573907
C58	C	1.589615	0.628092	1.073907
C59	C	1.089604	0.128089	0.426069
C60	C	1.589604	0.628089	0.926069
