data_functionalizedCrystal
_audit_creation_method	'MofGen! by Chris Wilmer'
_symmetry_space_group_name_H-M	'P1'
_symmetry_Int_Tables_number	1
_symmetry_cell_setting	triclinic
loop_
_symmetry_equiv_pos_as_xyz
  x,y,z
_cell_length_a	8.497374
_cell_length_b	21.395362
_cell_length_c	21.395361
_cell_angle_alpha	89.953415
_cell_angle_beta	89.984309
_cell_angle_gamma	90.022954
loop_
_atom_site_label
_atom_site_type_symbol
_atom_site_fract_x
_atom_site_fract_y
_atom_site_fract_z
Zn1	Zn	0.892770	0.957730	0.249282
Zn2	Zn	0.628940	0.957670	0.354031
Zn3	Zn	0.628900	0.852983	0.249300
Zn4	Zn	0.892573	0.852914	0.354054
O5	O	0.760796	0.905324	0.301667
O6	O	0.857872	1.045400	0.263159
O7	O	0.408172	0.943788	0.340136
O8	O	0.663969	0.866931	0.161620
O9	O	0.664036	1.045356	0.340118
O10	O	0.857833	0.943888	0.161606
O11	O	0.408143	0.866874	0.263191
O12	O	0.663778	0.765296	0.263214
O13	O	1.113362	0.866814	0.340158
O14	O	0.857497	0.765245	0.340176
O15	O	1.113507	0.943821	0.263182
O16	O	0.663845	0.943721	0.441712
O17	O	0.857536	0.866756	0.441729
C18	C	0.760613	0.742537	0.301700
C19	C	0.760572	0.672895	0.301729
C20	C	0.760708	0.905241	0.464454
C21	C	0.760723	0.905263	0.534096
C22	C	0.861291	0.640172	0.341857
C23	C	0.861361	0.574737	0.341841
C24	C	0.760684	0.542027	0.301705
C25	C	0.659959	0.574758	0.261570
C26	C	0.659902	0.640192	0.261582
C27	C	0.618664	0.438323	0.296652
C28	C	0.618717	0.372890	0.296644
C29	C	0.760859	0.340206	0.301664
C30	C	0.902951	0.372964	0.306705
C31	C	0.902895	0.438398	0.306717
C32	C	0.760735	0.471075	0.301687
C33	C	0.861662	0.236531	0.341777
C34	C	0.861735	0.171094	0.341757
C35	C	0.660318	0.171117	0.261489
C36	C	0.660260	0.236552	0.261506
C37	C	0.760929	0.269255	0.301653
C38	C	1.172276	0.905320	0.301668
C39	C	1.350920	0.905321	0.301674
C40	C	0.760981	1.068747	0.301634
C41	C	0.761059	1.138389	0.301620
C42	C	0.760919	0.905424	0.138243
C43	C	0.760971	0.905467	0.068602
C44	C	0.659972	0.945374	0.566779
C45	C	0.660007	0.945403	0.632214
C46	C	0.760777	0.905310	0.664964
C47	C	0.861548	0.865197	0.632273
C48	C	0.861521	0.865173	0.566839
C49	C	0.773092	0.848894	0.768695
C50	C	0.773108	0.848917	0.834128
C51	C	0.760870	0.905383	0.866785
C52	C	0.748583	0.961830	0.834000
C53	C	0.748556	0.961806	0.768566
C54	C	0.760819	0.905332	0.735916
C55	C	0.660152	0.945529	0.970420
C56	C	0.660198	0.945559	1.035857
C57	C	0.861731	0.865347	1.035914
C58	C	0.861693	0.865323	0.970479
C59	C	0.760895	0.905413	0.937736
H60	H	0.943384	0.548088	0.374518
C61	C	0.972408	0.272507	0.385930
H62	H	1.032423	0.243643	0.409820
H63	H	0.911916	0.297987	0.413198
H64	H	1.041236	0.298077	0.362005
C65	C	0.786565	0.786777	0.732779
H66	H	0.793866	0.753164	0.761674
H67	H	0.878004	0.787551	0.707238
H68	H	0.696117	0.781290	0.707275
H69	H	0.943266	0.666795	0.374547
C70	C	0.462306	0.474269	0.291095
H71	H	0.377694	0.445390	0.288090
H72	H	0.464556	0.499819	0.254775
H73	H	0.448200	0.499766	0.326992
H74	H	1.018591	0.465066	0.310820
C75	C	0.972509	0.135098	0.385909
H76	H	1.032434	0.163949	0.409825
H77	H	1.041396	0.109613	0.361991
H78	H	0.912020	0.109531	0.413162
H79	H	0.577885	0.666835	0.228903
C80	C	0.549117	0.989478	0.530765
H81	H	0.489128	1.013376	0.559606
H82	H	0.480293	0.965529	0.505276
H83	H	0.609554	1.016752	0.505200
H84	H	0.943787	0.832706	1.062578
C85	C	0.549595	0.135144	0.217332
H86	H	0.564052	0.091486	0.223071
H87	H	0.572884	0.145921	0.175254
H88	H	0.443535	0.145822	0.226435
H89	H	0.577990	0.548122	0.228889
H90	H	0.578235	0.263195	0.228833
C91	C	0.972500	0.821192	0.934525
H92	H	1.032512	0.797314	0.963400
H93	H	1.041304	0.845124	0.908957
H94	H	0.912038	0.793903	0.909045
C95	C	0.549164	0.989522	0.668174
H96	H	0.489123	1.013391	0.639301
H97	H	0.609594	1.016811	0.693661
H98	H	0.480366	0.965575	0.693736
C99	C	0.972389	0.821095	0.668294
H100	H	0.957965	0.826849	0.711946
H101	H	1.078411	0.830224	0.657543
H102	H	0.949154	0.778999	0.657623
H103	H	0.503017	0.346224	0.292543
C104	C	0.549364	0.989683	1.071809
H105	H	0.489323	1.013550	1.042934
H106	H	0.609800	1.016975	1.097291
H107	H	0.480565	0.965742	1.097375
H108	H	0.783097	0.802954	0.860816
C109	C	0.972344	0.821046	0.530886
H110	H	1.032362	0.797169	0.559759
H111	H	1.041141	0.844980	0.505316
H112	H	0.911885	0.793755	0.505406
C113	C	0.735110	1.023948	0.869910
H114	H	0.727775	1.057559	0.841014
H115	H	0.825547	1.029438	0.895414
H116	H	0.643661	1.023171	0.895452
H117	H	1.018697	0.346354	0.310792
H118	H	0.738556	1.007766	0.741874
H119	H	0.578080	0.978175	0.943760
