data_functionalizedCrystal
_audit_creation_method	'MofGen! by Chris Wilmer'
_symmetry_space_group_name_H-M	'P1'
_symmetry_Int_Tables_number	1
_symmetry_cell_setting	triclinic
loop_
_symmetry_equiv_pos_as_xyz
  x,y,z
_cell_length_a	10.489741
_cell_length_b	15.995350
_cell_length_c	15.072220
_cell_angle_alpha	89.991149
_cell_angle_beta	90.000764
_cell_angle_gamma	95.984226
loop_
_atom_site_label
_atom_site_type_symbol
_atom_site_fract_x
_atom_site_fract_y
_atom_site_fract_z
O1	O	0.164400	-1.111987	0.073707
O2	O	0.184702	-0.868334	0.073725
O3	O	-0.011125	-0.995705	0.073710
O4	O	0.360226	-0.984616	0.073722
O5	O	-0.011114	-0.995673	-0.073855
O6	O	0.184713	-0.868303	-0.073840
O7	O	0.164411	-1.111955	-0.073858
Zn8	Zn	0.174563	-0.990124	-0.097278
Zn9	Zn	0.174549	-0.990166	0.097145
O10	O	0.360237	-0.984585	-0.073844
C11	C	0.183868	-0.837119	-0.000055
C12	C	0.181352	-0.744153	-0.000048
C13	C	-0.058639	-0.994852	-0.000072
C14	C	-0.200234	-0.992346	-0.000070
N15	N	0.174572	-0.990102	-0.229967
C16	C	-0.267240	-0.911304	-0.000057
C17	C	-0.359892	-0.949572	-0.072818
C18	C	-0.359878	-0.949622	0.072670
C19	C	-0.291022	-1.030647	-0.072890
C20	C	-0.290997	-1.030686	0.072663
C21	C	-0.383624	-1.069013	-0.000115
C22	C	0.407752	-0.985438	-0.000060
C23	C	0.549346	-0.987944	-0.000056
C24	C	0.165244	-1.143171	-0.000076
C25	C	0.167761	-1.236137	-0.000077
C26	C	0.172315	-0.406351	-0.000067
C27	C	0.032851	-0.452944	-0.000401
C28	C	0.035368	-0.549650	-0.000062
C29	C	0.176797	-0.573939	-0.000058
C30	C	0.245580	-0.533284	0.084207
C31	C	0.242076	-0.436628	0.084271
C32	C	0.244970	-0.436270	-0.083538
C33	C	0.244937	-0.533215	-0.084645
C34	C	0.179338	-0.668651	-0.000050
C35	C	0.169778	-0.311638	-0.000069
C36	C	0.174544	-0.990164	-0.589169
C37	C	0.278976	-0.921777	-0.551554
C38	C	0.279357	-0.921938	-0.448728
C39	C	0.174558	-0.990132	-0.410965
C40	C	0.203626	-1.077672	-0.448261
C41	C	0.204368	-1.077290	-0.551119
C42	C	0.040735	-0.971788	-0.551272
C43	C	0.041628	-0.969788	-0.448408
C44	C	0.174564	-0.990120	-0.310251
C45	C	0.174541	-0.990182	-0.689882
N46	N	0.174530	-0.990195	0.229834
H47	H	-0.216656	-0.844671	-0.000126
F48	F	0.185378	-0.409056	-0.167023
F49	F	-0.399794	-0.904736	-0.153214
H50	H	0.012784	-0.909296	-0.577258
H51	H	0.262038	-0.856894	-0.423513
F52	F	-0.251348	-1.075415	-0.153382
F53	F	0.256697	-0.836482	-0.583896
H54	H	-0.019074	-0.577192	0.060445
F55	F	0.379747	-0.554104	-0.091294
F56	F	-0.060844	-1.036959	-0.583065
H57	H	-0.018699	-0.577739	-0.060467
F58	F	0.012791	-0.885613	-0.416548
F59	F	0.176502	-0.412317	0.166600
F60	F	0.408039	-0.937025	-0.585309
F61	F	-0.251050	-1.075487	0.153063
F62	F	0.106851	-1.145822	-0.416291
F63	F	0.409157	-0.937358	-0.416549
H64	H	0.301954	-1.093361	-0.575099
F65	F	-0.040009	-0.428274	-0.079388
H66	H	-0.433981	-1.135706	-0.000160
F67	F	0.108631	-1.145796	-0.583643
F68	F	-0.399756	-0.904800	0.153068
F69	F	-0.039693	-0.426909	0.078141
F70	F	0.375907	-0.395282	0.089274
F71	F	0.381381	-0.552585	0.088323
H72	H	0.197798	-0.561384	0.146917
H73	H	0.300099	-1.094106	-0.422491
H74	H	0.194726	-0.560215	-0.146985
H75	H	0.347796	-0.405128	-0.084105
H76	H	-0.039726	-1.016301	-0.422705
