data_functionalizedCrystal
_audit_creation_method	'MofGen! by Chris Wilmer'
_symmetry_space_group_name_H-M	'P1'
_symmetry_Int_Tables_number	1
_symmetry_cell_setting	triclinic
loop_
_symmetry_equiv_pos_as_xyz
  x,y,z
_cell_length_a	8.965430
_cell_length_b	11.026607
_cell_length_c	11.026607
_cell_angle_alpha	71.413983
_cell_angle_beta	89.994070
_cell_angle_gamma	90.001780
loop_
_atom_site_label
_atom_site_type_symbol
_atom_site_fract_x
_atom_site_fract_y
_atom_site_fract_z
O1	O	-0.124036	-1.726732	0.533629
O2	O	-0.124038	-1.360152	0.472865
O3	O	-0.124032	-1.513060	0.319957
O4	O	-0.124042	-1.573823	0.686537
O5	O	0.124047	-1.513045	0.319937
O6	O	0.124041	-1.360137	0.472845
O7	O	0.124043	-1.726717	0.533608
Cu8	Cu	0.146694	-1.543426	0.503225
Cu9	Cu	-0.146688	-1.543443	0.503249
O10	O	0.124037	-1.573809	0.686517
C11	C	0.000001	-1.312485	0.461645
C12	C	0.000000	-1.170471	0.428228
N13	N	0.353043	-1.543422	0.503209
N14	N	-0.353038	-1.543454	0.503257
C15	C	0.549716	-1.613289	0.431642
C16	C	0.450236	-1.664118	0.552063
C17	C	0.450315	-1.492652	0.382809
C18	C	0.549671	-1.594354	0.623749
C19	C	0.549760	-1.422820	0.454409
C20	C	0.450324	-1.473620	0.574903
C21	C	0.000006	-1.501843	0.272287
C22	C	0.000000	-1.468426	0.130273
C23	C	0.000001	-1.774384	0.544828
C24	C	-0.000008	-1.916398	0.578245
C25	C	-0.000003	-1.116821	0.520498
C26	C	-0.000004	-0.970043	0.485962
C27	C	-0.000001	-1.560695	0.076624
C28	C	-0.000007	-1.526160	-0.070155
C29	C	-0.000004	-1.585026	0.734187
C30	C	-0.000008	-1.618443	0.876200
H31	H	0.406520	-1.766124	0.593365
H32	H	-0.000035	-1.107738	0.323666
O33	O	-0.000004	-1.199911	0.659007
H34	H	0.101114	-1.179252	0.707092
H35	H	-0.000040	-0.907314	0.381393
O36	O	-0.000008	-1.699204	0.159713
H37	H	-0.000023	-1.761541	0.098087
H38	H	-0.000001	-0.979125	0.682816
O39	O	-0.000011	-1.756958	-0.040712
H40	H	-0.101134	-1.805056	-0.061353
O41	O	0.000002	-1.387640	-0.153230
H42	H	0.000012	-1.382251	-0.255478
O43	O	0.000009	-1.329913	0.047194
H44	H	0.000019	-1.324524	-0.055054
H45	H	0.593132	-1.637417	0.725637
H46	H	0.406959	-1.414564	0.635528
O47	O	0.607739	-1.287740	0.399654
H48	H	0.512300	-1.220477	0.371471
O49	O	0.607554	-1.691615	0.351578
H50	H	0.567696	-1.791721	0.392407
O51	O	0.392509	-1.435734	0.247909
H52	H	0.432337	-1.493885	0.188686
