data_functionalizedCrystal
_audit_creation_method	'MofGen! by Chris Wilmer'
_symmetry_space_group_name_H-M	'P1'
_symmetry_Int_Tables_number	1
_symmetry_cell_setting	triclinic
loop_
_symmetry_equiv_pos_as_xyz
  x,y,z
_cell_length_a	16.992694
_cell_length_b	8.559649
_cell_length_c	15.455313
_cell_angle_alpha	92.289439
_cell_angle_beta	87.142206
_cell_angle_gamma	80.223444
loop_
_atom_site_label
_atom_site_type_symbol
_atom_site_fract_x
_atom_site_fract_y
_atom_site_fract_z
O1	O	1.023967	0.329735	-0.072017
O2	O	0.795905	0.326044	-0.072043
O3	O	0.930028	0.097853	-0.072027
O4	O	0.889844	0.557925	-0.072033
O5	O	0.922362	0.110845	0.072234
O6	O	0.788239	0.339035	0.072218
O7	O	1.016301	0.342726	0.072244
Cu8	Cu	0.901570	0.342067	0.085403
Cu9	Cu	0.910636	0.326703	-0.085202
O10	O	0.882177	0.570917	0.072228
C11	C	0.763145	0.327794	0.000084
C12	C	0.676954	0.313635	0.000075
C13	C	0.618488	0.450242	0.000073
C14	C	0.537502	0.436931	0.000086
C15	C	0.514985	0.287010	0.000093
C16	C	0.573459	0.150392	0.000096
C17	C	0.654442	0.163706	0.000090
C18	C	0.274709	0.231831	0.000117
C19	C	0.193718	0.218527	0.000120
C20	C	0.157767	0.505067	0.000111
C21	C	0.238755	0.518367	0.000099
C22	C	0.297221	0.381750	0.000108
N23	N	0.432205	0.273400	0.000102
N24	N	0.379998	0.395362	0.000104
C25	C	0.929241	0.045208	0.000102
C26	C	0.938306	-0.131015	0.000099
C27	C	1.049061	0.340976	0.000115
C28	C	1.135252	0.355134	0.000119
C29	C	0.882965	0.623562	0.000097
C30	C	0.873900	0.799784	0.000095
N31	N	0.895199	0.352873	0.205398
N32	N	0.917014	0.315885	-0.205197
C33	C	0.952194	0.255970	0.250799
C34	C	0.947382	0.264158	0.341606
C35	C	0.885578	0.369258	0.387011
C36	C	0.828576	0.466164	0.341604
C37	C	0.833386	0.457968	0.250798
C38	C	0.864822	0.404595	0.658590
C39	C	0.860018	0.412788	0.749402
C40	C	0.978824	0.210778	0.749398
C41	C	0.983631	0.202598	0.658591
C42	C	0.926627	0.299499	0.613191
N43	N	0.880659	0.377633	0.479831
N44	N	0.931543	0.291114	0.520373
H45	H	0.110156	0.616293	0.000106
C46	C	0.549134	-0.012494	-0.000033
C47	C	0.583632	-0.102387	-0.074240
C48	C	0.561253	-0.252456	-0.074387
H49	H	0.492548	-0.001089	-0.000077
H50	H	0.567154	-0.064734	0.050249
H51	H	0.565608	-0.050159	-0.124509
H52	H	0.640217	-0.113837	-0.074212
H53	H	0.579272	-0.304696	-0.024105
H54	H	0.504667	-0.241034	-0.074429
H55	H	0.584662	-0.313472	-0.124731
C56	C	0.791097	-0.099528	0.000259
C57	C	0.745745	-0.127025	0.074484
C58	C	0.669466	-0.034274	0.074670
H59	H	0.765452	-0.126990	-0.049993
H60	H	0.795764	0.009518	0.000301
H61	H	0.741075	-0.236047	0.074434
H62	H	0.771365	-0.099554	0.124747
H63	H	0.674133	0.074772	0.074712
H64	H	0.643829	-0.061744	0.024415
H65	H	0.638688	-0.052907	0.125035
H66	H	0.322303	0.120586	0.000124
H67	H	1.000384	-0.206593	0.000112
C68	C	1.019336	0.141699	0.201663
C69	C	1.068206	0.058558	0.260864
C70	C	1.130058	-0.046743	0.215635
H71	H	1.050250	0.199538	0.166228
H72	H	0.997224	0.068803	0.166268
H73	H	1.090317	0.131444	0.296244
H74	H	1.037316	0.000688	0.296302
H75	H	1.107947	-0.119638	0.180240
H76	H	1.160966	0.011108	0.180201
H77	H	1.163220	-0.103177	0.255796
H78	H	0.636813	0.572324	0.000067
C79	C	1.009154	0.158757	0.390939
C80	C	0.970810	0.061005	0.443065
C81	C	1.027693	-0.036132	0.488511
H82	H	1.036256	0.222992	0.426425
H83	H	1.046645	0.094911	0.350915
H84	H	0.933334	0.124844	0.483084
H85	H	0.943712	-0.003264	0.407600
H86	H	1.065184	-0.099978	0.448487
H87	H	1.054792	0.028115	0.523992
H88	H	1.001686	-0.102478	0.523877
H89	H	0.702046	0.052465	0.000091
H90	H	0.818408	0.483499	0.621633
H91	H	0.489900	0.548172	0.000084
C92	C	1.040684	0.105291	0.798582
C93	C	1.038629	-0.054142	0.776487
C94	C	1.095608	-0.151373	0.821770
H95	H	1.029036	0.125006	0.859178
H96	H	1.092385	0.127754	0.783676
H97	H	0.986939	-0.076596	0.791399
H98	H	1.050286	-0.073906	0.715899
H99	H	1.147310	-0.128911	0.806864
H100	H	1.083955	-0.131644	0.882364
H101	H	1.094227	-0.259558	0.806779
H102	H	0.257081	0.640447	0.000084
H103	H	1.033957	0.117017	0.621624
C104	C	0.169388	0.055636	-0.000006
C105	C	0.203884	-0.034272	-0.074209
C106	C	0.181494	-0.184331	-0.074352
H107	H	0.112802	0.067055	-0.000052
H108	H	0.187402	0.003397	0.050278
H109	H	0.185865	0.017954	-0.124480
H110	H	0.260469	-0.045736	-0.074178
H111	H	0.199508	-0.236569	-0.024068
H112	H	0.124908	-0.172895	-0.074397
H113	H	0.204902	-0.245356	-0.124694
H114	H	0.809687	0.498379	0.786366
C115	C	0.761556	0.580230	0.391054
C116	C	0.769555	0.566705	0.480296
C117	C	0.707837	0.671779	0.525874
H118	H	0.711409	0.555085	0.376288
H119	H	0.764421	0.685842	0.376211
H120	H	0.766682	0.461118	0.495133
H121	H	0.819689	0.591865	0.495088
H122	H	0.710702	0.777390	0.511031
H123	H	0.657694	0.646624	0.511101
H124	H	0.713260	0.662626	0.586429
C125	C	0.771452	0.563370	0.201659
C126	C	0.716309	0.657199	0.260856
C127	C	0.659247	0.754327	0.215622
H128	H	0.744292	0.499131	0.166242
H129	H	0.797313	0.629874	0.166244
H130	H	0.690450	0.590702	0.296255
H131	H	0.743444	0.721470	0.296274
H132	H	0.685108	0.820831	0.180207
H133	H	0.632094	0.690076	0.180206
H134	H	0.621830	0.818012	0.255779
