data_functionalizedCrystal
_audit_creation_method	'MofGen! by Chris Wilmer'
_symmetry_space_group_name_H-M	'P1'
_symmetry_Int_Tables_number	1
_symmetry_cell_setting	triclinic
loop_
_symmetry_equiv_pos_as_xyz
  x,y,z
_cell_length_a	11.026607
_cell_length_b	9.065218
_cell_length_c	8.140239
_cell_angle_alpha	90.001686
_cell_angle_beta	89.997756
_cell_angle_gamma	83.199049
loop_
_atom_site_label
_atom_site_type_symbol
_atom_site_fract_x
_atom_site_fract_y
_atom_site_fract_z
O1	O	1.616970	-0.619585	-0.136603
O2	O	1.950304	-0.286252	0.196731
O3	O	2.283637	0.047081	0.530064
O4	O	1.262889	-0.549033	-0.136606
O5	O	1.596222	-0.215700	0.196727
O6	O	1.929555	0.117634	0.530061
O7	O	1.447248	-0.371492	-0.136601
O8	O	1.780582	-0.038159	0.196732
O9	O	2.113915	0.295175	0.530066
O10	O	1.432611	-0.797126	-0.136608
O11	O	1.765944	-0.463793	0.196726
O12	O	2.099277	-0.130460	0.530059
O13	O	1.447238	-0.371487	0.136626
O14	O	1.780571	-0.038153	0.469960
O15	O	2.113905	0.295180	0.803293
O16	O	1.262878	-0.549028	0.136621
O17	O	1.596212	-0.215694	0.469954
O18	O	1.929545	0.117639	0.803288
O19	O	1.616960	-0.619580	0.136625
O20	O	1.950293	-0.286247	0.469958
O21	O	2.283627	0.047087	0.803291
Zn22	Zn	1.439918	-0.584303	0.180003
Zn23	Zn	1.773251	-0.250970	0.513337
Zn24	Zn	2.106584	0.082364	0.846670
Zn25	Zn	1.439931	-0.584310	-0.179985
Zn26	Zn	1.773265	-0.250977	0.153348
Zn27	Zn	2.106598	0.082357	0.486682
O28	O	1.432600	-0.797121	0.136619
O29	O	1.765934	-0.463788	0.469953
O30	O	2.099267	-0.130454	0.803286
C31	C	1.217530	-0.536015	0.000007
C32	C	1.550863	-0.202681	0.333340
C33	C	1.884196	0.130652	0.666674
C34	C	1.082389	-0.497214	0.000006
C35	C	1.415723	-0.163881	0.333339
C36	C	1.749056	0.169452	0.666672
C37	C	1.445836	-0.316152	0.000010
C38	C	1.779170	0.017182	0.333343
C39	C	2.112503	0.350515	0.666677
C40	C	1.441630	-0.151260	0.000002
C41	C	1.774963	0.182073	0.333335
C42	C	2.108297	0.515407	0.666669
N43	N	1.439917	-0.584300	0.425686
N44	N	1.773251	-0.250966	0.759019
N45	N	2.106584	0.082367	1.092353
C46	C	1.009761	-0.604348	0.000003
C47	C	1.343094	-0.271015	0.333336
C48	C	1.676428	0.062318	0.666669
C49	C	0.870086	-0.564249	0.000001
C50	C	1.203419	-0.230916	0.333335
C51	C	1.536753	0.102418	0.666668
C52	C	1.662319	-0.632598	0.000008
C53	C	1.995652	-0.299265	0.333341
C54	C	2.328986	0.034068	0.666675
C55	C	1.797460	-0.671399	-0.000001
C56	C	2.130793	-0.338065	0.333332
C57	C	2.464126	-0.004732	0.666665
C58	C	1.434012	-0.852461	0.000005
C59	C	1.767346	-0.519128	0.333338
C60	C	2.100679	-0.185795	0.666672
C61	C	1.438219	-1.017353	0.000002
C62	C	1.771552	-0.684020	0.333335
C63	C	2.104885	-0.350686	0.666669
N64	N	1.439941	-0.584304	-0.425668
N65	N	1.773274	-0.250971	-0.092334
N66	N	2.106608	0.082363	0.240999
H67	H	1.050987	-0.725756	0.000010
H68	H	1.384320	-0.392423	0.333344
H69	H	1.717654	-0.059089	0.666677
O70	O	0.815503	-0.403415	0.000004
O71	O	1.148836	-0.070081	0.333337
O72	O	1.482170	0.263252	0.666671
H73	H	0.714363	-0.397157	-0.000007
H74	H	1.047696	-0.063824	0.333326
H75	H	1.381029	0.269509	0.666659
O76	O	1.027790	-0.336392	0.000021
O77	O	1.361123	-0.003059	0.333354
O78	O	1.694456	0.330274	0.666688
H79	H	1.102238	-0.264013	0.000038
H80	H	1.435571	0.069320	0.333372
H81	H	1.768905	0.402653	0.666705
H82	H	0.838678	-0.792815	0.000007
H83	H	1.172011	-0.459481	0.333341
H84	H	1.505345	-0.126148	0.666674
