data_functionalizedCrystal
_audit_creation_method	'MofGen! by Chris Wilmer'
_symmetry_space_group_name_H-M	'P1'
_symmetry_Int_Tables_number	1
_symmetry_cell_setting	triclinic
loop_
_symmetry_equiv_pos_as_xyz
  x,y,z
_cell_length_a	18.101398
_cell_length_b	18.050590
_cell_length_c	18.101390
_cell_angle_alpha	89.966356
_cell_angle_beta	89.975319
_cell_angle_gamma	90.013819
loop_
_atom_site_label
_atom_site_type_symbol
_atom_site_fract_x
_atom_site_fract_y
_atom_site_fract_z
Zn1	Zn	1.132188	-0.295725	-0.418835
Zn2	Zn	1.132110	-0.419930	-0.294992
Zn3	Zn	1.008346	-0.295749	-0.294996
Zn4	Zn	1.008325	-0.419867	-0.418780
O5	O	1.070243	-0.357818	-0.356901
O6	O	1.235811	-0.312217	-0.402428
O7	O	1.115669	-0.403494	-0.191360
O8	O	1.024816	-0.191821	-0.311448
O9	O	1.235754	-0.403471	-0.311441
O10	O	1.115802	-0.191803	-0.402432
O11	O	1.024740	-0.312258	-0.191363
O12	O	0.904711	-0.312197	-0.311395
O13	O	1.024779	-0.403363	-0.522421
O14	O	0.904695	-0.403386	-0.402339
O15	O	1.115781	-0.312156	-0.522461
O16	O	1.115649	-0.523847	-0.311388
O17	O	1.024704	-0.523800	-0.402335
C18	C	0.877832	-0.357788	-0.356862
C19	C	0.795518	-0.357793	-0.356863
C20	C	1.070186	-0.550770	-0.356871
C21	C	1.070229	-0.633316	-0.356883
C22	C	0.496427	-0.357839	-0.356926
C23	C	0.527737	-0.300178	-0.299985
C24	C	0.613355	-0.300333	-0.299742
C25	C	0.644809	-0.357815	-0.356895
C26	C	0.613708	-0.436048	-0.335569
C27	C	0.528063	-0.435728	-0.335173
C28	C	0.528038	-0.337947	-0.435325
C29	C	0.613688	-0.336205	-0.434897
C30	C	0.728669	-0.357807	-0.356878
C31	C	0.412567	-0.357853	-0.356940
C32	C	1.119788	-0.832765	-0.307496
C33	C	1.137877	-0.882092	-0.375087
C34	C	1.070271	-0.784446	-0.356913
C35	C	1.052257	-0.882200	-0.289352
C36	C	1.070313	-0.930431	-0.356936
C37	C	1.088396	-0.832687	-0.424540
C38	C	1.002743	-0.832790	-0.338759
C39	C	1.020807	-0.882095	-0.406397
C40	C	1.070249	-0.700348	-0.356899
C41	C	1.070335	-1.014528	-0.356957
C42	C	1.263404	-0.357849	-0.356940
C43	C	1.345718	-0.357862	-0.356957
C44	C	1.070287	-0.357750	-0.550063
C45	C	1.070305	-0.357721	-0.632377
C46	C	1.070320	-0.164112	-0.356947
C47	C	1.070353	-0.081566	-0.356966
C48	C	1.070345	-0.357675	-0.931468
C49	C	1.127790	-0.300492	-0.900168
C50	C	1.127610	-0.300280	-0.814550
C51	C	1.070326	-0.357698	-0.783086
C52	C	0.992305	-0.336428	-0.814152
C53	C	0.992649	-0.336000	-0.899798
C54	C	1.090235	-0.436274	-0.899881
C55	C	1.091947	-0.435873	-0.814231
C56	C	1.070310	-0.357712	-0.699226
C57	C	1.070356	-0.357659	-1.015328
C58	C	1.070241	-0.357832	-0.164490
C59	C	1.070366	-0.357651	-0.082177
H60	H	0.634383	-0.242320	-0.313110
H61	H	1.114444	-0.242052	-0.794077
H62	H	1.161676	-0.811103	-0.265748
C63	C	0.642610	-0.388811	-0.495284
N64	N	0.664393	-0.428441	-0.540765
C65	C	1.109098	-0.803433	-0.501762
N66	N	1.124695	-0.781397	-0.559924
H67	H	0.507351	-0.480145	-0.374837
H68	H	1.185833	-0.313648	-0.920775
C69	C	1.165781	-0.462407	-0.929073
N70	N	1.222685	-0.482081	-0.951060
C71	C	0.964259	-0.911173	-0.462931
N72	N	0.921669	-0.933075	-0.505514
C73	C	0.969900	-0.258371	-0.926805
N74	N	0.952778	-0.199896	-0.947144
H75	H	1.048399	-0.478882	-0.920127
C76	C	1.110226	-0.222265	-0.929260
N77	N	1.096995	-0.163346	-0.951172
C78	C	0.641242	-0.495647	-0.389834
N79	N	0.661986	-0.540537	-0.430706
H80	H	1.037003	-0.903948	-0.232207
C81	C	0.925596	-0.803498	-0.317965
N82	N	0.867489	-0.781432	-0.302293
C83	C	0.642635	-0.459231	-0.258973
N84	N	0.664421	-0.476687	-0.201278
H85	H	0.506190	-0.313180	-0.242230
C86	C	1.169513	-0.457545	-0.786796
N87	N	1.227935	-0.473867	-0.766126
C88	C	1.205777	-0.318242	-0.786174
N89	N	1.264657	-0.331761	-0.764805
C90	C	0.498886	-0.262215	-0.461515
N91	N	0.476930	-0.205169	-0.481232
C92	C	0.499928	-0.221564	-0.317841
N93	N	0.478976	-0.162350	-0.331291
H94	H	1.195002	-0.903751	-0.390456
C95	C	0.500681	-0.394681	-0.492642
N96	N	0.480071	-0.437414	-0.535807
C97	C	0.640994	-0.318103	-0.221261
N98	N	0.661810	-0.331491	-0.162146
H99	H	0.948391	-0.375837	-0.920501
H100	H	1.053151	-0.480769	-0.792810
C101	C	0.641145	-0.258424	-0.456618
N102	N	0.661828	-0.199838	-0.472975
H103	H	0.948342	-0.376795	-0.793769
H104	H	0.975139	-0.279611	-0.792713
H105	H	0.508055	-0.452597	-0.277859
