data_functionalizedCrystal
_audit_creation_method	'MofGen! by Chris Wilmer'
_symmetry_space_group_name_H-M	'P1'
_symmetry_Int_Tables_number	1
_symmetry_cell_setting	triclinic
loop_
_symmetry_equiv_pos_as_xyz
  x,y,z
_cell_length_a	11.792241
_cell_length_b	10.540539
_cell_length_c	10.268362
_cell_angle_alpha	89.996859
_cell_angle_beta	89.999626
_cell_angle_gamma	84.359454
loop_
_atom_site_label
_atom_site_type_symbol
_atom_site_fract_x
_atom_site_fract_y
_atom_site_fract_z
O1	O	1.507362	0.173992	-0.108167
O2	O	2.007362	0.673992	0.391833
O3	O	1.177067	0.191924	-0.108197
O4	O	1.677067	0.691924	0.391803
O5	O	1.349750	-0.001773	-0.108180
O6	O	1.849750	0.498227	0.391820
O7	O	1.334679	0.367689	-0.108184
O8	O	1.834679	0.867689	0.391816
O9	O	1.349735	-0.001781	0.108421
O10	O	1.849735	0.498219	0.608421
O11	O	1.177052	0.191916	0.108404
O12	O	1.677052	0.691916	0.608404
O13	O	1.507347	0.173984	0.108433
O14	O	2.007347	0.673984	0.608433
Cu15	Cu	1.342198	0.182949	0.128196
Cu16	Cu	1.842198	0.682949	0.628196
Cu17	Cu	1.342216	0.182959	-0.127959
Cu18	Cu	1.842216	0.682959	0.372041
O19	O	1.334664	0.367681	0.108416
O20	O	1.834664	0.867681	0.608416
C21	C	1.134766	0.190793	0.000100
C22	C	1.634766	0.690793	0.500100
C23	C	1.008743	0.187422	0.000088
C24	C	1.508743	0.687422	0.500088
C25	C	0.778015	0.181223	0.000126
C26	C	1.278015	0.681223	0.500126
C27	C	0.906409	0.184667	0.000105
C28	C	1.406409	0.684667	0.500105
C29	C	1.348612	-0.049076	0.000118
C30	C	1.848612	0.450924	0.500118
C31	C	1.345231	-0.190014	0.000111
C32	C	1.845231	0.309986	0.500111
C33	C	1.215660	-0.373018	-0.000387
C34	C	1.715660	0.126982	0.499613
C35	C	1.219087	-0.226411	0.000101
C36	C	1.719087	0.273589	0.500101
C37	C	1.405928	-0.251874	0.123806
C38	C	1.905928	0.248126	0.623806
C39	C	1.401623	-0.398404	0.123910
C40	C	1.901623	0.101596	0.623910
C41	C	1.404206	-0.398921	-0.122405
C42	C	1.904206	0.101079	0.377595
C43	C	1.405368	-0.251943	-0.124041
C44	C	1.905368	0.248057	0.375959
C45	C	1.549648	0.175114	0.000134
C46	C	2.049648	0.675114	0.500134
C47	C	1.675671	0.178486	0.000137
C48	C	2.175671	0.678486	0.500137
C49	C	1.335802	0.414984	0.000116
C50	C	1.835802	0.914984	0.500116
C51	C	1.339183	0.555921	0.000114
C52	C	1.839183	1.055921	0.500114
N53	N	1.342194	0.182942	0.308362
N54	N	1.842194	0.682942	0.808362
N55	N	1.342229	0.182956	-0.308125
N56	N	1.842229	0.682956	0.191875
C57	C	1.342210	0.182956	0.574032
C58	C	1.842210	0.682956	1.074032
C59	C	1.342197	0.182952	0.426195
C60	C	1.842197	0.682952	0.926195
H61	H	1.165836	-0.401453	-0.089091
H62	H	1.665836	0.098547	0.410909
N63	N	1.153402	-0.410724	0.110257
N64	N	1.653402	0.089276	0.610257
N65	N	1.199610	-0.489702	0.189479
N66	N	1.699610	0.010298	0.689479
H67	H	1.155643	-0.516336	0.267624
H68	H	1.655643	-0.016336	0.767624
H69	H	1.170980	-0.184502	0.088910
H70	H	1.670980	0.315498	0.588910
N71	N	1.353038	-0.198285	0.239290
N72	N	1.853038	0.301715	0.739290
N73	N	1.409991	-0.141601	0.319329
N74	N	1.909991	0.358399	0.819329
H75	H	1.372633	-0.103756	0.400889
H76	H	1.872633	0.396244	0.900889
H77	H	1.171327	-0.183649	-0.088569
H78	H	1.671327	0.316351	0.411431
H79	H	1.492343	-0.446668	0.129529
H80	H	1.992343	0.053332	0.629529
H81	H	1.356752	-0.426461	0.216366
H82	H	1.856752	0.073539	0.716366
H83	H	1.363386	-0.430338	-0.216158
H84	H	1.863386	0.069662	0.283842
H85	H	1.498564	-0.229821	0.128413
H86	H	1.998564	0.270179	0.628413
N87	N	1.349718	-0.200402	-0.238831
N88	N	1.849718	0.299598	0.261169
N89	N	1.266078	-0.118361	-0.229342
N90	N	1.766078	0.381639	0.270658
H91	H	1.226771	-0.081952	-0.310410
H92	H	1.726771	0.418048	0.189590
N93	N	1.520733	-0.221904	-0.133406
N94	N	2.020733	0.278096	0.366594
N95	N	1.560689	-0.154068	-0.048346
N96	N	2.060689	0.345932	0.451654
H97	H	1.642169	-0.132847	-0.054955
H98	H	2.142169	0.367153	0.445045
N99	N	1.518509	-0.458526	-0.123415
N100	N	2.018509	0.041474	0.376585
N101	N	1.552070	-0.533952	-0.034389
N102	N	2.052070	-0.033952	0.465611
H103	H	1.632795	-0.576048	-0.035088
H104	H	2.132795	-0.076048	0.464912
