data_functionalizedCrystal
_audit_creation_method	'MofGen! by Chris Wilmer'
_symmetry_space_group_name_H-M	'P1'
_symmetry_Int_Tables_number	1
_symmetry_cell_setting	triclinic
loop_
_symmetry_equiv_pos_as_xyz
  x,y,z
_cell_length_a	27.440280
_cell_length_b	27.440279
_cell_length_c	14.560438
_cell_angle_alpha	60.013680
_cell_angle_beta	90.004910
_cell_angle_gamma	60.004754
loop_
_atom_site_label
_atom_site_type_symbol
_atom_site_fract_x
_atom_site_fract_y
_atom_site_fract_z
Zr1	Zr	-0.063843	0.533294	0.885075
O2	O	-0.141639	0.634941	0.738473
O3	O	-0.040010	0.431651	0.929971
O4	O	-0.141662	0.533302	0.930010
O5	O	0.040215	0.533282	0.738455
O6	O	-0.141662	0.533303	1.081148
O7	O	-0.039987	0.533290	0.738435
O8	O	0.040174	0.351468	1.081079
O9	O	-0.141621	0.715116	0.738524
O10	O	-0.029828	0.473457	1.061966
O11	O	0.030027	0.473450	0.949188
O12	O	-0.089655	0.593131	0.949234
O13	O	-0.029800	0.593124	0.836456
Zr14	Zr	0.064069	0.533283	1.126155
Zr15	Zr	-0.063844	0.533296	1.126123
Zr16	Zr	0.064070	0.533281	0.885107
Zr17	Zr	-0.063815	0.661165	0.885156
Zr18	Zr	0.064041	0.405412	1.126074
O19	O	0.040236	0.634925	1.081259
O20	O	-0.141640	0.634944	1.081213
O21	O	0.040237	0.634922	0.738520
O22	O	0.141864	0.431636	1.272757
O23	O	-0.040012	0.431654	1.272711
O24	O	0.141866	0.431633	0.930018
O25	O	-0.039989	0.533295	1.272775
O26	O	0.141887	0.533275	1.081220
O27	O	0.141888	0.533273	0.930082
O28	O	0.040213	0.533286	1.272796
O29	O	-0.141622	0.715118	0.930125
O30	O	0.141848	0.351458	1.081105
O31	O	0.141847	0.351460	1.272706
O32	O	0.040173	0.351470	1.272680
O33	O	-0.039947	0.715106	0.738550
O34	O	-0.039948	0.715108	0.930151
O35	O	0.089880	0.473445	1.061996
O36	O	0.030026	0.473452	1.174774
O37	O	-0.029801	0.593126	1.062042
O38	O	0.030053	0.593119	0.949264
C39	C	0.000078	0.373341	1.005514
C40	C	0.000066	0.319056	1.005479
C41	C	0.031360	0.084294	0.946732
C42	C	0.031352	0.135324	0.946710
O43	O	0.057935	0.161697	0.896666
N44	N	0.000101	0.160853	1.005563
C45	C	-0.031139	0.135344	1.064451
O46	O	-0.057721	0.161743	1.114509
C47	C	-0.031127	0.084311	1.064479
C48	C	0.000121	0.058790	1.005613
C49	C	0.062606	0.058772	0.887872
C50	C	0.062613	0.007746	0.887892
C51	C	0.031374	-0.017758	0.946773
C52	C	0.000127	0.007764	1.005634
C53	C	-0.062364	0.058799	1.123373
C54	C	-0.062349	0.007763	1.123397
C55	C	-0.031101	-0.017758	1.064531
C56	C	-0.031105	-0.068766	1.064535
N57	N	0.000146	-0.094294	1.005682
C58	C	0.031385	-0.068790	0.946801
C59	C	-0.031161	0.242515	1.064390
C60	C	-0.031176	0.293550	1.064356
C61	C	0.031316	0.293526	0.946616
C62	C	0.031328	0.242493	0.946644
C63	C	0.000090	0.216986	1.005537
C64	C	0.031397	-0.175948	0.946848
C65	C	0.031399	-0.226976	0.946870
C66	C	-0.031091	-0.226950	1.064614
C67	C	-0.031095	-0.175924	1.064588
C68	C	0.000153	-0.150425	1.005703
O69	O	-0.057672	-0.095173	1.114557
O70	O	0.057969	-0.095202	0.896764
C71	C	-0.159887	0.533304	1.005574
C72	C	-0.214190	0.533310	1.005561
C73	C	-0.550887	0.533273	1.088909
C74	C	-0.601905	0.533268	1.088919
O75	O	-0.628280	0.533243	1.159757
N76	N	-0.627422	0.533269	1.005655
C77	C	-0.601916	0.533267	0.922382
O78	O	-0.628305	0.533267	0.851560
C79	C	-0.550897	0.533267	0.922377
C80	C	-0.525385	0.533274	1.005641
C81	C	-0.525375	0.533279	1.172166
C82	C	-0.474362	0.533285	1.172155
C83	C	-0.448860	0.533286	1.088886
C84	C	-0.474372	0.533280	1.005629
C85	C	-0.525388	0.533261	0.839110
C86	C	-0.474365	0.533261	0.839113
C87	C	-0.448854	0.533267	0.922376
C88	C	-0.397856	0.533287	0.922349
N89	N	-0.372338	0.533287	1.005613
C90	C	-0.397840	0.533286	1.088882
C91	C	-0.709059	0.533266	0.922398
C92	C	-0.760080	0.533271	0.922397
C93	C	-0.760065	0.533271	1.088936
C94	C	-0.709046	0.533271	1.088932
C95	C	-0.683542	0.533265	1.005663
C96	C	-0.290708	0.533300	1.088851
C97	C	-0.239691	0.533309	1.088829
C98	C	-0.239709	0.533306	0.922294
C99	C	-0.290723	0.533300	0.922312
C100	C	-0.316220	0.533295	1.005600
O101	O	-0.371447	0.533310	0.851550
O102	O	-0.371441	0.533278	1.159700
C103	C	0.160113	0.533272	1.005656
C104	C	0.214415	0.533267	1.005670
C105	C	0.000114	0.533285	0.704101
C106	C	0.000114	0.533285	0.601770
C107	C	0.000148	0.693235	1.005717
C108	C	0.000160	0.747520	1.005751
C109	C	0.031341	0.470817	0.612536
C110	C	0.031342	0.470821	0.516381
C111	C	-0.031117	0.595764	0.398696
C112	C	-0.031113	0.595760	0.494850
C113	C	0.000112	0.533291	1.307130
C114	C	0.000111	0.533292	1.409461
C115	C	0.000077	0.373343	1.307028
C116	C	0.000064	0.319060	1.409325
C117	C	0.160078	0.373325	1.005554
C118	C	0.214368	0.319035	1.005534
C119	C	0.160076	0.373327	1.307069
C120	C	0.214367	0.319038	1.409379
C121	C	-0.159851	0.693249	0.704162
C122	C	-0.214141	0.747538	0.601851
C123	C	0.000149	0.693233	0.704202
C124	C	0.000161	0.747517	0.601905
C125	C	-0.159852	0.693252	1.005676
C126	C	-0.214143	0.747542	1.005697
C127	C	-0.031190	0.293570	1.398480
C128	C	-0.031213	0.242572	1.494589
C129	C	0.000021	0.217061	1.601543
C130	C	0.031276	0.242555	1.612385
C131	C	0.031296	0.293556	1.516277
C132	C	0.271112	0.293537	1.064409
C133	C	0.322129	0.242533	1.064385
C134	C	0.316400	0.217024	1.005492
C135	C	0.259651	0.242526	0.946610
C136	C	0.208635	0.293533	0.946628
C137	C	0.208618	0.293547	1.516304
C138	C	0.259625	0.242544	1.612445
C139	C	0.316379	0.217029	1.601659
C140	C	0.322126	0.242525	1.494722
C141	C	0.271120	0.293531	1.398584
C142	C	-0.208393	0.773035	0.494926
C143	C	-0.259399	0.824055	0.398785
C144	C	-0.316154	0.849572	0.409572
C145	C	-0.321901	0.824073	0.516508
C146	C	-0.270895	0.773058	0.612646
C147	C	0.031410	0.773011	0.612750
C148	C	0.031419	0.824024	0.516641
C149	C	0.000183	0.849537	0.409688
C150	C	-0.031069	0.824040	0.398845
C151	C	-0.031082	0.773032	0.494953
C152	C	-0.208395	0.773034	1.064601
C153	C	-0.259402	0.824039	1.064642
C154	C	-0.316156	0.849553	1.005772
C155	C	-0.321902	0.824056	0.946866
C156	C	-0.270896	0.773049	0.946832
H157	H	0.056845	-0.247751	0.898929
H158	H	0.254935	0.221790	1.699509
O159	O	-0.214921	0.533395	0.841386
C160	C	-0.215097	0.592756	0.780471
H161	H	-0.217353	0.612552	0.834117
H162	H	-0.172544	0.579403	0.757818
H163	H	-0.255536	0.634312	0.700221
O164	O	0.366021	0.167451	1.005642
C165	C	0.417330	0.150432	1.070219
H166	H	0.405611	0.164495	1.132473
H167	H	0.453356	0.092782	1.118130
H168	H	0.434515	0.180258	1.012275
O169	O	-0.061484	0.318402	1.294509
C170	C	-0.054785	0.368898	1.211989
H171	H	-0.012585	0.360515	1.249458
H172	H	-0.051213	0.364758	1.137841
H173	H	-0.095138	0.422252	1.181942
O174	O	-0.061484	-0.251636	1.121833
C175	C	-0.089054	-0.218186	1.173814
H176	H	-0.095253	-0.166472	1.127627
H177	H	-0.134426	-0.209420	1.170671
H178	H	-0.059777	-0.251616	1.265177
H179	H	-0.056665	0.221820	1.485739
H180	H	0.056771	0.419953	0.525158
H181	H	-0.368116	0.844856	0.525277
O182	O	0.061796	0.217607	0.889659
C183	C	0.122766	0.188138	0.932959
H184	H	0.133789	0.172888	1.022661
H185	H	0.151046	0.140470	0.932886
H186	H	0.132765	0.227224	0.878345
O187	O	0.254197	0.217635	0.889525
C188	C	0.311397	0.167154	0.902135
H189	H	0.345204	0.144871	0.981636
H190	H	0.310840	0.124226	0.908895
H191	H	0.324400	0.191544	0.826073
H192	H	0.056775	0.419946	0.699591
H193	H	0.275787	0.314300	1.112366
H194	H	0.368332	0.221774	1.112338
O195	O	-0.061445	0.656387	0.294752
C196	C	-0.054742	0.642998	0.212190
H197	H	-0.043249	0.589312	0.249624
H198	H	-0.098222	0.682899	0.138064
H199	H	-0.017336	0.645956	0.182121
O200	O	0.061736	0.848874	0.526988
C201	C	0.055066	0.899354	0.419235
H202	H	0.012868	0.921685	0.355495
H203	H	0.051511	0.942250	0.420351
H204	H	0.095425	0.874950	0.394726
O205	O	-0.214970	0.533283	1.169828
C206	C	-0.248430	0.533296	1.243308
H207	H	-0.273948	0.511595	1.239338
H208	H	-0.217051	0.500026	1.332885
H209	H	-0.281346	0.588275	1.217122
H210	H	-0.056541	0.646631	0.486075
H211	H	-0.056501	0.844820	0.311751
O212	O	0.153560	0.318196	0.889427
C213	C	0.159452	0.284749	0.837430
H214	H	0.204977	0.233054	0.883592
H215	H	0.122867	0.275947	0.840592
H216	H	0.155275	0.318200	0.746061
H217	H	-0.368118	0.844837	0.898936
O218	O	0.365878	0.167544	1.695138
C219	C	0.365788	0.192485	1.759551
H220	H	0.318149	0.235884	1.738508
H221	H	0.384537	0.148930	1.852800
H222	H	0.394604	0.212809	1.739432
O223	O	0.093051	-0.017078	0.830815
C224	C	0.154025	-0.046534	0.874033
H225	H	0.165099	-0.061863	0.963779
H226	H	0.182290	-0.094151	0.873819
H227	H	0.163991	-0.007410	0.819449
O228	O	-0.315571	0.533389	1.169609
C229	C	-0.374753	0.592748	1.118698
H230	H	-0.392302	0.612531	1.027768
H231	H	-0.403948	0.579398	1.166535
H232	H	-0.375865	0.634313	1.120622
H233	H	0.000001	0.175532	1.679791
H234	H	-0.275584	0.752298	0.898860
H235	H	0.056841	-0.155192	0.898895
H236	H	0.056706	0.221777	1.699480
O237	O	0.061716	0.318211	1.527021
C238	C	0.089266	0.284763	1.642032
H239	H	0.095426	0.233072	1.693260
H240	H	0.134656	0.275953	1.655462
H241	H	0.059996	0.318218	1.670377
H242	H	0.088048	0.079531	0.839924
O243	O	-0.153221	0.748160	0.484632
C244	C	-0.109426	0.697677	0.592406
H245	H	-0.129311	0.675365	0.656118
H246	H	-0.070090	0.654768	0.591316
H247	H	-0.093462	0.722073	0.616930
H248	H	-0.275582	0.752298	0.699707
H249	H	0.162411	0.314314	1.525108
O250	O	0.061656	0.318357	0.889520
C251	C	0.054931	0.368883	0.902105
H252	H	0.043417	0.360522	0.981608
H253	H	0.098408	0.364758	0.908843
H254	H	0.017530	0.422223	0.826041
O255	O	0.377303	0.217636	1.484454
C256	C	0.421083	0.167161	1.592245
H257	H	0.401180	0.144874	1.655943
H258	H	0.460420	0.124234	1.591195
H259	H	0.437050	0.191558	1.616759
O260	O	0.276815	0.318187	1.294803
C261	C	0.337846	0.284736	1.305913
H262	H	0.365035	0.233042	1.391700
H263	H	0.344968	0.275928	1.236970
H264	H	0.352887	0.318185	1.298053
H265	H	-0.688277	0.533275	1.156732
O266	O	-0.253703	0.848717	0.295001
C267	C	-0.192672	0.815257	0.306109
H268	H	-0.165486	0.763558	0.391888
H269	H	-0.185558	0.806459	0.237154
H270	H	-0.177620	0.848694	0.298266
H271	H	-0.780854	0.533276	0.854586
O272	O	-0.365719	0.899019	1.005933
C273	C	-0.399922	0.874112	1.052699
H274	H	-0.369988	0.815383	1.108993
H275	H	-0.420580	0.894147	1.104639
H276	H	-0.436855	0.892664	0.982283
H277	H	-0.357681	0.891111	0.331280
O278	O	-0.061612	0.318451	1.121351
C279	C	-0.105449	0.389923	1.045779
H280	H	-0.117052	0.403865	0.957092
H281	H	-0.147170	0.404587	1.071301
H282	H	-0.087573	0.419109	1.047836
H283	H	-0.056527	0.752275	0.486107
O284	O	-0.061566	0.217843	1.121606
C285	C	-0.089137	0.251312	1.173561
H286	H	-0.095321	0.303017	1.127365
H287	H	-0.134516	0.260096	1.170401
H288	H	-0.059868	0.217887	1.264928
H289	H	0.056850	0.752243	0.699829
O290	O	-0.784801	0.533142	1.169924
C291	C	-0.784647	0.473795	1.230791
H292	H	-0.748531	0.432315	1.222612
H293	H	-0.775262	0.453869	1.323205
H294	H	-0.830022	0.487211	1.195778
O295	O	-0.253919	0.848861	1.121838
C296	C	-0.311103	0.899363	1.109236
H297	H	-0.344931	0.890993	1.087558
H298	H	-0.310526	0.895217	1.191189
H299	H	-0.324094	0.952714	1.038773
H300	H	0.000198	0.891071	0.331439
H301	H	-0.087808	0.079571	1.171308
H302	H	-0.688299	0.533267	0.854582
O303	O	-0.449640	0.533253	1.253156
C304	C	-0.483105	0.533266	1.326629
H305	H	-0.508626	0.511572	1.322642
H306	H	-0.451728	0.499991	1.416210
H307	H	-0.516018	0.588245	1.300448
H308	H	-0.056547	-0.155137	1.112509
O309	O	-0.092747	-0.016916	1.180624
C310	C	-0.120313	0.016543	1.232594
H311	H	-0.126501	0.068251	1.186402
H312	H	-0.165690	0.025322	1.229443
H313	H	-0.091039	-0.016886	1.323958
O314	O	-0.550105	0.533159	1.253149
C315	C	-0.549959	0.473818	1.314045
H316	H	-0.513851	0.432329	1.305874
H317	H	-0.540567	0.453902	1.406455
H318	H	-0.595339	0.487238	1.279052
H319	H	-0.546152	0.533255	0.771310
H320	H	-0.453601	0.533254	0.771306
H321	H	-0.311500	0.533305	0.854502
H322	H	-0.162188	0.752269	1.112540
