data_functionalizedCrystal
_audit_creation_method	'MofGen! by Chris Wilmer'
_symmetry_space_group_name_H-M	'P1'
_symmetry_Int_Tables_number	1
_symmetry_cell_setting	triclinic
loop_
_symmetry_equiv_pos_as_xyz
  x,y,z
_cell_length_a	10.967904
_cell_length_b	16.109301
_cell_length_c	9.482899
_cell_angle_alpha	99.328250
_cell_angle_beta	87.459449
_cell_angle_gamma	95.902985
loop_
_atom_site_label
_atom_site_type_symbol
_atom_site_fract_x
_atom_site_fract_y
_atom_site_fract_z
O1	O	-1.572671	0.171488	0.514931
O2	O	-1.223466	0.173327	0.427442
O3	O	-1.407664	0.051689	0.473576
O4	O	-1.388473	0.293125	0.468798
O5	O	-1.445110	0.026901	0.241162
O6	O	-1.260913	0.148538	0.195029
O7	O	-1.610117	0.146699	0.282517
Cu8	Cu	-1.438934	0.145355	0.217552
Cu9	Cu	-1.394649	0.174671	0.492408
O10	O	-1.425920	0.268336	0.236384
C11	C	-1.197504	0.158927	0.300040
C12	C	-1.064357	0.152943	0.266681
C13	C	-0.985598	0.163116	0.372206
C14	C	-0.847982	0.156930	0.337730
C15	C	-1.425610	0.008295	0.357174
C16	C	-1.423280	-0.084077	0.356588
C17	C	-1.527157	-0.302938	0.382636
C18	C	-1.524956	-0.389729	0.382096
C19	C	-1.306416	-0.377028	0.327338
C20	C	-1.308616	-0.290237	0.327888
C21	C	-1.418991	-0.253195	0.355530
C22	C	-1.414591	-0.426777	0.354441
C23	C	-1.412204	-0.520880	0.353856
C24	C	-1.421378	-0.159086	0.356118
C25	C	-0.636078	0.161104	0.409918
C26	C	-0.769224	0.167105	0.443270
C27	C	-1.407973	0.311731	0.352789
C28	C	-1.410301	0.404104	0.353384
N29	N	-1.363503	0.195283	0.685727
N30	N	-1.470091	0.124736	0.024235
C31	C	-1.403840	0.168578	0.935443
C32	C	-1.429763	0.151435	0.774518
H33	H	-0.813536	0.143646	0.221856
H34	H	-1.020048	0.176408	0.488072
H35	H	-1.617031	-0.272781	0.405147
Br36	Br	-0.826618	0.189271	0.636406
H37	H	-1.029904	0.139659	0.150814
Br38	Br	-1.596630	0.041026	0.952386
Br39	Br	-1.671758	-0.457234	0.418892
Br40	Br	-1.277318	0.252304	1.007291
H41	H	-1.216553	-0.407198	0.304830
Br42	Br	-1.161806	-0.222721	0.291118
H43	H	-1.505685	0.101208	0.731409
H44	H	-1.287590	0.245516	0.728839
