data_functionalizedCrystal
_audit_creation_method	'MofGen! by Chris Wilmer'
_symmetry_space_group_name_H-M	'P1'
_symmetry_Int_Tables_number	1
_symmetry_cell_setting	triclinic
loop_
_symmetry_equiv_pos_as_xyz
  x,y,z
_cell_length_a	42.784839
_cell_length_b	42.784841
_cell_length_c	42.784893
_cell_angle_alpha	90.002418
_cell_angle_beta	59.997780
_cell_angle_gamma	119.999863
loop_
_atom_site_label
_atom_site_type_symbol
_atom_site_fract_x
_atom_site_fract_y
_atom_site_fract_z
O1	O	0.275695	-0.214412	-0.009300
O2	O	0.211692	-0.168961	0.009253
O3	O	0.275692	-0.168961	-0.054750
O4	O	0.211694	-0.214412	0.054702
O5	O	0.223708	-0.220945	-0.054749
O6	O	0.159708	-0.220945	0.009253
O7	O	0.223710	-0.266397	-0.009300
Zn8	Zn	0.183455	-0.251924	-0.000023
Zn9	Zn	0.251947	-0.183433	-0.000024
O10	O	0.159710	-0.266396	0.054703
C11	C	0.051021	-0.022778	0.028112
C12	C	0.013142	-0.041761	0.028375
C13	C	0.051018	-0.079378	0.028116
C14	C	0.013139	-0.098275	0.028379
C15	C	-0.005578	-0.079377	0.028112
C16	C	0.069652	-0.041762	0.028379
C17	C	0.152948	0.113708	0.017863
C18	C	0.173786	0.152360	0.014965
C19	C	0.155902	0.171750	0.013509
C20	C	0.178499	0.213661	0.010359
C21	C	0.117177	0.152485	0.014953
C22	C	0.096339	0.113835	0.017857
C23	C	0.114226	0.094447	0.019312
C24	C	-0.131813	-0.113936	0.017859
C25	C	-0.167567	-0.131750	0.014961
C26	C	-0.185502	-0.169024	0.013506
C27	C	-0.224264	-0.188340	0.010358
C28	C	-0.167685	-0.188485	0.014954
C29	C	-0.131938	-0.170675	0.017859
C30	C	-0.114002	-0.133396	0.019309
C31	C	0.152939	-0.113943	0.017877
C32	C	0.173778	-0.131757	0.014977
C33	C	0.155892	-0.169032	0.013523
C34	C	0.178486	-0.188349	0.010377
C35	C	0.117170	-0.188491	0.014967
C36	C	0.096334	-0.170675	0.017865
C37	C	0.114220	-0.133401	0.019323
C38	C	0.091629	0.052537	0.022456
C39	C	0.073617	0.019131	0.024964
C40	C	0.073613	-0.098693	0.024971
C41	C	0.091623	-0.114089	0.022466
C42	C	-0.044339	-0.098690	0.024964
C43	C	-0.075237	-0.114084	0.022456
O44	O	-0.327856	-0.266388	-0.009322
O45	O	-0.236954	-0.220935	0.009228
O46	O	-0.236950	-0.220939	-0.054773
O47	O	-0.327860	-0.266385	0.054680
O48	O	-0.236948	-0.168954	-0.054776
O49	O	-0.236952	-0.168950	0.009225
O50	O	-0.327854	-0.214403	-0.009325
Zn51	Zn	-0.282403	-0.183423	-0.000050
Zn52	Zn	-0.282405	-0.251916	-0.000046
O53	O	-0.327858	-0.214400	0.054676
C54	C	0.384390	-0.079141	-0.361606
C55	C	0.422270	-0.041526	-0.380503
C56	C	0.384390	-0.079141	-0.305008
C57	C	0.422270	-0.041526	-0.323990
C58	C	0.440988	-0.022543	-0.361606
C59	C	0.365758	-0.098038	-0.323991
C60	C	0.282465	-0.170819	-0.396168
C61	C	0.261627	-0.188759	-0.413983
C62	C	0.279513	-0.169420	-0.451257
C63	C	0.256917	-0.188867	-0.470572
C64	C	0.318239	-0.132140	-0.470717
C65	C	0.339076	-0.114205	-0.452905
C66	C	0.321187	-0.133546	-0.415628
C67	C	0.567227	0.113942	-0.453282
C68	C	0.602981	0.152594	-0.471222
C69	C	0.620916	0.171985	-0.451883
C70	C	0.659678	0.213894	-0.471328
C71	C	0.603097	0.152719	-0.414603
C72	C	0.567349	0.114068	-0.396667
C73	C	0.549414	0.094682	-0.416011
C74	C	0.282465	-0.170819	-0.168522
C75	C	0.261624	-0.188757	-0.129868
C76	C	0.279510	-0.169418	-0.110479
C77	C	0.256914	-0.188865	-0.068568
C78	C	0.318233	-0.132140	-0.129742
C79	C	0.339070	-0.114203	-0.168394
C80	C	0.321184	-0.133548	-0.187782
C81	C	0.343783	-0.114094	-0.396315
C82	C	0.361794	-0.098590	-0.380920
C83	C	0.361794	-0.098590	-0.263099
C84	C	0.343783	-0.114094	-0.229693
C85	C	0.479750	0.019366	-0.381054
C86	C	0.510649	0.052771	-0.396557
C87	C	0.440758	-0.356212	-0.028193
C88	C	0.422041	-0.393827	-0.028459
C89	C	0.384158	-0.356213	-0.028190
C90	C	0.365526	-0.393828	-0.028456
C91	C	0.384160	-0.412810	-0.028193
C92	C	0.422038	-0.337315	-0.028456
C93	C	0.567000	-0.264532	-0.017949
C94	C	0.602755	-0.246591	-0.015053
C95	C	0.620692	-0.265931	-0.013601
C96	C	0.659455	-0.246483	-0.010453
C97	C	0.602873	-0.303210	-0.015048
C98	C	0.567125	-0.321146	-0.017949
C99	C	0.549188	-0.301805	-0.019399
C100	C	0.339356	-0.549295	-0.017951
C101	C	0.318645	-0.587947	-0.015055
C102	C	0.279915	-0.607338	-0.013597
C103	C	0.257452	-0.649247	-0.010452
C104	C	0.261899	-0.588073	-0.015042
C105	C	0.282613	-0.549422	-0.017945
C106	C	0.321343	-0.530035	-0.019397
C107	C	0.339344	-0.264537	-0.017936
C108	C	0.318628	-0.246599	-0.015032
C109	C	0.279898	-0.265939	-0.013577
C110	C	0.257433	-0.246493	-0.010426
C111	C	0.261884	-0.303217	-0.015022
C112	C	0.282601	-0.321153	-0.017924
C113	C	0.321334	-0.301808	-0.019385
C114	C	0.510421	-0.321258	-0.022542
C115	C	0.479522	-0.336762	-0.025048
C116	C	0.361696	-0.336765	-0.025041
C117	C	0.343793	-0.321261	-0.022532
C118	C	0.361701	-0.454719	-0.025047
C119	C	0.343799	-0.488125	-0.022541
O120	O	0.223728	0.336934	-0.009323
O121	O	0.159726	0.227482	0.009227
O122	O	0.223729	0.291478	-0.054775
O123	O	0.159725	0.272938	0.054678
O124	O	0.275711	0.291477	-0.054771
O125	O	0.211707	0.227481	0.009230
O126	O	0.275710	0.336932	-0.009320
Zn127	Zn	0.251962	0.282206	-0.000045
Zn128	Zn	0.183474	0.282208	-0.000049
O129	O	0.211707	0.272936	0.054681
O130	O	0.763271	0.337164	-0.496871
O131	O	0.672367	0.227713	-0.451422
O132	O	0.672365	0.291711	-0.451418
O133	O	0.763273	0.273165	-0.496876
O134	O	0.672366	0.291712	-0.503402
O135	O	0.672368	0.227714	-0.503407
O136	O	0.763272	0.337165	-0.548856
Zn137	Zn	0.717820	0.282440	-0.534385
Zn138	Zn	0.717819	0.282438	-0.465893
O139	O	0.763275	0.273167	-0.548860
O140	O	0.211690	-0.214417	-0.548617
O141	O	0.275691	-0.168962	-0.503167
O142	O	0.211689	-0.168964	-0.503163
O143	O	0.275692	-0.214415	-0.548621
O144	O	0.159706	-0.220947	-0.451179
O145	O	0.223708	-0.220945	-0.451183
O146	O	0.159707	-0.266400	-0.496633
Zn147	Zn	0.183454	-0.251926	-0.465654
Zn148	Zn	0.251944	-0.183436	-0.534146
O149	O	0.223709	-0.266398	-0.496637
C150	C	-0.005343	-0.412572	0.361558
C151	C	0.013375	-0.393590	0.380456
C152	C	0.051255	-0.355974	0.304961
C153	C	0.069887	-0.337077	0.323944
C154	C	0.051254	-0.355974	0.361560
C155	C	0.013375	-0.393589	0.323943
C156	C	-0.131582	-0.549057	0.396116
C157	C	-0.167336	-0.587709	0.413930
C158	C	-0.185271	-0.607098	0.451205
C159	C	-0.224034	-0.649009	0.470519
C160	C	-0.167452	-0.587833	0.470666
C161	C	-0.131705	-0.549184	0.452854
C162	C	-0.113770	-0.529796	0.415578
C163	C	0.096061	-0.321414	0.453239
C164	C	0.116773	-0.303600	0.471179
C165	C	0.155502	-0.266327	0.451842
C166	C	0.177965	-0.247011	0.471288
C167	C	0.173517	-0.246866	0.414562
C168	C	0.152802	-0.264677	0.396625
C169	C	0.114073	-0.301955	0.415968
C170	C	0.096064	-0.321412	0.168474
C171	C	0.116779	-0.303599	0.129820
C172	C	0.155508	-0.266324	0.110432
C173	C	0.177972	-0.247009	0.068521
C174	C	0.173522	-0.246865	0.129696
C175	C	0.152807	-0.264680	0.168348
C176	C	0.114075	-0.301953	0.187735
C177	C	-0.075004	-0.487887	0.396265
C178	C	-0.044106	-0.454481	0.380871
C179	C	0.073715	-0.336660	0.263052
C180	C	0.091618	-0.321265	0.229646
C181	C	0.073714	-0.336661	0.381009
C182	C	0.091616	-0.321267	0.396513
C183	C	0.051046	-0.022794	-0.361634
C184	C	0.069679	-0.041778	-0.380530
C185	C	-0.005555	-0.079390	-0.305034
C186	C	0.013163	-0.098288	-0.324016
C187	C	0.051045	-0.079393	-0.361631
C188	C	0.013164	-0.041775	-0.324018
C189	C	0.095858	0.113693	-0.396200
C190	C	0.116571	0.152344	-0.414015
C191	C	0.155302	0.171732	-0.451290
C192	C	0.177767	0.213642	-0.470607
C193	C	0.173317	0.152465	-0.470750
C194	C	0.152600	0.113815	-0.452936
C195	C	0.113869	0.094429	-0.415659
C196	C	0.152973	-0.113959	-0.453306
C197	C	0.173810	-0.131775	-0.471245
C198	C	0.155926	-0.169048	-0.451906
C199	C	0.178519	-0.188366	-0.471350
C200	C	0.117198	-0.188507	-0.414626
C201	C	0.096358	-0.170694	-0.396690
C202	C	0.114251	-0.133416	-0.416035
C203	C	-0.131801	-0.113944	-0.168548
C204	C	-0.167554	-0.131755	-0.129895
C205	C	-0.185491	-0.169029	-0.110504
C206	C	-0.224255	-0.188343	-0.068593
C207	C	-0.167671	-0.188490	-0.129767
C208	C	-0.131918	-0.170677	-0.168418
C209	C	-0.113988	-0.133404	-0.187808
C210	C	0.091411	0.052521	-0.396344
C211	C	0.073508	0.019115	-0.380949
C212	C	-0.044320	-0.098701	-0.263125
C213	C	-0.075220	-0.114094	-0.229719
C214	C	0.073641	-0.098707	-0.381079
C215	C	0.091652	-0.114103	-0.396582
C216	C	-0.615853	-0.356193	0.361535
C217	C	-0.634487	-0.393808	0.380433
C218	C	-0.559253	-0.356195	0.304938
C219	C	-0.577972	-0.393810	0.323921
C220	C	-0.615854	-0.412792	0.361537
C221	C	-0.577972	-0.337297	0.323920
C222	C	-0.660661	-0.264512	0.396093
C223	C	-0.681373	-0.246571	0.413906
C224	C	-0.720104	-0.265909	0.451181
C225	C	-0.742568	-0.246461	0.470495
C226	C	-0.738120	-0.303189	0.470643
C227	C	-0.717405	-0.321125	0.452831
C228	C	-0.678674	-0.301785	0.415554
C229	C	-0.717784	-0.549275	0.453218
C230	C	-0.738622	-0.587926	0.471159
C231	C	-0.720740	-0.607319	0.451822
C232	C	-0.743333	-0.649227	0.471268
C233	C	-0.682012	-0.588055	0.414542
C234	C	-0.661170	-0.549403	0.396604
C235	C	-0.679063	-0.530016	0.415946
C236	C	-0.433006	-0.264522	0.168449
C237	C	-0.397253	-0.246585	0.129796
C238	C	-0.379317	-0.265926	0.110407
C239	C	-0.340553	-0.246480	0.068496
C240	C	-0.397138	-0.303204	0.129672
C241	C	-0.432891	-0.321139	0.168324
C242	C	-0.450820	-0.301793	0.187711
C243	C	-0.656216	-0.321238	0.396242
C244	C	-0.638314	-0.336743	0.380848
C245	C	-0.520488	-0.336748	0.263028
C246	C	-0.489588	-0.321245	0.229622
C247	C	-0.638451	-0.454700	0.380987
C248	C	-0.656463	-0.488106	0.396492
C249	C	0.440756	0.310302	-0.361620
C250	C	0.422038	0.310564	-0.380518
C251	C	0.384160	0.310312	-0.305026
C252	C	0.365528	0.310574	-0.324010
C253	C	0.384159	0.310303	-0.361624
C254	C	0.422038	0.310573	-0.324006
C255	C	0.566989	0.300046	-0.396172
C256	C	0.602741	0.297145	-0.413984
C257	C	0.620675	0.295684	-0.451257
C258	C	0.659436	0.292531	-0.470569
C259	C	0.602857	0.297127	-0.470719
C260	C	0.567111	0.300033	-0.452909
C261	C	0.549177	0.301493	-0.415634
C262	C	0.339351	0.300042	-0.453303
C263	C	0.318640	0.297142	-0.471244
C264	C	0.279912	0.295690	-0.451908
C265	C	0.257449	0.292541	-0.471354
C266	C	0.261899	0.297143	-0.414629
C267	C	0.282613	0.300049	-0.396692
C268	C	0.321341	0.301496	-0.416033
C269	C	0.339354	0.300088	-0.168540
C270	C	0.318640	0.297192	-0.129888
C271	C	0.279912	0.295742	-0.110501
C272	C	0.257450	0.292601	-0.068591
C273	C	0.261898	0.297184	-0.129766
C274	C	0.282612	0.300078	-0.168417
C275	C	0.321344	0.301533	-0.187802
C276	C	0.510413	0.304640	-0.396323
C277	C	0.479516	0.307151	-0.380931
C278	C	0.361701	0.307173	-0.263117
C279	C	0.343799	0.304671	-0.229712
C280	C	0.361700	0.307154	-0.381073
C281	C	0.343798	0.304644	-0.396578
O282	O	0.275503	0.336913	-0.548651
O283	O	0.211494	0.227461	-0.503201
O284	O	0.275490	0.291455	-0.503192
O285	O	0.211507	0.272919	-0.548659
O286	O	0.223502	0.291457	-0.451211
O287	O	0.159506	0.227463	-0.451219
O288	O	0.223515	0.336915	-0.496669
Zn289	Zn	0.183256	0.282189	-0.465691
Zn290	Zn	0.251753	0.282187	-0.534179
O291	O	0.159519	0.272921	-0.496677
C292	C	0.051032	0.254111	0.361530
C293	C	0.013154	0.253851	0.380425
C294	C	0.051031	0.254102	0.304932
C295	C	0.013153	0.253842	0.323913
C296	C	-0.005564	0.254113	0.361527
C297	C	0.069663	0.253840	0.323916
C298	C	0.152954	0.264360	0.396096
C299	C	0.173791	0.267260	0.413911
C300	C	0.155906	0.268721	0.451185
C301	C	0.178502	0.271871	0.470501
C302	C	0.117182	0.267279	0.470643
C303	C	0.096345	0.264374	0.452830
C304	C	0.114233	0.262915	0.415555
C305	C	-0.131796	0.264379	0.453195
C306	C	-0.167548	0.267281	0.471133
C307	C	-0.185483	0.268734	0.451793
C308	C	-0.224243	0.271886	0.471236
C309	C	-0.167664	0.267282	0.414515
C310	C	-0.131919	0.264374	0.396581
C311	C	-0.113984	0.262925	0.415925
C312	C	0.152952	0.264325	0.168451
C313	C	0.173792	0.267221	0.129798
C314	C	0.155907	0.268673	0.110407
C315	C	0.178502	0.271814	0.068498
C316	C	0.117186	0.267232	0.129669
C317	C	0.096350	0.264339	0.168320
C318	C	0.114234	0.262881	0.187709
C319	C	0.091638	0.259769	0.396240
C320	C	0.073627	0.257260	0.380845
C321	C	0.073626	0.257242	0.263024
C322	C	0.091636	0.259743	0.229619
C323	C	-0.044324	0.257264	0.380973
C324	C	-0.075221	0.259775	0.396474
H325	H	-0.117435	-0.186523	0.019040
H326	H	-0.769653	-0.318930	0.500992
H327	H	0.332793	-0.116391	-0.113952
H328	H	0.617258	-0.216240	-0.013873
H329	H	0.552845	0.098385	-0.366316
H330	H	-0.117214	-0.083584	0.019042
H331	H	0.335043	-0.409068	-0.028878
C332	C	-0.706546	-0.497087	0.477891
C333	C	-0.737445	-0.527963	0.474480
H334	H	-0.718682	-0.483928	0.491014
H335	H	-0.699497	-0.506303	0.491850
H336	H	-0.680504	-0.480087	0.453120
H337	H	-0.763486	-0.544965	0.499251
H338	H	-0.744500	-0.518748	0.460522
C339	C	0.209422	0.237876	0.413031
C340	C	0.216356	0.268849	0.392522
H341	H	0.235701	0.238858	0.399823
H342	H	0.201755	0.239163	0.437774
H343	H	0.186112	0.214602	0.415397
H344	H	0.239664	0.292124	0.390158
H345	H	0.224029	0.267566	0.367771
H346	H	-0.664969	-0.409045	0.411340
C347	C	0.637965	0.328864	-0.536561
C348	C	0.622571	0.295523	-0.511689
H349	H	0.650138	0.327873	-0.561855
H350	H	0.614126	0.330797	-0.528739
H351	H	0.660079	0.350531	-0.535962
H352	H	0.600455	0.273855	-0.512286
H353	H	0.646413	0.293586	-0.519513
H354	H	0.064526	-0.351765	0.468991
H355	H	-0.732075	-0.351477	0.468678
C356	C	-0.625087	-0.263832	0.331146
C357	C	-0.618087	-0.243251	0.355120
H358	H	-0.598805	-0.250707	0.305852
H359	H	-0.632850	-0.288596	0.340186
H360	H	-0.648352	-0.266146	0.331137
H361	H	-0.594824	-0.240940	0.355131
H362	H	-0.610318	-0.218481	0.346078
H363	H	-0.629638	-0.533721	0.366252
H364	H	0.437930	-0.026285	-0.308746
H365	H	0.267943	-0.533739	-0.019121
H366	H	0.370892	-0.533512	-0.019136
H367	H	0.267931	-0.351506	-0.019101
C368	C	0.209080	-0.181923	0.413891
C369	C	0.216085	-0.205894	0.393305
H370	H	0.235362	-0.156630	0.400767
H371	H	0.185817	-0.181915	0.416208
H372	H	0.201318	-0.190967	0.438657
H373	H	0.223844	-0.196852	0.368539
H374	H	0.239355	-0.205901	0.390983
H375	H	0.437704	0.310998	-0.308766
C376	C	-0.231711	-0.130888	0.044350
C377	C	-0.187163	-0.110371	0.013372
H378	H	-0.243811	-0.117690	0.043370
H379	H	-0.247495	-0.155634	0.043066
H380	H	-0.234037	-0.133246	0.067622
H381	H	-0.184837	-0.108015	-0.009901
H382	H	-0.171374	-0.085618	0.014652
H383	H	0.102103	-0.319447	0.501532
H384	H	-0.117197	0.263199	0.468949
C385	C	0.502975	0.270647	-0.453786
C386	C	0.547525	0.301620	-0.474299
H387	H	0.490884	0.271628	-0.466991
H388	H	0.500644	0.247376	-0.451419
H389	H	0.487185	0.271937	-0.429040
H390	H	0.563316	0.300329	-0.499044
H391	H	0.549859	0.324898	-0.476671
H392	H	0.100131	-0.026521	0.028807
H393	H	-0.117201	-0.533500	0.468702
C394	C	-0.154448	0.300834	0.512896
C395	C	-0.187127	0.268889	0.512102
H396	H	-0.166535	0.301830	0.538188
H397	H	-0.130598	0.298891	0.504990
H398	H	-0.144053	0.323448	0.496054
H399	H	-0.197520	0.246275	0.528942
H400	H	-0.210984	0.270828	0.520013
C401	C	0.018996	0.061508	-0.355250
C402	C	0.053283	0.092384	-0.355227
H403	H	-0.007286	0.048351	-0.329955
H404	H	0.014254	0.070722	-0.371516
H405	H	0.026765	0.044506	-0.364288
H406	H	0.045516	0.109388	-0.346192
H407	H	0.058025	0.083170	-0.338955
C408	C	0.550951	0.061753	-0.477952
C409	C	0.547516	0.092629	-0.474542
H410	H	0.538778	0.048592	-0.491073
H411	H	0.581175	0.070969	-0.491912
H412	H	0.535222	0.044754	-0.453181
H413	H	0.563247	0.109629	-0.499313
H414	H	0.517286	0.083413	-0.460582
H415	H	-0.002510	0.253416	0.308669
H416	H	0.333308	0.295959	-0.501595
C417	C	0.016470	-0.152654	-0.328060
C418	C	-0.007978	-0.140006	-0.303440
H419	H	0.003422	-0.178407	-0.315356
H420	H	0.016614	-0.151204	-0.350289
H421	H	0.045953	-0.136933	-0.335228
H422	H	-0.037461	-0.155726	-0.296275
H423	H	-0.008127	-0.141460	-0.281204
C424	C	0.095989	0.173139	-0.018590
C425	C	0.097519	0.173798	0.013354
H426	H	0.083849	0.186295	-0.019576
H427	H	0.125037	0.185313	-0.041204
H428	H	0.078035	0.147361	-0.016651
H429	H	0.115476	0.199576	0.011413
H430	H	0.068467	0.161625	0.035973
H431	H	0.267945	0.301232	-0.366341
C432	C	0.210968	-0.206809	0.342463
C433	C	0.172601	-0.243287	0.355651
H434	H	0.223192	-0.193605	0.317166
H435	H	0.203861	-0.192903	0.358776
H436	H	0.231874	-0.209180	0.342497
H437	H	0.151693	-0.240916	0.355620
H438	H	0.179706	-0.257195	0.339334
H439	H	0.167522	0.263171	0.365746
H440	H	0.205343	-0.115928	-0.501596
C441	C	0.054716	-0.254346	-0.383891
C442	C	0.097534	-0.229479	-0.393366
H443	H	0.042578	-0.279640	-0.370768
H444	H	0.036768	-0.246520	-0.367876
H445	H	0.055764	-0.253745	-0.406605
H446	H	0.096486	-0.230077	-0.370651
H447	H	0.115486	-0.237307	-0.409382
H448	H	0.230362	0.296001	-0.113978
C449	C	0.210970	-0.206810	0.164346
C450	C	0.172605	-0.243289	0.189524
H451	H	0.223191	-0.193604	0.177420
H452	H	0.231876	-0.209179	0.143407
H453	H	0.203860	-0.192906	0.155139
H454	H	0.179716	-0.257194	0.198728
H455	H	0.151695	-0.240922	0.210469
H456	H	-0.002512	0.253428	0.411332
H457	H	-0.117412	-0.186525	-0.184100
H458	H	0.102110	-0.319446	0.114137
C459	C	0.252340	0.270687	-0.203159
C460	C	0.262813	0.301667	-0.189592
H461	H	0.240114	0.271668	-0.216230
H462	H	0.278366	0.271967	-0.220235
H463	H	0.231430	0.247416	-0.182212
H464	H	0.283726	0.324937	-0.210541
H465	H	0.236784	0.300390	-0.172515
C466	C	-0.008240	-0.142141	-0.003596
C467	C	-0.008013	-0.139997	0.028955
H468	H	-0.021297	-0.167898	-0.003240
H469	H	-0.024819	-0.133554	-0.003709
H470	H	0.021244	-0.126429	-0.025913
H471	H	-0.037497	-0.155707	0.051272
H472	H	0.008565	-0.148589	0.029072
C473	C	-0.222514	0.271736	0.416865
C474	C	-0.187376	0.268877	0.393254
H475	H	-0.234680	0.272725	0.403738
H476	H	-0.244626	0.250070	0.439574
H477	H	-0.212064	0.294357	0.423292
H478	H	-0.197827	0.246255	0.386830
H479	H	-0.165261	0.290546	0.370539
C480	C	0.599268	0.148591	-0.525381
C481	C	0.622561	0.173770	-0.512194
H482	H	0.611355	0.161666	-0.550674
H483	H	0.601607	0.127655	-0.525352
H484	H	0.569046	0.139383	-0.509061
H485	H	0.652783	0.182976	-0.528512
H486	H	0.620227	0.194713	-0.512226
H487	H	0.204850	0.168253	-0.501099
C488	C	-0.792499	-0.583924	0.525314
C489	C	-0.781196	-0.609102	0.512130
H490	H	-0.818785	-0.596999	0.550607
H491	H	-0.769197	-0.562989	0.525289
H492	H	-0.797187	-0.574713	0.508992
H493	H	-0.776504	-0.618311	0.528451
H494	H	-0.804503	-0.630044	0.512158
C495	C	-0.519549	-0.282930	0.266249
C496	C	-0.556821	-0.295577	0.303342
H497	H	-0.506494	-0.257176	0.253545
H498	H	-0.498777	-0.284388	0.267561
H499	H	-0.528101	-0.298648	0.252484
H500	H	-0.548269	-0.279860	0.317108
H501	H	-0.577597	-0.294116	0.302032
H502	H	0.064825	-0.186540	-0.366338
C503	C	0.418973	-0.045565	-0.434875
C504	C	0.443419	-0.020950	-0.422224
H505	H	0.432029	-0.032861	-0.460631
H506	H	0.418820	-0.067799	-0.433420
H507	H	0.389492	-0.052725	-0.419158
H508	H	0.472899	-0.013793	-0.437940
H509	H	0.443577	0.001290	-0.423683
H510	H	0.552391	0.301235	-0.365822
H511	H	-0.667447	-0.603843	0.398798
C512	C	0.123292	0.253099	0.327958
C513	C	0.110811	0.253264	0.303342
H514	H	0.148694	0.252743	0.315256
H515	H	0.129899	0.275419	0.335114
H516	H	0.099751	0.231019	0.350197
H517	H	0.134352	0.275346	0.281105
H518	H	0.104206	0.230942	0.296182
H519	H	0.437709	-0.409066	-0.028885
H520	H	-0.447397	-0.351491	0.184007
H521	H	-0.182293	-0.218837	0.013775
C522	C	0.657950	0.212024	-0.416958
C523	C	0.622810	0.174030	-0.393344
H524	H	0.670117	0.225180	-0.403831
H525	H	0.680061	0.212465	-0.439665
H526	H	0.647501	0.224194	-0.423386
H527	H	0.633259	0.161859	-0.386918
H528	H	0.600695	0.173587	-0.370630
H529	H	0.552400	-0.248780	-0.019131
C530	C	0.230472	-0.194361	0.070393
C531	C	0.216093	-0.205891	0.108386
H532	H	0.256751	-0.169065	0.057240
H533	H	0.236218	-0.211231	0.058218
H534	H	0.208200	-0.194960	0.069957
H535	H	0.238364	-0.205294	0.108823
H536	H	0.210349	-0.189016	0.120565
H537	H	0.230368	0.295965	-0.398887
C538	C	-0.400951	-0.192418	0.133802
C539	C	-0.377663	-0.205609	0.108622
H540	H	-0.388853	-0.167119	0.120731
H541	H	-0.431168	-0.208726	0.143006
H542	H	-0.398617	-0.192458	0.154744
H543	H	-0.379999	-0.205572	0.087681
H544	H	-0.347438	-0.189297	0.099412
H545	H	0.205322	0.268398	0.114116
C546	C	0.580211	-0.362930	-0.051479
C547	C	0.547540	-0.362121	-0.019539
H548	H	0.568120	-0.388228	-0.052457
H549	H	0.590600	-0.346103	-0.074095
H550	H	0.604068	-0.355014	-0.049541
H551	H	0.523684	-0.370034	-0.021478
H552	H	0.537145	-0.378953	0.003084
C553	C	0.101086	-0.041502	-0.445410
C554	C	0.110828	-0.021205	-0.422252
H555	H	0.126488	-0.028799	-0.471167
H556	H	0.092619	-0.066665	-0.436825
H557	H	0.077545	-0.042802	-0.443949
H558	H	0.134367	-0.019907	-0.423711
H559	H	0.119301	0.003965	-0.430839
H560	H	-0.382532	-0.318952	0.113884
C561	C	0.376812	-0.583941	-0.015353
C562	C	0.338446	-0.609121	-0.013466
H563	H	0.389035	-0.597015	-0.014370
H564	H	0.397716	-0.563004	-0.038627
H565	H	0.369703	-0.574735	0.005662
H566	H	0.345556	-0.618325	-0.034482
H567	H	0.317538	-0.630065	0.009811
C568	C	-0.183723	-0.640017	0.511610
C569	C	-0.187164	-0.609145	0.511636
H570	H	-0.195889	-0.653172	0.536903
H571	H	-0.199452	-0.657019	0.502573
H572	H	-0.153494	-0.630797	0.495339
H573	H	-0.217394	-0.618366	0.527904
H574	H	-0.171436	-0.592140	0.520678
H575	H	-0.182279	-0.218843	-0.113977
H576	H	0.370598	-0.083850	-0.184076
C577	C	0.016463	0.015896	-0.328060
C578	C	-0.007984	-0.021200	-0.303443
H579	H	0.003405	0.028595	-0.315357
H580	H	0.045940	0.029659	-0.335217
H581	H	0.016619	0.014590	-0.350297
H582	H	-0.008137	-0.019895	-0.281207
H583	H	-0.037468	-0.034967	-0.296280
C584	C	0.182993	-0.049000	-0.011499
C585	C	0.172602	-0.072970	0.019475
H586	H	0.195129	-0.023706	-0.010511
H587	H	0.203949	-0.048992	-0.034771
H588	H	0.156946	-0.058043	-0.010218
H589	H	0.198650	-0.063928	0.018193
H590	H	0.151644	-0.072977	0.042753
C591	C	0.252406	-0.171501	-0.331221
C592	C	0.262803	-0.192081	-0.355196
H593	H	0.240267	-0.184628	-0.305927
H594	H	0.278448	-0.146737	-0.340260
H595	H	0.231447	-0.169187	-0.331212
H596	H	0.283765	-0.194393	-0.355207
H597	H	0.236758	-0.216852	-0.346155
H598	H	0.437707	0.310988	-0.411425
H599	H	-0.002293	-0.408830	0.308704
H600	H	-0.182059	-0.115906	-0.114213
C601	C	0.019425	0.228480	0.477708
C602	C	0.053783	0.262790	0.474217
H603	H	-0.006850	0.227503	0.490913
H604	H	0.027095	0.227198	0.452962
H605	H	0.014725	0.207470	0.491622
H606	H	0.058486	0.283800	0.460300
H607	H	0.046112	0.264076	0.498967
C608	C	0.227634	-0.073893	0.015287
C609	C	0.216339	-0.110369	0.013394
H610	H	0.253907	-0.060691	0.014314
H611	H	0.232341	-0.059984	-0.005727
H612	H	0.204317	-0.076266	0.038562
H613	H	0.239654	-0.107996	-0.009883
H614	H	0.211634	-0.124281	0.034409
H615	H	0.167518	0.263140	0.184235
C616	C	-0.449281	-0.239843	0.220634
C617	C	-0.452718	-0.243260	0.189760
H618	H	-0.461450	-0.226716	0.233789
H619	H	-0.465008	-0.264607	0.237636
H620	H	-0.419052	-0.225881	0.211414
H621	H	-0.482947	-0.257224	0.198980
H622	H	-0.436991	-0.218491	0.172755
H623	H	-0.117212	-0.083598	-0.184336
H624	H	0.064802	-0.186523	0.019045
H625	H	-0.562304	-0.409050	0.308680
H626	H	0.230097	-0.219111	-0.398135
H627	H	0.101900	0.168027	-0.398169
H628	H	0.335046	0.310999	-0.308768
C629	C	0.210775	0.117818	-0.510800
C630	C	0.172404	0.092640	-0.474322
H631	H	0.223002	0.104746	-0.524001
H632	H	0.203671	0.127021	-0.524710
H633	H	0.231676	0.138760	-0.508427
H634	H	0.151501	0.071699	-0.476696
H635	H	0.179506	0.083432	-0.460409
H636	H	0.167543	-0.083608	-0.469060
H637	H	-0.666703	-0.216219	0.398058
H638	H	0.100368	-0.306171	0.308703
H639	H	0.370885	0.301223	-0.469054
C640	C	0.376811	0.297498	-0.133892
C641	C	0.338442	0.295609	-0.108713
H642	H	0.389038	0.296525	-0.120820
H643	H	0.369705	0.276484	-0.143094
H644	H	0.397714	0.320772	-0.154835
H645	H	0.317538	0.272334	-0.087771
H646	H	0.345546	0.316625	-0.099505
H647	H	0.102623	0.268466	0.500992
C648	C	0.123968	-0.240996	0.010523
C649	C	0.097506	-0.229465	0.013370
H650	H	0.111826	-0.266292	0.009539
H651	H	0.153014	-0.224125	-0.012093
H652	H	0.125003	-0.240397	0.032196
H653	H	0.096473	-0.230062	-0.008305
H654	H	0.068452	-0.246341	0.035988
C655	C	-0.222085	-0.646904	0.416045
C656	C	-0.186918	-0.608884	0.392538
H657	H	-0.234174	-0.659975	0.402838
H658	H	-0.211688	-0.659126	0.422479
H659	H	-0.244245	-0.647394	0.438757
H660	H	-0.164756	-0.608394	0.369827
H661	H	-0.197314	-0.596659	0.386099
H662	H	0.370892	0.301275	-0.184323
H663	H	0.617241	0.295963	-0.398133
H664	H	0.064808	0.098152	0.019035
H665	H	-0.117415	0.263190	0.366230
H666	H	0.064821	0.263164	0.184001
C667	C	-0.045073	-0.451241	0.434845
C668	C	-0.007796	-0.414150	0.422189
H669	H	-0.058146	-0.463929	0.460611
H670	H	-0.065829	-0.449928	0.433359
H671	H	-0.036521	-0.465021	0.419150
H672	H	-0.016348	-0.400368	0.437882
H673	H	0.012964	-0.415460	0.423678
C674	C	0.210991	0.117464	0.017594
C675	C	0.172606	0.092396	0.019470
H676	H	0.223123	0.104305	0.018588
H677	H	0.231948	0.138406	-0.005681
H678	H	0.203930	0.126678	0.038607
H679	H	0.179667	0.083184	-0.001545
H680	H	0.151644	0.071448	0.042748
C681	C	0.123986	0.271671	0.070365
C682	C	0.097524	0.268828	0.108357
H683	H	0.111846	0.272654	0.057210
H684	H	0.153033	0.294285	0.058190
H685	H	0.125020	0.249997	0.069930
H686	H	0.096493	0.290503	0.108791
H687	H	0.068469	0.246211	0.120535
H688	H	-0.002524	-0.026519	0.028802
C689	C	0.020672	-0.363249	0.189131
C690	C	0.053487	-0.362381	0.189789
H691	H	-0.005612	-0.388542	0.202292
H692	H	0.014938	-0.346371	0.201302
H693	H	0.030435	-0.355429	0.163353
H694	H	0.043726	-0.370198	0.215567
H695	H	0.059221	-0.379265	0.177620
C696	C	0.209419	0.187109	0.044348
C697	C	0.216352	0.173534	0.013374
H698	H	0.235697	0.200178	0.043366
H699	H	0.201752	0.204186	0.043064
H700	H	0.186108	0.166165	0.067623
H701	H	0.239660	0.194478	-0.009901
H702	H	0.224024	0.156456	0.014655
C703	C	0.380718	-0.101399	-0.536559
C704	C	0.337897	-0.110879	-0.511686
H705	H	0.392852	-0.088273	-0.561851
H706	H	0.398664	-0.085385	-0.528733
H707	H	0.379674	-0.124111	-0.535964
H708	H	0.338940	-0.088167	-0.512279
H709	H	0.319945	-0.126894	-0.519515
H710	H	0.335269	-0.128941	-0.308748
H711	H	0.230091	-0.219108	-0.114185
C712	C	-0.135064	-0.552815	0.341828
C713	C	-0.111873	-0.527747	0.355145
H714	H	-0.122897	-0.539657	0.316535
H715	H	-0.132733	-0.573758	0.341814
H716	H	-0.165291	-0.562027	0.358100
H717	H	-0.081647	-0.518537	0.338875
H718	H	-0.114201	-0.506797	0.355156
C719	C	0.224411	-0.228585	-0.164762
C720	C	0.262802	-0.192080	-0.189832
H721	H	0.212272	-0.241707	-0.177919
H722	H	0.231464	-0.242543	-0.155551
H723	H	0.203458	-0.226260	-0.143815
H724	H	0.283757	-0.194404	-0.210777
H725	H	0.255750	-0.178118	-0.199048
H726	H	0.437704	-0.306410	-0.028878
C727	C	0.373090	-0.048429	-0.483774
C728	C	0.381638	-0.073229	-0.474293
H729	H	0.399365	-0.023131	-0.496976
H730	H	0.363243	-0.056344	-0.499717
H731	H	0.350867	-0.048988	-0.461055
H732	H	0.403859	-0.072673	-0.497012
H733	H	0.391491	-0.065311	-0.458350
H734	H	0.333296	-0.216247	-0.013853
C735	C	0.393347	-0.206772	-0.017643
C736	C	0.381914	-0.243276	-0.019532
H737	H	0.419624	-0.193651	-0.018624
H738	H	0.398096	-0.192813	-0.038655
H739	H	0.370075	-0.209098	0.005634
H740	H	0.405185	-0.240951	-0.042811
H741	H	0.377167	-0.257239	0.001481
C742	C	0.226333	-0.622968	-0.044419
C743	C	0.219329	-0.609386	-0.013444
H744	H	0.200050	-0.636128	-0.043429
H745	H	0.249594	-0.602022	-0.067691
H746	H	0.234098	-0.639970	-0.043139
H747	H	0.211567	-0.592382	-0.014725
H748	H	0.196061	-0.630335	0.009833
H749	H	0.617482	-0.318952	-0.013867
C750	C	0.204937	-0.300862	-0.010581
C751	C	0.219315	-0.324477	-0.013429
H752	H	0.178660	-0.313986	-0.009602
H753	H	0.199187	-0.294436	0.012038
H754	H	0.227210	-0.278152	-0.032251
H755	H	0.197043	-0.347186	0.008243
H756	H	0.225063	-0.330909	-0.036050
