data_functionalizedCrystal
_audit_creation_method	'MofGen! by Chris Wilmer'
_symmetry_space_group_name_H-M	'P1'
_symmetry_Int_Tables_number	1
_symmetry_cell_setting	triclinic
loop_
_symmetry_equiv_pos_as_xyz
  x,y,z
_cell_length_a	10.654550
_cell_length_b	9.730223
_cell_length_c	10.654551
_cell_angle_alpha	90.001738
_cell_angle_beta	95.514834
_cell_angle_gamma	90.006378
loop_
_atom_site_label
_atom_site_type_symbol
_atom_site_fract_x
_atom_site_fract_y
_atom_site_fract_z
O1	O	1.667840	0.114397	-0.176390
O2	O	1.302361	0.114375	-0.193196
O3	O	1.493503	0.114383	-0.002054
O4	O	1.476698	0.114388	-0.367532
O5	O	1.493491	-0.114197	-0.002065
O6	O	1.302349	-0.114205	-0.193207
O7	O	1.667828	-0.114183	-0.176401
Zn8	Zn	1.485086	-0.150486	-0.184806
Zn9	Zn	1.485103	0.150678	-0.184792
O10	O	1.476686	-0.114192	-0.367543
C11	C	1.255557	0.000082	-0.191968
C12	C	1.116114	0.000073	-0.188276
C13	C	1.036629	0.000095	-0.300817
C14	C	0.905608	0.000119	-0.297341
C15	C	0.933570	0.000105	-0.068771
C16	C	1.064589	0.000071	-0.072249
C17	C	1.088154	0.000097	-0.416844
C18	C	1.008668	0.000120	-0.529395
C19	C	0.877647	0.000144	-0.525918
C20	C	0.826113	0.000144	-0.409891
N21	N	1.485084	-0.356022	-0.184814
C22	C	1.561914	-0.427956	-0.261689
C23	C	1.561933	-0.571839	-0.261665
C24	C	1.408281	-0.571843	-0.107889
C25	C	1.408270	-0.427962	-0.107907
C26	C	1.638729	-0.356016	-0.338596
C27	C	1.715564	-0.427949	-0.415478
C28	C	1.715583	-0.571832	-0.415454
C29	C	1.638766	-0.643782	-0.338549
C30	C	1.714632	0.000113	-0.177629
C31	C	1.854075	0.000131	-0.181321
C32	C	1.492263	0.000096	0.044739
C33	C	1.488570	0.000102	0.184182
N34	N	1.485114	0.356214	-0.184773
C35	C	1.477926	0.000099	-0.414336
C36	C	1.481619	0.000102	-0.553779
C37	C	1.486844	0.124702	0.249691
C38	C	1.483364	0.124703	0.380712
C39	C	1.483342	-0.124508	0.380702
C40	C	1.486813	-0.124507	0.249683
C41	C	1.405180	0.274396	0.550791
C42	C	1.403476	0.399003	0.616308
C43	C	1.478075	0.509018	0.582772
C44	C	1.554409	0.494432	0.483726
C45	C	1.556125	0.369823	0.418218
C46	C	1.481496	0.259813	0.451747
C47	C	1.565007	-0.274192	0.079603
C48	C	1.566731	-0.398802	0.014093
C49	C	1.492140	-0.508829	0.047626
C50	C	1.415825	-0.494256	0.146679
C51	C	1.414100	-0.369646	0.212189
C52	C	1.488689	-0.259618	0.178646
H53	H	0.812932	0.000149	-0.617562
C54	C	1.800097	-0.650955	-0.500017
H55	H	1.845832	-0.587499	-0.545826
H56	H	1.857459	-0.707062	-0.449088
H57	H	1.749125	-0.707102	-0.557334
H58	H	1.638800	-0.760941	-0.338524
H59	H	1.344418	0.184827	0.578094
H60	H	1.351952	-0.357785	0.292841
H61	H	1.615163	0.584017	0.456440
H62	H	1.345739	-0.630435	-0.045279
C63	C	0.681992	0.000175	-0.406068
H64	H	0.642031	0.000195	-0.489712
H65	H	0.657487	-0.079526	-0.363076
H66	H	0.657546	0.079905	-0.363073
C67	C	0.876884	0.000125	0.058846
H68	H	0.787470	0.000163	0.044798
H69	H	0.904070	-0.079589	0.105236
H70	H	0.904128	0.079843	0.105229
H71	H	1.129308	0.000057	0.019392
C72	C	1.638707	-0.197750	-0.338621
H73	H	1.581942	-0.165212	-0.281827
H74	H	1.721235	-0.165169	-0.312906
H75	H	1.612901	-0.165231	-0.421151
C76	C	1.800057	-0.348811	-0.500064
H77	H	1.789036	-0.252818	-0.489078
H78	H	1.885786	-0.372364	-0.477530
H79	H	1.777457	-0.372417	-0.585780
C80	C	1.232272	0.000085	-0.420666
H81	H	1.272232	0.000085	-0.337022
H82	H	1.256741	-0.079619	-0.463672
H83	H	1.256756	0.079813	-0.463646
C84	C	1.323753	-0.348830	-0.023353
H85	H	1.277993	-0.412280	0.022438
H86	H	1.374713	-0.292680	0.033959
H87	H	1.266393	-0.292726	-0.074301
H88	H	1.481913	-0.225960	0.434049
H89	H	1.488271	0.226166	0.196364
C90	C	1.640067	0.353776	0.309266
H91	H	1.684250	0.437147	0.298670
H92	H	1.698798	0.281522	0.328194
H93	H	1.588922	0.332787	0.233701
C94	C	1.319503	0.415052	0.725242
H95	H	1.275296	0.331692	0.735819
H96	H	1.370619	0.436050	0.800814
H97	H	1.260772	0.487310	0.706283
H98	H	1.355058	-0.583836	0.173959
C99	C	1.650665	-0.414827	-0.094875
H100	H	1.694827	-0.331445	-0.105483
H101	H	1.709414	-0.487065	-0.075950
H102	H	1.599516	-0.435834	-0.170434
C103	C	1.647115	-0.153187	0.042759
H104	H	1.692844	-0.179729	-0.025587
H105	H	1.594698	-0.076939	0.018302
H106	H	1.704500	-0.128269	0.112851
H107	H	1.476685	0.610476	0.636125
H108	H	1.493561	-0.610297	-0.005716
H109	H	1.050636	0.000108	-0.623860
