data_functionalizedCrystal
_audit_creation_method	'MofGen! by Chris Wilmer'
_symmetry_space_group_name_H-M	'P1'
_symmetry_Int_Tables_number	1
_symmetry_cell_setting	triclinic
loop_
_symmetry_equiv_pos_as_xyz
  x,y,z
_cell_length_a	16.959455
_cell_length_b	29.839131
_cell_length_c	16.959447
_cell_angle_alpha	89.966085
_cell_angle_beta	89.985678
_cell_angle_gamma	90.038367
loop_
_atom_site_label
_atom_site_type_symbol
_atom_site_fract_x
_atom_site_fract_y
_atom_site_fract_z
Zn1	Zn	1.208267	-0.178881	-0.446889
Zn2	Zn	1.708267	0.321119	0.053111
Zn3	Zn	1.208140	-0.254014	-0.314702
Zn4	Zn	1.708140	0.245986	0.185298
Zn5	Zn	1.076095	-0.178895	-0.314726
Zn6	Zn	1.576095	0.321105	0.185274
Zn7	Zn	1.076010	-0.253981	-0.446841
Zn8	Zn	1.576010	0.246019	0.053159
O9	O	1.142128	-0.216443	-0.380790
O10	O	1.642128	0.283557	0.119210
O11	O	1.318861	-0.188856	-0.429364
O12	O	1.818861	0.311144	0.070636
O13	O	1.190606	-0.244070	-0.204094
O14	O	1.690606	0.255930	0.295906
O15	O	1.093716	-0.116026	-0.332288
O16	O	1.593716	0.383974	0.167712
O17	O	1.318767	-0.244056	-0.332247
O18	O	1.818767	0.255944	0.167753
O19	O	1.190822	-0.116016	-0.429388
O20	O	1.690822	0.383984	0.070612
O21	O	1.093593	-0.188880	-0.204112
O22	O	1.593593	0.311120	0.295888
O23	O	0.965473	-0.188847	-0.332242
O24	O	1.465473	0.311153	0.167758
O25	O	1.093572	-0.243999	-0.557458
O26	O	1.593572	0.256001	-0.057458
O27	O	0.965411	-0.244012	-0.429305
O28	O	1.465411	0.255988	0.070695
O29	O	1.190740	-0.188823	-0.557493
O30	O	1.690740	0.311177	-0.057493
O31	O	1.190524	-0.316877	-0.332200
O32	O	1.690524	0.183123	0.167800
O33	O	1.093449	-0.316852	-0.429282
O34	O	1.593449	0.183148	0.070718
C35	C	0.936762	-0.216428	-0.380771
C36	C	1.436762	0.283572	0.119229
C37	C	0.848905	-0.216433	-0.380782
C38	C	1.348905	0.283567	0.119218
C39	C	1.141985	-0.333165	-0.380750
C40	C	1.641985	0.166835	0.119250
C41	C	1.141996	-0.383100	-0.380760
C42	C	1.641996	0.116900	0.119240
C43	C	0.477437	-0.187695	-0.330354
C44	C	0.977437	0.312305	0.169646
C45	C	0.477421	-0.245228	-0.431270
C46	C	0.977421	0.254772	0.068730
C47	C	0.559967	-0.245221	-0.431265
C48	C	1.059967	0.254779	0.068735
C49	C	0.601252	-0.216452	-0.380803
C50	C	1.101252	0.283548	0.119197
C51	C	0.559991	-0.187688	-0.330346
C52	C	1.059991	0.312312	0.169654
C53	C	0.601235	-0.273987	-0.481716
C54	C	1.101235	0.226013	0.018284
C55	C	0.683786	-0.273982	-0.481713
C56	C	1.183786	0.226018	0.018287
C57	C	0.725072	-0.245210	-0.431254
C58	C	1.225072	0.254790	0.068746
C59	C	0.683806	-0.216445	-0.380795
C60	C	1.183806	0.283555	0.119205
C61	C	0.725090	-0.187676	-0.330333
C62	C	1.225090	0.312324	0.169667
C63	C	0.683826	-0.158908	-0.279878
C64	C	1.183826	0.341092	0.220122
C65	C	0.601277	-0.158916	-0.279887
C66	C	1.101277	0.341084	0.220113
C67	C	0.807620	-0.245202	-0.431245
C68	C	1.307620	0.254798	0.068755
C69	C	0.807644	-0.187669	-0.330325
C70	C	1.307644	0.312331	0.169675
C71	C	1.192767	-0.692743	-0.330313
C72	C	1.692767	-0.192743	0.169687
C73	C	1.192864	-0.880416	-0.330344
C74	C	1.692864	-0.380416	0.169656
O75	O	1.235918	-0.904681	-0.287422
O76	O	1.735918	-0.404681	0.212578
N77	N	1.142292	-0.903885	-0.380849
N78	N	1.642292	-0.403885	0.119151
C79	C	1.091695	-0.880432	-0.431354
C80	C	1.591695	-0.380432	0.068646
O81	O	1.048688	-0.904700	-0.474319
O82	O	1.548688	-0.404700	0.025681
C83	C	1.091602	-0.692760	-0.431327
C84	C	1.591602	-0.192760	0.068673
C85	C	1.142172	-0.669294	-0.380812
C86	C	1.642172	-0.169294	0.119188
C87	C	1.243333	-0.669277	-0.279803
C88	C	1.743333	-0.169277	0.220197
C89	C	1.243305	-0.622362	-0.279793
C90	C	1.743305	-0.122362	0.220207
C91	C	1.192711	-0.598913	-0.330293
C92	C	1.692711	-0.098913	0.169707
C93	C	1.142144	-0.622379	-0.380802
C94	C	1.642144	-0.122379	0.119198
C95	C	1.041010	-0.669308	-0.481835
C96	C	1.541010	-0.169308	0.018165
C97	C	1.040992	-0.622387	-0.481826
C98	C	1.540992	-0.122387	0.018174
C99	C	1.091563	-0.598921	-0.431311
C100	C	1.591563	-0.098921	0.068689
C101	C	1.091522	-0.552014	-0.431292
C102	C	1.591522	-0.052014	0.068708
N103	N	1.142094	-0.528545	-0.380786
N104	N	1.642094	-0.028545	0.119214
C105	C	1.192689	-0.551995	-0.330287
C106	C	1.692689	-0.051995	0.169713
C107	C	1.091746	-0.978963	-0.431364
C108	C	1.591746	-0.478963	0.068636
C109	C	1.091768	-1.025881	-0.431370
C110	C	1.591768	-0.525881	0.068630
C111	C	1.192939	-1.025862	-0.330360
C112	C	1.692939	-0.525862	0.169640
C113	C	1.192912	-0.978943	-0.330351
C114	C	1.692912	-0.478943	0.169649
C115	C	1.142319	-0.955494	-0.380858
C116	C	1.642319	-0.455494	0.119142
C117	C	1.192626	-0.453469	-0.330268
C118	C	1.692626	0.046531	0.169732
C119	C	1.192591	-0.406549	-0.330260
C120	C	1.692591	0.093451	0.169740
C121	C	1.091424	-0.406572	-0.431273
C122	C	1.591424	0.093428	0.068727
C123	C	1.091455	-0.453488	-0.431278
C124	C	1.591455	0.046512	0.068722
C125	C	1.142063	-0.476935	-0.380773
C126	C	1.642063	0.023065	0.119227
O127	O	1.048497	-0.527720	-0.474197
O128	O	1.548497	-0.027720	0.025803
O129	O	1.235702	-0.527719	-0.287341
O130	O	1.735702	-0.027719	0.212659
C131	C	1.192795	-0.739659	-0.330323
C132	C	1.692795	-0.239659	0.169677
C133	C	1.142228	-0.763125	-0.380833
C134	C	1.642228	-0.263125	0.119167
C135	C	1.091633	-0.739675	-0.431332
C136	C	1.591633	-0.239675	0.068668
C137	C	1.142250	-0.810043	-0.380839
C138	C	1.642250	-0.310043	0.119161
C139	C	1.192845	-0.833492	-0.330339
C140	C	1.692845	-0.333492	0.169661
C141	C	1.243417	-0.810024	-0.279834
C142	C	1.743417	-0.310024	0.220166
C143	C	1.243389	-0.763108	-0.279824
C144	C	1.743389	-0.263108	0.220176
C145	C	1.041061	-0.763144	-0.481838
C146	C	1.541061	-0.263144	0.018162
C147	C	1.041092	-0.810059	-0.481843
C148	C	1.541092	-0.310059	0.018157
C149	C	1.091687	-0.833509	-0.431344
C150	C	1.591687	-0.333509	0.068656
C151	C	1.348296	-0.216458	-0.380808
C152	C	1.848296	0.283542	0.119192
C153	C	1.436153	-0.216465	-0.380816
C154	C	1.936153	0.283535	0.119184
C155	C	1.142161	-0.216406	-0.586958
C156	C	1.642161	0.283594	-0.086958
C157	C	1.142175	-0.216390	-0.674814
C158	C	1.642175	0.283610	-0.174814
C159	C	1.142293	-0.099264	-0.380846
C160	C	1.642293	0.400736	0.119154
C161	C	1.142363	-0.049330	-0.380870
C162	C	1.642363	0.450670	0.119130
C163	C	1.091678	-0.245070	-1.046274
C164	C	1.591678	0.254930	-0.546274
C165	C	1.192860	-0.187615	-1.046306
C166	C	1.692860	0.312385	-0.546306
C167	C	1.192839	-0.187625	-0.963760
C168	C	1.692839	0.312375	-0.463760
C169	C	1.142238	-0.216358	-0.922468
C170	C	1.642238	0.283642	-0.422468
C171	C	1.091657	-0.245081	-0.963721
C172	C	1.591657	0.254919	-0.463721
C173	C	1.243424	-0.158905	-0.922501
C174	C	1.743424	0.341095	-0.422501
C175	C	1.243406	-0.158914	-0.839950
C176	C	1.743406	0.341086	-0.339950
C177	C	1.192800	-0.187645	-0.798656
C178	C	1.692800	0.312355	-0.298656
C179	C	1.142217	-0.216369	-0.839914
C180	C	1.642217	0.283631	-0.339914
C181	C	1.091615	-0.245102	-0.798621
C182	C	1.591615	0.254898	-0.298621
C183	C	1.041028	-0.273824	-0.839878
C184	C	1.541028	0.226176	-0.339878
C185	C	1.041051	-0.273812	-0.922426
C186	C	1.541051	0.226188	-0.422426
C187	C	1.192776	-0.187657	-0.716107
C188	C	1.692776	0.312343	-0.216107
C189	C	1.091594	-0.245113	-0.716068
C190	C	1.591594	0.254887	-0.216068
C191	C	1.142141	-0.216447	-0.175423
C192	C	1.642141	0.283553	0.324577
C193	C	1.142280	-0.216337	-0.087567
C194	C	1.642280	0.283663	0.412433
H195	H	0.841252	-0.164238	-0.289237
H196	H	1.341252	0.335762	0.210763
F197	F	0.987180	-0.304405	-0.795922
F198	F	1.487180	0.195595	-0.295922
H199	H	1.050381	-0.268507	-0.682453
H200	H	1.550381	0.231493	-0.182453
F201	F	1.246488	-0.478416	-0.276515
F202	F	1.746488	0.021584	0.223485
H203	H	1.284568	-0.744006	-0.238690
H204	H	1.784568	-0.244006	0.261310
H205	H	1.233966	-0.164273	-0.682520
H206	H	1.733966	0.335727	-0.182520
F207	F	0.987144	-0.597434	-0.535586
F208	F	1.487144	-0.097434	-0.035586
H209	H	0.717450	-0.135486	-0.238788
H210	H	1.217450	0.364514	0.261212
F211	F	0.987192	-0.694272	-0.535608
F212	F	1.487192	-0.194272	-0.035608
F213	F	1.246716	-0.157040	-1.090255
F214	F	1.746716	0.342960	-0.590255
F215	F	0.433521	-0.157078	-0.276662
F216	F	0.933521	0.342922	0.223338
F217	F	0.433481	-0.275853	-0.484958
F218	F	0.933481	0.224147	0.015042
H219	H	1.284486	-0.603259	-0.238662
H220	H	1.784486	-0.103259	0.261338
F221	F	0.557293	-0.304615	-0.535397
F222	F	1.057293	0.195385	-0.035397
F223	F	1.246784	-1.050826	-0.276613
F224	F	1.746784	-0.550826	0.223387
H225	H	1.050582	-1.044983	-0.472496
H226	H	1.550582	-0.544983	0.027504
F227	F	0.851534	-0.275819	-0.484934
F228	F	1.351534	0.224181	0.015066
H229	H	1.284538	-0.688365	-0.238680
H230	H	1.784538	-0.188365	0.261320
H231	H	0.999868	-0.297198	-0.956025
H232	H	1.499868	0.202802	-0.456025
F233	F	1.297243	-0.128344	-0.796049
F234	F	1.797243	0.371656	-0.296049
F235	F	1.037840	-0.275635	-1.090182
F236	F	1.537840	0.224365	-0.590182
F237	F	1.037893	-0.954013	-0.485124
F238	F	1.537893	-0.454013	0.014876
H239	H	0.567672	-0.135496	-0.238808
H240	H	1.067672	0.364504	0.261192
H241	H	0.717376	-0.297406	-0.522797
H242	H	1.217376	0.202594	-0.022797
H243	H	1.233771	-0.387445	-0.289123
H244	H	1.733771	0.112555	0.210877
F245	F	1.246736	-0.953973	-0.276587
F246	F	1.746736	-0.453973	0.223413
F247	F	1.297279	-0.128331	-0.966451
F248	F	1.797279	0.371669	-0.466451
H249	H	1.050279	-0.472595	-0.472414
H250	H	1.550279	0.027405	0.027586
H251	H	1.284611	-0.829124	-0.238713
H252	H	1.784611	-0.329124	0.261287
F253	F	1.037582	-0.381608	-0.485017
F254	F	1.537582	0.118392	0.014983
H255	H	0.999862	-0.744055	-0.522962
H256	H	1.499862	-0.244055	-0.022962
H257	H	0.999905	-0.829161	-0.522978
H258	H	1.499905	-0.329161	-0.022978
