data_functionalizedCrystal
_audit_creation_method	'MofGen! by Chris Wilmer'
_symmetry_space_group_name_H-M	'P1'
_symmetry_Int_Tables_number	1
_symmetry_cell_setting	triclinic
loop_
_symmetry_equiv_pos_as_xyz
  x,y,z
_cell_length_a	15.944499
_cell_length_b	15.186229
_cell_length_c	16.109304
_cell_angle_alpha	89.996984
_cell_angle_beta	83.470124
_cell_angle_gamma	89.996898
loop_
_atom_site_label
_atom_site_type_symbol
_atom_site_fract_x
_atom_site_fract_y
_atom_site_fract_z
O1	O	1.114512	-0.073276	0.107025
O2	O	0.869952	-0.073265	0.120290
O3	O	0.998949	-0.073271	-0.007372
O4	O	0.985515	-0.073270	0.234688
O5	O	0.998948	0.073186	-0.007380
O6	O	0.869951	0.073192	0.120282
O7	O	1.114511	0.073181	0.107017
Zn8	Zn	0.992231	0.096440	0.113649
Zn9	Zn	0.992232	-0.096524	0.113659
O10	O	0.985514	0.073188	0.234680
C11	C	0.838657	-0.000035	0.119743
C12	C	0.745409	-0.000032	0.118115
C13	C	0.453849	-0.000044	0.192284
C14	C	0.514891	-0.072257	0.153733
C15	C	0.409775	-0.000052	0.112200
C16	C	0.514876	0.072138	0.153704
C17	C	0.574682	-0.000041	0.115110
C18	C	0.469589	-0.072325	0.073627
C19	C	0.469567	0.072136	0.073609
C20	C	0.530592	-0.000095	0.035000
C21	C	0.314775	-0.000059	0.110525
C22	C	0.669681	-0.000039	0.116779
C23	C	0.998404	-0.000045	-0.038351
C24	C	0.996771	-0.000051	-0.130646
C25	C	1.145806	-0.000050	0.107564
C26	C	1.239054	-0.000060	0.109193
N27	N	0.992234	-0.228216	0.113660
C28	C	1.049464	-0.453942	0.057240
C29	C	1.049466	-0.546132	0.057238
C30	C	0.935003	-0.546135	0.170067
C31	C	0.935005	-0.453947	0.170073
C32	C	0.992235	-0.407853	0.113654
C33	C	0.992235	-0.592231	0.113647
C34	C	0.992237	-0.692187	0.113645
C35	C	0.992234	-0.307891	0.113657
N36	N	0.992236	0.228133	0.113641
C37	C	0.993000	-0.079881	-0.342980
C38	C	0.991458	-0.079880	-0.429700
C39	C	0.991461	0.079796	-0.429706
C40	C	0.992997	0.079794	-0.342986
C41	C	0.993770	-0.000047	-0.299626
C42	C	0.990693	-0.000044	-0.473066
C43	C	0.989021	-0.000043	-0.567092
C44	C	0.995441	-0.000049	-0.205594
C45	C	0.986059	-0.000041	0.265659
C46	C	0.987692	-0.000041	0.357954
H47	H	0.534979	-0.133303	0.187611
O48	O	1.104942	-0.409124	0.002361
C49	C	1.123079	-0.304987	-0.111129
C50	C	1.060155	-0.355702	-0.049039
H51	H	1.086895	-0.261770	-0.152690
H52	H	1.163974	-0.353726	-0.151511
H53	H	1.164963	-0.261874	-0.075105
H54	H	1.018217	-0.398817	-0.084996
H55	H	1.019320	-0.306916	-0.008658
O56	O	0.445627	-0.145214	0.033314
C57	C	0.330318	-0.226967	-0.013517
C58	C	0.357339	-0.144393	0.032166
H59	H	0.258938	-0.226321	-0.014476
H60	H	0.349306	-0.288459	0.020396
H61	H	0.362725	-0.227222	-0.080351
H62	H	0.324946	-0.144053	0.099001
H63	H	0.338367	-0.082939	-0.001813
H64	H	0.993619	0.144808	-0.307686
O65	O	0.445241	0.144869	0.033299
C66	C	0.377952	0.201506	-0.082200
C67	C	0.405680	0.119058	-0.036780
H68	H	0.345945	0.180666	-0.138859
H69	H	0.435591	0.243610	-0.103524
H70	H	0.331736	0.241284	-0.037799
H71	H	0.451877	0.079210	-0.081133
H72	H	0.348001	0.077018	-0.015442
O73	O	0.414089	-0.000280	0.271581
C74	C	0.391984	-0.076654	0.403374
C75	C	0.437051	-0.076501	0.313590
H76	H	0.410545	-0.138263	0.437370
H77	H	0.320737	-0.076082	0.401418
H78	H	0.411350	-0.015686	0.437824
H79	H	0.417753	-0.137459	0.279088
H80	H	0.508289	-0.077028	0.315607
O81	O	0.570172	-0.000296	-0.044369
C82	C	0.591935	-0.076582	-0.176219
C83	C	0.547073	-0.076471	-0.086352
H84	H	0.573263	-0.138154	-0.210194
H85	H	0.663206	-0.076054	-0.174432
H86	H	0.572502	-0.015576	-0.210580
H87	H	0.566437	-0.137467	-0.051938
H88	H	0.475811	-0.076953	-0.088199
H89	H	1.096068	-0.583655	0.011301
O90	O	0.538699	0.144945	0.194231
C91	C	0.526383	0.227175	0.322969
C92	C	0.499324	0.144702	0.277159
H93	H	0.494574	0.226996	0.390029
H94	H	0.506817	0.288744	0.289539
H95	H	0.597847	0.226810	0.323264
H96	H	0.427864	0.144981	0.276851
H97	H	0.518951	0.083170	0.310604
H98	H	0.888407	-0.583675	0.216000
H99	H	0.888402	-0.416419	0.216016
O100	O	0.993704	-0.157514	-0.300982
C101	C	0.993582	-0.315890	-0.310139
C102	C	0.992766	-0.228032	-0.357799
H103	H	0.992842	-0.372927	-0.356058
H104	H	0.935537	-0.319937	-0.261943
H105	H	1.053037	-0.319842	-0.277132
H106	H	0.933350	-0.224021	-0.390857
H107	H	1.050851	-0.224022	-0.405948
O108	O	0.990562	-0.157408	-0.471833
C109	C	0.916122	-0.250050	-0.560346
C110	C	0.917023	-0.162224	-0.512654
H111	H	0.856681	-0.253965	-0.593376
H112	H	0.916883	-0.307146	-0.514487
H113	H	0.974178	-0.254032	-0.608531
H114	H	0.858977	-0.158157	-0.464469
H115	H	0.916305	-0.105170	-0.558563
O116	O	0.990756	0.157270	-0.471962
C117	C	0.988356	0.228041	-0.605556
C118	C	0.989166	0.140236	-0.557809
H119	H	0.987053	0.214300	-0.674968
H120	H	1.047423	0.267413	-0.596183
H121	H	0.929926	0.267420	-0.580846
H122	H	1.047557	0.100786	-0.582488
H123	H	0.930060	0.100931	-0.567180
