data_functionalizedCrystal
_audit_creation_method	'MofGen! by Chris Wilmer'
_symmetry_space_group_name_H-M	'P1'
_symmetry_Int_Tables_number	1
_symmetry_cell_setting	triclinic
loop_
_symmetry_equiv_pos_as_xyz
  x,y,z
_cell_length_a	16.120484
_cell_length_b	14.908618
_cell_length_c	14.908694
_cell_angle_alpha	96.408947
_cell_angle_beta	96.323893
_cell_angle_gamma	90.214222
loop_
_atom_site_label
_atom_site_type_symbol
_atom_site_fract_x
_atom_site_fract_y
_atom_site_fract_z
Zn1	Zn	-0.438947	-1.390527	-0.614282
Zn2	Zn	0.061053	-0.890527	-0.114282
Zn3	Zn	-0.569830	-1.374892	-0.469697
Zn4	Zn	-0.069830	-0.874892	0.030303
Zn5	Zn	-0.421891	-1.231315	-0.453330
Zn6	Zn	0.078109	-0.731315	0.046670
Zn7	Zn	-0.569762	-1.232327	-0.612288
Zn8	Zn	-0.069762	-0.732327	-0.112288
O9	O	-0.500108	-1.307265	-0.537399
O10	O	-0.000108	-0.807265	-0.037399
O11	O	-0.463476	-1.514747	-0.602787
O12	O	0.036524	-1.014747	-0.102787
O13	O	-0.543096	-1.348879	-0.340492
O14	O	-0.043096	-0.848879	0.159508
O15	O	-0.307494	-1.258555	-0.468666
O16	O	0.192506	-0.758555	0.031334
O17	O	-0.559635	-1.503260	-0.496561
O18	O	-0.059635	-1.003260	0.003439
O19	O	-0.320026	-1.375527	-0.586917
O20	O	0.179974	-0.875527	-0.086917
O21	O	-0.434406	-1.243394	-0.328467
O22	O	0.065594	-0.743394	0.171533
O23	O	-0.434339	-1.105155	-0.466732
O24	O	0.065661	-0.605155	0.033268
O25	O	-0.559518	-1.260279	-0.739586
O26	O	-0.059518	-0.760279	-0.239586
O27	O	-0.542979	-1.105898	-0.583517
O28	O	-0.042979	-0.605898	-0.083517
O29	O	-0.463410	-1.376508	-0.741052
O30	O	0.036590	-0.876508	-0.241052
O31	O	-0.686481	-1.349860	-0.494627
O32	O	-0.186481	-0.849860	0.005373
O33	O	-0.686430	-1.245118	-0.599388
O34	O	-0.186430	-0.745118	-0.099388
C35	C	-0.486802	-1.072780	-0.523132
C36	C	0.013198	-0.572780	-0.023132
C37	C	-0.481131	-0.972466	-0.517052
C38	C	0.018869	-0.472466	-0.017052
C39	C	-0.583758	-0.784771	-0.627087
C40	C	-0.083758	-0.284771	-0.127087
C41	C	-0.578432	-0.690517	-0.621377
C42	C	-0.078432	-0.190517	-0.121377
C43	C	-0.465150	-0.689704	-0.499926
C44	C	0.034850	-0.189704	0.000074
C45	C	-0.470476	-0.783957	-0.505636
C46	C	0.029524	-0.283957	-0.005636
C47	C	-0.529782	-0.831488	-0.569218
C48	C	-0.029782	-0.331488	-0.069218
C49	C	-0.535111	-0.925742	-0.574923
C50	C	-0.035111	-0.425742	-0.074923
C51	C	-0.421826	-0.924928	-0.453478
C52	C	0.078174	-0.424928	0.046522
C53	C	-0.416501	-0.830674	-0.447768
C54	C	0.083499	-0.330674	0.052232
C55	C	-0.716706	-1.295928	-0.548588
C56	C	-0.216706	-0.795928	-0.048588
C57	C	-0.809375	-1.291162	-0.553410
C58	C	-0.309375	-0.791162	-0.053410
C59	C	-0.979042	-1.282467	-0.562233
C60	C	-0.479042	-0.782467	-0.062233
C61	C	-1.020343	-1.332226	-0.512591
C62	C	-0.520343	-0.832226	-0.012591
C63	C	-1.114752	-1.327388	-0.517499
C64	C	-0.614752	-0.827388	-0.017499
C65	C	-0.884625	-1.287304	-0.557325
C66	C	-0.384625	-0.787304	-0.057325
C67	C	-0.282666	-1.318672	-0.526188
C68	C	0.217334	-0.818672	-0.026188
C69	C	-0.190005	-1.323533	-0.521411
C70	C	0.309995	-0.823533	-0.021411
C71	C	-0.513359	-1.320251	-0.774179
C72	C	-0.013359	-0.820251	-0.274179
C73	C	-0.519006	-1.325784	-0.875080
C74	C	-0.019006	-0.825784	-0.375080
C75	C	-0.513459	-0.542666	-0.551715
C76	C	-0.013459	-0.042666	-0.051715
C77	C	-0.519131	-0.642980	-0.557798
C78	C	-0.019131	-0.142980	-0.057798
C79	C	-0.416439	-1.226320	-1.052163
C80	C	0.083561	-0.726320	-0.552163
C81	C	-0.421742	-1.231516	-1.146968
C82	C	0.078258	-0.731516	-0.646968
C83	C	-0.534918	-1.341368	-1.159498
C84	C	-0.034918	-0.841368	-0.659498
C85	C	-0.529615	-1.336171	-1.064692
C86	C	-0.029615	-0.836171	-0.564692
C87	C	-0.470373	-1.278646	-1.011028
C88	C	0.029627	-0.778646	-0.511028
C89	C	-0.465066	-1.273455	-0.916221
C90	C	0.034934	-0.773455	-0.416221
C91	C	-0.578246	-1.383302	-0.928752
C92	C	-0.078246	-0.883302	-0.428752
C93	C	-0.583549	-1.388498	-1.023557
C94	C	-0.083549	-0.888498	-0.523557
C95	C	-0.486850	-1.294385	-0.301541
C96	C	0.013150	-0.794385	0.198459
C97	C	-0.480979	-1.289039	-0.200639
C98	C	0.019021	-0.789039	0.299361
H99	H	-0.368213	-0.791962	-0.396004
H100	H	0.131787	-0.291962	0.103996
C101	C	-1.027048	-1.220009	-0.624620
C102	C	-0.527048	-0.720009	-0.124620
H103	H	-0.988723	-1.189426	-0.655127
H104	H	-0.488723	-0.689426	-0.155127
H105	H	-1.056895	-1.177104	-0.589201
H106	H	-0.556895	-0.677104	-0.089201
H107	H	-1.065144	-1.254973	-0.668034
H108	H	-0.565144	-0.754973	-0.168034
H109	H	-0.622383	-0.652484	-0.668501
H110	H	-0.122383	-0.152484	-0.168501
C111	C	-0.362449	-0.976318	-0.389822
C112	C	0.137551	-0.476318	0.110178
H113	H	-0.374110	-1.039260	-0.402330
H114	H	0.125890	-0.539260	0.097670
H115	H	-0.370275	-0.956876	-0.328496
H116	H	0.129725	-0.456876	0.171504
H117	H	-0.306327	-0.964532	-0.399383
H118	H	0.193673	-0.464532	0.100617
H119	H	-0.583161	-1.388189	-1.203207
H120	H	-0.083161	-0.888189	-0.703207
H121	H	-0.984798	-1.378458	-0.466403
H122	H	-0.484798	-0.878458	0.033597
C123	C	-0.399912	-1.210172	-0.857192
C124	C	0.100088	-0.710172	-0.357192
H125	H	-0.368559	-1.179743	-0.895272
H126	H	0.131441	-0.679743	-0.395272
H127	H	-0.363472	-1.244561	-0.820430
H128	H	0.136528	-0.744561	-0.320430
H129	H	-0.427518	-1.167150	-0.819466
H130	H	0.072482	-0.667150	-0.319466
H131	H	-0.368194	-1.179489	-1.008469
H132	H	0.131806	-0.679489	-0.508469
C133	C	-0.648707	-1.451774	-1.082592
C134	C	-0.148707	-0.951774	-0.582592
H135	H	-0.644138	-1.447380	-1.144947
H136	H	-0.144138	-0.947380	-0.644947
H137	H	-0.703103	-1.434787	-1.069141
H138	H	-0.203103	-0.934787	-0.569141
H139	H	-0.639064	-1.512203	-1.070116
H140	H	-0.139064	-1.012203	-0.570116
C141	C	-0.399929	-0.637409	-0.429986
C142	C	0.100071	-0.137409	0.070014
H143	H	-0.404495	-0.574584	-0.434871
H144	H	0.095505	-0.074584	0.065129
H145	H	-0.345550	-0.656509	-0.441396
H146	H	0.154450	-0.156509	0.058604
H147	H	-0.409519	-0.648861	-0.370532
H148	H	0.090481	-0.148861	0.129468
H149	H	-0.622161	-1.425914	-0.895250
H150	H	-0.122161	-0.925914	-0.395250
H151	H	-0.377823	-1.188906	-1.180456
H152	H	0.122177	-0.688906	-0.680456
H153	H	-0.632051	-0.823470	-0.678853
H154	H	-0.132051	-0.323470	-0.178853
C155	C	-0.600342	-0.978025	-0.644862
C156	C	-0.100342	-0.478025	-0.144862
H157	H	-0.631718	-0.936700	-0.678514
H158	H	-0.131718	-0.436700	-0.178514
H159	H	-0.636751	-1.010986	-0.614180
H160	H	-0.136751	-0.510986	-0.114180
H161	H	-0.572792	-1.018635	-0.685055
H162	H	-0.072792	-0.518635	-0.185055
