data_functionalizedCrystal
_audit_creation_method	'MofGen! by Chris Wilmer'
_symmetry_space_group_name_H-M	'P1'
_symmetry_Int_Tables_number	1
_symmetry_cell_setting	triclinic
loop_
_symmetry_equiv_pos_as_xyz
  x,y,z
_cell_length_a	17.699099
_cell_length_b	26.210047
_cell_length_c	17.699083
_cell_angle_alpha	89.979422
_cell_angle_beta	83.286183
_cell_angle_gamma	89.979692
loop_
_atom_site_label
_atom_site_type_symbol
_atom_site_fract_x
_atom_site_fract_y
_atom_site_fract_z
O1	O	1.004085	-0.042423	0.095782
O2	O	0.783708	-0.042426	0.108222
O3	O	0.900122	-0.042420	-0.008187
O4	O	0.887670	-0.042429	0.212191
O5	O	0.900080	0.042438	-0.008220
O6	O	0.783665	0.042433	0.108189
O7	O	1.004042	0.042435	0.095749
Cu8	Cu	0.893850	0.050182	0.101966
Cu9	Cu	0.893900	-0.050172	0.102005
O10	O	0.887628	0.042429	0.212158
C11	C	0.755490	0.000003	0.107758
C12	C	0.671472	0.000002	0.106414
N13	N	0.893820	0.120766	0.101939
C14	C	1.032260	0.000005	0.096213
C15	C	1.116278	0.000003	0.097556
C16	C	0.899655	0.000010	-0.036400
C17	C	0.898316	0.000010	-0.120419
C18	C	1.155768	-0.046254	0.098206
C19	C	1.234712	-0.046254	0.099462
C20	C	1.274164	0.000002	0.100073
C21	C	1.234668	0.046263	0.099421
C22	C	1.155726	0.046263	0.098160
C23	C	1.553033	0.046263	0.104507
C24	C	1.631980	0.046260	0.105770
C25	C	1.632018	-0.046254	0.105808
C26	C	1.553076	-0.046254	0.104547
C27	C	1.513588	0.000006	0.103891
C28	C	1.427988	0.000006	0.102528
C29	C	1.359762	0.000003	0.101442
N30	N	0.893936	-0.120756	0.102026
C31	C	0.848072	0.526745	0.056120
C32	C	0.848039	0.313086	0.056101
O33	O	0.809096	0.285477	0.017084
N34	N	0.893849	0.286350	0.101949
C35	C	0.939674	0.313031	0.147801
O36	O	0.978642	0.285388	0.186791
C37	C	0.939710	0.526689	0.147816
C38	C	0.893892	0.553423	0.101971
C39	C	0.802258	0.553479	0.010279
C40	C	0.802264	0.606890	0.010287
C41	C	0.848084	0.633568	0.056137
C42	C	0.893898	0.606834	0.101979
C43	C	0.985539	0.553369	0.193663
C44	C	0.985546	0.606787	0.193661
C45	C	0.939727	0.633521	0.147816
C46	C	0.939723	0.686923	0.147838
N47	N	0.893914	0.713660	0.101990
C48	C	0.848094	0.686982	0.056140
C49	C	0.939650	0.200858	0.147791
C50	C	0.939640	0.147444	0.147789
C51	C	0.848006	0.147503	0.056088
C52	C	0.848012	0.200918	0.056095
C53	C	0.893840	0.227594	0.101944
C54	C	0.848109	0.799150	0.056161
C55	C	0.848116	0.852566	0.056176
C56	C	0.939753	0.852503	0.147874
C57	C	0.939743	0.799091	0.147862
C58	C	0.893919	0.772416	0.102000
O59	O	0.978652	0.714565	0.186828
O60	O	0.809143	0.714635	0.017143
C61	C	0.848067	0.473333	0.056112
C62	C	0.893881	0.446600	0.101954
C63	C	0.939700	0.473277	0.147804
C64	C	0.893871	0.393185	0.101952
C65	C	0.848051	0.366508	0.056101
C66	C	0.802241	0.393244	0.010254
C67	C	0.802247	0.446656	0.010262
C68	C	0.985510	0.446541	0.193652
C69	C	0.985500	0.393129	0.193641
C70	C	0.939680	0.366452	0.147790
C71	C	0.966649	0.000011	-0.169036
C72	C	0.965387	0.000007	-0.247979
C73	C	0.895791	0.000004	-0.278304
C74	C	0.827453	0.000001	-0.229680
C75	C	0.828716	0.000002	-0.150739
C76	C	0.822358	-0.000003	-0.548044
C77	C	0.821100	-0.000002	-0.626992
C78	C	0.959029	0.000002	-0.645284
C79	C	0.960292	0.000003	-0.566342
C80	C	0.891954	-0.000003	-0.517726
C81	C	0.893324	0.000001	-0.432127
C82	C	0.894421	0.000004	-0.363902
C83	C	0.888095	-0.000001	0.240371
C84	C	0.889434	-0.000004	0.324389
H85	H	1.123651	-0.083921	0.097713
H86	H	1.021031	0.000009	-0.287561
H87	H	1.016964	0.000007	-0.541657
H88	H	0.764423	-0.000003	-0.651678
H89	H	0.766713	-0.000008	-0.508469
H90	H	0.770787	-0.000004	-0.254377
H91	H	1.022866	0.628504	0.230997
O92	O	1.273087	0.091164	0.099915
C93	C	1.370854	0.144872	0.035754
C94	C	1.327420	0.093997	0.035107
H95	H	1.414781	0.147184	-0.016646
H96	H	1.400843	0.147190	0.089256
H97	H	1.329049	0.177925	0.035108
H98	H	1.369174	0.060915	0.035724
H99	H	1.297419	0.091724	-0.018391
H100	H	1.266862	-0.083921	0.099986
O101	O	0.762387	0.000070	-0.103433
C102	C	0.683715	0.044043	-0.003738
C103	C	0.758870	0.044027	-0.057254
H104	H	0.680840	0.079584	0.033601
H105	H	0.680867	0.008553	0.033746
H106	H	0.633768	0.044017	-0.038987
H107	H	0.808859	0.044071	-0.022065
H108	H	0.761651	0.079514	-0.094740
O109	O	1.025464	-0.000067	-0.692435
C110	C	1.142974	-0.044042	-0.732231
C111	C	1.067776	-0.044023	-0.678780
H112	H	1.177197	-0.079582	-0.721221
H113	H	1.177264	-0.008551	-0.721231
H114	H	1.130103	-0.044020	-0.793856
H115	H	1.080579	-0.044062	-0.617136
H116	H	1.033508	-0.079511	-0.689846
O117	O	1.514875	-0.091233	0.103921
C118	C	1.523242	-0.182997	0.104130
C119	C	1.566599	-0.132095	0.104827
H120	H	1.565039	-0.216047	0.104879
H121	H	1.493331	-0.185341	0.050581
H122	H	1.479242	-0.185285	0.156474
H123	H	1.610635	-0.129773	0.052520
H124	H	1.596458	-0.129772	0.158411
H125	H	0.764930	0.371514	-0.027076
H126	H	1.664180	-0.083921	0.106339
O127	O	1.670193	0.091242	0.106322
C128	C	1.661825	0.183006	0.106183
C129	C	1.618457	0.132105	0.105538
H130	H	1.620013	0.216058	0.105565
H131	H	1.705788	0.185350	0.053814
H132	H	1.691781	0.185291	0.159708
H133	H	1.588456	0.129786	0.052048
H134	H	1.574537	0.129783	0.157942
O135	O	1.117475	0.091242	0.097566
C136	C	1.125770	0.183006	0.097611
C137	C	1.169178	0.132103	0.098309
H138	H	1.167555	0.216055	0.098196
H139	H	1.081804	0.185354	0.149978
H140	H	1.095813	0.185291	0.044084
H141	H	1.199181	0.129783	0.151801
H142	H	1.213101	0.129777	0.045907
O143	O	1.030081	0.367242	0.238199
C144	C	1.120947	0.372836	0.329176
C145	C	1.070504	0.402214	0.278746
H146	H	1.153630	0.401098	0.361984
H147	H	1.162863	0.347845	0.291927
H148	H	1.083642	0.347811	0.370993
H149	H	1.107748	0.427267	0.236922
H150	H	1.028583	0.427173	0.316043
O151	O	0.984097	0.121535	0.192438
C152	C	1.013387	0.105135	0.319791
C153	C	0.962992	0.134514	0.269316
H154	H	0.996332	0.115609	0.381958
H155	H	1.075572	0.115635	0.302900
H156	H	1.005532	0.062377	0.311880
H157	H	0.970782	0.177278	0.277200
H158	H	0.900826	0.123971	0.286219
H159	H	0.810703	0.222681	0.018764
O160	O	0.803695	0.878512	0.011525
C161	C	0.774346	0.894878	-0.115817
C162	C	0.824713	0.865473	-0.065343
H163	H	0.791310	0.884338	-0.177974
H164	H	0.782224	0.937643	-0.108004
H165	H	0.712172	0.884393	-0.098828
H166	H	0.886906	0.875915	-0.082301
H167	H	0.816771	0.822715	-0.073163
O168	O	0.803478	0.773266	0.011702
C169	C	0.676151	0.757012	-0.017721
C170	C	0.726610	0.786347	0.032686
H171	H	0.613995	0.767585	-0.000786
H172	H	0.683940	0.714235	-0.009854
H173	H	0.693178	0.767526	-0.079887
H174	H	0.709616	0.775876	0.094869
H175	H	0.718815	0.829116	0.024753
O176	O	0.757744	0.632779	-0.034323
C177	C	0.666829	0.627186	-0.125251
C178	C	0.717224	0.597808	-0.074775
H179	H	0.634044	0.598925	-0.157958
H180	H	0.704102	0.652178	-0.167147
H181	H	0.624992	0.652211	-0.087969
H182	H	0.759068	0.572755	-0.111996
H183	H	0.679904	0.572848	-0.032874
O184	O	0.757691	0.527516	-0.034149
C185	C	0.655433	0.467292	-0.038377
C186	C	0.705880	0.496647	0.012019
H187	H	0.613521	0.442336	-0.001069
H188	H	0.692664	0.442246	-0.080225
H189	H	0.622733	0.495596	-0.071149
H190	H	0.738590	0.468380	0.044840
H191	H	0.668609	0.521701	0.053819
O192	O	0.984255	0.226790	0.192222
C193	C	1.086430	0.287072	0.196491
C194	C	1.035982	0.257732	0.146081
H195	H	1.128253	0.312104	0.159208
H196	H	1.119219	0.258804	0.229238
H197	H	1.049122	0.312057	0.238361
H198	H	1.073234	0.232746	0.104168
H199	H	1.003187	0.286027	0.113387
O200	O	1.030123	0.527488	0.238213
C201	C	1.120995	0.533090	0.329183
C202	C	1.070548	0.562463	0.278752
H203	H	1.153679	0.561355	0.361984
H204	H	1.162910	0.508097	0.291934
H205	H	1.083694	0.508066	0.371006
H206	H	1.107788	0.587514	0.236922
H207	H	1.028627	0.587423	0.316048
H208	H	1.520892	0.083931	0.103961
H209	H	0.810695	0.125773	0.018757
H210	H	0.977041	0.777323	0.185204
O211	O	1.034322	-0.000010	-0.139708
C212	C	1.171000	0.000017	-0.166193
C213	C	1.094413	0.000033	-0.199505
H214	H	1.219603	0.000063	-0.214523
H215	H	1.175108	-0.035504	-0.129703
H216	H	1.174985	0.035522	-0.129683
H217	H	1.090377	-0.035448	-0.236049
H218	H	1.090338	0.035578	-0.235952
H219	H	1.022824	0.468256	0.230988
H220	H	0.764937	0.468418	-0.027070
H221	H	0.977056	0.874233	0.185206
