data_functionalizedCrystal
_audit_creation_method	'MofGen! by Chris Wilmer'
_symmetry_space_group_name_H-M	'P1'
_symmetry_Int_Tables_number	1
_symmetry_cell_setting	triclinic
loop_
_symmetry_equiv_pos_as_xyz
  x,y,z
_cell_length_a	6.817900
_cell_length_b	16.015009
_cell_length_c	16.015572
_cell_angle_alpha	60.346181
_cell_angle_beta	104.485554
_cell_angle_gamma	104.487874
loop_
_atom_site_label
_atom_site_type_symbol
_atom_site_fract_x
_atom_site_fract_y
_atom_site_fract_z
V1	V	-3.988169	-0.038676	-0.257230
O2	O	-3.988559	0.098579	-0.295267
O3	O	-3.928272	-0.169710	-0.214178
O4	O	-3.928265	0.004358	-0.388255
O5	O	-3.988567	-0.076695	-0.119985
V6	V	-4.474777	-0.027273	-0.245830
O7	O	-4.242659	-0.063689	-0.282235
O8	O	-4.670484	-0.002260	-0.220825
O9	O	-4.311468	0.103761	-0.288882
O10	O	-4.591784	-0.164529	-0.207793
O11	O	-4.591777	0.010745	-0.383075
O12	O	-4.311475	-0.070308	-0.114805
C13	C	-3.770849	-0.202980	-0.199466
C14	C	-3.803086	-0.309829	-0.165140
C15	C	-3.817370	-0.474343	-0.033264
C16	C	-3.787080	-0.373940	-0.065529
C17	C	-3.849401	-0.346103	-0.232526
C18	C	-3.879706	-0.446506	-0.200276
C19	C	-3.863685	-0.510618	-0.100644
C20	C	-3.926021	-0.482781	-0.267655
C21	C	-3.956313	-0.583175	-0.235407
C22	C	-3.940290	-0.647293	-0.135779
C23	C	-3.893976	-0.611012	-0.068396
C24	C	-3.942028	-0.418667	-0.367287
C25	C	-3.988343	-0.454943	-0.434666
C26	C	-4.018650	-0.555338	-0.402419
C27	C	-4.002627	-0.619456	-0.302791
C28	C	-4.064963	-0.591620	-0.469802
C29	C	-4.095255	-0.692013	-0.437554
C30	C	-4.032918	-0.719850	-0.270543
C31	C	-3.770838	0.019063	-0.421517
C32	C	-3.803067	0.053381	-0.528360
C33	C	-4.064975	-0.251227	-0.810197
C34	C	-4.095267	-0.218949	-0.910597
C35	C	-4.032931	-0.051951	-0.938409
C36	C	-4.002623	-0.084216	-0.838009
C37	C	-4.018652	-0.183855	-0.773910
C38	C	-3.956300	-0.016843	-0.801722
C39	C	-3.926006	-0.049106	-0.701331
C40	C	-3.942036	-0.148740	-0.637226
C41	C	-3.988358	-0.216117	-0.673518
C42	C	-3.940287	0.082795	-0.865823
C43	C	-3.893963	0.150167	-0.829536
C44	C	-3.863654	0.117906	-0.729143
C45	C	-3.879684	0.018271	-0.665038
C46	C	-3.817332	0.185282	-0.692850
C47	C	-3.787039	0.153020	-0.592459
C48	C	-3.849390	-0.013991	-0.564647
C49	C	-4.132233	0.137025	-0.303590
C50	C	-4.079233	0.243875	-0.337922
C51	C	-4.132244	-0.085017	-0.081537
C52	C	-4.079254	-0.119331	0.025305
H53	H	-4.077982	-0.539405	-0.550923
C54	C	-3.887793	-0.280365	-0.007979
C55	C	-3.736182	-0.334055	0.008534
H56	H	-3.856358	-0.255735	0.037737
H57	H	-4.016830	-0.321116	-0.000938
H58	H	-3.892983	-0.227821	-0.071935
H59	H	-3.731002	-0.386604	0.072488
H60	H	-3.607110	-0.293301	0.001501
H61	H	-3.804337	-0.526547	0.047866
H62	H	-4.078000	-0.332363	-0.758002
H63	H	-3.917302	-0.336920	-0.393539
C64	C	-3.720947	-0.736876	0.067821
C65	C	-3.876364	-0.681492	0.041124
H66	H	-3.710081	-0.780389	0.135430
H67	H	-3.594498	-0.694968	0.053849
H68	H	-3.752882	-0.772845	0.032301
H69	H	-3.844421	-0.645518	0.076639
H70	H	-4.002841	-0.723406	0.055106
H71	H	-3.964924	0.109060	-0.947567
C72	C	-4.169357	-0.833554	-0.462267
C73	C	-4.146167	-0.731896	-0.511615
H74	H	-4.200768	-0.858173	-0.507991
H75	H	-4.277461	-0.857879	-0.424756
H76	H	-4.045551	-0.853550	-0.420597
H77	H	-4.269979	-0.711900	-0.553280
H78	H	-4.038055	-0.707561	-0.549142
C79	C	-3.830651	-0.179846	-0.356118
C80	C	-3.867018	-0.275627	-0.342039
H81	H	-3.841546	-0.136340	-0.423729
H82	H	-3.696936	-0.166955	-0.325025
H83	H	-3.928836	-0.171283	-0.329161
H84	H	-3.768824	-0.284191	-0.368990
H85	H	-4.000753	-0.288522	-0.373145
C86	C	-4.052587	-0.152563	-0.504159
C87	C	-3.908735	-0.184208	-0.526872
H88	H	-4.032016	-0.174455	-0.436032
H89	H	-4.186882	-0.178188	-0.523886
H90	H	-4.036393	-0.083581	-0.537144
H91	H	-3.924938	-0.253191	-0.493892
H92	H	-3.774407	-0.158587	-0.507134
H93	H	-4.001375	-0.402729	-0.515787
C94	C	-4.052004	-0.377953	-0.656079
C95	C	-4.005268	-0.325630	-0.603038
H96	H	-4.062247	-0.445554	-0.612562
H97	H	-3.946751	-0.359574	-0.693817
H98	H	-4.178732	-0.364226	-0.697818
H99	H	-3.878531	-0.339351	-0.561304
H100	H	-4.110529	-0.344016	-0.565283
H101	H	-3.862415	-0.095127	-0.512452
C102	C	-4.328670	-0.354436	-0.920975
C103	C	-4.146190	-0.293012	-0.950485
H104	H	-4.360103	-0.400160	-0.945598
H105	H	-4.436750	-0.316914	-0.945301
H106	H	-4.312895	-0.387904	-0.852011
H107	H	-4.161969	-0.259538	-1.019450
H108	H	-4.038085	-0.330539	-0.926165
H109	H	-3.804308	0.266408	-0.745054
H110	H	-4.019893	0.029175	-0.990612
C111	C	-3.728424	0.321343	-0.630025
C112	C	-3.736108	0.227074	-0.552565
H113	H	-3.696975	0.367060	-0.605394
H114	H	-3.857477	0.328376	-0.670758
H115	H	-3.625579	0.332528	-0.666448
H116	H	-3.838963	0.215887	-0.516146
H117	H	-3.607037	0.220038	-0.511816
H118	H	-4.019886	-0.772055	-0.189413
C119	C	-3.829710	-0.780344	-0.131979
C120	C	-3.973575	-0.757649	-0.100324
H121	H	-3.850268	-0.848472	-0.110093
H122	H	-3.695419	-0.760609	-0.106356
H123	H	-3.845903	-0.747352	-0.200958
H124	H	-3.957372	-0.790636	-0.031344
H125	H	-4.107899	-0.777395	-0.125942
H126	H	-3.880926	0.231294	-0.881739
