data_functionalizedCrystal
_audit_creation_method	'MofGen! by Chris Wilmer'
_symmetry_space_group_name_H-M	'P1'
_symmetry_Int_Tables_number	1
_symmetry_cell_setting	triclinic
loop_
_symmetry_equiv_pos_as_xyz
  x,y,z
_cell_length_a	10.654549
_cell_length_b	10.868271
_cell_length_c	10.654550
_cell_angle_alpha	89.995020
_cell_angle_beta	95.515146
_cell_angle_gamma	90.003291
loop_
_atom_site_label
_atom_site_type_symbol
_atom_site_fract_x
_atom_site_fract_y
_atom_site_fract_z
O1	O	1.667841	0.102294	-0.176398
O2	O	1.302363	0.102302	-0.193204
O3	O	1.493505	0.102290	-0.002062
O4	O	1.476699	0.102306	-0.367540
O5	O	1.493489	-0.102355	-0.002054
O6	O	1.302347	-0.102342	-0.193197
O7	O	1.667825	-0.102351	-0.176390
Zn8	Zn	1.485083	-0.134838	-0.184792
Zn9	Zn	1.485104	0.134790	-0.184802
O10	O	1.476683	-0.102339	-0.367532
C11	C	1.255557	-0.000019	-0.191966
C12	C	1.116113	-0.000016	-0.188275
C13	C	0.905599	-0.000016	-0.297338
C14	C	1.036619	-0.000009	-0.300816
C15	C	1.064581	-0.000018	-0.072247
C16	C	0.933563	-0.000017	-0.068770
N17	N	1.485078	-0.318853	-0.184784
C18	C	1.485098	-0.569859	-0.184799
C19	C	1.485083	-0.430181	-0.184795
C20	C	1.714631	-0.000027	-0.177628
C21	C	1.854074	-0.000022	-0.181319
C22	C	1.492263	-0.000032	0.044740
C23	C	1.488571	-0.000030	0.184183
N24	N	1.485119	0.318804	-0.184800
C25	C	1.477925	-0.000014	-0.414334
C26	C	1.481617	-0.000008	-0.553777
C27	C	1.601113	-0.000032	0.263669
C28	C	1.597636	-0.000017	0.394690
C29	C	1.369067	-0.000002	0.366727
C30	C	1.372544	-0.000009	0.235708
H31	H	0.891613	-0.000018	0.025712
H32	H	1.689279	-0.000016	0.459403
C33	C	1.728745	-0.000041	0.206997
N34	N	1.824881	-0.000043	0.164315
C35	C	1.093289	-0.000012	-0.428446
N36	N	1.135971	-0.000016	-0.524582
H37	H	0.840882	-0.000020	-0.388983
H38	H	1.129316	-0.000017	0.019386
H39	H	1.274601	0.000012	0.408694
H40	H	1.280894	-0.000003	0.170987
