data_functionalizedCrystal
_audit_creation_method	'MofGen! by Chris Wilmer'
_symmetry_space_group_name_H-M	'P1'
_symmetry_Int_Tables_number	1
_symmetry_cell_setting	triclinic
loop_
_symmetry_equiv_pos_as_xyz
  x,y,z
_cell_length_a	15.944551
_cell_length_b	10.654550
_cell_length_c	9.730223
_cell_angle_alpha	90.004253
_cell_angle_beta	89.992517
_cell_angle_gamma	96.008166
loop_
_atom_site_label
_atom_site_type_symbol
_atom_site_fract_x
_atom_site_fract_y
_atom_site_fract_z
O1	O	1.115460	-0.161966	-0.114423
O2	O	1.615460	0.338034	0.385577
O3	O	0.871026	-0.181935	-0.114397
O4	O	1.371026	0.318065	0.385603
O5	O	0.998863	0.010862	-0.114402
O6	O	1.498863	0.510862	0.385598
O7	O	0.987623	-0.354762	-0.114418
O8	O	1.487623	0.145238	0.385582
O9	O	0.998855	0.010867	0.114178
O10	O	1.498855	0.510867	0.614178
O11	O	0.871018	-0.181929	0.114183
O12	O	1.371018	0.318071	0.614183
O13	O	1.115452	-0.161961	0.114157
O14	O	1.615452	0.338039	0.614157
Zn15	Zn	0.993234	-0.171944	0.150462
Zn16	Zn	1.493234	0.328056	0.650462
Zn17	Zn	0.993244	-0.171951	-0.150702
Zn18	Zn	1.493244	0.328049	0.349298
O19	O	0.987615	-0.354757	0.114162
O20	O	1.487615	0.145243	0.614162
C21	C	0.839723	-0.181103	-0.000103
C22	C	1.339723	0.318897	0.499897
C23	C	0.746463	-0.178618	-0.000093
C24	C	1.246463	0.321382	0.499907
C25	C	1.146755	-0.162792	-0.000140
C26	C	1.646755	0.337208	0.499860
C27	C	1.240015	-0.165278	-0.000159
C28	C	1.740015	0.334722	0.499841
C29	C	0.998034	0.057652	-0.000112
C30	C	1.498034	0.557652	0.499888
C31	C	0.995565	0.197063	-0.000114
C32	C	1.495565	0.697063	0.499886
C33	C	1.455598	-0.290722	-0.000133
C34	C	1.955598	0.209278	0.499867
C35	C	1.516285	-0.232472	-0.112831
C36	C	2.016285	0.267528	0.387169
C37	C	1.410767	-0.169774	-0.000139
C38	C	1.910767	0.330226	0.499861
C39	C	1.516255	-0.232439	0.112531
C40	C	2.016255	0.267561	0.612531
C41	C	1.575705	-0.174126	-0.000114
C42	C	2.075705	0.325874	0.499886
C43	C	1.470226	-0.111491	-0.112930
C44	C	1.970226	0.388509	0.387070
C45	C	1.470189	-0.111474	0.112533
C46	C	1.970189	0.388526	0.612533
C47	C	1.530858	-0.053136	-0.000193
C48	C	2.030858	0.446864	0.499807
C49	C	1.315750	-0.167270	-0.000155
C50	C	1.815750	0.332730	0.499845
C51	C	1.670721	-0.176620	-0.000108
C52	C	2.170721	0.323380	0.499892
C53	C	0.988444	-0.401547	-0.000130
C54	C	1.488444	0.098453	0.499870
C55	C	0.990913	-0.540958	-0.000137
C56	C	1.490913	-0.040958	0.499863
N57	N	0.993232	-0.171939	0.355999
N58	N	1.493232	0.328061	0.855999
C59	C	1.070833	0.277522	-0.000123
C60	C	1.570833	0.777522	0.499877
C61	C	1.068508	0.408513	-0.000139
C62	C	1.568508	0.908513	0.499861
C63	C	0.915639	0.378572	-0.000133
C64	C	1.415639	0.878572	0.499867
C65	C	0.917965	0.247584	-0.000126
C66	C	1.417965	0.747584	0.499874
N67	N	0.993252	-0.171947	-0.356238
N68	N	1.493252	0.328053	0.143762
C69	C	1.049858	-0.086604	0.427922
C70	C	1.549858	0.413396	0.927922
C71	C	1.049866	-0.086605	0.571805
C72	C	1.549866	0.413395	1.071805
C73	C	0.936621	-0.257285	0.571828
C74	C	1.436621	0.242715	1.071828
C75	C	0.936609	-0.257278	0.427948
C76	C	1.436609	0.242722	0.927948
H77	H	1.422873	-0.391116	-0.000250
H78	H	1.922873	0.108884	0.499750
O79	O	0.844766	0.169595	-0.000056
O80	O	1.344766	0.669595	0.499944
C81	C	0.775776	0.242271	-0.000091
C82	C	1.275776	0.742271	0.499909
H83	H	0.796518	0.340038	0.043182
H84	H	1.296518	0.840038	0.543182
H85	H	0.722989	0.193955	0.066274
H86	H	1.222989	0.693955	0.566274
H87	H	0.752035	0.251589	-0.109752
H88	H	1.252035	0.751589	0.390248
H89	H	1.134019	0.236393	-0.000116
H90	H	1.634019	0.736393	0.499884
H91	H	1.536699	-0.283633	-0.208110
H92	H	2.036699	0.216367	0.291890
O93	O	1.445891	-0.050603	-0.226689
O94	O	1.945891	0.449397	0.273311
C95	C	1.357584	-0.049020	-0.225341
C96	C	1.857584	0.450980	0.274659
H97	H	1.327851	-0.129632	-0.158549
H98	H	1.827851	0.370368	0.341451
H99	H	1.332210	-0.060901	-0.334615
H100	H	1.832210	0.439099	0.165385
H101	H	1.341284	0.044750	-0.181771
H102	H	1.841284	0.544750	0.318229
O103	O	1.104885	-0.003581	0.358242
O104	O	1.604885	0.496419	0.858242
C105	C	1.154879	0.071717	0.452585
C106	C	1.654879	0.571717	0.952585
H107	H	1.120441	0.073161	0.555163
H108	H	1.620441	0.573161	1.055163
H109	H	1.167108	0.172000	0.411026
H110	H	1.667108	0.672000	0.911026
H111	H	1.217511	0.030879	0.467854
H112	H	1.717511	0.530879	0.967854
O113	O	1.141703	0.486492	-0.000083
O114	O	1.641703	0.986492	0.499917
C115	C	1.210687	0.413806	-0.000108
C116	C	1.710687	0.913806	0.499892
H117	H	1.189933	0.316050	0.043176
H118	H	1.689933	0.816050	0.543176
H119	H	1.263468	0.462130	0.066251
H120	H	1.763468	0.962130	0.566251
H121	H	1.234444	0.404461	-0.109768
H122	H	1.734444	0.904461	0.390232
O123	O	1.104794	-0.003761	0.641884
O124	O	1.604794	0.496239	1.141884
C125	C	1.092679	-0.022079	0.784306
C126	C	1.592679	0.477921	1.284306
H127	H	1.026173	-0.068946	0.803980
H128	H	1.526173	0.431054	1.303980
H129	H	1.101481	0.073017	0.838994
H130	H	1.601481	0.573017	1.338994
H131	H	1.140584	-0.085118	0.825110
H132	H	1.640584	0.414882	1.325110
H133	H	0.890520	-0.326768	0.630424
H134	H	1.390520	0.173232	1.130424
H135	H	0.852460	0.419723	-0.000140
H136	H	1.352460	0.919723	0.499860
H137	H	1.536632	-0.283614	0.207808
H138	H	2.036632	0.216386	0.707808
H139	H	0.890493	-0.326768	0.369384
H140	H	1.390493	0.173232	0.869384
H141	H	1.563429	0.047348	-0.000245
H142	H	2.063429	0.547348	0.499755
H143	H	1.449757	-0.060360	0.207821
H144	H	1.949757	0.439640	0.707821
