data_functionalizedCrystal
_audit_creation_method	'MofGen! by Chris Wilmer'
_symmetry_space_group_name_H-M	'P1'
_symmetry_Int_Tables_number	1
_symmetry_cell_setting	triclinic
loop_
_symmetry_equiv_pos_as_xyz
  x,y,z
_cell_length_a	10.654545
_cell_length_b	14.044190
_cell_length_c	9.130313
_cell_angle_alpha	89.990619
_cell_angle_beta	89.996934
_cell_angle_gamma	88.837428
loop_
_atom_site_label
_atom_site_type_symbol
_atom_site_fract_x
_atom_site_fract_y
_atom_site_fract_z
O1	O	1.681234	0.133211	-0.121803
O2	O	1.317031	0.145909	-0.121811
O3	O	1.493661	0.001540	-0.121778
O4	O	1.504604	0.277581	-0.121836
O5	O	1.493647	0.001535	0.121821
O6	O	1.317017	0.145905	0.121788
O7	O	1.681220	0.133207	0.121796
Cu8	Cu	1.499117	0.139556	0.144034
Cu9	Cu	1.499133	0.139561	-0.144050
O10	O	1.504590	0.277577	0.121763
C11	C	1.270132	0.144976	-0.000012
C12	C	1.130409	0.142189	-0.000014
C13	C	1.064765	0.140875	0.132773
C14	C	0.933481	0.138241	0.132774
C15	C	0.933495	0.138239	-0.132811
C16	C	1.064778	0.140866	-0.132810
C17	C	1.488867	-0.033808	0.000025
C18	C	1.474588	-0.139128	0.000038
C19	C	1.549753	-0.388921	-0.000018
C20	C	1.448503	-0.331957	-0.000010
C21	C	1.463020	-0.224657	0.000017
C22	C	1.535238	-0.496231	-0.000045
C23	C	1.728119	0.134141	-0.000006
C24	C	1.867842	0.136927	-0.000014
C25	C	1.509384	0.312925	-0.000044
C26	C	1.523663	0.418244	-0.000066
N27	N	1.499115	0.139552	0.346657
N28	N	1.499145	0.139557	-0.346672
C29	C	1.577359	0.075652	0.423323
C30	C	1.577371	0.075652	0.576660
C31	C	1.420893	0.203460	0.576651
C32	C	1.420875	0.203454	0.423317
H33	H	1.118226	0.141934	-0.240948
O34	O	1.128329	0.142103	0.261897
C35	C	1.042230	0.140400	0.379096
H36	H	0.950492	0.108551	0.340168
H37	H	1.082980	0.095183	0.471977
H38	H	1.023595	0.216084	0.419914
O39	O	1.653446	0.013712	0.651295
C40	C	1.736693	0.065061	0.739932
H41	H	1.694948	0.138937	0.762892
H42	H	1.752154	0.025607	0.847764
H43	H	1.830290	0.072160	0.680817
H44	H	1.357193	0.255490	0.639083
O45	O	0.869566	0.137087	0.261668
C46	C	0.788598	0.217582	0.269612
H47	H	0.767254	0.244530	0.154312
H48	H	0.697413	0.197283	0.325814
H49	H	0.835652	0.276022	0.335131
H50	H	1.350917	-0.363772	-0.000021
O51	O	1.344829	0.265623	0.349060
C52	C	1.275761	0.322016	0.449598
H53	H	1.327416	0.323459	0.558890
H54	H	1.265062	0.397633	0.405264
H55	H	1.178956	0.290558	0.465938
O56	O	1.666234	-0.351088	0.000200
C57	C	1.731871	-0.381615	0.126381
H58	H	1.690084	-0.450528	0.168420
H59	H	1.835020	-0.394520	0.098018
H60	H	1.723588	-0.324484	0.214738
H61	H	0.880043	0.137163	-0.240929
O62	O	1.653386	0.013482	0.349082
C63	C	1.722469	-0.042902	0.449638
H64	H	1.670834	-0.044329	0.558951
H65	H	1.733153	-0.118525	0.405361
H66	H	1.819279	-0.011447	0.465915
