data_functionalizedCrystal
_audit_creation_method	'MofGen! by Chris Wilmer'
_symmetry_space_group_name_H-M	'P1'
_symmetry_Int_Tables_number	1
_symmetry_cell_setting	triclinic
loop_
_symmetry_equiv_pos_as_xyz
  x,y,z
_cell_length_a	13.033293
_cell_length_b	17.637651
_cell_length_c	13.032268
_cell_angle_alpha	95.517745
_cell_angle_beta	90.920818
_cell_angle_gamma	106.685376
loop_
_atom_site_label
_atom_site_type_symbol
_atom_site_fract_x
_atom_site_fract_y
_atom_site_fract_z
Zn1	Zn	1.442373	-0.244398	0.708953
Zn2	Zn	1.942373	0.255602	1.208953
Zn3	Zn	1.438207	-0.357287	0.503479
Zn4	Zn	1.938207	0.142713	1.003479
Zn5	Zn	1.293185	-0.240249	0.516360
Zn6	Zn	1.793185	0.259751	1.016360
Zn7	Zn	1.236942	-0.390034	0.643800
Zn8	Zn	1.736942	0.109966	1.143800
O9	O	1.352677	-0.307992	0.593148
O10	O	1.852677	0.192008	1.093148
O11	O	1.588486	-0.247404	0.703572
O12	O	2.088486	0.252596	1.203572
O13	O	1.440764	-0.326320	0.365861
O14	O	1.940764	0.173680	0.865861
O15	O	1.338256	-0.130870	0.574566
O16	O	1.838256	0.369130	1.074566
O17	O	1.585425	-0.330343	0.552611
O18	O	2.085425	0.169657	1.052611
O19	O	1.447863	-0.133917	0.716063
O20	O	1.947863	0.366083	1.216063
O21	O	1.334217	-0.240334	0.375325
O22	O	1.834217	0.259666	0.875325
O23	O	1.139059	-0.272087	0.511389
O24	O	1.639059	0.227913	1.011389
O25	O	1.242399	-0.386156	0.791769
O26	O	1.742399	0.113844	1.291769
O27	O	1.097738	-0.382133	0.605019
O28	O	1.597738	0.117867	1.105019
O29	O	1.393327	-0.279157	0.839637
O30	O	1.893327	0.220843	1.339637
O31	O	1.386228	-0.471560	0.489435
O32	O	1.886228	0.028440	0.989435
O33	O	1.238360	-0.495620	0.592529
O34	O	1.738360	0.004380	1.092529
C35	C	1.080369	-0.330214	0.552533
C36	C	1.580369	0.169786	1.052533
C37	C	0.963867	-0.339743	0.535175
C38	C	1.463867	0.160257	1.035175
C39	C	0.913408	-0.303039	0.602201
C40	C	1.413408	0.196961	1.102201
C41	C	0.792997	-0.312886	0.584263
C42	C	1.292997	0.187114	1.084263
C43	C	1.305764	-0.512094	0.532540
C44	C	1.805764	-0.012094	1.032540
C45	C	1.285785	-0.599405	0.506659
C46	C	1.785785	-0.099405	1.006659
C47	C	1.505086	-0.894260	0.790177
C48	C	2.005086	-0.394260	1.290177
C49	C	1.486282	-0.976303	0.765836
C50	C	1.986282	-0.476303	1.265836
C51	C	1.372256	-0.973216	0.618385
C52	C	1.872256	-0.473216	1.118385
C53	C	1.391055	-0.891170	0.642711
C54	C	1.891055	-0.391170	1.142711
C55	C	1.457469	-0.851699	0.728609
C56	C	1.957469	-0.351699	1.228609
C57	C	1.343438	-0.848609	0.581143
C58	C	1.843438	-0.348609	1.081143
C59	C	1.362231	-0.766571	0.605470
C60	C	1.862231	-0.266571	1.105470
C61	C	1.428640	-0.727094	0.691366
C62	C	1.928640	-0.227094	1.191366
C63	C	1.476262	-0.769661	0.752936
C64	C	1.976262	-0.269661	1.252936
C65	C	1.277018	-0.888083	0.495249
C66	C	1.777018	-0.388083	0.995249
C67	C	1.229401	-0.845522	0.433681
C68	C	1.729401	-0.345522	0.933681
C69	C	1.248200	-0.763481	0.458004
C70	C	1.748200	-0.263481	0.958004
C71	C	1.314609	-0.724004	0.543900
C72	C	1.814609	-0.224004	1.043900
C73	C	1.200578	-0.720915	0.396433
C74	C	1.700578	-0.220915	0.896433
C75	C	1.219370	-0.638877	0.420761
C76	C	1.719370	-0.138877	0.920761
C77	C	1.333402	-0.641966	0.568227
C78	C	1.833402	-0.141966	1.068227
C79	C	1.626048	-0.285683	0.633922
C80	C	2.126048	0.214317	1.133922
C81	C	1.742542	-0.276177	0.651298
C82	C	2.242542	0.223823	1.151298
C83	C	1.312054	-0.336772	0.852839
C84	C	1.812054	0.163228	1.352839
C85	C	1.294743	-0.349037	0.963503
C86	C	1.794743	0.150963	1.463503
C87	C	1.399798	-0.103093	0.654019
C88	C	1.899798	0.396907	1.154019
C89	C	1.419878	-0.015777	0.679958
C90	C	1.919878	0.484223	1.179958
C91	C	1.393215	-0.279262	0.334493
C92	C	1.893215	0.220738	0.834493
C93	C	1.410780	-0.266759	0.223925
C94	C	1.910780	0.233241	0.723925
C95	C	1.361702	-0.301564	1.036525
C96	C	1.861702	0.198436	1.536525
C97	C	1.343812	-0.314239	1.150903
C98	C	1.843812	0.185761	1.650903
H99	H	0.788483	-0.237455	0.721963
H100	H	1.288483	0.262545	1.221963
H101	H	1.481351	-0.216725	1.201772
H102	H	1.981351	0.283275	1.701772
H103	H	1.318178	-1.005365	0.548449
H104	H	1.818178	-0.505365	1.048449
H105	H	1.180595	-0.604223	0.370626
H106	H	1.680595	-0.104223	0.870626
F107	F	0.732955	-0.363487	0.491889
F108	F	1.232955	0.136513	0.991889
H109	H	1.559176	-0.862120	0.860118
H110	H	2.059176	-0.362120	1.360118
F111	F	1.546962	-0.727646	0.844350
F112	F	2.046962	-0.227646	1.344350
H113	H	1.224167	-0.399059	0.985665
H114	H	1.724167	0.100941	1.485665
H115	H	0.959355	-0.264322	0.672862
H116	H	1.459355	0.235678	1.172862
F117	F	1.536973	-1.021597	0.831368
F118	F	2.036973	-0.521597	1.331368
H119	H	1.175323	-0.877671	0.363745
H120	H	1.675323	-0.377671	0.863745
H121	H	1.273231	-0.364264	1.173059
H122	H	1.773231	0.135736	1.673059
F123	F	1.257159	-0.975373	0.469261
F124	F	1.757159	-0.475373	0.969261
H125	H	1.146495	-0.753066	0.326501
H126	H	1.646495	-0.253066	0.826501
H127	H	0.917922	-0.378455	0.464510
H128	H	1.417922	0.121545	0.964510
H129	H	1.387492	-0.609826	0.638168
H130	H	1.887492	-0.109826	1.138168
F131	F	1.448342	-0.639830	0.717466
F132	F	1.948342	-0.139830	1.217466
H133	H	1.432269	-0.251535	1.014364
H134	H	1.932269	0.248465	1.514364
