data_functionalizedCrystal
_audit_creation_method	'MofGen! by Chris Wilmer'
_symmetry_space_group_name_H-M	'P1'
_symmetry_Int_Tables_number	1
_symmetry_cell_setting	triclinic
loop_
_symmetry_equiv_pos_as_xyz
  x,y,z
_cell_length_a	10.723024
_cell_length_b	16.109301
_cell_length_c	15.186229
_cell_angle_alpha	90.005167
_cell_angle_beta	90.003057
_cell_angle_gamma	83.964675
loop_
_atom_site_label
_atom_site_type_symbol
_atom_site_fract_x
_atom_site_fract_y
_atom_site_fract_z
O1	O	-1.655641	-0.116608	-0.073226
O2	O	-1.292341	-0.127770	-0.073229
O3	O	-1.483971	-0.001217	-0.073219
O4	O	-1.464011	-0.243161	-0.073237
O5	O	-1.483958	-0.001215	0.073239
O6	O	-1.292328	-0.127768	0.073228
O7	O	-1.655628	-0.116606	0.073231
Zn8	Zn	-1.473976	-0.122187	0.096483
Zn9	Zn	-1.473993	-0.122189	-0.096481
O10	O	-1.463998	-0.243159	0.073221
C11	C	-1.245845	-0.126956	-0.000001
C12	C	-1.107323	-0.124526	-0.000002
C13	C	-1.483156	0.029764	0.000010
C14	C	-1.480732	0.122074	0.000012
C15	C	-1.702123	-0.117419	0.000001
C16	C	-1.840645	-0.119850	-0.000004
C17	C	-1.031402	-0.195339	-0.000008
C18	C	-0.888232	-0.192829	-0.000009
C19	C	-1.464813	-0.274140	-0.000010
C20	C	-1.467237	-0.366449	-0.000017
N21	N	-1.473974	-0.122185	0.228176
C22	C	-1.588805	0.343710	-0.000001
C23	C	-1.586518	0.430444	-0.000009
C24	C	-1.359155	0.411907	-0.000007
C25	C	-1.361444	0.325175	-0.000006
C26	C	-1.476272	0.291079	0.000001
C27	C	-1.471696	0.464545	-0.000007
C28	C	-1.469215	0.558586	-0.000015
C29	C	-1.478754	0.197032	0.000007
N30	N	-1.474005	-0.122185	-0.228174
C31	C	-1.558856	-0.066166	0.453903
C32	C	-1.558860	-0.066164	0.546093
C33	C	-1.389113	-0.178206	0.546092
C34	C	-1.389104	-0.178203	0.453904
C35	C	-1.473983	-0.122184	0.407812
C36	C	-1.473996	-0.122185	0.592190
C37	C	-1.473999	-0.122183	0.692146
C38	C	-1.473978	-0.122185	0.307850
H39	H	-0.822996	-0.253450	-0.000017
O40	O	-1.650402	-0.005746	0.595809
H41	H	-1.711021	-0.041117	0.637808
H42	H	-1.265665	0.439679	-0.000011
H43	H	-1.678154	0.473293	-0.000012
H44	H	-1.682306	0.315952	0.000003
O45	O	-1.240064	0.268399	0.000006
H46	H	-1.159832	0.306677	0.000017
O47	O	-1.297586	-0.238638	0.595805
H48	H	-1.236963	-0.203281	0.637826
O49	O	-1.297563	-0.238628	0.404181
H50	H	-1.238556	-0.277591	0.451718
O51	O	-1.053038	-0.041754	0.000013
H52	H	-1.085110	-0.005886	-0.059673
O53	O	-1.650372	-0.005737	0.404178
H54	H	-1.747647	-0.016904	0.421858
O55	O	-1.085682	-0.278113	-0.000008
H56	H	-1.144284	-0.282728	-0.059703
O57	O	-0.927041	-0.039541	0.000012
H58	H	-0.987064	-0.037012	-0.059676
