data_functionalizedCrystal
_audit_creation_method	'MofGen! by Chris Wilmer'
_symmetry_space_group_name_H-M	'P1'
_symmetry_Int_Tables_number	1
_symmetry_cell_setting	triclinic
loop_
_symmetry_equiv_pos_as_xyz
  x,y,z
_cell_length_a	8.497374
_cell_length_b	8.497365
_cell_length_c	18.215407
_cell_angle_alpha	89.965465
_cell_angle_beta	89.998459
_cell_angle_gamma	90.037770
loop_
_atom_site_label
_atom_site_type_symbol
_atom_site_fract_x
_atom_site_fract_y
_atom_site_fract_z
Zn1	Zn	0.627641	-0.892191	1.125300
Zn2	Zn	1.127641	-0.392191	1.625300
Zn3	Zn	0.891585	-0.628456	1.125228
Zn4	Zn	1.391585	-0.128456	1.625228
Zn5	Zn	0.627814	-0.628409	1.002201
Zn6	Zn	1.127814	-0.128409	1.502201
Zn7	Zn	0.891375	-0.892179	1.002250
Zn8	Zn	1.391375	-0.392179	1.502250
O9	O	0.759604	-0.760309	1.063745
O10	O	1.259604	-0.260309	1.563745
O11	O	0.662669	-0.857231	1.228275
O12	O	1.162669	-0.357231	1.728275
O13	O	0.856755	-0.407687	1.108858
O14	O	1.356755	0.092313	1.608858
O15	O	0.407029	-0.663385	1.018541
O16	O	0.907029	-0.163385	1.518541
O17	O	0.856587	-0.663466	1.228222
O18	O	1.356587	-0.163466	1.728222
O19	O	0.406902	-0.857185	1.108981
O20	O	0.906902	-0.357185	1.608981
O21	O	0.662965	-0.407652	1.018471
O22	O	1.162965	0.092348	1.518471
O23	O	0.662761	-0.663373	0.899224
O24	O	1.162761	-0.163373	1.399224
O25	O	0.856230	-1.112943	1.018623
O26	O	1.356230	-0.612943	1.518623
O27	O	0.856398	-0.857164	0.899259
O28	O	1.356398	-0.357164	1.399259
O29	O	0.662465	-1.112952	1.109028
O30	O	1.162465	-0.612952	1.609028
O31	O	1.112319	-0.663454	1.108905
O32	O	1.612319	-0.163454	1.608905
O33	O	1.112165	-0.857210	1.018554
O34	O	1.612165	-0.357210	1.518554
C35	C	0.759577	-0.760263	0.872539
C36	C	1.259577	-0.260263	1.372539
C37	C	0.759603	-0.760281	0.790740
C38	C	1.259603	-0.260281	1.290740
C39	C	0.860589	-0.861062	0.602584
C40	C	1.360589	-0.361062	1.102584
C41	C	0.860593	-0.861081	0.525725
C42	C	1.360593	-0.361081	1.025725
C43	C	0.658648	-0.659590	0.525658
C44	C	1.158648	-0.159590	1.025658
C45	C	0.658636	-0.659579	0.602516
C46	C	1.158636	-0.159579	1.102516
C47	C	0.759615	-0.760313	0.640976
C48	C	1.259615	-0.260313	1.140976
C49	C	0.759632	-0.760343	0.487260
C50	C	1.259632	-0.260343	0.987260
C51	C	0.759637	-0.760364	0.403927
C52	C	1.259637	-0.260364	0.903927
C53	C	0.759609	-0.760295	0.724315
C54	C	1.259609	-0.260295	1.224315
C55	C	1.169484	-0.760331	1.063736
C56	C	1.669484	-0.260331	1.563736
C57	C	1.348128	-0.760306	1.063755
C58	C	1.848128	-0.260306	1.563755
C59	C	0.759776	-0.350429	1.063692
C60	C	1.259776	0.149571	1.563692
C61	C	0.759452	-0.171785	1.063797
C62	C	1.259452	0.328215	1.563797
C63	C	0.759632	-0.760355	1.255698
C64	C	1.259632	-0.260355	1.755698
C65	C	0.759644	-0.760375	1.337497
C66	C	1.259644	-0.260375	1.837497
H67	H	0.576436	-0.577574	0.494334
H68	H	1.076436	-0.077574	0.994334
H69	H	0.942814	-0.943123	0.494469
H70	H	1.442814	-0.443123	0.994469
H71	H	0.576401	-0.577537	0.633776
H72	H	1.076401	-0.077537	1.133776
H73	H	0.942809	-0.943089	0.633896
H74	H	1.442809	-0.443089	1.133896
