data_functionalizedCrystal
_audit_creation_method	'MofGen! by Chris Wilmer'
_symmetry_space_group_name_H-M	'P1'
_symmetry_Int_Tables_number	1
_symmetry_cell_setting	triclinic
loop_
_symmetry_equiv_pos_as_xyz
  x,y,z
_cell_length_a	23.204074
_cell_length_b	23.204055
_cell_length_c	23.204104
_cell_angle_alpha	90.003708
_cell_angle_beta	59.995537
_cell_angle_gamma	120.000097
loop_
_atom_site_label
_atom_site_type_symbol
_atom_site_fract_x
_atom_site_fract_y
_atom_site_fract_z
O1	O	-0.412489	0.491194	0.017145
O2	O	-0.294476	0.407390	-0.017063
O3	O	-0.412489	0.407389	0.100950
O4	O	-0.294475	0.491195	-0.100868
O5	O	-0.508340	0.311537	0.100950
O6	O	-0.390327	0.311538	-0.017063
O7	O	-0.508340	0.395343	0.017145
Cu8	Cu	-0.458085	0.344689	0.000041
Cu9	Cu	-0.344730	0.458044	0.000041
O10	O	-0.390326	0.395344	-0.100868
C11	C	-0.590048	0.554179	0.035868
C12	C	-0.549589	0.518618	0.030970
C13	C	-0.555694	0.623536	0.036358
C14	C	-0.694411	0.554177	0.035874
C15	C	-0.765537	0.518614	0.030981
C16	C	-0.659898	0.623534	0.036363
C17	C	-0.590052	0.658536	0.035874
C18	C	-0.549596	0.734555	0.030982
C19	C	-0.659894	0.519335	0.036358
C20	C	-0.516911	0.795970	0.027028
C21	C	-0.516901	0.489888	0.027012
C22	C	-0.822998	0.489883	0.027027
C23	C	-0.475907	0.873019	0.022068
C24	C	-0.475893	0.453846	0.022047
C25	C	-0.895087	0.453838	0.022068
C26	C	-0.212783	0.554191	-0.341405
C27	C	-0.253237	0.518627	-0.265387
C28	C	-0.247139	0.519348	-0.376407
C29	C	-0.108429	0.658554	-0.445761
C30	C	-0.037307	0.734574	-0.481322
C31	C	-0.142943	0.623553	-0.480605
C32	C	-0.212786	0.554193	-0.445763
C33	C	-0.253243	0.518631	-0.481324
C34	C	-0.142940	0.623551	-0.376405
C35	C	-0.285929	0.489900	-0.510054
C36	C	-0.285921	0.489894	-0.203971
C37	C	0.020151	0.795992	-0.510050
C38	C	-0.326935	0.453856	-0.546097
C39	C	-0.326924	0.453848	-0.126923
C40	C	0.092235	0.873042	-0.546092
O41	O	-1.083839	0.311535	-0.017051
O42	O	-0.916240	0.395336	0.017165
O43	O	-0.916217	0.395344	-0.100851
O44	O	-1.083862	0.311527	0.100966
O45	O	-0.916221	0.491193	-0.100846
O46	O	-0.916244	0.491185	0.017171
O47	O	-1.083843	0.407384	-0.017045
Cu48	Cu	-1.000044	0.458036	0.000063
Cu49	Cu	-1.000039	0.344684	0.000057
O50	O	-1.083866	0.407376	0.100971
C51	C	-0.181457	0.310650	-0.024834
C52	C	-0.110334	0.346213	-0.019937
C53	C	-0.215973	0.241292	-0.025319
C54	C	-0.285812	0.310652	-0.024840
C55	C	-0.326266	0.346216	-0.019950
C56	C	-0.320170	0.241294	-0.025325
C57	C	-0.285817	0.206291	-0.024833
C58	C	-0.326276	0.130271	-0.019936
C59	C	-0.215969	0.345495	-0.025326
O60	O	-0.390335	1.100889	-0.017051
O61	O	-0.508353	0.899074	0.017164
O62	O	-0.390331	1.017069	-0.100852
O63	O	-0.508356	0.982894	0.100965
O64	O	-0.294486	1.017067	-0.100842
O65	O	-0.412508	0.899072	0.017174
O66	O	-0.294490	1.100887	-0.017041
Cu67	Cu	-0.344747	0.999980	0.000068
Cu68	Cu	-0.458095	0.999982	0.000055
O69	O	-0.412511	0.982892	0.100975
O70	O	0.280995	1.100912	-0.592545
O71	O	0.113390	0.899097	-0.508744
O72	O	0.113373	1.017093	-0.508725
O73	O	0.281012	0.982915	-0.592564
O74	O	0.113369	1.017094	-0.604574
O75	O	0.113386	0.899097	-0.604593
O76	O	0.280991	1.100912	-0.688394
Cu77	Cu	0.197188	1.000004	-0.655245
Cu78	Cu	0.197193	1.000004	-0.541893
O79	O	0.281008	0.982915	-0.688413
O80	O	-0.412497	0.407397	-0.688401
O81	O	-0.294490	0.491206	-0.604597
O82	O	-0.412508	0.491196	-0.604579
O83	O	-0.294479	0.407406	-0.688419
O84	O	-0.508355	0.395341	-0.508731
O85	O	-0.390337	0.395351	-0.508749
O86	O	-0.508344	0.311542	-0.592554
Cu87	Cu	-0.458092	0.344694	-0.541900
Cu88	Cu	-0.344742	0.458054	-0.655251
O89	O	-0.390326	0.311551	-0.592571
C90	C	-0.621373	0.206298	0.310715
C91	C	-0.692499	0.130280	0.346279
C92	C	-0.586859	0.241301	0.345559
C93	C	-0.517010	0.310656	0.206354
C94	C	-0.476551	0.346217	0.130333
C95	C	-0.482655	0.345500	0.241355
C96	C	-0.517013	0.310659	0.310714
C97	C	-0.476556	0.346222	0.346276
C98	C	-0.586857	0.241299	0.241357
C99	C	-1.285886	0.310625	0.310727
C100	C	-1.326350	0.346185	0.346292
C101	C	-1.320249	0.241265	0.345566
C102	C	-1.181505	0.310633	0.206368
C103	C	-1.110364	0.346202	0.130351
C104	C	-1.216026	0.241273	0.241365
C105	C	-1.285886	0.206266	0.310720
C106	C	-1.326349	0.130245	0.346276
C107	C	-1.216027	0.345473	0.241372
C108	C	-0.517046	0.975133	0.310737
C109	C	-0.476595	0.980030	0.346305
C110	C	-0.586891	0.974650	0.345576
C111	C	-0.517035	0.975122	0.206372
C112	C	-0.476572	0.980008	0.130353
C113	C	-0.586879	0.974640	0.241370
C114	C	-0.621399	0.975135	0.310727
C115	C	-0.692523	0.980034	0.346284
C116	C	-0.482685	0.974638	0.241379
C117	C	-0.589962	0.658570	-0.445736
C118	C	-0.549503	0.734589	-0.481293
C119	C	-0.555595	0.623573	-0.480581
C120	C	-0.694339	0.554204	-0.341383
C121	C	-0.765480	0.518635	-0.265365
C122	C	-0.659813	0.519365	-0.376386
C123	C	-0.589954	0.554214	-0.445741
C124	C	-0.549487	0.518657	-0.481304
C125	C	-0.659821	0.623562	-0.376381
C126	C	-0.516792	0.489930	-0.510035
C127	C	-0.516815	0.796006	-0.510020
C128	C	-0.822954	0.489899	-0.203951
C129	C	-0.475776	0.453891	-0.546079
C130	C	-0.475807	0.873056	-0.546059
C131	C	-0.895059	0.453848	-0.126903
O132	O	-1.412581	-0.100955	0.395374
O133	O	-1.294551	0.100865	0.311595
O134	O	-1.412540	-0.017119	0.311558
O135	O	-1.294592	0.017030	0.395411
O136	O	-1.508411	-0.017127	0.407409
O137	O	-1.390422	0.100858	0.407446
O138	O	-1.508452	-0.100962	0.491225
Cu139	Cu	-1.458191	-0.000053	0.458088
Cu140	Cu	-1.344812	-0.000044	0.344732
O141	O	-1.390463	0.017023	0.491262
C142	C	-0.108402	1.035739	-0.445744
C143	C	-0.037278	1.030840	-0.481302
C144	C	-0.142911	1.036224	-0.480592
C145	C	-0.212766	1.035752	-0.341389
C146	C	-0.253228	1.030866	-0.265369
C147	C	-0.247116	1.036236	-0.376395
C148	C	-0.212756	1.035741	-0.445753
C149	C	-0.253207	1.030844	-0.481320
C150	C	-0.142921	1.036235	-0.376386
C151	C	-0.285889	1.026886	-0.510054
C152	C	0.020183	1.026880	-0.510028
C153	C	-0.285918	1.026918	-0.203952
C154	C	-0.326889	1.021921	-0.546102
C155	C	0.092270	1.021914	-0.546067
C156	C	-0.326929	1.021966	-0.126903
H157	H	-0.499488	0.651636	0.037138
C158	C	-0.406725	0.422485	0.203389
N159	N	-0.349536	0.480469	0.174795
C160	C	-0.625917	0.973603	0.422561
N161	N	-0.655310	0.972817	0.480544
H162	H	-1.187141	0.402461	0.213277
H163	H	-0.114074	1.036966	-0.348265
C164	C	-0.323066	0.442362	-0.338443
N165	N	-0.380255	0.384379	-0.309849
C166	C	-0.698831	0.442383	-0.338422
N167	N	-0.728214	0.384403	-0.309827
H168	H	-0.615765	0.973842	0.213265
C169	C	-0.625885	0.203340	0.422547
N170	N	-0.655278	0.174749	0.480532
H171	H	-0.426481	0.973851	0.213284
H172	H	-0.499384	0.651680	-0.537568
H173	H	-0.688774	0.462349	0.037137
C174	C	-0.396112	0.203323	-0.026362
N175	N	-0.453314	0.174721	-0.027135
H176	H	-0.114058	0.651659	-0.537590
H177	H	-1.376458	0.213164	0.402554
H178	H	-0.187083	0.213194	-0.026105
H179	H	-0.688702	0.651668	-0.348275
C180	C	-0.323039	1.037307	-0.338438
N181	N	-0.380220	1.038117	-0.309852
H182	H	-0.615731	0.213186	0.213251
H183	H	-0.688785	0.651633	0.037145
C184	C	-0.103916	0.661513	-0.338443
N185	N	-0.074523	0.690106	-0.309851
H186	H	-0.114017	1.037003	-0.537580
H187	H	-0.187076	0.402484	-0.026115
C188	C	-1.176990	0.203318	0.203395
N189	N	-1.147586	0.174732	0.174796
