data_functionalizedCrystal
_audit_creation_method	'MofGen! by Chris Wilmer'
_symmetry_space_group_name_H-M	'P1'
_symmetry_Int_Tables_number	1
_symmetry_cell_setting	triclinic
loop_
_symmetry_equiv_pos_as_xyz
  x,y,z
_cell_length_a	12.759401
_cell_length_b	19.121063
_cell_length_c	19.121307
_cell_angle_alpha	85.035577
_cell_angle_beta	92.440521
_cell_angle_gamma	92.469017
loop_
_atom_site_label
_atom_site_type_symbol
_atom_site_fract_x
_atom_site_fract_y
_atom_site_fract_z
Zn1	Zn	1.613131	-0.297195	0.409716
Zn2	Zn	1.598669	-0.409818	0.297065
Zn3	Zn	1.430307	-0.292171	0.292074
Zn4	Zn	1.430191	-0.414824	0.414694
O5	O	1.518075	-0.353502	0.353387
O6	O	1.758234	-0.312142	0.394778
O7	O	1.570331	-0.390013	0.197942
O8	O	1.460660	-0.194374	0.303507
O9	O	1.747608	-0.394885	0.312014
O10	O	1.594981	-0.198065	0.389938
O11	O	1.446637	-0.303579	0.194274
O12	O	1.283271	-0.308434	0.308334
O13	O	1.460463	-0.403419	0.512495
O14	O	1.283186	-0.398547	0.398422
O15	O	1.594868	-0.316997	0.508837
O16	O	1.570219	-0.508945	0.316841
O17	O	1.446439	-0.512624	0.403262
C18	C	1.245108	-0.353489	0.353377
C19	C	1.128331	-0.353501	0.353390
C20	C	1.506776	-0.536316	0.361149
C21	C	1.502040	-0.614525	0.364493
C22	C	1.073443	-0.400491	0.400228
C23	C	0.963719	-0.400500	0.400236
C24	C	0.963780	-0.306526	0.306562
C25	C	1.073502	-0.306514	0.306558
C26	C	1.128272	-0.447478	0.447060
C27	C	1.073384	-0.494473	0.493901
C28	C	0.963660	-0.494482	0.493909
C29	C	0.908823	-0.447496	0.447076
C30	C	1.564315	-0.649331	0.321107
C31	C	1.559868	-0.722818	0.324256
C32	C	1.493139	-0.761497	0.370789
C33	C	1.430862	-0.726686	0.414180
C34	C	1.435315	-0.653201	0.411034
C35	C	1.476469	-0.983471	0.382541
C36	C	1.472018	-1.056961	0.385682
C37	C	1.601026	-1.053088	0.295759
C38	C	1.605469	-0.979602	0.292614
C39	C	1.543196	-0.944797	0.336008
C40	C	1.488589	-0.836612	0.374008
C41	C	1.547753	-0.869684	0.332792
C42	C	1.792108	-0.353516	0.353398
C43	C	1.908884	-0.353522	0.353402
C44	C	1.529266	-0.361327	0.536910
C45	C	1.534035	-0.364661	0.615116
C46	C	1.529447	-0.169975	0.345610
C47	C	1.534293	-0.091767	0.342296
C48	C	1.564294	-0.385813	1.057533
C49	C	1.559798	-0.382676	0.984050
C50	C	1.493156	-0.336102	0.945406
C51	C	1.430997	-0.292668	0.980250
C52	C	1.435489	-0.295809	1.053733
C53	C	1.476368	-0.324369	0.723442
C54	C	1.471884	-0.321229	0.649955
C55	C	1.600684	-0.411238	0.653760
C56	C	1.605174	-0.414373	0.727243
C57	C	1.543012	-0.370941	0.762081
C58	C	1.488561	-0.332892	0.870294
C59	C	1.547602	-0.374155	0.837192
C60	C	1.506917	-0.345721	1.170579
C61	C	1.502143	-0.342381	1.092372
H62	H	1.118039	-0.532722	0.532034
H63	H	1.376534	-0.758184	0.452071
H64	H	1.602087	-0.838189	0.294908
C65	C	0.904053	-0.255603	0.255740
C66	C	0.796213	-0.265686	0.265753
C67	C	0.741160	-0.218797	0.218938
H68	H	0.925447	-0.208750	0.264056
H69	H	0.918455	-0.263819	0.208868
H70	H	0.781817	-0.257464	0.312614
H71	H	0.774788	-0.312530	0.257431
H72	H	0.755563	-0.227014	0.172066
H73	H	0.762562	-0.171947	0.227258
H74	H	0.667985	-0.225637	0.225721
H75	H	1.425762	-0.955139	0.417873
C76	C	1.668095	-0.458515	0.616029
C77	C	1.642001	-0.528892	0.636862
C78	C	1.704086	-0.572468	0.602126
H79	H	1.655936	-0.450071	0.566725
H80	H	1.740078	-0.448785	0.627650
H81	H	1.570035	-0.538619	0.625236
H82	H	1.654165	-0.537358	0.686161
H83	H	1.776068	-0.562738	0.613747
H84	H	1.691921	-0.564018	0.552824
H85	H	1.686396	-0.620223	0.616262
H86	H	1.610578	-0.751154	0.288926
C87	C	1.399593	-1.099080	0.436136
C88	C	1.409000	-1.170884	0.429584
C89	C	1.342289	-1.209705	0.476039
H90	H	1.418458	-1.089116	0.482937
H91	H	1.329086	-1.086679	0.425281
H92	H	1.479491	-1.183281	0.440444
H93	H	1.390127	-1.180869	0.382794
H94	H	1.271782	-1.197303	0.465184
H95	H	1.361160	-1.199735	0.522837
H96	H	1.348655	-1.258427	0.471595
C97	C	1.408731	-0.277336	0.761294
C98	C	1.341472	-0.318979	0.805142
C99	C	1.279129	-0.275677	0.840014
H100	H	1.452436	-0.247888	0.788725
H101	H	1.368343	-0.249167	0.727770
H102	H	1.381856	-0.347135	0.838662
H103	H	1.297745	-0.348425	0.777728
H104	H	1.238741	-0.247509	0.806489
H105	H	1.322843	-0.246232	0.867441
H106	H	1.233480	-0.303926	0.869764
C107	C	1.367585	-0.615536	0.458174
C108	C	1.308174	-0.665135	0.499588
C109	C	1.245764	-0.630466	0.543021
H110	H	1.411242	-0.588145	0.487687
H111	H	1.321875	-0.585771	0.430027
H112	H	1.353880	-0.694889	0.527732
H113	H	1.264497	-0.692529	0.470094
H114	H	1.200054	-0.600701	0.514874
H115	H	1.289429	-0.603076	0.572528
H116	H	1.205440	-0.664113	0.571120
H117	H	1.434256	-0.868112	0.411893
H118	H	1.618567	-0.423735	1.088992
C119	C	1.399407	-0.270646	0.608123
C120	C	1.345903	-0.233298	0.654360
C121	C	1.279121	-0.186707	0.615850
H122	H	1.439627	-0.238701	0.578155
H123	H	1.350163	-0.296326	0.580612
H124	H	1.395141	-0.207620	0.681859
H125	H	1.305663	-0.265225	0.684329
H126	H	1.229877	-0.212386	0.588339
H127	H	1.319349	-0.154766	0.585883
H128	H	1.242804	-0.161365	0.647216
H129	H	1.610395	-0.418052	0.955688
H130	H	1.217614	-0.447477	0.447057
C131	C	1.132910	-0.255473	0.255621
C132	C	1.061409	-0.214347	0.214589
C133	C	1.116096	-0.167327	0.167651
H134	H	1.179255	-0.225936	0.281201
H135	H	1.172152	-0.281017	0.226023
H136	H	1.022184	-0.188805	0.244183
H137	H	1.015062	-0.243865	0.188994
H138	H	1.155339	-0.192870	0.138053
H139	H	1.162439	-0.137794	0.193236
H140	H	1.067591	-0.139421	0.139801
C141	C	1.636869	-0.607466	0.270561
C142	C	1.690474	-0.653681	0.233253
C143	C	1.757332	-0.615143	0.186691
H144	H	1.596694	-0.577523	0.238592
H145	H	1.686051	-0.579925	0.296258
H146	H	1.641298	-0.681210	0.207558
H147	H	1.730669	-0.683625	0.265204
H148	H	1.806514	-0.587602	0.212388
H149	H	1.717148	-0.585201	0.154727
H150	H	1.793718	-0.646494	0.161377
H151	H	0.918973	-0.532743	0.532053
H152	H	0.819479	-0.447502	0.447092
C153	C	1.368053	-0.248735	1.091690
C154	C	1.386226	-0.261468	1.164314
C155	C	1.324107	-0.218125	1.199302
H156	H	1.385564	-0.200920	1.077735
H157	H	1.296068	-0.258523	1.080124
H158	H	1.458195	-0.251676	1.175875
H159	H	1.368710	-0.309275	1.178290
H160	H	1.252122	-0.227913	1.187736
H161	H	1.341623	-0.170312	1.185341
H162	H	1.336421	-0.226763	1.248581
H163	H	1.601859	-0.412076	0.868658
C164	C	1.677705	-0.464897	0.769095
C165	C	1.781502	-0.448824	0.750546
C166	C	1.848353	-0.495357	0.789074
H167	H	1.671633	-0.460599	0.817863
H168	H	1.658723	-0.511668	0.759033
H169	H	1.800479	-0.402065	0.760613
H170	H	1.787607	-0.453127	0.701785
H171	H	1.829371	-0.542127	0.779012
H172	H	1.842272	-0.491055	0.837840
H173	H	1.918786	-0.484462	0.776489
H174	H	1.659805	-0.948111	0.254724
H175	H	1.376730	-0.254750	0.948781
H176	H	1.434301	-0.294971	0.838823
H177	H	1.651727	-1.081434	0.260432
