data_functionalizedCrystal
_audit_creation_method	'MofGen! by Chris Wilmer'
_symmetry_space_group_name_H-M	'P1'
_symmetry_Int_Tables_number	1
_symmetry_cell_setting	triclinic
loop_
_symmetry_equiv_pos_as_xyz
  x,y,z
_cell_length_a	9.065215
_cell_length_b	10.268362
_cell_length_c	9.065215
_cell_angle_alpha	89.998151
_cell_angle_beta	94.985269
_cell_angle_gamma	90.004031
loop_
_atom_site_label
_atom_site_type_symbol
_atom_site_fract_x
_atom_site_fract_y
_atom_site_fract_z
O1	O	1.960402	0.108274	-0.216338
O2	O	1.531116	0.108279	-0.234089
O3	O	1.754634	0.108279	-0.010571
O4	O	1.736884	0.108274	-0.439856
O5	O	1.754615	-0.108322	-0.010561
O6	O	1.531097	-0.108322	-0.234079
O7	O	1.960382	-0.108327	-0.216328
Cu8	Cu	1.745738	-0.128101	-0.225203
Cu9	Cu	1.745761	0.128054	-0.225214
O10	O	1.736864	-0.108327	-0.439847
C11	C	1.476120	-0.000021	-0.232379
C12	C	1.312277	-0.000018	-0.227281
N13	N	1.745732	-0.308267	-0.225194
C14	C	1.745753	-0.573938	-0.225211
C15	C	1.745737	-0.426100	-0.225206
C16	C	2.015379	-0.000024	-0.218038
C17	C	2.179222	-0.000018	-0.223136
C18	C	1.752920	-0.000018	0.044421
C19	C	1.747821	-0.000008	0.208264
N20	N	1.745778	0.308220	-0.225211
C21	C	1.738579	-0.000017	0.505162
C22	C	1.743676	0.000009	0.341319
