data_functionalizedCrystal
_audit_creation_method	'MofGen! by Chris Wilmer'
_symmetry_space_group_name_H-M	'P1'
_symmetry_Int_Tables_number	1
_symmetry_cell_setting	triclinic
loop_
_symmetry_equiv_pos_as_xyz
  x,y,z
_cell_length_a	23.532407
_cell_length_b	23.532409
_cell_length_c	12.996460
_cell_angle_alpha	89.996917
_cell_angle_beta	89.999749
_cell_angle_gamma	82.849119
loop_
_atom_site_label
_atom_site_type_symbol
_atom_site_fract_x
_atom_site_fract_y
_atom_site_fract_z
O1	O	0.755261	0.069136	-0.085432
O2	O	1.255261	0.569136	0.414568
O3	O	0.589398	0.079139	-0.085461
O4	O	1.089398	0.579139	0.414539
O5	O	0.677330	-0.008794	-0.085447
O6	O	1.177330	0.491206	0.414553
O7	O	0.667328	0.157069	-0.085446
O8	O	1.167328	0.657069	0.414554
O9	O	0.677321	-0.008799	0.085687
O10	O	1.177321	0.491201	0.585687
O11	O	0.589388	0.079134	0.085673
O12	O	1.089388	0.579134	0.585673
O13	O	0.755252	0.069131	0.085702
O14	O	1.255252	0.569131	0.585702
Cu15	Cu	0.672319	0.074132	0.101313
Cu16	Cu	1.172319	0.574132	0.601313
Cu17	Cu	0.672330	0.074138	-0.101072
Cu18	Cu	1.172330	0.574138	0.398928
O19	O	0.667319	0.157064	0.085688
O20	O	1.167319	0.657064	0.585688
C21	C	0.568177	0.078882	0.000102
C22	C	1.068177	0.578882	0.500102
C23	C	0.504960	0.078116	0.000090
C24	C	1.004960	0.578116	0.500090
C25	C	0.105857	0.125349	0.000137
C26	C	0.605857	0.625349	0.500137
C27	C	0.046457	0.124638	0.000144
C28	C	0.546457	0.624638	0.500144
O29	O	0.009713	0.168424	0.000181
O30	O	0.509713	0.668424	0.500181
N31	N	0.023830	0.072362	0.000142
N32	N	0.523830	0.572362	0.500142
C33	C	0.060608	0.020794	0.000144
C34	C	0.560608	0.520794	0.500144
O35	O	0.035908	-0.023737	0.000144
O36	O	0.535908	0.476263	0.500144
C37	C	0.120007	0.021506	0.000145
C38	C	0.620007	0.521506	0.500145
C39	C	0.142630	0.073785	0.000136
C40	C	0.642630	0.573785	0.500136
C41	C	0.128481	0.177625	0.000130
C42	C	0.628481	0.677625	0.500130
C43	C	0.187877	0.178336	0.000122
C44	C	0.687877	0.678336	0.500122
C45	C	0.224649	0.126772	0.000121
C46	C	0.724649	0.626772	0.500121
C47	C	0.202026	0.074496	0.000128
C48	C	0.702026	0.574496	0.500128
C49	C	0.156783	-0.030062	0.000154
C50	C	0.656783	0.469938	0.500154
C51	C	0.216185	-0.029345	0.000156
C52	C	0.716185	0.470655	0.500156
C53	C	0.238808	0.022934	0.000148
C54	C	0.738808	0.522934	0.500148
C55	C	0.298195	0.023643	0.000119
C56	C	0.798195	0.523643	0.500119
N57	N	0.320821	0.075920	0.000121
N58	N	0.820821	0.575920	0.500121
C59	C	0.284049	0.127484	0.000122
C60	C	0.784049	0.627484	0.500122
C61	C	-0.064135	0.019302	0.000143
C62	C	0.435865	0.519302	0.500143
C63	C	-0.123533	0.018589	0.000135
C64	C	0.376467	0.518589	0.500135
C65	C	-0.137679	0.122434	0.000137
C66	C	0.362321	0.622434	0.500137
C67	C	-0.078280	0.123146	0.000138
C68	C	0.421720	0.623146	0.500138
C69	C	-0.041508	0.071578	0.000145
C70	C	0.458492	0.571578	0.500145
C71	C	0.408785	0.128974	0.000104
C72	C	0.908785	0.628974	0.500104
C73	C	0.468187	0.129680	0.000091
C74	C	0.968187	0.629680	0.500091
C75	C	0.482329	0.025836	0.000095
C76	C	0.982329	0.525836	0.500095
C77	C	0.422932	0.025129	0.000102
C78	C	0.922932	0.525129	0.500102
C79	C	0.386161	0.076702	0.000110
C80	C	0.886161	0.576702	0.500110
O81	O	0.334973	-0.020119	0.000086
O82	O	0.834973	0.479881	0.500086
O83	O	0.308757	0.172007	0.000136
O84	O	0.808757	0.672007	0.500136
C85	C	0.677071	-0.030013	0.000117
C86	C	1.177071	0.469987	0.500117
C87	C	0.676304	-0.093230	0.000110
C88	C	1.176304	0.406770	0.500110
C89	C	0.673050	-0.366472	-0.093180
C90	C	1.173050	0.133528	0.406820
C91	C	0.673762	-0.307072	-0.093180
C92	C	1.173762	0.192928	0.406820
O93	O	0.674154	-0.276345	-0.172513
O94	O	1.174154	0.223655	0.327487
N95	N	0.674109	-0.277372	0.000106
N96	N	1.174109	0.222628	0.500106
C97	C	0.673751	-0.307077	0.093399
C98	C	1.173751	0.192923	0.593399
O99	O	0.674112	-0.276361	0.172747
O100	O	1.174112	0.223639	0.672747
C101	C	0.673043	-0.366477	0.093398
C102	C	1.173043	0.133523	0.593398
C103	C	0.672690	-0.396172	0.000105
C104	C	1.172690	0.103828	0.500105
C105	C	0.672698	-0.396168	-0.186466
C106	C	1.172698	0.103832	0.313534
C107	C	0.671985	-0.455564	-0.186465
C108	C	1.171985	0.044436	0.313535
C109	C	0.671625	-0.485264	-0.093179
C110	C	1.171625	0.014736	0.406821
C111	C	0.671977	-0.455568	0.000106
C112	C	1.171977	0.044432	0.500106
C113	C	0.672689	-0.396181	0.186690
C114	C	1.172689	0.103819	0.686690
C115	C	0.671982	-0.455584	0.186681
C116	C	1.171982	0.044416	0.686681
C117	C	0.671628	-0.485280	0.093388
C118	C	1.171628	0.014720	0.593388
C119	C	0.670904	-0.544664	0.093392
C120	C	1.170904	-0.044664	0.593392
N121	N	0.670557	-0.574364	0.000105
N122	N	1.170557	-0.074364	0.500105
C123	C	0.670917	-0.544664	-0.093180
C124	C	1.170917	-0.044664	0.406820
C125	C	0.675238	-0.182334	0.093394
C126	C	1.175238	0.317666	0.593394
C127	C	0.675941	-0.122935	0.093396
C128	C	1.175941	0.377065	0.593396
C129	C	0.675953	-0.122934	-0.093184
C130	C	1.175953	0.377066	0.406816
C131	C	0.675246	-0.182333	-0.093185
C132	C	1.175246	0.317667	0.406815
C133	C	0.674890	-0.212033	0.000107
C134	C	1.174890	0.287967	0.500107
C135	C	0.669420	-0.669399	-0.093172
C136	C	1.169420	-0.169399	0.406828
C137	C	0.668705	-0.728800	-0.093164
C138	C	1.168705	-0.228800	0.406836
C139	C	0.668696	-0.728796	0.093416
C140	C	1.168696	-0.228796	0.593416
C141	C	0.669408	-0.669400	0.093407
C142	C	1.169408	-0.169400	0.593407
C143	C	0.669772	-0.639703	0.000105
C144	C	1.169772	-0.139703	0.500105
O145	O	0.670514	-0.575429	0.172684
O146	O	1.170514	-0.075429	0.672684
O147	O	0.670564	-0.575388	-0.172515
O148	O	1.170564	-0.075388	0.327485
C149	C	0.776472	0.069388	0.000137
C150	C	1.276472	0.569388	0.500137
C151	C	0.839689	0.070154	0.000141
C152	C	1.339689	0.570154	0.500141
C153	C	0.667579	0.178283	0.000121
C154	C	1.167579	0.678283	0.500121
C155	C	0.668345	0.241500	0.000122
C156	C	1.168345	0.741500	0.500122
N157	N	0.672316	0.074128	0.243660
N158	N	1.172316	0.574128	0.743660
N159	N	0.672338	0.074138	-0.243420
N160	N	1.172338	0.574138	0.256580
C161	C	0.672329	0.074138	0.663475
C162	C	1.172329	0.574138	1.163475
C163	C	0.672324	0.074137	0.546669
C164	C	1.172324	0.574137	1.046669
C165	C	0.672323	0.074134	0.453571
C166	C	1.172323	0.574134	0.953571
C167	C	0.672317	0.074132	0.336759
C168	C	1.172317	0.574132	0.836759
H169	H	0.378853	0.170970	0.000113
H170	H	0.878853	0.670970	0.500113
O171	O	0.676341	-0.090894	-0.193804
O172	O	1.176341	0.409106	0.306196
H173	H	0.715026	-0.107583	-0.238537
H174	H	1.215026	0.392417	0.261463
H175	H	0.669717	-0.645227	-0.169148
H176	H	1.169717	-0.145227	0.330852
O177	O	0.673077	-0.364137	-0.287089
O178	O	1.173077	0.135863	0.212911
H179	H	0.672707	-0.394774	-0.351945
H180	H	1.172707	0.105226	0.148055
O181	O	0.669789	-0.637367	0.194027
O182	O	1.169789	-0.137367	0.694027
H183	H	0.630831	-0.643477	0.238761
H184	H	1.130831	-0.143477	0.738761
O185	O	0.671605	-0.487615	0.287310
O186	O	1.171605	0.012385	0.787310
H187	H	0.671058	-0.533910	0.271646
H188	H	1.171058	-0.033910	0.771646
O189	O	-0.177351	0.178050	0.000155
O190	O	0.322649	0.678050	0.500155
H191	H	-0.169355	0.203090	-0.069597
H192	H	0.330645	0.703090	0.430403
O193	O	-0.147932	-0.037797	0.000142
O194	O	0.352068	0.462203	0.500142
H195	H	-0.112377	-0.073530	0.000150
H196	H	0.387623	0.426470	0.500150
O197	O	0.212276	0.234723	0.000123
O198	O	0.712276	0.734723	0.500123
H199	H	0.239002	0.237526	0.069872
H200	H	0.739002	0.737526	0.569872
O201	O	0.088823	0.233245	0.000126
O202	O	0.588823	0.733245	0.500126
H203	H	0.114543	0.269709	0.000115
H204	H	0.614543	0.769709	0.500115
O205	O	0.255843	-0.084969	0.000163
O206	O	0.755843	0.415031	0.500163
H207	H	0.283241	-0.087133	0.069917
H208	H	0.783241	0.412867	0.569917
O209	O	0.132395	-0.086452	0.000185
O210	O	0.632395	0.413548	0.500185
H211	H	0.147195	-0.111219	-0.069553
H212	H	0.647195	0.388781	0.430447
H213	H	-0.059865	0.165717	0.000137
H214	H	0.440135	0.665717	0.500137
H215	H	0.671702	-0.479737	-0.262434
H216	H	1.171702	0.020263	0.237566
O217	O	0.676321	-0.090907	0.194018
O218	O	1.176321	0.409093	0.694018
H219	H	0.675956	-0.121545	0.258879
H220	H	1.175956	0.378455	0.758879
H221	H	0.486603	0.172254	0.000084
H222	H	0.986603	0.672254	0.500084
H223	H	-0.034198	-0.022693	0.000140
H224	H	0.465802	0.477307	0.500140
O225	O	0.398525	-0.031256	0.000108
O226	O	0.898525	0.468744	0.500108
H227	H	0.434077	-0.066992	0.000110
H228	H	0.934077	0.433008	0.500110
O229	O	0.674843	-0.214365	0.194022
O230	O	1.174843	0.285635	0.694022
H231	H	0.675197	-0.183729	0.258882
H232	H	1.175197	0.316271	0.758882
H233	H	0.672982	-0.372013	0.262659
H234	H	1.172982	0.127987	0.762659
H235	H	0.512279	-0.016146	0.000090
H236	H	1.012279	0.483854	0.500090
H237	H	0.668400	-0.752989	0.169366
H238	H	1.168400	-0.252989	0.669366
O239	O	0.668318	-0.760822	-0.193798
O240	O	1.168318	-0.260822	0.306202
H241	H	0.706811	-0.793179	-0.198268
H242	H	1.206811	-0.293179	0.301732
H243	H	0.674957	-0.206508	-0.169152
H244	H	1.174957	0.293492	0.330848
