data_functionalizedCrystal
_audit_creation_method	'MofGen! by Chris Wilmer'
_symmetry_space_group_name_H-M	'P1'
_symmetry_Int_Tables_number	1
_symmetry_cell_setting	triclinic
loop_
_symmetry_equiv_pos_as_xyz
  x,y,z
_cell_length_a	16.992701
_cell_length_b	11.026623
_cell_length_c	15.455438
_cell_angle_alpha	86.740733
_cell_angle_beta	87.152792
_cell_angle_gamma	80.373063
loop_
_atom_site_label
_atom_site_type_symbol
_atom_site_fract_x
_atom_site_fract_y
_atom_site_fract_z
O1	O	1.074497	-0.265913	0.072134
O2	O	1.574497	0.234087	0.572134
O3	O	0.845808	-0.263054	0.072135
O4	O	1.345808	0.236946	0.572135
O5	O	0.941199	-0.085992	0.072130
O6	O	1.441199	0.414008	0.572130
O7	O	0.979107	-0.442974	0.072139
O8	O	1.479107	0.057026	0.572139
O9	O	0.946621	-0.075901	-0.072130
O10	O	1.446621	0.424099	0.427870
O11	O	0.851230	-0.252962	-0.072125
O12	O	1.351230	0.247038	0.427875
O13	O	1.079919	-0.255821	-0.072125
O14	O	1.579919	0.244179	0.427875
Cu15	Cu	0.966070	-0.253470	-0.085297
Cu16	Cu	1.466070	0.246530	0.414703
Cu17	Cu	0.959658	-0.265405	0.085306
Cu18	Cu	1.459658	0.234595	0.585306
O19	O	0.984529	-0.432883	-0.072121
O20	O	1.484529	0.067117	0.427879
C21	C	0.818787	-0.254327	0.000005
C22	C	1.318787	0.245673	0.500005
C23	C	0.730192	-0.243342	0.000005
C24	C	1.230192	0.256658	0.500005
C25	C	0.230815	-0.169536	0.000006
C26	C	0.730815	0.330464	0.500006
C27	C	0.314060	-0.179867	0.000001
C28	C	0.814060	0.320133	0.500001
C29	C	0.362023	-0.296195	0.000008
C30	C	0.862023	0.203805	0.500008
C31	C	0.326738	-0.402200	0.000011
C32	C	0.826738	0.097800	0.500011
C33	C	0.243494	-0.391868	0.000010
C34	C	0.743494	0.108132	0.500010
C35	C	0.611664	-0.339015	0.000007
C36	C	1.111664	0.160985	0.500007
C37	C	0.694912	-0.349339	0.000011
C38	C	1.194912	0.150661	0.500011
C39	C	0.682229	-0.127004	-0.000001
C40	C	1.182229	0.372996	0.499999
C41	C	0.598985	-0.116683	0.000003
C42	C	1.098985	0.383317	0.500003
C43	C	0.563707	-0.222687	0.000002
C44	C	1.063707	0.277313	0.500002
N45	N	0.447112	-0.306757	0.000006
N46	N	0.947112	0.193243	0.500006
N47	N	0.478619	-0.212124	-0.000002
N48	N	0.978619	0.287876	0.499998
C49	C	0.936916	-0.035057	0.000001
C50	C	1.436916	0.464943	0.500001
C51	C	0.916069	0.101678	0.000003
C52	C	1.416069	0.601678	0.500003
C53	C	0.973630	0.169902	0.000004
C54	C	1.473630	0.669902	0.500004
C55	C	0.952085	0.311225	0.000006
C56	C	1.452085	0.811225	0.500006
C57	C	1.106940	-0.264548	0.000006
C58	C	1.606940	0.235452	0.500006
C59	C	1.195535	-0.275533	0.000012
C60	C	1.695535	0.224467	0.500012
N61	N	0.970586	-0.245076	-0.205290
N62	N	1.470586	0.254924	0.294710
C63	C	0.988810	0.516182	0.000008
C64	C	1.488810	1.016182	0.500008
C65	C	1.009655	0.379447	0.000007
C66	C	1.509655	0.879447	0.500007
C67	C	0.930047	-0.320266	-0.250704
C68	C	1.430047	0.179734	0.249296
C69	C	0.933484	-0.313915	-0.341510
C70	C	1.433484	0.186085	0.158490
C71	C	0.977456	-0.232367	-0.386901
C72	C	1.477456	0.267633	0.113099
C73	C	1.018000	-0.157174	-0.341481
C74	C	1.518000	0.342826	0.158519
C75	C	1.014567	-0.163532	-0.250677
C76	C	1.514567	0.336468	0.249323
C77	C	0.992258	-0.204954	-0.658476
C78	C	1.492258	0.295046	-0.158476
C79	C	0.995686	-0.198599	-0.749287
C80	C	1.495686	0.301401	-0.249287
C81	C	0.911171	-0.355343	-0.749309
C82	C	1.411171	0.144657	-0.249309
C83	C	0.907738	-0.361689	-0.658503
C84	C	1.407738	0.138311	-0.158503
C85	C	0.948285	-0.286500	-0.613091
C86	C	1.448285	0.213500	-0.113091
N87	N	0.980968	-0.225871	-0.479720
N88	N	1.480968	0.274129	0.020280
N89	N	0.944777	-0.293004	-0.520274
N90	N	1.444777	0.206996	-0.020274
N91	N	0.955147	-0.273790	0.205300
N92	N	1.455147	0.226210	0.705300
H93	H	0.710961	-0.040702	-0.000001
H94	H	1.210961	0.459298	0.499999
F95	F	1.057717	-0.083507	-0.202346
F96	F	1.557717	0.416493	0.297654
F97	F	0.830805	0.162079	0.000011
F98	F	1.330805	0.662079	0.500011
H99	H	0.886849	0.357436	0.000011
H100	H	1.386849	0.857436	0.500011
F101	F	1.058894	0.109500	0.000009
F102	F	1.558894	0.609500	0.500009
F103	F	0.890339	-0.393943	-0.389843
F104	F	1.390339	0.106057	0.110157
F105	F	0.868022	-0.435362	-0.797645
F106	F	1.368022	0.064638	-0.297645
H107	H	1.031495	-0.132188	-0.786240
H108	H	1.531495	0.367812	-0.286240
H109	H	1.074888	0.333233	0.000072
H110	H	1.574888	0.833233	0.500072
H111	H	0.894236	-0.386666	-0.213753
H112	H	1.394236	0.113334	0.286247
H113	H	0.871932	-0.428092	-0.621547
H114	H	1.371932	0.071908	-0.121547
H115	H	0.559938	-0.021956	-0.000002
H116	H	1.059938	0.478044	0.499998
F117	F	1.035408	-0.124930	-0.610152
F118	F	1.535408	0.375070	-0.110152
F119	F	1.064803	-0.070389	-0.389791
F120	F	1.564803	0.429611	0.110209
H121	H	0.191768	-0.074809	0.000006
H122	H	0.691768	0.425191	0.500006
H123	H	0.733963	-0.444072	0.000004
H124	H	1.233963	0.055928	0.500004
F125	F	0.351603	-0.067049	-0.000009
F126	F	0.851603	0.432951	0.499991
F127	F	0.574129	-0.451837	0.000014
F128	F	1.074129	0.048163	0.500014
H129	H	0.365796	-0.496917	0.000011
H130	H	0.865796	0.003083	0.500011
H131	H	0.214771	-0.478183	0.000012
H132	H	0.714771	0.021817	0.500012
