data_functionalizedCrystal
_audit_creation_method	'MofGen! by Chris Wilmer'
_symmetry_space_group_name_H-M	'P1'
_symmetry_Int_Tables_number	1
_symmetry_cell_setting	triclinic
loop_
_symmetry_equiv_pos_as_xyz
  x,y,z
_cell_length_a	14.971486
_cell_length_b	15.995350
_cell_length_c	14.048226
_cell_angle_alpha	89.995798
_cell_angle_beta	89.998499
_cell_angle_gamma	83.553252
loop_
_atom_site_label
_atom_site_type_symbol
_atom_site_fract_x
_atom_site_fract_y
_atom_site_fract_z
O1	O	1.186822	0.109116	-0.079046
O2	O	1.686822	0.609116	0.420954
O3	O	0.926407	0.122183	-0.079072
O4	O	1.426407	0.622183	0.420928
O5	O	1.063733	-0.006231	-0.079057
O6	O	1.563733	0.493769	0.420943
O7	O	1.049496	0.237530	-0.079061
O8	O	1.549496	0.737530	0.420939
O9	O	1.063717	-0.006238	0.079264
O10	O	1.563717	0.493762	0.579264
O11	O	0.926391	0.122176	0.079250
O12	O	1.426391	0.622176	0.579250
O13	O	1.186806	0.109109	0.079275
O14	O	1.686806	0.609109	0.579275
Zn15	Zn	1.056596	0.115641	0.104399
Zn16	Zn	1.556596	0.615641	0.604399
Zn17	Zn	1.056617	0.115651	-0.104196
Zn18	Zn	1.556617	0.615651	0.395804
O19	O	1.049480	0.237523	0.079261
O20	O	1.549480	0.737523	0.579261
C21	C	0.893075	0.121595	0.000086
C22	C	1.393075	0.621595	0.500086
C23	C	0.793780	0.119844	0.000076
C24	C	1.293780	0.619844	0.500076
C25	C	0.736468	0.195284	0.000076
C26	C	1.236468	0.695284	0.500076
C27	C	0.643171	0.193633	0.000090
C28	C	1.143171	0.693633	0.500090
C29	C	0.607187	0.116542	0.000098
C30	C	1.107187	0.616542	0.500098
C31	C	0.664505	0.041097	0.000100
C32	C	1.164505	0.541097	0.500100
C33	C	0.757801	0.042748	0.000093
C34	C	1.257801	0.542748	0.500093
C35	C	0.470047	0.037660	0.000113
C36	C	0.970047	0.537660	0.500113
C37	C	0.376745	0.036008	0.000119
C38	C	0.876745	0.536008	0.500119
C39	C	0.355417	0.188545	0.000111
C40	C	0.855417	0.688545	0.500111
C41	C	0.448712	0.190197	0.000104
C42	C	0.948712	0.690197	0.500104
C43	C	0.506025	0.114751	0.000104
C44	C	1.006025	0.614751	0.500104
C45	C	1.063137	-0.037430	0.000101
C46	C	1.563137	0.462570	0.500101
C47	C	1.061372	-0.130382	0.000096
C48	C	1.561372	0.369618	0.500096
C49	C	1.055035	-0.468136	0.000098
C50	C	1.555035	0.031864	0.500098
C51	C	0.957234	-0.420800	-0.000266
C52	C	1.457234	0.079200	0.499734
C53	C	0.958999	-0.324108	0.000091
C54	C	1.458999	0.175892	0.500091
C55	C	1.058178	-0.300572	0.000097
C56	C	1.558178	0.199428	0.500097
C57	C	1.106408	-0.341606	0.090509
C58	C	1.606408	0.158394	0.590509
C59	C	1.103951	-0.438244	0.090584
C60	C	1.603951	0.061756	0.590584
C61	C	1.105990	-0.438591	-0.089456
C62	C	1.605990	0.061409	0.410544
C63	C	1.105967	-0.341646	-0.090651
C64	C	1.605967	0.158354	0.409349
C65	C	1.059960	-0.205873	0.000099
C66	C	1.559960	0.294127	0.500099
C67	C	1.053256	-0.562835	0.000103
C68	C	1.553256	-0.062835	0.500103
C69	C	1.220138	0.109697	0.000116
C70	C	1.720138	0.609697	0.500116
C71	C	1.319433	0.111448	0.000119
C72	C	1.819433	0.611448	0.500119
C73	C	1.050077	0.268722	0.000100
C74	C	1.550077	0.768722	0.500100
C75	C	1.051841	0.361674	0.000099
C76	C	1.551841	0.861674	0.500099
N77	N	1.056587	0.115634	0.246760
N78	N	1.556587	0.615634	0.746760
N79	N	1.056633	0.115652	-0.246557
N80	N	1.556633	0.615652	0.253443
C81	C	1.117414	0.058795	0.296584
C82	C	1.617414	0.558795	0.796584
C83	C	1.117421	0.058795	0.396242
C84	C	1.617421	0.558795	0.896242
C85	C	1.056603	0.115637	0.446073
C86	C	1.556603	0.615637	0.946073
C87	C	0.995769	0.172478	0.396242
C88	C	1.495769	0.672478	0.896242
C89	C	0.995760	0.172474	0.296586
C90	C	1.495760	0.672474	0.796586
C91	C	0.995795	0.172484	0.603956
C92	C	1.495795	0.672484	1.103956
C93	C	0.995806	0.172490	0.703619
C94	C	1.495806	0.672490	1.203619
C95	C	1.117456	0.058805	0.703612
C96	C	1.617456	0.558805	1.203612
C97	C	1.117446	0.058801	0.603956
C98	C	1.617446	0.558801	1.103956
C99	C	1.056614	0.115643	0.554132
C100	C	1.556614	0.615643	1.054132
H101	H	0.478007	0.252971	0.000089
H102	H	0.978007	0.752971	0.500089
O103	O	0.337935	-0.047141	0.000139
O104	O	0.837935	0.452859	0.500139
H105	H	0.295936	-0.051528	0.064670
H106	H	0.795936	0.448472	0.564670
H107	H	1.178293	-0.326211	-0.096106
H108	H	1.678293	0.173789	0.403894
H109	H	0.308748	0.249976	0.000115
H110	H	0.808748	0.749976	0.500115
O111	O	0.905461	-0.445405	-0.086146
O112	O	1.405461	0.054595	0.413854
H113	H	0.884487	-0.388632	-0.129610
H114	H	1.384487	0.111368	0.370390
O115	O	1.183037	-0.002508	0.550203
O116	O	1.683037	0.497492	1.050203
H117	H	1.225333	-0.042040	0.601589
H118	H	1.725333	0.457960	1.101589
O119	O	0.908431	-0.287240	0.086078
O120	O	1.408431	0.212760	0.586078
H121	H	0.954329	-0.254421	0.131274
H122	H	1.454329	0.245579	0.631274
O123	O	0.930210	0.233791	0.757376
O124	O	1.430210	0.733791	1.257376
H125	H	0.886766	0.198466	0.802799
H126	H	1.386766	0.698466	1.302799
H127	H	1.068768	-0.456584	0.158165
H128	H	1.568768	0.043416	0.658165
H129	H	0.596511	0.255064	0.000090
H130	H	1.096511	0.755064	0.500090
H131	H	0.946246	0.218758	0.436821
H132	H	1.446246	0.718758	0.936821
O133	O	0.930159	0.233781	0.242839
O134	O	1.430159	0.733781	0.742839
H135	H	0.887876	0.273315	0.294231
H136	H	1.387876	0.773315	0.794231
H137	H	0.804464	-0.018683	0.000092
H138	H	1.304464	0.481317	0.500092
H139	H	1.179272	-0.327407	0.093875
H140	H	1.679272	0.172593	0.593875
O141	O	0.531868	-0.043711	0.000109
O142	O	1.031868	0.456289	0.500109
H143	H	0.491174	-0.097596	0.000104
H144	H	0.991174	0.402404	0.500104
H145	H	0.635200	-0.021672	0.000119
H146	H	1.135200	0.478328	0.500119
O147	O	1.183079	-0.002501	0.757340
O148	O	1.683079	0.497499	1.257340
H149	H	1.171702	-0.067795	0.738215
H150	H	1.671702	0.432205	1.238215
O151	O	0.908762	-0.286501	-0.085747
O152	O	1.408762	0.213499	0.414253
H153	H	0.941374	-0.313482	-0.151554
H154	H	1.441374	0.186518	0.348446
O155	O	0.930189	0.233795	0.550211
O156	O	1.430189	0.733795	1.050211
H157	H	0.887908	0.273330	0.601602
H158	H	1.387908	0.773330	1.101602
H159	H	1.074021	-0.459160	-0.157983
H160	H	1.574021	0.040840	0.342017
O161	O	0.905670	-0.446791	0.085134
O162	O	1.405670	0.053209	0.585134
H163	H	0.949396	-0.493275	0.127839
H164	H	1.449396	0.006725	0.627839
O165	O	1.199056	-0.480876	0.096047
O166	O	1.699056	0.019124	0.596047
H167	H	1.246598	-0.432441	0.098630
H168	H	1.746598	0.067559	0.598630
H169	H	1.072896	-0.313261	0.157786
H170	H	1.572896	0.186739	0.657786
H171	H	1.166943	0.012511	0.256018
H172	H	1.666943	0.512511	0.756018
H173	H	0.765759	0.258060	0.000070
H174	H	1.265759	0.758060	0.500070
H175	H	1.070705	-0.314429	-0.157536
H176	H	1.570705	0.185571	0.342464
O177	O	1.201504	-0.480568	-0.090271
O178	O	1.701504	0.019432	0.409729
H179	H	1.212674	-0.522277	-0.027240
H180	H	1.712674	-0.022277	0.472760
H181	H	1.166950	0.012513	0.436809
H182	H	1.666950	0.512513	0.936809
