data_functionalizedCrystal
_audit_creation_method	'MofGen! by Chris Wilmer'
_symmetry_space_group_name_H-M	'P1'
_symmetry_Int_Tables_number	1
_symmetry_cell_setting	triclinic
loop_
_symmetry_equiv_pos_as_xyz
  x,y,z
_cell_length_a	14.044220
_cell_length_b	14.044220
_cell_length_c	12.503572
_cell_angle_alpha	93.843168
_cell_angle_beta	86.164750
_cell_angle_gamma	93.188878
loop_
_atom_site_label
_atom_site_type_symbol
_atom_site_fract_x
_atom_site_fract_y
_atom_site_fract_z
O1	O	1.282200	0.225116	-0.089210
O2	O	1.532200	0.475116	0.160790
O3	O	1.782200	0.725116	0.410790
O4	O	2.032200	0.975116	0.660790
O5	O	1.005530	0.216809	-0.089237
O6	O	1.255530	0.466809	0.160763
O7	O	1.505530	0.716809	0.410763
O8	O	1.755530	0.966809	0.660763
O9	O	1.139712	0.082627	-0.089213
O10	O	1.389712	0.332627	0.160787
O11	O	1.639712	0.582627	0.410787
O12	O	1.889712	0.832627	0.660787
O13	O	1.148019	0.359298	-0.089234
O14	O	1.398019	0.609298	0.160766
O15	O	1.648019	0.859298	0.410766
O16	O	1.898019	1.109298	0.660766
O17	O	1.129622	0.092737	0.089427
O18	O	1.379622	0.342737	0.339427
O19	O	1.629622	0.592737	0.589427
O20	O	1.879622	0.842737	0.839427
O21	O	0.995440	0.226918	0.089403
O22	O	1.245440	0.476918	0.339403
O23	O	1.495440	0.726918	0.589403
O24	O	1.745440	0.976918	0.839403
O25	O	1.272110	0.235226	0.089430
O26	O	1.522110	0.485226	0.339430
O27	O	1.772110	0.735226	0.589430
O28	O	2.022110	0.985226	0.839430
Cu29	Cu	1.132854	0.231995	0.105728
Cu30	Cu	1.382854	0.481995	0.355728
Cu31	Cu	1.632854	0.731995	0.605728
Cu32	Cu	1.882854	0.981995	0.855728
Cu33	Cu	1.144786	0.220040	-0.105535
Cu34	Cu	1.394786	0.470040	0.144465
Cu35	Cu	1.644786	0.720040	0.394465
Cu36	Cu	1.894786	0.970040	0.644465
O37	O	1.137929	0.369407	0.089406
O38	O	1.387929	0.619407	0.339406
O39	O	1.637929	0.869407	0.589406
O40	O	1.887929	1.119407	0.839406
C41	C	0.964864	0.218228	0.000080
C42	C	1.214864	0.468228	0.250080
C43	C	1.464864	0.718228	0.500080
C44	C	1.714864	0.968228	0.750080
C45	C	0.858721	0.207383	0.000070
C46	C	1.108721	0.457383	0.250070
C47	C	1.358721	0.707383	0.500070
C48	C	1.608721	0.957383	0.750070
C49	C	0.664382	0.187558	0.000092
C50	C	0.914382	0.437558	0.250092
C51	C	1.164382	0.687558	0.500092
C52	C	1.414382	0.937558	0.750092
C53	C	0.613253	0.264472	0.000091
C54	C	0.863253	0.514472	0.250091
C55	C	1.113253	0.764472	0.500091
C56	C	1.363253	1.014472	0.750091
C57	C	0.505116	0.253441	0.000104
C58	C	0.755116	0.503441	0.250104
C59	C	1.005116	0.753441	0.500104
C60	C	1.255116	1.003441	0.750104
C61	C	0.772529	0.198587	0.000080
C62	C	1.022529	0.448587	0.250080
C63	C	1.272529	0.698587	0.500080
C64	C	1.522529	0.948587	0.750080
C65	C	1.131031	0.052060	0.000107
C66	C	1.381031	0.302060	0.250107
C67	C	1.631031	0.552060	0.500107
C68	C	1.881031	0.802060	0.750107
C69	C	1.120187	-0.054082	0.000107
C70	C	1.370187	0.195918	0.250107
C71	C	1.620187	0.445918	0.500107
C72	C	1.870187	0.695918	0.750107
C73	C	1.312777	0.233807	0.000111
C74	C	1.562777	0.483807	0.250111
C75	C	1.812777	0.733807	0.500111
C76	C	2.062777	0.983807	0.750111
C77	C	1.418920	0.244651	0.000114
C78	C	1.668920	0.494651	0.250114
C79	C	1.918920	0.744651	0.500114
C80	C	2.168920	0.994651	0.750114
C81	C	1.100361	-0.248421	0.000090
C82	C	1.350361	0.001579	0.250090
C83	C	1.600361	0.251579	0.500090
C84	C	1.850361	0.501579	0.750090
C85	C	1.177275	-0.299551	0.000094
C86	C	1.427275	-0.049551	0.250094
C87	C	1.677275	0.200449	0.500094
C88	C	1.927275	0.450449	0.750094
C89	C	1.166244	-0.407687	0.000084
C90	C	1.416244	-0.157687	0.250084
C91	C	1.666244	0.092313	0.500084
C92	C	1.916244	0.342313	0.750084
C93	C	1.111391	-0.140274	0.000099
C94	C	1.361391	0.109726	0.250099
C95	C	1.611391	0.359726	0.500099
C96	C	1.861391	0.609726	0.750099
N97	N	1.124469	0.240404	0.254319
N98	N	1.374469	0.490404	0.504319
N99	N	1.624469	0.740404	0.754319
N100	N	1.874469	0.990404	1.004319
C101	C	1.146609	0.399974	0.000084
C102	C	1.396609	0.649974	0.250084
C103	C	1.646609	0.899974	0.500084
C104	C	1.896609	1.149974	0.750084
C105	C	1.157454	0.506117	0.000077
C106	C	1.407454	0.756117	0.250077
C107	C	1.657454	1.006117	0.500077
C108	C	1.907454	1.256117	0.750077
N109	N	1.153179	0.211624	-0.254126
N110	N	1.403179	0.461624	-0.004126
N111	N	1.653179	0.711624	0.245874
N112	N	1.903179	0.961624	0.495874
C113	C	1.112134	0.252782	0.473432
C114	C	1.362134	0.502782	0.723432
C115	C	1.612134	0.752782	0.973432
C116	C	1.862134	1.002782	1.223432
C117	C	1.165511	0.199249	0.526768
C118	C	1.415511	0.449249	0.776768
C119	C	1.665511	0.699249	1.026768
C120	C	1.915511	0.949249	1.276768
C121	C	1.158648	0.206136	0.648690
C122	C	1.408648	0.456136	0.898690
C123	C	1.658648	0.706136	1.148690
C124	C	1.908648	0.956136	1.398690
C125	C	1.118996	0.245896	0.351499
C126	C	1.368996	0.495896	0.601499
C127	C	1.618996	0.745896	0.851499
C128	C	1.868996	0.995896	1.101499
H129	H	0.626945	0.113431	0.000104
H130	H	0.876945	0.363431	0.250104
H131	H	1.126945	0.613431	0.500104
H132	H	1.376945	0.863431	0.750104
H133	H	1.251413	-0.262115	0.000029
H134	H	1.501413	-0.012115	0.250029
H135	H	1.751413	0.237885	0.500029
H136	H	2.001413	0.487885	0.750029
H137	H	0.650692	0.338605	0.000081
H138	H	0.900692	0.588605	0.250081
H139	H	1.150692	0.838605	0.500081
H140	H	1.400692	1.088605	0.750081
C141	C	1.043450	0.321688	0.535435
C142	C	1.293450	0.571688	0.785435
C143	C	1.543450	0.821688	1.035435
C144	C	1.793450	1.071688	1.285435
H145	H	1.047800	0.317342	0.610433
H146	H	1.297800	0.567342	0.860433
H147	H	1.547800	0.817342	1.110433
H148	H	1.797800	1.067342	1.360433
H149	H	0.979850	0.304996	0.517080
H150	H	1.229850	0.554996	0.767080
H151	H	1.479850	0.804996	1.017080
H152	H	1.729850	1.054996	1.267080
H153	H	1.060345	0.385248	0.517066
H154	H	1.310345	0.635248	0.767066
H155	H	1.560345	0.885248	1.017066
H156	H	1.810345	1.135248	1.267066
C157	C	1.000220	-0.298992	0.000089
C158	C	1.250220	-0.048992	0.250089
C159	C	1.500220	0.201008	0.500089
C160	C	1.750220	0.451008	0.750089
H161	H	1.005851	-0.366090	0.000095
H162	H	1.255851	-0.116090	0.250095
H163	H	1.505851	0.133910	0.500095
H164	H	1.755851	0.383910	0.750095
H165	H	0.970026	-0.284571	-0.062203
H166	H	1.220026	-0.034571	0.187797
H167	H	1.470026	0.215429	0.437797
H168	H	1.720026	0.465429	0.687797
H169	H	0.963008	-0.277529	0.062396
H170	H	1.213008	-0.027529	0.312396
H171	H	1.463008	0.222471	0.562396
H172	H	1.713008	0.472471	0.812396
C173	C	1.234215	0.130350	0.464769
C174	C	1.484215	0.380350	0.714769
C175	C	1.734215	0.630350	0.964769
C176	C	1.984215	0.880350	1.214769
H177	H	1.266800	0.097665	0.514269
H178	H	1.516800	0.347665	0.764269
H179	H	1.766800	0.597665	1.014269
H180	H	2.016800	0.847665	1.264269
H181	H	1.279348	0.165571	0.420895
H182	H	1.529348	0.415571	0.670895
H183	H	1.779348	0.665571	0.920895
H184	H	2.029348	0.915571	1.170895
H185	H	1.198874	0.085298	0.420901
H186	H	1.448874	0.335298	0.670901
H187	H	1.698874	0.585298	0.920901
H188	H	1.948874	0.835298	1.170901
