data_functionalizedCrystal
_audit_creation_method	'MofGen! by Chris Wilmer'
_symmetry_space_group_name_H-M	'P1'
_symmetry_Int_Tables_number	1
_symmetry_cell_setting	triclinic
loop_
_symmetry_equiv_pos_as_xyz
  x,y,z
_cell_length_a	17.638166
_cell_length_b	21.395362
_cell_length_c	21.395355
_cell_angle_alpha	90.048039
_cell_angle_beta	101.190876
_cell_angle_gamma	78.732911
loop_
_atom_site_label
_atom_site_type_symbol
_atom_site_fract_x
_atom_site_fract_y
_atom_site_fract_z
Zn1	Zn	-0.314438	-0.907468	-0.405001
Zn2	Zn	-0.446621	-0.886186	-0.321389
Zn3	Zn	-0.314481	-0.802676	-0.300202
Zn4	Zn	-0.446642	-0.781465	-0.426089
O5	O	-0.380546	-0.844449	-0.363170
O6	O	-0.331946	-0.992327	-0.393951
O7	O	-0.429100	-0.875079	-0.230902
O8	O	-0.203846	-0.834360	-0.296412
O9	O	-0.429059	-0.976692	-0.332521
O10	O	-0.203815	-0.911350	-0.373408
O11	O	-0.332018	-0.813724	-0.215336
O12	O	-0.332039	-0.712180	-0.316860
O13	O	-0.429097	-0.798208	-0.510969
O14	O	-0.429138	-0.696596	-0.409349
O15	O	-0.331967	-0.890782	-0.495475
O16	O	-0.557252	-0.854512	-0.352970
O17	O	-0.557268	-0.777573	-0.429893
C18	C	-0.380596	-0.681653	-0.363094
C19	C	-0.380636	-0.612005	-0.363079
C20	C	-0.431264	-0.571183	-0.411187
C21	C	-0.431248	-0.505750	-0.411208
C22	C	-0.380613	-0.481141	-0.363111
C23	C	-0.329975	-0.521972	-0.314999
C24	C	-0.329987	-0.587404	-0.314983
C25	C	-0.374250	-0.378436	-0.305679
C26	C	-0.374243	-0.313004	-0.305695
C27	C	-0.380572	-0.279326	-0.363159
C28	C	-0.386923	-0.311086	-0.420612
C29	C	-0.386935	-0.376519	-0.420596
C30	C	-0.380594	-0.410191	-0.363123
C31	C	-0.431185	-0.167554	-0.411293
C32	C	-0.431164	-0.102121	-0.411314
C33	C	-0.329895	-0.118344	-0.315100
C34	C	-0.329912	-0.183776	-0.315084
C35	C	-0.380561	-0.208377	-0.363180
C36	C	-0.585945	-0.811448	-0.396032
C37	C	-0.673816	-0.797388	-0.410112
C38	C	-0.797703	-0.737479	-0.469973
C39	C	-0.715135	-0.750696	-0.456739
C40	C	-0.715055	-0.830880	-0.376698
C41	C	-0.797625	-0.817668	-0.389923
C42	C	-0.838942	-0.770968	-0.436562
C43	C	-0.838864	-0.851157	-0.356511
C44	C	-0.921426	-0.837948	-0.369738
C45	C	-0.962749	-0.791251	-0.416376
C46	C	-0.921504	-0.757759	-0.449789
C47	C	-0.797545	-0.897861	-0.309876
C48	C	-0.838785	-0.931349	-0.276465
C49	C	-0.921349	-0.918137	-0.289688
C50	C	-0.962672	-0.871440	-0.336326
C51	C	-0.962594	-0.951629	-0.256276
C52	C	-1.045156	-0.938420	-0.269502
C53	C	-1.045234	-0.858231	-0.349553
C54	C	-0.174344	-0.877595	-0.330194
C55	C	-0.086473	-0.891719	-0.316141
C56	C	-0.380529	-0.844503	-0.526591
C57	C	-0.380523	-0.844526	-0.596231
C58	C	-0.380509	-0.007878	-0.363232
C59	C	-0.380527	-0.077516	-0.363217
C60	C	-0.329945	-0.892728	-0.620878
C61	C	-0.329911	-0.892733	-0.686308
C62	C	-0.380469	-0.844540	-0.727091
C63	C	-0.431050	-0.796330	-0.702437
C64	C	-0.431077	-0.796323	-0.637008
C65	C	-0.451654	-0.828156	-0.842153
C66	C	-0.451628	-0.828167	-0.907582
C67	C	-0.380385	-0.844557	-0.928899
C68	C	-0.309166	-0.860950	-0.884779
C69	C	-0.309193	-0.860943	-0.819349
C70	C	-0.380445	-0.844542	-0.798040
C71	C	-0.329767	-0.892767	-1.024491
C72	C	-0.329731	-0.892767	-1.089922
C73	C	-0.430877	-0.796366	-1.106052
C74	C	-0.430905	-0.796364	-1.040621
C75	C	-0.380351	-0.844567	-0.999845
C76	C	-0.380504	-0.844439	-0.200376
C77	C	-0.380288	-0.844573	-0.130701
H78	H	-0.288689	-0.217014	-0.275907
O79	O	-0.485460	-0.744365	-1.014046
H80	H	-0.525692	-0.765926	-0.990692
O81	O	-0.528437	-0.810480	-0.955167
H82	H	-0.577979	-0.799067	-0.929353
H83	H	-0.509653	-0.814644	-0.824801
H84	H	-1.078734	-0.965692	-0.242297
H85	H	-0.288779	-0.931979	-0.587681
O86	O	-0.393729	-0.274773	-0.482594
H87	H	-0.398146	-0.307850	-0.522538
H88	H	-0.288746	-0.501931	-0.275839
H89	H	-0.681405	-0.868906	-0.338725
O90	O	-0.275365	-0.944728	-0.712904
H91	H	-0.240221	-0.978247	-0.673558
O92	O	-0.918021	-1.002002	-0.205980
H93	H	-0.960569	-1.023074	-0.184972
O94	O	-0.485886	-0.461703	-0.463077
H95	H	-0.521120	-0.489800	-0.496510
O96	O	-0.275275	-0.091813	-0.263223
H97	H	-0.288741	-0.102153	-0.216183
H98	H	-0.831345	-0.699454	-0.507954
O99	O	-1.089811	-0.807851	-0.399846
H100	H	-1.127376	-0.829865	-0.437774
O101	O	-0.485800	-0.194098	-0.463171
H102	H	-0.520993	-0.154717	-0.496635
H103	H	-1.029977	-0.780499	-0.427147
O104	O	-0.485580	-0.744347	-0.746419
H105	H	-0.477069	-0.752452	-0.796059
H106	H	-0.472390	-0.068884	-0.450493
O107	O	-0.966079	-0.707388	-0.500091
H108	H	-0.923534	-0.686319	-0.521106
O109	O	-0.670651	-0.714570	-0.492773
H110	H	-0.713255	-0.679875	-0.527421
H111	H	-0.730318	-0.908615	-0.299110
O112	O	-0.485613	-0.744321	-0.610416
H113	H	-0.520759	-0.710805	-0.649763
H114	H	-0.251204	-0.874289	-0.783428
O115	O	-0.794221	-0.981729	-0.226174
H116	H	-0.729881	-0.985291	-0.222590
O117	O	-0.367389	-0.278749	-0.243732
H118	H	-0.362973	-0.313161	-0.203769
O119	O	-0.232314	-0.878614	-0.907757
H120	H	-0.244255	-0.875852	-0.960665
H121	H	-0.392104	-0.402375	-0.467376
O122	O	-0.275240	-0.944750	-0.980502
H123	H	-0.213191	-0.943974	-0.983108
O124	O	-0.485880	-0.597720	-0.463066
H125	H	-0.521076	-0.558338	-0.496527
O126	O	-0.275179	-0.944760	-1.116510
H127	H	-0.240039	-0.978278	-1.077162
H128	H	-0.288757	-0.620643	-0.275808
O129	O	-0.367428	-0.414755	-0.243696
H130	H	-0.311140	-0.411232	-0.211386
O131	O	-0.485409	-0.744384	-1.150029
H132	H	-0.476897	-0.752487	-1.199668
