data_functionalizedCrystal
_audit_creation_method	'MofGen! by Chris Wilmer'
_symmetry_space_group_name_H-M	'P1'
_symmetry_Int_Tables_number	1
_symmetry_cell_setting	triclinic
loop_
_symmetry_equiv_pos_as_xyz
  x,y,z
_cell_length_a	14.519709
_cell_length_b	9.065218
_cell_length_c	8.140239
_cell_angle_alpha	90.001686
_cell_angle_beta	89.997108
_cell_angle_gamma	84.348015
loop_
_atom_site_label
_atom_site_type_symbol
_atom_site_fract_x
_atom_site_fract_y
_atom_site_fract_z
O1	O	-1.225281	-0.193392	-0.136393
O2	O	-0.725281	0.306608	0.363607
O3	O	-0.956971	-0.216167	-0.136442
O4	O	-0.456971	0.283833	0.363558
O5	O	-1.096672	0.009967	-0.136413
O6	O	-0.596672	0.509967	0.363587
O7	O	-1.085580	-0.419526	-0.136422
O8	O	-0.585580	0.080474	0.363578
O9	O	-1.096664	0.009970	0.136814
O10	O	-0.596664	0.509970	0.636814
O11	O	-0.956963	-0.216164	0.136785
O12	O	-0.456963	0.283836	0.636785
O13	O	-1.225273	-0.193389	0.136835
O14	O	-0.725273	0.306611	0.636835
Zn15	Zn	-1.091117	-0.204776	0.180191
Zn16	Zn	-0.591117	0.295224	0.680191
Zn17	Zn	-1.091127	-0.204780	-0.179798
Zn18	Zn	-0.591127	0.295220	0.320202
O19	O	-1.085572	-0.419523	0.136806
O20	O	-0.585572	0.080477	0.636806
C21	C	-0.922600	-0.215104	0.000165
C22	C	-0.422600	0.284896	0.500165
C23	C	-0.820195	-0.211923	0.000146
C24	C	-0.320195	0.288077	0.500146
C25	C	-1.095602	0.064935	0.000198
C26	C	-0.595602	0.564935	0.500198
C27	C	-1.092415	0.228718	0.000189
C28	C	-0.592415	0.728718	0.500189
C29	C	-1.259645	-0.194452	0.000224
C30	C	-0.759645	0.305548	0.500224
C31	C	-1.362049	-0.197633	0.000232
C32	C	-0.862049	0.302367	0.500232
C33	C	-0.445214	-0.200214	0.000221
C34	C	0.054786	0.299786	0.500221
C35	C	-0.549545	-0.203466	0.000200
C36	C	-0.049545	0.296534	0.500200
C37	C	-0.632701	-0.206068	0.000182
C38	C	-0.132701	0.293932	0.500182
C39	C	-0.737039	-0.209321	0.000164
C40	C	-0.237039	0.290679	0.500164
C41	C	-1.086642	-0.474491	0.000191
C42	C	-0.586642	0.025509	0.500191
C43	C	-1.089830	-0.638274	0.000189
C44	C	-0.589830	-0.138274	0.500189
N45	N	-1.091117	-0.204773	0.425873
N46	N	-0.591117	0.295227	0.925873
N47	N	-1.091135	-0.204771	-0.425480
N48	N	-0.591135	0.295229	0.074520
