data_functionalizedCrystal
_audit_creation_method	'MofGen! by Chris Wilmer'
_symmetry_space_group_name_H-M	'P1'
_symmetry_Int_Tables_number	1
_symmetry_cell_setting	triclinic
loop_
_symmetry_equiv_pos_as_xyz
  x,y,z
_cell_length_a	21.395355
_cell_length_b	17.077404
_cell_length_c	17.077403
_cell_angle_alpha	89.999063
_cell_angle_beta	89.994146
_cell_angle_gamma	90.024450
loop_
_atom_site_label
_atom_site_type_symbol
_atom_site_fract_x
_atom_site_fract_y
_atom_site_fract_z
Zn1	Zn	-0.354315	-1.200214	-0.312594
Zn2	Zn	0.145685	-0.700214	0.187406
Zn3	Zn	-0.249561	-1.200160	-0.443842
Zn4	Zn	0.250439	-0.700160	0.056158
Zn5	Zn	-0.249552	-1.068934	-0.312595
Zn6	Zn	0.250448	-0.568934	0.187405
Zn7	Zn	-0.354301	-1.068965	-0.443823
Zn8	Zn	0.145699	-0.568965	0.056177
O9	O	-0.301932	-1.134568	-0.378213
O10	O	0.198068	-0.634568	0.121787
O11	O	-0.340429	-1.310054	-0.330013
O12	O	0.159571	-0.810054	0.169987
O13	O	-0.161882	-1.182718	-0.426441
O14	O	0.338118	-0.682718	0.073559
O15	O	-0.263451	-1.086359	-0.202748
O16	O	0.236549	-0.586359	0.297252
O17	O	-0.263466	-1.310014	-0.426440
O18	O	0.236534	-0.810014	0.073560
O19	O	-0.340420	-1.182809	-0.202747
O20	O	0.159580	-0.682809	0.297253
O21	O	-0.161875	-1.086307	-0.330014
O22	O	0.338125	-0.586307	0.169986
O23	O	-0.263437	-0.959091	-0.329995
O24	O	0.236563	-0.459091	0.170005
O25	O	-0.441981	-1.086410	-0.426406
O26	O	0.058019	-0.586410	0.073594
O27	O	-0.340396	-0.959114	-0.426407
O28	O	0.159604	-0.459114	0.073593
O29	O	-0.441991	-1.182838	-0.329993
O30	O	0.058009	-0.682838	0.170007
O31	O	-0.263452	-1.182747	-0.553687
O32	O	0.236548	-0.682747	-0.053687
O33	O	-0.340405	-1.086358	-0.553672
O34	O	0.159595	-0.586358	-0.053672
C35	C	-0.301915	-0.930620	-0.378199
C36	C	0.198085	-0.430620	0.121801
C37	C	-0.301922	-0.843371	-0.378212
C38	C	0.198078	-0.343371	0.121788
C39	C	-0.465355	-1.134633	-0.378198
C40	C	0.034645	-0.634633	0.121802
C41	C	-0.534997	-1.134661	-0.378191
C42	C	-0.034997	-0.634661	0.121809
C43	C	-0.301942	-1.134572	-0.582161
C44	C	0.198058	-0.634572	-0.082161
C45	C	-0.301967	-1.134645	-0.669411
C46	C	0.198033	-0.634645	-0.169411
C47	C	-0.567716	-1.184869	-0.327987
C48	C	-0.067716	-0.684869	0.172013
C49	C	-0.633152	-1.184868	-0.327953
C50	C	-0.133152	-0.684868	0.172047
C51	C	-0.665865	-1.134667	-0.378137
C52	C	-0.165865	-0.634667	0.121863
C53	C	-0.633138	-1.084449	-0.428345
C54	C	-0.133138	-0.584449	0.071655
C55	C	-0.567704	-1.084446	-0.428372
C56	C	-0.067704	-0.584446	0.071628
C57	C	-0.769543	-1.128470	-0.448817
C58	C	-0.269543	-0.628470	0.051183
C59	C	-0.834976	-1.128479	-0.448792
C60	C	-0.334976	-0.628479	0.051208
C61	C	-0.867686	-1.134672	-0.378054
C62	C	-0.367686	-0.634672	0.121946
C63	C	-0.834955	-1.140873	-0.307340
C64	C	-0.334955	-0.640873	0.192660
C65	C	-0.769521	-1.140870	-0.307367
C66	C	-0.269521	-0.640870	0.192633
C67	C	-0.736817	-1.134665	-0.378114
C68	C	-0.236817	-0.634665	0.121886
C69	C	-0.971358	-1.184882	-0.327809
C70	C	-0.471358	-0.684882	0.172191
C71	C	-1.036795	-1.184875	-0.327774
C72	C	-0.536795	-0.684875	0.172226
C73	C	-1.036779	-1.084461	-0.428174
C74	C	-0.536779	-0.584461	0.071826
C75	C	-0.971344	-1.084463	-0.428202
C76	C	-0.471344	-0.584463	0.071798
C77	C	-0.938637	-1.134678	-0.378021
C78	C	-0.438637	-0.634678	0.121979
C79	C	-0.139144	-1.134549	-0.378173
C80	C	0.360856	-0.634549	0.121827
C81	C	-0.069504	-1.134673	-0.377958
C82	C	0.430496	-0.634673	0.122042
C83	C	-0.301950	-1.339313	-0.378228
C84	C	0.198050	-0.839313	0.121772
C85	C	-0.301957	-1.426562	-0.378235
C86	C	0.198043	-0.926562	0.121765
C87	C	-0.341930	-0.802413	-0.428490
C88	C	0.158070	-0.302413	0.071510
C89	C	-0.341940	-0.720432	-0.428491
C90	C	0.158060	-0.220432	0.071509
C91	C	-0.301939	-0.679411	-0.378219
C92	C	0.198061	-0.179411	0.121781
C93	C	-0.261929	-0.720375	-0.327936
C94	C	0.238071	-0.220375	0.172064
C95	C	-0.261922	-0.802354	-0.327931
C96	C	0.238078	-0.302354	0.172069
C97	C	-0.261944	-0.549505	-0.327951
C98	C	0.238056	-0.049505	0.172049
C99	C	-0.261949	-0.467520	-0.327957
C100	C	0.238051	0.032480	0.172043
C101	C	-0.341962	-0.467583	-0.428512
C102	C	0.158038	0.032417	0.071488
C103	C	-0.341955	-0.549562	-0.428507
C104	C	0.158045	-0.049562	0.071493
C105	C	-0.301945	-0.590520	-0.378225
C106	C	0.198055	-0.090520	0.121775
C107	C	-0.301936	-1.134587	-0.173469
C108	C	0.198064	-0.634587	0.326531
C109	C	-0.301938	-1.134594	-0.086219
C110	C	0.198062	-0.634594	0.413781
C111	C	-0.261866	-1.084384	-0.045228
C112	C	0.238134	-0.584384	0.454772
C113	C	-0.261874	-1.084390	0.036752
C114	C	0.238126	-0.584390	0.536752
C115	C	-0.301951	-1.134611	0.077740
C116	C	0.198049	-0.634611	0.577740
C117	C	-0.342027	-1.184823	0.036743
C118	C	0.157973	-0.684823	0.536743
C119	C	-0.342022	-1.184812	-0.045236
C120	C	0.157978	-0.684812	0.454764
C121	C	-0.342034	-1.184843	0.207613
C122	C	0.157966	-0.684843	0.707613
C123	C	-0.342038	-1.184855	0.289598
C124	C	0.157962	-0.684855	0.789598
C125	C	-0.261886	-1.084421	0.289601
C126	C	0.238114	-0.584421	0.789601
C127	C	-0.261881	-1.084410	0.207622
C128	C	0.238119	-0.584410	0.707622
C129	C	-0.301956	-1.134624	0.166631
C130	C	0.198044	-0.634624	0.666631
H131	H	-0.541090	-1.225757	-0.287124
H132	H	-0.041090	-0.725757	0.212876
H133	H	-0.861586	-1.145918	-0.249739
H134	H	-0.361586	-0.645918	0.250261
Cl135	Cl	-0.392270	-0.416094	-0.491713
Cl136	Cl	0.107730	0.083906	0.008287
Cl137	Cl	-0.392400	-1.247935	-0.096768
Cl138	Cl	0.107600	-0.747935	0.403232
Cl139	Cl	-0.876117	-1.120690	-0.537688
Cl140	Cl	-0.376117	-0.620690	-0.037688
H141	H	-0.374502	-0.835806	-0.469430
H142	H	0.125498	-0.335806	0.030570
Cl143	Cl	-0.930209	-1.021344	-0.491323
Cl144	Cl	-0.430209	-0.521344	0.008677
H145	H	-0.742916	-1.123217	-0.506405
H146	H	-0.242916	-0.623217	-0.006405
H147	H	-0.659797	-1.225752	-0.287066
H148	H	-0.159797	-0.725752	0.212934
H149	H	-0.374518	-0.687088	-0.469433
H150	H	0.125482	-0.187088	0.030567
Cl151	Cl	-0.728375	-1.148660	-0.218474
Cl152	Cl	-0.228375	-0.648660	0.281526
Cl153	Cl	-1.077928	-1.248012	-0.264666
Cl154	Cl	-0.577928	-0.748012	0.235334
Cl155	Cl	-0.211658	-0.415952	-0.264760
Cl156	Cl	0.288342	0.084048	0.235240
H157	H	-0.229368	-0.582851	-0.286999
H158	H	0.270632	-0.082851	0.213001
Cl159	Cl	-1.077899	-1.021343	-0.491256
Cl160	Cl	-0.577899	-0.521343	0.008744
H161	H	-0.659777	-1.043573	-0.469203
H162	H	-0.159777	-0.543573	0.030797
Cl163	Cl	-0.211478	-1.021250	-0.096748
Cl164	Cl	0.288522	-0.521250	0.403252
H165	H	-0.541064	-1.043557	-0.469253
H166	H	-0.041064	-0.543557	0.030747
H167	H	-0.374525	-0.582959	-0.469448
H168	H	0.125475	-0.082959	0.030552
Cl169	Cl	-0.211644	-0.668806	-0.264730
Cl170	Cl	0.288356	-0.168806	0.235270
H171	H	-0.944727	-1.225765	-0.286945
H172	H	-0.444727	-0.725765	0.213055
Cl173	Cl	-0.392416	-1.247950	0.088271
Cl174	Cl	0.107584	-0.747950	0.588271
Cl175	Cl	-0.211626	-0.853844	-0.264720
Cl176	Cl	0.288374	-0.353844	0.235280
H177	H	-0.229245	-1.043505	0.070127
H178	H	0.270755	-0.543505	0.570127
H179	H	-0.229244	-1.043521	0.174252
H180	H	0.270756	-0.543521	0.674252
H181	H	-0.229256	-1.043535	0.322981
H182	H	0.270744	-0.543535	0.822981
H183	H	-0.374674	-1.225748	0.322966
H184	H	0.125326	-0.725748	0.822966
Cl185	Cl	-0.392413	-1.247971	0.156083
Cl186	Cl	0.107587	-0.747971	0.656083
