data_functionalizedCrystal
_audit_creation_method	'MofGen! by Chris Wilmer'
_symmetry_space_group_name_H-M	'P1'
_symmetry_Int_Tables_number	1
_symmetry_cell_setting	triclinic
loop_
_symmetry_equiv_pos_as_xyz
  x,y,z
_cell_length_a	15.944551
_cell_length_b	15.944551
_cell_length_c	9.730223
_cell_angle_alpha	89.997716
_cell_angle_beta	90.004286
_cell_angle_gamma	83.498738
loop_
_atom_site_label
_atom_site_type_symbol
_atom_site_fract_x
_atom_site_fract_y
_atom_site_fract_z
O1	O	1.114519	0.108328	-0.114150
O2	O	0.869970	0.121685	-0.114184
O3	O	0.998923	-0.007268	-0.114153
O4	O	0.985566	0.237281	-0.114180
O5	O	0.998921	-0.007265	0.114426
O6	O	0.869968	0.121688	0.114396
O7	O	1.114518	0.108332	0.114430
Zn8	Zn	0.992243	0.115010	0.150705
Zn9	Zn	0.992245	0.115006	-0.150459
O10	O	0.985565	0.237285	0.114400
C11	C	0.838675	0.121132	0.000102
C12	C	0.745429	0.119470	0.000089
C13	C	0.998367	-0.038561	0.000137
C14	C	0.996705	-0.131807	0.000137
C15	C	0.530572	0.035565	0.000125
C16	C	0.469553	0.074526	-0.112582
C17	C	0.574703	0.116462	0.000105
C18	C	0.469574	0.074548	0.112780
C19	C	0.409790	0.113551	0.000127
C20	C	0.514912	0.155445	-0.112694
C21	C	0.514939	0.155456	0.112769
C22	C	0.453937	0.194476	0.000035
C23	C	0.669705	0.118137	0.000091
C24	C	0.314789	0.111883	0.000131
C25	C	0.912801	-0.346663	0.000106
C26	C	0.951762	-0.407679	0.112816
C27	C	0.993698	-0.302533	0.000126
C28	C	0.951783	-0.407666	-0.112546
C29	C	0.990787	-0.467445	0.000110
C30	C	1.032682	-0.362320	0.112928
C31	C	1.032691	-0.362300	-0.112535
C32	C	1.071711	-0.423298	0.000202
C33	C	0.995372	-0.207530	0.000137
C34	C	0.989119	-0.562446	0.000109
C35	C	1.145813	0.108885	0.000142
C36	C	1.239059	0.110547	0.000145
C37	C	0.986120	0.268577	0.000107
C38	C	0.987782	0.361823	0.000097
N39	N	0.992248	0.115013	0.356242
N40	N	0.992247	0.114997	-0.355995
C41	C	1.049362	0.057932	0.428181
C42	C	1.049360	0.057921	0.572064
C43	C	0.935126	0.172081	0.572055
C44	C	0.935124	0.172086	0.428175
C45	C	1.115317	-0.007975	0.428187
C46	C	1.115315	-0.007985	0.572070
H47	H	0.563905	-0.031573	-0.000008
H48	H	0.845652	-0.313356	0.000209
N49	N	0.873518	0.233633	0.649649
H50	H	0.905610	0.270844	0.709355
H51	H	0.837349	0.269738	0.582154
H52	H	0.449443	0.040308	-0.207860
H53	H	0.420779	0.261683	-0.000035
N54	N	0.541372	0.200728	-0.239059
H55	H	0.570086	0.251279	-0.210489
H56	H	0.581782	0.161050	-0.295053
N57	N	1.195871	0.018415	0.369072
H58	H	1.192929	0.017455	0.265403
H59	H	1.203171	0.077380	0.401199
H60	H	1.095435	-0.068824	0.616689
N61	N	1.097063	-0.093332	0.376445
H62	H	1.088912	-0.131426	0.457134
H63	H	1.044077	-0.086527	0.318734
N64	N	1.200652	0.010338	0.623824
H65	H	1.238733	0.018527	0.543140
H66	H	1.193804	0.063320	0.681532
H67	H	0.535070	0.189645	0.208052
H68	H	0.449487	0.040318	0.208061
H69	H	0.917545	-0.427786	0.208093
N70	N	1.077977	-0.335637	-0.238746
H71	H	1.038512	-0.294714	-0.294230
H72	H	1.128815	-0.307459	-0.209923
N73	N	1.077971	-0.335850	0.239285
H74	H	1.078789	-0.272605	0.238533
H75	H	1.047619	-0.352793	0.324232
H76	H	1.138919	-0.456457	0.000275
H77	H	0.917557	-0.427744	-0.207840
N78	N	0.873508	0.233637	0.350580
H79	H	0.837322	0.269789	0.417985
H80	H	0.905650	0.270802	0.290881
