data_functionalizedCrystal
_audit_creation_method	'MofGen! by Chris Wilmer'
_symmetry_space_group_name_H-M	'P1'
_symmetry_Int_Tables_number	1
_symmetry_cell_setting	triclinic
loop_
_symmetry_equiv_pos_as_xyz
  x,y,z
_cell_length_a	16.120484
_cell_length_b	12.827893
_cell_length_c	12.827885
_cell_angle_alpha	89.980728
_cell_angle_beta	92.863928
_cell_angle_gamma	92.925431
loop_
_atom_site_label
_atom_site_type_symbol
_atom_site_fract_x
_atom_site_fract_y
_atom_site_fract_z
Zn1	Zn	-0.331866	1.576504	-0.611895
Zn2	Zn	-0.471301	1.567505	-0.445998
Zn3	Zn	-0.331907	1.401742	-0.437171
Zn4	Zn	-0.471239	1.392841	-0.620694
O5	O	-0.401579	1.484648	-0.528940
O6	O	-0.350372	1.721545	-0.589900
O7	O	-0.452853	1.545475	-0.298594
O8	O	-0.215236	1.432416	-0.452972
O9	O	-0.452814	1.714934	-0.468017
O10	O	-0.215206	1.560812	-0.581341
O11	O	-0.350441	1.423690	-0.292109
O12	O	-0.350381	1.254326	-0.461505
O13	O	-0.452708	1.417245	-0.765761
O14	O	-0.452748	1.247787	-0.596338
O15	O	-0.350311	1.552181	-0.759296
O16	O	-0.587959	1.536844	-0.476549
O17	O	-0.587913	1.408520	-0.604897
C18	C	-0.401562	1.213139	-0.528919
C19	C	-0.401576	1.096985	-0.528936
C20	C	-0.452309	1.041987	-0.595563
C21	C	-0.452324	0.921936	-0.595582
C22	C	-0.618186	1.470768	-0.542658
C23	C	-0.710851	1.464925	-0.548562
C24	C	-0.880512	1.454265	-0.559362
C25	C	-0.921804	1.515219	-0.498534
C26	C	-1.016209	1.509287	-0.504544
C27	C	-0.786099	1.460195	-0.553355
C28	C	-0.184125	1.498611	-0.515191
C29	C	-0.091460	1.504561	-0.509332
C30	C	-0.401498	1.484724	-0.801505
C31	C	-0.401464	1.484757	-0.917656
C32	C	-0.401595	1.757217	-0.528962
C33	C	-0.401602	1.873370	-0.528971
C34	C	-0.350785	1.551535	-0.966241
C35	C	-0.350749	1.551570	-1.086289
C36	C	-0.401598	1.484636	-0.257431
C37	C	-0.401397	1.484821	-0.141266
H38	H	-0.495761	0.874651	-0.652621
Br39	Br	-0.862558	1.609620	-0.404211
Br40	Br	-0.329208	0.952167	-0.433880
H41	H	-0.916059	1.397630	-0.615947
Br42	Br	-0.278484	1.646757	-0.887448
H43	H	-0.444791	1.427651	-1.099479
H44	H	-0.444820	1.427605	-0.964935
Br45	Br	-0.278434	1.646874	-1.155942
H46	H	-0.495730	1.083779	-0.652594
H47	H	-0.358148	1.055194	-0.471913
