data_functionalizedCrystal
_audit_creation_method	'MofGen! by Chris Wilmer'
_symmetry_space_group_name_H-M	'P1'
_symmetry_Int_Tables_number	1
_symmetry_cell_setting	triclinic
loop_
_symmetry_equiv_pos_as_xyz
  x,y,z
_cell_length_a	6.817900
_cell_length_b	9.514063
_cell_length_c	11.452834
_cell_angle_alpha	78.384819
_cell_angle_beta	108.697278
_cell_angle_gamma	118.843314
loop_
_atom_site_label
_atom_site_type_symbol
_atom_site_fract_x
_atom_site_fract_y
_atom_site_fract_z
V1	V	-4.097416	-0.115674	-0.381151
O2	O	-3.996451	0.114905	-0.372904
O3	O	-4.132252	-0.334527	-0.379497
O4	O	-4.041597	-0.065915	-0.546949
O5	O	-4.087733	-0.155566	-0.204293
V6	V	-4.571220	-0.093763	-0.359881
O7	O	-4.379994	-0.163737	-0.427807
O8	O	-4.738839	-0.045700	-0.313225
O9	O	-4.313178	0.125090	-0.361535
O10	O	-4.789582	-0.324342	-0.368128
O11	O	-4.698300	-0.053870	-0.536739
O12	O	-4.403832	-0.143522	-0.194083
C13	C	-3.997742	-0.389378	-0.373730
C14	C	-4.107461	-0.567984	-0.373483
C15	C	-3.882101	-0.046735	-0.587330
C16	C	-3.918297	-0.007500	-0.722877
C17	C	-4.025293	-0.124984	-0.800465
C18	C	-4.062706	-0.084435	-0.940560
C19	C	-4.111033	0.179932	-0.367299
C20	C	-3.980552	0.358539	-0.367554
C21	C	-4.226673	-0.162709	-0.153695
C22	C	-4.169712	-0.201936	-0.018147
H23	H	-3.787945	-0.567720	-0.362664
H24	H	-4.233631	-0.332547	-0.980864
O25	O	-4.101306	-0.280706	-0.755781
C26	C	-4.047065	-0.286525	-0.625851
H27	H	-3.896035	-0.167252	-0.590891
H28	H	-4.204673	-0.309179	-0.596048
C29	C	-4.164427	-0.569894	-0.614345
C30	C	-3.978916	-0.423405	-0.571406
H31	H	-4.122400	-0.654332	-0.580760
H32	H	-4.200979	-0.565976	-0.701882
H33	H	-4.295750	-0.588750	-0.589507
H34	H	-3.847607	-0.404542	-0.596258
H35	H	-3.942340	-0.427323	-0.483872
O36	O	-3.986508	0.071302	-0.985233
C37	C	-4.040862	0.077117	-1.115166
H38	H	-4.063431	-0.037801	-1.145790
H39	H	-4.208792	0.088733	-1.155959
C40	C	-3.815182	0.364159	-1.123015
C41	C	-3.842882	0.223020	-1.160627
H42	H	-3.693066	0.454162	-1.151059
H43	H	-3.778569	0.360243	-1.035477
H44	H	-3.955137	0.373817	-1.157012
H45	H	-3.702939	0.213354	-1.126617
H46	H	-3.879467	0.226938	-1.248161
H47	H	-3.854404	0.123101	-0.760169
H48	H	-4.300046	-0.641719	-0.378354
