data_functionalizedCrystal
_audit_creation_method	'MofGen! by Chris Wilmer'
_symmetry_space_group_name_H-M	'P1'
_symmetry_Int_Tables_number	1
_symmetry_cell_setting	triclinic
loop_
_symmetry_equiv_pos_as_xyz
  x,y,z
_cell_length_a	14.044220
_cell_length_b	10.654553
_cell_length_c	13.101018
_cell_angle_alpha	93.395422
_cell_angle_beta	86.335600
_cell_angle_gamma	88.837528
loop_
_atom_site_label
_atom_site_type_symbol
_atom_site_fract_x
_atom_site_fract_y
_atom_site_fract_z
O1	O	0.128059	1.687565	0.085230
O2	O	0.628059	2.187565	0.585230
O3	O	0.140749	1.323363	0.085229
O4	O	0.640749	1.823363	0.585229
O5	O	-0.003616	1.499997	0.085219
O6	O	0.496384	1.999997	0.585219
O7	O	0.272424	1.510932	0.085240
O8	O	0.772424	2.010932	0.585240
O9	O	0.006751	1.487308	-0.085210
O10	O	0.506751	1.987308	0.414790
O11	O	0.151116	1.310675	-0.085200
O12	O	0.651116	1.810675	0.414800
O13	O	0.138426	1.674877	-0.085200
O14	O	0.638426	2.174877	0.414800
Zn15	Zn	0.146417	1.490761	-0.112259
Zn16	Zn	0.646417	1.990761	0.387741
Zn17	Zn	0.132758	1.507479	0.112289
Zn18	Zn	0.632758	2.007479	0.612289
O19	O	0.282791	1.498243	-0.085190
O20	O	0.782791	1.998243	0.414810
C21	C	0.145001	1.270127	0.000015
C22	C	0.645001	1.770127	0.500015
C23	C	0.142211	1.130404	0.000014
C24	C	0.642211	1.630404	0.500014
C25	C	0.143924	0.926552	-0.092880
C26	C	0.643924	1.426552	0.407120
C27	C	0.146551	1.057836	-0.092886
C28	C	0.646551	1.557836	0.407114
C29	C	0.135253	1.071680	0.092926
C30	C	0.635253	1.571680	0.592926
C31	C	0.132633	0.940398	0.092930
C32	C	0.632633	1.440398	0.592930
C33	C	0.150442	0.918561	-0.200157
C34	C	0.650442	1.418561	0.299843
C35	C	0.153069	1.049845	-0.200163
C36	C	0.653069	1.549845	0.299837
C37	C	-0.033778	1.488867	0.000004
C38	C	0.466222	1.988867	0.500004
C39	C	-0.139098	1.474591	0.000003
C40	C	0.360902	1.974591	0.500003
C41	C	-0.331932	1.448493	0.000018
C42	C	0.168068	1.948493	0.500018
C43	C	-0.388899	1.549742	0.000021
C44	C	0.111101	2.049742	0.500021
C45	C	-0.496198	1.535221	0.000029
C46	C	0.003802	2.035221	0.500029
C47	C	-0.224622	1.463013	0.000009
C48	C	0.275378	1.963013	0.500009
C49	C	0.312953	1.509373	0.000028
C50	C	0.812953	2.009373	0.500028
C51	C	0.418273	1.523650	0.000036
C52	C	0.918273	2.023650	0.500036
C53	C	0.134175	1.728113	0.000017
C54	C	0.634175	2.228113	0.500017
C55	C	0.136964	1.867837	0.000024
C56	C	0.636964	2.367837	0.500024
N57	N	0.155739	1.479361	-0.265508
N58	N	0.655739	1.979361	0.234492
C59	C	0.110743	1.534391	-0.525420
C60	C	0.610743	2.034391	-0.025420
C61	C	0.168422	1.463862	-0.474544
C62	C	0.668422	1.963862	0.025456
C63	C	0.161363	1.472488	-0.358225
C64	C	0.661363	1.972488	0.141775
C65	C	0.117801	1.525766	-0.641749
C66	C	0.617801	2.025766	-0.141749
N67	N	0.123429	1.518888	0.265537
N68	N	0.623429	2.018888	0.765537
H69	H	0.126978	0.892597	0.168582
H70	H	0.626978	1.392597	0.668582
H71	H	0.131729	1.130774	0.168567
H72	H	0.631729	1.630774	0.668567
Cl73	Cl	0.255514	0.852528	-0.263741
Cl74	Cl	0.755514	1.352528	0.236259
Cl75	Cl	0.046834	0.858316	-0.251708
Cl76	Cl	0.546834	1.358316	0.248292
Cl77	Cl	0.263007	1.102410	-0.251552
Cl78	Cl	0.763007	1.602410	0.248448
Cl79	Cl	0.055728	1.106408	-0.263756
Cl80	Cl	0.555728	1.606408	0.236244
H81	H	-0.357090	1.647334	0.000090
H82	H	0.142910	2.147334	0.500090
Cl83	Cl	-0.381047	1.297835	0.000023
Cl84	Cl	0.118953	1.797835	0.500023
H85	H	0.223103	1.397003	-0.518345
H86	H	0.723103	1.897003	-0.018345
Cl87	Cl	0.026327	1.637617	-0.457801
Cl88	Cl	0.526327	2.137617	0.042199
