data_functionalizedCrystal
_audit_creation_method	'MofGen! by Chris Wilmer'
_symmetry_space_group_name_H-M	'P1'
_symmetry_Int_Tables_number	1
_symmetry_cell_setting	triclinic
loop_
_symmetry_equiv_pos_as_xyz
  x,y,z
_cell_length_a	6.817900
_cell_length_b	17.078472
_cell_length_c	12.200875
_cell_angle_alpha	95.444452
_cell_angle_beta	107.143593
_cell_angle_gamma	99.306020
loop_
_atom_site_label
_atom_site_type_symbol
_atom_site_fract_x
_atom_site_fract_y
_atom_site_fract_z
V1	V	-4.047438	-0.109947	-0.357546
O2	O	-4.056007	0.005098	-0.350858
O3	O	-3.978184	-0.217829	-0.354986
O4	O	-4.017467	-0.108338	-0.513536
O5	O	-4.016453	-0.105151	-0.191211
V6	V	-4.531380	-0.096177	-0.337664
O7	O	-4.307777	-0.140154	-0.401156
O8	O	-4.721239	-0.065971	-0.294054
O9	O	-4.377428	0.011704	-0.340224
O10	O	-4.640208	-0.211222	-0.344352
O11	O	-4.679762	-0.100973	-0.503999
O12	O	-4.338145	-0.097787	-0.181674
C13	C	-3.817515	-0.244126	-0.349316
C14	C	-3.842302	-0.332321	-0.348264
C15	C	-3.867624	-0.104457	-0.551560
C16	C	-3.924264	-0.103855	-0.679082
C17	C	-4.035951	-0.377798	-0.353486
C18	C	-4.059232	-0.460668	-0.352504
C19	C	-3.888857	-0.498056	-0.346290
C20	C	-3.695194	-0.452573	-0.341071
C21	C	-3.671920	-0.369706	-0.342061
C22	C	-3.938952	-0.745459	-0.342722
C23	C	-3.962241	-0.828331	-0.341728
C24	C	-4.326278	-0.836420	-0.353164
C25	C	-4.302983	-0.753551	-0.354147
C26	C	-4.109326	-0.708075	-0.348933
N27	N	-3.912648	-0.582761	-0.345282
N28	N	-4.085542	-0.623373	-0.349949
C29	C	-4.027925	-0.102753	-0.912558
C30	C	-3.970233	-0.103366	-0.782635
C31	C	-4.201437	0.037997	-0.345890
C32	C	-4.155890	0.126191	-0.346951
C33	C	-4.151329	-0.101670	-0.143644
C34	C	-4.073927	-0.102268	-0.016121
H35	H	-4.174688	-0.347362	-0.358535
C36	C	-3.461700	-0.320208	-0.336212
C37	C	-3.390261	-0.261640	-0.237327
C38	C	-3.196627	-0.216023	-0.231914
H39	H	-3.363338	-0.354241	-0.332303
H40	H	-3.477185	-0.294947	-0.403524
H41	H	-3.374764	-0.286900	-0.170031
H42	H	-3.488567	-0.227590	-0.241213
H43	H	-3.212112	-0.190762	-0.299226
H44	H	-3.098282	-0.250061	-0.228009
H45	H	-3.148140	-0.176274	-0.164827
C46	C	-4.269272	-0.510109	-0.357955
C47	C	-4.245751	-0.547182	-0.258586
C48	C	-4.439195	-0.592736	-0.263564
H49	H	-4.367545	-0.476052	-0.361727
H50	H	-4.318160	-0.549934	-0.424964
H51	H	-4.196891	-0.507362	-0.191596
H52	H	-4.147514	-0.581252	-0.254795
H53	H	-4.488084	-0.632560	-0.330573
H54	H	-4.537454	-0.558673	-0.267338
H55	H	-4.423259	-0.617901	-0.196150
C56	C	-4.536324	-0.885874	-0.358649
C57	C	-4.512856	-0.922958	-0.259293
C58	C	-4.706309	-0.968530	-0.264317
H59	H	-4.634624	-0.851827	-0.362438
H60	H	-4.585157	-0.925693	-0.425663
H61	H	-4.464052	-0.883145	-0.192296
H62	H	-4.414593	-0.957019	-0.255484
H63	H	-4.755142	-1.008348	-0.331332
H64	H	-4.804594	-0.934476	-0.268109
H65	H	-4.690408	-0.993702	-0.196912
C66	C	-3.728861	-0.696070	-0.337278
C67	C	-3.752291	-0.659016	-0.436659
C68	C	-3.558784	-0.613515	-0.431685
H69	H	-3.679884	-0.656235	-0.270301
H70	H	-3.630683	-0.730184	-0.333487
H71	H	-3.850435	-0.624905	-0.440438
H72	H	-3.801236	-0.698833	-0.503651
H73	H	-3.460606	-0.647629	-0.427894
H74	H	-3.509822	-0.573684	-0.364704
H75	H	-3.574651	-0.588375	-0.499117
H76	H	-4.441729	-0.723116	-0.359215
H77	H	-3.823503	-0.858773	-0.336695
H78	H	-3.556477	-0.483022	-0.336018
