data_functionalizedCrystal
_audit_creation_method	'MofGen! by Chris Wilmer'
_symmetry_space_group_name_H-M	'P1'
_symmetry_Int_Tables_number	1
_symmetry_cell_setting	triclinic
loop_
_symmetry_equiv_pos_as_xyz
  x,y,z
_cell_length_a	19.805407
_cell_length_b	25.639240
_cell_length_c	19.805399
_cell_angle_alpha	89.964092
_cell_angle_beta	89.982197
_cell_angle_gamma	90.030074
loop_
_atom_site_label
_atom_site_type_symbol
_atom_site_fract_x
_atom_site_fract_y
_atom_site_fract_z
Zn1	Zn	1.034706	-0.208200	-0.382648
Zn2	Zn	1.534706	0.291800	0.117352
Zn3	Zn	1.034608	-0.295634	-0.269444
Zn4	Zn	1.534608	0.204366	0.230556
Zn5	Zn	0.921520	-0.208211	-0.269477
Zn6	Zn	1.421520	0.291789	0.230523
Zn7	Zn	0.921471	-0.295602	-0.382594
Zn8	Zn	1.421471	0.204398	0.117406
O9	O	0.978076	-0.251912	-0.326041
O10	O	1.478076	0.248088	0.173959
O11	O	1.129409	-0.219808	-0.367641
O12	O	1.629409	0.280192	0.132359
O13	O	1.019586	-0.284055	-0.174732
O14	O	1.519586	0.215945	0.325268
O15	O	0.936596	-0.135044	-0.284526
O16	O	1.436596	0.364956	0.215474
O17	O	1.129338	-0.284045	-0.284470
O18	O	1.629338	0.215955	0.215530
O19	O	1.019753	-0.135037	-0.367672
O20	O	1.519753	0.364963	0.132328
O21	O	0.936501	-0.219825	-0.174756
O22	O	1.436501	0.280175	0.325244
O23	O	0.826797	-0.219794	-0.284473
O24	O	1.326797	0.280206	0.215527
O25	O	0.936513	-0.283991	-0.477318
O26	O	1.436513	0.216009	0.022682
O27	O	0.826761	-0.284001	-0.367580
O28	O	1.326761	0.215999	0.132420
O29	O	1.019705	-0.219777	-0.477358
O30	O	1.519705	0.280223	0.022642
O31	O	1.019539	-0.368795	-0.284417
O32	O	1.519539	0.131205	0.215583
O33	O	0.936418	-0.368772	-0.367548
O34	O	1.436418	0.131228	0.132452
C35	C	0.802220	-0.251896	-0.326024
C36	C	1.302220	0.248104	0.173976
C37	C	0.726988	-0.251901	-0.326033
C38	C	1.226988	0.248099	0.173967
C39	C	0.977981	-0.387755	-0.325988
C40	C	1.477981	0.112245	0.174012
C41	C	0.978002	-0.445869	-0.325988
C42	C	1.478002	0.054131	0.174012
C43	C	0.691682	-0.218512	-0.369406
C44	C	1.191682	0.281488	0.130594
C45	C	0.620994	-0.218515	-0.369409
C46	C	1.120994	0.281485	0.130591
C47	C	0.585613	-0.251910	-0.326041
C48	C	1.085613	0.248090	0.173959
C49	C	0.620924	-0.285300	-0.282664
C50	C	1.120924	0.214700	0.217336
C51	C	0.691611	-0.285295	-0.282658
C52	C	1.191611	0.214705	0.217342
C53	C	0.335851	-0.285324	-0.282684
C54	C	0.835851	0.214676	0.217316
C55	C	0.265159	-0.285328	-0.282695
C56	C	0.765159	0.214672	0.217305
C57	C	0.265233	-0.218544	-0.369435
C58	C	0.765233	0.281456	0.130565
C59	C	0.335921	-0.218538	-0.369430
C60	C	0.835921	0.281462	0.130570
C61	C	0.371225	-0.251927	-0.326050
C62	C	0.871225	0.248073	0.173950
C63	C	0.447874	-0.251923	-0.326046
C64	C	0.947874	0.248077	0.173954
C65	C	0.508966	-0.251917	-0.326048
C66	C	1.008966	0.248083	0.173952
C67	C	1.021398	-0.806189	-0.369413
C68	C	1.521398	-0.306189	0.130587
C69	C	1.021418	-0.860793	-0.369427
C70	C	1.521418	-0.360793	0.130573
O71	O	1.058201	-0.888994	-0.406295
O72	O	1.558201	-0.388994	0.093705
N73	N	0.978170	-0.888151	-0.326106
N74	N	1.478170	-0.388151	0.173894
C75	C	0.934895	-0.860901	-0.282773
C76	C	1.434895	-0.360901	0.217227
O77	O	0.898112	-0.889185	-0.245927
O78	O	1.398112	-0.389185	0.254073
C79	C	0.934873	-0.806298	-0.282764
C80	C	1.434873	-0.306298	0.217236
C81	C	0.978128	-0.778943	-0.326083
C82	C	1.478128	-0.278943	0.173917
C83	C	1.064649	-0.778834	-0.412729
C84	C	1.564649	-0.278834	0.087271
C85	C	1.064629	-0.724234	-0.412715
C86	C	1.564629	-0.224234	0.087285
C87	C	1.021359	-0.696988	-0.369384
C88	C	1.521359	-0.196988	0.130616
C89	C	0.978108	-0.724343	-0.326068
C90	C	1.478108	-0.224343	0.173932
C91	C	0.891595	-0.779049	-0.239435
C92	C	1.391595	-0.279049	0.260565
C93	C	0.891575	-0.724442	-0.239429
C94	C	1.391575	-0.224442	0.260571
C95	C	0.934830	-0.697088	-0.282748
C96	C	1.434830	-0.197088	0.217252
C97	C	0.934819	-0.642497	-0.282722
C98	C	1.434819	-0.142497	0.217278
N99	N	0.978066	-0.615139	-0.326043
N100	N	1.478066	-0.115139	0.173957
C101	C	1.021336	-0.642385	-0.369374
C102	C	1.521336	-0.142385	0.130626
C103	C	0.934946	-0.975572	-0.282798
C104	C	1.434946	-0.475572	0.217202
C105	C	0.934972	-1.030174	-0.282804
C106	C	1.434972	-0.530174	0.217196
C107	C	1.021493	-1.030063	-0.369459
C108	C	1.521493	-0.530063	0.130541
C109	C	1.021470	-0.975459	-0.369449
C110	C	1.521470	-0.475459	0.130551
C111	C	0.978193	-0.948214	-0.326119
C112	C	1.478193	-0.448214	0.173881
C113	C	1.021293	-0.527720	-0.369339
C114	C	1.521293	-0.027720	0.130661
C115	C	1.021272	-0.473114	-0.369318
C116	C	1.521272	0.026886	0.130682
C117	C	0.934748	-0.473231	-0.282666
C118	C	1.434748	0.026769	0.217334
C119	C	0.934772	-0.527831	-0.282684
C120	C	1.434772	-0.027831	0.217316
C121	C	0.978046	-0.555075	-0.326026
C122	C	1.478046	-0.055075	0.173974
O123	O	0.898053	-0.614261	-0.245875
O124	O	1.398053	-0.114261	0.254125
O125	O	1.058108	-0.614095	-0.406220
O126	O	1.558108	-0.114095	0.093780
C127	C	1.154619	-0.251929	-0.326058
C128	C	1.654619	0.248071	0.173942
C129	C	1.229851	-0.251936	-0.326065
C130	C	1.729851	0.248064	0.173935
C131	C	0.978114	-0.251879	-0.502584
C132	C	1.478114	0.248121	-0.002584
C133	C	0.978131	-0.251865	-0.577816
C134	C	1.478131	0.248135	-0.077816
C135	C	0.978191	-0.115539	-0.326109
C136	C	1.478191	0.384461	0.173891
C137	C	0.978240	-0.057425	-0.326138
C138	C	1.478240	0.442575	0.173862
C139	C	1.021450	-0.218427	-0.613182
C140	C	1.521450	0.281573	-0.113182
C141	C	1.021457	-0.218412	-0.683870
C142	C	1.521457	0.281588	-0.183870
C143	C	0.978147	-0.251838	-0.719191
C144	C	1.478147	0.248162	-0.219191
C145	C	0.934823	-0.285277	-0.683820
C146	C	1.434823	0.214723	-0.183820
C147	C	0.934813	-0.285289	-0.613133
C148	C	1.434813	0.214711	-0.113133
C149	C	0.934861	-0.285228	-0.968894
C150	C	1.434861	0.214772	-0.468894
C151	C	0.934876	-0.285215	-1.039586
C152	C	1.434876	0.214785	-0.539586
C153	C	1.021505	-0.218351	-1.039631
C154	C	1.521505	0.281649	-0.539631
C155	C	1.021495	-0.218363	-0.968944
C156	C	1.521495	0.281637	-0.468944
C157	C	0.978169	-0.251800	-0.933579
C158	C	1.478169	0.248200	-0.433579
C159	C	0.978161	-0.251816	-0.856930
C160	C	1.478161	0.248184	-0.356930
C161	C	0.978158	-0.251825	-0.795838
C162	C	1.478158	0.248175	-0.295838
C163	C	0.978078	-0.251907	-0.150185
C164	C	1.478078	0.248093	0.349815
C165	C	0.978193	-0.251774	-0.074953
C166	C	1.478193	0.248226	0.425047
H167	H	0.720484	-0.191319	-0.404723
H168	H	1.220484	0.308681	0.095277
H169	H	1.056765	-0.191146	-0.940189
H170	H	1.556765	0.308854	-0.440189
C171	C	0.887211	-0.322010	-0.929998
C172	C	1.387211	0.177990	-0.429998
H173	H	0.893399	-0.317229	-0.882840
H174	H	1.393399	0.182771	-0.382840
H175	H	0.897089	-0.357138	-0.941567
H176	H	1.397089	0.142862	-0.441567
H177	H	0.841740	-0.314349	-0.941582
H178	H	1.341740	0.185651	-0.441582
H179	H	0.592251	-0.191327	-0.404729
H180	H	1.092251	0.308673	0.095271
C181	C	0.844008	-0.809128	-0.191788
C182	C	1.344008	-0.309128	0.308212
H183	H	0.818233	-0.785073	-0.165991
H184	H	1.318233	-0.285073	0.334009
H185	H	0.869914	-0.830432	-0.162318
H186	H	1.369914	-0.330432	0.337682
H187	H	0.814506	-0.830428	-0.217664
H188	H	1.314506	-0.330428	0.282336
C189	C	1.112254	-0.808797	-0.460394
C190	C	1.612254	-0.308797	0.039606
H191	H	1.138009	-0.784677	-0.486181
H192	H	1.638009	-0.284677	0.013819
H193	H	1.086364	-0.830099	-0.489871
H194	H	1.586364	-0.330099	0.010129
H195	H	1.141775	-0.830090	-0.434527
H196	H	1.641775	-0.330090	0.065473
H197	H	1.099849	-0.701965	-0.447991
H198	H	1.599849	-0.201965	0.052009
C199	C	1.069124	-0.181644	-0.722773
C200	C	1.569124	0.318356	-0.222773
H201	H	1.062928	-0.186422	-0.769930
H202	H	1.562928	0.313578	-0.269930
H203	H	1.114587	-0.189315	-0.711186
H204	H	1.614587	0.310685	-0.211186
H205	H	1.059259	-0.146510	-0.711211
H206	H	1.559259	0.353490	-0.211211
C207	C	0.226396	-0.181812	-0.417147
C208	C	0.726396	0.318188	0.082853
H209	H	0.179230	-0.186592	-0.410936
H210	H	0.679230	0.313408	0.089064
H211	H	0.237994	-0.189509	-0.462603
H212	H	0.737994	0.310491	0.037397
H213	H	0.237999	-0.146670	-0.407325
H214	H	0.737999	0.353330	0.092675
C215	C	0.374680	-0.322054	-0.234976
C216	C	0.874680	0.177946	0.265024
H217	H	0.421847	-0.317266	-0.241176
H218	H	0.921847	0.182734	0.258824
H219	H	0.363079	-0.357193	-0.244797
H220	H	0.863079	0.142807	0.255203
H221	H	0.363080	-0.314354	-0.189517
H222	H	0.863080	0.185646	0.310483
H223	H	1.056692	-0.953190	-0.404723
H224	H	1.556692	-0.453190	0.095277
H225	H	1.056725	-1.052256	-0.404743
H226	H	1.556725	-0.552256	0.095257
C227	C	0.374836	-0.181802	-0.417131
C228	C	0.874836	0.318198	0.082869
H229	H	0.343684	-0.161913	-0.442959
H230	H	0.843684	0.338087	0.057041
H231	H	0.402414	-0.201828	-0.446570
H232	H	0.902414	0.298172	0.053430
H233	H	0.402411	-0.158992	-0.391287
H234	H	0.902411	0.341008	0.108713
H235	H	0.899706	-0.953392	-0.247508
H236	H	1.399706	-0.453392	0.252492
H237	H	1.056781	-0.191123	-1.068433
H238	H	1.556781	0.308877	-0.568433
C239	C	0.843971	-0.694474	-0.191765
C240	C	1.343971	-0.194474	0.308235
H241	H	0.850146	-0.658036	-0.197962
H242	H	1.350146	-0.158036	0.302038
H243	H	0.853903	-0.703446	-0.146299
H244	H	1.353903	-0.203446	0.353701
H245	H	0.798490	-0.703446	-0.201641
H246	H	1.298490	-0.203446	0.298359
H247	H	0.899531	-0.312512	-0.584339
H248	H	1.399531	0.187488	-0.084339
H249	H	0.899605	-0.312435	-1.068342
H250	H	1.399605	0.187565	-0.568342
C251	C	0.226240	-0.322061	-0.234984
C252	C	0.726240	0.177939	0.265016
H253	H	0.257390	-0.341941	-0.209142
H254	H	0.757390	0.158059	0.290858
H255	H	0.198663	-0.344871	-0.260818
H256	H	0.698663	0.155129	0.239182
H257	H	0.198665	-0.302025	-0.205548
H258	H	0.698665	0.197975	0.294452
H259	H	1.056720	-0.191210	-0.584428
H260	H	1.556720	0.308790	-0.084428
C261	C	0.887396	-1.060259	-0.235149
C262	C	1.387396	-0.560259	0.264851
H263	H	0.861622	-1.036207	-0.209347
H264	H	1.361622	-0.536207	0.290653
H265	H	0.913308	-1.081563	-0.205685
H266	H	1.413308	-0.581563	0.294315
H267	H	0.857891	-1.081559	-0.261023
H268	H	1.357891	-0.581559	0.238977
C269	C	0.582007	-0.322035	-0.234961
C270	C	1.082007	0.177965	0.265039
H271	H	0.534851	-0.317261	-0.241181
H272	H	1.034851	0.182739	0.258819
H273	H	0.593576	-0.314337	-0.189502
H274	H	1.093576	0.185663	0.310498
H275	H	0.593578	-0.357175	-0.244783
H276	H	1.093578	0.142825	0.255217
C277	C	0.887194	-0.557923	-0.235034
C278	C	1.387194	-0.057923	0.264966
H279	H	0.861419	-0.533874	-0.209228
H280	H	1.361419	-0.033874	0.290772
H281	H	0.913104	-0.579231	-0.205572
H282	H	1.413104	-0.079231	0.294428
H283	H	0.857691	-0.579220	-0.260913
H284	H	1.357691	-0.079220	0.239087
H285	H	0.720356	-0.312483	-0.247339
H286	H	1.220356	0.187517	0.252661
C287	C	1.068848	-0.443027	-0.416977
C288	C	1.568848	0.056973	0.083023
H289	H	1.094614	-0.467077	-0.442790
H290	H	1.594614	0.032923	0.057210
H291	H	1.098350	-0.421723	-0.391113
H292	H	1.598350	0.078277	0.108887
H293	H	1.042924	-0.421726	-0.446442
H294	H	1.542924	0.078274	0.053558
H295	H	1.056527	-0.549895	-0.404637
H296	H	1.556527	-0.049895	0.095363
H297	H	0.899520	-0.451039	-0.247385
H298	H	1.399520	0.048961	0.252615
H299	H	0.899557	-0.312491	-0.712584
H300	H	1.399557	0.187509	-0.212584
