data_functionalizedCrystal
_audit_creation_method	'MofGen! by Chris Wilmer'
_symmetry_space_group_name_H-M	'P1'
_symmetry_Int_Tables_number	1
_symmetry_cell_setting	triclinic
loop_
_symmetry_equiv_pos_as_xyz
  x,y,z
_cell_length_a	19.188930
_cell_length_b	19.188930
_cell_length_c	17.666332
_cell_angle_alpha	89.988397
_cell_angle_beta	89.976766
_cell_angle_gamma	83.144779
loop_
_atom_site_label
_atom_site_type_symbol
_atom_site_fract_x
_atom_site_fract_y
_atom_site_fract_z
O1	O	0.926150	0.087169	-0.063200
O2	O	1.426150	0.587169	0.436800
O3	O	0.722838	0.098903	-0.063149
O4	O	1.222838	0.598903	0.436851
O5	O	0.830361	-0.008620	-0.063161
O6	O	1.330361	0.491380	0.436839
O7	O	0.818627	0.194692	-0.063188
O8	O	1.318627	0.694692	0.436812
O9	O	0.830342	-0.008625	0.062735
O10	O	1.330342	0.491375	0.562735
O11	O	0.722820	0.098897	0.062747
O12	O	1.222820	0.598897	0.562747
O13	O	0.926131	0.087163	0.062697
O14	O	1.426131	0.587163	0.562697
Cu15	Cu	0.824473	0.093030	0.074217
Cu16	Cu	1.324473	0.593030	0.574217
Cu17	Cu	0.824496	0.093036	-0.074670
Cu18	Cu	1.324496	0.593036	0.425330
O19	O	0.818608	0.194686	0.062709
O20	O	1.318608	0.694686	0.562709
C21	C	0.696818	0.098520	-0.000194
C22	C	1.196818	0.598520	0.499806
C23	C	0.619313	0.097380	-0.000174
C24	C	1.119313	0.597380	0.499826
C25	C	0.574389	0.160470	-0.000194
C26	C	1.074389	0.660470	0.499806
C27	C	0.501566	0.159399	-0.000203
C28	C	1.001566	0.659399	0.499797
C29	C	0.473669	0.095233	-0.000206
C30	C	0.973669	0.595233	0.499794
C31	C	0.518603	0.032133	-0.000181
C32	C	1.018603	0.532133	0.499819
C33	C	0.591425	0.033207	-0.000166
C34	C	1.091425	0.533207	0.499834
N35	N	0.365695	0.046188	-0.043078
N36	N	0.865695	0.546188	0.456922
N37	N	0.296517	0.045172	-0.043095
N38	N	0.796517	0.545172	0.456905
C39	C	0.254260	0.091994	-0.000252
C40	C	0.754260	0.591994	0.499748
N41	N	0.283795	0.139881	0.042599
N42	N	0.783795	0.639881	0.542599
N43	N	0.352979	0.140899	0.042612
N44	N	0.852979	0.640899	0.542612
C45	C	0.394707	0.094062	-0.000222
C46	C	0.894707	0.594062	0.499778
C47	C	0.130372	0.153928	-0.000280
C48	C	0.630372	0.653928	0.499720
C49	C	0.057547	0.152853	-0.000283
C50	C	0.557547	0.652853	0.499717
C51	C	0.074586	0.025586	-0.000270
C52	C	0.574586	0.525586	0.499730
C53	C	0.147409	0.026662	-0.000258
C54	C	0.647409	0.526662	0.499742
C55	C	0.175298	0.090835	-0.000267
C56	C	0.675298	0.590835	0.499733
C57	C	0.829972	-0.034634	-0.000211
C58	C	1.329972	0.465366	0.499789
C59	C	0.828831	-0.112138	-0.000204
C60	C	1.328831	0.387862	0.499796
C61	C	0.891922	-0.157062	-0.000216
C62	C	1.391922	0.342938	0.499784
C63	C	0.890850	-0.229886	-0.000228
C64	C	1.390850	0.270114	0.499772
C65	C	0.826684	-0.257782	-0.000212
C66	C	1.326684	0.242218	0.499788
C67	C	0.763585	-0.212849	-0.000205
C68	C	1.263585	0.287151	0.499795
C69	C	0.764658	-0.140026	-0.000200
C70	C	1.264658	0.359974	0.499800
N71	N	0.777630	-0.365789	0.042645
N72	N	1.277630	0.134211	0.542645
N73	N	0.776615	-0.434968	0.042642
N74	N	1.276615	0.065032	0.542642
C75	C	0.823446	-0.477191	-0.000227
C76	C	1.323446	0.022809	0.499773
N77	N	0.871341	-0.447624	-0.043084
N78	N	1.371341	0.052376	0.456916
N79	N	0.872359	-0.378439	-0.043079
N80	N	1.372359	0.121561	0.456921
C81	C	0.825513	-0.336745	-0.000218
C82	C	1.325513	0.163255	0.499782
C83	C	0.885379	-0.601079	-0.000253
C84	C	1.385379	-0.101079	0.499747
C85	C	0.884305	-0.673904	-0.000270
C86	C	1.384305	-0.173904	0.499730
C87	C	0.757038	-0.656865	-0.000239
C88	C	1.257038	-0.156865	0.499761
C89	C	0.758114	-0.584042	-0.000230
C90	C	1.258114	-0.084042	0.499770
C91	C	0.822287	-0.556154	-0.000233
C92	C	1.322287	-0.056154	0.499767
C93	C	0.952151	0.087546	-0.000260
C94	C	1.452151	0.587546	0.499740
C95	C	1.029656	0.088687	-0.000285
C96	C	1.529656	0.588687	0.499715
C97	C	0.818997	0.220700	-0.000244
C98	C	1.318997	0.720700	0.499756
C99	C	0.820138	0.298204	-0.000255
C100	C	1.320138	0.798204	0.499745
N101	N	0.824463	0.093025	0.178937
N102	N	1.324463	0.593025	0.678937
N103	N	0.824512	0.093036	-0.179390
N104	N	1.324512	0.593036	0.320610
C105	C	0.872089	0.045437	0.218541
C106	C	1.372089	0.545437	0.718541
C107	C	0.872093	0.045433	0.297789
C108	C	1.372093	0.545433	0.797789
C109	C	0.824478	0.093030	0.337429
C110	C	1.324478	0.593030	0.837429
C111	C	0.776842	0.140621	0.297815
C112	C	1.276842	0.640621	0.797815
C113	C	0.776835	0.140619	0.218569
C114	C	1.276835	0.640619	0.718569
N115	N	0.815401	0.154837	0.461841
N116	N	1.315401	0.654837	0.961841
N117	N	0.815413	0.154837	0.537121
N118	N	1.315413	0.654837	1.037121
C119	C	0.824496	0.093040	0.576193
C120	C	1.324496	0.593040	1.076193
N121	N	0.833582	0.031239	0.537140
N122	N	1.333582	0.531239	1.037140
N123	N	0.833574	0.031240	0.461853
N124	N	1.333574	0.531240	0.961853
C125	C	0.824480	0.093038	0.423358
C126	C	1.324480	0.593038	0.923358
C127	C	0.872130	0.045444	0.701727
C128	C	1.372130	0.545444	1.201727
C129	C	0.872129	0.045440	0.780976
C130	C	1.372129	0.545440	1.280976
C131	C	0.776881	0.140634	0.781000
C132	C	1.276881	0.640634	1.281000
C133	C	0.776878	0.140632	0.701753
C134	C	1.276878	0.640632	1.201753
C135	C	0.824506	0.093038	0.662121
C136	C	1.324506	0.593038	1.162121
H137	H	0.628003	-0.018171	-0.000150
H138	H	1.128003	0.481829	0.499850
O139	O	0.047613	-0.036807	-0.000238
O140	O	0.547613	0.463193	0.499762
C141	C	0.102885	-0.092264	-0.000242
C142	C	0.602885	0.407736	0.499758
H143	H	0.152285	-0.072845	0.023600
H144	H	0.652285	0.427155	0.523600
H145	H	0.087783	-0.137079	0.036312
H146	H	0.587783	0.362921	0.536312
H147	H	0.113280	-0.111713	-0.060637
H148	H	0.613280	0.388287	0.439363
O149	O	0.701193	-0.239828	-0.000223
O150	O	1.201193	0.260172	0.499777
C151	C	0.645735	-0.184556	-0.000191
C152	C	1.145735	0.315444	0.499809
H153	H	0.665158	-0.135138	-0.024028
H154	H	1.165158	0.364862	0.475972
H155	H	0.600928	-0.199632	-0.036735
H156	H	1.100928	0.300368	0.463265
H157	H	0.626272	-0.174204	0.060212
H158	H	1.126272	0.325796	0.560212
O159	O	0.954318	-0.130089	-0.000258
O160	O	1.454318	0.369911	0.499742
C161	C	1.009774	-0.185362	-0.000251
C162	C	1.509774	0.314638	0.499749
H163	H	0.990358	-0.234769	-0.024086
H164	H	1.490358	0.265231	0.475914
H165	H	1.054596	-0.170273	-0.036809
H166	H	1.554596	0.329727	0.463191
H167	H	1.029213	-0.195739	0.060144
H168	H	1.529213	0.304261	0.560144
H169	H	0.910910	0.006684	0.813222
H170	H	1.410910	0.506684	1.313222
O171	O	0.157352	0.216323	-0.000247
O172	O	0.657352	0.716323	0.499753
C173	C	0.102081	0.271781	-0.000277
C174	C	0.602081	0.771781	0.499723
H175	H	0.052656	0.252360	0.023552
H176	H	0.552656	0.752360	0.523552
H177	H	0.117146	0.316592	0.036273
H178	H	0.617146	0.816592	0.536273
H179	H	0.091746	0.291236	-0.060679
H180	H	0.591746	0.791236	0.439321
O181	O	0.694767	-0.684071	-0.000194
O182	O	1.194767	-0.184071	0.499806
C183	C	0.707347	-0.757980	-0.000224
C184	C	1.207347	-0.257980	0.499776
H185	H	0.761881	-0.775254	0.023600
H186	H	1.261881	-0.275254	0.523600
H187	H	0.666293	-0.780226	0.036330
H188	H	1.166293	-0.280226	0.536330
H189	H	0.704038	-0.778225	-0.060626
H190	H	1.204038	-0.278225	0.439374
H191	H	0.738051	0.179371	0.186322
H192	H	1.238051	0.679371	0.686322
O193	O	0.730655	0.186965	0.819415
O194	O	1.230655	0.686965	1.319415
C195	C	0.741798	0.256055	0.800042
C196	C	1.241798	0.756055	1.300042
H197	H	0.768706	0.255902	0.742490
H198	H	1.268706	0.755902	1.242490
H199	H	0.689212	0.290568	0.797351
H200	H	1.189212	0.790568	1.297351
H201	H	0.776486	0.277561	0.844620
H202	H	1.276486	0.777561	1.344620
H203	H	0.738099	0.179386	0.669505
H204	H	1.238099	0.679386	1.169505
O205	O	0.703433	-0.096284	-0.000218
O206	O	1.203433	0.403716	0.499782
C207	C	0.718141	-0.026029	-0.000194
C208	C	1.218141	0.473971	0.499806
H209	H	0.772978	-0.023398	-0.024039
H210	H	1.272978	0.476602	0.475961
H211	H	0.677918	0.007099	-0.036733
H212	H	1.177918	0.507099	0.463267
H213	H	0.715419	-0.004976	0.060209
H214	H	1.215419	0.495024	0.560209
O215	O	0.601363	0.222867	-0.000161
O216	O	1.101363	0.722867	0.499839
C217	C	0.546090	0.278323	-0.000199
C218	C	1.046090	0.778323	0.499801
H219	H	0.496663	0.258901	0.023625
H220	H	0.996663	0.758901	0.523625
H221	H	0.561149	0.323135	0.036353
H222	H	1.061149	0.823135	0.536353
H223	H	0.535761	0.297777	-0.060602
H224	H	1.035761	0.797777	0.439398
H225	H	0.706738	-0.547464	-0.000216
H226	H	1.206738	-0.047464	0.499784
H227	H	0.910909	0.006688	0.669457
H228	H	1.410909	0.506688	1.169457
O229	O	0.191122	-0.034580	-0.000351
O230	O	0.691122	0.465420	0.499649
C231	C	0.233777	-0.037769	-0.065555
C232	C	0.733777	0.462231	0.434445
H233	H	0.237303	0.017640	-0.087295
H234	H	0.737303	0.517640	0.412705
H235	H	0.288583	-0.063947	-0.050879
H236	H	0.788583	0.436053	0.449121
H237	H	0.209939	-0.069580	-0.111216
H238	H	0.709939	0.430420	0.388784
H239	H	0.937632	-0.578372	-0.000259
H240	H	1.437632	-0.078372	0.499741
O241	O	0.952120	-0.273565	-0.000368
O242	O	1.452120	0.226435	0.499632
C243	C	0.955314	-0.316200	-0.065562
C244	C	1.455314	0.183800	0.434438
H245	H	0.919545	-0.289411	-0.111133
H246	H	1.419545	0.210589	0.388867
H247	H	1.011587	-0.324562	-0.087452
H248	H	1.511587	0.175438	0.412548
H249	H	0.937396	-0.369102	-0.050819
H250	H	1.437396	0.130898	0.449181
H251	H	0.738072	0.179374	0.330094
H252	H	1.238072	0.679374	0.830094
O253	O	0.457845	0.220641	-0.000328
O254	O	0.957845	0.720641	0.499672
C255	C	0.415264	0.223827	-0.065553
C256	C	0.915264	0.723827	0.434447
H257	H	0.411769	0.168417	-0.087279
H258	H	0.911769	0.668417	0.412721
H259	H	0.360439	0.249999	-0.050909
H260	H	0.860439	0.749999	0.449091
H261	H	0.439150	0.255641	-0.111211
H262	H	0.939150	0.755641	0.388789
O263	O	0.491474	-0.030180	-0.000321
O264	O	0.991474	0.469820	0.499679
C265	C	0.449885	-0.034598	-0.065525
C266	C	0.949885	0.465402	0.434475
H267	H	0.467024	0.001836	-0.111097
H268	H	0.967024	0.501836	0.388903
H269	H	0.456605	-0.090888	-0.087404
H270	H	0.956605	0.409112	0.412596
H271	H	0.392397	-0.018317	-0.050800
H272	H	0.892397	0.481683	0.449200
O273	O	0.945577	-0.717573	-0.000419
O274	O	1.445577	-0.217573	0.499581
C275	C	0.948772	-0.760200	-0.065619
C276	C	1.448772	-0.260200	0.434381
H277	H	0.912995	-0.733408	-0.111183
H278	H	1.412995	-0.233408	0.388817
H279	H	1.005043	-0.768551	-0.087515
H280	H	1.505043	-0.268551	0.412485
H281	H	0.930862	-0.813107	-0.050883
H282	H	1.430862	-0.313107	0.449117
H283	H	0.910869	0.006681	0.186275
H284	H	1.410869	0.506681	0.686275
O285	O	0.013875	0.214124	-0.000171
O286	O	0.513875	0.714124	0.499829
C287	C	-0.028805	0.217308	0.065014
C288	C	0.471195	0.717308	0.565014
H289	H	-0.002049	0.181527	0.110602
H290	H	0.497951	0.681527	0.610602
H291	H	-0.037179	0.273576	0.086885
H292	H	0.462821	0.773576	0.586885
H293	H	-0.081698	0.199395	0.050267
H294	H	0.418302	0.699395	0.550267
H295	H	0.910878	0.006680	0.330041
H296	H	1.410878	0.506680	0.830041
