data_functionalizedCrystal
_audit_creation_method	'MofGen! by Chris Wilmer'
_symmetry_space_group_name_H-M	'P1'
_symmetry_Int_Tables_number	1
_symmetry_cell_setting	triclinic
loop_
_symmetry_equiv_pos_as_xyz
  x,y,z
_cell_length_a	14.628931
_cell_length_b	14.560432
_cell_length_c	14.560432
_cell_angle_alpha	59.999974
_cell_angle_beta	89.999832
_cell_angle_gamma	60.001019
loop_
_atom_site_label
_atom_site_type_symbol
_atom_site_fract_x
_atom_site_fract_y
_atom_site_fract_z
Zr1	Zr	0.880645	1.005265	-0.120515
O2	O	0.734689	1.196865	-0.267160
O3	O	0.925385	0.813666	-0.075561
O4	O	0.925390	1.005265	-0.267162
O5	O	0.734683	1.005266	0.075580
O6	O	1.075822	1.005265	-0.267162
O7	O	0.734684	1.005266	-0.075559
O8	O	1.075813	0.662529	0.075577
O9	O	0.734693	1.348002	-0.267159
O10	O	1.056736	0.892473	-0.056387
O11	O	0.944470	0.892474	0.056406
O12	O	0.944476	1.118057	-0.169179
O13	O	0.832210	1.118057	-0.056385
Zr14	Zr	1.120566	1.005265	0.120536
Zr15	Zr	1.120567	1.005265	-0.120514
Zr16	Zr	0.880644	1.005266	0.120536
Zr17	Zr	0.880651	1.246311	-0.120512
Zr18	Zr	1.120560	0.764219	0.120534
O19	O	1.075826	1.196865	0.075582
O20	O	1.075827	1.196864	-0.267160
O21	O	0.734688	1.196866	0.075582
O22	O	1.266522	0.813665	0.267182
O23	O	1.266523	0.813665	-0.075560
O24	O	0.925384	0.813666	0.267181
O25	O	1.266528	1.005264	-0.075559
O26	O	1.075821	1.005265	0.267183
O27	O	0.925389	1.005266	0.267183
O28	O	1.266527	1.005265	0.075581
O29	O	0.925399	1.348002	-0.267159
O30	O	1.075812	0.662529	0.267180
O31	O	1.266518	0.662528	0.267180
O32	O	1.266518	0.662528	0.075578
O33	O	0.734693	1.348002	-0.075556
O34	O	0.925398	1.348002	-0.075556
O35	O	1.056735	0.892473	0.169200
O36	O	1.169001	0.892473	0.056407
O37	O	1.056741	1.118057	-0.056385
O38	O	0.944475	1.118057	0.056409
C39	C	0.700500	1.005266	0.000010
C40	C	0.598647	1.005266	0.000010
C41	C	1.000598	0.703753	0.000008
C42	C	1.000595	0.601423	0.000007
C43	C	0.608926	0.893362	0.055962
C44	C	0.503657	0.893359	0.055964
C45	C	0.834837	0.767939	-0.166519
C46	C	0.751958	0.803119	-0.249776
C47	C	0.751962	0.706966	-0.249773
C48	C	0.834855	0.575621	-0.166505
C49	C	0.917734	0.540441	-0.083247
C50	C	0.917719	0.636605	-0.083257
C51	C	1.083494	0.373927	0.083272
C52	C	1.083488	0.470078	0.083275
C53	C	1.166388	0.242582	0.166540
C54	C	1.249264	0.207400	0.249805
C55	C	1.249256	0.303563	0.249799
C56	C	1.166367	0.434898	0.166533
C57	C	1.300711	1.005264	0.000011
C58	C	1.402564	1.005264	0.000011
C59	C	1.000607	1.005265	-0.301506
C60	C	1.000607	1.005265	-0.403838
C61	C	1.000613	1.306777	0.000013
C62	C	1.000616	1.409107	0.000014
C63	C	0.883393	1.240778	-0.713894
C64	C	0.824793	1.358534	-0.724697
C65	C	0.824796	1.358539	-0.628549
C66	C	0.883403	1.240774	-0.521591
C67	C	0.942003	1.123017	-0.510788
C68	C	0.941996	1.123025	-0.606944
C69	C	1.059207	0.887508	-0.393036
C70	C	1.059211	0.887501	-0.489182
C71	C	1.117814	0.769743	-0.286077
C72	C	1.176422	0.651983	-0.275273
C73	C	1.176417	0.651984	-0.371429
C74	C	1.117811	0.769744	-0.478379
C75	C	1.000604	1.005266	0.301528
C76	C	1.000604	1.005266	0.403860
C77	C	1.300703	0.703753	0.000008
C78	C	1.402554	0.601422	0.000008
C79	C	1.000597	0.703754	0.301525
C80	C	1.000594	0.601424	0.403856
C81	C	1.300702	0.703753	0.301525
C82	C	1.402553	0.601422	0.403857
C83	C	0.700509	1.306778	-0.301504
C84	C	0.598658	1.409108	-0.403835
C85	C	0.700507	1.306778	0.000013
C86	C	0.598657	1.409109	0.000014
C87	C	1.000614	1.306777	-0.301503
C88	C	1.000617	1.409107	-0.403835
C89	C	1.392271	0.555800	-0.055946
C90	C	1.497537	0.450036	-0.055948
C91	C	1.056284	0.555801	0.505432
C92	C	1.056282	0.450038	0.611198
C93	C	1.503652	0.555800	0.393526
C94	C	1.608921	0.450036	0.499289
H95	H	0.695660	0.797558	0.103869
H96	H	1.511906	0.443640	0.609537
F97	F	1.486252	0.398751	-0.118558
H98	H	1.489290	0.562185	0.047906
H99	H	0.511913	1.101070	-0.047890
H100	H	1.393931	0.562186	0.491001
F101	F	0.514937	0.768129	0.118572
H102	H	0.834858	0.497336	-0.166517
H103	H	1.117807	0.769755	-0.207793
H104	H	1.166387	0.164295	0.166535
H105	H	1.103962	0.410802	0.698336
H106	H	0.952910	0.562187	0.395195
H107	H	0.684470	0.910069	-0.317574
H108	H	1.512277	0.595044	0.306383
H109	H	0.684479	0.735617	-0.317573
H110	H	1.316752	0.100458	0.317591
F111	F	0.391275	1.130499	-0.062613
F112	F	0.762414	1.483862	-0.838532
F113	F	0.762429	1.483868	-0.640046
F114	F	0.834817	0.870281	-0.166520
H115	H	1.166348	0.513202	0.166525
F116	F	0.883401	1.240783	-0.816228
F117	F	1.337474	0.266107	0.338410
H118	H	0.952915	0.443643	0.513727
F119	F	1.722282	0.398751	0.487952
H120	H	0.883390	1.240788	-0.443308
H121	H	1.224129	0.556109	-0.188185
H122	H	1.607269	0.443638	0.047920
F123	F	1.117807	0.769754	-0.580716
F124	F	1.118599	0.607095	0.516760
H125	H	1.305535	0.595046	-0.103854
F126	F	1.238782	0.526648	-0.359920
