data_functionalizedCrystal
_audit_creation_method	'MofGen! by Chris Wilmer'
_symmetry_space_group_name_H-M	'P1'
_symmetry_Int_Tables_number	1
_symmetry_cell_setting	triclinic
loop_
_symmetry_equiv_pos_as_xyz
  x,y,z
_cell_length_a	27.731993
_cell_length_b	27.731996
_cell_length_c	12.503572
_cell_angle_alpha	93.487301
_cell_angle_beta	86.523389
_cell_angle_gamma	82.620891
loop_
_atom_site_label
_atom_site_type_symbol
_atom_site_fract_x
_atom_site_fract_y
_atom_site_fract_z
O1	O	0.643734	0.054584	-0.089043
O2	O	0.502937	0.063355	-0.089111
O3	O	0.577721	-0.011429	-0.089052
O4	O	0.568950	0.129368	-0.089103
O5	O	0.572097	-0.005796	0.089586
O6	O	0.497313	0.068988	0.089527
O7	O	0.638110	0.060217	0.089594
Cu8	Cu	0.567198	0.065117	0.105871
Cu9	Cu	0.573849	0.058455	-0.105388
O10	O	0.563326	0.135001	0.089535
C11	C	0.482118	0.065991	0.000199
C12	C	0.428463	0.065448	0.000175
C13	C	0.048367	0.058448	-0.097147
C14	C	0.250025	0.060515	-0.097177
O15	O	0.278706	0.058151	-0.179993
N16	N	0.272180	0.063844	0.000196
C17	C	0.243917	0.066654	0.097584
O18	O	0.267388	0.069528	0.180405
C19	C	0.042260	0.064584	0.097612
C20	C	0.020108	0.061259	0.000233
C21	C	0.026215	0.055123	-0.194518
C22	C	-0.024197	0.054610	-0.194510
C23	C	-0.052457	0.057421	-0.097130
C24	C	-0.030304	0.060746	0.000241
C25	C	0.013999	0.067390	0.194999
C26	C	-0.036418	0.066871	0.194997
C27	C	-0.058570	0.063547	0.097618
C28	C	-0.108975	0.063043	0.097630
N29	N	-0.131130	0.059714	0.000257
C30	C	-0.102870	0.056902	-0.097123
C31	C	0.349790	0.067741	0.097562
C32	C	0.400203	0.068259	0.097555
C33	C	0.406308	0.062119	-0.097206
C34	C	0.355893	0.061604	-0.097198
C35	C	0.327635	0.064412	0.000189
C36	C	-0.208739	0.055824	-0.097098
C37	C	-0.259156	0.055312	-0.097081
C38	C	-0.265256	0.061450	0.097679
C39	C	-0.214844	0.061964	0.097663
C40	C	-0.186586	0.059149	0.000265
O41	O	-0.137684	0.065400	0.180402
O42	O	-0.126349	0.054018	-0.179932
C43	C	0.098779	0.058962	-0.097155
C44	C	0.120932	0.062287	0.000216
C45	C	0.092672	0.065098	0.097596
C46	C	0.171345	0.062805	0.000209
C47	C	0.199605	0.059994	-0.097171
C48	C	0.177450	0.056665	-0.194544
C49	C	0.127038	0.056151	-0.194535
C50	C	0.114827	0.068428	0.194969
C51	C	0.165239	0.068942	0.194952
C52	C	0.193498	0.066131	0.097573
C53	C	0.574728	-0.026620	0.000270
C54	C	0.574185	-0.080276	0.000281
C55	C	0.573838	-0.416064	-0.097148
C56	C	0.571778	-0.617722	-0.097168
O57	O	0.574098	-0.646404	-0.179983
N58	N	0.568456	-0.639868	0.000206
C59	C	0.565646	-0.611596	0.097592
O60	O	0.562768	-0.635060	0.180415
C61	C	0.567703	-0.409938	0.097611
C62	C	0.571030	-0.387796	0.000230
C63	C	0.577164	-0.393921	-0.194521
C64	C	0.577682	-0.343509	-0.194515
C65	C	0.574873	-0.315241	-0.097136
C66	C	0.571547	-0.337384	0.000236
C67	C	0.564889	-0.381667	0.194996
C68	C	0.565403	-0.331249	0.194992
C69	C	0.568730	-0.309107	0.097611
C70	C	0.569257	-0.258705	0.097621
N71	N	0.572578	-0.236559	0.000247
C72	C	0.575387	-0.264827	-0.097132
C73	C	0.564567	-0.717470	0.097576
C74	C	0.564054	-0.767885	0.097571
C75	C	0.570184	-0.774007	-0.097190
C76	C	0.570701	-0.723592	-0.097184
C77	C	0.567889	-0.695324	0.000201
C78	C	0.576474	-0.158959	-0.097112
C79	C	0.576994	-0.108544	-0.097097
C80	C	0.570860	-0.102426	0.097663
C81	C	0.570343	-0.152837	0.097649
C82	C	0.573149	-0.181103	0.000253
O83	O	0.566933	-0.229992	0.180392
O84	O	0.578253	-0.241353	-0.179942
C85	C	0.573320	-0.466475	-0.097154
C86	C	0.569994	-0.488618	0.000218
C87	C	0.567186	-0.460350	0.097597
C88	C	0.569481	-0.539033	0.000214
C89	C	0.572289	-0.567301	-0.097165
C90	C	0.575611	-0.545154	-0.194539
C91	C	0.576129	-0.494743	-0.194533
C92	C	0.563864	-0.482496	0.194971
C93	C	0.563347	-0.532908	0.194957
C94	C	0.566156	-0.561176	0.097579
C95	C	0.658929	0.057581	0.000281
C96	C	0.712585	0.058124	0.000299
C97	C	0.566319	0.150192	0.000210
C98	C	0.566862	0.203847	0.000193
N99	N	0.562523	0.069803	0.254460
N100	N	0.578528	0.053766	-0.253977
C101	C	0.555647	0.076699	0.473570
C102	C	0.585403	0.046871	0.526920
C103	C	0.581576	0.050708	0.648841
C104	C	0.559472	0.072863	0.351638
H105	H	0.429325	0.059832	-0.176497
F106	F	0.423773	0.071807	0.201199
H107	H	0.527300	0.105117	0.519455
F108	F	-0.282729	0.051775	-0.200730
F109	F	-0.178672	0.052828	-0.200759
F110	F	0.188809	0.072484	0.298605
H111	H	-0.042229	0.051900	-0.273806
H112	H	-0.288274	0.063741	0.176963
F113	F	0.056283	0.052130	-0.298173
H114	H	0.337860	0.058897	-0.176493
F115	F	0.207534	0.053675	-0.298183
H116	H	0.567639	-0.170867	0.176944
F117	F	0.319720	0.070734	0.201221
H118	H	0.613752	0.018452	0.481030
H119	H	0.091823	0.070714	0.274269
F120	F	0.037564	0.070929	0.298645
F121	F	-0.066489	0.069857	0.298653
F122	F	0.574241	-0.700030	-0.200829
H123	H	-0.196808	0.064681	0.176957
F124	F	0.103469	0.052612	-0.298181
H125	H	0.579704	-0.090518	-0.176400
F126	F	0.578602	-0.575248	-0.298176
F127	F	0.573172	-0.804100	-0.200828
F128	F	0.579460	-0.189035	-0.200772
H129	H	0.579449	-0.416931	-0.273823
F130	F	0.581219	-0.319949	-0.298162
H131	H	0.561352	-0.785910	0.176868
F132	F	0.561346	-0.405222	0.298644
H133	H	0.563105	-0.308235	0.274297
H134	H	0.562279	-0.694459	0.176883
H135	H	0.568576	-0.079401	0.176946
F136	F	0.579669	-0.471183	-0.298180
H137	H	0.561578	-0.459485	0.274271
F138	F	0.559809	-0.556469	0.298611
