data_functionalizedCrystal
_audit_creation_method	'MofGen! by Chris Wilmer'
_symmetry_space_group_name_H-M	'P1'
_symmetry_Int_Tables_number	1
_symmetry_cell_setting	triclinic
loop_
_symmetry_equiv_pos_as_xyz
  x,y,z
_cell_length_a	16.120530
_cell_length_b	12.594516
_cell_length_c	16.120297
_cell_angle_alpha	92.876309
_cell_angle_beta	90.128140
_cell_angle_gamma	87.107535
loop_
_atom_site_label
_atom_site_type_symbol
_atom_site_fract_x
_atom_site_fract_y
_atom_site_fract_z
Zn1	Zn	1.247525	-0.539250	-0.534592
Zn2	Zn	1.580858	-0.205917	-0.201259
Zn3	Zn	1.914192	0.127416	0.132075
Zn4	Zn	1.254502	-0.708694	-0.395543
Zn5	Zn	1.587836	-0.375361	-0.062210
Zn6	Zn	1.921169	-0.042027	0.271124
Zn7	Zn	1.115513	-0.521264	-0.388509
Zn8	Zn	1.448846	-0.187931	-0.055176
Zn9	Zn	1.782179	0.145403	0.278158
Zn10	Zn	1.108459	-0.707714	-0.527512
Zn11	Zn	1.441792	-0.374380	-0.194179
Zn12	Zn	1.775125	-0.041047	0.139154
O13	O	1.181500	-0.619231	-0.461539
O14	O	1.514833	-0.285897	-0.128206
O15	O	1.848166	0.047436	0.205128
O16	O	1.364818	-0.569665	-0.522053
O17	O	1.698151	-0.236332	-0.188720
O18	O	2.031485	0.097002	0.144613
O19	O	1.241937	-0.676714	-0.278244
O20	O	1.575271	-0.343381	0.055089
O21	O	1.908604	-0.010047	0.388423
O22	O	1.133056	-0.374708	-0.407906
O23	O	1.466390	-0.041374	-0.074573
O24	O	1.799723	0.291959	0.258760
O25	O	1.369944	-0.694154	-0.419895
O26	O	1.703278	-0.360821	-0.086561
O27	O	2.036611	-0.027488	0.246772
O28	O	1.230045	-0.387922	-0.515233
O29	O	1.563379	-0.054589	-0.181900
O30	O	1.896712	0.278745	0.151434
O31	O	1.139822	-0.539010	-0.273076
O32	O	1.473155	-0.205677	0.060257
O33	O	1.806489	0.127657	0.393590
O34	O	0.998209	-0.538060	-0.401042
O35	O	1.331543	-0.204726	-0.067708
O36	O	1.664876	0.128607	0.265625
O37	O	1.121034	-0.692484	-0.644817
O38	O	1.454367	-0.359150	-0.311484
O39	O	1.787701	-0.025817	0.021850
O40	O	0.993027	-0.675043	-0.503166
O41	O	1.326360	-0.341710	-0.169833
O42	O	1.659694	-0.008377	0.163500
O43	O	1.223205	-0.568715	-0.650019
O44	O	1.556539	-0.235381	-0.316685
O45	O	1.889872	0.097952	0.016648
O46	O	1.235097	-0.857506	-0.413030
O47	O	1.568431	-0.524173	-0.079696
O48	O	1.901764	-0.190840	0.253637
O49	O	1.127800	-0.856786	-0.509987
O50	O	1.461133	-0.523453	-0.176654
O51	O	1.794466	-0.190120	0.156680
C52	C	0.965445	-0.604494	-0.450573
C53	C	1.298779	-0.271161	-0.117240
C54	C	1.632112	0.062173	0.216094
C55	C	0.873015	-0.598217	-0.445901
C56	C	1.206349	-0.264883	-0.112568
C57	C	1.539682	0.068450	0.220765
C58	C	0.703784	-0.586731	-0.437379
C59	C	1.037117	-0.253398	-0.104046
C60	C	1.370451	0.079936	0.229287
C61	C	0.660053	-0.651812	-0.485759
C62	C	0.993386	-0.318479	-0.152426
C63	C	1.326720	0.014855	0.180907
C64	C	0.565887	-0.645422	-0.481018
C65	C	0.899220	-0.312088	-0.147684
C66	C	1.232553	0.021245	0.185649
C67	C	0.797959	-0.593120	-0.442120
C68	C	1.131292	-0.259787	-0.108787
C69	C	1.464625	0.073546	0.224547
C70	C	1.181462	-0.895768	-0.461523
C71	C	1.514795	-0.562435	-0.128189
C72	C	1.848129	-0.229101	0.205144
C73	C	1.181520	-1.014079	-0.461547
C74	C	1.514854	-0.680745	-0.128214
C75	C	1.848187	-0.347412	0.205119
C76	C	1.239941	-1.083693	-0.408875
C77	C	1.573274	-0.750360	-0.075541
C78	C	1.906608	-0.417026	0.257792
C79	C	1.256413	-1.160447	-0.485802
C80	C	1.589746	-0.827114	-0.152469
C81	C	1.923080	-0.493780	0.180865
C82	C	1.165150	-1.148134	-0.384674
C83	C	1.498483	-0.814801	-0.051340
C84	C	1.831817	-0.481467	0.281993
C85	C	1.198029	-1.089279	-0.538516
C86	C	1.531363	-0.755946	-0.205183
C87	C	1.864696	-0.422613	0.128150
C88	C	1.106733	-1.076955	-0.437335
C89	C	1.440067	-0.743621	-0.104001
C90	C	1.773400	-0.410288	0.229332
C91	C	1.123174	-1.153678	-0.514313
C92	C	1.456507	-0.820345	-0.180980
C93	C	1.789841	-0.487011	0.152354
C94	C	1.398398	-0.634025	-0.472548
C95	C	1.731731	-0.300692	-0.139215
C96	C	2.065064	0.032641	0.194118
C97	C	1.490827	-0.640330	-0.477240
C98	C	1.824160	-0.306997	-0.143907
C99	C	2.157493	0.026337	0.189427
C100	C	1.170555	-0.632496	-0.678434
C101	C	1.503888	-0.299163	-0.345101
C102	C	1.837221	0.034171	-0.011767
C103	C	1.165890	-0.638149	-0.770862
C104	C	1.499224	-0.304816	-0.437528
C105	C	1.832557	0.028518	-0.104195
C106	C	1.181559	-0.341616	-0.461575
C107	C	1.514893	-0.008283	-0.128242
C108	C	1.848226	0.325051	0.205092
C109	C	1.181585	-0.223313	-0.461590
C110	C	1.514918	0.110020	-0.128257
C111	C	1.848251	0.443354	0.205077
C112	C	1.157344	-0.648444	-0.940087
C113	C	1.490678	-0.315111	-0.606753
C114	C	1.824011	0.018222	-0.273420
C115	C	1.205819	-0.589709	-0.983851
C116	C	1.539152	-0.256376	-0.650518
C117	C	1.872485	0.076958	-0.317185
C118	C	1.201064	-0.595437	-1.078014
C119	C	1.534397	-0.262104	-0.744681
C120	C	1.867730	0.071229	-0.411347
C121	C	1.162098	-0.642717	-0.845915
C122	C	1.495432	-0.309384	-0.512582
C123	C	1.828765	0.023949	-0.179249
C124	C	1.192450	-0.605943	-0.245490
C125	C	1.525783	-0.272610	0.087843
C126	C	1.859117	0.060724	0.421176
C127	C	1.197275	-0.600001	-0.153071
C128	C	1.530609	-0.266668	0.180262
C129	C	1.863942	0.066665	0.513595
H130	H	1.289351	-1.052958	-0.364374
H131	H	1.622684	-0.719625	-0.031041
H132	H	1.956018	-0.386292	0.302293
H133	H	1.112277	-0.703028	-0.973335
H134	H	1.445611	-0.369695	-0.640002
H135	H	1.778944	-0.036361	-0.306668
C136	C	0.658829	-0.504992	-0.376611
C137	C	0.992163	-0.171659	-0.043278
C138	C	1.325496	0.161674	0.290056
H139	H	0.600520	-0.511380	-0.381352
H140	H	0.933853	-0.178046	-0.048019
H141	H	1.267187	0.155287	0.285314
H142	H	0.672402	-0.435191	-0.389565
H143	H	1.005735	-0.101858	-0.056232
H144	H	1.339068	0.231476	0.277101
H145	H	0.675817	-0.518000	-0.321416
H146	H	1.009151	-0.184666	0.011917
H147	H	1.342484	0.148667	0.345250
H148	H	1.319686	-1.196913	-0.506304
H149	H	1.653019	-0.863579	-0.172971
H150	H	1.986353	-0.530246	0.160362
H151	H	1.211836	-1.063357	-0.603597
H152	H	1.545169	-0.730024	-0.270264
H153	H	1.878503	-0.396691	0.063069
H154	H	0.693335	-0.712328	-0.530741
H155	H	1.026668	-0.378995	-0.197408
H156	H	1.360001	-0.045661	0.135926
C157	C	1.056469	-1.194956	-0.574581
C158	C	1.389803	-0.861623	-0.241247
C159	C	1.723136	-0.528290	0.092086
H160	H	1.068260	-1.174828	-0.629162
H161	H	1.401594	-0.841495	-0.295829
H162	H	1.734927	-0.508162	0.037504
H163	H	1.003459	-1.165174	-0.557834
H164	H	1.336792	-0.831841	-0.224501
H165	H	1.670125	-0.498507	0.108833
H166	H	1.056553	-1.270346	-0.573938
H167	H	1.389886	-0.937012	-0.240605
H168	H	1.723219	-0.603679	0.092729
C169	C	1.266713	-0.515972	-0.938943
C170	C	1.600047	-0.182639	-0.605610
C171	C	1.933380	0.150695	-0.272277
H172	H	1.296500	-0.479870	-0.978787
H173	H	1.629833	-0.146537	-0.645454
H174	H	1.963167	0.186797	-0.312120
H175	H	1.304611	-0.557143	-0.906903
H176	H	1.637944	-0.223810	-0.573570
H177	H	1.971277	0.109523	-0.240237
H178	H	1.236590	-0.465398	-0.903440
H179	H	1.569924	-0.132065	-0.570107
H180	H	1.903257	0.201269	-0.236774
H181	H	1.151277	-1.174187	-0.319645
H182	H	1.484610	-0.840853	0.013689
H183	H	1.817944	-0.507520	0.347022
C184	C	1.021288	-1.027649	-0.409609
C185	C	1.354621	-0.694316	-0.076276
C186	C	1.687954	-0.360983	0.257058
H187	H	1.009716	-1.047608	-0.354932
H188	H	1.343049	-0.714275	-0.021599
H189	H	1.676383	-0.380942	0.311734
H190	H	0.979698	-1.052610	-0.446482
H191	H	1.313031	-0.719276	-0.113149
H192	H	1.646365	-0.385943	0.220185
H193	H	1.021742	-0.952300	-0.410287
H194	H	1.355075	-0.618966	-0.076953
H195	H	1.688409	-0.285633	0.256380
