data_functionalizedCrystal
_audit_creation_method	'MofGen! by Chris Wilmer'
_symmetry_space_group_name_H-M	'P1'
_symmetry_Int_Tables_number	1
_symmetry_cell_setting	triclinic
loop_
_symmetry_equiv_pos_as_xyz
  x,y,z
_cell_length_a	38.067044
_cell_length_b	38.077471
_cell_length_c	38.067077
_cell_angle_alpha	59.997213
_cell_angle_beta	89.997014
_cell_angle_gamma	59.999941
loop_
_atom_site_label
_atom_site_type_symbol
_atom_site_fract_x
_atom_site_fract_y
_atom_site_fract_z
O1	O	0.240983	0.309782	-0.010460
O2	O	0.189899	0.237866	0.010394
O3	O	0.189899	0.309779	-0.061542
O4	O	0.240983	0.237869	0.061476
O5	O	0.248326	0.251368	-0.061541
O6	O	0.248326	0.179455	0.010394
O7	O	0.299410	0.251371	-0.010459
Cu8	Cu	0.279203	0.210080	-0.000033
Cu9	Cu	0.210106	0.279157	-0.000033
O10	O	0.299410	0.179458	0.061476
C11	C	0.361071	0.449899	-0.025339
C12	C	0.403348	0.428867	-0.025638
C13	C	0.361073	0.386300	-0.025335
C14	C	0.403350	0.365365	-0.025633
C15	C	0.424685	0.386303	-0.025339
C16	C	0.339834	0.428864	-0.025633
C17	C	0.297315	0.513472	-0.020177
C18	C	0.277153	0.553648	-0.016921
C19	C	0.298889	0.573799	-0.015289
C20	C	0.277030	0.617358	-0.011756
C21	C	0.340787	0.553781	-0.016917
C22	C	0.360947	0.513609	-0.020176
C23	C	0.339211	0.493455	-0.021804
C24	C	0.493436	0.381311	-0.020181
C25	C	0.536879	0.358036	-0.016924
C26	C	0.558669	0.314521	-0.015288
C27	C	0.605773	0.289281	-0.011754
C28	C	0.537019	0.294278	-0.016912
C29	C	0.493577	0.317552	-0.020171
C30	C	0.471787	0.361067	-0.021804
C31	C	0.297319	0.381302	-0.020168
C32	C	0.277160	0.358020	-0.016902
C33	C	0.298897	0.314505	-0.015265
C34	C	0.277041	0.289263	-0.011727
C35	C	0.340794	0.294265	-0.016892
C36	C	0.360954	0.317543	-0.020157
C37	C	0.339215	0.361061	-0.021795
C38	C	0.025601	0.057329	0.031595
C39	C	0.046936	0.014767	0.031891
C40	C	0.089215	0.057327	0.031598
C41	C	0.110454	0.014764	0.031894
C42	C	0.089214	-0.006267	0.031595
C43	C	0.046937	0.078263	0.031894
C44	C	-0.127801	0.171857	0.020077
C45	C	-0.171243	0.195271	0.016820
C46	C	-0.193036	0.175176	0.015183
C47	C	-0.240142	0.200566	0.011644
C48	C	-0.171384	0.131663	0.016807
C49	C	-0.127943	0.108249	0.020070
C50	C	-0.106152	0.128348	0.021705
C51	C	0.128057	-0.148109	0.020073
C52	C	0.148079	-0.188283	0.016815
C53	C	0.189972	-0.208436	0.015180
C54	C	0.211683	-0.251990	0.011642
C55	C	0.211846	-0.188415	0.016807
C56	C	0.191827	-0.148249	0.020072
C57	C	0.149928	-0.128096	0.021702
C58	C	0.128063	0.171849	0.020088
C59	C	0.148085	0.195264	0.016828
C60	C	0.189980	0.175167	0.015195
C61	C	0.211690	0.200555	0.011658
C62	C	0.211850	0.131658	0.016817
C63	C	0.191827	0.108246	0.020075
C64	C	0.149933	0.128343	0.021714
C65	C	-0.059049	0.102958	0.025239
C66	C	-0.021502	0.082719	0.028058
C67	C	0.110923	0.082715	0.028063
C68	C	0.128227	0.102951	0.025247
C69	C	0.110921	-0.049820	0.028057
C70	C	0.128223	-0.084538	0.025238
C71	C	0.088946	0.431916	-0.406429
C72	C	0.046669	0.474478	-0.427667
C73	C	0.088946	0.431916	-0.342816
C74	C	0.046669	0.474478	-0.364151
C75	C	0.025334	0.495511	-0.406428
C76	C	0.110185	0.410980	-0.364151
C77	C	0.191987	0.317389	-0.445274
C78	C	0.212150	0.293976	-0.465296
C79	C	0.190413	0.314073	-0.507190
C80	C	0.212271	0.288683	-0.528899
C81	C	0.148513	0.357586	-0.529062
C82	C	0.128356	0.381000	-0.509042
C83	C	0.150094	0.360899	-0.467146
C84	C	-0.128067	0.637357	-0.509466
C85	C	-0.171509	0.677531	-0.529629
C86	C	-0.193303	0.697683	-0.507894
C87	C	-0.240406	0.741238	-0.529748
C88	C	-0.171650	0.677661	-0.465994
C89	C	-0.128209	0.637494	-0.445835
C90	C	-0.106420	0.617342	-0.467575
C91	C	0.191987	0.317389	-0.189414
C92	C	0.212148	0.293972	-0.145970
C93	C	0.190412	0.314069	-0.124177
C94	C	0.212269	0.288680	-0.077072
C95	C	0.148513	0.357579	-0.145828
C96	C	0.128354	0.380992	-0.189270
C97	C	0.150096	0.360896	-0.211061
C98	C	0.128231	0.386289	-0.445439
C99	C	0.110806	0.406526	-0.428136
C100	C	0.110806	0.406526	-0.295712
C101	C	0.128231	0.386289	-0.258166
C102	C	-0.021769	0.539065	-0.428286
C103	C	-0.059315	0.573784	-0.445711
O104	O	0.744326	0.179469	0.010375
O105	O	0.621309	0.251386	-0.010480
O106	O	0.693233	0.179476	0.061456
O107	O	0.672402	0.251379	-0.061561
O108	O	0.693232	0.237890	0.061451
O109	O	0.621307	0.309800	-0.010485
O110	O	0.744325	0.237883	0.010370
Cu111	Cu	0.682816	0.279175	-0.000058
Cu112	Cu	0.682818	0.210094	-0.000052
O113	O	0.672400	0.309793	-0.061566
O114	O	0.248318	0.733750	0.010374
O115	O	0.299401	0.631615	-0.010481
O116	O	0.299398	0.631605	0.061455
O117	O	0.248321	0.733760	-0.061562
O118	O	0.240969	0.631609	0.061449
O119	O	0.240972	0.631619	-0.010487
O120	O	0.189889	0.733755	0.010368
Cu121	Cu	0.210096	0.682687	-0.000060
Cu122	Cu	0.279195	0.682682	-0.000053
O123	O	0.189892	0.733764	-0.061568
O124	O	-0.378954	0.857637	-0.558456
O125	O	-0.255938	0.755495	-0.507376
O126	O	-0.327868	0.755492	-0.507369
O127	O	-0.307024	0.857640	-0.558463
O128	O	-0.327869	0.755493	-0.565797
O129	O	-0.255940	0.755496	-0.565803
O130	O	-0.378955	0.857639	-0.616884
Cu131	Cu	-0.317448	0.806568	-0.596678
Cu132	Cu	-0.317446	0.806566	-0.527581
O133	O	-0.307026	0.857642	-0.616890
O134	O	0.240987	0.237864	-0.616616
O135	O	0.189899	0.309779	-0.565534
O136	O	0.189901	0.237863	-0.565528
O137	O	0.240985	0.309779	-0.616622
O138	O	0.248327	0.179454	-0.507101
O139	O	0.248325	0.251369	-0.507107
O140	O	0.299413	0.179455	-0.558190
Cu141	Cu	0.279204	0.210079	-0.527313
Cu142	Cu	0.210109	0.279155	-0.596410
O143	O	0.299411	0.251370	-0.558195
C144	C	0.424692	0.039351	0.321712
C145	C	0.403357	0.060383	0.342952
C146	C	0.361079	0.102947	0.258101
C147	C	0.339841	0.123882	0.279437
C148	C	0.361080	0.102946	0.321714
C149	C	0.403356	0.060384	0.279435
C150	C	0.493444	-0.024221	0.321545
C151	C	0.536888	-0.064396	0.341568
C152	C	0.558677	-0.084545	0.383459
C153	C	0.605782	-0.128102	0.405170
C154	C	0.537026	-0.064526	0.405334
C155	C	0.493584	-0.024356	0.385313
C156	C	0.471795	-0.004203	0.343418
C157	C	0.361246	0.107941	0.385470
C158	C	0.341222	0.131217	0.405632
C159	C	0.299331	0.174730	0.383896
C160	C	0.277619	0.199971	0.405754
C161	C	0.277457	0.194972	0.341998
C162	C	0.297479	0.171696	0.321838
C163	C	0.339373	0.128183	0.343574
C164	C	0.361244	0.107943	0.189347
C165	C	0.341221	0.131223	0.145902
C166	C	0.299331	0.174737	0.124113
C167	C	0.277618	0.199978	0.077008
C168	C	0.277459	0.194978	0.145764
C169	C	0.297479	0.171702	0.189207
C170	C	0.339372	0.128184	0.210997
C171	C	0.708036	0.103006	0.321680
C172	C	0.708327	0.060446	0.342920
C173	C	0.708050	0.102996	0.258072
C174	C	0.708342	0.060435	0.279408
C175	C	0.708034	0.039409	0.321684
C176	C	0.708343	0.123936	0.279404
C177	C	0.702875	0.171907	0.321509
C178	C	0.699613	0.195325	0.341529
C179	C	0.697968	0.175235	0.383418
C180	C	0.694429	0.200625	0.405127
C181	C	0.699590	0.131724	0.405294
C182	C	0.702854	0.108306	0.385275
C183	C	0.704495	0.128400	0.343383
C184	C	0.702857	-0.024154	0.385438
C185	C	0.699593	-0.064326	0.405600
C186	C	0.697962	-0.084479	0.383866
C187	C	0.694422	-0.128034	0.405724
C188	C	0.699599	-0.064467	0.341970
C189	C	0.702865	-0.024298	0.321810
C190	C	0.704492	-0.004142	0.343544
C191	C	0.702904	0.171886	0.189319
C192	C	0.699650	0.195297	0.145875
C193	C	0.698020	0.175196	0.124089
C194	C	0.694496	0.200575	0.076986
C195	C	0.699640	0.131689	0.145740
C196	C	0.702892	0.108278	0.189182
C197	C	0.704524	0.128378	0.210970
C198	C	0.361050	0.386277	0.321686
C199	C	0.403328	0.365338	0.342927
C200	C	0.361055	0.449876	0.258076
C201	C	0.403332	0.428840	0.279414
C202	C	0.424665	0.386274	0.321691
C203	C	0.339814	0.428844	0.279410
C204	C	0.297293	0.381285	0.321516
C205	C	0.277129	0.358010	0.341538
C206	C	0.298863	0.314492	0.383428
C207	C	0.277004	0.289252	0.405138
C208	C	0.340761	0.294247	0.405305
C209	C	0.360923	0.317523	0.385285
C210	C	0.339189	0.361040	0.343391
C211	C	0.493415	0.317368	0.385448
C212	C	0.536859	0.293951	0.405612
C213	C	0.558649	0.314048	0.383877
C214	C	0.605754	0.288659	0.405736
C215	C	0.537000	0.357565	0.341979
C216	C	0.493559	0.380982	0.321818
C217	C	0.471768	0.360881	0.343552
C218	C	0.297302	0.513457	0.189322
C219	C	0.277144	0.553632	0.145876
C220	C	0.298883	0.573781	0.124090
C221	C	0.277028	0.617344	0.076985
C222	C	0.340779	0.553759	0.145741
C223	C	0.360939	0.513584	0.189185
C224	C	0.339198	0.493435	0.210973
C225	C	0.651261	0.495203	-0.406441
C226	C	0.650971	0.474165	-0.427676
C227	C	0.651248	0.431614	-0.342828
C228	C	0.650958	0.410673	-0.364160
C229	C	0.651265	0.431602	-0.406435
C230	C	0.650954	0.474176	-0.364165
C231	C	0.662779	0.637052	-0.445292
C232	C	0.666038	0.677226	-0.465316
C233	C	0.667682	0.697372	-0.507208
C234	C	0.671224	0.740926	-0.528918
C235	C	0.666064	0.677344	-0.529077
C236	C	0.662799	0.637178	-0.509055
C237	C	0.661157	0.617032	-0.467161
C238	C	0.662813	0.381231	-0.509460
C239	C	0.666076	0.357953	-0.529620
C240	C	0.667709	0.314436	-0.507883
C241	C	0.671254	0.289190	-0.529734
C242	C	0.666074	0.294201	-0.465985
C243	C	0.662804	0.317483	-0.445829
C244	C	0.661176	0.361000	-0.467572
C245	C	0.662728	0.381290	-0.189434
C246	C	0.665980	0.358020	-0.145992
C247	C	0.667612	0.314503	-0.124197
C248	C	0.671140	0.289269	-0.077094
C249	C	0.665995	0.294257	-0.145845
C250	C	0.662745	0.317526	-0.189286
C251	C	0.661108	0.361047	-0.211078
C252	C	0.657621	0.573474	-0.445453
C253	C	0.654801	0.538756	-0.428149
C254	C	0.654774	0.406384	-0.295727
C255	C	0.657584	0.386274	-0.258182
C256	C	0.654809	0.406359	-0.428290
C257	C	0.657633	0.386239	-0.445712
O258	O	0.672291	0.251460	0.492833
O259	O	0.693148	0.179538	0.441757
O260	O	0.621213	0.251461	0.441741
O261	O	0.744226	0.179538	0.492848
O262	O	0.621227	0.309865	0.383316
O263	O	0.693162	0.237942	0.383332
O264	O	0.672305	0.309864	0.434408
Cu265	Cu	0.682735	0.279235	0.403535
Cu266	Cu	0.682718	0.210167	0.472629
O267	O	0.744240	0.237941	0.434423
C268	C	0.025623	1.057377	-0.406453
C269	C	0.046960	1.078313	-0.427690
C270	C	0.089232	0.993774	-0.342838
C271	C	0.110474	1.014806	-0.364171
C272	C	0.089238	1.057373	-0.406448
C273	C	0.046955	1.014810	-0.364176
C274	C	-0.127781	1.107735	-0.445307
C275	C	-0.171222	1.131010	-0.465331
C276	C	-0.193012	1.174531	-0.507225
C277	C	-0.240117	1.199776	-0.528937
C278	C	-0.171357	1.194773	-0.529095
C279	C	-0.127917	1.171494	-0.509073
C280	C	-0.106129	1.127973	-0.467177
C281	C	0.128092	1.171901	-0.509480
C282	C	0.148117	1.195314	-0.529640
C283	C	0.190009	1.175217	-0.507903
C284	C	0.211723	1.200602	-0.529755
C285	C	0.211879	1.131700	-0.466003
C286	C	0.191858	1.108284	-0.445846
C287	C	0.149960	1.128392	-0.467589
C288	C	0.128067	0.851915	-0.189439
C289	C	0.148085	0.811741	-0.145996
C290	C	0.189979	0.791584	-0.124201
C291	C	0.211685	0.748025	-0.077096
C292	C	0.211852	0.811607	-0.145849
C293	C	0.191832	0.851782	-0.189291
C294	C	0.149940	0.871930	-0.211084
C295	C	-0.059026	1.102736	-0.445467
C296	C	-0.021480	1.082617	-0.428163
C297	C	0.110937	0.950215	-0.295735
C298	C	0.128237	0.915493	-0.258189
C299	C	0.110947	1.082762	-0.428304
C300	C	0.128252	1.102999	-0.445727
H301	H	0.305098	0.446466	-0.026108
H302	H	0.704187	-0.007750	0.403140
H303	H	0.130271	0.795443	-0.128371
F304	F	0.667704	0.379569	-0.122954
F305	F	0.660988	0.427607	-0.212626
H306	H	0.650481	0.376421	-0.347026
F307	F	0.215105	0.061940	0.021802
H308	H	-0.189130	0.115304	0.015477
F309	F	0.274161	0.492017	0.212510
H310	H	0.704178	0.072877	0.403088
H311	H	0.130267	-0.204580	0.015489
F312	F	0.232556	0.574939	0.122837
H313	H	0.395039	0.301034	0.403095
H314	H	0.395354	0.072508	0.207087
F315	F	0.124806	0.241571	0.015099
H316	H	0.145212	0.997195	-0.347041
H317	H	0.093951	0.188216	0.021422
H318	H	0.245959	-0.204829	0.015481
H319	H	0.359034	0.114738	0.128278
H320	H	0.698309	0.115323	0.127997
F321	F	0.274201	0.193245	0.212248
F322	F	0.667816	0.379490	-0.574207
H323	H	0.395357	0.072508	0.403172
H324	H	0.420479	0.331113	-0.026108
F325	F	0.704615	0.061974	0.212224
F326	F	0.405544	0.295999	-0.021887
F327	F	0.256440	0.790156	-0.122653
H328	H	0.698334	0.230720	0.128251
H329	H	0.708822	0.042832	0.262280
H330	H	0.475705	-0.007817	0.287434
H331	H	0.305088	0.446425	0.262269
H332	H	-0.110317	0.072820	0.021395
F333	F	0.697888	0.241629	0.318247
F334	F	0.559894	0.247641	0.450201
F335	F	-0.104880	0.615913	-0.532605
H336	H	0.279591	0.416722	0.287405
H337	H	0.359036	0.114729	0.439746
F338	F	0.470538	-0.003062	0.408597
H339	H	0.554511	-0.080691	0.323755
F340	F	-0.104612	0.193249	0.021819
F341	F	0.697853	-0.085621	0.450187
H342	H	0.554749	0.373927	0.324285
H343	H	0.245964	0.115294	0.015486
F344	F	0.024271	0.497468	-0.341752
H345	H	0.661431	0.301036	-0.206908
F346	F	0.083481	0.873359	-0.212632
H347	H	0.145191	-0.002837	0.032372
F348	F	0.470517	0.427298	0.277232
F349	F	0.425734	0.451881	-0.026271
H350	H	0.420486	0.042773	0.377691
H351	H	-0.110288	1.187976	-0.526882
F352	F	0.232541	0.379557	0.318255
F353	F	0.667805	0.247892	-0.442852
H354	H	0.661440	0.620654	-0.411181
F355	F	0.024283	0.497491	-0.473072
H356	H	0.661472	0.301005	-0.411717
H357	H	0.209645	0.868081	-0.206915
H358	H	0.358456	0.258810	0.439417
F359	F	0.232869	0.241286	0.318866
H360	H	0.246260	0.258541	-0.128343
H361	H	0.667400	0.693753	-0.563186
H362	H	0.144918	0.376722	-0.347020
F363	F	-0.194550	0.698835	-0.574218
F364	F	0.667762	0.698535	-0.442039
F365	F	0.232872	0.241294	0.122572
F366	F	0.232571	0.379565	-0.015171
F367	F	0.215107	-0.126946	0.021806
H368	H	0.698274	-0.080883	0.324276
F369	F	0.024575	1.123081	-0.473093
F370	F	0.667734	0.247940	-0.122649
F371	F	0.024547	-0.008242	0.032517
F372	F	0.560220	-0.085976	0.449921
H373	H	0.358495	0.258828	-0.015556
F374	F	0.083466	-0.126661	0.021805
F375	F	-0.104596	1.061417	-0.400719
F376	F	-0.194284	0.241579	0.015090
H377	H	0.209692	0.301021	-0.207154
F378	F	0.704642	0.193280	0.212506
H379	H	0.704198	-0.008006	0.287698
F380	F	0.215124	0.295993	-0.400685
H381	H	0.698251	0.115368	0.439404
F382	F	0.661074	0.615868	-0.532331
H383	H	0.246264	0.258547	-0.447485
H384	H	0.093979	1.188275	-0.527187
H385	H	0.420487	0.042779	0.262308
H386	H	0.395060	0.497312	-0.021502
H387	H	0.661484	0.416665	-0.527167
F388	F	0.024564	0.991803	-0.341790
F389	F	0.274200	0.193237	0.277249
F390	F	0.708947	0.037441	0.388322
H391	H	0.130820	0.373946	-0.563173
H392	H	0.358483	0.570194	-0.015588
H393	H	0.708815	0.158190	0.262272
F394	F	0.083767	0.427308	-0.532321
H395	H	-0.188850	1.114527	-0.447522
F396	F	0.470224	0.295975	0.408583
H397	H	0.029807	0.112511	0.032375
F398	F	0.650328	0.497185	-0.473086
H399	H	0.395053	0.497282	0.206813
H400	H	0.475696	0.416744	-0.021513
F401	F	0.425713	0.320569	0.388331
F402	F	-0.194547	1.241087	-0.573681
F403	F	-0.194842	0.699112	-0.442862
H404	H	-0.110581	0.621197	-0.411721
F405	F	0.560213	0.247962	-0.015172
F406	F	0.083764	0.427299	-0.212310
F407	F	0.559916	0.379584	-0.015198
F408	F	0.125373	0.378960	-0.122631
H409	H	0.305104	0.158132	0.262306
H410	H	0.704214	0.188270	0.287399
H411	H	0.420461	0.446445	0.262285
H412	H	0.358482	0.570166	0.127998
F413	F	0.650327	0.497186	-0.341779
F414	F	0.124840	1.241626	-0.574229
H415	H	0.245992	1.115333	-0.448306
H416	H	0.279614	0.416738	-0.021504
F417	F	0.274179	0.492026	-0.021913
F418	F	0.215134	1.061972	-0.401257
H419	H	0.475951	0.301068	-0.021491
F420	F	0.232566	0.574947	-0.015186
