data_functionalizedCrystal
_audit_creation_method	'MofGen! by Chris Wilmer'
_symmetry_space_group_name_H-M	'P1'
_symmetry_Int_Tables_number	1
_symmetry_cell_setting	triclinic
loop_
_symmetry_equiv_pos_as_xyz
  x,y,z
_cell_length_a	15.944551
_cell_length_b	15.944545
_cell_length_c	13.101039
_cell_angle_alpha	93.360364
_cell_angle_beta	86.646591
_cell_angle_gamma	83.497456
loop_
_atom_site_label
_atom_site_type_symbol
_atom_site_fract_x
_atom_site_fract_y
_atom_site_fract_z
O1	O	1.119137	0.103702	-0.085112
O2	O	0.874588	0.117057	-0.085138
O3	O	1.003543	-0.011895	-0.085112
O4	O	0.990182	0.232654	-0.085138
O5	O	0.994290	-0.002627	0.085316
O6	O	0.865336	0.126324	0.085290
O7	O	1.109884	0.112970	0.085316
Zn8	Zn	0.986141	0.121118	0.112362
Zn9	Zn	0.998332	0.108908	-0.112184
O10	O	0.980930	0.241922	0.085290
C11	C	0.838668	0.121136	0.000073
C12	C	0.745423	0.119473	0.000063
C13	C	0.530566	0.035570	0.000092
C14	C	0.474108	0.069963	-0.083942
C15	C	0.574696	0.116467	0.000076
C16	C	0.465008	0.079119	0.084087
C17	C	0.409783	0.113557	0.000092
C18	C	0.519469	0.150878	-0.084028
C19	C	0.510372	0.160027	0.084076
C20	C	0.453932	0.194478	0.000022
C21	C	0.669699	0.118141	0.000065
C22	C	0.314782	0.111889	0.000095
C23	C	0.998363	-0.038555	0.000103
C24	C	0.996702	-0.131801	0.000105
C25	C	0.911810	-0.402436	0.000076
C26	C	0.957301	-0.356419	-0.083950
C27	C	0.990783	-0.467447	0.000076
C28	C	0.948200	-0.347309	0.084078
C29	C	0.993687	-0.302532	0.000092
C30	C	1.036257	-0.422662	-0.084020
C31	C	1.027140	-0.413552	0.084084
C32	C	1.072690	-0.367569	0.000038
C33	C	0.989108	-0.562449	0.000066
C34	C	0.995369	-0.207533	0.000095
C35	C	1.145805	0.108890	0.000103
C36	C	1.239050	0.110553	0.000106
C37	C	0.986110	0.268582	0.000073
C38	C	0.987771	0.361828	0.000064
N39	N	0.977828	0.129451	0.265609
N40	N	1.006652	0.100569	-0.265431
C41	C	0.966517	0.140796	0.474649
C42	C	1.017960	0.089227	0.525535
C43	C	1.011666	0.095539	0.641853
C44	C	0.972809	0.134485	0.358322
H45	H	0.526646	0.198078	0.155117
C46	C	0.432663	0.038100	0.180063
C47	C	0.337759	0.029709	0.198128
C48	C	0.305418	-0.011317	0.294098
C49	C	0.367983	-0.043953	0.372003
C50	C	0.462893	-0.035563	0.353940
C51	C	0.495233	0.005464	0.257970
H52	H	0.291440	0.053869	0.140457
H53	H	0.235159	-0.017528	0.307469
H54	H	0.344042	-0.074323	0.443046
H55	H	0.509212	-0.059722	0.411612
H56	H	0.565493	0.011675	0.244599
C57	C	1.083849	0.023184	0.466381
C58	C	1.090093	0.016842	0.348382
C59	C	1.155982	-0.049194	0.289222
C60	C	1.215628	-0.108889	0.348062
C61	C	1.209387	-0.102550	0.466068
C62	C	1.143497	-0.036513	0.525228
H63	H	1.045937	0.061034	0.304819
H64	H	1.160602	-0.053887	0.201866
H65	H	1.264403	-0.157774	0.304269
H66	H	1.253542	-0.146741	0.509631
H67	H	1.138878	-0.031820	0.612584
C68	C	0.409129	0.285262	-0.000046
C69	C	0.345083	0.320701	0.088846
C70	C	0.300279	0.411483	0.088773
C71	C	0.319520	0.466827	-0.000194
C72	C	0.383568	0.431390	-0.089093
C73	C	0.428373	0.340607	-0.089020
H74	H	0.330837	0.279731	0.154711
H75	H	0.252865	0.437716	0.154582
H76	H	0.286353	0.534030	-0.000248
H77	H	0.397815	0.472359	-0.154958
H78	H	0.475786	0.314374	-0.154829
C79	C	0.900642	0.206847	0.533799
C80	C	0.893810	0.212600	0.651794
C81	C	0.827939	0.278653	0.710957
C82	C	0.768900	0.338953	0.652125
C83	C	0.775730	0.333202	0.534123
C84	C	0.841601	0.267149	0.474960
H85	H	0.937516	0.167960	0.695352
H86	H	0.822884	0.282910	0.798311
H87	H	0.720139	0.387849	0.695921
H88	H	0.732024	0.377842	0.490565
H89	H	0.846657	0.262892	0.387606
C90	C	0.575577	-0.055145	-0.000006
C91	C	0.523521	-0.130823	-0.000998
C92	C	0.568533	-0.221536	-0.001102
C93	C	0.665601	-0.236569	-0.000215
C94	C	0.717663	-0.160888	0.000777
C95	C	0.672651	-0.070176	0.000881
H96	H	0.451661	-0.119697	-0.001655
H97	H	0.529993	-0.277560	-0.001836
H98	H	0.698922	-0.303720	-0.000292
H99	H	0.789523	-0.172015	0.001434
H100	H	0.711191	-0.014152	0.001615
C101	C	1.164641	-0.346637	-0.000010
C102	C	1.192364	-0.290834	0.088891
C103	C	1.284314	-0.269900	0.088839
C104	C	1.348541	-0.304770	-0.000114
C105	C	1.320819	-0.360576	-0.089022
C106	C	1.228869	-0.381510	-0.088969
H107	H	1.144819	-0.265018	0.154745
H108	H	1.304835	-0.228588	0.154654
H109	H	1.416607	-0.289273	-0.000153
H110	H	1.368364	-0.386392	-0.154876
H111	H	1.208348	-0.422822	-0.154785
C112	C	0.452045	0.018494	-0.179834
C113	C	0.487171	-0.075539	-0.198230
C114	C	0.465065	-0.127028	-0.294082
C115	C	0.407833	-0.084484	-0.371536
C116	C	0.372704	0.009555	-0.353142
C117	C	0.394810	0.061044	-0.257290
H118	H	0.529540	-0.107038	-0.140892
H119	H	0.491070	-0.196642	-0.307698
H120	H	0.391469	-0.122599	-0.442491
H121	H	0.330334	0.041054	-0.410480
H122	H	0.368804	0.130658	-0.243674
H123	H	0.543317	0.181201	-0.155150
H124	H	0.843803	-0.418093	-0.000014
C125	C	0.917458	-0.322540	-0.179924
C126	C	0.824677	-0.333341	-0.198394
C127	C	0.784828	-0.299463	-0.294363
C128	C	0.837761	-0.254784	-0.371862
C129	C	0.930547	-0.243981	-0.353394
C130	C	0.970396	-0.277858	-0.257425
H131	H	0.785489	-0.366417	-0.141023
H132	H	0.716142	-0.307461	-0.308034
H133	H	0.808262	-0.229706	-0.442904
H134	H	0.969735	-0.210905	-0.410766
H135	H	1.039083	-0.269861	-0.243755
H136	H	1.056606	-0.438638	0.155133
H137	H	1.073445	-0.455336	-0.155136
C138	C	0.897922	-0.303031	0.180046
C139	C	0.803138	-0.311844	0.198472
C140	C	0.752854	-0.267568	0.294434
C141	C	0.797353	-0.214477	0.371970
C142	C	0.892141	-0.205661	0.353547
C143	C	0.942426	-0.249938	0.257585
H144	H	0.770193	-0.351147	0.141073
H145	H	0.682685	-0.274094	0.308071
H146	H	0.760129	-0.181701	0.443007
H147	H	0.925087	-0.166358	0.410946
H148	H	1.012595	-0.243411	0.243947
