data_functionalizedCrystal
_audit_creation_method	'MofGen! by Chris Wilmer'
_symmetry_space_group_name_H-M	'P1'
_symmetry_Int_Tables_number	1
_symmetry_cell_setting	triclinic
loop_
_symmetry_equiv_pos_as_xyz
  x,y,z
_cell_length_a	17.699083
_cell_length_b	22.610064
_cell_length_c	17.699083
_cell_angle_alpha	89.994649
_cell_angle_beta	96.716985
_cell_angle_gamma	90.009251
loop_
_atom_site_label
_atom_site_type_symbol
_atom_site_fract_x
_atom_site_fract_y
_atom_site_fract_z
O1	O	1.004088	0.049103	-0.095709
O2	O	1.337421	0.382436	0.237624
O3	O	1.670754	0.715769	0.570957
O4	O	0.783709	0.049122	-0.108162
O5	O	1.117043	0.382456	0.225171
O6	O	1.450376	0.715789	0.558505
O7	O	0.900125	0.049107	0.008253
O8	O	1.233458	0.382440	0.341587
O9	O	1.566792	0.715773	0.674920
O10	O	0.887672	0.049118	-0.212125
O11	O	1.221006	0.382452	0.121208
O12	O	1.554339	0.715785	0.454542
O13	O	0.900091	-0.049262	0.008254
O14	O	1.233424	0.284071	0.341587
O15	O	1.566757	0.617404	0.674920
O16	O	0.783675	-0.049247	-0.108162
O17	O	1.117009	0.284086	0.225172
O18	O	1.450342	0.617420	0.558505
O19	O	1.004054	-0.049266	-0.095709
O20	O	1.337387	0.284067	0.237624
O21	O	1.670720	0.617400	0.570957
Zn22	Zn	0.893859	-0.064875	-0.101936
Zn23	Zn	1.227192	0.268458	0.231398
Zn24	Zn	1.560526	0.601792	0.564731
Zn25	Zn	0.893904	0.064731	-0.101936
Zn26	Zn	1.227237	0.398064	0.231398
Zn27	Zn	1.560571	0.731397	0.564731
O28	O	0.887638	-0.049251	-0.212125
O29	O	1.220972	0.284082	0.121209
O30	O	1.554305	0.617416	0.454542
C31	C	0.755495	-0.000060	-0.107716
C32	C	1.088829	0.333274	0.225618
C33	C	1.422162	0.666607	0.558951
C34	C	0.671477	-0.000053	-0.106377
C35	C	1.004811	0.333281	0.226956
C36	C	1.338144	0.666614	0.560290
N37	N	0.893834	-0.153327	-0.101935
N38	N	1.227167	0.180006	0.231398
N39	N	1.560501	0.513339	0.564732
C40	C	0.622856	-0.000049	-0.174710
C41	C	0.956190	0.333284	0.158623
C42	C	1.289523	0.666618	0.491956
C43	C	0.543913	-0.000057	-0.173448
C44	C	0.877246	0.333276	0.159885
C45	C	1.210580	0.666610	0.493218
C46	C	0.513592	-0.000064	-0.103852
C47	C	0.846926	0.333270	0.229482
C48	C	1.180259	0.666603	0.562815
C49	C	0.562219	-0.000069	-0.035513
C50	C	0.895553	0.333264	0.297820
C51	C	1.228886	0.666598	0.631154
C52	C	0.641161	-0.000065	-0.036776
C53	C	0.974495	0.333268	0.296557
C54	C	1.307828	0.666601	0.629890
C55	C	0.243856	-0.000084	-0.030418
C56	C	0.577190	0.333250	0.302915
C57	C	0.910523	0.666583	0.636249
C58	C	0.164908	-0.000085	-0.029160
C59	C	0.498242	0.333248	0.304173
C60	C	0.831575	0.666581	0.637507
C61	C	0.146608	-0.000075	-0.167090
C62	C	0.479942	0.333258	0.166243
C63	C	0.813275	0.666591	0.499577
C64	C	0.225550	-0.000072	-0.168353
C65	C	0.558883	0.333262	0.164980
C66	C	0.892217	0.666595	0.498314
C67	C	0.274170	-0.000080	-0.100015
C68	C	0.607504	0.333253	0.233319
C69	C	0.940837	0.666587	0.566652
C70	C	0.359769	-0.000073	-0.101384
C71	C	0.693103	0.333261	0.231949
C72	C	1.026436	0.666594	0.565282
C73	C	0.427995	-0.000067	-0.102481
C74	C	0.761328	0.333267	0.230852
C75	C	1.094661	0.666600	0.564185
C76	C	0.939722	-0.561971	-0.147774
C77	C	1.273055	-0.228637	0.185559
C78	C	1.606388	0.104696	0.518892
C79	C	0.939731	-0.623890	-0.147773
C80	C	1.273065	-0.290557	0.185561
C81	C	1.606398	0.042776	0.518894
O82	O	0.978717	-0.655911	-0.186742
O83	O	1.312050	-0.322577	0.146592
O84	O	1.645383	0.010756	0.479925
N85	N	0.893919	-0.654864	-0.101927
N86	N	1.227252	-0.321531	0.231406
N87	N	1.560585	0.011802	0.564740
C88	C	0.848099	-0.623915	-0.056075
C89	C	1.181432	-0.290582	0.277259
C90	C	1.514766	0.042751	0.610592
O91	O	0.809133	-0.655947	-0.017079
O92	O	1.142467	-0.322613	0.316254
O93	O	1.475800	0.010720	0.649588
C94	C	0.848094	-0.561997	-0.056073
C95	C	1.181428	-0.228663	0.277260
C96	C	1.514761	0.104670	0.610594
C97	C	0.893904	-0.531026	-0.101927
C98	C	1.227237	-0.197692	0.231406
C99	C	1.560571	0.135641	0.564739
C100	C	0.985529	-0.531000	-0.193624
C101	C	1.318862	-0.197666	0.139709
C102	C	1.652195	0.135667	0.473042
C103	C	0.985518	-0.469084	-0.193627
C104	C	1.318851	-0.135751	0.139706
C105	C	1.652185	0.197583	0.473040
C106	C	0.939700	-0.438139	-0.147780
C107	C	1.273034	-0.104806	0.185553
C108	C	1.606367	0.228527	0.518887
C109	C	0.893893	-0.469110	-0.101930
C110	C	1.227227	-0.135777	0.231403
C111	C	1.560560	0.197557	0.564737
C112	C	0.802279	-0.531049	-0.010217
C113	C	1.135613	-0.197715	0.323116
C114	C	1.468946	0.135618	0.656449
C115	C	0.802279	-0.469126	-0.010219
C116	C	1.135612	-0.135792	0.323114
C117	C	1.468946	0.197541	0.656448
C118	C	0.848089	-0.438155	-0.056073
C119	C	1.181422	-0.104821	0.277260
C120	C	1.514755	0.228512	0.610593
C121	C	0.848065	-0.376250	-0.056086
C122	C	1.181398	-0.042916	0.277248
C123	C	1.514732	0.290417	0.610581
N124	N	0.893878	-0.345276	-0.101931
N125	N	1.227211	-0.011942	0.231402
N126	N	1.560544	0.321391	0.564736
C127	C	0.939695	-0.376220	-0.147778
C128	C	1.273029	-0.042887	0.185555
C129	C	1.606362	0.290446	0.518888
C130	C	0.848114	-0.753949	-0.056081
C131	C	1.181447	-0.420616	0.277253
C132	C	1.514781	-0.087282	0.610586
C133	C	0.848114	-0.815867	-0.056086
C134	C	1.181448	-0.482533	0.277247
C135	C	1.514781	-0.149200	0.610581
C136	C	0.939748	-0.815837	-0.147783
C137	C	1.273081	-0.482504	0.185551
C138	C	1.606414	-0.149171	0.518884
C139	C	0.939743	-0.753919	-0.147781
C140	C	1.273076	-0.420585	0.185552
C141	C	1.606409	-0.087252	0.518886
C142	C	0.893927	-0.722975	-0.101926
C143	C	1.227260	-0.389642	0.231407
C144	C	1.560593	-0.056308	0.564741
C145	C	0.939669	-0.246193	-0.147781
C146	C	1.273002	0.087140	0.185552
C147	C	1.606335	0.420474	0.518886
C148	C	0.939652	-0.184272	-0.147782
C149	C	1.272985	0.149061	0.185551
C150	C	1.606318	0.482395	0.518885
C151	C	0.848022	-0.184307	-0.056082
C152	C	1.181355	0.149027	0.277251
C153	C	1.514688	0.482360	0.610584
C154	C	0.848035	-0.246222	-0.056084
C155	C	1.181369	0.087111	0.277249
C156	C	1.514702	0.420444	0.610583
C157	C	0.893865	-0.277164	-0.101936
C158	C	1.227198	0.056169	0.231398
C159	C	1.560532	0.389503	0.564731
O160	O	0.809102	-0.344190	-0.017134
O161	O	1.142435	-0.010857	0.316199
O162	O	1.475769	0.322477	0.649533
O163	O	0.978662	-0.344181	-0.186760
O164	O	1.311995	-0.010848	0.146573
O165	O	1.645329	0.322485	0.479907
C166	C	1.032268	-0.000083	-0.096156
C167	C	1.365601	0.333250	0.237178
C168	C	1.698934	0.666584	0.570511
C169	C	1.116286	-0.000086	-0.097494
C170	C	1.449619	0.333247	0.235839
C171	C	1.782953	0.666580	0.569172
C172	C	0.899662	-0.000078	0.036451
C173	C	1.232995	0.333256	0.369784
C174	C	1.566328	0.666589	0.703117
C175	C	0.898323	-0.000078	0.120469
C176	C	1.231656	0.333255	0.453802
C177	C	1.564990	0.666589	0.787135
N178	N	0.893935	0.153183	-0.101930
N179	N	1.227268	0.486517	0.231403
N180	N	1.560602	0.819850	0.564736
C181	C	0.888102	-0.000065	-0.240322
C182	C	1.221435	0.333268	0.093011
C183	C	1.554768	0.666602	0.426345
C184	C	0.889440	-0.000061	-0.324340
C185	C	1.222773	0.333272	0.008993
C186	C	1.556107	0.666606	0.342327
C187	C	0.966656	-0.000085	0.169090
C188	C	1.299990	0.333248	0.502423
C189	C	1.633323	0.666582	0.835756
C190	C	0.965394	-0.000079	0.248033
C191	C	1.298727	0.333254	0.581366
C192	C	1.632061	0.666587	0.914700
C193	C	0.895798	-0.000071	0.278354
C194	C	1.229131	0.333262	0.611687
C195	C	1.562464	0.666595	0.945020
C196	C	0.827459	-0.000063	0.229727
C197	C	1.160792	0.333271	0.563060
C198	C	1.494126	0.666604	0.896393
C199	C	0.828722	-0.000064	0.150785
C200	C	1.162055	0.333269	0.484118
C201	C	1.495389	0.666603	0.817451
C202	C	0.822364	-0.000058	0.548090
C203	C	1.155697	0.333276	0.881423
C204	C	1.489030	0.666609	1.214756
C205	C	0.821106	-0.000058	0.627038
C206	C	1.154439	0.333275	0.960371
C207	C	1.487773	0.666608	1.293704
C208	C	0.959036	-0.000073	0.645338
C209	C	1.292369	0.333260	0.978671
C210	C	1.625702	0.666594	1.312004
C211	C	0.960299	-0.000074	0.566396
C212	C	1.293632	0.333259	0.899729
C213	C	1.626966	0.666592	1.233063
C214	C	0.891961	-0.000062	0.517776
C215	C	1.225294	0.333271	0.851109
C216	C	1.558627	0.666604	1.184442
C217	C	0.893330	-0.000067	0.432177
C218	C	1.226664	0.333266	0.765510
C219	C	1.559997	0.666600	1.098843
C220	C	0.894427	-0.000071	0.363951
C221	C	1.227761	0.333262	0.697285
C222	C	1.561094	0.666596	1.030618
H223	H	0.647537	-0.000043	-0.231384
H224	H	0.980870	0.333290	0.101949
H225	H	1.314203	0.666624	0.435283
F226	F	0.988514	-0.848782	-0.196575
F227	F	1.321848	-0.515449	0.136759
F228	F	1.655181	-0.182115	0.470092
F229	F	0.492170	-0.000051	-0.246178
F230	F	0.825503	0.333283	0.087155
F231	F	1.158837	0.666616	0.420488
H232	H	0.250232	-0.000063	-0.225025
H233	H	0.583566	0.333270	0.108308
H234	H	0.916899	0.666603	0.441641
H235	H	0.283434	-0.000091	0.025228
H236	H	0.616767	0.333242	0.358561
H237	H	0.950101	0.666576	0.691894
H238	H	1.021038	-0.000086	0.287618
H239	H	1.354372	0.333247	0.620951
H240	H	1.687705	0.666580	0.954284
F241	F	0.799346	-0.848821	-0.007292
F242	F	1.132679	-0.515488	0.326041
F243	F	1.466013	-0.182155	0.659374
F244	F	0.755992	-0.000055	0.099039
F245	F	1.089326	0.333279	0.432372
F246	F	1.422659	0.666612	0.765705
H247	H	1.022843	-0.556188	-0.230959
H248	H	1.356176	-0.222855	0.102375
H249	H	1.689509	0.110478	0.435708
F250	F	1.040732	-0.000099	0.136828
F251	F	1.374065	0.333234	0.470161
F252	F	1.707398	0.666568	0.803494
F253	F	1.034373	-0.000082	0.534131
F254	F	1.367706	0.333251	0.867464
F255	F	1.701039	0.666585	1.200798
H256	H	0.107012	-0.000072	-0.222734
H257	H	0.440345	0.333262	0.110599
H258	H	0.773678	0.666595	0.443933
H259	H	1.014680	-0.000080	0.684934
H260	H	1.348013	0.333254	1.018268
H261	H	1.681347	0.666587	1.351601
F262	F	0.132641	-0.000093	0.044918
F263	F	0.465975	0.333240	0.378251
F264	F	0.799308	0.666574	0.711584
H265	H	0.764977	-0.556254	0.027123
H266	H	1.098310	-0.222921	0.360457
H267	H	1.431644	0.110412	0.693790
H268	H	0.977045	-0.728706	-0.185120
H269	H	1.310378	-0.395373	0.148213
H270	H	1.643711	-0.062040	0.481546
H271	H	0.810716	-0.159100	-0.018757
H272	H	1.144049	0.174233	0.314576
H273	H	1.477383	0.507567	0.647910
H274	H	0.764429	-0.000053	0.651721
H275	H	1.097762	0.333280	0.985054
H276	H	1.431096	0.666614	1.318388
H277	H	0.766718	-0.000048	0.508512
H278	H	1.100052	0.333285	0.841845
H279	H	1.433385	0.666619	1.175179
H280	H	0.537526	-0.000083	0.021154
H281	H	0.870859	0.333250	0.354487
H282	H	1.204193	0.666584	0.687820
F283	F	0.692907	-0.000071	0.035954
F284	F	1.026241	0.333262	0.369287
F285	F	1.359574	0.666596	0.702620
H286	H	0.976955	-0.159058	-0.185126
H287	H	1.310289	0.174275	0.148208
H288	H	1.643622	0.507608	0.481541
H289	H	0.770792	-0.000053	0.254420
H290	H	1.104126	0.333281	0.587753
H291	H	1.437459	0.666614	0.921087
F292	F	0.988446	-0.279115	-0.196581
F293	F	1.321779	0.054218	0.136752
F294	F	1.655113	0.387552	0.470086
H295	H	1.022824	-0.443873	-0.230963
H296	H	1.356158	-0.110540	0.102370
H297	H	1.689491	0.222794	0.435704
F298	F	0.799339	-0.721022	-0.007280
F299	F	1.132672	-0.387688	0.326053
F300	F	1.466006	-0.054355	0.659387
H301	H	0.764970	-0.443934	0.027123
H302	H	1.098303	-0.110601	0.360456
H303	H	1.431636	0.222732	0.693790
F304	F	0.799272	-0.279185	-0.007289
F305	F	1.132606	0.054149	0.326045
F306	F	1.465939	0.387482	0.659378
