data_functionalizedCrystal
_audit_creation_method	'MofGen! by Chris Wilmer'
_symmetry_space_group_name_H-M	'P1'
_symmetry_Int_Tables_number	1
_symmetry_cell_setting	triclinic
loop_
_symmetry_equiv_pos_as_xyz
  x,y,z
_cell_length_a	11.792254
_cell_length_b	11.792241
_cell_length_c	10.868271
_cell_angle_alpha	89.994263
_cell_angle_beta	90.000615
_cell_angle_gamma	95.803993
loop_
_atom_site_label
_atom_site_type_symbol
_atom_site_fract_x
_atom_site_fract_y
_atom_site_fract_z
O1	O	1.506894	-0.155638	0.102322
O2	O	2.006894	0.344362	0.602322
O3	O	1.176555	-0.171656	0.102324
O4	O	1.676555	0.328344	0.602324
O5	O	1.349741	0.001523	0.102314
O6	O	1.849741	0.501523	0.602314
O7	O	1.333708	-0.328817	0.102332
O8	O	1.833708	0.171183	0.602332
O9	O	1.349738	0.001532	-0.102330
O10	O	1.849738	0.501532	0.397670
O11	O	1.176552	-0.171647	-0.102320
O12	O	1.676552	0.328353	0.397680
O13	O	1.506892	-0.155629	-0.102323
O14	O	2.006892	0.344371	0.397677
Zn15	Zn	1.341722	-0.163636	-0.134813
Zn16	Zn	1.841722	0.336364	0.365187
Zn17	Zn	1.341724	-0.163649	0.134815
Zn18	Zn	1.841724	0.336351	0.634815
O19	O	1.333706	-0.328808	-0.102313
O20	O	1.833706	0.171192	0.397687
C21	C	1.134263	-0.170642	0.000002
C22	C	1.634263	0.329358	0.500002
C23	C	1.008250	-0.167622	0.000003
C24	C	1.508250	0.332378	0.500003
C25	C	0.905913	-0.165168	0.000008
C26	C	1.405913	0.334832	0.500008
C27	C	0.777527	-0.162100	0.000009
C28	C	1.277527	0.337900	0.500009
C29	C	1.348732	0.043819	-0.000008
C30	C	1.848732	0.543819	0.499992
C31	C	1.345718	0.169832	-0.000006
C32	C	1.845718	0.669832	0.499994
C33	C	1.549183	-0.156643	0.000002
C34	C	2.049183	0.343357	0.500002
C35	C	1.675196	-0.159663	0.000009
C36	C	2.175196	0.340337	0.500009
C37	C	1.334714	-0.371104	0.000012
C38	C	1.834714	0.128896	0.500012
C39	C	1.337728	-0.497118	0.000019
C40	C	1.837728	0.002882	0.500019
N41	N	1.341728	-0.163627	-0.318827
N42	N	1.841728	0.336373	0.181173
C43	C	1.340175	0.400545	0.000014
C44	C	1.840175	0.900545	0.500014
C45	C	1.343255	0.272160	0.000003
C46	C	1.843255	0.772160	0.500003
N47	N	1.341727	-0.163649	0.318829
N48	N	1.841727	0.336351	0.818829
C49	C	1.341724	-0.163642	0.569835
C50	C	1.841724	0.336358	1.069835
C51	C	1.341722	-0.163650	0.430157
C52	C	1.841722	0.336350	0.930157
