data_functionalizedCrystal
_audit_creation_method	'MofGen! by Chris Wilmer'
_symmetry_space_group_name_H-M	'P1'
_symmetry_Int_Tables_number	1
_symmetry_cell_setting	triclinic
loop_
_symmetry_equiv_pos_as_xyz
  x,y,z
_cell_length_a	19.077105
_cell_length_b	19.121063
_cell_length_c	19.076919
_cell_angle_alpha	85.393653
_cell_angle_beta	89.923776
_cell_angle_gamma	90.263052
loop_
_atom_site_label
_atom_site_type_symbol
_atom_site_fract_x
_atom_site_fract_y
_atom_site_fract_z
Zn1	Zn	1.043169	-0.339734	0.454309
Zn2	Zn	1.376503	-0.006401	0.787643
Zn3	Zn	1.709836	0.326933	1.120976
Zn4	Zn	1.042790	-0.452646	0.341419
Zn5	Zn	1.376124	-0.119312	0.674753
Zn6	Zn	1.709457	0.214021	1.008086
Zn7	Zn	0.930805	-0.330327	0.331718
Zn8	Zn	1.264139	0.003007	0.665051
Zn9	Zn	1.597472	0.336340	0.998385
Zn10	Zn	0.920631	-0.452222	0.454155
Zn11	Zn	1.253964	-0.118889	0.787488
Zn12	Zn	1.587297	0.214445	1.120821
O13	O	0.984349	-0.393732	0.395400
O14	O	1.317682	-0.060399	0.728734
O15	O	1.651015	0.272935	1.062067
O16	O	1.141268	-0.358826	0.443459
O17	O	1.474601	-0.025493	0.776792
O18	O	1.807934	0.307840	1.110126
O19	O	1.032035	-0.432660	0.241647
O20	O	1.365368	-0.099327	0.574981
O21	O	1.698701	0.234007	0.908314
O22	O	0.950127	-0.233307	0.343985
O23	O	1.283460	0.100026	0.677318
O24	O	1.616794	0.433360	1.010651
O25	O	1.140989	-0.441782	0.360519
O26	O	1.474323	-0.108449	0.693853
O27	O	1.807656	0.224885	1.027186
O28	O	1.032681	-0.240219	0.434052
O29	O	1.366014	0.093115	0.767385
O30	O	1.699347	0.426448	1.100719
O31	O	0.949760	-0.342793	0.234520
O32	O	1.283093	-0.009459	0.567853
O33	O	1.616426	0.323874	0.901187
O34	O	0.831307	-0.342382	0.343835
O35	O	1.164640	-0.009049	0.677168
O36	O	1.497973	0.324285	1.010501
O37	O	0.932786	-0.441060	0.552660
O38	O	1.266120	-0.107727	0.885993
O39	O	1.599453	0.225607	1.219327
O40	O	0.823831	-0.431938	0.433788
O41	O	1.157165	-0.098605	0.767122
O42	O	1.490498	0.234729	1.100455
O43	O	1.022815	-0.358416	0.552774
O44	O	1.356148	-0.025082	0.886107
O45	O	1.689481	0.308251	1.219440
O46	O	1.022169	-0.550857	0.360369
O47	O	1.355502	-0.217524	0.693703
O48	O	1.688836	0.115810	1.027036
O49	O	0.932419	-0.550546	0.443195
O50	O	1.265752	-0.217212	0.776529
O51	O	1.599085	0.116121	1.109862
C52	C	0.802120	-0.386094	0.387742
C53	C	1.135453	-0.052760	0.721076
C54	C	1.468787	0.280573	1.054409
C55	C	0.724160	-0.382844	0.384484
C56	C	1.057494	-0.049510	0.717817
C57	C	1.390827	0.283823	1.051150
C58	C	0.683661	-0.428009	0.429719
C59	C	1.016995	-0.094676	0.763052
C60	C	1.350328	0.238658	1.096386
C61	C	0.610410	-0.424946	0.426660
C62	C	0.943743	-0.091613	0.759993
C63	C	1.277077	0.241721	1.093327
C64	C	0.577659	-0.376721	0.378362
C65	C	0.910993	-0.043387	0.711695
C66	C	1.244326	0.289946	1.045029
C67	C	0.618164	-0.331551	0.333125
C68	C	0.951497	0.001783	0.666458
C69	C	1.284831	0.335116	0.999792
C70	C	0.691414	-0.334611	0.336188
C71	C	1.024747	-0.001277	0.669521
C72	C	1.358081	0.332056	1.002854
C73	C	0.359002	-0.362559	0.364190
C74	C	0.692335	-0.029225	0.697524
C75	C	1.025668	0.304108	1.030857
C76	C	0.285746	-0.359503	0.361130
C77	C	0.619080	-0.026170	0.694463
C78	C	0.952413	0.307163	1.027796
C79	C	0.277998	-0.452898	0.454666
C80	C	0.611331	-0.119565	0.787999
C81	C	0.944664	0.213769	1.121333
C82	C	0.351249	-0.455957	0.457722
C83	C	0.684582	-0.122623	0.791055
C84	C	1.017916	0.210710	1.124388
C85	C	0.391747	-0.410784	0.412487
C86	C	0.725081	-0.077451	0.745820
C87	C	1.058414	0.255882	1.079154
N88	N	0.502785	-0.373590	0.375233
N89	N	0.836118	-0.040257	0.708566
N90	N	1.169452	0.293076	1.041899
N91	N	0.466620	-0.413912	0.415620
N92	N	0.799954	-0.080578	0.748954
N93	N	1.133287	0.252755	1.082287
C94	C	0.976167	-0.576182	0.402834
C95	C	1.309500	-0.242849	0.736168
C96	C	1.642834	0.090484	1.069501
C97	C	0.972730	-0.654239	0.406041
C98	C	1.306063	-0.320906	0.739374
C99	C	1.639397	0.012428	1.072708
C100	C	1.017877	-0.691052	0.364463
C101	C	1.351210	-0.357718	0.697796
C102	C	1.684543	-0.024385	1.031130
C103	C	1.014648	-0.764395	0.367483
C104	C	1.347981	-0.431061	0.700816
C105	C	1.681315	-0.097728	1.034150
C106	C	0.966269	-0.800923	0.412078
C107	C	1.299602	-0.467590	0.745411
C108	C	1.632936	-0.134256	1.078745
C109	C	0.921120	-0.764105	0.453660
C110	C	1.254454	-0.430772	0.786994
C111	C	1.587787	-0.097439	1.120327
C112	C	0.924353	-0.690764	0.450644
C113	C	1.257686	-0.357431	0.783977
C114	C	1.591020	-0.024097	1.117310
C115	C	0.954173	-1.022359	0.423346
C116	C	1.287506	-0.689026	0.756679
C117	C	1.620840	-0.355693	1.090012
C118	C	0.950942	-1.095705	0.426358
C119	C	1.284276	-0.762372	0.759691
C120	C	1.617609	-0.429039	1.093025
C121	C	1.044471	-1.095990	0.340181
C122	C	1.377805	-0.762656	0.673514
C123	C	1.711138	-0.429323	1.006848
C124	C	1.047697	-1.022647	0.337165
C125	C	1.381030	-0.689314	0.670498
C126	C	1.714363	-0.355980	1.003832
C127	C	1.002551	-0.985836	0.378750
C128	C	1.335884	-0.652502	0.712084
C129	C	1.669217	-0.319169	1.045417
C130	C	0.962966	-0.875891	0.415164
C131	C	1.296300	-0.542558	0.748498
C132	C	1.629633	-0.209224	1.081831
C133	C	1.005857	-0.910869	0.375667
C134	C	1.339191	-0.577536	0.709000
C135	C	1.672524	-0.244203	1.042334
C136	C	1.167289	-0.401401	0.403088
C137	C	1.500622	-0.068067	0.736422
C138	C	1.833956	0.265266	1.069755
C139	C	1.245247	-0.404669	0.406365
C140	C	1.578581	-0.071335	0.739698
C141	C	1.911914	0.261998	1.073031
C142	C	0.976708	-0.400740	0.578967
C143	C	1.310041	-0.067407	0.912300
C144	C	1.643375	0.265927	1.245634
C145	C	0.973452	-0.403726	0.657192
C146	C	1.306785	-0.070393	0.990526
C147	C	1.640118	0.262940	1.323859
C148	C	0.992581	-0.210571	0.387953
C149	C	1.325914	0.122763	0.721287
C150	C	1.659248	0.456096	1.054620
C151	C	0.996089	-0.132518	0.384780
C152	C	1.329422	0.200815	0.718113
C153	C	1.662756	0.534149	1.051447
C154	C	0.992003	-0.386702	0.212547
C155	C	1.325336	-0.053369	0.545881
C156	C	1.658669	0.279964	0.879214
C157	C	0.995403	-0.383524	0.134320
C158	C	1.328737	-0.050191	0.467653
C159	C	1.662070	0.283143	0.800987
C160	C	1.018793	-0.362103	0.694003
C161	C	1.352126	-0.028769	1.027336
C162	C	1.685459	0.304564	1.360670
C163	C	1.015725	-0.364906	0.767503
C164	C	1.349058	-0.031572	1.100837
C165	C	1.682391	0.301761	1.434170
C166	C	0.967319	-0.409336	0.804192
C167	C	1.300652	-0.076003	1.137525
C168	C	1.633986	0.257330	1.470859
C169	C	0.921973	-0.450962	0.767376
C170	C	1.255306	-0.117628	1.100709
C171	C	1.588640	0.215705	1.434043
C172	C	0.925038	-0.448154	0.693877
C173	C	1.258371	-0.114821	1.027210
C174	C	1.591705	0.218512	1.360543
C175	C	0.953123	-0.422342	1.024005
C176	C	1.286456	-0.089009	1.357338
C177	C	1.619789	0.244325	1.690672
C178	C	0.950063	-0.425148	1.097510
C179	C	1.283396	-0.091814	1.430843
C180	C	1.616729	0.241519	1.764176
C181	C	1.043814	-0.339090	1.097632
C182	C	1.377147	-0.005757	1.430965
C183	C	1.710480	0.327576	1.764298
C184	C	1.046877	-0.336290	1.024131
C185	C	1.380211	-0.002957	1.357464
C186	C	1.713544	0.330376	1.690798
C187	C	1.001529	-0.377913	0.987321
C188	C	1.334862	-0.044579	1.320655
C189	C	1.668196	0.288754	1.653988
N190	N	0.964183	-0.412204	0.879321
N191	N	1.297517	-0.078871	1.212655
N192	N	1.630850	0.254463	1.545988
N193	N	1.004662	-0.375041	0.912193
N194	N	1.337995	-0.041707	1.245526
N195	N	1.671328	0.291626	1.578860
H196	H	0.377909	-0.495228	0.497049
H197	H	0.711243	-0.161895	0.830383
H198	H	1.044576	0.171438	1.163716
N199	N	0.252282	-0.310246	0.311792
N200	N	0.585616	0.023088	0.645126
N201	N	0.918949	0.356421	0.978459
N202	N	0.212165	-0.331464	0.266199
N203	N	0.545498	0.001870	0.599532
N204	N	0.878832	0.335203	0.932865
H205	H	0.188530	-0.296679	0.231354
H206	H	0.521863	0.036654	0.564688
H207	H	0.855197	0.369988	0.898021
H208	H	1.051411	-0.794364	0.333625
H209	H	1.384744	-0.461031	0.666959
H210	H	1.718077	-0.127698	1.000292
H211	H	1.080733	-0.305203	1.127610
H212	H	1.414066	0.028131	1.460943
H213	H	1.747399	0.361464	1.794277
N214	N	0.400353	-0.316417	0.317977
N215	N	0.733686	0.016916	0.651310
N216	N	1.067019	0.350250	0.984644
N217	N	0.371100	-0.273367	0.274854
N218	N	0.704433	0.059966	0.608188
N219	N	1.037766	0.393299	0.941521
H220	H	0.400306	-0.240779	0.242211
H221	H	0.733639	0.092555	0.575545
H222	H	1.066972	0.425888	0.908878
H223	H	0.917412	-0.992393	0.457205
H224	H	1.250745	-0.659060	0.790538
H225	H	1.584079	-0.325726	1.123871
N226	N	0.584701	-0.282288	0.283799
N227	N	0.918035	0.051045	0.617132
N228	N	1.251368	0.384378	0.950465
N229	N	0.519300	-0.279562	0.281069
N230	N	0.852633	0.053771	0.614402
N231	N	1.185967	0.387105	0.947736
H232	H	0.495667	-0.244770	0.246231
H233	H	0.829000	0.088563	0.579564
H234	H	1.162334	0.421896	0.912897
N235	N	0.872516	-0.496330	0.804856
N236	N	1.205850	-0.162996	1.138190
N237	N	1.539183	0.170337	1.471523
N238	N	0.827229	-0.471304	0.842983
N239	N	1.160562	-0.137971	1.176316
N240	N	1.493896	0.195363	1.509650
H241	H	0.792299	-0.503344	0.869455
H242	H	1.125632	-0.170011	1.202788
H243	H	1.458966	0.163322	1.536122
N244	N	1.097117	-0.985347	0.291606
N245	N	1.430450	-0.652014	0.624939
N246	N	1.763783	-0.318680	0.958272
N247	N	1.137423	-1.018225	0.254485
N248	N	1.470756	-0.684891	0.587818
N249	N	1.804090	-0.351558	0.921151
H250	H	1.172325	-0.991882	0.222305
H251	H	1.505659	-0.658549	0.555638
H252	H	1.838992	-0.325215	0.888972
H253	H	1.057269	-0.661315	0.328146
H254	H	1.390602	-0.327982	0.661479
H255	H	1.723936	0.005352	0.994813
N256	N	1.096333	-0.290908	0.986668
N257	N	1.429667	0.042426	1.320001
N258	N	1.763000	0.375759	1.653335
N259	N	1.136816	-0.253749	1.019544
N260	N	1.470150	0.079584	1.352878
N261	N	1.803483	0.412917	1.686211
H262	H	1.171749	-0.221700	0.993087
H263	H	1.505083	0.111633	1.326420
H264	H	1.838416	0.444966	1.659754
N265	N	0.900589	-0.470515	1.134975
N266	N	1.233922	-0.137182	1.468308
N267	N	1.567255	0.196151	1.801641
N268	N	0.860088	-0.507658	1.102101
N269	N	1.193422	-0.174325	1.435434
N270	N	1.526755	0.159009	1.768767
H271	H	0.825141	-0.539689	1.128559
H272	H	1.158474	-0.206356	1.461893
H273	H	1.491808	0.126977	1.795226
N274	N	0.732775	-0.288464	0.289983
N275	N	1.066108	0.044869	0.623316
N276	N	1.399441	0.378202	0.956649
N277	N	0.703527	-0.245406	0.246865
N278	N	1.036860	0.087928	0.580198
N279	N	1.370193	0.421261	0.913532
H280	H	0.732737	-0.212809	0.214234
H281	H	1.066070	0.120524	0.547567
H282	H	1.399403	0.453857	0.880900
N283	N	0.878725	-0.490663	0.656261
N284	N	1.212059	-0.157330	0.989595
N285	N	1.545392	0.176003	1.322928
N286	N	0.836855	-0.462512	0.612363
N287	N	1.170188	-0.129178	0.945696
N288	N	1.503521	0.204155	1.279029
H289	H	0.804143	-0.492532	0.585796
H290	H	1.137476	-0.159198	0.919129
H291	H	1.470809	0.174135	1.252462
H292	H	1.081228	-1.125969	0.306326
H293	H	1.414561	-0.792636	0.639659
H294	H	1.747894	-0.459303	0.972992
H295	H	0.911554	-1.125446	0.462685
H296	H	1.244888	-0.792112	0.796018
H297	H	1.578221	-0.458779	1.129352
N298	N	0.871691	-0.801404	0.499210
N299	N	1.205025	-0.468071	0.832543
N300	N	1.538358	-0.134738	1.165877
N301	N	0.831383	-0.768524	0.536327
N302	N	1.164716	-0.435191	0.869661
N303	N	1.498050	-0.101858	1.202994
H304	H	0.796470	-0.794865	0.568496
H305	H	1.129803	-0.461531	0.901829
H306	H	1.463136	-0.128198	1.235162
H307	H	0.887591	-0.660792	0.484502
H308	H	1.220924	-0.327458	0.817835
H309	H	1.554257	0.005875	1.151168
H310	H	1.045250	-0.881126	0.339361
H311	H	1.378583	-0.547793	0.672694
H312	H	1.711917	-0.214459	1.006027
N313	N	0.913546	-0.913218	0.460702
N314	N	1.246879	-0.579885	0.794035
N315	N	1.580213	-0.246551	1.127369
N316	N	0.868107	-0.951379	0.435704
N317	N	1.201441	-0.618046	0.769038
N318	N	1.534774	-0.284712	1.102371
H319	H	0.833205	-0.977745	0.467865
H320	H	1.166538	-0.644412	0.801199
H321	H	1.499872	-0.311079	1.134532
N322	N	1.068247	-0.316718	0.656541
N323	N	1.401581	0.016616	0.989874
N324	N	1.734914	0.349949	1.323207
N325	N	1.108725	-0.279557	0.689420
N326	N	1.442059	0.053777	1.022753
N327	N	1.775392	0.387110	1.356087
H328	H	1.143653	-0.247501	0.662965
H329	H	1.476987	0.085833	0.996298
H330	H	1.810320	0.419166	1.329631
N331	N	1.062044	-0.322383	0.805093
N332	N	1.395378	0.010950	1.138427
N333	N	1.728711	0.344284	1.471760
N334	N	1.105264	-0.282720	0.772328
N335	N	1.438598	0.050613	1.105661
N336	N	1.771931	0.383947	1.438994
H337	H	1.137980	-0.252686	0.798875
H338	H	1.471314	0.080647	1.132208
H339	H	1.804647	0.413981	1.465541
N340	N	0.906798	-0.464862	0.986422
N341	N	1.240131	-0.131529	1.319755
N342	N	1.573464	0.201805	1.653089
N343	N	0.863584	-0.504530	1.019191
N344	N	1.196918	-0.171196	1.352524
N345	N	1.530251	0.162137	1.685858
H346	H	0.830865	-0.534562	0.992646
H347	H	1.164198	-0.201229	1.325980
H348	H	1.497532	0.132104	1.659313
H349	H	0.710321	-0.467281	0.469046
H350	H	1.043654	-0.133948	0.802379
H351	H	1.376988	0.199385	1.135713
H352	H	0.245016	-0.489674	0.491494
H353	H	0.578350	-0.156340	0.824828
H354	H	0.911683	0.176993	1.158161
N355	N	0.569052	-0.471082	0.472876
N356	N	0.902385	-0.137749	0.806209
N357	N	1.235719	0.195584	1.139543
N358	N	0.598302	-0.514138	0.515995
N359	N	0.931635	-0.180805	0.849328
N360	N	1.264969	0.152529	1.182661
H361	H	0.569093	-0.546723	0.548639
H362	H	0.902427	-0.213390	0.881972
H363	H	1.235760	0.119943	1.215305
