data_functionalizedCrystal
_audit_creation_method	'MofGen! by Chris Wilmer'
_symmetry_space_group_name_H-M	'P1'
_symmetry_Int_Tables_number	1
_symmetry_cell_setting	triclinic
loop_
_symmetry_equiv_pos_as_xyz
  x,y,z
_cell_length_a	27.732064
_cell_length_b	26.809956
_cell_length_c	27.732048
_cell_angle_alpha	89.990422
_cell_angle_beta	97.353960
_cell_angle_gamma	90.008415
loop_
_atom_site_label
_atom_site_type_symbol
_atom_site_fract_x
_atom_site_fract_y
_atom_site_fract_z
O1	O	0.640930	0.041396	-0.057554
O2	O	0.500138	0.041417	-0.066291
O3	O	0.574907	0.041396	0.008474
O4	O	0.566161	0.041417	-0.132319
O5	O	0.574884	-0.041563	0.008474
O6	O	0.500115	-0.041542	-0.066291
O7	O	0.640907	-0.041563	-0.057554
Zn8	Zn	0.570507	-0.054724	-0.061923
Zn9	Zn	0.570538	0.054578	-0.061923
O10	O	0.566138	-0.041543	-0.132319
C11	C	0.482120	-0.000060	-0.066106
C12	C	0.428465	-0.000052	-0.065551
N13	N	0.570490	-0.129320	-0.061922
C14	C	0.051392	-0.000087	-0.017583
C15	C	0.253053	-0.000074	-0.019630
O16	O	0.284305	-0.000098	0.017591
N17	N	0.272180	-0.000066	-0.063964
C18	C	0.240889	-0.000064	-0.107790
O19	O	0.261785	-0.000061	-0.145546
C20	C	0.039230	-0.000080	-0.105743
C21	C	0.020105	-0.000084	-0.061406
C22	C	0.032267	-0.000092	0.026750
C23	C	-0.018145	-0.000092	0.027261
C24	C	-0.049432	-0.000089	-0.016561
C25	C	-0.030307	-0.000085	-0.060895
C26	C	0.007940	-0.000082	-0.149568
C27	C	-0.042478	-0.000087	-0.149053
C28	C	-0.061602	-0.000091	-0.104716
C29	C	-0.112006	-0.000082	-0.104206
N30	N	-0.131134	-0.000090	-0.059872
C31	C	-0.099846	-0.000094	-0.016049
C32	C	0.346763	-0.000054	-0.108861
C33	C	0.397178	-0.000049	-0.109373
C34	C	0.409338	-0.000060	-0.021213
C35	C	0.358923	-0.000062	-0.020701
C36	C	0.327636	-0.000062	-0.064527
C37	C	-0.205716	-0.000095	-0.014979
C38	C	-0.256133	-0.000093	-0.014472
C39	C	-0.268289	-0.000084	-0.102632
C40	C	-0.217876	-0.000083	-0.103140
C41	C	-0.186590	-0.000090	-0.059309
O42	O	-0.143287	-0.000063	-0.141407
O43	O	-0.120752	-0.000107	0.021701
C44	C	0.101804	-0.000087	-0.018094
C45	C	0.120929	-0.000083	-0.062428
C46	C	0.089642	-0.000079	-0.106250
C47	C	0.171344	-0.000078	-0.062940
C48	C	0.202631	-0.000081	-0.019117
C49	C	0.183504	-0.000090	0.025217
C50	C	0.133092	-0.000090	0.025728
C51	C	0.108770	-0.000071	-0.150585
C52	C	0.159183	-0.000069	-0.151092
C53	C	0.190470	-0.000073	-0.107270
C54	C	0.599628	-0.473947	-0.091035
C55	C	0.599644	-0.682824	-0.091035
O56	O	0.624404	-0.709828	-0.115782
N57	N	0.570549	-0.708947	-0.061918
C58	C	0.541451	-0.682848	-0.032796
O59	O	0.516709	-0.709860	-0.008027
C60	C	0.541439	-0.473971	-0.032794
C61	C	0.570531	-0.447851	-0.061917
C62	C	0.628718	-0.447826	-0.120155
C63	C	0.628712	-0.395610	-0.120157
C64	C	0.599615	-0.369514	-0.091039
C65	C	0.570525	-0.395634	-0.061919
C66	C	0.512344	-0.447872	-0.003671
C67	C	0.512344	-0.395650	-0.003672
C68	C	0.541436	-0.369530	-0.032795
C69	C	0.541422	-0.317322	-0.032803
N70	N	0.570516	-0.291199	-0.061920
C71	C	0.599613	-0.317295	-0.091038
C72	C	0.541459	-0.792511	-0.032800
C73	C	0.541462	-0.844730	-0.032801
C74	C	0.599655	-0.844703	-0.091039
C75	C	0.599649	-0.792483	-0.091040
C76	C	0.570554	-0.766388	-0.061917
C77	C	0.599598	-0.207637	-0.091040
C78	C	0.599587	-0.155416	-0.091040
C79	C	0.541396	-0.155448	-0.032801
C80	C	0.541404	-0.207664	-0.032802
C81	C	0.570509	-0.233757	-0.061923
O82	O	0.516678	-0.290286	-0.008064
O83	O	0.624360	-0.290274	-0.115795
C84	C	0.599634	-0.526163	-0.091033
C85	C	0.570543	-0.552283	-0.061913
C86	C	0.541447	-0.526187	-0.032795
C87	C	0.570546	-0.604502	-0.061914
C88	C	0.599643	-0.630598	-0.091032
C89	C	0.628737	-0.604475	-0.120150
C90	C	0.628731	-0.552259	-0.120151
C91	C	0.512352	-0.552310	-0.003678
C92	C	0.512360	-0.604527	-0.003679
C93	C	0.541457	-0.630623	-0.032797
C94	C	0.658925	-0.000085	-0.057739
C95	C	0.712580	-0.000090	-0.058295
C96	C	0.574712	-0.000085	0.026481
C97	C	0.574159	-0.000089	0.080136
N98	N	0.570558	0.129174	-0.061919
C99	C	0.566333	-0.000060	-0.150326
C100	C	0.566886	-0.000053	-0.203981
C101	C	0.614862	-0.000069	0.418948
C102	C	0.612811	-0.000062	0.620608
O103	O	0.650032	-0.000046	0.651862
N104	N	0.568476	-0.000056	0.639735
C105	C	0.524651	-0.000048	0.608442
O106	O	0.486895	-0.000037	0.629338
C107	C	0.526703	-0.000052	0.406784
C108	C	0.571040	-0.000063	0.387660
C109	C	0.659196	-0.000080	0.399824
C110	C	0.659709	-0.000084	0.349412
C111	C	0.615887	-0.000078	0.318124
C112	C	0.571553	-0.000067	0.337248
C113	C	0.482878	-0.000040	0.375493
C114	C	0.483395	-0.000040	0.325075
C115	C	0.527733	-0.000051	0.305952
C116	C	0.528243	-0.000066	0.255548
N117	N	0.572578	-0.000072	0.236422
C118	C	0.616400	-0.000078	0.267710
C119	C	0.523577	-0.000047	0.714317
C120	C	0.523064	-0.000047	0.764731
C121	C	0.611225	-0.000060	0.776893
C122	C	0.611737	-0.000064	0.726478
C123	C	0.567912	-0.000053	0.695190
C124	C	0.617472	-0.000088	0.161841
C125	C	0.617981	-0.000095	0.111424
C126	C	0.529821	-0.000079	0.099266
C127	C	0.529312	-0.000075	0.149679
C128	C	0.573142	-0.000078	0.180965
O129	O	0.491043	-0.000076	0.224267
O130	O	0.654151	-0.000078	0.246805
C131	C	0.614350	-0.000065	0.469360
C132	C	0.570016	-0.000054	0.488484
C133	C	0.526194	-0.000048	0.457196
C134	C	0.569503	-0.000054	0.538899
C135	C	0.613325	-0.000060	0.570187
C136	C	0.657660	-0.000066	0.551060
C137	C	0.658172	-0.000071	0.500648
C138	C	0.481859	-0.000041	0.476323
C139	C	0.481351	-0.000037	0.526735
C140	C	0.525172	-0.000044	0.558023
H141	H	-0.271701	-0.000095	0.021634
H142	H	0.652426	-0.625731	-0.143861
F143	F	0.659693	-0.524466	-0.151150
F144	F	0.481379	-0.367881	0.027329
H145	H	0.083300	-0.000068	-0.186271
F146	F	-0.172426	-0.000102	0.031670
F147	F	0.630623	-0.872485	-0.122028
F148	F	0.510490	-0.872524	-0.001812
F149	F	0.510482	-0.764745	-0.001808
F150	F	0.630550	-0.127620	-0.122041
F151	F	0.510430	-0.127665	-0.001814
H152	H	-0.033711	-0.000097	0.063365
F153	F	0.657863	-0.000066	0.810201
F154	F	0.112745	-0.000092	0.072918
H155	H	0.623297	-0.228876	-0.114752
H156	H	0.652405	-0.374347	-0.143869
F157	F	-0.301595	-0.000078	-0.149269
H158	H	0.652415	-0.469068	-0.143866
F159	F	0.705842	-0.000086	0.433117
H160	H	0.694276	-0.000080	0.485083
H161	H	0.488659	-0.531068	0.020034
H162	H	0.208987	-0.000090	0.060899
H163	H	-0.202304	-0.000080	-0.139243
F164	F	0.475874	-0.000044	0.785078
H165	H	0.446173	-0.000035	0.450852
H166	H	0.693341	-0.000074	0.576544
H167	H	0.488654	-0.469131	0.020045
H168	H	0.057737	-0.000096	0.062438
F169	F	0.338574	-0.000067	0.026488
H170	H	0.654087	-0.000105	0.095857
H171	H	0.174748	-0.000063	-0.187200
H172	H	-0.067950	-0.000090	-0.184742
H173	H	0.623339	-0.771219	-0.114755
F174	F	0.028282	-0.000078	-0.196759
F175	F	0.510436	-0.235464	-0.001811
F176	F	0.481391	-0.632320	0.027316
H177	H	0.434821	-0.000061	0.014469
H178	H	0.653163	-0.000089	0.187309
H179	H	0.695813	-0.000092	0.333847
H180	H	0.647841	-0.000072	0.710911
H181	H	0.446774	-0.000028	0.391054
H182	H	0.412744	-0.000039	-0.145477
F183	F	0.476930	-0.000036	0.681023
H184	H	0.447706	-0.000031	0.299603
F185	F	0.482123	-0.000072	0.170032
H186	H	0.494142	-0.000076	0.073782
F187	F	0.313471	-0.000051	-0.155510
H188	H	0.445243	-0.000033	0.542300
