data_functionalizedCrystal
_audit_creation_method	'MofGen! by Chris Wilmer'
_symmetry_space_group_name_H-M	'P1'
_symmetry_Int_Tables_number	1
_symmetry_cell_setting	triclinic
loop_
_symmetry_equiv_pos_as_xyz
  x,y,z
_cell_length_a	18.101395
_cell_length_b	19.077142
_cell_length_c	19.076919
_cell_angle_alpha	90.074357
_cell_angle_beta	87.727683
_cell_angle_gamma	92.273342
loop_
_atom_site_label
_atom_site_type_symbol
_atom_site_fract_x
_atom_site_fract_y
_atom_site_fract_z
Zn1	Zn	-0.358289	-1.058229	0.440456
Zn2	Zn	0.141711	-0.558229	0.940456
Zn3	Zn	-0.477362	-1.062856	0.322951
Zn4	Zn	0.022638	-0.562856	0.822951
Zn5	Zn	-0.348367	-0.945448	0.318246
Zn6	Zn	0.151633	-0.445448	0.818246
Zn7	Zn	-0.476913	-0.940678	0.435699
Zn8	Zn	0.023087	-0.440678	0.935699
O9	O	-0.415233	-1.001803	0.379338
O10	O	0.084767	-0.501803	0.879338
O11	O	-0.378425	-1.157174	0.428829
O12	O	0.121575	-0.657174	0.928829
O13	O	-0.456285	-1.051214	0.223995
O14	O	0.043715	-0.551214	0.723995
O15	O	-0.246053	-0.960469	0.334479
O16	O	0.253947	-0.460469	0.834479
O17	O	-0.465907	-1.160573	0.342498
O18	O	0.034093	-0.660573	0.842498
O19	O	-0.253343	-1.043329	0.424266
O20	O	0.246657	-0.543329	0.924266
O21	O	-0.361513	-0.964955	0.220539
O22	O	0.138487	-0.464955	0.720539
O23	O	-0.361078	-0.846484	0.329866
O24	O	0.138922	-0.346484	0.829866
O25	O	-0.465142	-0.952339	0.534661
O26	O	0.034858	-0.452339	1.034661
O27	O	-0.455521	-0.842980	0.416159
O28	O	0.044479	-0.342980	0.916159
O29	O	-0.377990	-1.038703	0.538156
O30	O	0.122010	-0.538703	1.038156
O31	O	-0.580932	-1.046589	0.337885
O32	O	-0.080932	-0.546589	0.837885
O33	O	-0.580602	-0.956825	0.420721
O34	O	-0.080602	-0.456825	0.920721
C35	C	-0.607638	-1.001710	0.379313
C36	C	-0.107638	-0.501710	0.879313
C37	C	-0.689954	-1.001733	0.379329
C38	C	-0.189954	-0.501733	0.879329
C39	C	-0.407175	-0.819236	0.371986
C40	C	0.092825	-0.319236	0.871986
C41	C	-0.403746	-0.741132	0.368858
C42	C	0.096254	-0.241132	0.868858
C43	C	-0.422623	-0.994473	0.562618
C44	C	0.077377	-0.494473	1.062618
C45	C	-0.425772	-0.991349	0.640721
C46	C	0.074228	-0.491349	1.140721
C47	C	-0.989053	-1.001886	0.379373
C48	C	-0.489053	-0.501886	0.879373
C49	C	-0.957562	-0.945529	0.431631
C50	C	-0.457562	-0.445529	0.931631
C51	C	-0.871926	-0.945279	0.431450
C52	C	-0.371926	-0.445279	0.931450
C53	C	-0.840667	-1.001810	0.379352
C54	C	-0.340667	-0.501810	0.879352
C55	C	-0.867928	-0.984740	0.304491
C56	C	-0.367928	-0.484740	0.804491
C57	C	-0.953571	-0.984378	0.304802
C58	C	-0.453571	-0.484378	0.804802
C59	C	-0.961442	-1.075457	0.401329
C60	C	-0.461442	-0.575457	0.901329
C61	C	-0.875838	-1.074955	0.402936
C62	C	-0.375838	-0.574955	0.902936
C63	C	-0.756805	-1.001769	0.379335
C64	C	-0.256805	-0.501769	0.879335
C65	C	-1.072915	-1.001926	0.379385
C66	C	-0.572915	-0.501926	0.879385
C67	C	-0.222077	-1.001915	0.379379
C68	C	0.277923	-0.501915	0.879379
C69	C	-0.139766	-1.001963	0.379396
C70	C	0.360234	-0.501963	0.879396
C71	C	-0.451375	-0.702635	0.412245
C72	C	0.048625	-0.202635	0.912245
C73	C	-0.448143	-0.629248	0.409309
C74	C	0.051857	-0.129248	0.909309
C75	C	-0.397286	-0.594360	0.362982
C76	C	0.102714	-0.094360	0.862982
C77	C	-0.349652	-0.632862	0.319592
C78	C	0.150348	-0.132862	0.819592
C79	C	-0.352881	-0.706247	0.322532
C80	C	0.147119	-0.206247	0.822532
C81	C	-0.382348	-0.375075	0.349382
C82	C	0.117652	0.124925	0.849382
C83	C	-0.379125	-0.301684	0.346443
C84	C	0.120875	0.198316	0.846443
C85	C	-0.477615	-0.298076	0.436161
C86	C	0.022385	0.201924	0.936161
C87	C	-0.480842	-0.371463	0.439094
C88	C	0.019158	0.128537	0.939094
C89	C	-0.433205	-0.409958	0.395708
C90	C	0.066795	0.090042	0.895708
N91	N	-0.393984	-0.519347	0.359978
N92	N	0.106016	-0.019347	0.859978
N93	N	-0.436505	-0.484970	0.398716
N94	N	0.063495	0.015030	0.898716
C95	C	-0.423318	-0.185083	0.386710
C96	C	0.076682	0.314917	0.886710
C97	C	-0.426753	-0.263187	0.389831
C98	C	0.073247	0.236813	0.889831
C99	C	-0.407820	-1.009145	0.196773
C100	C	0.092180	-0.509145	0.696773
C101	C	-0.404468	-1.012405	0.118675
C102	C	0.095532	-0.512405	0.618675
C103	C	-0.381878	-1.034844	0.679235
C104	C	0.118122	-0.534844	1.179235
C105	C	-0.384834	-1.031901	0.752620
C106	C	0.115166	-0.531901	1.252620
C107	C	-0.431688	-0.985465	0.787491
C108	C	0.068312	-0.485465	1.287491
C109	C	-0.475584	-0.941964	0.748972
C110	C	0.024416	-0.441964	1.248972
C111	C	-0.472624	-0.944905	0.675588
C112	C	0.027376	-0.444905	1.175588
C113	C	-0.445403	-0.971845	1.006772
C114	C	0.054597	-0.471845	1.506772
C115	C	-0.448362	-0.968909	1.080162
C116	C	0.051638	-0.468909	1.580162
C117	C	-0.357610	-1.058845	1.083805
C118	C	0.142390	-0.558845	1.583805
C119	C	-0.354658	-1.061785	1.010419
C120	C	0.145342	-0.561785	1.510419
C121	C	-0.398550	-1.018282	0.971906
C122	C	0.101450	-0.518282	1.471906
N123	N	-0.434712	-0.982456	0.862503
N124	N	0.065288	-0.482456	1.362503
N125	N	-0.395522	-1.021287	0.896895
N126	N	0.104478	-0.521287	1.396895
H127	H	-0.853645	-0.955614	0.486866
H128	H	-0.353645	-0.455614	0.986866
Cl129	Cl	-0.500584	-0.917156	0.958365
Cl130	Cl	-0.000584	-0.417156	1.458365
H131	H	-0.522257	-0.399864	0.476818
H132	H	-0.022257	0.100136	0.976818
H133	H	-0.858354	-1.087881	0.458044
H134	H	-0.358354	-0.587881	0.958044
Cl135	Cl	-0.537498	-0.249677	0.490700
Cl136	Cl	-0.037498	0.250323	0.990700
Cl137	Cl	-0.830235	-0.902749	0.275900
Cl138	Cl	-0.330235	-0.402749	0.775900
Cl139	Cl	-0.507265	-0.910524	1.123998
Cl140	Cl	-0.007265	-0.410524	1.623998
Cl141	Cl	-0.534484	-0.883585	0.792810
Cl142	Cl	-0.034484	-0.383585	1.292810
Cl143	Cl	-0.527805	-0.890220	0.627170
Cl144	Cl	-0.027805	-0.390220	1.127170
Cl145	Cl	-0.285712	-0.589002	0.261356
Cl146	Cl	0.214288	-0.089002	0.761356
Cl147	Cl	-0.293000	-0.754644	0.267987
Cl148	Cl	0.207000	-0.254644	0.767987
Cl149	Cl	-0.508023	-0.580855	0.463856
Cl150	Cl	-0.008023	-0.080855	0.963856
Cl151	Cl	-0.992981	-1.140229	0.342633
Cl152	Cl	-0.492981	-0.640229	0.842633
Cl153	Cl	-0.993587	-0.961277	0.517458
Cl154	Cl	-0.493587	-0.461277	1.017458
H155	H	-0.316506	-1.099600	0.982032
H156	H	0.183494	-0.599600	1.482032
H157	H	-0.848565	-0.890686	0.416671
H158	H	-0.348565	-0.390686	0.916671
Cl159	Cl	-0.986403	-0.861751	0.409094
Cl160	Cl	-0.486403	-0.361751	0.909094
H161	H	-0.974248	-1.023806	0.264378
H162	H	-0.474248	-0.523806	0.764378
Cl163	Cl	-0.979815	-0.901482	0.276624
Cl164	Cl	-0.479815	-0.401482	0.776624
Cl165	Cl	-0.836467	-1.046321	0.242532
Cl166	Cl	-0.336467	-0.546321	0.742532
Cl167	Cl	-0.999279	-1.100382	0.484417
Cl168	Cl	-0.499279	-0.600382	0.984417
H169	H	-0.854805	-1.118925	0.367885
H170	H	-0.354805	-0.618925	0.867885
Cl171	Cl	-0.515316	-0.746488	0.470486
Cl172	Cl	-0.015316	-0.246488	0.970486
H173	H	-0.337702	-0.273280	0.308722
H174	H	0.162298	0.226720	0.808722
Cl175	Cl	-0.302432	-1.113528	1.132224
Cl176	Cl	0.197568	-0.613528	1.632224
Cl177	Cl	-0.322459	-0.423459	0.294840
Cl178	Cl	0.177541	0.076541	0.794840
Cl179	Cl	-0.322976	-1.093228	0.635404
Cl180	Cl	0.177024	-0.593228	1.135404
Cl181	Cl	-0.329684	-1.086615	0.801036
Cl182	Cl	0.170316	-0.586615	1.301036
