data_functionalizedCrystal
_audit_creation_method	'MofGen! by Chris Wilmer'
_symmetry_space_group_name_H-M	'P1'
_symmetry_Int_Tables_number	1
_symmetry_cell_setting	triclinic
loop_
_symmetry_equiv_pos_as_xyz
  x,y,z
_cell_length_a	19.805407
_cell_length_b	18.050589
_cell_length_c	18.050583
_cell_angle_alpha	90.028091
_cell_angle_beta	90.019169
_cell_angle_gamma	90.028221
loop_
_atom_site_label
_atom_site_type_symbol
_atom_site_fract_x
_atom_site_fract_y
_atom_site_fract_z
Zn1	Zn	1.034724	-0.295634	0.419954
Zn2	Zn	1.034637	-0.419839	0.295773
Zn3	Zn	0.921540	-0.295667	0.295776
Zn4	Zn	0.921499	-0.419787	0.419920
O5	O	0.978100	-0.357732	0.357855
O6	O	1.129429	-0.312118	0.403494
O7	O	1.019614	-0.403403	0.191849
O8	O	0.936608	-0.191738	0.312264
O9	O	1.129365	-0.403371	0.312259
O10	O	1.019764	-0.191714	0.403497
O11	O	0.936523	-0.312174	0.191851
O12	O	0.826818	-0.312124	0.312230
O13	O	0.936538	-0.403282	0.523849
O14	O	0.826788	-0.403314	0.403438
O15	O	1.019725	-0.312068	0.523874
O16	O	1.019575	-0.523757	0.312226
O17	O	0.936453	-0.523718	0.403436
C18	C	0.802244	-0.357718	0.357831
C19	C	0.727012	-0.357729	0.357839
C20	C	0.691670	-0.405284	0.405254
C21	C	0.620981	-0.405285	0.405264
C22	C	0.585636	-0.357735	0.357855
C23	C	0.620983	-0.310176	0.310438
C24	C	0.691671	-0.310171	0.310432
C25	C	0.335910	-0.310192	0.310463
C26	C	0.265218	-0.310202	0.310471
C27	C	0.265221	-0.405306	0.405295
C28	C	0.335908	-0.405301	0.405289
C29	C	0.371249	-0.357739	0.357875
C30	C	0.447897	-0.357738	0.357865
C31	C	0.508989	-0.357740	0.357861
C32	C	0.978018	-0.550684	0.357843
C33	C	0.978045	-0.633230	0.357863
C34	C	0.932888	-0.832687	0.407445
C35	C	0.916390	-0.882132	0.339678
C36	C	0.978112	-0.784360	0.357872
C37	C	0.994643	-0.881996	0.425648
C38	C	0.978175	-0.930345	0.357888
C39	C	0.961581	-0.832718	0.290069
C40	C	1.039863	-0.832578	0.376085
C41	C	1.023388	-0.882001	0.308270
C42	C	0.978074	-0.700262	0.357865
C43	C	0.978213	-1.014442	0.357888
C44	C	1.154643	-0.357747	0.357880
C45	C	1.229875	-0.357753	0.357890
C46	C	0.978137	-0.357665	0.551561
C47	C	0.978152	-0.357637	0.634107
C48	C	0.978200	-0.164026	0.357884
C49	C	0.978243	-0.081480	0.357896
C50	C	0.978102	-0.357744	0.164903
C51	C	0.978218	-0.357563	0.082358
C52	C	1.023431	-0.307985	0.882946
C53	C	1.039947	-0.375748	0.833538
C54	C	0.978196	-0.357590	0.931228
C55	C	0.961690	-0.289854	0.833554
C56	C	0.978176	-0.357610	0.785242
C57	C	0.994744	-0.425389	0.882906
C58	C	0.916458	-0.339449	0.882927
C59	C	0.932951	-0.407259	0.833541
C60	C	0.978209	-0.357578	1.015326
C61	C	0.978163	-0.357629	0.701146
H62	H	0.364676	-0.271470	0.271850
H63	H	1.061659	-0.903518	0.266306
H64	H	0.894689	-0.449266	0.811985
H65	H	0.894588	-0.811032	0.449308
F66	F	1.012885	-0.910292	0.500556
H67	H	0.720443	-0.444007	0.443857
H68	H	0.236442	-0.271477	0.271865
F69	F	0.583371	-0.455898	0.455730
F70	F	0.373521	-0.455913	0.455745
H71	H	0.720445	-0.271444	0.271826
H72	H	0.864199	-0.903915	0.324288
F73	F	0.943261	-0.804546	0.215138
F74	F	0.943453	-0.214971	0.805216
F75	F	0.583365	-0.259565	0.259987
F76	F	1.108066	-0.804107	0.396243
H77	H	0.864272	-0.324072	0.904639
H78	H	1.061723	-0.266079	0.904638
F79	F	1.013062	-0.500295	0.911120
F80	F	0.227603	-0.455925	0.455759
F81	F	1.108178	-0.395822	0.805181
