data_functionalizedCrystal
_audit_creation_method	'MofGen! by Chris Wilmer'
_symmetry_space_group_name_H-M	'P1'
_symmetry_Int_Tables_number	1
_symmetry_cell_setting	triclinic
loop_
_symmetry_equiv_pos_as_xyz
  x,y,z
_cell_length_a	21.295417
_cell_length_b	12.759401
_cell_length_c	12.759393
_cell_angle_alpha	90.023540
_cell_angle_beta	89.960830
_cell_angle_gamma	89.968461
loop_
_atom_site_label
_atom_site_type_symbol
_atom_site_fract_x
_atom_site_fract_y
_atom_site_fract_z
Zn1	Zn	-0.250555	-1.606140	-0.594067
Zn2	Zn	-0.355839	-1.605986	-0.418364
Zn3	Zn	-0.250589	-1.430442	-0.418391
Zn4	Zn	-0.355792	-1.430382	-0.593990
O5	O	-0.303194	-1.518238	-0.506203
O6	O	-0.264526	-1.753141	-0.570781
O7	O	-0.341911	-1.582660	-0.271346
O8	O	-0.162495	-1.453838	-0.441739
O9	O	-0.341878	-1.753027	-0.441692
O10	O	-0.162470	-1.582923	-0.570807
O11	O	-0.264585	-1.453689	-0.271366
O12	O	-0.264539	-1.283413	-0.441664
O13	O	-0.341798	-1.453736	-0.741021
O14	O	-0.341831	-1.283369	-0.570675
O15	O	-0.264481	-1.582865	-0.741078
O16	O	-0.443922	-1.582602	-0.441617
O17	O	-0.443888	-1.453587	-0.570649
C18	C	-0.303185	-1.245270	-0.506165
C19	C	-0.303196	-1.128494	-0.506173
C20	C	-0.343501	-0.963911	-0.573273
C21	C	-0.343501	-1.073635	-0.573249
C22	C	-0.262893	-1.073622	-0.439110
C23	C	-0.262897	-0.963900	-0.439130
C24	C	-0.390038	-0.963920	-0.650720
C25	C	-0.390038	-1.073644	-0.650696
C26	C	-0.466745	-1.518100	-0.506145
C27	C	-0.536713	-1.518137	-0.506155
C28	C	-0.569577	-1.585375	-0.439037
C29	C	-0.635320	-1.585424	-0.439061
C30	C	-0.668196	-1.518217	-0.506191
C31	C	-0.635324	-1.450974	-0.573322
C32	C	-0.569583	-1.450934	-0.573304
N33	N	-0.771462	-1.426310	-0.514188
N34	N	-0.833913	-1.426350	-0.514199
C35	C	-0.866271	-1.518334	-0.506252
N36	N	-0.833817	-1.610278	-0.498272
N37	N	-0.771360	-1.610236	-0.498256
C38	C	-0.739481	-1.518253	-0.506219
C39	C	-0.970420	-1.585631	-0.439156
C40	C	-1.036163	-1.585682	-0.439187
C41	C	-1.036167	-1.451223	-0.573443
C42	C	-0.970424	-1.451181	-0.573417
C43	C	-0.937555	-1.518384	-0.506268
C44	C	-0.139003	-1.518404	-0.506284
C45	C	-0.069035	-1.518476	-0.506319
C46	C	-0.303130	-1.518311	-0.780237
C47	C	-0.303103	-1.518342	-0.897013
C48	C	-0.303201	-0.792271	-0.506232
C49	C	-0.303200	-0.909047	-0.506217
C50	C	-0.262840	-1.585589	-0.951907
C51	C	-0.262817	-1.585614	-1.061631
C52	C	-0.343326	-1.451143	-1.061559
C53	C	-0.343345	-1.451114	-0.951837
C54	C	-0.216361	-1.663228	-0.951949
C55	C	-0.216338	-1.663253	-1.061673
C56	C	-0.303211	-1.518225	-0.233236
C57	C	-0.303061	-1.518397	-0.116460
H58	H	-0.436331	-1.107618	-0.621403
C59	C	-1.072313	-1.659653	-0.365347
N60	N	-1.099542	-1.715367	-0.309727
H61	H	-0.943665	-1.396425	-0.628067
C62	C	-0.239952	-1.767618	-0.905967
N63	N	-0.257718	-1.846247	-0.871332
H64	H	-0.377032	-1.103482	-0.732100
H65	H	-0.170018	-1.634161	-1.095729
H66	H	-0.229395	-1.744618	-1.091456
C67	C	-0.387628	-1.377122	-0.891458
N68	N	-0.420982	-1.321385	-0.845981
C69	C	-0.533424	-1.659289	-0.365160
N70	N	-0.506193	-1.714957	-0.309510
H71	H	-0.438778	-0.934091	-0.628786
C72	C	-1.072327	-1.377295	-0.647290
N73	N	-1.099566	-1.321613	-0.702915
C74	C	-0.150504	-1.633842	-0.911757
N75	N	-0.100903	-1.611705	-0.881485
C76	C	-0.218564	-0.903554	-0.365360
N77	N	-0.185170	-0.858101	-0.309795
C78	C	-0.218556	-1.133970	-0.365328
N79	N	-0.185158	-1.179423	-0.309757
C80	C	-0.366514	-0.918019	-0.755215
N81	N	-0.348793	-0.883446	-0.833920
C82	C	-0.671477	-1.659389	-0.365217
N83	N	-0.698709	-1.715096	-0.309596
H84	H	-0.662096	-1.396255	-0.627982
C85	C	-0.387589	-1.377194	-1.121874
N86	N	-0.420929	-1.321493	-1.167303
H87	H	-0.542825	-1.396180	-0.627961
H88	H	-0.943656	-1.640356	-0.384482
