data_functionalizedCrystal
_audit_creation_method	'MofGen! by Chris Wilmer'
_symmetry_space_group_name_H-M	'P1'
_symmetry_Int_Tables_number	1
_symmetry_cell_setting	triclinic
loop_
_symmetry_equiv_pos_as_xyz
  x,y,z
_cell_length_a	19.077105
_cell_length_b	19.077713
_cell_length_c	19.076919
_cell_angle_alpha	85.341401
_cell_angle_beta	89.923776
_cell_angle_gamma	85.525329
loop_
_atom_site_label
_atom_site_type_symbol
_atom_site_fract_x
_atom_site_fract_y
_atom_site_fract_z
Zn1	Zn	-1.071382	0.341572	-0.454668
Zn2	Zn	-0.738049	0.674906	-0.121335
Zn3	Zn	-0.404715	1.008239	0.211999
Zn4	Zn	-1.080379	0.455095	-0.341897
Zn5	Zn	-0.747046	0.788428	-0.008564
Zn6	Zn	-0.413713	1.121762	0.324770
Zn7	Zn	-0.958237	0.332114	-0.332067
Zn8	Zn	-0.624903	0.665448	0.001267
Zn9	Zn	-0.291570	0.998781	0.334600
Zn10	Zn	-0.958185	0.454669	-0.454632
Zn11	Zn	-0.624851	0.788003	-0.121299
Zn12	Zn	-0.291518	1.121336	0.212035
O13	O	-1.017046	0.395863	-0.395816
O14	O	-0.683712	0.729196	-0.062483
O15	O	-0.350379	1.062529	0.270851
O16	O	-1.171066	0.360768	-0.443838
O17	O	-0.837733	0.694101	-0.110504
O18	O	-0.504399	1.027435	0.222829
O19	O	-1.067964	0.435001	-0.242104
O20	O	-0.734631	0.768335	0.091229
O21	O	-0.401297	1.101668	0.424563
O22	O	-0.969502	0.234570	-0.344231
O23	O	-0.636168	0.567903	-0.010898
O24	O	-0.302835	0.901236	0.322436
O25	O	-1.177676	0.444173	-0.360986
O26	O	-0.844343	0.777506	-0.027652
O27	O	-0.511010	1.110839	0.305681
O28	O	-1.052629	0.241518	-0.434306
O29	O	-0.719296	0.574852	-0.100972
O30	O	-0.385962	0.908185	0.232361
O31	O	-0.978226	0.344648	-0.234882
O32	O	-0.644893	0.677981	0.098452
O33	O	-0.311560	1.011314	0.431785
O34	O	-0.859739	0.344235	-0.344196
O35	O	-0.526406	0.677568	-0.010863
O36	O	-0.193073	1.010902	0.322471
O37	O	-0.969413	0.443447	-0.553126
O38	O	-0.636080	0.776780	-0.219792
O39	O	-0.302747	1.110114	0.113541
O40	O	-0.859701	0.434276	-0.434244
O41	O	-0.526368	0.767609	-0.100911
O42	O	-0.193034	1.100942	0.232422
O43	O	-1.052579	0.360355	-0.553152
O44	O	-0.719245	0.693688	-0.219819
O45	O	-0.385912	1.027022	0.113515
O46	O	-1.067914	0.553838	-0.360951
O47	O	-0.734581	0.887171	-0.027617
O48	O	-0.401247	1.220505	0.305716
O49	O	-0.978138	0.553525	-0.443777
O50	O	-0.644805	0.886858	-0.110443
O51	O	-0.311471	1.220192	0.222890
C52	C	-0.834183	0.388183	-0.388150
C53	C	-0.500849	0.721517	-0.054817
C54	C	-0.167516	1.054850	0.278517
C55	C	-0.755953	0.384916	-0.384888
C56	C	-0.422620	0.718249	-0.051555
C57	C	-0.089286	1.051582	0.281779
C58	C	-1.024015	0.579300	-0.403443
C59	C	-0.690682	0.912634	-0.070109
C60	C	-0.357348	1.245967	0.263224
C61	C	-1.027060	0.657780	-0.406732
C62	C	-0.693727	0.991113	-0.073398
C63	C	-0.360394	1.324446	0.259935
C64	C	-1.009987	0.402909	-0.579390
C65	C	-0.676653	0.736242	-0.246057
C66	C	-0.343320	1.069575	0.087277
C67	C	-1.006979	0.405911	-0.657618
C68	C	-0.673645	0.739244	-0.324285
C69	C	-0.340312	1.072578	0.009048
C70	C	-1.200623	0.403573	-0.403512
C71	C	-0.867289	0.736906	-0.070179
C72	C	-0.533956	1.070240	0.263154
C73	C	-1.278852	0.406858	-0.406792
C74	C	-0.945519	0.740192	-0.073459
C75	C	-0.612186	1.073525	0.259875
C76	C	-0.719205	0.430325	-0.430171
C77	C	-0.385871	0.763658	-0.096837
C78	C	-0.052538	1.096992	0.236496
C79	C	-0.645699	0.427246	-0.427109
C80	C	-0.312366	0.760579	-0.093775
C81	C	0.020968	1.093912	0.239558
C82	C	-0.608944	0.378759	-0.378760
C83	C	-0.275610	0.712093	-0.045426
C84	C	0.057723	1.045426	0.287907
C85	C	-0.645697	0.333345	-0.333475
C86	C	-0.312364	0.666678	-0.000142
C87	C	0.020970	1.000012	0.333192
C88	C	-0.719201	0.336422	-0.336541
C89	C	-0.385868	0.669755	-0.003208
C90	C	-0.052534	1.003088	0.330126
C91	C	-0.389110	0.364521	-0.364573
C92	C	-0.055776	0.697854	-0.031240
C93	C	0.277557	1.031187	0.302094
C94	C	-0.315601	0.361449	-0.361509
C95	C	0.017732	0.694782	-0.028176
C96	C	0.351066	1.028116	0.305158
C97	C	-0.315608	0.455349	-0.455144
C98	C	0.017726	0.788682	-0.121811
C99	C	0.351059	1.122016	0.211523
C100	C	-0.389113	0.458424	-0.458203
C101	C	-0.055780	0.791757	-0.124869
C102	C	0.277553	1.125091	0.208464
C103	C	-0.425860	0.413007	-0.412921
C104	C	-0.092527	0.746341	-0.079587
C105	C	0.240806	1.079674	0.253746
N106	N	-0.533809	0.375612	-0.375627
N107	N	-0.200476	0.708945	-0.042294
N108	N	0.132857	1.042279	0.291040
N109	N	-0.500993	0.416152	-0.416057
N110	N	-0.167660	0.749485	-0.082724
N111	N	0.165674	1.082818	0.250610
C112	C	-1.010068	0.211710	-0.388176
C113	C	-0.676734	0.545043	-0.054842
C114	C	-0.343401	0.878377	0.278491
C115	C	-1.007094	0.133235	-0.384920
C116	C	-0.673761	0.466569	-0.051586
C117	C	-0.340427	0.799902	0.281747
C118	C	-1.048898	1.099918	-0.430300
C119	C	-0.715565	1.433251	-0.096967
C120	C	-0.382232	1.766584	0.236367
C121	C	-1.046030	1.026178	-0.427203
C122	C	-0.712696	1.359511	-0.093870
C123	C	-0.379363	1.692845	0.239464
C124	C	-1.001352	0.985757	-0.378729
C125	C	-0.668019	1.319090	-0.045396
C126	C	-0.334686	1.652423	0.287938
C127	C	-0.959546	1.019079	-0.333344
C128	C	-0.626213	1.352412	-0.000011
C129	C	-0.292880	1.685746	0.333323
C130	C	-0.962419	1.092818	-0.336438
C131	C	-0.629086	1.426151	-0.003105
C132	C	-0.295752	1.759484	0.330229
C133	C	-0.988127	0.764841	-0.364441
C134	C	-0.654794	1.098174	-0.031107
C135	C	-0.321460	1.431507	0.302226
C136	C	-0.985256	0.691097	-0.361351
C137	C	-0.651922	1.024430	-0.028018
C138	C	-0.318589	1.357764	0.305315
C139	C	-1.071740	0.698201	-0.455210
C140	C	-0.738407	1.031534	-0.121877
C141	C	-0.405074	1.364868	0.211457
C142	C	-1.074606	0.771941	-0.458303
C143	C	-0.741273	1.105274	-0.124969
C144	C	-0.407940	1.438607	0.208364
C145	C	-1.032803	0.805257	-0.412915
C146	C	-0.699470	1.138590	-0.079582
C147	C	-0.366136	1.471923	0.253752
N148	N	-0.998417	0.910383	-0.375564
N149	N	-0.665084	1.243716	-0.042231
N150	N	-0.331751	1.577049	0.291103
N151	N	-1.035742	0.880629	-0.416077
N152	N	-0.702409	1.213963	-0.082744
N153	N	-0.369075	1.547296	0.250589
C154	C	-1.048863	0.364062	-0.694385
C155	C	-0.715530	0.697396	-0.361052
C156	C	-0.382196	1.030729	-0.027718
C157	C	-1.046028	0.366880	-0.767888
C158	C	-0.712694	0.700214	-0.434555
C159	C	-0.379361	1.033547	-0.101222
C160	C	-1.001312	0.411551	-0.804624
C161	C	-0.667978	0.744885	-0.471291
C162	C	-0.334645	1.078218	-0.137957
C163	C	-0.959423	0.453402	-0.767852
C164	C	-0.626089	0.786735	-0.434519
C165	C	-0.292756	1.120069	-0.101185
C166	C	-0.962254	0.450580	-0.694350
C167	C	-0.628921	0.783913	-0.361016
C168	C	-0.295588	1.117246	-0.027683
C169	C	-0.988195	0.424628	-1.024451
C170	C	-0.654862	0.757961	-0.691117
C171	C	-0.321529	1.091294	-0.357784
C172	C	-0.985368	0.427448	-1.097958
C173	C	-0.652035	0.760782	-0.764625
C174	C	-0.318702	1.094115	-0.431292
C175	C	-1.071973	0.340925	-1.097990
C176	C	-0.738640	0.674259	-0.764656
C177	C	-0.405306	1.007592	-0.431323
C178	C	-1.074804	0.338110	-1.024486
C179	C	-0.741471	0.671444	-0.691153
C180	C	-0.408137	1.004777	-0.357819
C181	C	-1.032912	0.379958	-0.987720
C182	C	-0.699579	0.713291	-0.654387
C183	C	-0.366246	1.046625	-0.321054
N184	N	-0.998414	0.414435	-0.879756
N185	N	-0.665081	0.747768	-0.546423
N186	N	-0.331747	1.081101	-0.213090
N187	N	-1.035806	0.377070	-0.912589
N188	N	-0.702473	0.710404	-0.579256
N189	N	-0.369140	1.043737	-0.245922
C190	C	-1.024116	0.388795	-0.212956
C191	C	-0.690782	0.722128	0.120378
C192	C	-0.357449	1.055462	0.453711
C193	C	-1.027253	0.385599	-0.134725
C194	C	-0.693919	0.718933	0.198608
C195	C	-0.360586	1.052266	0.531942
H196	H	-0.749126	0.469810	-0.469539
H197	H	-0.415792	0.803143	-0.136206
H198	H	-0.082459	1.136477	0.197127
Br199	Br	-0.769075	0.274788	-0.275087
Br200	Br	-0.435741	0.608122	0.058246
Br201	Br	-0.102408	0.941455	0.391580
H202	H	-0.948953	0.463827	-1.127866
H203	H	-0.615619	0.797160	-0.794533
H204	H	-0.282286	1.130493	-0.461200
Br205	Br	-1.109558	0.303440	-0.644537
Br206	Br	-0.776225	0.636773	-0.311204
Br207	Br	-0.442891	0.970106	0.022130
Br208	Br	-0.898731	0.514023	-0.817706
Br209	Br	-0.565397	0.847357	-0.484373
Br210	Br	-0.232064	1.180690	-0.151040
H211	H	-0.923172	0.986164	-0.293872
H212	H	-0.589838	1.319497	0.039462
H213	H	-0.256505	1.652830	0.372795
H214	H	-0.419021	0.327544	-0.327696
H215	H	-0.085687	0.660877	0.005637
H216	H	0.247646	0.994211	0.338971
H217	H	-0.615782	0.464223	-0.463982
H218	H	-0.282448	0.797557	-0.130649
H219	H	0.050885	1.130890	0.202685
H220	H	-1.080071	0.999051	-0.464155
H221	H	-0.746737	1.332385	-0.130821
H222	H	-0.413404	1.665718	0.202512
Br223	Br	-1.128821	0.284134	-1.147889
Br224	Br	-0.795488	0.617467	-0.814556
Br225	Br	-0.462155	0.950801	-0.481223
H226	H	-0.948871	0.658189	-0.321876
H227	H	-0.615538	0.991522	0.011458
H228	H	-0.282205	1.324855	0.344791
Br229	Br	-1.135495	0.277485	-0.974636
Br230	Br	-0.802162	0.610819	-0.641302
Br231	Br	-0.468828	0.944152	-0.307969
Br232	Br	-0.931390	0.810046	-0.302846
Br233	Br	-0.598057	1.143379	0.030487
Br234	Br	-0.264724	1.476713	0.363821
Br235	Br	-0.905688	1.138035	-0.274843
Br236	Br	-0.572354	1.471369	0.058490
Br237	Br	-0.239021	1.804702	0.391824
Br238	Br	-1.102908	0.310117	-0.817787
Br239	Br	-0.769574	0.643450	-0.484453
Br240	Br	-0.436241	0.976784	-0.151120
Br241	Br	-0.438991	0.524233	-0.523818
Br242	Br	-0.105658	0.857566	-0.190484
Br243	Br	0.227676	1.190900	0.142849
H244	H	-1.085272	1.132824	-0.469780
H245	H	-0.751939	1.466157	-0.136446
H246	H	-0.418606	1.799491	0.196887
Br247	Br	-0.265734	0.516985	-0.516592
Br248	Br	0.067600	0.850318	-0.183259
Br249	Br	0.400933	1.183652	0.150074
H250	H	-0.954095	0.458714	-0.994526
H251	H	-0.620762	0.792047	-0.661192
H252	H	-0.287428	1.125380	-0.327859
H253	H	-0.928140	0.484650	-0.664415
H254	H	-0.594807	0.817983	-0.331081
H255	H	-0.261474	1.151317	0.002252
Br256	Br	-1.135227	0.826793	-0.524106
Br257	Br	-0.801893	1.160127	-0.190772
Br258	Br	-0.468560	1.493460	0.142561
H259	H	-0.285676	0.321958	-0.322142
H260	H	0.047657	0.655291	0.011192
H261	H	0.380991	0.988624	0.344525
H262	H	-0.615765	0.293864	-0.294111
H263	H	-0.282432	0.627197	0.039222
H264	H	0.050902	0.960530	0.372555
Br265	Br	-1.128470	0.652983	-0.516805
Br266	Br	-0.795136	0.986316	-0.183471
Br267	Br	-0.461803	1.319649	0.149862
