data_functionalizedCrystal
_audit_creation_method	'MofGen! by Chris Wilmer'
_symmetry_space_group_name_H-M	'P1'
_symmetry_Int_Tables_number	1
_symmetry_cell_setting	triclinic
loop_
_symmetry_equiv_pos_as_xyz
  x,y,z
_cell_length_a	16.625546
_cell_length_b	15.297475
_cell_length_c	15.296720
_cell_angle_alpha	91.617114
_cell_angle_beta	80.357530
_cell_angle_gamma	99.675296
loop_
_atom_site_label
_atom_site_type_symbol
_atom_site_fract_x
_atom_site_fract_y
_atom_site_fract_z
Zn1	Zn	-0.627523	-1.253404	0.726565
Zn2	Zn	-0.743625	-1.278668	0.580074
Zn3	Zn	-0.582227	-1.132282	0.554808
Zn4	Zn	-0.735700	-1.106894	0.701203
O5	O	-0.672269	-1.192812	0.640662
O6	O	-0.665198	-1.379334	0.728320
O7	O	-0.706576	-1.280447	0.454149
O8	O	-0.475417	-1.148401	0.577632
O9	O	-0.750498	-1.397894	0.620694
O10	O	-0.508696	-1.237389	0.703821
O11	O	-0.587997	-1.172898	0.435586
O12	O	-0.580312	-1.006336	0.553039
O13	O	-0.736989	-1.105131	0.827141
O14	O	-0.693068	-0.987683	0.660595
O15	O	-0.657513	-1.212772	0.845774
O16	O	-0.855392	-1.255829	0.596102
O17	O	-0.849569	-1.129628	0.685095
C18	C	-0.630915	-0.965226	0.601324
C19	C	-0.613246	-0.867861	0.584516
C20	C	-0.881740	-1.192735	0.640611
C21	C	-0.971371	-1.192778	0.640633
C22	C	-0.701420	-1.153301	0.869128
C23	C	-0.713842	-1.136464	0.966487
C24	C	-1.299586	-1.192915	0.640750
C25	C	-1.208266	-1.192873	0.640720
C26	C	-1.135481	-1.192845	0.640691
C27	C	-1.044156	-1.192805	0.640661
C28	C	-0.461986	-1.192909	0.640737
C29	C	-0.372377	-1.192951	0.640769
C30	C	-0.713785	-1.421286	0.680155
C31	C	-0.731476	-1.518648	0.696984
C32	C	-0.798559	-0.554716	0.760796
C33	C	-0.815166	-0.646196	0.776586
C34	C	-0.764687	-0.701616	0.728570
C35	C	-0.697599	-0.665548	0.664761
C36	C	-0.680995	-0.574060	0.648965
C37	C	-0.647123	-0.720961	0.616739
C38	C	-0.580034	-0.684892	0.552930
C39	C	-0.563433	-0.593412	0.537137
C40	C	-0.613911	-0.537992	0.585153
C41	C	-0.663727	-0.812449	0.632535
C42	C	-0.546163	-0.831793	0.520704
C43	C	-0.529556	-0.740313	0.504914
C44	C	-0.643182	-1.232219	0.413094
C45	C	-0.630564	-1.249226	0.315765
C46	C	-0.583349	-1.313182	1.279731
C47	C	-0.571680	-1.329006	1.188259
C48	C	-0.607219	-1.280872	1.132811
C49	C	-0.654430	-1.216911	1.168845
C50	C	-0.666105	-1.201089	1.260327
C51	C	-0.689976	-1.168779	1.113407
C52	C	-0.737187	-1.104818	1.149441
C53	C	-0.748860	-1.088999	1.240914
C54	C	-0.713320	-1.137133	1.296362
C55	C	-0.678300	-1.184601	1.021925
C56	C	-0.761057	-1.072508	1.002521
C57	C	-0.772726	-1.056684	1.093994
H58	H	-0.718351	-0.841806	0.684489
Br59	Br	-0.906213	-0.695141	0.863176
Br60	Br	-0.438509	-0.691351	0.418321
Br61	Br	-0.591369	-0.413833	0.563734
Br62	Br	-0.867076	-0.479505	0.825929
H63	H	-0.597715	-1.293761	1.058331
H64	H	-0.639860	-1.236678	0.992596
H65	H	-0.533243	-1.381086	1.158927
H66	H	-0.554423	-1.352371	1.324884
Br67	Br	-0.787225	-0.825770	0.750001
Br68	Br	-0.472392	-0.544465	0.450530
Br69	Br	-0.477657	-0.907000	0.455528
Br70	Br	-0.729159	-1.115662	1.420509
Br71	Br	-0.812952	-1.002212	1.289819
H72	H	-0.811165	-1.004605	1.123345
Br73	Br	-0.809300	-1.007187	0.927280
