data_functionalizedCrystal
_audit_creation_method	'MofGen! by Chris Wilmer'
_symmetry_space_group_name_H-M	'P1'
_symmetry_Int_Tables_number	1
_symmetry_cell_setting	triclinic
loop_
_symmetry_equiv_pos_as_xyz
  x,y,z
_cell_length_a	10.654562
_cell_length_b	15.995292
_cell_length_c	9.730223
_cell_angle_alpha	90.001861
_cell_angle_beta	89.996961
_cell_angle_gamma	83.979360
loop_
_atom_site_label
_atom_site_type_symbol
_atom_site_fract_x
_atom_site_fract_y
_atom_site_fract_z
O1	O	1.666251	0.117652	-0.114370
O2	O	1.300625	0.128846	-0.114351
O3	O	1.493471	0.001417	-0.114363
O4	O	1.473405	0.245082	-0.114358
O5	O	1.493468	0.001420	0.114217
O6	O	1.300623	0.128849	0.114228
O7	O	1.666249	0.117656	0.114210
Zn8	Zn	1.483435	0.123253	0.150511
Zn9	Zn	1.483438	0.123249	-0.150652
O10	O	1.473403	0.245085	0.114222
C11	C	1.253837	0.128024	-0.000059
C12	C	1.114427	0.125558	-0.000053
C13	C	1.492653	-0.029782	-0.000077
C14	C	1.490204	-0.122749	-0.000087
C15	C	1.048911	0.124410	0.124535
C16	C	0.917920	0.122099	0.124512
C17	C	0.917972	0.122090	-0.124698
C18	C	1.048962	0.124394	-0.124674
C19	C	1.114376	0.125574	0.249156
C20	C	1.048859	0.124426	0.373754
C21	C	0.917868	0.122116	0.373731
C22	C	0.852393	0.120954	0.249110
C23	C	1.481204	-0.460540	-0.000074
C24	C	1.620395	-0.436415	0.000430
C25	C	1.623040	-0.339724	-0.000090
C26	C	1.485670	-0.292958	-0.000079
C27	C	1.416082	-0.322467	-0.130602
C28	C	1.414407	-0.419268	-0.130706
C29	C	1.411562	-0.419138	0.129232
C30	C	1.416720	-0.322615	0.130952
C31	C	1.488187	-0.198247	-0.000087
C32	C	1.478683	-0.555251	-0.000075
C33	C	1.713037	0.118478	-0.000085
C34	C	1.852446	0.120944	-0.000100
C35	C	1.474221	0.276284	-0.000068
C36	C	1.476669	0.369251	-0.000066
N37	N	1.483442	0.123255	0.356048
N38	N	1.483441	0.123240	-0.356189
C39	C	1.568856	0.066849	0.427969
C40	C	1.568853	0.066839	0.571852
C41	C	1.398018	0.179649	0.571880
C42	C	1.398016	0.179654	0.428000
C43	C	1.654282	0.010450	0.356017
C44	C	1.739704	-0.045960	0.427938
C45	C	1.739701	-0.045970	0.571821
C46	C	1.654276	0.010430	0.643783
H47	H	1.221035	0.127457	0.249189
F48	F	0.848286	0.120847	-0.257319
F49	F	1.830602	-0.106012	0.648362
H50	H	1.654272	0.010411	0.760942
H51	H	1.328463	0.225585	0.369441
F52	F	1.690523	-0.472597	0.122778
H53	H	1.102178	0.125367	0.475216
H54	H	1.316453	-0.290231	0.138843
F55	F	1.830605	-0.105988	0.351350
H56	H	1.309107	-0.433726	0.130119
F57	F	0.712983	0.118475	0.249092
F58	F	1.690135	-0.473936	-0.121236
H59	H	1.102306	0.125333	-0.226124
H60	H	0.864529	0.121175	0.475185
F61	F	1.694693	-0.315247	-0.122608
F62	F	1.281016	-0.439068	-0.138446
H63	H	1.328470	0.225568	0.630481
F64	F	1.477408	-0.453956	-0.258240
H65	H	1.677539	-0.320380	0.093471
F66	F	1.654296	0.010460	0.202884
F67	F	1.283956	-0.281583	-0.136944
F68	F	1.468482	-0.455788	0.258542
H69	H	1.464408	-0.302126	-0.227744
F70	F	1.482941	-0.297955	0.257166
