data_functionalizedCrystal
_audit_creation_method	'MofGen! by Chris Wilmer'
_symmetry_space_group_name_H-M	'P1'
_symmetry_Int_Tables_number	1
_symmetry_cell_setting	triclinic
loop_
_symmetry_equiv_pos_as_xyz
  x,y,z
_cell_length_a	10.967926
_cell_length_b	17.019294
_cell_length_c	9.482900
_cell_angle_alpha	95.509088
_cell_angle_beta	92.549900
_cell_angle_gamma	84.884424
loop_
_atom_site_label
_atom_site_type_symbol
_atom_site_fract_x
_atom_site_fract_y
_atom_site_fract_z
O1	O	1.612635	0.137563	0.265904
O2	O	1.263452	0.139272	0.178206
O3	O	1.445591	0.025267	0.238118
O4	O	1.430495	0.251569	0.205992
O5	O	1.408597	0.048521	0.467729
O6	O	1.226457	0.162527	0.407817
O7	O	1.575640	0.160818	0.495515
Cu8	Cu	1.397671	0.163796	0.472631
Cu9	Cu	1.441421	0.136294	0.201090
O10	O	1.393500	0.274823	0.435603
C11	C	1.200234	0.149018	0.282043
C12	C	1.066981	0.143402	0.249360
C13	C	0.988409	0.152945	0.353735
C14	C	0.850685	0.147142	0.319959
C15	C	1.425792	0.007836	0.356234
C16	C	1.421898	-0.078748	0.366094
C17	C	1.440238	-0.132097	0.245566
C18	C	1.436571	-0.213451	0.254833
C19	C	1.414573	-0.241455	0.384631
C20	C	1.396229	-0.188100	0.505166
C21	C	1.399887	-0.106747	0.495896
C22	C	1.402510	-0.486454	0.418880
C23	C	1.398856	-0.567814	0.428143
C24	C	1.439196	-0.593160	0.177808
C25	C	1.442860	-0.511805	0.168551
C26	C	1.424510	-0.458456	0.289085
C27	C	1.410828	-0.324612	0.394107
C28	C	1.428246	-0.375300	0.279605
C29	C	1.638858	0.151072	0.391676
C30	C	1.772113	0.156686	0.424349
C31	C	1.413300	0.292254	0.317484
C32	C	1.417196	0.378837	0.307615
N33	N	1.366907	0.183138	0.663622
N34	N	1.472194	0.116946	0.010103
C35	C	1.432339	0.141995	0.757367
C36	C	1.406753	0.158095	0.916358
H37	H	1.458157	-0.109304	0.139873
H38	H	0.806797	0.169151	0.538722
H39	H	1.392921	-0.347422	0.499790
Br40	Br	1.241953	0.261710	0.726016
H41	H	1.507296	0.094849	0.719924
H42	H	1.451510	-0.256886	0.156688
Br43	Br	1.046217	0.173720	0.544358
Br44	Br	0.792885	0.126353	0.129331
Br45	Br	1.377580	-0.414061	0.582457
H46	H	1.032290	0.130934	0.134997
Br47	Br	1.281793	0.236669	0.978744
Br48	Br	1.597430	0.038556	0.947767
Br49	Br	1.366354	-0.226103	0.681317
Br50	Br	1.472724	-0.473806	-0.007607
Br51	Br	1.464101	-0.665565	0.014236
Br52	Br	1.369013	-0.605819	0.604311
H53	H	1.384936	-0.063309	0.594038
Br54	Br	1.458103	-0.337293	0.103458
