data_functionalizedCrystal
_audit_creation_method	'MofGen! by Chris Wilmer'
_symmetry_space_group_name_H-M	'P1'
_symmetry_Int_Tables_number	1
_symmetry_cell_setting	triclinic
loop_
_symmetry_equiv_pos_as_xyz
  x,y,z
_cell_length_a	23.532407
_cell_length_b	17.699083
_cell_length_c	16.776229
_cell_angle_alpha	89.997802
_cell_angle_beta	90.002155
_cell_angle_gamma	96.934153
loop_
_atom_site_label
_atom_site_type_symbol
_atom_site_fract_x
_atom_site_fract_y
_atom_site_fract_z
O1	O	0.072009	-1.003711	-0.066185
O2	O	0.081379	-0.783285	-0.066212
O3	O	-0.006219	-0.900145	-0.066183
O4	O	0.159606	-0.886851	-0.066214
O5	O	-0.006202	-0.900134	0.066394
O6	O	0.081395	-0.783274	0.066365
O7	O	0.072025	-1.003700	0.066392
Zn8	Zn	0.076713	-0.893485	0.087428
Zn9	Zn	0.076691	-0.893500	-0.087248
O10	O	0.159623	-0.886840	0.066363
C11	C	0.081051	-0.755084	0.000073
C12	C	0.080044	-0.671071	0.000063
C13	C	-0.027427	-0.899801	0.000107
C14	C	-0.090647	-0.898783	0.000113
C15	C	0.072353	-1.031901	0.000105
C16	C	0.073360	-1.115914	0.000110
C17	C	-0.489570	-0.961554	0.000077
C18	C	-0.548973	-0.960609	0.000071
O19	O	-0.585550	-1.018799	0.000049
N20	N	-0.571799	-0.891136	0.000063
C21	C	-0.535218	-0.822604	0.000053
O22	O	-0.560088	-0.763424	0.000045
C23	C	-0.475816	-0.823550	0.000054
C24	C	-0.452994	-0.893028	0.000070
C25	C	-0.466747	-1.031026	0.000093
C26	C	-0.407348	-1.031972	0.000100
C27	C	-0.370772	-0.963445	0.000093
C28	C	-0.393595	-0.893973	0.000078
C29	C	-0.439237	-0.755019	0.000038
C30	C	-0.379832	-0.755971	0.000038
C31	C	-0.357009	-0.825449	0.000054
C32	C	-0.297620	-0.826391	0.000078
N33	N	-0.274795	-0.895864	0.000086
C34	C	-0.311371	-0.964391	0.000093
C35	C	-0.659966	-0.820622	0.000051
C36	C	-0.719367	-0.819674	0.000056
C37	C	-0.733118	-0.957680	0.000073
C38	C	-0.673716	-0.958626	0.000073
C39	C	-0.637141	-0.890095	0.000059
C40	C	-0.186628	-0.966371	0.000110
C41	C	-0.127223	-0.967310	0.000121
C42	C	-0.113478	-0.829305	0.000100
C43	C	-0.172877	-0.828365	0.000094
C44	C	-0.209452	-0.896904	0.000096
O45	O	-0.261008	-0.768232	0.000097
O46	O	-0.286493	-1.023561	0.000091
C47	C	0.180832	-0.887184	0.000071
C48	C	0.244052	-0.888202	0.000060
N49	N	0.076728	-0.893480	0.206639
C50	C	0.131462	-0.622189	0.000054
C51	C	0.130512	-0.543251	0.000065
C52	C	0.078144	-0.513196	0.000079
C53	C	0.026722	-0.562084	0.000090
C54	C	0.027672	-0.641021	0.000086
C55	C	0.022888	-0.243740	0.000111
C56	C	0.021942	-0.164797	0.000113
C57	C	0.125728	-0.145970	0.000090
C58	C	0.126678	-0.224907	0.000085
C59	C	0.075257	-0.273788	0.000101
C60	C	0.076287	-0.359382	0.000091
C61	C	0.077113	-0.427603	0.000083
C62	C	0.042188	-0.847863	0.751812
C63	C	0.042192	-0.847861	0.668359
C64	C	0.076693	-0.893499	0.626638
C65	C	0.111188	-0.939147	0.668374
C66	C	0.111181	-0.939152	0.751824
C67	C	0.111218	-0.939129	0.331827
C68	C	0.111225	-0.939119	0.248370
C69	C	0.042230	-0.847839	0.248361
C70	C	0.042222	-0.847843	0.331812
C71	C	0.076715	-0.893494	0.373540
C72	C	0.076709	-0.893496	0.464029
C73	C	0.076702	-0.893494	0.536151
N74	N	0.076682	-0.893505	0.793541
H75	H	-0.108645	-1.023889	0.000136
H76	H	0.169322	-0.249373	0.000070
H77	H	-0.630189	-0.764811	0.000046
Br78	Br	-0.330196	-0.662958	0.000015
H79	H	0.167598	-0.106161	0.000081
H80	H	0.014096	-0.810695	0.785775
Br81	Br	-0.042112	-0.707362	0.000105
H82	H	-0.655139	-1.015201	0.000086
H83	H	0.014143	-0.810670	0.214376
Br84	Br	-0.044350	-0.521296	0.000117
H85	H	-0.083687	-0.773512	0.000097
Br86	Br	-0.236256	-1.059389	0.000112
H87	H	0.014102	-0.810697	0.634387
Br88	Br	-0.004598	-0.785899	0.388430
Br89	Br	0.158052	-1.001058	0.191748
H90	H	-0.457808	-0.698442	0.000020
Br91	Br	0.158033	-1.001079	0.388447
H92	H	0.139277	-0.976310	0.634398
Br93	Br	-0.516376	-1.124040	0.000102
H94	H	0.174106	-0.646653	0.000042
Br95	Br	0.200297	-0.476913	0.000049
Br96	Br	0.157991	-1.001104	0.808459
H97	H	-0.191460	-0.771791	0.000103
Br98	Br	-0.049135	-0.124009	0.000130
H99	H	-0.737943	-0.763099	0.000057
Br100	Br	-0.376385	-1.126268	0.000100
Br101	Br	-0.782768	-1.050682	0.000080
H102	H	-0.018983	-0.283530	0.000124
