data_functionalizedCrystal
_audit_creation_method	'MofGen! by Chris Wilmer'
_symmetry_space_group_name_H-M	'P1'
_symmetry_Int_Tables_number	1
_symmetry_cell_setting	triclinic
loop_
_symmetry_equiv_pos_as_xyz
  x,y,z
_cell_length_a	27.731994
_cell_length_b	26.809956
_cell_length_c	15.944551
_cell_angle_alpha	89.996609
_cell_angle_beta	83.059636
_cell_angle_gamma	90.002666
loop_
_atom_site_label
_atom_site_type_symbol
_atom_site_fract_x
_atom_site_fract_y
_atom_site_fract_z
O1	O	0.641380	0.041410	0.099716
O2	O	0.500649	0.041426	0.114960
O3	O	0.574858	0.041413	-0.014989
O4	O	0.567171	0.041423	0.229664
O5	O	0.574844	-0.041546	-0.014969
O6	O	0.500635	-0.041533	0.114980
O7	O	0.641366	-0.041550	0.099736
Zn8	Zn	0.570998	-0.054713	0.107361
Zn9	Zn	0.571017	0.054590	0.107335
O10	O	0.567157	-0.041536	0.229684
C11	C	0.482633	-0.000051	0.114657
C12	C	0.428973	-0.000045	0.113715
N13	N	0.570989	-0.129309	0.107378
C14	C	0.096221	-0.045286	0.107790
C15	C	-0.105453	-0.045291	0.104208
O16	O	-0.131534	-0.083750	0.103718
N17	N	-0.130662	-0.000070	0.103752
C18	C	-0.105449	0.045155	0.104186
O19	O	-0.131518	0.083619	0.103708
C20	C	0.096224	0.045161	0.107763
C21	C	0.121430	-0.000063	0.108227
C22	C	0.121427	-0.090506	0.108253
C23	C	0.171842	-0.090504	0.109153
C24	C	0.197051	-0.045282	0.109590
C25	C	0.171845	-0.000061	0.109127
C26	C	0.121436	0.090386	0.108191
C27	C	0.171858	0.090383	0.109083
C28	C	0.197064	0.045159	0.109547
C29	C	0.247469	0.045163	0.110464
N30	N	0.272678	-0.000058	0.110920
C31	C	0.247469	-0.045281	0.110483
C32	C	-0.211331	0.045149	0.102310
C33	C	-0.261749	0.045148	0.101418
C34	C	-0.261749	-0.045299	0.101438
C35	C	-0.211330	-0.045297	0.102336
C36	C	-0.186121	-0.000072	0.102766
C37	C	0.353344	-0.045273	0.112374
C38	C	0.403764	-0.045267	0.113278
C39	C	0.403760	0.045179	0.113253
C40	C	0.353344	0.045174	0.112354
C41	C	0.328138	-0.000056	0.111912
O42	O	0.273582	0.083601	0.110945
O43	O	0.273548	-0.083738	0.110943
C44	C	0.045806	-0.045287	0.106890
C45	C	0.020600	-0.000067	0.106427
C46	C	0.045809	0.045155	0.106863
C47	C	-0.029818	-0.000068	0.105534
C48	C	-0.055027	-0.045291	0.105097
C49	C	-0.029818	-0.090512	0.105553
C50	C	0.020597	-0.090510	0.106453
C51	C	0.020600	0.090376	0.106408
C52	C	-0.029815	0.090371	0.105509
C53	C	-0.055024	0.045148	0.105072
C54	C	0.603872	-0.473941	0.049808
C55	C	0.603884	-0.682818	0.049795
O56	O	0.631822	-0.709827	0.000852
N57	N	0.571019	-0.708936	0.107316
C58	C	0.538148	-0.682831	0.164841
O59	O	0.510192	-0.709838	0.213761
C60	C	0.538134	-0.473954	0.164850
C61	C	0.571004	-0.447839	0.107330
C62	C	0.636739	-0.447826	-0.007708
C63	C	0.636737	-0.395610	-0.007701
C64	C	0.603869	-0.369508	0.049821
C65	C	0.571003	-0.395623	0.107337
C66	C	0.505261	-0.447850	0.222370
C67	C	0.505260	-0.395627	0.222365
C68	C	0.538129	-0.369513	0.164846
C69	C	0.538133	-0.317305	0.164866
N70	N	0.570997	-0.291188	0.107345
C71	C	0.603865	-0.317289	0.049822
C72	C	0.538158	-0.792494	0.164834
C73	C	0.538162	-0.844713	0.164833
C74	C	0.603897	-0.844697	0.049785
C75	C	0.603895	-0.792477	0.049791
C76	C	0.571022	-0.766377	0.107313
C77	C	0.603860	-0.207631	0.049842
C78	C	0.603857	-0.155410	0.049856
C79	C	0.538120	-0.155431	0.164900
C80	C	0.538125	-0.207647	0.164889
C81	C	0.570997	-0.233746	0.107353
O82	O	0.510206	-0.290264	0.213777
O83	O	0.631810	-0.290273	0.000898
C84	C	0.603874	-0.526157	0.049801
C85	C	0.571007	-0.552272	0.107316
C86	C	0.538139	-0.526170	0.164839
C87	C	0.571011	-0.604491	0.107315
C88	C	0.603879	-0.630592	0.049793
C89	C	0.636743	-0.604475	-0.007728
C90	C	0.636742	-0.552259	-0.007721
C91	C	0.505275	-0.552288	0.222360
C92	C	0.505279	-0.604504	0.222349
C93	C	0.538147	-0.630606	0.164827
C94	C	0.659382	-0.000071	0.100039
C95	C	0.713042	-0.000074	0.100981
C96	C	0.574531	-0.000067	-0.046268
C97	C	0.573575	-0.000067	-0.139501
N98	N	0.571030	0.129186	0.107311
C99	C	0.525290	-0.000054	-0.353710
C100	C	0.547705	-0.040961	-0.415019
C101	C	0.571844	-0.000063	-0.310204
C102	C	0.547730	0.040831	-0.415022
C103	C	0.570169	-0.000057	-0.475094
C104	C	0.594272	-0.041003	-0.370284
C105	C	0.594290	0.040825	-0.370281
C106	C	0.616739	-0.000092	-0.431572
C107	C	0.572808	-0.000067	-0.215215
C108	C	0.569209	-0.000056	-0.570083
C109	C	0.567484	-0.000056	0.260964
C110	C	0.568440	-0.000052	0.354197
H111	H	0.424284	-0.082096	0.113659
H112	H	0.663504	-0.469073	-0.054553
F113	F	0.503146	-0.235439	0.226118
F114	F	0.521990	0.086030	-0.440947
H115	H	0.332827	-0.082104	0.112021
H116	H	-0.050334	0.127200	0.105137
H117	H	0.528009	-0.075539	-0.434855
H118	H	0.655415	-0.000119	-0.465250
H119	H	0.486648	-0.000090	-0.319884
H120	H	0.192360	-0.127330	0.109526
H121	H	-0.282268	0.081974	0.101053
F122	F	0.619981	-0.086255	-0.344493
F123	F	0.326517	0.093306	0.111874
F124	F	0.430598	0.093306	0.113716
H125	H	0.613970	0.075405	-0.350423
F126	F	0.638878	-0.764689	-0.011430
F127	F	-0.056657	-0.138640	0.105092
F128	F	0.094605	-0.138642	0.107791
H129	H	-0.190811	-0.082122	0.102715
H130	H	-0.282283	-0.082120	0.101084
H131	H	0.511361	-0.134171	0.211737
H132	H	-0.190810	0.081979	0.102660
F133	F	0.047423	0.138511	0.106871
F134	F	0.047417	-0.138644	0.106947
H135	H	0.630627	-0.228875	0.002989
F136	F	0.470295	-0.632292	0.283577
F137	F	0.198684	0.138520	0.109538
F138	F	0.094621	0.138520	0.107695
H139	H	0.630625	-0.134149	0.003016
F140	F	0.638877	-0.872486	-0.011434
F141	F	0.671719	-0.367821	-0.068924
H142	H	0.511401	-0.865972	0.211679
F143	F	0.503169	-0.764721	0.226061
F144	F	0.470276	-0.475634	0.283589
F145	F	0.470269	-0.367853	0.283588
F146	F	0.671726	-0.524471	-0.068942
F147	F	0.671725	-0.632263	-0.068945
H148	H	0.478509	-0.531040	0.269201
