data_functionalizedCrystal
_audit_creation_method	'MofGen! by Chris Wilmer'
_symmetry_space_group_name_H-M	'P1'
_symmetry_Int_Tables_number	1
_symmetry_cell_setting	triclinic
loop_
_symmetry_equiv_pos_as_xyz
  x,y,z
_cell_length_a	12.759401
_cell_length_b	29.839131
_cell_length_c	29.839125
_cell_angle_alpha	89.988394
_cell_angle_beta	89.987900
_cell_angle_gamma	90.042945
loop_
_atom_site_label
_atom_site_type_symbol
_atom_site_fract_x
_atom_site_fract_y
_atom_site_fract_z
Zn1	Zn	1.605980	-0.178925	-0.253987
Zn2	Zn	2.105980	0.321075	0.246013
Zn3	Zn	1.605816	-0.254029	-0.178857
Zn4	Zn	2.105816	0.245971	0.321143
Zn5	Zn	1.430305	-0.178916	-0.178871
Zn6	Zn	1.930305	0.321084	0.321129
Zn7	Zn	1.430188	-0.254031	-0.253960
Zn8	Zn	1.930188	0.245969	0.246040
O9	O	1.518072	-0.216475	-0.216419
O10	O	2.018072	0.283525	0.283581
O11	O	1.752979	-0.188891	-0.244026
O12	O	2.252979	0.311109	0.255974
O13	O	1.582515	-0.244061	-0.115992
O14	O	2.082515	0.255939	0.384008
O15	O	1.453726	-0.116050	-0.188853
O16	O	1.953726	0.383950	0.311147
O17	O	1.752859	-0.244070	-0.188828
O18	O	2.252859	0.255930	0.311172
O19	O	1.582794	-0.116057	-0.244040
O20	O	2.082794	0.383943	0.255960
O21	O	1.453568	-0.188875	-0.116002
O22	O	1.953568	0.311125	0.383998
O23	O	1.283269	-0.188877	-0.188827
O24	O	1.783269	0.311123	0.311173
O25	O	1.453527	-0.244072	-0.316831
O26	O	1.953527	0.255928	0.183169
O27	O	1.283183	-0.244064	-0.243995
O28	O	1.783183	0.255936	0.256005
O29	O	1.582680	-0.188893	-0.316850
O30	O	2.082680	0.311107	0.183150
O31	O	1.582401	-0.316896	-0.188802
O32	O	2.082401	0.183104	0.311198
O33	O	1.453368	-0.316898	-0.243980
O34	O	1.953368	0.183102	0.256020
C35	C	1.245105	-0.216470	-0.216410
C36	C	1.745105	0.283530	0.283590
C37	C	1.128328	-0.216478	-0.216417
C38	C	1.628328	0.283522	0.283583
C39	C	1.073449	-0.245258	-0.245097
C40	C	1.573449	0.254742	0.254903
C41	C	0.963725	-0.245259	-0.245106
C42	C	1.463725	0.254741	0.254894
C43	C	0.963769	-0.187701	-0.187750
C44	C	1.463769	0.312299	0.312250
C45	C	1.073491	-0.187697	-0.187744
C46	C	1.573491	0.312303	0.312256
C47	C	0.813792	-0.261403	-0.298068
C48	C	1.313792	0.238597	0.201932
C49	C	0.758909	-0.290189	-0.326744
C50	C	1.258909	0.209811	0.173256
C51	C	0.794457	-0.334035	-0.333559
C52	C	1.294457	0.165965	0.166441
C53	C	0.884885	-0.349103	-0.311690
C54	C	1.384885	0.150897	0.188310
C55	C	0.939763	-0.320319	-0.283011
C56	C	1.439763	0.179681	0.216989
C57	C	0.904217	-0.276467	-0.276205
C58	C	1.404217	0.223533	0.223795
C59	C	1.223426	-0.171559	-0.134782
C60	C	1.723426	0.328441	0.365218
C61	C	1.278305	-0.142777	-0.106099
C62	C	1.778305	0.357223	0.393901
C63	C	1.242760	-0.098930	-0.099280
C64	C	1.742760	0.401070	0.400720
C65	C	1.152328	-0.083863	-0.121141
C66	C	1.652328	0.416137	0.378859
C67	C	1.097448	-0.112645	-0.149823
C68	C	1.597448	0.387355	0.350177
C69	C	1.133001	-0.156491	-0.156643
C70	C	1.633001	0.343509	0.343357
C71	C	1.517883	-0.333198	-0.216397
C72	C	2.017883	0.166802	0.283603
C73	C	1.517897	-0.383132	-0.216402
C74	C	2.017897	0.116868	0.283598
C75	C	1.585382	-0.692762	-0.187730
C76	C	2.085382	-0.192762	0.312270
C77	C	1.585511	-0.880435	-0.187747
C78	C	2.085511	-0.380435	0.312253
O79	O	1.642739	-0.904689	-0.163351
O80	O	2.142739	-0.404689	0.336649
N81	N	1.518290	-0.903917	-0.216453
N82	N	2.018290	-0.403917	0.283547
C83	C	1.451036	-0.880478	-0.245158
C84	C	1.951036	-0.380478	0.254842
O85	O	1.393871	-0.904757	-0.269578
O86	O	1.893871	-0.404757	0.230422
C87	C	1.450913	-0.692806	-0.245143
C88	C	1.950913	-0.192806	0.254857
C89	C	1.518131	-0.669326	-0.216432
C90	C	2.018131	-0.169326	0.283568
C91	C	1.652595	-0.669283	-0.159021
C92	C	2.152595	-0.169283	0.340979
C93	C	1.652558	-0.622367	-0.159016
C94	C	2.152558	-0.122367	0.340984
C95	C	1.585307	-0.598931	-0.187718
C96	C	2.085307	-0.098931	0.312282
C97	C	1.518094	-0.622411	-0.216426
C98	C	2.018094	-0.122411	0.283574
C99	C	1.383665	-0.669368	-0.273850
C100	C	1.883665	-0.169368	0.226150
C101	C	1.383642	-0.622446	-0.273845
C102	C	1.883642	-0.122446	0.226155
C103	C	1.450860	-0.598967	-0.245134
C104	C	1.950860	-0.098967	0.254866
C105	C	1.450806	-0.552060	-0.245123
C106	C	1.950806	-0.052060	0.254877
N107	N	1.518027	-0.528578	-0.216417
N108	N	2.018027	-0.028578	0.283583
C109	C	1.585278	-0.552014	-0.187715
C110	C	2.085278	-0.052014	0.312285
C111	C	1.451105	-0.979009	-0.245164
C112	C	1.951105	-0.479009	0.254836
C113	C	1.451134	-1.025926	-0.245167
C114	C	1.951134	-0.525926	0.254833
C115	C	1.585611	-1.025881	-0.187756
C116	C	2.085611	-0.525881	0.312244
C117	C	1.585575	-0.978962	-0.187751
C118	C	2.085575	-0.478962	0.312249
C119	C	1.518326	-0.955527	-0.216458
C120	C	2.018326	-0.455527	0.283542
C121	C	1.585194	-0.453488	-0.187704
C122	C	2.085194	0.046512	0.312296
C123	C	1.585148	-0.406568	-0.187700
C124	C	2.085148	0.093432	0.312300
C125	C	1.450676	-0.406618	-0.245112
C126	C	1.950676	0.093382	0.254888
C127	C	1.450718	-0.453534	-0.245115
C128	C	1.950718	0.046466	0.254885
C129	C	1.517985	-0.476967	-0.216410
C130	C	2.017985	0.023033	0.283590
O131	O	1.393617	-0.527777	-0.269509
O132	O	1.893617	-0.027777	0.230491
O133	O	1.642451	-0.527726	-0.163306
O134	O	2.142451	-0.027726	0.336694
C135	C	1.585419	-0.739678	-0.187735
C136	C	2.085419	-0.239678	0.312265
C137	C	1.518205	-0.763157	-0.216443
C138	C	2.018205	-0.263157	0.283557
C139	C	1.450955	-0.739721	-0.245146
C140	C	1.950955	-0.239721	0.254854
C141	C	1.518235	-0.810075	-0.216447
C142	C	2.018235	-0.310075	0.283553
C143	C	1.585485	-0.833511	-0.187745
C144	C	2.085485	-0.333511	0.312255
C145	C	1.652707	-0.810029	-0.159039
C146	C	2.152707	-0.310029	0.340961
C147	C	1.652670	-0.763114	-0.159033
C148	C	2.152670	-0.263114	0.340967
C149	C	1.383733	-0.763203	-0.273852
C150	C	1.883733	-0.263203	0.226148
C151	C	1.383775	-0.810119	-0.273855
C152	C	1.883775	-0.310119	0.226145
C153	C	1.451026	-0.833555	-0.245152
C154	C	1.951026	-0.333555	0.254848
C155	C	1.792105	-0.216481	-0.216428
C156	C	2.292105	0.283519	0.283572
C157	C	1.908882	-0.216484	-0.216432
C158	C	2.408882	0.283516	0.283568
C159	C	1.518109	-0.216484	-0.333597
C160	C	2.018109	0.283516	0.166403
C161	C	1.518124	-0.216487	-0.383532
C162	C	2.018124	0.283513	0.116468
C163	C	1.518291	-0.099297	-0.216451
C164	C	2.018291	0.400703	0.283549
C165	C	1.518385	-0.049362	-0.216465
C166	C	2.018385	0.450638	0.283535
C167	C	1.450947	-0.245116	-0.740109
C168	C	1.950947	0.254884	-0.240109
C169	C	1.450909	-0.245168	-0.552436
C170	C	1.950909	0.254832	-0.052436
O171	O	1.393689	-0.269594	-0.528163
O172	O	1.893689	0.230406	-0.028163
N173	N	1.518147	-0.216446	-0.528977
N174	N	2.018147	0.283554	-0.028977
C175	C	1.585395	-0.187706	-0.552439
C176	C	2.085395	0.312294	-0.052439
O177	O	1.642577	-0.163274	-0.528180
O178	O	2.142577	0.336726	-0.028180
C179	C	1.585427	-0.187652	-0.740111
C180	C	2.085427	0.312348	-0.240111
C181	C	1.518191	-0.216380	-0.763568
C182	C	2.018191	0.283620	-0.263568
C183	C	1.383716	-0.273841	-0.763565
C184	C	1.883716	0.226159	-0.263565
C185	C	1.383731	-0.273830	-0.810481
C186	C	1.883731	0.226170	-0.310481
C187	C	1.450975	-0.245093	-0.833940
C188	C	1.950975	0.254907	-0.333940
C189	C	1.518206	-0.216368	-0.810483
C190	C	2.018206	0.283632	-0.310483
C191	C	1.652668	-0.158911	-0.763573
C192	C	2.152668	0.341089	-0.263573
C193	C	1.652668	-0.158899	-0.810494
C194	C	2.152668	0.341101	-0.310494
C195	C	1.585433	-0.187627	-0.833950
C196	C	2.085433	0.312373	-0.333950
C197	C	1.585464	-0.187621	-0.880858
C198	C	2.085464	0.312379	-0.380858
N199	N	1.518226	-0.216343	-0.904317
N200	N	2.018226	0.283657	-0.404317
C201	C	1.450982	-0.245079	-0.880858
C202	C	1.950982	0.254921	-0.380858
C203	C	1.585375	-0.187737	-0.453909
C204	C	2.085375	0.312263	0.046091
C205	C	1.585369	-0.187751	-0.406991
C206	C	2.085369	0.312249	0.093009
C207	C	1.450881	-0.245212	-0.406990
C208	C	1.950881	0.254788	0.093010
C209	C	1.450894	-0.245200	-0.453909
C210	C	1.950894	0.254800	0.046091
C211	C	1.518137	-0.216459	-0.477367
C212	C	2.018137	0.283541	0.022633
C213	C	1.451017	-0.245053	-0.979384
C214	C	1.951017	0.254947	-0.479384
C215	C	1.451040	-0.245041	-1.026303
C216	C	1.951040	0.254959	-0.526303
C217	C	1.585523	-0.187578	-1.026299
C218	C	2.085523	0.312422	-0.526299
C219	C	1.585504	-0.187592	-0.979384
C220	C	2.085504	0.312408	-0.479384
C221	C	1.518243	-0.216331	-0.955927
C222	C	2.018243	0.283669	-0.455927
O223	O	1.642646	-0.163204	-0.905160
O224	O	2.142646	0.336796	-0.405160
O225	O	1.393792	-0.269501	-0.905125
O226	O	1.893792	0.230499	-0.405125
C227	C	1.450933	-0.245128	-0.693193
C228	C	1.950933	0.254872	-0.193193
C229	C	1.518163	-0.216403	-0.669737
C230	C	2.018163	0.283597	-0.169737
C231	C	1.585408	-0.187667	-0.693196
C232	C	2.085408	0.312333	-0.193196
C233	C	1.518157	-0.216417	-0.622819
C234	C	2.018157	0.283583	-0.122819
C235	C	1.450912	-0.245153	-0.599360
C236	C	1.950912	0.254847	-0.099360
C237	C	1.383674	-0.273876	-0.622819
C238	C	1.883674	0.226124	-0.122819
C239	C	1.383688	-0.273864	-0.669734
C240	C	1.883688	0.226136	-0.169734
C241	C	1.652646	-0.158944	-0.669737
C242	C	2.152646	0.341056	-0.169737
C243	C	1.652627	-0.158958	-0.622822
C244	C	2.152627	0.341042	-0.122822
C245	C	1.585383	-0.187695	-0.599363
C246	C	2.085383	0.312305	-0.099363
C247	C	1.518097	-0.216434	-0.099696
C248	C	2.018097	0.283566	0.400304
C249	C	1.518285	-0.216304	-0.049762
C250	C	2.018285	0.283696	0.450238
H251	H	1.013387	-0.332588	-0.265205
H252	H	1.513387	0.167412	0.234795
H253	H	1.639973	-0.472562	-0.164331
H254	H	2.139973	0.027438	0.335669
Cl255	Cl	1.299200	-0.309946	-0.839962
Cl256	Cl	1.799200	0.190054	-0.339962
H257	H	1.640137	-0.164332	-0.473004
H258	H	2.140137	0.335668	0.026996
Cl259	Cl	1.737082	-0.592857	-0.122927
Cl260	Cl	2.237082	-0.092857	0.377073
H261	H	1.329029	-0.829232	-0.297234
H262	H	1.829029	-0.329232	0.202766
H263	H	1.395986	-0.472652	-0.268495
H264	H	1.895986	0.027348	0.231505
H265	H	1.396144	-0.268593	-0.473004
H266	H	1.896144	0.231407	0.026996
H267	H	1.707365	-0.688359	-0.135648
H268	H	2.207365	-0.188359	0.364352
H269	H	0.685282	-0.277916	-0.344550
H270	H	1.185282	0.222084	0.155450
H271	H	0.913814	-0.384809	-0.317237
H272	H	1.413814	0.115191	0.182763
H273	H	1.118094	-0.268692	-0.268446
H274	H	1.618094	0.231308	0.231554
Cl275	Cl	1.737195	-0.122792	-0.734096
Cl276	Cl	2.237195	0.377208	-0.234096
H277	H	1.396237	-0.268452	-0.960291
H278	H	1.896237	0.231548	-0.460291
Cl279	Cl	1.366615	-1.055438	-0.281257
Cl280	Cl	1.866615	-0.555438	0.218743
Cl281	Cl	1.299168	-0.309972	-0.734082
Cl282	Cl	1.799168	0.190028	-0.234082
Cl283	Cl	1.299141	-0.310002	-0.593319
Cl284	Cl	1.799141	0.189998	-0.093319
Cl285	Cl	1.737165	-0.122842	-0.593339
Cl286	Cl	2.237165	0.377158	-0.093339
Cl287	Cl	1.670083	-0.949450	-0.151657
Cl288	Cl	2.170083	-0.449450	0.348343
H289	H	1.640129	-0.164363	-0.387896
H290	H	2.140129	0.335637	0.112104
Cl291	Cl	1.737215	-0.122825	-0.699221
Cl292	Cl	2.237215	0.377175	-0.199221
H293	H	1.707422	-0.135492	-0.829591
H294	H	2.207422	0.364508	-0.329591
H295	H	0.919107	-0.164269	-0.164405
H296	H	1.419107	0.335731	0.335595
Cl297	Cl	1.299159	-0.309981	-0.699215
Cl298	Cl	1.799159	0.190019	-0.199215
Cl299	Cl	1.669658	-0.377054	-0.151603
Cl300	Cl	2.169658	0.122946	0.348397
Cl301	Cl	0.769108	-0.206277	-0.289510
Cl302	Cl	1.269108	0.293723	0.210490
Cl303	Cl	0.725463	-0.370221	-0.369613
Cl304	Cl	1.225463	0.129779	0.130387
Cl305	Cl	0.983756	-0.093704	-0.177303
Cl306	Cl	1.483756	0.406296	0.322697
Cl307	Cl	1.107631	-0.028741	-0.112565
Cl308	Cl	1.607631	0.471259	0.387435
H309	H	1.640369	-1.044970	-0.164386
H310	H	2.140369	-0.544970	0.335614
Cl311	Cl	1.737182	-0.733604	-0.122939
Cl312	Cl	2.237182	-0.233604	0.377061
Cl313	Cl	1.670041	-0.151482	-0.949895
Cl314	Cl	2.170041	0.348518	-0.449895
Cl315	Cl	1.311744	-0.062749	-0.063215
Cl316	Cl	1.811744	0.437251	0.436785
Cl317	Cl	1.366551	-0.949554	-0.281255
Cl318	Cl	1.866551	-0.449554	0.218745
H319	H	1.328924	-0.688476	-0.297228
H320	H	1.828924	-0.188476	0.202772
Cl321	Cl	1.366142	-0.377147	-0.281195
Cl322	Cl	1.866142	0.122853	0.218805
H323	H	1.640275	-0.164183	-1.045408
H324	H	2.140275	0.335817	-0.545408
H325	H	1.396129	-0.268611	-0.387882
H326	H	1.896129	0.231389	0.112118
H327	H	1.328971	-0.744125	-0.297225
H328	H	1.828971	-0.244125	0.202775
Cl329	Cl	1.391982	-0.161721	-0.078610
Cl330	Cl	1.891982	0.338279	0.421390
H331	H	1.328881	-0.603368	-0.297223
H332	H	1.828881	-0.103368	0.202777
H333	H	1.252382	-0.207261	-0.140336
H334	H	1.752382	0.292739	0.359664
H335	H	1.707462	-0.829119	-0.135667
H336	H	2.207462	-0.329119	0.364333
H337	H	1.396289	-0.268436	-1.045399
H338	H	1.896289	0.231564	-0.545399
