data_functionalizedCrystal
_audit_creation_method	'MofGen! by Chris Wilmer'
_symmetry_space_group_name_H-M	'P1'
_symmetry_Int_Tables_number	1
_symmetry_cell_setting	triclinic
loop_
_symmetry_equiv_pos_as_xyz
  x,y,z
_cell_length_a	14.519709
_cell_length_b	26.210047
_cell_length_c	14.519709
_cell_angle_alpha	89.996435
_cell_angle_beta	96.319855
_cell_angle_gamma	89.996562
loop_
_atom_site_label
_atom_site_type_symbol
_atom_site_fract_x
_atom_site_fract_y
_atom_site_fract_z
O1	O	-1.223875	0.042364	0.120878
O2	O	-0.955398	0.042379	0.135115
O3	O	-1.096755	0.042367	-0.006242
O4	O	-1.082518	0.042377	0.262235
O5	O	-1.096728	-0.042492	-0.006220
O6	O	-0.955371	-0.042479	0.135137
O7	O	-1.223848	-0.042494	0.120900
Cu8	Cu	-1.089607	-0.050235	0.128020
Cu9	Cu	-1.089639	0.050120	0.127994
O10	O	-1.082491	-0.042482	0.262257
C11	C	-0.921025	-0.000048	0.134462
C12	C	-0.818643	-0.000042	0.132474
C13	C	-1.096078	-0.000063	-0.040591
C14	C	-1.094089	-0.000063	-0.142972
N15	N	-1.089591	-0.120819	0.128038
C16	C	-1.258221	-0.000066	0.121553
C17	C	-1.360602	-0.000069	0.123541
C18	C	-0.443748	-0.000065	0.125154
C19	C	-0.548056	-0.000059	0.127187
C20	C	-0.631192	-0.000053	0.128814
C21	C	-0.735507	-0.000047	0.130847
C22	C	-1.152225	-0.473338	0.065416
C23	C	-1.152246	-0.686997	0.065403
O24	O	-1.205464	-0.714624	0.012163
N25	N	-1.089644	-0.713713	0.127974
C26	C	-1.027029	-0.687010	0.190549
O27	O	-0.973776	-0.714636	0.243763
C28	C	-1.027005	-0.473353	0.190556
C29	C	-1.089617	-0.446640	0.127987
C30	C	-1.214832	-0.446626	0.002851
C31	C	-1.214830	-0.393214	0.002858
C32	C	-1.152221	-0.366515	0.065430
C33	C	-1.089614	-0.393228	0.127995
C34	C	-0.964385	-0.446651	0.253126
C35	C	-0.964383	-0.393233	0.253121
C36	C	-1.026996	-0.366521	0.190552
C37	C	-1.027003	-0.313118	0.190574
N38	N	-1.089605	-0.286403	0.128002
C39	C	-1.152214	-0.313101	0.065431
C40	C	-1.027047	-0.799184	0.190542
C41	C	-1.027054	-0.852598	0.190541
C42	C	-1.152270	-0.852581	0.065394
C43	C	-1.152267	-0.799166	0.065399
C44	C	-1.089649	-0.772468	0.127970
C45	C	-1.152205	-0.200933	0.065451
C46	C	-1.152199	-0.147517	0.065466
C47	C	-1.026980	-0.147539	0.190610
C48	C	-1.026989	-0.200950	0.190598
C49	C	-1.089604	-0.227646	0.128011
O50	O	-0.973806	-0.285459	0.243779
O51	O	-1.205445	-0.285466	0.012211
C52	C	-1.152228	-0.526750	0.065408
C53	C	-1.089621	-0.553463	0.127973
C54	C	-1.027013	-0.526764	0.190545
C55	C	-1.089628	-0.606877	0.127972
C56	C	-1.152237	-0.633575	0.065401
C57	C	-1.214839	-0.606860	0.002830
C58	C	-1.214836	-0.553448	0.002837
C59	C	-0.964411	-0.553480	0.253116
C60	C	-0.964419	-0.606891	0.253104
C61	C	-1.027028	-0.633590	0.190533
N62	N	-1.089662	0.120704	0.127969
C63	C	-1.086770	-0.000049	-0.517868
C64	C	-1.088803	-0.000053	-0.413560
C65	C	-1.090430	-0.000056	-0.330423
C66	C	-1.092463	-0.000059	-0.226109
C67	C	-1.083168	-0.000051	0.296606
C68	C	-1.085156	-0.000048	0.398987
H69	H	-1.203191	-0.222663	0.014486
H70	H	-1.265821	-0.628607	-0.048116
H71	H	-0.913434	-0.628637	0.304064
C72	C	-0.958932	-0.881570	0.258374
C73	C	-0.868290	-0.868588	0.243194
C74	C	-0.805506	-0.895270	0.305653
H75	H	-0.968918	-0.872838	0.319987
H76	H	-0.967833	-0.917211	0.249414
H77	H	-0.859393	-0.832955	0.252161
H78	H	-0.858275	-0.877321	0.181593
H79	H	-0.814408	-0.930911	0.296693
H80	H	-0.815501	-0.886536	0.367262
H81	H	-0.743999	-0.886469	0.295356
H82	H	-0.976054	-0.777450	0.241497
H83	H	-1.265821	-0.531703	-0.048113
H84	H	-0.976008	-0.125793	0.241558
H85	H	-0.913426	-0.531746	0.304068
C86	C	-0.896351	-0.475708	0.320908
C87	C	-0.839837	-0.506381	0.271650
C88	C	-0.777155	-0.533158	0.334062
H89	H	-0.858977	-0.452208	0.358188
H90	H	-0.929547	-0.496576	0.359370
H91	H	-0.806644	-0.485514	0.233204
H92	H	-0.877186	-0.529890	0.234374
H93	H	-0.810351	-0.554026	0.372525
H94	H	-0.739787	-0.509654	0.371339
H95	H	-0.738808	-0.553976	0.300651
H96	H	-1.265811	-0.371468	-0.048093
C97	C	-1.220221	-0.118608	-0.002575
C98	C	-1.275030	-0.153426	-0.057391
C99	C	-1.337689	-0.126816	-0.120087
H100	H	-1.258751	-0.097770	0.030578
H101	H	-1.187009	-0.097781	-0.041090
H102	H	-1.308239	-0.174244	-0.018881
H103	H	-1.236525	-0.174265	-0.090564
H104	H	-1.304477	-0.105989	-0.158602
H105	H	-1.376213	-0.105978	-0.086926
H106	H	-1.374879	-0.150436	-0.157292
H107	H	-1.203250	-0.777419	0.014450
C108	C	-0.896545	-0.364183	0.321106
C109	C	-0.945752	-0.333510	0.377665
C110	C	-0.883294	-0.306738	0.440296
H111	H	-0.859235	-0.387686	0.358455
H112	H	-0.858116	-0.343316	0.287872
H113	H	-0.984165	-0.354375	0.410897
H114	H	-0.983059	-0.309997	0.340342
H115	H	-0.844865	-0.285871	0.407062
H116	H	-0.845987	-0.330245	0.477639
H117	H	-0.916671	-0.285920	0.478673
C118	C	-1.282921	-0.475515	-0.065128
C119	C	-1.337753	-0.440678	-0.119895
C120	C	-1.400505	-0.467267	-0.182518
H121	H	-1.249810	-0.496356	-0.103690
H122	H	-1.321419	-0.496337	-0.031890
H123	H	-1.299260	-0.419864	-0.153131
H124	H	-1.370885	-0.419835	-0.081359
H125	H	-1.439003	-0.488089	-0.149280
H126	H	-1.367386	-0.488107	-0.221074
H127	H	-1.437722	-0.443634	-0.219679
C128	C	-1.220197	-0.881509	-0.002695
C129	C	-1.205099	-0.868506	-0.093352
C130	C	-1.267654	-0.895141	-0.156101
H131	H	-1.211293	-0.917153	0.006141
H132	H	-1.281781	-0.872744	0.007391
H133	H	-1.143529	-0.877274	-0.103434
H134	H	-1.214010	-0.832866	-0.102217
H135	H	-1.329239	-0.886376	-0.146014
H136	H	-1.258746	-0.930784	-0.147256
H137	H	-1.257425	-0.886319	-0.217618
H138	H	-0.976013	-0.222700	0.241556
