data_functionalizedCrystal
_audit_creation_method	'MofGen! by Chris Wilmer'
_symmetry_space_group_name_H-M	'P1'
_symmetry_Int_Tables_number	1
_symmetry_cell_setting	triclinic
loop_
_symmetry_equiv_pos_as_xyz
  x,y,z
_cell_length_a	30.700830
_cell_length_b	30.711256
_cell_length_c	30.700862
_cell_angle_alpha	59.996453
_cell_angle_beta	89.996499
_cell_angle_gamma	59.999927
loop_
_atom_site_label
_atom_site_type_symbol
_atom_site_fract_x
_atom_site_fract_y
_atom_site_fract_z
O1	O	0.298799	0.384092	-0.012980
O2	O	0.235460	0.294925	0.012879
O3	O	0.235458	0.384088	-0.076318
O4	O	0.298800	0.294929	0.076216
O5	O	0.307904	0.311667	-0.076317
O6	O	0.307905	0.222504	0.012879
O7	O	0.371245	0.311671	-0.012980
Cu8	Cu	0.346190	0.260475	-0.000050
Cu9	Cu	0.260515	0.346121	-0.000051
O10	O	0.371246	0.222508	0.076217
C11	C	0.371907	0.469499	-0.018876
C12	C	0.345028	0.523239	-0.015179
C13	C	0.424328	0.443423	-0.019246
C14	C	0.371910	0.390645	-0.018869
C15	C	0.345033	0.360074	-0.015165
C16	C	0.424331	0.364689	-0.019240
C17	C	0.450784	0.390649	-0.018876
C18	C	0.508239	0.360084	-0.015179
C19	C	0.345574	0.443418	-0.019240
C20	C	0.110282	0.535521	-0.503956
C21	C	0.057861	0.588293	-0.530291
C22	C	0.110283	0.535521	-0.425080
C23	C	0.057862	0.588292	-0.451534
C24	C	0.031407	0.614370	-0.503955
C25	C	0.136617	0.509563	-0.451535
C26	C	0.238046	0.393525	-0.552121
C27	C	0.263047	0.364496	-0.576948
C28	C	0.236095	0.389413	-0.628894
C29	C	0.263197	0.357934	-0.655812
C30	C	0.184142	0.443363	-0.656014
C31	C	0.159147	0.472393	-0.631190
C32	C	0.186102	0.447471	-0.579241
C33	C	-0.158801	0.790238	-0.631716
C34	C	-0.212666	0.840049	-0.656717
C35	C	-0.239689	0.865034	-0.629766
C36	C	-0.298094	0.919035	-0.656865
C37	C	-0.212841	0.840210	-0.577813
C38	C	-0.158976	0.790408	-0.552817
C39	C	-0.131959	0.765422	-0.579775
C40	C	0.238047	0.393524	-0.234872
C41	C	0.263046	0.364490	-0.181004
C42	C	0.236094	0.389407	-0.153982
C43	C	0.263196	0.357928	-0.095575
C44	C	0.184143	0.443353	-0.180828
C45	C	0.159146	0.472382	-0.234693
C46	C	0.186105	0.447466	-0.261713
C47	C	0.158993	0.478950	-0.552326
C48	C	0.137387	0.504042	-0.530872
C49	C	0.137387	0.504042	-0.366675
C50	C	0.158994	0.478949	-0.320120
C51	C	-0.026998	0.668371	-0.531059
C52	C	-0.073552	0.711417	-0.552664
C53	C	0.031743	0.071080	0.039174
C54	C	0.058198	0.018309	0.039542
C55	C	0.110620	0.071079	0.039177
C56	C	0.136955	0.018307	0.039544
C57	C	0.110619	-0.007769	0.039174
C58	C	0.058199	0.097037	0.039545
C59	C	-0.158465	0.213078	0.024893
C60	C	-0.212331	0.242108	0.020855
C61	C	-0.239353	0.217193	0.018826
C62	C	-0.297760	0.248672	0.014438
C63	C	-0.212505	0.163242	0.020841
C64	C	-0.158641	0.134212	0.024886
C65	C	-0.131622	0.159133	0.026912
C66	C	0.158783	-0.183634	0.024890
C67	C	0.183609	-0.233444	0.020851
C68	C	0.235554	-0.258431	0.018822
C69	C	0.262474	-0.312431	0.014436
C70	C	0.262675	-0.233607	0.020839
C71	C	0.237853	-0.183806	0.024887
C72	C	0.185902	-0.158820	0.026909
C73	C	0.158788	0.213071	0.024902
C74	C	0.183613	0.242104	0.020859
C75	C	0.235560	0.217187	0.018833
C76	C	0.262479	0.248664	0.014447
C77	C	0.262678	0.163241	0.020845
C78	C	0.237850	0.134213	0.024886
C79	C	0.185906	0.159130	0.026919
C80	C	-0.073217	0.127653	0.031294
C81	C	-0.026662	0.102560	0.034788
C82	C	0.137536	0.102557	0.034793
C83	C	0.158992	0.127648	0.031300
C84	C	0.137534	-0.061769	0.034788
C85	C	0.158989	-0.104815	0.031293
O86	O	0.682982	0.222515	0.012866
O87	O	0.530448	0.311680	-0.012993
O88	O	0.619630	0.222522	0.076204
O89	O	0.593800	0.311673	-0.076331
O90	O	0.619627	0.294947	0.076197
O91	O	0.530445	0.384106	-0.012999
O92	O	0.682979	0.294940	0.012859
Cu93	Cu	0.606712	0.346136	-0.000071
Cu94	Cu	0.606715	0.260484	-0.000063
O95	O	0.593797	0.384098	-0.076338
O96	O	0.307899	0.669889	0.012863
O97	O	0.371239	0.543255	-0.012994
O98	O	0.371236	0.543242	0.076202
O99	O	0.307902	0.669901	-0.076333
O100	O	0.298788	0.543247	0.076196
O101	O	0.298792	0.543260	-0.013000
O102	O	0.235451	0.669893	0.012857
Cu103	Cu	0.260506	0.606577	-0.000072
Cu104	Cu	0.346184	0.606571	-0.000065
O105	O	0.235455	0.669906	-0.076338
O106	O	-0.469884	1.063354	-0.692461
O107	O	-0.317352	0.936712	-0.629124
O108	O	-0.406540	0.936708	-0.629115
O109	O	-0.380697	1.063359	-0.692470
O110	O	-0.406542	0.936710	-0.701561
O111	O	-0.317354	0.936714	-0.701571
O112	O	-0.469886	1.063356	-0.764907
Cu113	Cu	-0.393620	1.000035	-0.739854
Cu114	Cu	-0.393618	1.000033	-0.654178
O115	O	-0.380699	1.063360	-0.764916
O116	O	0.298803	0.294926	-0.764575
O117	O	0.235457	0.384089	-0.701236
O118	O	0.235461	0.294924	-0.701228
O119	O	0.298800	0.384091	-0.764583
O120	O	0.307905	0.222504	-0.628782
O121	O	0.307902	0.311669	-0.628790
O122	O	0.371248	0.222506	-0.692129
Cu123	Cu	0.346190	0.260475	-0.653845
Cu124	Cu	0.260516	0.346120	-0.739520
O125	O	0.371245	0.311671	-0.692138
C126	C	0.450791	0.137109	0.234755
C127	C	0.508246	0.083371	0.261632
C128	C	0.424336	0.163186	0.261091
C129	C	0.371914	0.215959	0.155880
C130	C	0.345035	0.246527	0.098424
C131	C	0.345580	0.241916	0.182336
C132	C	0.371915	0.215958	0.234757
C133	C	0.345037	0.246525	0.261636
C134	C	0.424336	0.163187	0.182334
C135	C	0.625476	0.215999	0.234731
C136	C	0.621772	0.246572	0.261605
C137	C	0.625838	0.163230	0.261069
C138	C	0.625493	0.215987	0.155862
C139	C	0.621807	0.246546	0.098407
C140	C	0.625855	0.163217	0.182319
C141	C	0.625475	0.137148	0.234738
C142	C	0.621769	0.083412	0.261618
C143	C	0.625857	0.241949	0.182312
C144	C	0.371894	0.390626	0.234737
C145	C	0.345013	0.360058	0.261613
C146	C	0.424315	0.364664	0.261074
C147	C	0.371899	0.469481	0.155863
C148	C	0.345023	0.523225	0.098407
C149	C	0.424319	0.443399	0.182320
C150	C	0.450772	0.390623	0.234741
C151	C	0.508227	0.360052	0.261622
C152	C	0.345562	0.443403	0.182316
C153	C	0.567583	0.613983	-0.503964
C154	C	0.567223	0.587898	-0.530294
C155	C	0.567568	0.535141	-0.425087
C156	C	0.567208	0.509176	-0.451537
C157	C	0.567589	0.535126	-0.503956
C158	C	0.567203	0.587912	-0.451545
C159	C	0.581864	0.789858	-0.552141
C160	C	0.585904	0.839668	-0.576969
C161	C	0.587943	0.864647	-0.628914
C162	C	0.592334	0.918648	-0.655834
C163	C	0.585936	0.839815	-0.656029
C164	C	0.581889	0.790014	-0.631203
C165	C	0.579852	0.765035	-0.579256
C166	C	0.581907	0.472673	-0.631700
C167	C	0.585953	0.443812	-0.656696
C168	C	0.587979	0.389857	-0.629742
C169	C	0.592374	0.358554	-0.656836
C170	C	0.585952	0.364768	-0.577791
C171	C	0.581897	0.393634	-0.552800
C172	C	0.579878	0.447589	-0.579760
C173	C	0.581803	0.472746	-0.234887
C174	C	0.585836	0.443894	-0.181021
C175	C	0.587859	0.389939	-0.153997
C176	C	0.592234	0.358652	-0.095591
C177	C	0.585855	0.364835	-0.180838
C178	C	0.581825	0.393687	-0.234702
C179	C	0.579794	0.447647	-0.261724
C180	C	0.575468	0.711029	-0.552338
C181	C	0.571972	0.667983	-0.530882
C182	C	0.571941	0.503858	-0.366684
C183	C	0.575424	0.478924	-0.320130
C184	C	0.571984	0.503828	-0.531054
C185	C	0.575485	0.478882	-0.552655
O186	O	0.593717	0.311733	0.371167
O187	O	0.619578	0.222560	0.307837
O188	O	0.530383	0.311734	0.307818
O189	O	0.682911	0.222559	0.371186
O190	O	0.530400	0.384146	0.235373
O191	O	0.619594	0.294972	0.235392
O192	O	0.593733	0.384146	0.298722
Cu193	Cu	0.606665	0.346171	0.260442
Cu194	Cu	0.606646	0.260535	0.346116
O195	O	0.682928	0.294972	0.298741
C196	C	0.031769	1.071141	-0.503978
C197	C	0.058226	1.097099	-0.530310
C198	C	0.110641	0.992283	-0.425100
C199	C	0.136978	1.018361	-0.451552
C200	C	0.110646	1.071137	-0.503973
C201	C	0.058220	1.018364	-0.451557
C202	C	-0.158441	1.133577	-0.552152
C203	C	-0.212306	1.162435	-0.576981
C204	C	-0.239324	1.216395	-0.628927
C205	C	-0.297731	1.247694	-0.655847
C206	C	-0.212473	1.241492	-0.656045
C207	C	-0.158611	1.212629	-0.631219
C208	C	-0.131595	1.158669	-0.579270
C209	C	0.158822	1.213138	-0.631728
C210	C	0.183651	1.242168	-0.656727
C211	C	0.235595	1.217251	-0.629774
C212	C	0.262518	1.248725	-0.656871
C213	C	0.262712	1.163295	-0.577821
C214	C	0.237888	1.134261	-0.552827
C215	C	0.185937	1.159192	-0.579786
C216	C	0.158794	0.816397	-0.234892
C217	C	0.183615	0.766586	-0.181024
C218	C	0.235562	0.741595	-0.154000
C219	C	0.262476	0.687588	-0.095593
C220	C	0.262682	0.766420	-0.180844
C221	C	0.237859	0.816232	-0.234710
C222	C	0.185915	0.841213	-0.261732
C223	C	-0.073190	1.127379	-0.552352
C224	C	-0.026636	1.102436	-0.530896
C225	C	0.137553	0.938276	-0.366694
C226	C	0.159005	0.895225	-0.320139
C227	C	0.137565	1.102616	-0.531074
C228	C	0.159021	1.127708	-0.552678
H229	H	0.036622	0.610110	-0.430290
H230	H	-0.234186	0.286034	0.019214
H231	H	0.302504	0.465241	-0.019828
C232	C	-0.242189	1.300842	-0.713182
H233	H	-0.218484	1.311651	-0.725777
H234	H	-0.271381	1.333254	-0.713167
H235	H	-0.255028	1.294232	-0.735855
C236	C	0.102005	0.531723	-0.264224
H237	H	0.090976	0.545440	-0.300173
H238	H	0.101234	0.562679	-0.263539
H239	H	0.078549	0.523652	-0.247182
H240	H	0.445576	0.141359	0.161097
H241	H	0.566605	0.609743	-0.430311
H242	H	0.180052	0.996525	-0.430311
H243	H	0.587605	0.464243	-0.698993
H244	H	0.259945	0.836441	-0.256563
H245	H	0.626426	0.141411	0.304140
H246	H	0.036984	1.139573	-0.573380
C247	C	0.267681	-0.156501	0.027105
H248	H	0.245456	-0.123263	0.029805
H249	H	0.276652	-0.142019	-0.004421
H250	H	0.299334	-0.187377	0.057305
H251	H	0.116485	-0.163296	0.026538
C252	C	0.626661	0.133728	0.153633
H253	H	0.626833	0.156826	0.118559
H254	H	0.595888	0.133512	0.151817
H255	H	0.657768	0.092654	0.172827
C256	C	0.626658	0.299315	0.153615
H257	H	0.626816	0.311118	0.176885
H258	H	0.595891	0.332105	0.122620
H259	H	0.657771	0.290105	0.143642
H260	H	0.161529	0.286029	0.019220
C261	C	0.453022	0.472905	-0.020053
H262	H	0.488093	0.449805	-0.020226
H263	H	0.454844	0.473118	0.010722
H264	H	0.433832	0.513981	-0.051160
C265	C	0.287391	0.299268	0.153655
H266	H	0.275429	0.311055	0.176936
H267	H	0.265502	0.290053	0.143678
H268	H	0.285345	0.332079	0.122662
C269	C	0.029168	0.617776	-0.588474
H270	H	0.052439	0.594669	-0.600438
H271	H	0.019186	0.658849	-0.610375
H272	H	-0.001822	0.617988	-0.590500
H273	H	0.445558	0.465227	0.161080
H274	H	0.445549	0.322197	0.304146
H275	H	0.445575	0.141352	0.304165
C276	C	-0.129078	1.240231	-0.661047
H277	H	-0.152882	1.276502	-0.695539
H278	H	-0.099893	1.211104	-0.664347
H279	H	-0.116246	1.250127	-0.641660
C280	C	0.287376	0.472896	0.153623
H281	H	0.275408	0.449794	0.176896
H282	H	0.285337	0.473125	0.122627
H283	H	0.265483	0.513966	0.143652
C284	C	0.566436	0.617368	-0.588476
H285	H	0.566269	0.594263	-0.600435
H286	H	0.597213	0.617578	-0.590506
H287	H	0.535332	0.658445	-0.610382
H288	H	0.566617	0.466709	-0.430292
H289	H	0.587471	0.464336	-0.159169
H290	H	-0.136807	0.769901	-0.653670
C291	C	0.194801	0.452198	-0.422842
H292	H	0.206766	0.440400	-0.446116
H293	H	0.196833	0.419405	-0.391849
H294	H	0.216699	0.461406	-0.412868
H295	H	0.161523	-0.253650	0.019208
C296	C	0.453027	0.307323	-0.020038
H297	H	0.488101	0.295533	-0.020205
H298	H	0.433840	0.316519	-0.051137
H299	H	0.454854	0.274521	0.010746
H300	H	-0.136470	0.233374	0.026544
C301	C	0.154496	0.470768	-0.151109
H302	H	0.176823	0.445759	-0.115186
H303	H	0.122846	0.472218	-0.151721
H304	H	0.145536	0.511240	-0.168083
C305	C	0.579573	0.532097	-0.264610
H306	H	0.581351	0.542912	-0.240910
H307	H	0.547139	0.564507	-0.293805
H308	H	0.608863	0.525480	-0.277446
H309	H	0.580204	0.769526	-0.509845
H310	H	0.161567	1.286100	-0.699025
C311	C	0.320189	0.305153	-0.151477
H312	H	0.332663	0.294476	-0.175286
H313	H	0.320241	0.272675	-0.122290
H314	H	0.342920	0.311709	-0.138648
H315	H	-0.234843	0.860559	-0.555872
C316	C	0.267697	0.366111	-0.264589
H317	H	0.302213	0.329820	-0.240886
H318	H	0.270930	0.395305	-0.293784
H319	H	0.248238	0.356284	-0.277426
H320	H	0.259999	0.373229	-0.509824
C321	C	0.588119	0.866972	-0.547141
H322	H	0.586333	0.844959	-0.512647
H323	H	0.558840	0.909077	-0.566527
H324	H	0.620562	0.863712	-0.543837
H325	H	0.162203	0.463648	-0.698309
H326	H	0.305346	0.320569	-0.554863
H327	H	0.116849	0.516319	-0.653275
C328	C	0.029510	0.154397	0.040350
H329	H	-0.005565	0.166195	0.040515
H330	H	0.027698	0.187194	0.009581
H331	H	0.048698	0.145183	0.071463
C332	C	0.588179	0.867290	-0.713162
H333	H	0.590881	0.900504	-0.724064
H334	H	0.556664	0.881837	-0.736684
H335	H	0.618387	0.836475	-0.713984
H336	H	0.180026	-0.003515	0.040137
C337	C	0.579684	0.762701	-0.661027
H338	H	0.581482	0.784706	-0.695516
H339	H	0.547249	0.765950	-0.664331
H340	H	0.608972	0.720595	-0.641633
C341	C	0.579677	0.532025	-0.661357
H342	H	0.581457	0.542836	-0.695876
H343	H	0.608955	0.525418	-0.641903
H344	H	0.547233	0.564440	-0.664595
C345	C	-0.129111	0.074869	0.027110
H346	H	-0.152917	0.064188	0.025321
H347	H	-0.099929	0.042397	0.059548
H348	H	-0.116275	0.081417	-0.002177
C349	C	0.588176	0.305422	-0.548141
H350	H	0.590885	0.291820	-0.570462
H351	H	0.556653	0.313425	-0.539183
H352	H	0.618376	0.274401	-0.516488
H353	H	0.580246	0.373204	-0.510503
C354	C	-0.242196	0.867345	-0.713855
H355	H	-0.218392	0.845327	-0.726325
H356	H	-0.255034	0.909450	-0.736596
H357	H	-0.271378	0.864084	-0.713892
H358	H	-0.137119	0.770202	-0.510519
H359	H	0.036957	-0.003516	0.040138
H360	H	0.116491	0.233365	0.026556
H361	H	-0.234509	0.142959	0.019192
C362	C	0.319811	-0.261086	0.018606
H363	H	0.330710	-0.294297	0.015902
H364	H	0.343331	-0.275638	0.050125
H365	H	0.320637	-0.230271	-0.011600
H366	H	0.580196	0.373241	-0.256552
H367	H	0.587506	0.320899	-0.158831
C368	C	0.029526	0.988882	-0.422865
H369	H	-0.005549	1.011989	-0.446140
H370	H	0.027714	0.988659	-0.391872
H371	H	0.048711	0.947810	-0.412890
C372	C	0.153783	0.739281	-0.151499
H373	H	0.119294	0.761292	-0.175309
H374	H	0.150479	0.742527	-0.122313
H375	H	0.173169	0.697176	-0.138670
C376	C	0.101654	0.843884	-0.264612
H377	H	0.089053	0.821974	-0.240909
H378	H	0.101664	0.840646	-0.293807
H379	H	0.078989	0.885996	-0.277448
C380	C	0.267682	0.074872	0.027106
H381	H	0.302177	0.064185	0.025327
H382	H	0.248302	0.081417	-0.002177
H383	H	0.270981	0.042397	0.059548
C384	C	0.319850	1.135881	-0.548172
H385	H	0.330752	1.160900	-0.570495
H386	H	0.343366	1.095412	-0.539210
H387	H	0.320678	1.134433	-0.516521
C388	C	0.319820	0.135828	0.018619
H389	H	0.330726	0.160836	0.015930
H390	H	0.320655	0.134380	-0.011581
H391	H	0.343333	0.095354	0.050145
C392	C	-0.128726	1.074219	-0.495015
H393	H	-0.152428	1.063402	-0.482424
H394	H	-0.115884	1.080822	-0.472339
H395	H	-0.099535	1.041809	-0.495036
H396	H	-0.234163	1.141997	-0.554898
C397	C	0.101685	1.240553	-0.661385
H398	H	0.089095	1.276837	-0.695906
H399	H	0.079012	1.250379	-0.641933
H400	H	0.101703	1.211355	-0.664619
H401	H	0.259971	1.090330	-0.510529
C402	C	0.319827	0.738924	-0.151124
H403	H	0.330732	0.705697	-0.115202
H404	H	0.320671	0.769721	-0.151735
H405	H	0.343336	0.724378	-0.168101
