data_functionalizedCrystal
_audit_creation_method	'MofGen! by Chris Wilmer'
_symmetry_space_group_name_H-M	'P1'
_symmetry_Int_Tables_number	1
_symmetry_cell_setting	triclinic
loop_
_symmetry_equiv_pos_as_xyz
  x,y,z
_cell_length_a	12.594517
_cell_length_b	12.594516
_cell_length_c	13.897441
_cell_angle_alpha	89.973623
_cell_angle_beta	89.976912
_cell_angle_gamma	90.015485
loop_
_atom_site_label
_atom_site_type_symbol
_atom_site_fract_x
_atom_site_fract_y
_atom_site_fract_z
Zn1	Zn	1.627276	-0.423724	-0.545470
Zn2	Zn	1.627164	-0.601735	-0.384183
Zn3	Zn	1.449277	-0.423769	-0.384182
Zn4	Zn	1.449262	-0.601659	-0.545429
O5	O	1.538245	-0.512722	-0.464816
O6	O	1.776207	-0.447351	-0.524093
O7	O	1.603527	-0.578178	-0.249201
O8	O	1.472942	-0.274817	-0.405593
O9	O	1.776125	-0.578134	-0.405596
O10	O	1.603717	-0.274784	-0.524091
O11	O	1.472834	-0.447427	-0.249200
O12	O	1.300330	-0.447354	-0.405554
O13	O	1.472917	-0.578005	-0.680416
O14	O	1.300318	-0.578049	-0.524022
O15	O	1.603703	-0.447277	-0.680446
O16	O	1.603512	-0.750671	-0.405557
O17	O	1.472808	-0.750615	-0.524023
C18	C	1.261704	-0.512699	-0.464784
C19	C	1.143399	-0.512715	-0.464793
C20	C	1.538175	-0.789263	-0.464807
C21	C	1.538243	-0.907568	-0.464835
C22	C	1.003357	-0.441551	-0.400506
C23	C	1.074217	-0.415618	-0.488525
C24	C	1.074110	-0.538600	-0.376783
C25	C	1.003473	-0.486773	-0.552929
C26	C	1.003360	-0.609800	-0.441128
C27	C	1.074188	-0.583904	-0.529208
C28	C	1.467146	-0.976830	-0.529224
C29	C	1.441211	-1.047695	-0.441206
C30	C	1.564275	-1.047502	-0.552868
C31	C	1.512257	-0.976876	-0.376770
C32	C	1.635365	-0.976676	-0.488492
C33	C	1.609467	-1.047509	-0.400413
C34	C	1.815866	-0.512746	-0.464849
C35	C	1.934171	-0.512756	-0.464863
C36	C	1.538321	-0.512628	-0.716409
C37	C	1.538353	-0.512588	-0.823623
C38	C	1.538344	-0.235101	-0.464847
C39	C	1.538386	-0.116796	-0.464860
C40	C	1.538382	-0.512516	-1.019919
C41	C	1.538362	-0.512559	-0.910686
C42	C	1.538231	-0.512739	-0.214202
C43	C	1.538405	-0.512479	-0.106988
H44	H	0.972260	-0.381308	-0.346178
H45	H	1.105090	-0.644102	-0.583666
H46	H	0.972213	-0.691863	-0.421051
F47	F	1.114671	-0.567196	-0.279461
H48	H	1.406914	-0.945795	-0.583596
F49	F	1.333937	-1.088467	-0.415056
H50	H	1.490202	-0.945980	-0.302312
H51	H	0.972573	-0.464800	-0.627410
H52	H	1.669653	-1.078348	-0.345910
H53	H	1.717414	-0.945460	-0.508523
H54	H	1.105322	-0.333528	-0.508588
F55	F	1.592977	-1.088057	-0.650162
