data_functionalizedCrystal
_audit_creation_method	'MofGen! by Chris Wilmer'
_symmetry_space_group_name_H-M	'P1'
_symmetry_Int_Tables_number	1
_symmetry_cell_setting	triclinic
loop_
_symmetry_equiv_pos_as_xyz
  x,y,z
_cell_length_a	19.851628
_cell_length_b	21.606444
_cell_length_c	19.851628
_cell_angle_alpha	60.006610
_cell_angle_beta	90.001806
_cell_angle_gamma	60.002929
loop_
_atom_site_label
_atom_site_type_symbol
_atom_site_fract_x
_atom_site_fract_y
_atom_site_fract_z
Zr1	Zr	0.648896	0.677508	-0.088408
O2	O	0.541343	0.806603	-0.195951
O3	O	0.681867	0.548397	-0.055443
O4	O	0.681870	0.677500	-0.195964
O5	O	0.541337	0.677512	0.055418
O6	O	0.792719	0.677512	-0.195970
O7	O	0.541341	0.677500	-0.055431
O8	O	0.792714	0.446570	0.055396
O9	O	0.541342	0.908454	-0.195948
O10	O	0.778653	0.601517	-0.041385
O11	O	0.695926	0.601517	0.041345
O12	O	0.695929	0.753519	-0.124100
O13	O	0.613201	0.753519	-0.041370
Zr14	Zr	0.825681	0.677546	0.088374
Zr15	Zr	0.825687	0.677527	-0.088417
Zr16	Zr	0.648890	0.677527	0.088383
Zr17	Zr	0.648894	0.839948	-0.088402
Zr18	Zr	0.825683	0.515106	0.088368
O19	O	0.792710	0.806657	0.055409
O20	O	0.792717	0.806630	-0.195965
O21	O	0.541336	0.806630	0.055423
O22	O	0.933234	0.548451	0.195917
O23	O	0.933241	0.548424	-0.055457
O24	O	0.681860	0.548424	0.195931
O25	O	0.933240	0.677542	-0.055452
O26	O	0.792707	0.677554	0.195929
O27	O	0.681858	0.677542	0.195936
O28	O	0.933237	0.677554	0.055396
O29	O	0.681868	0.908469	-0.195955
O30	O	0.792710	0.446585	0.195921
O31	O	0.933235	0.446600	0.195914
O32	O	0.933239	0.446585	0.055388
O33	O	0.541338	0.908469	-0.055422
O34	O	0.681863	0.908484	-0.055430
O35	O	0.778648	0.601535	0.124066
O36	O	0.861376	0.601535	0.041336
O37	O	0.778652	0.753537	-0.041379
O38	O	0.695924	0.753537	0.041351
C39	C	0.737291	0.474339	-0.000024
C40	C	0.737292	0.405379	-0.000027
C41	C	0.516150	0.677503	-0.000005
C42	C	0.441098	0.677495	-0.000001
C43	C	0.780473	0.372981	-0.043212
C44	C	0.780476	0.308181	-0.043206
C45	C	0.737292	0.275785	-0.000020
C46	C	0.694110	0.308185	0.043171
C47	C	0.694112	0.372979	0.043170
C48	C	0.694100	0.046876	0.043178
C49	C	0.694099	-0.017922	0.043174
C50	C	0.780464	-0.017922	-0.043198
C51	C	0.780466	0.046872	-0.043200
C52	C	0.737288	0.079263	-0.000006
C53	C	0.737286	0.149526	-0.000011
C54	C	0.737288	0.205528	-0.000019
C55	C	0.304836	0.594637	0.045089
C56	C	0.237386	0.636071	0.077785
C57	C	0.303666	0.677518	-0.000011
C58	C	0.237382	0.636078	-0.032679
C59	C	0.170917	0.677534	-0.000021
C60	C	0.237205	0.718952	0.032731
C61	C	0.237210	0.718948	-0.077777
C62	C	0.169747	0.760443	-0.045100
C63	C	0.380141	0.677506	-0.000004
C64	C	0.094440	0.677552	-0.000027
C65	C	0.958427	0.677551	-0.000029
C66	C	1.033480	0.677559	-0.000034
C67	C	0.737295	0.677503	-0.221156
C68	C	0.737298	0.677495	-0.296208
C69	C	0.737286	0.880715	-0.000010
C70	C	0.737285	0.949675	-0.000007
C71	C	0.782400	0.594637	-0.432474
C72	C	0.704615	0.636059	-0.499921
C73	C	0.737290	0.677518	-0.433639
C74	C	0.815058	0.636090	-0.499927
C75	C	0.737288	0.677534	-0.566389
C76	C	0.659459	0.718940	-0.500098
C77	C	0.769959	0.718960	-0.500094
C78	C	0.692127	0.760443	-0.567553
C79	C	0.737291	0.677506	-0.357165
C80	C	0.737278	0.677552	-0.642865
C81	C	0.737282	0.677551	0.221122
C82	C	0.737280	0.677559	0.296174
C83	C	0.958430	0.474363	-0.000037
C84	C	1.033483	0.405411	-0.000043
C85	C	0.737284	0.474363	0.221114
C86	C	0.737283	0.405411	0.296164
C87	C	0.958423	0.474387	0.221102
C88	C	1.033474	0.405443	0.296148
C89	C	0.516154	0.880667	-0.221136
C90	C	0.441103	0.949611	-0.296182
C91	C	0.516148	0.880691	0.000002
C92	C	0.441095	0.949643	0.000009
C93	C	0.737293	0.880691	-0.221148
C94	C	0.737294	0.949643	-0.296198
C95	C	1.025548	0.373021	-0.043233
C96	C	1.096062	0.308242	-0.043256
C97	C	1.174509	0.275850	-0.000083
C98	C	1.182442	0.308246	0.043108
C99	C	1.111929	0.373028	0.043125
C100	C	0.780462	0.373040	0.374595
C101	C	0.780458	0.308261	0.445119
C102	C	0.737278	0.275850	0.437211
C103	C	0.694093	0.308228	0.358772
C104	C	0.694093	0.373010	0.288249
C105	C	1.111909	0.373066	0.288206
C106	C	1.182434	0.308295	0.358713
C107	C	1.174522	0.275897	0.437161
C108	C	1.096079	0.308281	0.445101
C109	C	1.025555	0.373055	0.374595
C110	C	0.362668	0.981996	-0.288240
C111	C	0.292143	1.046787	-0.358747
C112	C	0.300055	1.079188	-0.437195
C113	C	0.378499	1.046801	-0.445135
C114	C	0.449022	0.982015	-0.374629
C115	C	0.449029	0.982040	0.043191
C116	C	0.378515	1.046837	0.043195
C117	C	0.300068	1.079231	0.000020
C118	C	0.292135	1.046832	-0.043168
C119	C	0.362648	0.982041	-0.043176
C120	C	0.780483	0.982033	-0.288263
C121	C	0.780500	1.046813	-0.358774
C122	C	0.737324	1.079205	-0.437219
C123	C	0.694135	1.046808	-0.445152
C124	C	0.694122	0.982026	-0.374643
H125	H	0.815634	0.399358	-0.078384
C126	C	0.646603	0.272562	0.350086
N127	N	0.610838	0.245692	0.343546
C128	C	1.087317	0.272610	-0.090763
N129	N	1.080728	0.245772	-0.126543
C130	C	0.222509	1.150500	0.000041
N131	N	0.164095	1.204177	0.000062
C132	C	0.646678	1.082418	-0.531450
N133	N	0.610943	1.109234	-0.596451
C134	C	0.827976	0.272649	0.531395
N135	N	0.863769	0.245826	0.596375
H136	H	0.815625	-0.044305	-0.078366
H137	H	1.089649	0.281893	0.508982
H138	H	0.820482	0.524558	-0.374642
H139	H	1.231919	0.223100	-0.000103
H140	H	0.658934	0.399358	0.224390
C141	C	1.120672	0.408642	0.090650
N142	N	1.127262	0.435462	0.126449
H143	H	0.593659	0.753939	-0.499497
H144	H	0.961693	0.399408	0.381073
H145	H	0.512899	0.955669	0.078355
C146	C	0.353945	0.946373	-0.201954
N147	N	0.347368	0.919550	-0.136965
C148	C	1.268714	0.272677	0.349960
N149	N	1.333698	0.245850	0.343365
C150	C	1.252108	0.204637	0.514712
N151	N	1.310550	0.150960	0.573120
H152	H	0.653926	0.830580	-0.625289
H153	H	0.384931	1.073190	-0.509015
C154	C	0.667279	0.588731	-0.500835
N155	N	0.639161	0.553078	-0.501518
H156	H	0.658950	0.955661	-0.381115
C157	C	1.268743	0.272599	0.090601
N158	N	1.333746	0.245742	0.126378
H159	H	0.961679	0.399394	-0.078399
C160	C	0.205835	1.082463	-0.090644
N161	N	0.140831	1.109295	-0.126395
C162	C	0.205864	1.082400	-0.349994
N163	N	0.140880	1.109222	-0.343399
H164	H	0.815638	0.281803	-0.078370
H165	H	0.737285	0.223101	0.494641
H166	H	0.815625	0.399421	0.381050
C167	C	0.646609	0.408617	0.090676
N168	N	0.610830	0.435456	0.126462
H169	H	0.384991	1.073205	0.078366
H170	H	0.512885	0.955648	-0.381105
H171	H	1.118367	0.399435	0.224336
C172	C	0.382970	0.499964	0.096679
N173	N	0.441821	0.428659	0.135539
H174	H	0.242624	1.131941	-0.494598
C175	C	0.827973	0.082504	-0.090707
N176	N	0.863759	0.109337	-0.126486
H177	H	0.356176	0.955665	-0.078338
H178	H	0.815642	0.955670	-0.224396
H179	H	0.815669	1.073183	-0.352298
C180	C	0.737344	1.150469	-0.514775
N181	N	0.737361	1.204147	-0.573186
H182	H	0.112007	0.830580	-0.083235
C183	C	0.903910	0.588755	-0.500819
N184	N	0.970834	0.553097	-0.501485
C185	C	0.646615	-0.053578	0.090708
N186	N	0.610859	-0.080441	0.126516
C187	C	0.646607	0.272546	0.090676
N188	N	0.610824	0.245707	0.126455
C189	C	0.646632	0.082470	0.090722
N190	N	0.610889	0.109272	0.126547
C191	C	0.238014	0.766241	0.070160
N192	N	0.238627	0.801855	0.098355
C193	C	0.238171	0.766219	-0.166599
N194	N	0.238901	0.801816	-0.233501
C195	C	0.236472	0.588754	0.166626
N196	N	0.235787	0.553110	0.233541
H197	H	0.236723	0.601028	-0.060305
H198	H	0.797613	0.753963	-0.499387
