data_functionalizedCrystal
_audit_creation_method	'MofGen! by Chris Wilmer'
_symmetry_space_group_name_H-M	'P1'
_symmetry_Int_Tables_number	1
_symmetry_cell_setting	triclinic
loop_
_symmetry_equiv_pos_as_xyz
  x,y,z
_cell_length_a	11.792254
_cell_length_b	10.654550
_cell_length_c	9.730223
_cell_angle_alpha	89.998521
_cell_angle_beta	89.996764
_cell_angle_gamma	84.341763
loop_
_atom_site_label
_atom_site_type_symbol
_atom_site_fract_x
_atom_site_fract_y
_atom_site_fract_z
O1	O	1.507296	0.172211	-0.114279
O2	O	2.007296	0.672211	0.385721
O3	O	1.176998	0.189935	-0.114281
O4	O	1.676998	0.689935	0.385719
O5	O	1.349741	-0.001688	-0.114281
O6	O	1.849741	0.498312	0.385719
O7	O	1.334553	0.363833	-0.114279
O8	O	1.834553	0.863833	0.385721
O9	O	1.349730	-0.001693	0.114299
O10	O	1.849730	0.498307	0.614299
O11	O	1.176987	0.189929	0.114299
O12	O	1.676987	0.689929	0.614299
O13	O	1.507285	0.172206	0.114301
O14	O	2.007285	0.672206	0.614301
Zn15	Zn	1.342134	0.181067	0.150592
Zn16	Zn	1.842134	0.681067	0.650592
Zn17	Zn	1.342149	0.181073	-0.150572
Zn18	Zn	1.842149	0.681073	0.349428
O19	O	1.334542	0.363828	0.114301
O20	O	1.834542	0.863828	0.614301
C21	C	1.134699	0.188815	0.000008
C22	C	1.634699	0.688815	0.500008
C23	C	1.008678	0.185474	0.000007
C24	C	1.508678	0.685474	0.500007
C25	C	1.348620	-0.048485	0.000006
C26	C	1.848620	0.451515	0.500006
C27	C	1.345284	-0.187919	-0.000004
C28	C	1.845284	0.312081	0.499996
C29	C	1.340575	-0.384444	-0.124592
C30	C	1.840575	0.115556	0.375408
C31	C	1.343722	-0.253432	-0.124601
C32	C	1.843722	0.246568	0.375399
C33	C	1.343711	-0.253426	0.124610
C34	C	1.843711	0.246574	0.624610
C35	C	1.340572	-0.384436	0.124616
C36	C	1.840572	0.115564	0.624616
C37	C	0.906335	0.182758	0.000001
C38	C	1.406335	0.682758	0.500001
C39	C	0.777941	0.179363	0.000000
C40	C	1.277941	0.679363	0.500000
C41	C	1.549584	0.173325	0.000008
C42	C	2.049584	0.673325	0.500008
C43	C	1.675605	0.176666	0.000000
C44	C	2.175605	0.676666	0.500000
C45	C	1.335662	0.410625	0.000011
C46	C	1.835662	0.910625	0.500011
C47	C	1.338999	0.550059	0.000011
C48	C	1.838999	1.050059	0.500011
N49	N	1.342132	0.181061	0.356128
N50	N	1.842132	0.681061	0.856128
N51	N	1.342159	0.181069	-0.356109
N52	N	1.842159	0.681069	0.143891
C53	C	1.418649	0.096247	0.428054
C54	C	1.918649	0.596247	0.928054
C55	C	1.418661	0.096247	0.571937
C56	C	1.918661	0.596247	1.071937
C57	C	1.265634	0.265887	0.571955
C58	C	1.765634	0.765887	1.071955
C59	C	1.265618	0.265880	0.428075
C60	C	1.765618	0.765880	0.928075
H61	H	1.339293	-0.437774	-0.226054
H62	H	1.839293	0.062226	0.273946
Br63	Br	1.161800	0.380997	0.669602
Br64	Br	1.661800	0.880997	1.169602
H65	H	1.339292	-0.437766	0.226090
H66	H	1.839292	0.062234	0.726090
Br67	Br	1.161758	0.380983	0.330450
Br68	Br	1.661758	0.880983	0.830450
Br69	Br	1.522504	-0.018868	0.669548
Br70	Br	2.022504	0.481132	1.169548
H71	H	1.345007	-0.200110	-0.226066
H72	H	1.845007	0.299890	0.273934
Br73	Br	1.345841	-0.164518	0.293708
Br74	Br	1.845841	0.335482	0.793708
H75	H	1.480950	0.027180	0.369478
H76	H	1.980950	0.527180	0.869478
