data_functionalizedCrystal
_audit_creation_method	'MofGen! by Chris Wilmer'
_symmetry_space_group_name_H-M	'P1'
_symmetry_Int_Tables_number	1
_symmetry_cell_setting	triclinic
loop_
_symmetry_equiv_pos_as_xyz
  x,y,z
_cell_length_a	9.565339
_cell_length_b	19.288864
_cell_length_c	19.288865
_cell_angle_alpha	83.136245
_cell_angle_beta	89.995006
_cell_angle_gamma	89.982617
loop_
_atom_site_label
_atom_site_type_symbol
_atom_site_fract_x
_atom_site_fract_y
_atom_site_fract_z
O1	O	0.116724	-0.921348	-0.086643
O2	O	0.450058	-0.588015	0.246691
O3	O	0.783391	-0.254681	0.580024
O4	O	0.116631	-0.719087	-0.098331
O5	O	0.449964	-0.385754	0.235002
O6	O	0.783297	-0.052421	0.568335
O7	O	0.116652	-0.826062	0.008643
O8	O	0.449986	-0.492729	0.341977
O9	O	0.783319	-0.159395	0.675310
O10	O	0.116702	-0.814373	-0.193617
O11	O	0.450036	-0.481040	0.139716
O12	O	0.783369	-0.147707	0.473049
O13	O	-0.115868	-0.826054	0.008637
O14	O	0.217466	-0.492720	0.341970
O15	O	0.550799	-0.159387	0.675303
O16	O	-0.115889	-0.719079	-0.098338
O17	O	0.217444	-0.385745	0.234995
O18	O	0.550777	-0.052412	0.568329
O19	O	-0.115796	-0.921339	-0.086649
O20	O	0.217537	-0.588006	0.246684
O21	O	0.550871	-0.254673	0.580017
Zn22	Zn	-0.152760	-0.820208	-0.092495
Zn23	Zn	0.180573	-0.486874	0.240839
Zn24	Zn	0.513906	-0.153541	0.574172
Zn25	Zn	0.153595	-0.820219	-0.092486
Zn26	Zn	0.486928	-0.486886	0.240847
Zn27	Zn	0.820262	-0.153552	0.574181
O28	O	-0.115818	-0.814365	-0.193624
O29	O	0.217516	-0.481031	0.139709
O30	O	0.550849	-0.147698	0.473043
C31	C	0.000358	-0.693207	-0.097959
C32	C	0.333692	-0.359873	0.235375
C33	C	0.667025	-0.026540	0.568708
C34	C	0.000321	-0.616103	-0.096830
C35	C	0.333655	-0.282770	0.236504
C36	C	0.666988	0.050564	0.569837
C37	C	0.000388	-0.825682	0.034516
C38	C	0.333721	-0.492348	0.367850
C39	C	0.667055	-0.159015	0.701183
C40	C	0.000375	-0.824553	0.111620
C41	C	0.333709	-0.491219	0.444953
C42	C	0.667042	-0.157886	0.778287
N43	N	-0.361840	-0.820205	-0.092500
N44	N	-0.028506	-0.486872	0.240833
N45	N	0.304827	-0.153539	0.574166
C46	C	-0.453053	-0.770718	-0.141956
C47	C	-0.119719	-0.437385	0.191377
C48	C	0.213614	-0.104052	0.524710
C49	C	-0.546198	-0.833443	-0.155238
C50	C	-0.212865	-0.500110	0.178096
C51	C	0.120468	-0.166776	0.511429
C52	C	-0.546250	-0.757508	-0.079224
C53	C	-0.212916	-0.424174	0.254109
C54	C	0.120417	-0.090841	0.587443
C55	C	-0.452933	-0.882962	-0.105813
C56	C	-0.119600	-0.549628	0.227520
C57	C	0.213733	-0.216295	0.560854
C58	C	-0.452976	-0.806985	-0.029772
C59	C	-0.119643	-0.473652	0.303561
C60	C	0.213690	-0.140318	0.636894
C61	C	-0.546080	-0.869755	-0.043027
C62	C	-0.212746	-0.536422	0.290307
C63	C	0.120587	-0.203089	0.623640
N64	N	0.362674	-0.820227	-0.092475
N65	N	0.696008	-0.486894	0.240858
N66	N	1.029341	-0.153560	0.574192
C67	C	0.000480	-0.947220	-0.087022
C68	C	0.333813	-0.613887	0.246311
C69	C	0.667146	-0.280553	0.579645
C70	C	0.000526	-1.024324	-0.088151
C71	C	0.333859	-0.690990	0.245182
C72	C	0.667192	-0.357657	0.578516
C73	C	0.000359	-0.571407	-0.159598
C74	C	0.333692	-0.238073	0.173736
C75	C	0.667026	0.095260	0.507069
C76	C	0.000374	-0.498960	-0.158537
C77	C	0.333707	-0.165626	0.174796
C78	C	0.667041	0.167707	0.508130
C79	C	0.000380	-0.471212	-0.094705
C80	C	0.333713	-0.137879	0.238629
C81	C	0.667047	0.195455	0.571962
C82	C	0.000335	-0.515918	-0.031929
C83	C	0.333668	-0.182585	0.301405
C84	C	0.667001	0.150748	0.634738
C85	C	0.000305	-0.588364	-0.032991
C86	C	0.333639	-0.255030	0.300342
C87	C	0.666972	0.078303	0.633676
C88	C	0.081877	-0.362953	-0.044523
C89	C	0.415210	-0.029620	0.288810
C90	C	0.748543	0.303714	0.622143
C91	C	0.081914	-0.290509	-0.043463
C92	C	0.415248	0.042825	0.289870
C93	C	0.748581	0.376158	0.623203
C94	C	0.000464	-0.247767	-0.091425
C95	C	0.333797	0.085567	0.241908
C96	C	0.667130	0.418900	0.575242
C97	C	-0.081007	-0.277476	-0.140458
C98	C	0.252327	0.055857	0.192875
C99	C	0.585660	0.389190	0.526208
C100	C	-0.081036	-0.349922	-0.141521
C101	C	0.252297	-0.016588	0.191812
C102	C	0.585631	0.316745	0.525146
C103	C	0.000411	-0.392658	-0.093546
C104	C	0.333744	-0.059325	0.239788
C105	C	0.667077	0.274009	0.573121
C106	C	0.000516	-0.124514	-0.153047
C107	C	0.333849	0.208819	0.180286
C108	C	0.667182	0.542152	0.513619
C109	C	0.000522	-0.052066	-0.151984
C110	C	0.333856	0.281267	0.181349
C111	C	0.667189	0.614600	0.514683
C112	C	0.000497	-0.069026	-0.025374
C113	C	0.333830	0.264307	0.307960
C114	C	0.667163	0.597640	0.641293
C115	C	0.000476	-0.141473	-0.026439
C116	C	0.333809	0.191860	0.306894
C117	C	0.667143	0.525194	0.640228
C118	C	0.000492	-0.169212	-0.090278
C119	C	0.333826	0.164121	0.243056
C120	C	0.667159	0.497454	0.576389
C121	C	0.000450	-0.814745	-0.219497
C122	C	0.333783	-0.481412	0.113836
C123	C	0.667116	-0.148078	0.447170
C124	C	0.000472	-0.815874	-0.296601
C125	C	0.333805	-0.482541	0.036733
C126	C	0.667139	-0.149207	0.370066
C127	C	0.000397	-0.887321	0.156316
C128	C	0.333731	-0.553987	0.489650
C129	C	0.667064	-0.220654	0.822983
C130	C	0.000419	-0.886260	0.228763
C131	C	0.333752	-0.552927	0.562097
C132	C	0.667086	-0.219593	0.895430
C133	C	0.000390	-0.822428	0.256511
C134	C	0.333724	-0.489094	0.589844
C135	C	0.667057	-0.155761	0.923178
C136	C	0.000376	-0.759652	0.211805
C137	C	0.333710	-0.426318	0.545138
C138	C	0.667043	-0.092985	0.878471
C139	C	0.000369	-0.760714	0.139359
C140	C	0.333702	-0.427381	0.472693
C141	C	0.667035	-0.094047	0.806026
C142	C	-0.081080	-0.772245	0.364796
C143	C	0.252254	-0.438912	0.698129
C144	C	0.585587	-0.105579	1.031463
C145	C	-0.081081	-0.771185	0.437240
C146	C	0.252253	-0.437852	0.770574
C147	C	0.585586	-0.104519	1.103907
C148	C	0.000420	-0.819148	0.479956
C149	C	0.333754	-0.485815	0.813290
C150	C	0.667087	-0.152481	1.146623
C151	C	0.081904	-0.868182	0.450221
C152	C	0.415237	-0.534849	0.783554
C153	C	0.748571	-0.201516	1.116887
C154	C	0.081896	-0.869245	0.377775
C155	C	0.415230	-0.535912	0.711109
C156	C	0.748563	-0.202578	1.044442
C157	C	0.000400	-0.821269	0.335065
C158	C	0.333733	-0.487935	0.668398
C159	C	0.667066	-0.154602	1.001732
C160	C	0.000468	-0.880770	0.603209
C161	C	0.333801	-0.547437	0.936542
C162	C	0.667135	-0.214104	1.269875
C163	C	0.000498	-0.879707	0.675657
C164	C	0.333831	-0.546374	1.008990
C165	C	0.667165	-0.213040	1.342323
C166	C	0.000441	-0.753097	0.658697
C167	C	0.333774	-0.419763	0.992030
C168	C	0.667108	-0.086430	1.325363
C169	C	0.000425	-0.754162	0.586250
C170	C	0.333758	-0.420829	0.919583
C171	C	0.667092	-0.087495	1.252917
C172	C	0.000432	-0.818000	0.558511
C173	C	0.333765	-0.484667	0.891844
C174	C	0.667098	-0.151334	1.225177
H175	H	-0.412206	-0.728906	-0.183818
H176	H	-0.078873	-0.395573	0.149516
H177	H	0.254460	-0.062240	0.482849
H178	H	-0.587145	-0.844640	-0.208274
H179	H	-0.253812	-0.511306	0.125059
H180	H	0.079521	-0.177973	0.458392
F181	F	-0.599828	-0.688193	-0.064560
F182	F	-0.266495	-0.354859	0.268774
F183	F	0.066839	-0.021526	0.602107
H184	H	0.000276	-0.624756	0.018124
H185	H	0.333609	-0.291423	0.351457
H186	H	0.666942	0.041910	0.684790
H187	H	-0.586670	-0.911660	-0.001190
H188	H	-0.253336	-0.578326	0.332143
H189	H	0.079997	-0.244993	0.665477
H190	H	-0.411997	-0.795769	0.023247
H191	H	-0.078663	-0.462435	0.356581
H192	H	0.254670	-0.129102	0.689914
H193	H	0.000399	-0.703049	0.549857
H194	H	0.333732	-0.369716	0.883190
H195	H	0.667066	-0.036383	1.216524
H196	H	0.000375	-0.593987	-0.211580
H197	H	0.333708	-0.260654	0.121753
H198	H	0.667041	0.072680	0.455087
H199	H	-0.147421	-0.731256	0.461445
H200	H	0.185912	-0.397922	0.794778
H201	H	0.519245	-0.064589	1.128112
H202	H	0.000401	-0.462561	-0.209652
H203	H	0.333734	-0.129228	0.123682
H204	H	0.667067	0.204106	0.457015
H205	H	0.000425	-0.701123	0.681288
H206	H	0.333758	-0.367790	1.014621
H207	H	0.667091	-0.034457	1.347954
F208	F	0.168634	-0.258895	0.008716
F209	F	0.501968	0.074438	0.342049
F210	F	0.835301	0.407771	0.675383
H211	H	-0.412117	-0.936004	-0.117095
H212	H	-0.078783	-0.602671	0.216239
H213	H	0.254550	-0.269338	0.549572
F214	F	0.000468	-0.948712	0.573684
F215	F	0.333802	-0.615378	0.907017
F216	F	0.667135	-0.282045	1.240351
H217	H	0.148270	-0.907238	0.484999
H218	H	0.481604	-0.573905	0.818332
H219	H	0.814937	-0.240571	1.151666
H220	H	-0.147377	-0.374109	-0.181443
H221	H	0.185957	-0.040775	0.151890
H222	H	0.519290	0.292558	0.485223
F223	F	-0.167699	-0.231993	-0.191507
F224	F	0.165634	0.101341	0.141826
F225	F	0.498968	0.434674	0.475159
H226	H	0.000508	-0.147101	-0.205028
H227	H	0.333842	0.186233	0.128305
H228	H	0.667175	0.519566	0.461638
F229	F	0.168573	-0.408436	0.006528
F230	F	0.501906	-0.075103	0.339862
F231	F	0.835239	0.258230	0.673195
H232	H	0.000350	-0.709599	0.102967
H233	H	0.333683	-0.376266	0.436300
H234	H	0.667017	-0.042932	0.769633
H235	H	0.000545	-0.015674	-0.203099
H236	H	0.333878	0.317659	0.130234
H237	H	0.667211	0.650992	0.463567
H238	H	0.148246	-0.909169	0.353567
H239	H	0.481579	-0.575836	0.686901
H240	H	0.814912	-0.242502	1.020234
F241	F	0.000489	-0.039500	0.042562
F242	F	0.333822	0.293833	0.375895
F243	F	0.667156	0.627166	0.709228
F244	F	0.000443	-0.189044	0.040368
F245	F	0.333777	0.144289	0.373702
F246	F	0.667110	0.477623	0.707035
F247	F	0.000531	-0.946517	0.723227
F248	F	0.333864	-0.613184	1.056560
F249	F	0.667197	-0.279850	1.389893
H250	H	0.000358	-0.493322	0.020044
H251	H	0.333692	-0.159988	0.353377
H252	H	0.667025	0.173345	0.686711
H253	H	0.000408	-0.939303	0.133736
H254	H	0.333741	-0.605970	0.467069
H255	H	0.667074	-0.272636	0.800403
F256	F	-0.167832	-0.721194	0.319341
F257	F	0.165501	-0.387861	0.652674
F258	F	0.498834	-0.054527	0.986007
H259	H	0.000356	-0.707679	0.234401
H260	H	0.333689	-0.374346	0.567735
H261	H	0.667023	-0.041012	0.901068
H262	H	0.000443	-0.937375	0.265162
H263	H	0.333776	-0.604041	0.598495
H264	H	0.667109	-0.270708	0.931829
