data_functionalizedCrystal
_audit_creation_method	'MofGen! by Chris Wilmer'
_symmetry_space_group_name_H-M	'P1'
_symmetry_Int_Tables_number	1
_symmetry_cell_setting	triclinic
loop_
_symmetry_equiv_pos_as_xyz
  x,y,z
_cell_length_a	8.559649
_cell_length_b	9.130313
_cell_length_c	8.559649
_cell_angle_alpha	90.001889
_cell_angle_beta	110.221336
_cell_angle_gamma	90.002234
loop_
_atom_site_label
_atom_site_type_symbol
_atom_site_fract_x
_atom_site_fract_y
_atom_site_fract_z
O1	O	2.126881	0.121776	0.055046
O2	O	2.626881	0.621776	0.555046
O3	O	1.651396	0.121782	-0.028735
O4	O	2.151396	0.621782	0.471265
O5	O	1.931029	0.121777	0.250898
O6	O	2.431029	0.621777	0.750898
O7	O	1.847248	0.121781	-0.224587
O8	O	2.347248	0.621781	0.275413
O9	O	1.931010	-0.121822	0.250881
O10	O	2.431010	0.378178	0.750881
O11	O	1.651377	-0.121817	-0.028752
O12	O	2.151377	0.378183	0.471248
O13	O	2.126862	-0.121822	0.055029
O14	O	2.626862	0.378178	0.555029
Cu15	Cu	1.889118	-0.144062	0.013137
Cu16	Cu	2.389118	0.355938	0.513137
Cu17	Cu	1.889140	0.144022	0.013157
Cu18	Cu	2.389140	0.644022	0.513157
O19	O	1.847229	-0.121818	-0.224604
O20	O	2.347229	0.378182	0.275396
C21	C	1.591077	-0.000017	-0.035093
C22	C	2.091077	0.499983	0.464907
C23	C	1.411378	-0.000014	-0.053992
C24	C	1.911378	0.499986	0.446008
N25	N	1.889114	-0.346685	0.013125
N26	N	2.389114	0.153315	0.513125
C27	C	1.975417	-0.423351	-0.073245
C28	C	2.475417	0.076649	0.426755
C29	C	1.975445	-0.576688	-0.073212
C30	C	2.475445	-0.076688	0.426788
C31	C	1.802852	-0.576679	0.099564
C32	C	2.302852	-0.076679	0.599564
C33	C	1.802835	-0.423345	0.099539
C34	C	2.302835	0.076655	0.599539
C35	C	2.061696	-0.346691	-0.159659
C36	C	2.561696	0.153309	0.340341
C37	C	2.148005	-0.423358	-0.246037
C38	C	2.648005	0.076642	0.253963
C39	C	2.148032	-0.576695	-0.246004
C40	C	2.648032	-0.076695	0.253996
C41	C	2.061751	-0.653365	-0.159592
C42	C	2.561751	-0.153365	0.340408
C43	C	2.187180	-0.000021	0.061387
C44	C	2.687180	0.499979	0.561387
C45	C	2.366879	-0.000013	0.080286
C46	C	2.866879	0.499987	0.580286
C47	C	1.937369	-0.000020	0.311198
C48	C	2.437369	0.499980	0.811198
C49	C	1.956268	-0.000012	0.490898
C50	C	2.456268	0.499988	0.990898
N51	N	1.889158	0.346644	0.013183
N52	N	2.389158	0.846644	0.513183
C53	C	1.840889	-0.000018	-0.284904
C54	C	2.340889	0.499982	0.215096
C55	C	1.821990	-0.000016	-0.464604
C56	C	2.321990	0.499984	0.035396
H57	H	1.466258	-0.000007	0.209705
H58	H	1.966258	0.499993	0.709705
H59	H	1.692570	-0.000019	0.436018
H60	H	2.192570	0.499981	0.936018
H61	H	1.311990	-0.000005	-0.183420
H62	H	1.811990	0.499995	0.316580
H63	H	2.061679	-0.221837	-0.159700
H64	H	2.561679	0.278163	0.340300
H65	H	2.218262	-0.360923	-0.316380
H66	H	2.718262	0.139077	0.183620
H67	H	2.218322	-0.639112	-0.316324
H68	H	2.718322	-0.139112	0.183676
H69	H	1.732556	-0.360921	0.169866
H70	H	2.232556	0.139079	0.669866
H71	H	2.061798	-0.778222	-0.159555
H72	H	2.561798	-0.278222	0.340445
H73	H	1.732603	-0.639116	0.169913
H74	H	2.232603	-0.139116	0.669913
H75	H	2.085696	-0.000025	0.590286
H76	H	2.585696	0.499975	1.090286
