data_functionalizedCrystal
_audit_creation_method	'MofGen! by Chris Wilmer'
_symmetry_space_group_name_H-M	'P1'
_symmetry_Int_Tables_number	1
_symmetry_cell_setting	triclinic
loop_
_symmetry_equiv_pos_as_xyz
  x,y,z
_cell_length_a	18.050591
_cell_length_b	18.050589
_cell_length_c	18.050582
_cell_angle_alpha	89.981795
_cell_angle_beta	89.989456
_cell_angle_gamma	90.027061
loop_
_atom_site_label
_atom_site_type_symbol
_atom_site_fract_x
_atom_site_fract_y
_atom_site_fract_z
Zn1	Zn	1.135292	-0.295730	-0.419848
Zn2	Zn	1.468626	0.037604	-0.086515
Zn3	Zn	1.801959	0.370937	0.246818
Zn4	Zn	1.135203	-0.419913	-0.295668
Zn5	Zn	1.468536	-0.086580	0.037666
Zn6	Zn	1.801870	0.246754	0.370999
Zn7	Zn	1.011112	-0.295739	-0.295682
Zn8	Zn	1.344445	0.037595	0.037651
Zn9	Zn	1.677778	0.370928	0.370985
Zn10	Zn	1.011060	-0.419880	-0.419826
Zn11	Zn	1.344393	-0.086546	-0.086492
Zn12	Zn	1.677726	0.246787	0.246841
O13	O	1.073167	-0.357815	-0.357756
O14	O	1.406500	-0.024482	-0.024423
O15	O	1.739833	0.308851	0.308911
O16	O	1.239205	-0.312213	-0.403379
O17	O	1.572539	0.021120	-0.070046
O18	O	1.905872	0.354454	0.263288
O19	O	1.118727	-0.403459	-0.191745
O20	O	1.452060	-0.070125	0.141588
O21	O	1.785393	0.263208	0.474922
O22	O	1.027644	-0.191813	-0.312168
O23	O	1.360977	0.141520	0.021165
O24	O	1.694310	0.474854	0.354498
O25	O	1.239140	-0.403450	-0.312144
O26	O	1.572473	-0.070116	0.021189
O27	O	1.905806	0.263217	0.354523
O28	O	1.118879	-0.191806	-0.403393
O29	O	1.452212	0.141527	-0.070059
O30	O	1.785545	0.474860	0.263274
O31	O	1.027557	-0.312228	-0.191755
O32	O	1.360890	0.021105	0.141578
O33	O	1.694224	0.354438	0.474911
O34	O	0.907180	-0.312196	-0.312146
O35	O	1.240514	0.021137	0.021187
O36	O	1.573847	0.354470	0.354520
O37	O	1.027555	-0.403393	-0.523753
O38	O	1.360888	-0.070060	-0.190420
O39	O	1.694222	0.263273	0.142913
O40	O	0.907142	-0.403402	-0.403354
O41	O	1.240475	-0.070069	-0.070021
O42	O	1.573809	0.263264	0.263312
O43	O	1.118828	-0.312181	-0.523770
O44	O	1.452162	0.021153	-0.190437
O45	O	1.785495	0.354486	0.142897
O46	O	1.118676	-0.523833	-0.312122
O47	O	1.452009	-0.190500	0.021211
O48	O	1.785343	0.142834	0.354544
O49	O	1.027468	-0.523809	-0.403341
O50	O	1.360802	-0.190475	-0.070007
O51	O	1.694135	0.142858	0.263326
C52	C	0.880215	-0.357797	-0.357750
C53	C	1.213548	-0.024464	-0.024417
C54	C	1.546881	0.308869	0.308917
C55	C	0.797669	-0.357807	-0.357765
C56	C	1.131002	-0.024474	-0.024432
C57	C	1.464336	0.308859	0.308902
C58	C	0.548844	-0.407508	-0.407296
C59	C	0.882177	-0.074174	-0.073963
C60	C	1.215511	0.259159	0.259370
C61	C	0.598214	-0.425579	-0.339512
C62	C	0.931547	-0.092245	-0.006178
C63	C	1.264881	0.241088	0.327155
C64	C	0.500548	-0.357831	-0.357764
C65	C	0.833882	-0.024497	-0.024430
C66	C	1.167215	0.308836	0.308903
C67	C	0.598260	-0.339783	-0.425545
C68	C	0.931593	-0.006450	-0.092211
C69	C	1.264927	0.326884	0.241122
C70	C	0.646534	-0.357821	-0.357768
C71	C	0.979867	-0.024488	-0.024434
C72	C	1.313200	0.308846	0.308899
C73	C	0.548831	-0.375937	-0.289943
C74	C	0.882164	-0.042603	0.043390
C75	C	1.215498	0.290730	0.376724
C76	C	0.548873	-0.290110	-0.376022
C77	C	0.882206	0.043224	-0.042689
C78	C	1.215540	0.376557	0.290645
C79	C	0.598221	-0.308155	-0.308191
C80	C	0.931554	0.025178	0.025143
C81	C	1.264887	0.358512	0.358476
C82	C	0.416450	-0.357838	-0.357762
C83	C	0.749783	-0.024505	-0.024429
C84	C	1.083117	0.308829	0.308905
C85	C	0.730630	-0.357813	-0.357762
C86	C	1.063963	-0.024480	-0.024428
C87	C	1.397297	0.308853	0.308905
C88	C	1.073077	-0.550767	-0.357744
C89	C	1.406410	-0.217434	-0.024410
C90	C	1.739744	0.115899	0.308923
C91	C	1.073107	-0.633313	-0.357763
C92	C	1.406440	-0.299980	-0.024430
C93	C	1.739773	0.033353	0.308903
C94	C	1.023557	-0.832778	-0.407350
C95	C	1.356890	-0.499444	-0.074017
C96	C	1.690223	-0.166111	0.259316
C97	C	1.005459	-0.882211	-0.339584
C98	C	1.338792	-0.548878	-0.006251
C99	C	1.672125	-0.215545	0.327082
C100	C	1.073180	-0.784444	-0.357773
C101	C	1.406513	-0.451110	-0.024440
C102	C	1.739846	-0.117777	0.308894
C103	C	1.091314	-0.882092	-0.425547
C104	C	1.424647	-0.548758	-0.092213
C105	C	1.757981	-0.215425	0.241120
C106	C	1.073249	-0.930429	-0.357788
C107	C	1.406582	-0.597095	-0.024455
C108	C	1.739915	-0.263762	0.308878
C109	C	1.055046	-0.832790	-0.289971
C110	C	1.388380	-0.499457	0.043362
C111	C	1.721713	-0.166123	0.376696
C112	C	1.140933	-0.832666	-0.375979
C113	C	1.474266	-0.499333	-0.042646
C114	C	1.807599	-0.165999	0.290688
C115	C	1.122861	-0.882077	-0.308166
C116	C	1.456194	-0.548744	0.025167
C117	C	1.789527	-0.215411	0.358500
C118	C	1.073138	-0.700345	-0.357765
C119	C	1.406471	-0.367012	-0.024432
C120	C	1.739805	-0.033679	0.308902
C121	C	1.073291	-1.014525	-0.357788
C122	C	1.406624	-0.681192	-0.024455
C123	C	1.739957	-0.347858	0.308878
C124	C	1.266872	-0.357834	-0.357763
C125	C	1.600206	-0.024501	-0.024429
C126	C	1.933539	0.308833	0.308904
C127	C	1.349418	-0.357842	-0.357765
C128	C	1.682751	-0.024509	-0.024432
C129	C	2.016085	0.308825	0.308901
C130	C	1.073196	-0.357782	-0.551462
C131	C	1.406529	-0.024449	-0.218128
C132	C	1.739862	0.308884	0.115205
C133	C	1.073208	-0.357768	-0.634007
C134	C	1.406542	-0.024435	-0.300674
C135	C	1.739875	0.308898	0.032659
C136	C	1.073277	-0.164110	-0.357785
C137	C	1.406610	0.169224	-0.024451
C138	C	1.739944	0.502557	0.308882
C139	C	1.073324	-0.081564	-0.357797
C140	C	1.406657	0.251769	-0.024463
C141	C	1.739991	0.585103	0.308870
C142	C	1.023612	-0.407302	-0.833449
C143	C	1.356945	-0.073969	-0.500116
C144	C	1.690278	0.259365	-0.166783
C145	C	1.091367	-0.425457	-0.882837
C146	C	1.424700	-0.092124	-0.549503
C147	C	1.758034	0.241210	-0.216170
C148	C	1.073245	-0.357712	-0.785138
C149	C	1.406578	-0.024378	-0.451805
C150	C	1.739912	0.308955	-0.118471
C151	C	1.005527	-0.339536	-0.882832
C152	C	1.338860	-0.006203	-0.549499
C153	C	1.672194	0.327130	-0.216165
C154	C	1.073274	-0.357658	-0.931123
C155	C	1.406608	-0.024325	-0.597790
C156	C	1.739941	0.309008	-0.264456
C157	C	1.141036	-0.375902	-0.833438
C158	C	1.474369	-0.042569	-0.500105
C159	C	1.807702	0.290765	-0.166772
C160	C	1.055150	-0.289950	-0.833429
C161	C	1.388483	0.043384	-0.500096
C162	C	1.721816	0.376717	-0.166763
C163	C	1.122952	-0.308079	-0.882794
C164	C	1.456285	0.025254	-0.549461
C165	C	1.789618	0.358588	-0.216128
C166	C	1.073227	-0.357744	-0.701040
C167	C	1.406560	-0.024411	-0.367706
C168	C	1.739894	0.308922	-0.034373
C169	C	1.073300	-0.357626	-1.015220
C170	C	1.406633	-0.024292	-0.681886
C171	C	1.739967	0.309041	-0.348553
C172	C	1.073181	-0.357795	-0.164804
C173	C	1.406514	-0.024461	0.168529
C174	C	1.739847	0.308872	0.501863
C175	C	1.073312	-0.357599	-0.082258
C176	C	1.406645	-0.024266	0.251075
C177	C	1.739979	0.309067	0.584408
H178	H	0.527211	-0.391267	-0.232607
H179	H	0.860544	-0.057933	0.100726
H180	H	1.193877	0.275400	0.434059
C181	C	0.519547	-0.464309	-0.463808
C182	C	0.852881	-0.130976	-0.130475
C183	C	1.186214	0.202357	0.202858
N184	N	0.497479	-0.507094	-0.506369
N185	N	0.830812	-0.173761	-0.173036
N186	N	1.164146	0.159573	0.160298
C187	C	0.519563	-0.212770	-0.396919
C188	C	0.852896	0.120563	-0.063586
C189	C	1.186230	0.453897	0.269748
N190	N	0.497484	-0.154518	-0.412667
N191	N	0.830818	0.178816	-0.079334
N192	N	1.164151	0.512149	0.253999
H193	H	0.619764	-0.266140	-0.266256
H194	H	0.953097	0.067193	0.067078
H195	H	1.286431	0.400526	0.400411
H196	H	0.619887	-0.482845	-0.324065
H197	H	0.953221	-0.149512	0.009269
H198	H	1.286554	0.183822	0.342602
C199	C	1.179591	-0.911144	-0.251470
C200	C	1.512924	-0.577810	0.081863
C201	C	1.846257	-0.244477	0.415196
N202	N	1.222316	-0.933039	-0.208765
N203	N	1.555649	-0.599706	0.124568
N204	N	1.888982	-0.266372	0.457902
H205	H	0.948246	-0.324186	-0.904529
H206	H	1.281580	0.009148	-0.571196
H207	H	1.614913	0.342481	-0.237863
C208	C	1.218271	-0.803231	-0.396814
C209	C	1.551604	-0.469897	-0.063481
C210	C	1.884937	-0.136564	0.269853
N211	N	1.276520	-0.781054	-0.412517
N212	N	1.609853	-0.447721	-0.079184
N213	N	1.943186	-0.114388	0.254150
C214	C	0.966972	-0.464032	-0.804161
C215	C	1.300306	-0.130698	-0.470827
C216	C	1.633639	0.202635	-0.137494
N217	N	0.924318	-0.506763	-0.782094
N218	N	1.257651	-0.173430	-0.448761
N219	N	1.590985	0.159904	-0.115428
H220	H	1.106690	-0.482739	-0.904539
H221	H	1.440023	-0.149406	-0.571206
H222	H	1.773356	0.183928	-0.237872
C223	C	0.627589	-0.319164	-0.502982
C224	C	0.960922	0.014170	-0.169648
C225	C	1.294256	0.347503	0.163685
N226	N	0.649676	-0.303638	-0.561309
N227	N	0.983009	0.029695	-0.227975
N228	N	1.316343	0.363028	0.105358
H229	H	0.981530	-0.811130	-0.449217
H230	H	1.314864	-0.477796	-0.115884
H231	H	1.648197	-0.144463	0.217450
C232	C	0.928093	-0.911612	-0.318784
C233	C	1.261427	-0.578278	0.014549
C234	C	1.594760	-0.244945	0.347883
N235	N	0.869820	-0.933754	-0.303122
N236	N	1.203154	-0.600421	0.030211
N237	N	1.536487	-0.267087	0.363544
H238	H	1.039669	-0.811223	-0.232646
H239	H	1.373003	-0.477890	0.100687
H240	H	1.706336	-0.144557	0.434021
H241	H	1.106625	-0.903748	-0.482856
H242	H	1.439958	-0.570414	-0.149523
H243	H	1.773291	-0.237081	0.183811
H244	H	1.198333	-0.391318	-0.811832
H245	H	1.531666	-0.057984	-0.478499
H246	H	1.865000	0.275349	-0.145166
C247	C	1.179736	-0.251393	-0.911883
C248	C	1.513070	0.081940	-0.578550
C249	C	1.846403	0.415274	-0.245216
N250	N	1.222508	-0.208700	-0.933794
N251	N	1.555842	0.124634	-0.600460
N252	N	1.889175	0.457967	-0.267127
C253	C	1.034420	-0.212588	-0.804082
C254	C	1.367754	0.120745	-0.470749
C255	C	1.701087	0.454079	-0.137416
N256	N	1.018798	-0.154319	-0.781976
N257	N	1.352132	0.179014	-0.448643
N258	N	1.685465	0.512348	-0.115309
