data_functionalizedCrystal
_audit_creation_method	'MofGen! by Chris Wilmer'
_symmetry_space_group_name_H-M	'P1'
_symmetry_Int_Tables_number	1
_symmetry_cell_setting	triclinic
loop_
_symmetry_equiv_pos_as_xyz
  x,y,z
_cell_length_a	16.109302
_cell_length_b	11.792254
_cell_length_c	15.186229
_cell_angle_alpha	89.996078
_cell_angle_beta	89.994701
_cell_angle_gamma	83.830189
loop_
_atom_site_label
_atom_site_type_symbol
_atom_site_fract_x
_atom_site_fract_y
_atom_site_fract_z
O1	O	1.103822	0.145888	-0.073269
O2	O	0.861846	0.164042	-0.073262
O3	O	0.988700	-0.010256	-0.073259
O4	O	0.976967	0.320186	-0.073271
O5	O	0.988692	-0.010258	0.073198
O6	O	0.861837	0.164040	0.073196
O7	O	1.103813	0.145886	0.073189
Zn8	Zn	0.982824	0.154963	0.096445
Zn9	Zn	0.982835	0.154966	-0.096518
O10	O	0.976959	0.320184	0.073186
C11	C	0.830863	0.163306	-0.000032
C12	C	0.738557	0.161101	-0.000029
C13	C	0.526188	0.156000	0.079796
C14	C	0.439458	0.153916	0.079793
C15	C	0.439478	0.153925	-0.079883
C16	C	0.526207	0.156001	-0.079879
C17	C	0.569559	0.157044	-0.000037
C18	C	0.396100	0.152884	-0.000044
C19	C	0.302064	0.150624	-0.000048
C20	C	0.663602	0.159302	-0.000033
C21	C	0.987957	-0.052541	-0.000031
C22	C	0.985745	-0.178535	-0.000031
C23	C	0.983947	-0.280856	-0.000034
C24	C	0.981700	-0.409222	-0.000043
C25	C	1.134796	0.146623	-0.000043
C26	C	1.227102	0.148828	-0.000051
C27	C	0.977702	0.362469	-0.000044
C28	C	0.979914	0.488463	-0.000049
N29	N	0.982822	0.154960	0.228138
N30	N	0.982843	0.154960	-0.228211
C31	C	1.039013	0.077806	0.453862
C32	C	1.039015	0.077804	0.546052
C33	C	0.926647	0.232117	0.546059
C34	C	0.926641	0.232113	0.453871
C35	C	0.982828	0.154959	0.407775
C36	C	0.982837	0.154960	0.592152
C37	C	0.982839	0.154958	0.692108
C38	C	0.982825	0.154960	0.307812
H39	H	0.404169	0.153076	-0.144887
H40	H	1.084763	0.014982	0.416333
C41	C	1.100816	-0.007080	0.596744
N42	N	1.147364	-0.071022	0.634924
H43	H	0.561521	0.156848	-0.144892
H44	H	0.880901	0.294935	0.583599
H45	H	0.561483	0.156850	0.144808
C46	C	0.864868	0.317043	0.403171
N47	N	0.818356	0.381026	0.364985
H48	H	0.404149	0.153066	0.144801
