data_functionalizedCrystal
_audit_creation_method	'MofGen! by Chris Wilmer'
_symmetry_space_group_name_H-M	'P1'
_symmetry_Int_Tables_number	1
_symmetry_cell_setting	triclinic
loop_
_symmetry_equiv_pos_as_xyz
  x,y,z
_cell_length_a	11.169417
_cell_length_b	21.295417
_cell_length_c	11.169409
_cell_angle_alpha	89.958601
_cell_angle_beta	89.980487
_cell_angle_gamma	90.031756
loop_
_atom_site_label
_atom_site_type_symbol
_atom_site_fract_x
_atom_site_fract_y
_atom_site_fract_z
Zn1	Zn	1.834794	-0.250537	-0.678457
Zn2	Zn	1.834613	-0.355825	-0.477742
Zn3	Zn	1.634080	-0.250576	-0.477793
Zn4	Zn	1.634017	-0.355775	-0.678388
O5	O	1.734376	-0.303178	-0.578095
O6	O	2.002720	-0.264509	-0.651840
O7	O	1.807962	-0.341901	-0.309799
O8	O	1.660807	-0.162482	-0.504461
O9	O	2.002587	-0.341864	-0.504375
O10	O	1.808271	-0.162453	-0.651888
O11	O	1.660632	-0.264575	-0.309836
O12	O	1.466122	-0.264526	-0.504394
O13	O	1.660700	-0.341777	-0.846347
O14	O	1.466076	-0.341815	-0.651771
O15	O	1.808210	-0.264460	-0.846398
O16	O	1.807901	-0.443908	-0.504309
O17	O	1.660524	-0.443871	-0.651722
C18	C	1.422551	-0.303170	-0.578081
C19	C	1.289151	-0.303182	-0.578104
C20	C	1.734219	-0.466730	-0.578029
C21	C	1.734261	-0.536698	-0.578040
C22	C	1.811069	-0.569563	-0.501361
C23	C	1.811125	-0.635306	-0.501388
C24	C	1.734352	-0.668181	-0.578082
C25	C	1.657539	-0.635308	-0.654776
C26	C	1.657494	-0.569566	-0.654756
N27	N	1.629362	-0.771447	-0.587227
N28	N	1.629409	-0.833898	-0.587239
C29	C	1.734487	-0.866255	-0.578151
N30	N	1.839518	-0.833802	-0.569025
N31	N	1.839470	-0.771345	-0.569006
C32	C	1.734394	-0.739466	-0.578113
C33	C	1.811362	-0.970406	-0.501496
C34	C	1.811420	-1.036150	-0.501531
C35	C	1.657824	-1.036150	-0.654914
C36	C	1.657776	-0.970408	-0.654885
C37	C	1.734543	-0.937540	-0.578169
C38	C	2.047418	-0.303187	-0.578110
C39	C	2.180818	-0.303191	-0.578116
C40	C	1.734468	-0.303109	-0.891138
C41	C	1.734507	-0.303079	-1.024538
C42	C	1.734567	-0.138988	-0.578188
C43	C	1.734648	-0.069020	-0.578228
C44	C	1.734353	-0.303203	-0.266270
C45	C	1.734547	-0.303055	-0.132871
H46	H	1.873580	-0.542804	-0.438898
O47	O	1.583207	-1.067980	-0.729529
C48	C	1.515375	-1.024870	-0.797179
H49	H	1.564498	-0.977981	-0.801360
H50	H	1.424241	-1.017944	-0.753147
C51	C	1.437695	-1.108064	-0.919773
C52	C	1.498033	-1.050476	-0.924917
H53	H	1.426992	-1.123860	-0.998567
H54	H	1.483391	-1.137109	-0.874194
H55	H	1.361757	-1.102285	-0.883075
H56	H	1.573975	-1.056258	-0.961601
H57	H	1.452349	-1.021433	-0.970505
H58	H	1.873973	-1.062907	-0.439092
H59	H	1.873874	-0.943644	-0.439033
O60	O	1.885553	-0.667302	-0.426809
C61	C	1.817250	-0.705374	-0.349237
H62	H	1.726299	-0.715250	-0.391526
H63	H	1.804056	-0.680074	-0.260294
C64	C	1.995030	-0.755671	-0.275584
C65	C	1.883325	-0.767804	-0.327529
H66	H	2.035789	-0.794179	-0.262187
H67	H	2.041048	-0.730019	-0.327842
H68	H	1.984019	-0.734585	-0.201470
H69	H	1.894338	-0.788882	-0.401647
H70	H	1.837310	-0.793460	-0.275282
O71	O	1.583128	-0.667309	-0.729335
C72	C	1.651446	-0.705257	-0.806938
H73	H	1.742427	-0.715082	-0.764687
H74	H	1.664572	-0.679875	-0.895884
C75	C	1.473698	-0.755659	-0.880523
C76	C	1.585439	-0.767731	-0.828625
H77	H	1.432981	-0.794195	-0.893906
H78	H	1.427670	-0.730091	-0.828243
H79	H	1.484653	-0.734506	-0.954639
H80	H	1.574483	-0.788876	-0.754504
H81	H	1.631465	-0.793304	-0.880893
H82	H	1.595227	-0.943647	-0.717320
H83	H	1.594947	-0.542807	-0.717199
