data_functionalizedCrystal
_audit_creation_method	'MofGen! by Chris Wilmer'
_symmetry_space_group_name_H-M	'P1'
_symmetry_Int_Tables_number	1
_symmetry_cell_setting	triclinic
loop_
_symmetry_equiv_pos_as_xyz
  x,y,z
_cell_length_a	15.298709
_cell_length_b	16.120444
_cell_length_c	16.120297
_cell_angle_alpha	95.615117
_cell_angle_beta	101.989009
_cell_angle_gamma	102.068437
loop_
_atom_site_label
_atom_site_type_symbol
_atom_site_fract_x
_atom_site_fract_y
_atom_site_fract_z
Zn1	Zn	1.357795	-0.127708	-0.261065
Zn2	Zn	1.857795	0.372292	0.238935
Zn3	Zn	1.357676	-0.260418	-0.128397
Zn4	Zn	1.857676	0.239582	0.371603
Zn5	Zn	1.212303	-0.145186	-0.145784
Zn6	Zn	1.712303	0.354814	0.354216
Zn7	Zn	1.195843	-0.294758	-0.295341
Zn8	Zn	1.695843	0.205242	0.204659
O9	O	1.280904	-0.207017	-0.207647
O10	O	1.780904	0.292983	0.292353
O11	O	1.486396	-0.123626	-0.221845
O12	O	1.986396	0.376374	0.278155
O13	O	1.345231	-0.238076	-0.012591
O14	O	1.845231	0.261924	0.487409
O15	O	1.238540	-0.024731	-0.154008
O16	O	1.738540	0.475269	0.345992
O17	O	1.486308	-0.221127	-0.124374
O18	O	1.986308	0.278873	0.375626
O19	O	1.345433	-0.011890	-0.238704
O20	O	1.845433	0.488110	0.261296
O21	O	1.238425	-0.153415	-0.025365
O22	O	1.738425	0.346585	0.474635
O23	O	1.081503	-0.186714	-0.187244
O24	O	1.581503	0.313286	0.312756
O25	O	1.210488	-0.279655	-0.408907
O26	O	1.710488	0.220345	0.091093
O27	O	1.069410	-0.296603	-0.297124
O28	O	1.569410	0.203397	0.202876
O29	O	1.329473	-0.156924	-0.383724
O30	O	1.829473	0.343076	0.116276
O31	O	1.329271	-0.383109	-0.157611
O32	O	1.829271	0.116891	0.342389
O33	O	1.210373	-0.408339	-0.280264
O34	O	1.710373	0.091661	0.219736
C35	C	1.042108	-0.247282	-0.247791
C36	C	1.542108	0.252718	0.252209
C37	C	0.939947	-0.264529	-0.264986
C38	C	1.439947	0.235471	0.235014
C39	C	1.268047	-0.426352	-0.220784
C40	C	1.768047	0.073648	0.279216
C41	C	1.262629	-0.520172	-0.226419
C42	C	1.762629	-0.020172	0.273581
C43	C	0.885684	-0.329922	-0.330190
C44	C	1.385684	0.170078	0.169810
C45	C	0.789699	-0.346123	-0.346353
C46	C	1.289699	0.153877	0.153647
C47	C	0.747967	-0.296936	-0.297310
C48	C	1.247967	0.203064	0.202690
C49	C	0.802230	-0.231546	-0.232100
C50	C	1.302230	0.268454	0.267900
C51	C	0.898225	-0.215340	-0.215939
C52	C	1.398225	0.284660	0.284061
C53	C	0.760508	-0.182354	-0.183059
C54	C	1.260508	0.317646	0.316941
C55	C	0.814771	-0.116964	-0.117849
C56	C	1.314771	0.383036	0.382151
C57	C	0.910756	-0.100760	-0.101691
C58	C	1.410756	0.399240	0.398309
C59	C	0.952488	-0.149947	-0.150735
C60	C	1.452488	0.350053	0.349265
C61	C	0.664514	-0.198561	-0.199219
C62	C	1.164514	0.301439	0.300781
C63	C	0.677055	-0.083978	-0.084969
C64	C	1.177055	0.416022	0.415031
C65	C	0.773040	-0.067778	-0.068805
C66	C	1.273040	0.432222	0.431195
C67	C	1.309225	-0.721222	-0.178562
C68	C	1.809225	-0.221222	0.321438
C69	C	1.252753	-0.691933	-0.236712
C70	C	1.752753	-0.191933	0.263288
C71	C	1.258250	-0.596356	-0.230983
C72	C	1.758250	-0.096356	0.269017
C73	C	1.303730	-0.816807	-0.184289
C74	C	1.803730	-0.316807	0.315711
C75	C	1.520633	-0.166596	-0.167347
C76	C	2.020633	0.333404	0.332653
C77	C	1.622792	-0.149371	-0.150173
C78	C	2.122792	0.350629	0.349827
C79	C	1.268158	-0.220170	-0.427797
C80	C	1.768158	0.279830	0.072203
C81	C	1.262726	-0.225775	-0.521612
C82	C	1.762726	0.274225	-0.021612
C83	C	1.293836	0.013177	-0.194472
C84	C	1.793836	0.513177	0.305528
C85	C	1.299346	0.107011	-0.188858
C86	C	1.799346	0.607011	0.311142
C87	C	1.252776	-0.235996	-0.693376
C88	C	1.752776	0.264004	-0.193376
C89	C	1.309228	-0.177756	-0.722724
C90	C	1.809228	0.322244	-0.222724
C91	C	1.303692	-0.183442	-0.818299
C92	C	1.803692	0.316558	-0.318299
C93	C	1.258311	-0.230310	-0.597792
C94	C	1.758311	0.269690	-0.097792
C95	C	1.293658	-0.193846	0.011659
C96	C	1.793658	0.306154	0.511659
C97	C	1.299281	-0.187973	0.105518
C98	C	1.799281	0.312027	0.605518
H99	H	0.620342	-0.251801	-0.252315
H100	H	1.120342	0.248199	0.247685
H101	H	0.669811	-0.310131	-0.310474
H102	H	1.169811	0.189869	0.189526
C103	C	0.730017	-0.418064	-0.418068
C104	C	1.230017	0.081936	0.081932
N105	N	0.685063	-0.472259	-0.472081
N106	N	1.185063	0.027741	0.027919
C107	C	1.181870	-0.309119	-0.756399
C108	C	1.681870	0.190881	-0.256399
N109	N	1.128465	-0.364196	-0.803878
N110	N	1.628465	0.135804	-0.303878
H111	H	1.200279	-0.738639	-0.290799
H112	H	1.700279	-0.238639	0.209201
C113	C	0.631154	-0.029871	-0.031016
C114	C	1.131154	0.470129	0.468984
N115	N	0.596576	0.010880	0.009618
N116	N	1.096576	0.510880	0.509618
H117	H	0.919671	-0.369958	-0.370118
H118	H	1.419671	0.130042	0.129882
C119	C	1.380104	-0.658129	-0.105492
C120	C	1.880104	-0.158129	0.394508
N121	N	1.433486	-0.610598	-0.050453
N122	N	1.933486	-0.110598	0.449547
C123	C	1.380145	-0.104632	-0.659698
C124	C	1.880145	0.395368	-0.159698
N125	N	1.433561	-0.049560	-0.612224
N126	N	1.933561	0.450440	-0.112224
C127	C	0.832741	0.004159	0.002915
C128	C	1.332741	0.504159	0.502915
N129	N	0.877710	0.058344	0.056932
N130	N	1.377710	0.558344	0.556932
C131	C	1.058078	-0.132177	-0.132911
C132	C	1.558078	0.367823	0.367089
N133	N	1.137609	-0.118812	-0.119470
N134	N	1.637609	0.381188	0.380530
H135	H	0.954935	-0.047511	-0.048598
H136	H	1.454935	0.452489	0.451402
