data_functionalizedCrystal
_audit_creation_method	'MofGen! by Chris Wilmer'
_symmetry_space_group_name_H-M	'P1'
_symmetry_Int_Tables_number	1
_symmetry_cell_setting	triclinic
loop_
_symmetry_equiv_pos_as_xyz
  x,y,z
_cell_length_a	15.995292
_cell_length_b	10.654550
_cell_length_c	9.730223
_cell_angle_alpha	90.004253
_cell_angle_beta	89.995536
_cell_angle_gamma	96.023227
loop_
_atom_site_label
_atom_site_type_symbol
_atom_site_fract_x
_atom_site_fract_y
_atom_site_fract_z
O1	O	1.111952	-0.161525	-0.114327
O2	O	0.868287	-0.181590	-0.114321
O3	O	0.995722	0.011257	-0.114316
O4	O	0.984517	-0.354372	-0.114333
O5	O	0.995714	0.011262	0.114264
O6	O	0.868279	-0.181585	0.114259
O7	O	1.111944	-0.161519	0.114253
Zn8	Zn	0.990110	-0.171551	0.150548
Zn9	Zn	0.990121	-0.171558	-0.150616
O10	O	0.984509	-0.354366	0.114247
C11	C	0.994895	0.058046	-0.000026
C12	C	0.992434	0.197457	-0.000028
C13	C	0.837083	-0.180771	-0.000031
C14	C	0.744115	-0.178322	-0.000028
C15	C	0.406325	-0.169322	-0.000043
C16	C	0.430445	-0.308513	-0.000560
C17	C	0.527136	-0.311159	-0.000039
C18	C	0.573907	-0.173788	-0.000037
C19	C	0.544396	-0.104196	0.130492
C20	C	0.447596	-0.102520	0.130596
C21	C	0.447733	-0.099684	-0.129342
C22	C	0.544256	-0.104842	-0.131062
C23	C	0.668617	-0.176305	-0.000028
C24	C	0.311614	-0.166801	-0.000043
C25	C	1.143149	-0.162339	-0.000041
C26	C	1.236116	-0.164787	-0.000052
C27	C	0.985336	-0.401156	-0.000045
C28	C	0.987797	-0.540566	-0.000052
N29	N	0.990109	-0.171546	0.356084
C30	C	1.067466	0.277946	-0.000030
C31	C	1.065148	0.408936	-0.000047
C32	C	0.912760	0.378934	-0.000054
C33	C	0.915079	0.247947	-0.000047
N34	N	0.990129	-0.171554	-0.356152
C35	C	1.046556	-0.086189	0.428013
C36	C	1.046565	-0.086189	0.571896
C37	C	0.933675	-0.256915	0.571909
C38	C	0.933664	-0.256907	0.428029
H39	H	0.402764	-0.362166	-0.094169
O40	O	1.142553	0.228748	-0.000210
C41	C	1.148466	0.153891	-0.118608
H42	H	1.082661	0.121239	-0.158070
H43	H	1.185173	0.211766	-0.201509
C44	C	1.275052	0.078150	-0.034175
C45	C	1.194229	0.038038	-0.082637
H46	H	1.303284	0.006689	-0.011990
H47	H	1.271071	0.128587	0.045590
H48	H	1.305631	0.126381	-0.103268
H49	H	1.163648	-0.010178	-0.013539
H50	H	1.198206	-0.012410	-0.162390
O51	O	0.396178	-0.371962	0.110595
C52	C	0.350448	-0.291125	0.188799
H53	H	0.374985	-0.188799	0.166591
H54	H	0.281041	-0.307636	0.160248
C55	C	0.330971	-0.444421	0.370066
C56	C	0.361112	-0.318743	0.342799
H57	H	0.337545	-0.461459	0.465060
H58	H	0.361777	-0.498885	0.317377
H59	H	0.273133	-0.458165	0.346264
H60	H	0.418951	-0.305004	0.366584
H61	H	0.330316	-0.264276	0.395495
O62	O	1.138090	0.486994	-0.000228
C63	C	1.185008	0.464113	-0.118621
H64	H	1.165026	0.364738	-0.158082
H65	H	1.173149	0.535745	-0.201527
C66	C	1.303810	0.598650	-0.034186
C67	C	1.279273	0.476592	-0.082645
H68	H	1.361957	0.606353	-0.011998
H69	H	1.272200	0.614070	0.045576
H70	H	1.293921	0.658330	-0.103282
H71	H	1.289152	0.416916	-0.013544
H72	H	1.310887	0.461162	-0.162395
O73	O	0.837673	0.428134	-0.000242
C74	C	0.831769	0.502971	-0.118644
H75	H	0.897577	0.535613	-0.158113
H76	H	0.795065	0.445082	-0.201540
C77	C	0.705180	0.578733	-0.034208
C78	C	0.786006	0.618833	-0.082678
H79	H	0.676948	0.650200	-0.012026
H80	H	0.709155	0.528311	0.045560
H81	H	0.674604	0.530491	-0.103296
H82	H	0.816584	0.667060	-0.013585
H83	H	0.782035	0.669267	-0.162433
H84	H	0.545855	-0.365985	0.093684
H85	H	0.887720	-0.326416	0.630501
O86	O	0.878797	-0.339951	0.358361
C87	C	0.828970	-0.415280	0.452710
H88	H	0.863312	-0.416732	0.555262
H89	H	0.766538	-0.374464	0.468041
C90	C	0.770306	-0.548958	0.270576
C91	C	0.812489	-0.550750	0.396529
H92	H	0.760137	-0.632521	0.235920
H93	H	0.803873	-0.498205	0.207010
H94	H	0.718285	-0.514939	0.283369
H95	H	0.864514	-0.584754	0.383731
H96	H	0.778931	-0.601512	0.460092
O97	O	0.415903	-0.159808	0.247089
C98	C	0.373818	-0.073771	0.324348
H99	H	0.399029	0.026796	0.295370
H100	H	0.303574	-0.089173	0.301599
C101	C	0.357715	-0.218348	0.514210
C102	C	0.388685	-0.094830	0.478627
H103	H	0.366882	-0.231341	0.609377
H104	H	0.386066	-0.276316	0.462158
H105	H	0.299180	-0.231168	0.495242
H106	H	0.447220	-0.082017	0.497579
H107	H	0.360345	-0.036860	0.530686
H108	H	0.432452	-0.000464	0.136527
O109	O	0.581815	0.016349	0.136123
C110	C	0.635340	0.039636	0.021770
H111	H	0.654240	-0.053623	-0.019068
H112	H	0.601054	0.088579	-0.062155
C113	C	0.691379	0.239481	0.115551
C114	C	0.714599	0.124939	0.065400
H115	H	0.740268	0.292105	0.142460
H116	H	0.655317	0.223795	0.192590
H117	H	0.662806	0.280251	0.045604
H118	H	0.743161	0.084165	0.135351
H119	H	0.750668	0.140620	-0.011628
O120	O	1.101295	-0.003067	0.358217
C121	C	1.086960	0.121236	0.393472
H122	H	1.019917	0.121850	0.433027
H123	H	1.133146	0.158075	0.477009
C124	C	1.181820	0.205671	0.217126
C125	C	1.099474	0.206427	0.265696
H126	H	1.189542	0.258223	0.138310
H127	H	1.191480	0.121926	0.193376
H128	H	1.220298	0.236367	0.286751
H129	H	1.060997	0.175716	0.196078
H130	H	1.089807	0.290169	0.289431
O131	O	0.550161	-0.376380	-0.111551
C132	C	0.510393	-0.500822	-0.106552
H133	H	0.492626	-0.526313	0.004196
H134	H	0.451261	-0.508070	-0.172708
C135	C	0.592654	-0.561218	-0.297351
C136	C	0.570838	-0.592531	-0.161326
H137	H	0.629936	-0.617789	-0.331144
H138	H	0.619445	-0.477378	-0.300724
H139	H	0.543371	-0.567258	-0.352464
H140	H	0.620119	-0.586474	-0.106214
H141	H	0.544057	-0.676372	-0.157946
H142	H	0.564732	-0.152519	0.227630
H143	H	1.092529	-0.016683	0.630456
O144	O	0.566666	-0.165165	-0.246407
C145	C	0.539754	-0.102439	-0.363378
H146	H	0.485445	-0.046509	-0.334081
H147	H	0.594075	-0.035330	-0.404983
C148	C	0.577043	-0.268819	-0.510509
C149	C	0.510335	-0.200134	-0.474528
H150	H	0.558900	-0.329080	-0.579075
H151	H	0.595178	-0.311078	-0.431705
H152	H	0.622305	-0.212882	-0.545172
H153	H	0.465079	-0.256069	-0.439851
H154	H	0.492192	-0.157887	-0.553330
O155	O	0.583000	0.014698	-0.140659
C156	C	0.628972	0.027849	-0.264384
H157	H	0.644124	-0.068927	-0.300758
H158	H	0.590014	0.071876	-0.345948
C159	C	0.692739	0.232332	-0.195544
C160	C	0.711355	0.113471	-0.240213
H161	H	0.743555	0.285152	-0.180638
H162	H	0.661764	0.223476	-0.112190
H163	H	0.660272	0.269005	-0.263522
H164	H	0.743812	0.076794	-0.172229
H165	H	0.742337	0.122323	-0.323555
O166	O	0.430295	0.022524	-0.130650
C167	C	0.385896	0.045728	-0.251617
H168	H	0.399293	-0.025927	-0.333614
H169	H	0.315610	0.036810	-0.228818
C170	C	0.397789	0.267924	-0.203079
C171	C	0.414249	0.179923	-0.303793
H172	H	0.415274	0.350703	-0.235262
H173	H	0.427699	0.252292	-0.121578
H174	H	0.339217	0.260477	-0.184089
H175	H	0.472820	0.187361	-0.322769
H176	H	0.384349	0.195559	-0.385299
H177	H	0.419662	-0.143192	-0.228276
H178	H	0.853975	0.182409	-0.000049
