data_functionalizedCrystal
_audit_creation_method	'MofGen! by Chris Wilmer'
_symmetry_space_group_name_H-M	'P1'
_symmetry_Int_Tables_number	1
_symmetry_cell_setting	triclinic
loop_
_symmetry_equiv_pos_as_xyz
  x,y,z
_cell_length_a	10.654550
_cell_length_b	8.597304
_cell_length_c	9.730223
_cell_angle_alpha	82.298743
_cell_angle_beta	89.996251
_cell_angle_gamma	84.909268
loop_
_atom_site_label
_atom_site_type_symbol
_atom_site_fract_x
_atom_site_fract_y
_atom_site_fract_z
O1	O	1.669004	0.220456	-0.140502
O2	O	1.303637	0.241460	-0.142966
O3	O	1.493511	0.002571	-0.114688
O4	O	1.479129	0.459346	-0.168780
O5	O	1.493509	0.002577	0.113891
O6	O	1.303634	0.241466	0.085613
O7	O	1.669001	0.220462	0.088077
Zn8	Zn	1.486318	0.230965	0.123137
Zn9	Zn	1.486320	0.230957	-0.178026
O10	O	1.479127	0.459352	0.059799
C11	C	1.256829	0.239921	-0.028491
C12	C	1.117362	0.235307	-0.027936
C13	C	1.038622	0.375961	-0.044613
C14	C	0.907578	0.371616	-0.044122
C15	C	0.934026	0.085950	-0.010282
C16	C	1.065067	0.090297	-0.010764
C17	C	1.023352	0.540889	-0.064156
C18	C	0.892308	0.536544	-0.063665
C19	C	1.491966	-0.055914	0.006525
C20	C	1.487349	-0.230190	0.027155
C21	C	1.715809	0.222001	-0.026401
C22	C	1.855276	0.226616	-0.026964
C23	C	1.480672	0.517837	-0.061417
C24	C	1.485289	0.692113	-0.082056
N25	N	1.486325	0.230970	0.328673
N26	N	1.486323	0.230940	-0.383560
C27	C	1.570424	0.125226	0.413116
C28	C	1.570420	0.125207	0.557002
C29	C	1.402215	0.336690	0.531986
C30	C	1.402214	0.336700	0.388104
C31	C	1.667539	0.003132	0.427560
C32	C	1.667536	0.003113	0.571445
H33	H	1.053024	0.605394	0.023871
F34	F	1.487598	-0.220569	-0.224913
H35	H	1.485567	-0.297003	0.136455
H36	H	1.333723	0.422791	0.319352
F37	F	0.838187	0.617761	-0.198325
F38	F	1.070328	0.609525	-0.201274
H39	H	1.333733	0.422771	0.580390
H40	H	1.645456	-0.117514	0.402795
H41	H	1.758926	0.041361	0.378401
H42	H	1.636418	-0.110897	0.629564
F43	F	1.793869	0.038252	0.618325
H44	H	1.129173	-0.024238	0.002836
F45	F	0.832950	0.601697	0.057601
H46	H	0.891432	-0.032112	0.003678
