data_functionalizedCrystal
_audit_creation_method	'MofGen! by Chris Wilmer'
_symmetry_space_group_name_H-M	'P1'
_symmetry_Int_Tables_number	1
_symmetry_cell_setting	triclinic
loop_
_symmetry_equiv_pos_as_xyz
  x,y,z
_cell_length_a	10.654550
_cell_length_b	17.699083
_cell_length_c	9.730223
_cell_angle_alpha	89.994713
_cell_angle_beta	89.999957
_cell_angle_gamma	83.883973
loop_
_atom_site_label
_atom_site_type_symbol
_atom_site_fract_x
_atom_site_fract_y
_atom_site_fract_z
O1	O	1.665978	0.106302	-0.114190
O2	O	1.300323	0.116430	-0.114216
O3	O	1.493481	0.001243	-0.114190
O4	O	1.472820	0.221490	-0.114216
O5	O	1.493469	0.001240	0.114390
O6	O	1.300310	0.116427	0.114364
O7	O	1.665966	0.106299	0.114390
Zn8	Zn	1.483136	0.111363	0.150669
Zn9	Zn	1.483152	0.111367	-0.150495
O10	O	1.472807	0.221487	0.114364
C11	C	1.253531	0.115685	0.000071
C12	C	1.114127	0.113460	0.000061
C13	C	1.033454	0.181281	0.000058
C14	C	0.902470	0.179186	0.000082
C15	C	0.932844	0.041444	0.000108
C16	C	1.063826	0.043539	0.000094
C17	C	1.492735	-0.026960	0.000100
C18	C	1.490514	-0.110993	0.000100
C19	C	1.603894	-0.158893	0.000110
C20	C	1.601799	-0.237849	0.000098
C21	C	1.486323	-0.268904	0.000085
C22	C	1.372935	-0.220998	0.000071
C23	C	1.375030	-0.142043	0.000074
C24	C	1.364481	-0.539415	0.000060
C25	C	1.362394	-0.618376	0.000061
C26	C	1.591249	-0.635221	0.000083
C27	C	1.593345	-0.556266	0.000086
C28	C	1.479957	-0.508367	0.000065
C29	C	1.482229	-0.422753	0.000075
C30	C	1.484050	-0.354516	0.000085
C31	C	1.712757	0.107045	0.000100
C32	C	1.852161	0.109269	0.000100
C33	C	1.473554	0.249690	0.000071
C34	C	1.475775	0.333722	0.000061
N35	N	1.483134	0.111359	0.356205
N36	N	1.483164	0.111364	-0.356032
C37	C	1.568694	0.060376	0.428142
C38	C	1.568706	0.060376	0.572025
C39	C	1.397596	0.162350	0.572021
C40	C	1.397578	0.162345	0.428141
H41	H	1.129514	-0.011692	0.000101
C42	C	1.303470	0.218434	0.348998
H43	H	1.315708	0.211123	0.253006
H44	H	1.316952	0.269023	0.372560
H45	H	1.219684	0.209743	0.372587
H46	H	1.074405	0.238215	0.000042
C47	C	1.730919	-0.124739	0.000123
H48	H	1.798142	-0.164578	0.000115
H49	H	1.736493	-0.094293	0.079834
H50	H	1.736496	-0.094286	-0.079597
C51	C	1.303462	0.218414	0.651148
H52	H	1.252484	0.248766	0.587694
H53	H	1.348502	0.250185	0.707281
H54	H	1.251294	0.190869	0.707269
H55	H	1.268354	-0.643657	0.000054
C56	C	1.239759	-0.486736	0.000060
H57	H	1.170690	-0.516541	0.000072
H58	H	1.235811	-0.455578	-0.079647
H59	H	1.235820	-0.455593	0.079785
C60	C	1.662826	0.004298	0.651151
H61	H	1.713780	-0.026062	0.587697
H62	H	1.617767	-0.027463	0.707294
H63	H	1.715020	0.031826	0.707262
H64	H	1.694125	-0.276847	0.000109
C65	C	0.877514	-0.035465	0.000127
H66	H	0.944323	-0.075556	0.000139
H67	H	0.827044	-0.039145	-0.079579
H68	H	0.827057	-0.039146	0.079853
C69	C	0.813735	0.253788	0.000068
H70	H	0.862457	0.295728	0.000036
H71	H	0.762014	0.255839	0.079783
H72	H	0.762003	0.255830	-0.079649
H73	H	1.687377	-0.530986	0.000103
C74	C	1.715976	-0.687913	0.000084
H75	H	1.698196	-0.739384	0.000064
H76	H	1.763333	-0.678441	0.079799
H77	H	1.763337	-0.678426	-0.079632
H78	H	1.278912	-0.246289	0.000053
H79	H	1.638357	0.018859	0.369576
C80	C	1.250313	-0.089353	0.000067
H81	H	1.181239	-0.119155	0.000071
H82	H	1.246379	-0.058198	-0.079644
H83	H	1.246368	-0.058207	0.079787
