data_functionalizedCrystal
_audit_creation_method	'MofGen! by Chris Wilmer'
_symmetry_space_group_name_H-M	'P1'
_symmetry_Int_Tables_number	1
_symmetry_cell_setting	triclinic
loop_
_symmetry_equiv_pos_as_xyz
  x,y,z
_cell_length_a	15.538191
_cell_length_b	16.776229
_cell_length_c	17.699083
_cell_angle_alpha	90.007545
_cell_angle_beta	114.722446
_cell_angle_gamma	89.990959
loop_
_atom_site_label
_atom_site_type_symbol
_atom_site_fract_x
_atom_site_fract_y
_atom_site_fract_z
O1	O	1.250478	-0.066293	0.245973
O2	O	1.750478	0.433707	0.745973
O3	O	0.976019	-0.066294	0.158526
O4	O	1.476019	0.433706	0.658526
O5	O	1.121003	-0.066286	0.314557
O6	O	1.621003	0.433714	0.814557
O7	O	1.105495	-0.066300	0.089941
O8	O	1.605495	0.433700	0.589941
O9	O	1.120984	0.066290	0.314559
O10	O	1.620984	0.566290	0.814559
O11	O	0.976000	0.066283	0.158528
O12	O	1.476000	0.566283	0.658528
O13	O	1.250459	0.066284	0.245975
O14	O	1.750459	0.566284	0.745975
Zn15	Zn	1.113227	0.087333	0.202252
Zn16	Zn	1.613227	0.587333	0.702252
Zn17	Zn	1.113252	-0.087343	0.202249
Zn18	Zn	1.613252	0.412657	0.702249
O19	O	1.105475	0.066276	0.089943
O20	O	1.605475	0.566276	0.589943
C21	C	0.940893	-0.000006	0.149378
C22	C	1.440893	0.499994	0.649378
C23	C	0.836257	-0.000006	0.122125
C24	C	1.336257	0.499994	0.622125
N25	N	1.113216	0.206544	0.202256
N26	N	1.613216	0.706544	0.702256
N27	N	1.113270	-0.206554	0.202253
N28	N	1.613270	0.293446	0.702253
C29	C	0.549086	-0.000001	0.392872
C30	C	1.049086	0.499999	0.892872
C31	C	0.450762	-0.000004	0.367245
C32	C	0.950762	0.499996	0.867245
C33	C	0.427989	-0.000012	0.223099
C34	C	0.927989	0.499988	0.723099
C35	C	0.526313	-0.000006	0.248714
C36	C	1.026313	0.499994	0.748714
C37	C	0.586855	-0.000002	0.333602
C38	C	1.086855	0.499998	0.833602
C39	C	0.564082	-0.000007	0.189444
C40	C	1.064082	0.499993	0.689444
C41	C	0.662398	-0.000005	0.215057
C42	C	1.162398	0.499995	0.715057
C43	C	0.722945	-0.000003	0.299940
C44	C	1.222945	0.499997	0.799940
C45	C	0.685171	0.000000	0.359215
C46	C	1.185171	0.500000	0.859215
C47	C	0.503539	-0.000017	0.104556
C48	C	1.003539	0.499983	0.604556
C49	C	0.541308	-0.000017	0.045286
C50	C	1.041308	0.499983	0.545286
C51	C	0.639625	-0.000010	0.070899
C52	C	1.139625	0.499990	0.570899
C53	C	0.700173	-0.000007	0.155782
C54	C	1.200173	0.499993	0.655782
C55	C	0.677400	-0.000012	0.011624
C56	C	1.177400	0.499988	0.511624
C57	C	0.775716	-0.000011	0.037238
C58	C	1.275716	0.499989	0.537238
C59	C	0.798489	-0.000006	0.181396
C60	C	1.298489	0.499994	0.681396
C61	C	1.285585	-0.000006	0.255123
C62	C	1.785585	0.499994	0.755123
C63	C	1.390221	-0.000011	0.282375
C64	C	1.890221	0.499989	0.782375
C65	C	1.120438	0.000002	0.342603
C66	C	1.620438	0.500002	0.842603
C67	C	1.118771	0.000002	0.426166
C68	C	1.618771	0.500002	0.926166
C69	C	1.177434	0.248264	0.271331
C70	C	1.677434	0.748264	0.771331
C71	C	1.177440	0.331716	0.271333
C72	C	1.677440	0.831716	0.771333
C73	C	1.113230	0.373447	0.202257
C74	C	1.613230	0.873447	0.702257
C75	C	1.049005	0.331720	0.133177
C76	C	1.549005	0.831720	0.633177
C77	C	1.048996	0.248270	0.133178
C78	C	1.548996	0.748270	0.633178
C79	C	1.049039	0.668268	0.133172
C80	C	1.549039	1.168268	0.633172
C81	C	1.049055	0.751724	0.133175
C82	C	1.549055	1.251724	0.633175
C83	C	1.177483	0.751714	0.271326
C84	C	1.677483	1.251714	0.771326
C85	C	1.177474	0.668264	0.271327
C86	C	1.677474	1.168264	0.771327
C87	C	1.113246	0.626545	0.202250
C88	C	1.613246	1.126545	0.702250
C89	C	1.113240	0.536056	0.202249
C90	C	1.613240	1.036056	0.702249
C91	C	1.113240	0.463934	0.202254
C92	C	1.613240	0.963934	0.702254
C93	C	1.106041	-0.000014	0.061897
C94	C	1.606041	0.499986	0.561897
C95	C	1.107708	-0.000020	-0.021665
C96	C	1.607708	0.499980	0.478335
C97	C	1.203873	0.000004	0.498041
C98	C	1.703873	0.500004	0.998041
C99	C	1.202301	-0.000003	0.576554
C100	C	1.702301	0.499997	1.076554
C101	C	1.115626	-0.000006	0.583192
C102	C	1.615626	0.499994	1.083192
C103	C	1.030517	-0.000010	0.511309
C104	C	1.530517	0.499990	1.011309
C105	C	1.032090	-0.000008	0.432797
C106	C	1.532090	0.499992	0.932797
C107	C	1.024171	-0.000016	0.827938
C108	C	1.524171	0.499984	1.327938
C109	C	1.022605	-0.000015	0.906458
C110	C	1.522605	0.499985	1.406458
C111	C	1.194382	-0.000011	0.971696
C112	C	1.694382	0.499989	1.471696
C113	C	1.195955	-0.000010	0.893184
C114	C	1.695955	0.499990	1.393184
C115	C	1.110847	-0.000018	0.821308
C116	C	1.610847	0.499982	1.321308
C117	C	1.112552	-0.000012	0.736175
C118	C	1.612552	0.499988	1.236175
C119	C	1.113919	-0.000006	0.668323
C120	C	1.613919	0.499994	1.168323
H121	H	0.803000	-0.000012	0.320793
H122	H	1.303000	0.499988	0.820793
O123	O	0.937031	-0.000015	0.518468
O124	O	1.437031	0.499985	1.018468
H125	H	0.878118	-0.000023	0.455297
H126	H	1.378118	0.499977	0.955297
H127	H	0.996765	0.785699	0.076923
H128	H	1.496765	1.285699	0.576923
O129	O	1.246758	0.796716	0.345832
O130	O	1.746758	1.296716	0.845832
H131	H	1.291413	0.753677	0.393858
H132	H	1.791413	1.253677	0.893858
O133	O	0.979777	0.623274	0.058667
O134	O	1.479777	1.123274	0.558667
H135	H	0.935141	0.666314	0.010632
H136	H	1.435141	1.166314	0.510632
O137	O	1.289443	-0.000018	0.886029
O138	O	1.789443	0.499982	1.386029
H139	H	1.330331	0.054011	0.916752
H140	H	1.830331	0.554011	1.416752
H141	H	0.954870	-0.000023	0.769424
H142	H	1.454870	0.499977	1.269424
O143	O	0.979755	0.376724	0.058667
O144	O	1.479755	0.876724	0.558667
H145	H	0.934027	0.414768	0.077979
H146	H	1.434027	0.914768	0.577979
O147	O	0.410023	0.000008	0.431177
O148	O	0.910023	0.500008	0.931177
H149	H	0.434366	-0.054022	0.470660
H150	H	0.934366	0.445978	0.970660
H151	H	0.996702	0.214302	0.076931
H152	H	1.496702	0.714302	0.576931
O153	O	0.940302	-0.000002	0.355269
O154	O	1.440302	0.499998	0.855269
H155	H	0.879766	0.000006	0.373073
H156	H	1.379766	0.500006	0.873073
O157	O	1.246683	0.203268	0.345848
O158	O	1.746683	0.703268	0.845848
H159	H	1.207075	0.165267	0.371767
H160	H	1.707075	0.665267	0.871767
O161	O	0.863803	0.000008	0.272953
O162	O	1.363803	0.500008	0.772953
H163	H	0.850415	-0.054028	0.302605
H164	H	1.350415	0.445972	0.802605
H165	H	1.263682	-0.000008	1.030228
H166	H	1.763682	0.499992	1.530228
H167	H	1.274454	0.000011	0.492646
H168	H	1.774454	0.500011	0.992646
H169	H	0.423484	-0.000021	0.083705
H170	H	0.923484	0.499979	0.583705
H171	H	1.229762	0.634289	0.327573
H172	H	1.729762	1.134289	0.827573
H173	H	1.229730	0.365685	0.327579
H174	H	1.729730	0.865685	0.827579
H175	H	0.734468	0.000009	0.428339
H176	H	1.234468	0.500009	0.928339
O177	O	0.614401	0.000012	0.484429
O178	O	1.114401	0.500012	0.984429
H179	H	0.601013	-0.054024	0.514081
H180	H	1.101013	0.445976	1.014081
O181	O	0.476002	-0.000022	-0.046267
O182	O	0.976002	0.499978	0.453733
H183	H	0.518786	-0.000026	-0.083178
H184	H	1.018786	0.499974	0.416822
H185	H	0.806467	-0.000004	-0.011026
H186	H	1.306467	0.499996	0.488974
H187	H	0.952019	-0.000016	0.911855
H188	H	1.452019	0.499984	1.411855
O189	O	0.362691	-0.000006	0.131544
O190	O	0.862691	0.499994	0.631544
H191	H	0.287979	0.000001	0.123689
H192	H	0.787979	0.500001	0.623689
O193	O	0.612094	-0.000013	-0.079928
O194	O	1.112094	0.499987	0.420072
H195	H	0.566762	-0.054048	-0.095046
H196	H	1.066762	0.445952	0.404954
H197	H	1.271600	-0.000000	0.635075
H198	H	1.771600	0.500000	1.135075
