data_functionalizedCrystal
_audit_creation_method	'MofGen! by Chris Wilmer'
_symmetry_space_group_name_H-M	'P1'
_symmetry_Int_Tables_number	1
_symmetry_cell_setting	triclinic
loop_
_symmetry_equiv_pos_as_xyz
  x,y,z
_cell_length_a	23.532407
_cell_length_b	27.731996
_cell_length_c	22.610064
_cell_angle_alpha	89.998076
_cell_angle_beta	89.997161
_cell_angle_gamma	82.735033
loop_
_atom_site_label
_atom_site_type_symbol
_atom_site_fract_x
_atom_site_fract_y
_atom_site_fract_z
O1	O	0.755125	0.058674	-0.049118
O2	O	0.589242	0.067164	-0.049137
O3	O	0.677351	-0.007472	-0.049114
O4	O	0.667016	0.133309	-0.049141
O5	O	0.677335	-0.007461	0.049255
O6	O	0.589226	0.067175	0.049232
O7	O	0.755110	0.058684	0.049251
Zn8	Zn	0.672166	0.062931	0.064860
Zn9	Zn	0.672186	0.062917	-0.064746
O10	O	0.667001	0.133320	0.049228
C11	C	0.568019	0.066953	0.000046
C12	C	0.504803	0.066303	0.000039
C13	C	0.677131	-0.025474	0.000072
C14	C	0.676491	-0.079131	0.000078
C15	C	0.105606	0.106394	0.000058
C16	C	0.046207	0.105790	0.000062
O17	O	0.009375	0.142955	0.000077
N18	N	0.023685	0.061419	0.000070
C19	C	0.060566	0.017649	0.000079
O20	O	0.035955	-0.020147	0.000086
C21	C	0.119963	0.018253	0.000080
C22	C	0.142482	0.062627	0.000066
C23	C	0.128124	0.150764	0.000046
C24	C	0.187519	0.151368	0.000041
C25	C	0.224395	0.107601	0.000049
C26	C	0.201876	0.063231	0.000061
C27	C	0.156843	-0.025516	0.000094
C28	C	0.216244	-0.024908	0.000095
C29	C	0.238762	0.019466	0.000081
C30	C	0.298147	0.020068	0.000065
N31	N	0.320669	0.064439	0.000057
C32	C	0.283793	0.108206	0.000049
C33	C	-0.064174	0.016383	0.000079
C34	C	-0.123570	0.015778	0.000075
C35	C	-0.137925	0.103920	0.000058
C36	C	-0.078528	0.104524	0.000059
C37	C	-0.041652	0.060754	0.000072
C38	C	0.408526	0.109470	0.000039
C39	C	0.467927	0.110070	0.000031
C40	C	0.482277	0.021929	0.000050
C41	C	0.422881	0.021329	0.000055
C42	C	0.386007	0.065103	0.000051
O43	O	0.335014	-0.017077	0.000053
O44	O	0.308412	0.145996	0.000050
C45	C	0.672477	-0.411860	-0.053572
C46	C	0.670048	-0.613522	-0.053583
O47	O	0.669717	-0.639598	-0.099186
N48	N	0.669738	-0.638733	0.000038
C49	C	0.670032	-0.613526	0.053665
O50	O	0.669706	-0.639597	0.099272
C51	C	0.672456	-0.411864	0.053675
C52	C	0.672772	-0.386656	0.000051
C53	C	0.672792	-0.386651	-0.107192
C54	C	0.673402	-0.336239	-0.107188
C55	C	0.673697	-0.311036	-0.053566
C56	C	0.673382	-0.336244	0.000054
C57	C	0.672745	-0.386658	0.107301
C58	C	0.673350	-0.336239	0.107299
C59	C	0.673665	-0.311030	0.053675
C60	C	0.674287	-0.260628	0.053680
N61	N	0.674597	-0.235417	0.000060
C62	C	0.674302	-0.260620	-0.053563
C63	C	0.668760	-0.719401	0.053656
C64	C	0.668155	-0.769817	0.053653
C65	C	0.668171	-0.769809	-0.053594
C66	C	0.668780	-0.719393	-0.053591
C67	C	0.669070	-0.694190	0.000035
C68	C	0.675584	-0.154751	-0.053552
C69	C	0.676197	-0.104335	-0.053545
C70	C	0.676178	-0.104347	0.053703
C71	C	0.675568	-0.154759	0.053695
C72	C	0.675269	-0.179960	0.000063
O73	O	0.674612	-0.234520	0.099259
O74	O	0.674615	-0.234539	-0.099164
C75	C	0.671867	-0.462272	-0.053575
C76	C	0.671551	-0.487480	0.000044
C77	C	0.671846	-0.462277	0.053667
C78	C	0.670946	-0.537896	0.000042
C79	C	0.670651	-0.563099	-0.053581
C80	C	0.670961	-0.537888	-0.107201
C81	C	0.671572	-0.487475	-0.107198
C82	C	0.671536	-0.487488	0.107288
C83	C	0.670927	-0.537901	0.107280
C84	C	0.670632	-0.563104	0.053657
C85	C	0.776333	0.058895	0.000067
C86	C	0.839549	0.059545	0.000070
C87	C	0.667221	0.151323	0.000040
C88	C	0.667860	0.204980	0.000031
N89	N	0.672156	0.062941	0.153312
N90	N	0.672200	0.062904	-0.153198
C91	C	0.711202	0.029873	0.561964
C92	C	0.711205	0.029870	0.623884
O93	O	0.744380	0.001762	0.655911
N94	N	0.672186	0.062907	0.654849
C95	C	0.633157	0.095947	0.623892
O96	O	0.599967	0.124047	0.655917
C97	C	0.633151	0.095947	0.561973
C98	C	0.672178	0.062911	0.531011
C99	C	0.750225	-0.003160	0.531001
C100	C	0.750223	-0.003156	0.469085
C101	C	0.711198	0.029882	0.438132
C102	C	0.672175	0.062916	0.469095
C103	C	0.594120	0.128984	0.531017
C104	C	0.594118	0.128982	0.469094
C105	C	0.633144	0.095946	0.438132
C106	C	0.633148	0.095958	0.376227
N107	N	0.672168	0.062921	0.345261
C108	C	0.711193	0.029883	0.376214
C109	C	0.633170	0.095942	0.753926
C110	C	0.633177	0.095944	0.815843
C111	C	0.711225	0.029866	0.815831
C112	C	0.711220	0.029867	0.753912
C113	C	0.672190	0.062905	0.722960
C114	C	0.711185	0.029894	0.246186
C115	C	0.711181	0.029903	0.184265
C116	C	0.633131	0.095978	0.184283
C117	C	0.633137	0.095972	0.246199
C118	C	0.672166	0.062926	0.277149
O119	O	0.599989	0.124050	0.344160
O120	O	0.744371	0.001783	0.344182
H121	H	0.378510	0.145116	0.000037
H122	H	0.486258	0.146206	0.000020
H123	H	0.670724	-0.558417	-0.150863
H124	H	0.672489	-0.407174	0.150968
H125	H	0.601364	0.122878	0.271409
H126	H	0.670674	-0.558421	0.150951
O127	O	-0.145509	-0.027296	0.000159
C128	C	-0.179425	-0.030287	0.051115
H129	H	-0.194562	0.007886	0.068094
H130	H	-0.218152	-0.049368	0.039662
H131	H	-0.152989	-0.051797	0.086791
O132	O	0.401099	-0.021817	0.000086
C133	C	0.446387	-0.060317	0.000071
H134	H	0.486623	-0.046964	0.018687
H135	H	0.434249	-0.091312	0.028637
H136	H	0.454909	-0.073806	-0.047120
H137	H	0.671829	-0.466955	-0.150864
H138	H	0.669036	-0.698872	-0.097257
O139	O	0.595244	0.128022	0.154118
C140	C	0.603622	0.120943	0.092829
H141	H	0.625263	0.082420	0.084376
H142	H	0.560445	0.126500	0.069298
H143	H	0.631931	0.148185	0.075252
H144	H	0.138520	-0.061650	0.000105
O145	O	0.209294	0.194516	0.000061
C146	C	0.164000	0.233010	0.000042
H147	H	0.123766	0.219654	0.018666
H148	H	0.176132	0.264010	0.028599
H149	H	0.155476	0.246494	-0.047152
O150	O	0.518185	-0.020540	0.000086
C151	C	0.575437	-0.010486	0.000068
H152	H	0.577372	0.027476	0.018678
H153	H	0.602598	-0.038392	0.028637
H154	H	0.592637	-0.012412	-0.047124
H155	H	0.668999	-0.698886	0.097327
O156	O	0.252041	-0.067440	-0.000001
C157	C	0.241882	-0.094409	-0.050932
H158	H	0.221354	-0.068793	-0.086545
H159	H	0.284199	-0.114006	-0.068032
H160	H	0.211878	-0.122235	-0.039405
O161	O	0.092284	0.193270	0.000139
C162	C	0.057477	0.195570	0.051073
H163	H	0.079440	0.170749	0.086693
H164	H	0.050460	0.234545	0.068159
H165	H	0.014388	0.183277	0.039555
H166	H	0.675338	-0.175263	-0.097225
O167	O	-0.056751	0.147671	0.000076
C168	C	-0.102043	0.186167	0.000051
H169	H	-0.142278	0.172815	0.018675
H170	H	-0.089910	0.217169	0.028605
H171	H	-0.110563	0.199647	-0.047145
O172	O	-0.173834	0.146392	0.000080
C173	C	-0.231086	0.136338	0.000069
H174	H	-0.233023	0.098382	0.018699
H175	H	-0.258250	0.164253	0.028623
H176	H	-0.248281	0.138249	-0.047124
O177	O	-0.028435	-0.026182	0.000056
C178	C	-0.061057	-0.065470	0.000076
H179	H	-0.105501	-0.052977	-0.018547
H180	H	-0.038878	-0.096121	-0.028480
H181	H	-0.065170	-0.079082	0.047271
H182	H	0.676455	-0.083813	-0.097214
O183	O	0.673676	-0.311826	-0.159332
C184	C	0.673297	-0.344892	-0.206655
H185	H	0.654828	-0.378740	-0.190929
H186	H	0.645814	-0.327126	-0.244162
H187	H	0.718942	-0.355548	-0.223141
H188	H	0.782004	-0.030066	0.556197
H189	H	0.672550	-0.407166	-0.150860
H190	H	0.667931	-0.790338	-0.097256
H191	H	0.675316	-0.175285	0.097360
H192	H	0.673577	-0.315720	0.150969
O193	O	0.667830	-0.794224	0.105797
C194	C	0.668234	-0.761163	0.153122
H195	H	0.650632	-0.723137	0.137395
H196	H	0.640391	-0.772524	0.190623
H197	H	0.714003	-0.761094	0.169616
O198	O	0.749071	-0.002305	0.723881
C199	C	0.740239	-0.050107	0.739057
H200	H	0.694639	-0.050129	0.756071
H201	H	0.747013	-0.074417	0.698356
H202	H	0.771920	-0.064430	0.775013
O203	O	0.676359	-0.079821	0.105772
C204	C	0.627371	-0.044937	0.108950
H205	H	0.592711	-0.056144	0.078514
H206	H	0.610799	-0.042438	0.156371
H207	H	0.638989	-0.008023	0.094536
O208	O	0.671853	-0.463088	0.159433
C209	C	0.671435	-0.496155	0.206753
H210	H	0.689034	-0.534180	0.191022
H211	H	0.699273	-0.484803	0.244259
H212	H	0.625662	-0.496221	0.223241
H213	H	0.742965	0.002985	0.271379
O214	O	0.749113	-0.002238	0.154280
C215	C	0.783565	-0.031391	0.194883
H216	H	0.760220	-0.031837	0.239022
H217	H	0.792603	-0.070033	0.176993
H218	H	0.825728	-0.015877	0.201467
H219	H	0.743001	0.002964	0.841044
H220	H	0.781999	-0.030058	0.443879
H221	H	0.601405	0.122850	0.841049
H222	H	0.601388	0.122849	0.728728
H223	H	0.562341	0.155885	0.556218
H224	H	0.562333	0.155885	0.443896
