data_functionalizedCrystal
_audit_creation_method	'MofGen! by Chris Wilmer'
_symmetry_space_group_name_H-M	'P1'
_symmetry_Int_Tables_number	1
_symmetry_cell_setting	triclinic
loop_
_symmetry_equiv_pos_as_xyz
  x,y,z
_cell_length_a	15.944499
_cell_length_b	15.021413
_cell_length_c	14.971486
_cell_angle_alpha	90.001176
_cell_angle_beta	96.454131
_cell_angle_gamma	89.995782
loop_
_atom_site_label
_atom_site_type_symbol
_atom_site_fract_x
_atom_site_fract_y
_atom_site_fract_z
O1	O	1.114648	0.074086	-0.115133
O2	O	0.870106	0.074076	-0.129404
O3	O	0.998931	0.074075	0.007940
O4	O	0.985822	0.074087	-0.252477
O5	O	0.998946	-0.073989	0.007931
O6	O	0.870121	-0.073988	-0.129413
O7	O	1.114663	-0.073978	-0.115142
Zn8	Zn	0.992394	-0.097492	-0.122279
Zn9	Zn	0.992374	0.097589	-0.122267
O10	O	0.985837	-0.073977	-0.252486
C11	C	0.838818	0.000043	-0.128824
C12	C	0.745568	0.000039	-0.127073
N13	N	0.992414	-0.230629	-0.122286
C14	C	0.454108	0.000056	-0.206866
C15	C	0.515090	0.073059	-0.165383
C16	C	0.409925	0.000059	-0.120709
C17	C	0.515091	-0.072921	-0.165368
C18	C	0.574837	0.000047	-0.123840
C19	C	0.469680	0.073122	-0.079202
C20	C	0.469674	-0.072923	-0.079199
C21	C	0.530639	0.000098	-0.037654
C22	C	0.314924	0.000066	-0.118907
C23	C	0.669838	0.000047	-0.125635
C24	C	1.051994	-0.470289	-0.058763
C25	C	0.976076	-0.529622	-0.041402
C26	C	0.992394	-0.412236	-0.122274
C27	C	1.068294	-0.529645	-0.139583
C28	C	0.992382	-0.587660	-0.122262
C29	C	0.916438	-0.470263	-0.104874
C30	C	1.008705	-0.470280	-0.203089
C31	C	0.932732	-0.529586	-0.185762
C32	C	0.992402	-0.311179	-0.122280
C33	C	0.992365	-0.688715	-0.122257
C34	C	1.145950	0.000057	-0.115722
C35	C	1.239200	0.000067	-0.117473
C36	C	0.998352	0.000043	0.041259
C37	C	0.996596	0.000044	0.140554
N38	N	0.992361	0.230727	-0.122253
C39	C	0.986416	0.000057	-0.285805
C40	C	0.988173	0.000062	-0.385100
C41	C	1.072277	0.000046	0.197876
C42	C	1.070621	0.000055	0.291174
C43	C	0.993283	0.000055	0.327147
C44	C	0.917596	0.000055	0.269818
C45	C	0.919253	0.000053	0.176522
C46	C	0.914149	0.000058	0.464276
C47	C	0.912491	0.000059	0.557578
C48	C	1.065517	0.000061	0.578927
C49	C	1.067174	0.000058	0.485632
C50	C	0.991486	0.000057	0.428309
H51	H	0.535217	0.134777	-0.201824
H52	H	0.449660	0.134910	-0.042791
H53	H	0.852231	-0.444288	-0.090151
H54	H	0.449529	-0.134647	-0.042792
H55	H	0.882270	-0.555458	-0.239470
O56	O	0.570112	0.000296	0.047734
C57	C	0.546943	0.077354	0.092821
H58	H	0.525066	0.130912	0.041474
H59	H	0.493431	0.060632	0.134476
C60	C	0.650344	0.045989	0.218226
C61	C	0.623481	0.111772	0.155162
H62	H	0.697554	0.067218	0.256684
H63	H	0.665951	-0.005929	0.187852
H64	H	0.605743	0.032059	0.252930
H65	H	0.668078	0.125692	0.120452
H66	H	0.607883	0.163693	0.185531
H67	H	1.135254	0.000041	0.168594
H68	H	1.022536	-0.444194	-0.271416
O69	O	1.144946	-0.560622	-0.156976
C70	C	1.207592	-0.530408	-0.089854
H71	H	1.184349	-0.467939	-0.057074
H72	H	1.221443	-0.584473	-0.036805
C73	C	1.317256	-0.585483	-0.172738
C74	C	1.288712	-0.508752	-0.132482
H75	H	1.367297	-0.572128	-0.199030
H76	H	1.275051	-0.605842	-0.217958
H77	H	1.328792	-0.630529	-0.128523
H78	H	1.277166	-0.463711	-0.176698
H79	H	1.330917	-0.488385	-0.087270
O80	O	1.144216	0.000012	0.346728
C81	C	1.212831	0.000026	0.294971
H82	H	1.191580	-0.028007	0.225338
H83	H	1.236533	0.071057	0.288330
C84	C	1.310573	-0.023614	0.426995
C85	C	1.284473	-0.058051	0.341472
H86	H	1.354767	-0.059435	0.455680
H87	H	1.264346	-0.023620	0.461866
H88	H	1.330319	0.035578	0.421449
H89	H	1.264718	-0.117238	0.347020
H90	H	1.330698	-0.058057	0.306603
O91	O	0.842522	0.000175	0.304867
C92	C	0.836969	0.076869	0.358177
H93	H	0.903149	0.102437	0.381423
H94	H	0.799845	0.130565	0.316954
C95	C	0.710374	0.022170	0.412144
C96	C	0.791657	0.053569	0.440701
H97	H	0.682420	0.007800	0.463047
H98	H	0.714112	-0.029499	0.376225
H99	H	0.679447	0.066922	0.377790
H100	H	0.822586	0.008813	0.475044
H101	H	0.787923	0.105230	0.476628
O102	O	0.845758	0.000206	0.120799
C103	C	0.842143	0.076879	0.066180
H104	H	0.885058	0.130476	0.100357
H105	H	0.863957	0.059541	-0.001658
C106	C	0.698049	0.045820	0.010013
C107	C	0.750752	0.111652	0.051993
H108	H	0.641674	0.067269	0.001257
H109	H	0.700485	-0.005838	0.046808
H110	H	0.716237	0.031379	-0.046514
H111	H	0.732570	0.126085	0.108523
H112	H	0.748311	0.163314	0.015207
O113	O	0.538976	-0.146524	-0.208978
C114	C	0.499637	-0.146229	-0.298161
H115	H	0.440236	-0.103491	-0.302435
H116	H	0.544912	-0.117734	-0.344559
C117	C	0.548703	-0.294624	-0.321878
C118	C	0.475742	-0.242138	-0.327126
H119	H	0.533966	-0.353785	-0.339747
H120	H	0.575210	-0.294822	-0.261795
H121	H	0.586426	-0.270867	-0.360543
H122	H	0.438026	-0.265888	-0.288452
H123	H	0.449228	-0.241946	-0.387203
O124	O	1.138964	0.000112	0.634733
C125	C	1.120922	0.000100	0.724793
H126	H	1.054938	0.028129	0.728357
H127	H	1.124087	-0.070931	0.751782
C128	C	1.267115	0.023748	0.777517
C129	C	1.186075	0.058181	0.781896
H130	H	1.307306	0.059572	0.812742
H131	H	1.279271	0.023753	0.716842
H132	H	1.269741	-0.035444	0.800006
H133	H	1.183447	0.117367	0.759396
H134	H	1.173920	0.058188	0.842568
H135	H	0.420846	0.000130	-0.278367
H136	H	1.130149	0.000052	0.456345
H137	H	1.102343	-0.444252	-0.005024
O138	O	0.837348	0.000229	0.592486
C139	C	0.791201	0.076908	0.563181
H140	H	0.836425	0.130497	0.543773
H141	H	0.744445	0.059577	0.502377
C142	C	0.687317	0.045872	0.663362
C143	C	0.742863	0.111694	0.639532
H144	H	0.657496	0.067328	0.710457
H145	H	0.718405	-0.005791	0.683103
H146	H	0.648362	0.031435	0.612685
H147	H	0.781823	0.126121	0.690206
H148	H	0.711780	0.163360	0.619802
H149	H	0.852515	0.000060	0.417605
H150	H	0.962269	-0.555689	0.026946
