data_functionalizedCrystal
_audit_creation_method	'MofGen! by Chris Wilmer'
_symmetry_space_group_name_H-M	'P1'
_symmetry_Int_Tables_number	1
_symmetry_cell_setting	triclinic
loop_
_symmetry_equiv_pos_as_xyz
  x,y,z
_cell_length_a	14.908571
_cell_length_b	19.121063
_cell_length_c	14.908294
_cell_angle_alpha	95.554706
_cell_angle_beta	90.175425
_cell_angle_gamma	89.303906
loop_
_atom_site_label
_atom_site_type_symbol
_atom_site_fract_x
_atom_site_fract_y
_atom_site_fract_z
Zn1	Zn	1.324068	-0.366418	-0.606394
Zn2	Zn	1.326217	-0.477476	-0.461735
Zn3	Zn	1.183166	-0.352931	-0.446699
Zn4	Zn	1.167292	-0.476642	-0.603344
O5	O	1.250186	-0.418367	-0.529543
O6	O	1.449832	-0.387143	-0.594773
O7	O	1.314783	-0.455660	-0.333644
O8	O	1.207601	-0.256469	-0.462866
O9	O	1.451410	-0.468737	-0.488494
O10	O	1.311121	-0.266377	-0.580193
O11	O	1.209684	-0.364157	-0.322597
O12	O	1.055581	-0.363349	-0.459909
O13	O	1.180546	-0.467315	-0.729845
O14	O	1.043919	-0.454238	-0.574996
O15	O	1.295729	-0.386334	-0.732086
O16	O	1.299391	-0.575617	-0.485537
O17	O	1.182630	-0.575004	-0.589576
C18	C	1.017215	-0.407240	-0.515491
C19	C	0.917546	-0.402498	-0.509501
C20	C	0.718165	-0.488363	-0.617939
C21	C	0.624517	-0.483909	-0.612314
C22	C	0.636602	-0.389135	-0.492633
C23	C	0.730249	-0.393588	-0.498258
C24	C	0.771027	-0.443204	-0.560911
C25	C	0.864677	-0.447661	-0.566531
C26	C	0.876759	-0.352883	-0.446855
C27	C	0.783112	-0.348430	-0.441231
C28	C	1.239544	-0.600788	-0.538878
C29	C	1.235072	-0.678833	-0.542907
C30	C	1.293804	-0.715799	-0.490682
C31	C	1.289603	-0.789132	-0.494477
C32	C	1.226665	-0.825497	-0.550492
C33	C	1.167930	-0.788526	-0.602723
C34	C	1.172136	-0.715195	-0.598932
C35	C	1.210926	-1.046894	-0.564648
C36	C	1.206722	-1.120230	-0.568433
C37	C	1.328397	-1.120831	-0.460188
C38	C	1.332593	-1.047498	-0.456398
C39	C	1.273862	-1.010534	-0.508632
C40	C	1.222367	-0.900454	-0.554370
C41	C	1.278164	-0.935578	-0.504759
C42	C	1.484066	-0.429537	-0.543651
C43	C	1.583732	-0.434298	-0.549663
C44	C	1.236127	-0.428236	-0.764575
C45	C	1.230136	-0.432442	-0.864732
C46	C	1.260892	-0.235235	-0.520193
C47	C	1.265454	-0.157196	-0.516208
C48	C	1.161726	-0.480524	-1.004733
C49	C	1.167353	-0.476577	-0.910627
C50	C	1.287296	-0.392249	-0.912950
C51	C	1.281669	-0.396195	-1.007056
C52	C	1.218882	-0.440335	-1.052944
C53	C	1.213260	-0.444285	-1.147052
C54	C	1.333198	-0.359954	-1.149373
C55	C	1.338825	-0.356007	-1.055267
C56	C	1.264244	-0.408487	-0.295426
C57	C	1.270420	-0.404092	-0.195270
H58	H	0.749897	-0.308032	-0.390222
H59	H	0.919811	-0.316113	-0.400417
H60	H	1.379741	-0.327230	-1.188637
H61	H	1.345051	-0.686195	-0.445065
H62	H	0.897876	-0.488062	-0.617545
Cl63	Cl	1.357287	-0.889861	-0.434346
H64	H	1.155480	-1.149837	-0.614063
H65	H	1.163102	-1.016803	-0.607178
Cl66	Cl	1.088812	-0.834243	-0.673148
H67	H	1.162139	-0.480228	-1.184413
H68	H	1.338408	-0.356309	-0.875571
Cl69	Cl	1.098301	-0.668724	-0.664592
H70	H	1.389942	-0.320068	-1.017892
Cl71	Cl	1.082804	-0.536018	-1.062425
Cl72	Cl	1.363444	-0.835600	-0.428823
H73	H	1.171121	-0.930071	-0.599976
H74	H	0.751367	-0.528766	-0.668949
H75	H	1.383843	-1.017891	-0.410787
H76	H	0.581479	-0.520680	-0.658753
Cl77	Cl	0.585322	-0.326755	-0.413889
Cl78	Cl	1.402231	-1.167305	-0.394533
Cl79	Cl	1.095493	-0.527100	-0.850021
