data_functionalizedCrystal
_audit_creation_method	'MofGen! by Chris Wilmer'
_symmetry_space_group_name_H-M	'P1'
_symmetry_Int_Tables_number	1
_symmetry_cell_setting	triclinic
loop_
_symmetry_equiv_pos_as_xyz
  x,y,z
_cell_length_a	16.992694
_cell_length_b	16.109301
_cell_length_c	15.455313
_cell_angle_alpha	87.337130
_cell_angle_beta	87.142206
_cell_angle_gamma	92.935148
loop_
_atom_site_label
_atom_site_type_symbol
_atom_site_fract_x
_atom_site_fract_y
_atom_site_fract_z
O1	O	1.043779	-0.172886	-0.072027
O2	O	1.543779	0.327114	0.427973
O3	O	0.815495	-0.170951	-0.072052
O4	O	1.315495	0.329049	0.427948
O5	O	0.935908	-0.051306	-0.072030
O6	O	1.435908	0.448694	0.427970
O7	O	0.923366	-0.292530	-0.072049
O8	O	1.423366	0.207470	0.427951
O9	O	0.929022	-0.058118	0.072231
O10	O	1.429022	0.441882	0.572231
O11	O	0.808610	-0.177762	0.072209
O12	O	1.308610	0.322238	0.572209
O13	O	1.036893	-0.179698	0.072234
O14	O	1.536893	0.320302	0.572234
Cu15	Cu	0.922123	-0.179352	0.085394
Cu16	Cu	1.422123	0.320648	0.585394
Cu17	Cu	0.930266	-0.171296	-0.085211
Cu18	Cu	1.430266	0.328704	0.414789
O19	O	0.916481	-0.299342	0.072212
O20	O	1.416481	0.200658	0.572212
C21	C	0.782841	-0.171868	0.000075
C22	C	1.282841	0.328132	0.500075
C23	C	0.695799	-0.164444	0.000066
C24	C	1.195799	0.335556	0.500066
N25	N	0.916401	-0.185018	0.205388
N26	N	1.416401	0.314982	0.705388
C27	C	0.931957	-0.023703	0.000101
C28	C	1.431957	0.476297	0.500101
C29	C	0.930434	0.068694	0.000102
C30	C	1.430434	0.568694	0.500102
C31	C	0.645540	-0.236070	0.000061
C32	C	1.145540	0.263930	0.500061
C33	C	0.563755	-0.229091	0.000073
C34	C	1.063755	0.270909	0.500073
C35	C	0.532230	-0.150485	0.000085
C36	C	1.032230	0.349515	0.500085
C37	C	0.582495	-0.078853	0.000092
C38	C	1.082495	0.421147	0.500092
C39	C	0.664278	-0.085834	0.000086
C40	C	1.164278	0.414166	0.500086
C41	C	0.288638	-0.121553	0.000110
C42	C	0.788638	0.378447	0.500110
C43	C	0.206849	-0.114578	0.000114
C44	C	0.706849	0.385422	0.500114
C45	C	0.188114	-0.264816	0.000097
C46	C	0.688114	0.235184	0.500097
C47	C	0.269900	-0.271789	0.000085
C48	C	0.769900	0.228211	0.500085
C49	C	0.320158	-0.200158	0.000097
C50	C	0.820158	0.299842	0.500097
N51	N	0.448632	-0.143348	0.000095
N52	N	0.948632	0.356652	0.500095
N53	N	0.403753	-0.207296	0.000093
N54	N	0.903753	0.292704	0.500093
C55	C	1.069548	-0.178780	0.000105
C56	C	1.569548	0.321220	0.500105
C57	C	1.156590	-0.186203	0.000109
C58	C	1.656590	0.313797	0.500109
C59	C	0.920432	-0.326945	0.000079
C60	C	1.420432	0.173055	0.500079
C61	C	0.921955	-0.419342	0.000073
C62	C	1.421955	0.080658	0.500073
C63	C	0.998343	0.286435	0.000096
C64	C	1.498343	0.786435	0.500096
C65	C	0.996906	0.373251	0.000089
C66	C	1.496906	0.873251	0.500089
C67	C	0.854040	0.362911	0.000076
C68	C	1.354040	0.862911	0.500076
C69	C	0.855478	0.276096	0.000077
C70	C	1.355478	0.776096	0.500077
C71	C	0.927632	0.237860	0.000092
C72	C	1.427632	0.737860	0.500092
C73	C	0.924757	0.411492	0.000083
C74	C	1.424757	0.911492	0.500083
C75	C	0.923198	0.505622	0.000075
C76	C	1.423198	1.005622	0.500075
C77	C	0.929191	0.143724	0.000098
C78	C	1.429191	0.643724	0.500098
N79	N	0.935994	-0.165624	-0.205206
N80	N	1.435994	0.334376	0.294794
C81	C	0.967574	-0.134210	0.250792
C82	C	1.467574	0.365790	0.750792
C83	C	0.963254	-0.138503	0.341599
C84	C	1.463254	0.361497	0.841599
C85	C	0.907764	-0.193608	0.387001
C86	C	1.407764	0.306392	0.887001
C87	C	0.856586	-0.244419	0.341591
C88	C	1.356586	0.255581	0.841591
C89	C	0.860902	-0.240121	0.250785
C90	C	1.360902	0.259879	0.750785
C91	C	0.889132	-0.212137	0.658579
C92	C	1.389132	0.287863	1.158579
C93	C	0.884821	-0.216432	0.749391
C94	C	1.384821	0.283568	1.249391
C95	C	0.991489	-0.110515	0.749392
C96	C	1.491489	0.389485	1.249392
C97	C	0.995804	-0.106226	0.658585
C98	C	1.495804	0.393774	1.158585
C99	C	0.944622	-0.157033	0.613183
C100	C	1.444622	0.342967	1.113183
N101	N	0.903349	-0.198000	0.479820
N102	N	1.403349	0.302000	0.979820
N103	N	0.949034	-0.152637	0.520365
N104	N	1.449034	0.347363	1.020365
H105	H	0.671201	-0.300080	0.000051
H106	H	1.171201	0.199920	0.500051
N107	N	0.172835	-0.029796	0.000129
N108	N	0.672835	0.470204	0.500129
H109	H	0.193707	0.004363	-0.053342
H110	H	0.693707	0.504363	0.446658
H111	H	0.188617	-0.000766	0.053648
H112	H	0.688617	0.499234	0.553648
H113	H	1.040988	-0.061354	0.621621
H114	H	1.540988	0.438646	1.121621
H115	H	1.033157	-0.069149	0.786367
H116	H	1.533157	0.430851	1.286367
N117	N	1.027411	-0.074765	0.201816
N118	N	1.527411	0.425235	0.701816
H119	H	1.063910	-0.107073	0.164125
H120	H	1.563910	0.392927	0.664125
H121	H	1.059117	-0.043235	0.244409
H122	H	1.559117	0.456765	0.744409
H123	H	1.054487	0.412797	0.000090
H124	H	1.554487	0.912797	0.500090
N125	N	0.824976	-0.275879	0.798363
N126	N	1.324976	0.224121	1.298363
H127	H	0.793208	-0.307415	0.755823
H128	H	1.293208	0.192585	1.255823
H129	H	0.788535	-0.243513	0.836058
H130	H	1.288535	0.256487	1.336058
N131	N	0.805705	-0.294916	0.201810
N132	N	1.305705	0.205084	0.701810
H133	H	0.769897	-0.330478	0.244349
H134	H	1.269897	0.169522	0.744349
H135	H	0.837498	-0.331901	0.164119
H136	H	1.337498	0.168099	0.664119
N137	N	0.776218	0.404147	0.000070
N138	N	1.276218	0.904147	0.500070
H139	H	0.774986	0.442459	-0.053406
H140	H	1.274986	0.942459	0.446594
H141	H	0.769932	0.437366	0.053584
H142	H	1.269932	0.937366	0.553584
H143	H	1.004923	-0.097130	0.378566
H144	H	1.504923	0.402870	0.878566
H145	H	0.847459	-0.253507	0.621620
H146	H	1.347459	0.246493	1.121620
H147	H	0.797893	0.236545	0.000071
H148	H	1.297893	0.736545	0.500071
N149	N	0.796733	-0.303848	0.390562
N150	N	1.296733	0.196152	0.890562
H151	H	0.824893	-0.344453	0.428224
H152	H	1.324893	0.155547	0.928224
H153	H	0.764983	-0.335324	0.347966
H154	H	1.264983	0.164676	0.847966
H155	H	0.147186	-0.323133	0.000088
H156	H	0.647186	0.176867	0.500088
H157	H	1.057095	0.255306	0.000106
H158	H	1.557095	0.755306	0.500106
H159	H	0.522837	-0.287416	0.000068
H160	H	1.022837	0.212584	0.500068
H161	H	0.556820	-0.014851	0.000114
H162	H	1.056820	0.485149	0.500114
N163	N	0.303889	-0.356577	0.000063
N164	N	0.803889	0.143423	0.500063
H165	H	0.283016	-0.390734	0.053536
H166	H	0.783016	0.109266	0.553536
H167	H	0.363322	-0.350068	0.000021
H168	H	0.863322	0.149932	0.500021
N169	N	0.342838	-0.044298	0.000129
N170	N	0.842838	0.455702	0.500129
H171	H	0.310455	0.006556	0.000136
H172	H	0.810455	0.506556	0.500136
H173	H	0.379729	-0.041389	-0.053349
H174	H	0.879729	0.458611	0.446651
N175	N	0.718490	-0.008582	0.000098
N176	N	1.218490	0.491418	0.500098
H177	H	0.686110	0.042275	0.000105
H178	H	1.186110	0.542275	0.500105
H179	H	0.755378	-0.005676	-0.053381
H180	H	1.255378	0.494324	0.446619
