data_functionalizedCrystal
_audit_creation_method	'MofGen! by Chris Wilmer'
_symmetry_space_group_name_H-M	'P1'
_symmetry_Int_Tables_number	1
_symmetry_cell_setting	triclinic
loop_
_symmetry_equiv_pos_as_xyz
  x,y,z
_cell_length_a	19.121063
_cell_length_b	19.121274
_cell_length_c	13.032268
_cell_angle_alpha	80.115375
_cell_angle_beta	99.247498
_cell_angle_gamma	90.075254
loop_
_atom_site_label
_atom_site_type_symbol
_atom_site_fract_x
_atom_site_fract_y
_atom_site_fract_z
Zn1	Zn	-0.369692	-1.010918	-0.550121
Zn2	Zn	0.130308	-0.510918	-0.050121
Zn3	Zn	-0.473170	-1.020828	-0.381306
Zn4	Zn	0.026830	-0.520828	0.118694
Zn5	Zn	-0.350901	-0.908743	-0.380690
Zn6	Zn	0.149099	-0.408743	0.119310
Zn7	Zn	-0.483109	-0.887317	-0.565095
Zn8	Zn	0.016891	-0.387317	-0.065095
O9	O	-0.419218	-0.956951	-0.469303
O10	O	0.080782	-0.456951	0.030697
O11	O	-0.387124	-1.110868	-0.521719
O12	O	0.112876	-0.610868	-0.021719
O13	O	-0.444928	-1.019074	-0.233401
O14	O	0.055072	-0.519074	0.266599
O15	O	-0.254758	-0.927116	-0.396641
O16	O	0.245242	-0.427116	0.103359
O17	O	-0.463149	-1.118149	-0.397691
O18	O	0.036851	-0.618149	0.102309
O19	O	-0.268564	-1.002184	-0.521121
O20	O	0.231436	-0.502184	-0.021121
O21	O	-0.355097	-0.936725	-0.232948
O22	O	0.144903	-0.436725	0.267052
O23	O	-0.364734	-0.807265	-0.411161
O24	O	0.135266	-0.307265	0.088839
O25	O	-0.480088	-0.890599	-0.710932
O26	O	0.019912	-0.390599	-0.210932
O27	O	-0.461867	-0.791524	-0.546642
O28	O	0.038133	-0.291524	-0.046642
O29	O	-0.396761	-0.981408	-0.699931
O30	O	0.103239	-0.481408	-0.199931
O31	O	-0.573124	-0.998297	-0.412210
O32	O	-0.073124	-0.498297	0.087790
O33	O	-0.580426	-0.900208	-0.547239
O34	O	-0.080426	-0.400208	-0.047239
C35	C	-0.412340	-0.773819	-0.480460
C36	C	0.087660	-0.273819	0.019540
C37	C	-0.409417	-0.695472	-0.485259
C38	C	0.090583	-0.195472	0.014741
C39	C	-0.447544	-0.662464	-0.422834
C40	C	0.052456	-0.162464	0.077166
C41	C	-0.444799	-0.588847	-0.427357
C42	C	0.055201	-0.088847	0.072643
C43	C	-0.403922	-0.548239	-0.494301
C44	C	0.096078	-0.048239	0.005699
C45	C	-0.365793	-0.581251	-0.556733
C46	C	0.134207	-0.081251	-0.056733
C47	C	-0.368543	-0.654867	-0.552215
C48	C	0.131457	-0.154867	-0.052215
C49	C	-0.393646	-0.325778	-0.511184
C50	C	0.106354	0.174222	-0.011184
C51	C	-0.390897	-0.252158	-0.515696
C52	C	0.109103	0.247842	-0.015696
C53	C	-0.469904	-0.259758	-0.386320
C54	C	0.030096	0.240242	0.113680
C55	C	-0.472647	-0.333375	-0.381803
C56	C	0.027353	0.166625	0.118197
C57	C	-0.434522	-0.366380	-0.444240
C58	C	0.065478	0.133620	0.055760
C59	C	-0.401113	-0.472991	-0.498923
C60	C	0.098887	0.027009	0.001077
C61	C	-0.437335	-0.441627	-0.439622
C62	C	0.062665	0.058373	0.060378
C63	C	-0.602353	-0.948020	-0.481438
C64	C	-0.102353	-0.448020	0.018562
C65	C	-0.680704	-0.944260	-0.486661
C66	C	-0.180704	-0.444260	0.013339
C67	C	-0.713694	-0.993594	-0.418866
C68	C	-0.213694	-0.493594	0.081134
C69	C	-0.787314	-0.990062	-0.423784
C70	C	-0.287314	-0.490062	0.076216
C71	C	-0.827942	-0.937192	-0.496493
C72	C	-0.327942	-0.437192	0.003507
C73	C	-0.794947	-0.887856	-0.564295
C74	C	-0.294947	-0.387856	-0.064295
C75	C	-0.721329	-0.891392	-0.559381
C76	C	-0.221329	-0.391392	-0.059381
C77	C	-1.050413	-0.923962	-0.514848
C78	C	-0.550413	-0.423962	-0.014848
C79	C	-1.124036	-0.920429	-0.519755
C80	C	-0.624036	-0.420429	-0.019755
C81	C	-1.116398	-1.022637	-0.379245
C82	C	-0.616398	-0.522637	0.120755
C83	C	-1.042779	-1.026165	-0.374334
C84	C	-0.542779	-0.526165	0.125666
C85	C	-1.009790	-0.976831	-0.442139
C86	C	-0.509790	-0.476831	0.057861
C87	C	-0.903194	-0.933579	-0.501519
C88	C	-0.403194	-0.433579	-0.001519
C89	C	-0.934541	-0.980448	-0.437117
C90	C	-0.434541	-0.480448	0.062883
C91	C	-0.235371	-0.965935	-0.457142
C92	C	0.264629	-0.465935	0.042858
C93	C	-0.157026	-0.969763	-0.451960
C94	C	0.342974	-0.469763	0.048040
C95	C	-0.441629	-0.932508	-0.744832
C96	C	0.058371	-0.432508	-0.244832
C97	C	-0.451179	-0.922091	-0.862247
C98	C	0.048821	-0.422091	-0.362247
C99	C	-0.426113	-0.140800	-0.458088
C100	C	0.073887	0.359200	0.041912
C101	C	-0.429025	-0.219150	-0.453270
C102	C	0.070975	0.280850	0.046730
C103	C	-0.414208	-0.962378	-0.909150
C104	C	0.085792	-0.462378	-0.409150
C105	C	-0.424078	-0.951613	-1.030504
C106	C	0.075922	-0.451613	-0.530504
C107	C	-0.396845	-0.981343	-0.194840
C108	C	0.103155	-0.481343	0.305160
C109	C	-0.387102	-0.991905	-0.077404
C110	C	0.112898	-0.491905	0.422596
H111	H	-0.337495	-0.681740	-0.603047
H112	H	0.162505	-0.181740	-0.103047
N113	N	-0.481418	-0.485426	-0.367418
N114	N	0.018582	0.014574	0.132582
H115	H	-0.463772	-0.479833	-0.292026
H116	H	0.036228	0.020167	0.207974
H117	H	-0.532633	-0.468703	-0.387904
H118	H	-0.032633	0.031297	0.112096
H119	H	-0.680619	-1.036644	-0.359655
H120	H	-0.180619	-0.536644	0.140345
N121	N	-0.362606	-1.018628	-0.843346
N122	N	0.137394	-0.518628	-0.343346
H123	H	-0.339290	-1.044035	-0.891320
H124	H	0.160710	-0.544035	-0.391320
H125	H	-0.325212	-0.995563	-0.797161
H126	H	0.174788	-0.495563	-0.297161
N127	N	-0.357020	-0.429188	-0.571115
N128	N	0.142980	0.070812	-0.071115
H129	H	-0.305794	-0.445891	-0.550706
H130	H	0.194206	0.054109	-0.050706
H131	H	-0.374716	-0.434796	-0.646484
H132	H	0.125284	0.065204	-0.146484
N133	N	-0.502776	-0.865841	-0.928059
N134	N	-0.002776	-0.365841	-0.428059
H135	H	-0.540212	-0.888854	-0.974255
H136	H	-0.040212	-0.388854	-0.474255
H137	H	-0.526042	-0.840447	-0.880023
H138	H	-0.026042	-0.340447	-0.380023
H139	H	-0.357604	-0.219097	-0.570206
H140	H	0.142396	0.280903	-0.070206
N141	N	-0.321699	-0.537455	-0.628929
N142	N	0.178301	-0.037455	-0.128929
H143	H	-0.297963	-0.569538	-0.667791
H144	H	0.202037	-0.069538	-0.167791
H145	H	-0.353269	-0.501189	-0.681523
H146	H	0.146731	-0.001189	-0.181523
N147	N	-0.822898	-1.043272	-0.350663
N148	N	-0.322898	-0.543272	0.149337
H149	H	-0.785989	-1.077298	-0.303853
H150	H	-0.285989	-0.577298	0.196147
H151	H	-0.848428	-1.017475	-0.305535
H152	H	-0.348428	-0.517475	0.194465
N153	N	-0.485915	-0.553245	-0.360019
N154	N	0.014085	-0.053245	0.139981
H155	H	-0.520974	-0.517319	-0.406905
H156	H	-0.020974	-0.017319	0.093095
H157	H	-0.512179	-0.590187	-0.316929
H158	H	-0.012179	-0.090187	0.183071
H159	H	-0.936281	-0.890531	-0.560717
H160	H	-0.436281	-0.390531	-0.060717
H161	H	-0.348136	-1.034365	-1.027724
H162	H	0.151864	-0.534365	-0.527724
N163	N	-0.475692	-0.895369	-1.096305
N164	N	0.024308	-0.395369	-0.596305
H165	H	-0.499009	-0.869963	-1.048331
H166	H	0.000991	-0.369963	-0.548331
H167	H	-0.449472	-0.860119	-1.142169
H168	H	0.050528	-0.360119	-0.642169
H169	H	-0.828033	-0.844811	-0.623500
H170	H	-0.328033	-0.344811	-0.123500
N171	N	-0.998964	-1.083199	-0.295926
N172	N	-0.498964	-0.583199	0.204074
H173	H	-1.005256	-1.078382	-0.221954
H174	H	-0.505256	-0.578382	0.278046
H175	H	-1.014986	-1.131445	-0.310285
H176	H	-0.514986	-0.631445	0.189715
N177	N	-0.491628	-0.706261	-0.350622
N178	N	0.008372	-0.206261	0.149378
H179	H	-0.515365	-0.674176	-0.311764
H180	H	-0.015365	-0.174176	0.188236
H181	H	-0.528924	-0.731415	-0.393828
H182	H	-0.028924	-0.231415	0.106172
N183	N	-1.151985	-1.075840	-0.306120
N184	N	-0.651985	-0.575840	0.193880
H185	H	-1.187209	-1.103204	-0.349134
H186	H	-0.687209	-0.603204	0.150866
H187	H	-1.115035	-1.109824	-0.259325
H188	H	-0.615035	-0.609824	0.240675
N189	N	-0.516730	-0.377173	-0.309592
N190	N	-0.016730	0.122827	0.190408
H191	H	-0.540467	-0.345091	-0.270729
H192	H	-0.040467	0.154909	0.229271
H193	H	-0.554027	-0.402330	-0.352794
H194	H	-0.054027	0.097670	0.147206
N195	N	-0.352526	-0.361371	-0.578522
N196	N	0.147474	0.138629	-0.078522
H197	H	-0.326213	-0.324475	-0.621611
H198	H	0.173787	0.175525	-0.121611
H199	H	-0.317512	-0.397306	-0.531568
H200	H	0.182488	0.102694	-0.031568
N201	N	-1.167859	-0.863402	-0.598179
N202	N	-0.667859	-0.363402	-0.098179
H203	H	-1.135791	-0.832686	-0.640390
H204	H	-0.635791	-0.332686	-0.140390
H205	H	-1.203422	-0.886266	-0.647381
H206	H	-0.703422	-0.386266	-0.147381
N207	N	-1.014837	-0.870750	-0.587969
N208	N	-0.514837	-0.370750	-0.087969
H209	H	-1.051747	-0.836719	-0.634767
H210	H	-0.551747	-0.336719	-0.134767
H211	H	-0.979610	-0.843439	-0.544875
H212	H	-0.479610	-0.343439	-0.044875
H213	H	-0.694470	-0.851220	-0.614588
H214	H	-0.194470	-0.351220	-0.114588
H215	H	-0.500945	-0.232876	-0.335490
H216	H	-0.000945	0.267124	0.164510
H217	H	-0.901460	-1.023497	-0.377921
H218	H	-0.401460	-0.523497	0.122079
