data_functionalizedCrystal
_audit_creation_method	'MofGen! by Chris Wilmer'
_symmetry_space_group_name_H-M	'P1'
_symmetry_Int_Tables_number	1
_symmetry_cell_setting	triclinic
loop_
_symmetry_equiv_pos_as_xyz
  x,y,z
_cell_length_a	19.077399
_cell_length_b	14.908178
_cell_length_c	19.076919
_cell_angle_alpha	91.159747
_cell_angle_beta	85.520477
_cell_angle_gamma	95.739509
loop_
_atom_site_label
_atom_site_type_symbol
_atom_site_fract_x
_atom_site_fract_y
_atom_site_fract_z
Zn1	Zn	1.047734	-0.322837	0.341411
Zn2	Zn	1.046146	-0.467402	0.217269
Zn3	Zn	0.934588	-0.322861	0.228264
Zn4	Zn	0.923031	-0.479978	0.339293
O5	O	0.987875	-0.398270	0.281559
O6	O	1.146400	-0.336741	0.321228
O7	O	1.035519	-0.442976	0.120308
O8	O	0.955098	-0.196603	0.248761
O9	O	1.145233	-0.442952	0.230021
O10	O	1.038226	-0.196585	0.331889
O11	O	0.953558	-0.336782	0.128386
O12	O	0.834179	-0.348976	0.246707
O13	O	0.935402	-0.464386	0.437993
O14	O	0.825688	-0.464409	0.328280
O15	O	1.027020	-0.348935	0.439549
O16	O	1.024313	-0.595326	0.227968
O17	O	0.933862	-0.604565	0.317618
C18	C	0.804296	-0.408061	0.288457
C19	C	0.725759	-0.412272	0.291424
C20	C	0.693262	-0.354068	0.250425
C21	C	0.619468	-0.358033	0.253212
C22	C	0.578171	-0.420198	0.297002
C23	C	0.610672	-0.478408	0.338003
C24	C	0.684466	-0.474447	0.335211
C25	C	0.357001	-0.438502	0.309893
C26	C	0.283203	-0.442457	0.312682
C27	C	0.292003	-0.322082	0.227891
C28	C	0.365797	-0.318123	0.225106
C29	C	0.398292	-0.376336	0.266104
N30	N	0.502741	-0.424250	0.299854
N31	N	0.473721	-0.372288	0.263248
C32	C	0.977679	-0.632682	0.271385
C33	C	0.973381	-0.732962	0.267053
C34	C	1.051794	-0.921239	0.345574
C35	C	1.047758	-1.015461	0.341506
C36	C	0.961270	-1.015630	0.254854
C37	C	0.965306	-0.921408	0.258922
C38	C	1.010570	-0.874216	0.304282
C39	C	1.014610	-0.779991	0.308346
C40	C	0.928119	-0.780163	0.221698
C41	C	0.924083	-0.874385	0.217630
C42	C	1.172170	-0.388441	0.274634
C43	C	1.250706	-0.384253	0.271684
C44	C	0.980099	-0.408060	0.465004
C45	C	0.976785	-0.412232	0.543177
C46	C	0.998129	-0.162942	0.291788
C47	C	1.002498	-0.062660	0.296147
C48	C	0.995664	-0.388450	0.098829
C49	C	0.999125	-0.384017	0.020662
C50	C	1.022927	-0.354086	0.580715
C51	C	1.019805	-0.358003	0.654167
C52	C	0.970544	-0.420072	0.690081
C53	C	0.924398	-0.478220	0.652538
C54	C	0.927517	-0.474298	0.579088
C55	C	0.956098	-0.438243	0.909669
C56	C	0.952984	-0.442163	0.983125
C57	C	1.048391	-0.321944	0.984749
C58	C	1.051508	-0.318031	0.911296
C59	C	1.005359	-0.376176	0.873760
N60	N	0.967354	-0.424079	0.765161
N61	N	1.008547	-0.372164	0.798682
H62	H	1.051468	-0.741568	0.345279
H63	H	0.593013	-0.310641	0.219822
H64	H	0.884286	-0.528755	0.681785
O65	O	1.095773	-0.875533	0.389694
C66	C	1.131310	-0.937241	0.425253
H67	H	1.099389	-1.006114	0.425849
H68	H	1.185659	-0.942970	0.397097
C69	C	1.179036	-0.819281	0.500593
C70	C	1.139828	-0.903870	0.501330
H71	H	1.184294	-0.798695	0.547521
H72	H	1.155097	-0.777705	0.476635
H73	H	1.224323	-0.824066	0.477126
H74	H	1.094539	-0.899081	0.524789
H75	H	1.163759	-0.945444	0.525294
O76	O	1.087838	-1.061230	0.381513
C77	C	1.132887	-1.111109	0.337446
H78	H	1.109669	-1.123768	0.284447
H79	H	1.187139	-1.071531	0.329367
C80	C	1.168692	-1.186409	0.436910
C81	C	1.140172	-1.201963	0.371817
H82	H	1.173189	-1.242450	0.458112
H83	H	1.138344	-1.152802	0.466599
H84	H	1.213899	-1.153425	0.430168
H85	H	1.094963	-1.234936	0.378560
H86	H	1.170513	-1.235578	0.342130
H87	H	0.924415	-1.054071	0.217927
O88	O	0.911208	-0.494595	0.873183
C89	C	0.869629	-0.443385	0.834630
H90	H	0.867422	-0.373744	0.860025
H91	H	0.893977	-0.436132	0.778280
C92	C	0.797014	-0.576850	0.803144
C93	C	0.794298	-0.491318	0.834337
H94	H	0.750547	-0.606418	0.802960
H95	H	0.825028	-0.611352	0.829115
H96	H	0.817307	-0.570794	0.756188
H97	H	0.774014	-0.497375	0.881294
H98	H	0.766279	-0.456818	0.808374
O99	O	0.882772	-0.530915	0.542640
C100	C	0.893528	-0.620970	0.556112
H101	H	0.948916	-0.623586	0.573996
H102	H	0.852805	-0.648858	0.599137
C103	C	0.817437	-0.674922	0.466585
C104	C	0.885469	-0.678136	0.488545
H105	H	0.812463	-0.710187	0.424908
H106	H	0.810188	-0.614251	0.457510
H107	H	0.783509	-0.698160	0.502445
H108	H	0.919395	-0.654887	0.452689
H109	H	0.892723	-0.738805	0.497612
H110	H	0.887228	-0.912822	0.180701
O111	O	0.888096	-0.734347	0.181656
C112	C	0.901377	-0.641062	0.194956
H113	H	0.922722	-0.629799	0.248943
H114	H	0.941956	-0.610070	0.153011
C115	C	0.806021	-0.610073	0.126908
C116	C	0.832232	-0.596240	0.193219
H117	H	0.763370	-0.582423	0.125833
H118	H	0.797074	-0.672921	0.117945
H119	H	0.839843	-0.584247	0.091961
H120	H	0.798414	-0.622077	0.228163
H121	H	0.841171	-0.533396	0.202187
O122	O	0.242981	-0.502771	0.355205
C123	C	0.170881	-0.493793	0.348864
H124	H	0.164797	-0.423433	0.329329
H125	H	0.149201	-0.546349	0.309811
C126	C	0.137104	-0.594454	0.445073
C127	C	0.129630	-0.508033	0.421086
H128	H	0.111657	-0.603242	0.489622
H129	H	0.185679	-0.600506	0.449344
H130	H	0.119037	-0.638241	0.412523
H131	H	0.147705	-0.464249	0.453632
H132	H	0.081058	-0.501975	0.416822
O133	O	0.388447	-0.495083	0.349789
C134	C	0.336171	-0.550811	0.389024
H135	H	0.285069	-0.516811	0.395100
H136	H	0.326437	-0.618323	0.360506
C137	C	0.424009	-0.608174	0.454739
C138	C	0.361247	-0.566412	0.462206
H139	H	0.439477	-0.617802	0.499880
H140	H	0.459229	-0.570632	0.428304
H141	H	0.415889	-0.664430	0.430971
H142	H	0.369369	-0.510153	0.485965
H143	H	0.326028	-0.603945	0.488647
O144	O	1.099252	-0.257660	0.876356
C145	C	1.063343	-0.199254	0.837946
H146	H	1.008890	-0.233371	0.827552
H147	H	1.057261	-0.134343	0.869475
C148	C	1.172771	-0.135151	0.780202
C149	C	1.105893	-0.177056	0.767432
H150	H	1.199018	-0.121454	0.736707
H151	H	1.196964	-0.174497	0.806082
H152	H	1.167693	-0.081063	0.806479
H153	H	1.110972	-0.231148	0.741164
H154	H	1.081701	-0.137719	0.741546
H155	H	0.912867	-0.492709	1.012364
H156	H	0.399417	-0.267507	0.189443
H157	H	0.710923	-0.521844	0.368597
O158	O	1.093140	-0.265498	1.021321
C159	C	1.079839	-0.282280	1.093851
H160	H	1.023598	-0.315275	1.104645
H161	H	1.118773	-0.329200	1.111035
C162	C	1.157763	-0.152133	1.122029
C163	C	1.088685	-0.192652	1.135286
H164	H	1.163223	-0.096848	1.147589
H165	H	1.166727	-0.140828	1.073164
H166	H	1.190201	-0.191243	1.136349
H167	H	1.056250	-0.153547	1.120958
H168	H	1.079716	-0.203948	1.184150
H169	H	1.063043	-0.303546	0.551479
H170	H	1.057380	-0.310656	0.684727
O171	O	0.570663	-0.538870	0.380561
C172	C	0.615173	-0.589374	0.416166
H173	H	0.668852	-0.588092	0.385227
H174	H	0.622206	-0.558861	0.470751
C175	C	0.515849	-0.689068	0.461115
C176	C	0.581778	-0.687500	0.423113
H177	H	0.495249	-0.749596	0.465404
H178	H	0.485862	-0.655041	0.437131
H179	H	0.521719	-0.663636	0.506599
H180	H	0.575906	-0.712921	0.377628
H181	H	0.611764	-0.721534	0.447090
H182	H	0.726881	-0.303439	0.214772
H183	H	0.265538	-0.274688	0.194512
