data_functionalizedCrystal
_audit_creation_method	'MofGen! by Chris Wilmer'
_symmetry_space_group_name_H-M	'P1'
_symmetry_Int_Tables_number	1
_symmetry_cell_setting	triclinic
loop_
_symmetry_equiv_pos_as_xyz
  x,y,z
_cell_length_a	18.215407
_cell_length_b	12.594516
_cell_length_c	18.215399
_cell_angle_alpha	90.023782
_cell_angle_beta	90.019833
_cell_angle_gamma	90.012264
loop_
_atom_site_label
_atom_site_type_symbol
_atom_site_fract_x
_atom_site_fract_y
_atom_site_fract_z
Zn1	Zn	1.125139	-0.423740	0.416137
Zn2	Zn	1.458472	-0.090407	0.749471
Zn3	Zn	1.791805	0.242926	1.082804
Zn4	Zn	1.125075	-0.601738	0.293080
Zn5	Zn	1.458409	-0.268404	0.626413
Zn6	Zn	1.791742	0.064929	0.959747
Zn7	Zn	1.002071	-0.423775	0.293085
Zn8	Zn	1.335405	-0.090442	0.626418
Zn9	Zn	1.668738	0.242892	0.959751
Zn10	Zn	1.002065	-0.601679	0.416105
Zn11	Zn	1.335399	-0.268345	0.749438
Zn12	Zn	1.668732	0.064988	1.082771
O13	O	1.063588	-0.512733	0.354602
O14	O	1.396921	-0.179400	0.687935
O15	O	1.730254	0.153934	1.021268
O16	O	1.228115	-0.447362	0.399825
O17	O	1.561448	-0.114029	0.733158
O18	O	1.894781	0.219304	1.066492
O19	O	1.108734	-0.578170	0.190096
O20	O	1.442068	-0.244837	0.523430
O21	O	1.775401	0.088497	0.856763
O22	O	1.018426	-0.274825	0.309423
O23	O	1.351759	0.058509	0.642757
O24	O	1.685092	0.391842	0.976090
O25	O	1.228068	-0.578136	0.309415
O26	O	1.561401	-0.244803	0.642749
O27	O	1.894735	0.088530	0.976082
O28	O	1.108843	-0.274799	0.399830
O29	O	1.442176	0.058534	0.733163
O30	O	1.775509	0.391868	1.066496
O31	O	1.018364	-0.447422	0.190100
O32	O	1.351697	-0.114088	0.523433
O33	O	1.685031	0.219245	0.856766
O34	O	0.899086	-0.447364	0.309392
O35	O	1.232420	-0.114031	0.642725
O36	O	1.565753	0.219303	0.976059
O37	O	1.018415	-0.578035	0.519093
O38	O	1.351749	-0.244702	0.852427
O39	O	1.685082	0.088631	1.185760
O40	O	0.899082	-0.578069	0.399774
O41	O	1.232415	-0.244736	0.733108
O42	O	1.565749	0.088598	1.066441
O43	O	1.108837	-0.447305	0.519117
O44	O	1.442170	-0.113971	0.852451
O45	O	1.775504	0.219362	1.185784
O46	O	1.108729	-0.750676	0.309384
O47	O	1.442062	-0.417342	0.642717
O48	O	1.775395	-0.084009	0.976051
O49	O	1.018354	-0.750632	0.399770
O50	O	1.351687	-0.417299	0.733103
O51	O	1.685020	-0.083966	1.066436
C52	C	0.872381	-0.512715	0.354580
C53	C	1.205715	-0.179381	0.687914
C54	C	1.539048	0.153952	1.021247
C55	C	0.790583	-0.512733	0.354589
C56	C	1.123916	-0.179399	0.687922
C57	C	1.457249	0.153934	1.021256
C58	C	0.602406	-0.580898	0.401592
C59	C	0.935739	-0.247564	0.734925
C60	C	1.269072	0.085769	1.068259
C61	C	0.525547	-0.580901	0.401601
C62	C	0.858880	-0.247568	0.734935
C63	C	1.192213	0.085766	1.068268
C64	C	0.525522	-0.444588	0.307627
C65	C	0.858855	-0.111254	0.640961
C66	C	1.192188	0.222079	0.974294
C67	C	0.602379	-0.444580	0.307622
C68	C	0.935712	-0.111246	0.640956
C69	C	1.269046	0.222087	0.974289
C70	C	0.640819	-0.512741	0.354604
C71	C	0.974152	-0.179407	0.687937
C72	C	1.307486	0.153926	1.021270
C73	C	0.487103	-0.512752	0.354618
C74	C	0.820436	-0.179419	0.687951
C75	C	1.153770	0.153915	1.021284
C76	C	0.403769	-0.512755	0.354627
C77	C	0.737103	-0.179422	0.687961
C78	C	1.070436	0.153912	1.021294
C79	C	0.724158	-0.512736	0.354595
C80	C	1.057491	-0.179403	0.687929
C81	C	1.390825	0.153930	1.021262
C82	C	1.063554	-0.789274	0.354589
C83	C	1.396887	-0.455941	0.687922
C84	C	1.730220	-0.122607	1.021255
C85	C	1.063606	-0.907579	0.354608
C86	C	1.396940	-0.574246	0.687941
C87	C	1.730273	-0.240913	1.021275
C88	C	1.112818	-0.976817	0.305499
C89	C	1.446152	-0.643484	0.638833
C90	C	1.779485	-0.310151	0.972166
C91	C	1.130801	-1.047521	0.372671
C92	C	1.464134	-0.714187	0.706004
C93	C	1.797468	-0.380854	1.039337
C94	C	1.045716	-1.047675	0.287480
C95	C	1.379049	-0.714342	0.620813
C96	C	1.712382	-0.381008	0.954146
C97	C	1.081623	-0.976724	0.421814
C98	C	1.414957	-0.643391	0.755148
C99	C	1.748290	-0.310058	1.088481
C100	C	0.996507	-0.976872	0.336578
C101	C	1.329840	-0.643539	0.669911
C102	C	1.663173	-0.310206	1.003245
C103	C	1.014464	-1.047544	0.403795
C104	C	1.347797	-0.714210	0.737129
C105	C	1.681131	-0.380877	1.070462
C106	C	1.255541	-0.512752	0.354623
C107	C	1.588874	-0.179419	0.687957
C108	C	1.922207	0.153915	1.021290
C109	C	1.337339	-0.512760	0.354632
C110	C	1.670673	-0.179427	0.687966
C111	C	2.004006	0.153907	1.021299
C112	C	1.063633	-0.512660	0.546555
C113	C	1.396966	-0.179326	0.879888
C114	C	1.730299	0.154007	1.213221
C115	C	1.063652	-0.512628	0.628354
C116	C	1.396985	-0.179295	0.961687
C117	C	1.730318	0.154038	1.295020
C118	C	1.063642	-0.235112	0.354631
C119	C	1.396975	0.098221	0.687964
C120	C	1.730309	0.431555	1.021297
C121	C	1.063665	-0.116807	0.354643
C122	C	1.396998	0.216527	0.687976
C123	C	1.730332	0.549860	1.021310
C124	C	1.063585	-0.512729	0.163395
C125	C	1.396919	-0.179396	0.496729
C126	C	1.730252	0.153937	0.830062
C127	C	1.063709	-0.512461	0.081597
C128	C	1.397042	-0.179127	0.414930
C129	C	1.730375	0.154206	0.748264
C130	C	1.110751	-0.444493	0.816561
C131	C	1.444084	-0.111160	1.149894
C132	C	1.777418	0.222173	1.483228
C133	C	1.110760	-0.444462	0.893420
C134	C	1.444093	-0.111129	1.226753
C135	C	1.777426	0.222204	1.560087
C136	C	1.016604	-0.580599	0.893384
C137	C	1.349938	-0.247265	1.226717
C138	C	1.683271	0.086068	1.560051
C139	C	1.016592	-0.580624	0.816526
C140	C	1.349926	-0.247290	1.149860
C141	C	1.683259	0.086043	1.483193
C142	C	1.063670	-0.512572	0.778117
C143	C	1.397003	-0.179239	1.111450
C144	C	1.730337	0.154094	1.444784
C145	C	1.063691	-0.512517	0.931833
C146	C	1.397024	-0.179183	1.265167
C147	C	1.730357	0.154150	1.598500
C148	C	1.063700	-0.512483	1.015167
C149	C	1.397033	-0.179150	1.348500
C150	C	1.730366	0.154183	1.681834
C151	C	1.063660	-0.512604	0.694778
C152	C	1.396993	-0.179270	1.028111
C153	C	1.730327	0.154063	1.361445
H154	H	0.494274	-0.636400	0.439865
H155	H	0.827607	-0.303066	0.773198
H156	H	1.160941	0.030267	1.106532
H157	H	0.633656	-0.389071	0.269359
H158	H	0.966990	-0.055738	0.602692
H159	H	1.300323	0.277595	0.936025
F160	F	0.922323	-0.936281	0.316596
F161	F	1.255656	-0.602948	0.649929
F162	F	1.588989	-0.269614	0.983263
F163	F	1.160875	-0.372010	0.934332
F164	F	1.494208	-0.038677	1.267665
F165	F	1.827542	0.294657	1.600998
H166	H	0.494215	-0.389095	0.269376
H167	H	0.827548	-0.055762	0.602709
H168	H	1.160881	0.277572	0.936042
F169	F	1.167221	-0.936223	0.251266
F170	F	1.500554	-0.602890	0.584599
F171	F	1.833888	-0.269557	0.917932
F172	F	0.966476	-0.653082	0.775609
F173	F	1.299809	-0.319748	1.108942
F174	F	1.633142	0.013585	1.442276
F175	F	1.160853	-0.372065	0.775686
F176	F	1.494187	-0.038731	1.109019
F177	F	1.827520	0.294602	1.442352
H178	H	1.030559	-1.078839	0.230696
H179	H	1.363893	-0.745506	0.564029
H180	H	1.697226	-0.412173	0.897362
H181	H	0.633701	-0.636396	0.439849
H182	H	0.967034	-0.303063	0.773182
H183	H	1.300368	0.030271	1.106516
F184	F	0.960100	-1.087883	0.458158
F185	F	1.293434	-0.754549	0.791491
F186	F	1.626767	-0.421216	1.124824
H187	H	1.187571	-1.078556	0.387940
H188	H	1.520904	-0.745223	0.721274
H189	H	1.854238	-0.411890	1.054607
H190	H	1.096723	-0.945692	0.478647
H191	H	1.430057	-0.612358	0.811981
H192	H	1.763390	-0.279025	1.145314
H193	H	0.978277	-0.636006	0.924666
H194	H	1.311610	-0.302672	1.257999
H195	H	1.644944	0.030661	1.591333
