data_functionalizedCrystal
_audit_creation_method	'MofGen! by Chris Wilmer'
_symmetry_space_group_name_H-M	'P1'
_symmetry_Int_Tables_number	1
_symmetry_cell_setting	triclinic
loop_
_symmetry_equiv_pos_as_xyz
  x,y,z
_cell_length_a	12.811438
_cell_length_b	12.837942
_cell_length_c	11.892095
_cell_angle_alpha	85.697431
_cell_angle_beta	91.498957
_cell_angle_gamma	90.586849
loop_
_atom_site_label
_atom_site_type_symbol
_atom_site_fract_x
_atom_site_fract_y
_atom_site_fract_z
O1	O	1.403420	-0.143206	0.049889
O2	O	1.101352	-0.156216	0.018916
O3	O	1.245687	0.001268	0.033723
O4	O	1.259084	-0.300691	0.035083
O5	O	1.233651	-0.011842	0.220496
O6	O	1.089315	-0.169327	0.205689
O7	O	1.391383	-0.156317	0.236662
Zn8	Zn	1.238438	-0.164903	0.250830
Zn9	Zn	1.254297	-0.147630	0.004749
O10	O	1.247048	-0.313801	0.221855
C11	C	1.056401	-0.161639	0.108311
C12	C	0.940395	-0.158254	0.096416
C13	C	0.783448	-0.146337	-0.022146
C14	C	0.892446	-0.149516	-0.010980
C15	C	0.879338	-0.163810	0.192652
C16	C	0.770340	-0.160630	0.181485
C17	C	0.722398	-0.151895	0.074083
C18	C	0.613397	-0.148723	0.062917
C19	C	0.600292	-0.163009	0.266547
C20	C	0.709290	-0.166188	0.277714
C21	C	1.235144	0.033386	0.126645
C22	C	1.221647	0.148619	0.125259
C23	C	1.436334	-0.150893	0.147265
C24	C	1.552340	-0.154278	0.159153
C25	C	1.257591	-0.345919	0.128931
C26	C	1.271089	-0.461152	0.130310
N27	N	1.227623	-0.176691	0.418774
C28	C	1.383906	0.387704	0.141873
C29	C	1.371229	0.495977	0.140571
C30	C	1.183619	0.473439	0.121346
C31	C	1.196295	0.365167	0.122648
C32	C	1.296442	0.322303	0.132913
C33	C	1.309117	0.214028	0.134223
C34	C	1.121508	0.191493	0.114990
C35	C	1.108831	0.299766	0.113688
N36	N	1.265120	-0.135834	-0.163195
C37	C	1.340373	-0.053747	0.666989
C38	C	1.332821	-0.061995	0.784556
C39	C	1.204963	-0.201428	0.771478
C40	C	1.212515	-0.193180	0.653910
C41	C	1.280223	-0.119339	0.601670
C42	C	1.287779	-0.111097	0.484102
C43	C	1.159916	-0.250525	0.471025
C44	C	1.152365	-0.258772	0.588592
H45	H	0.744413	-0.139236	-0.109598
H46	H	1.342914	-0.050974	0.441569
Br47	Br	1.078291	-0.339555	0.382369
Br48	Br	0.548334	-0.136875	-0.082841
Br49	Br	1.002798	0.102727	0.102849
H50	H	1.102085	0.508359	0.112976
H51	H	1.395511	0.006371	0.624455
Br52	Br	1.414451	0.027031	0.873200
H53	H	0.550573	-0.167539	0.344904
Br54	Br	0.972926	0.357948	0.099743
Br55	Br	1.113063	-0.301622	0.842384
H56	H	0.942149	-0.144990	-0.089339
Br57	Br	0.944420	-0.175659	0.338400
H58	H	1.097235	-0.318890	0.631139
Br59	Br	1.445027	0.155856	0.148166
Br60	Br	0.774363	-0.178042	0.423467
H61	H	1.465448	0.352804	0.150242
Br62	Br	1.489936	0.584734	0.152724
