data_functionalizedCrystal
_audit_creation_method	'MofGen! by Chris Wilmer'
_symmetry_space_group_name_H-M	'P1'
_symmetry_Int_Tables_number	1
_symmetry_cell_setting	triclinic
loop_
_symmetry_equiv_pos_as_xyz
  x,y,z
_cell_length_a	17.038272
_cell_length_b	19.288865
_cell_length_c	17.766277
_cell_angle_alpha	90.011603
_cell_angle_beta	90.003583
_cell_angle_gamma	87.123902
loop_
_atom_site_label
_atom_site_type_symbol
_atom_site_fract_x
_atom_site_fract_y
_atom_site_fract_z
O1	O	-1.036886	-0.150802	-0.062515
O2	O	-0.809263	-0.148407	-0.062537
O3	O	-0.929651	-0.048881	-0.062511
O4	O	-0.916497	-0.250328	-0.062542
O5	O	-0.929630	-0.048874	0.062678
O6	O	-0.809241	-0.148401	0.062651
O7	O	-1.036865	-0.150795	0.062673
Cu8	Cu	-0.923051	-0.149597	0.074093
Cu9	Cu	-0.923076	-0.149605	-0.073957
O10	O	-0.916476	-0.250321	0.062647
C11	C	-0.780131	-0.146226	0.000055
C12	C	-0.693359	-0.139728	0.000047
C13	C	-0.929218	-0.022975	0.000086
C14	C	-0.927947	0.054207	0.000092
C15	C	-1.065996	-0.152976	0.000080
C16	C	-1.152768	-0.159474	0.000083
C17	C	-0.643052	-0.199384	0.000038
C18	C	-0.561521	-0.193275	0.000050
C19	C	-0.530299	-0.127509	0.000064
C20	C	-0.580612	-0.067849	0.000075
C21	C	-0.662141	-0.073959	0.000069
C22	C	-0.284611	-0.105924	0.000088
C23	C	-0.203075	-0.099818	0.000091
C24	C	-0.183990	-0.225245	0.000067
C25	C	-0.265522	-0.231349	0.000057
C26	C	-0.315828	-0.171689	0.000072
C27	C	-0.446961	-0.121263	0.000073
C28	C	-0.399163	-0.177936	0.000068
C29	C	-0.916910	-0.276227	0.000049
C30	C	-0.918180	-0.353409	0.000037
N31	N	-0.923039	-0.149592	0.178223
C32	C	-0.998586	0.094533	0.000103
C33	C	-0.997392	0.167054	0.000091
C34	C	-0.925556	0.199246	0.000083
C35	C	-0.854908	0.158911	0.000069
C36	C	-0.856103	0.086391	0.000073
C37	C	-0.869076	0.311030	0.043929
C38	C	-0.867884	0.383548	0.043929
C39	C	-0.921865	0.422920	0.000066
C40	C	-0.977052	0.389765	-0.043787
C41	C	-0.978247	0.317246	-0.043783
C42	C	-0.924251	0.277881	0.000078
C43	C	-0.991214	0.541881	0.000063
C44	C	-0.990017	0.614403	0.000046
C45	C	-0.847531	0.606259	0.000031
C46	C	-0.848730	0.533738	0.000040
C47	C	-0.920573	0.501554	0.000060
N48	N	-0.923094	-0.149606	-0.178087
C49	C	-0.976365	-0.105546	0.217622
C50	C	-0.976369	-0.105543	0.296424
C51	C	-0.923056	-0.149598	0.335824
C52	C	-0.869720	-0.193647	0.296416
C53	C	-0.869712	-0.193644	0.217615
C54	C	-0.912591	-0.212238	0.460652
C55	C	-0.912605	-0.212243	0.539450
C56	C	-0.923077	-0.149608	0.578870
C57	C	-0.933552	-0.086966	0.539482
C58	C	-0.933543	-0.086963	0.460681
C59	C	-0.923058	-0.149606	0.421270
C60	C	-0.976410	-0.105555	0.703715
C61	C	-0.976409	-0.105551	0.782518
C62	C	-0.869764	-0.193661	0.782509
C63	C	-0.869761	-0.193659	0.703707
C64	C	-0.923088	-0.149607	0.664315
H65	H	-0.668467	-0.252938	0.000026
H66	H	-0.555184	-0.014300	0.000098
H67	H	-1.019830	-0.069679	0.814597
H68	H	-0.798579	0.053558	0.000065
Br69	Br	-0.797390	-0.253441	0.650231
H70	H	-1.021008	0.421821	-0.079505
H71	H	-1.019785	-0.069674	0.185551
H72	H	-1.049713	0.515676	0.000075
H73	H	-0.942078	-0.035963	0.571575
H74	H	-0.421531	-0.067716	0.000106
Br75	Br	-0.792993	0.428536	0.103448
Br76	Br	-1.085893	0.669134	0.000052
H77	H	-0.703101	-0.025380	0.000076
H78	H	-0.825116	0.278978	0.079651
Br79	Br	-0.493250	-0.274241	0.000035
Br80	Br	-0.307889	-0.320606	0.000029
H81	H	-0.143023	-0.273817	0.000057
H82	H	-0.177657	-0.046261	0.000102
Br83	Br	-0.750037	0.649940	0.000014
Br84	Br	-1.048744	-0.045760	0.349903
H85	H	-0.325560	-0.057343	0.000100
H86	H	-0.424588	-0.231482	0.000060
Br87	Br	-1.096087	0.050857	0.000108
Br88	Br	-1.093265	0.221793	0.000102
Br89	Br	-0.898456	-0.297258	0.407161
Br90	Br	-1.053136	0.272252	-0.103298
H91	H	-0.826352	-0.229529	0.814588
H92	H	-0.791208	0.500904	0.000036
H93	H	-0.796418	0.185126	0.000061
Br94	Br	-0.797360	-0.253432	0.349884
Br95	Br	-0.947751	-0.001954	0.407227
H96	H	-1.019830	-0.069683	0.671640
Br97	Br	-0.898398	-0.297255	0.592899
Br98	Br	-0.797336	-0.253424	0.164141
