data_functionalizedCrystal
_audit_creation_method	'MofGen! by Chris Wilmer'
_symmetry_space_group_name_H-M	'P1'
_symmetry_Int_Tables_number	1
_symmetry_cell_setting	triclinic
loop_
_symmetry_equiv_pos_as_xyz
  x,y,z
_cell_length_a	19.077105
_cell_length_b	14.908520
_cell_length_c	19.076919
_cell_angle_alpha	95.429006
_cell_angle_beta	90.076224
_cell_angle_gamma	91.150228
loop_
_atom_site_label
_atom_site_type_symbol
_atom_site_fract_x
_atom_site_fract_y
_atom_site_fract_z
Zn1	Zn	1.037881	-0.436364	-0.459234
Zn2	Zn	1.035744	-0.581390	-0.347980
Zn3	Zn	0.925663	-0.424281	-0.336506
Zn4	Zn	0.913591	-0.580846	-0.460710
O5	O	0.978220	-0.505720	-0.401107
O6	O	1.135682	-0.460886	-0.448660
O7	O	1.025299	-0.555720	-0.247919
O8	O	0.946495	-0.299666	-0.347366
O9	O	1.134112	-0.567437	-0.366923
O10	O	1.028941	-0.308543	-0.437534
O11	O	0.944423	-0.440292	-0.239489
O12	O	0.825977	-0.439765	-0.348797
O13	O	0.925920	-0.566510	-0.559053
O14	O	0.817107	-0.554793	-0.440049
O15	O	1.017235	-0.460359	-0.557969
O16	O	1.013594	-0.707536	-0.368354
O17	O	0.923848	-0.707136	-0.451175
C18	C	0.796110	-0.495910	-0.393339
C19	C	0.718201	-0.491735	-0.390033
C20	C	0.676998	-0.549746	-0.435923
C21	C	0.603795	-0.545812	-0.432820
C22	C	0.571795	-0.483870	-0.383823
C23	C	0.613003	-0.425853	-0.337931
C24	C	0.686205	-0.429783	-0.341038
C25	C	0.353358	-0.465680	-0.369446
C26	C	0.280150	-0.461756	-0.366341
C27	C	0.270947	-0.581715	-0.461231
C28	C	0.344151	-0.585643	-0.464331
C29	C	0.385353	-0.527623	-0.418441
N30	N	0.496969	-0.479850	-0.380648
N31	N	0.460177	-0.531640	-0.421620
C32	C	0.967198	-0.740065	-0.411186
C33	C	0.962545	-0.840323	-0.415524
C34	C	1.047344	-1.029082	-0.337510
C35	C	1.042976	-1.123283	-0.341584
C36	C	0.949443	-1.122929	-0.427749
C37	C	0.953812	-1.028727	-0.423675
C38	C	1.002763	-0.981807	-0.378553
C39	C	1.007128	-0.887604	-0.374476
C40	C	0.913600	-0.887251	-0.460644
C41	C	0.909231	-0.981453	-0.464718
C42	C	1.161040	-0.515570	-0.408907
C43	C	1.238948	-0.519767	-0.412230
C44	C	0.970470	-0.514721	-0.584776
C45	C	0.967167	-0.518557	-0.663044
C46	C	0.989303	-0.270463	-0.391006
C47	C	0.994026	-0.170210	-0.386701
C48	C	1.013156	-0.465095	-0.699251
C49	C	1.010044	-0.468695	-0.772793
C50	C	0.960947	-0.525763	-0.810125
C51	C	0.914953	-0.579227	-0.773913
C52	C	0.918062	-0.575622	-0.700373
C53	C	0.946548	-0.542468	-1.030127
C54	C	0.943444	-0.546071	-1.103672
C55	C	1.038535	-0.435537	-1.102547
C56	C	1.041642	-0.431941	-1.029006
C57	C	0.995646	-0.485402	-0.992799
N58	N	0.957767	-0.529446	-0.885296
N59	N	0.998824	-0.481713	-0.917629
C60	C	0.985983	-0.496691	-0.218153
C61	C	0.989433	-0.492609	-0.139879
H62	H	0.570251	-0.593052	-0.470187
Cl63	Cl	0.888724	-0.609677	-0.984620
H64	H	1.081624	-0.385472	-0.998614
H65	H	0.909594	-1.161148	-0.464489
H66	H	0.869378	-1.019668	-0.501457
H67	H	1.075982	-0.392011	-1.132034
Cl68	Cl	0.717219	-0.627624	-0.497519
H69	H	1.079279	-1.161771	-0.308163
H70	H	0.877297	-0.848750	-0.494062
Cl71	Cl	1.074885	-0.393353	-0.652326
Cl72	Cl	0.881713	-0.617814	-1.150603
Cl73	Cl	0.384374	-0.663518	-0.525928
Cl74	Cl	0.853228	-0.650967	-0.820845
Cl75	Cl	0.219148	-0.654651	-0.518915
H76	H	0.254099	-0.411305	-0.326445
Cl77	Cl	0.860243	-0.642832	-0.654854
Cl78	Cl	1.067891	-0.401523	-0.818310
H79	H	0.386895	-0.418442	-0.332074
H80	H	0.586943	-0.375415	-0.298039
H81	H	1.087198	-0.990878	-0.300765
Cl82	Cl	0.738003	-0.356849	-0.283347
H83	H	1.046985	-0.849402	-0.337734
