data_functionalizedCrystal
_audit_creation_method	'MofGen! by Chris Wilmer'
_symmetry_space_group_name_H-M	'P1'
_symmetry_Int_Tables_number	1
_symmetry_cell_setting	triclinic
loop_
_symmetry_equiv_pos_as_xyz
  x,y,z
_cell_length_a	10.654558
_cell_length_b	14.971493
_cell_length_c	13.448316
_cell_angle_alpha	90.001296
_cell_angle_beta	90.009684
_cell_angle_gamma	84.052703
loop_
_atom_site_label
_atom_site_type_symbol
_atom_site_fract_x
_atom_site_fract_y
_atom_site_fract_z
O1	O	-1.666500	-0.125661	-0.082717
O2	O	-1.166500	0.374339	0.417283
O3	O	-1.300895	-0.137623	-0.082713
O4	O	-0.800895	0.362377	0.417287
O5	O	-1.493492	-0.001496	-0.082711
O6	O	-0.993492	0.498504	0.417289
O7	O	-1.473903	-0.261788	-0.082719
O8	O	-0.973903	0.238212	0.417281
O9	O	-1.493459	-0.001499	0.082673
O10	O	-0.993459	0.498501	0.582673
O11	O	-1.300862	-0.137626	0.082671
O12	O	-0.800862	0.362374	0.582671
O13	O	-1.666467	-0.125665	0.082667
O14	O	-1.166467	0.374335	0.582667
Cu15	Cu	-1.483662	-0.131646	0.097770
Cu16	Cu	-0.983662	0.368354	0.597770
Cu17	Cu	-1.483700	-0.131642	-0.097816
Cu18	Cu	-0.983700	0.368358	0.402184
O19	O	-1.473871	-0.261792	0.082665
O20	O	-0.973871	0.238208	0.582665
C21	C	-1.254090	-0.136745	-0.000020
C22	C	-0.754090	0.363255	0.499980
C23	C	-1.114676	-0.134113	-0.000019
C24	C	-0.614676	0.365887	0.499981
C25	C	-0.933024	-0.049013	-0.000028
C26	C	-0.433024	0.450987	0.499972
C27	C	-1.064019	-0.051486	-0.000018
C28	C	-0.564019	0.448514	0.499982
C29	C	-1.034330	-0.214272	-0.000018
C30	C	-0.534330	0.285728	0.499982
C31	C	-0.903337	-0.211798	-0.000020
C32	C	-0.403337	0.288202	0.499980
C33	C	-0.950165	0.044970	-0.000032
C34	C	-0.450165	0.544970	0.499968
C35	C	-1.081160	0.042498	-0.000023
C36	C	-0.581160	0.542498	0.499977
C37	C	-1.492598	0.031832	-0.000020
C38	C	-0.992598	0.531832	0.499980
C39	C	-1.489967	0.131143	-0.000023
C40	C	-0.989967	0.631143	0.499977
C41	C	-0.713272	-0.126541	-0.000026
C42	C	-0.213272	0.373459	0.499974
C43	C	-0.852688	-0.129166	-0.000030
C44	C	-0.352688	0.370834	0.499970
C45	C	-1.488752	0.177796	-0.090174
C46	C	-0.988752	0.677796	0.409826
C47	C	-1.486273	0.271109	-0.090174
C48	C	-0.986273	0.771109	0.409826
C49	C	-1.485017	0.317767	-0.000021
C50	C	-0.985017	0.817767	0.499979
C51	C	-1.486229	0.271107	0.090137
C52	C	-0.986229	0.771107	0.590137
C53	C	-1.488699	0.177795	0.090136
C54	C	-0.988699	0.677795	0.590136
C55	C	-1.481083	0.465598	0.090133
C56	C	-0.981083	0.965598	0.590133
C57	C	-1.478614	0.558917	0.090135
C58	C	-0.978614	1.058917	0.590135
C59	C	-1.478656	0.558912	-0.090176
C60	C	-0.978656	1.058912	0.409824
C61	C	-1.481127	0.465600	-0.090177
C62	C	-0.981127	0.965600	0.409823
C63	C	-1.482340	0.418947	-0.000019
C64	C	-0.982340	0.918947	0.499981
C65	C	-1.474766	0.704881	-0.000024
C66	C	-0.974766	1.204881	0.499976
C67	C	-1.477399	0.605570	-0.000016
C68	C	-0.977399	1.105570	0.499984
N69	N	-1.483644	-0.131648	0.235334
N70	N	-0.983644	0.368352	0.735334
N71	N	-1.483728	-0.131632	-0.235380
N72	N	-0.983728	0.368368	0.264620
C73	C	-1.569022	-0.071380	0.712554
C74	C	-1.069022	0.428620	1.212554
C75	C	-1.569012	-0.071386	0.608450
C76	C	-1.069012	0.428614	1.108450
C77	C	-1.483700	-0.131641	0.556416
C78	C	-0.983700	0.368359	1.056416
C79	C	-1.398402	-0.191899	0.608489
C80	C	-0.898402	0.308101	1.108489
C81	C	-1.398419	-0.191897	0.712591
C82	C	-0.898419	0.308103	1.212591
C83	C	-1.398369	-0.191899	0.391509
C84	C	-0.898369	0.308101	0.891509
C85	C	-1.398350	-0.191900	0.287401
C86	C	-0.898350	0.308100	0.787401
C87	C	-1.568962	-0.071388	0.287369
C88	C	-1.068962	0.428612	0.787369
C89	C	-1.568979	-0.071386	0.391470
C90	C	-1.068979	0.428614	0.891470
C91	C	-1.483679	-0.131643	0.443537
C92	C	-0.983679	0.368357	0.943537
H93	H	-1.075585	-0.281548	-0.000009
H94	H	-0.575585	0.218452	0.499991
N95	N	-1.485106	0.321397	-0.187436
N96	N	-0.985106	0.821397	0.312564
H97	H	-1.407806	0.298405	-0.226916
H98	H	-0.907806	0.798405	0.273084
H99	H	-1.563437	0.311847	-0.226674
H100	H	-1.063437	0.811847	0.273326
H101	H	-0.837932	-0.277067	-0.000010
H102	H	-0.337932	0.222933	0.499990
N103	N	-1.661008	-0.006404	0.447588
N104	N	-1.161008	0.493596	0.947588
H105	H	-1.612987	0.033528	0.490795
H106	H	-1.112987	0.533528	0.990795
H107	H	-1.715019	0.031699	0.398738
H108	H	-1.215019	0.531699	0.898738
H109	H	-1.127088	0.070896	0.071389
H110	H	-0.627088	0.570896	0.571389
N111	N	-0.911757	0.093657	0.091637
N112	N	-0.411757	0.593657	0.591637
H113	H	-0.989100	0.113595	0.132551
H114	H	-0.489100	0.613595	0.632551
H115	H	-0.851438	0.052021	0.132469
H116	H	-0.351438	0.552021	0.632469
N117	N	-1.660970	-0.006397	0.231219
N118	N	-1.160970	0.493603	0.731219
H119	H	-1.648024	-0.015543	0.157376
H120	H	-1.148024	0.484457	0.657376
H121	H	-1.750070	-0.017324	0.249401
H122	H	-1.250070	0.482676	0.749401
H123	H	-1.328882	-0.240967	0.245039
H124	H	-0.828882	0.259033	0.745039
H125	H	-1.482044	0.427614	0.163550
H126	H	-0.982044	0.927614	0.663550
N127	N	-1.490025	0.127469	0.187367
N128	N	-0.990025	0.627469	0.687367
H129	H	-1.413260	0.081989	0.191386
H130	H	-0.913260	0.581989	0.691386
H131	H	-1.488906	0.171242	0.244425
H132	H	-0.988906	0.671242	0.744425
N133	N	-1.306386	-0.256884	0.552364
N134	N	-0.806386	0.243116	1.052364
H135	H	-1.217251	-0.245987	0.570506
H136	H	-0.717251	0.254013	1.070506
H137	H	-1.321047	-0.320438	0.570494
H138	H	-0.821047	0.179562	1.070494
N139	N	-1.306374	-0.256893	0.447670
N140	N	-0.806374	0.243107	0.947670
H141	H	-1.252323	-0.295063	0.398912
H142	H	-0.752323	0.204937	0.898912
H143	H	-1.250821	-0.222276	0.490876
H144	H	-0.750821	0.277724	0.990876
H145	H	-1.482158	0.427614	-0.163587
H146	H	-0.982158	0.927614	0.336413
H147	H	-0.914871	0.074899	-0.071441
H148	H	-0.414871	0.574899	0.428559
H149	H	-1.328966	-0.240962	0.754982
H150	H	-0.828966	0.259038	1.254982
N151	N	-1.136997	0.089399	-0.091699
N152	N	-0.636997	0.589399	0.408301
H153	H	-1.181759	0.045821	-0.132605
H154	H	-0.681759	0.545821	0.367395
H155	H	-1.199156	0.141691	-0.071215
H156	H	-0.699156	0.641691	0.428785
N157	N	-1.490118	0.127476	-0.187411
N158	N	-0.990118	0.627476	0.312589
H159	H	-1.488969	0.171193	-0.244520
H160	H	-0.988969	0.671193	0.255480
H161	H	-1.413353	0.081993	-0.191340
H162	H	-0.913353	0.581993	0.308660
N163	N	-1.661040	-0.006392	0.768673
N164	N	-1.161040	0.493608	1.268673
H165	H	-1.715076	0.031772	0.719888
H166	H	-1.215076	0.531772	1.219888
H167	H	-1.716606	-0.041013	0.811849
H168	H	-1.216606	0.458987	1.311849
H169	H	-1.477665	0.596901	-0.163586
H170	H	-0.977665	1.096901	0.336414
H171	H	-1.477582	0.596903	0.163545
H172	H	-0.977582	1.096903	0.663545
H173	H	-1.485199	0.309103	0.163541
H174	H	-0.985199	0.809103	0.663541
N175	N	-1.661009	-0.006400	0.552293
N176	N	-1.161009	0.493600	1.052293
H177	H	-1.750149	-0.017295	0.570398
H178	H	-1.250149	0.482705	1.070398
H179	H	-1.646347	0.057152	0.570436
H180	H	-1.146347	0.557152	1.070436
