data_functionalizedCrystal
_audit_creation_method	'MofGen! by Chris Wilmer'
_symmetry_space_group_name_H-M	'P1'
_symmetry_Int_Tables_number	1
_symmetry_cell_setting	triclinic
loop_
_symmetry_equiv_pos_as_xyz
  x,y,z
_cell_length_a	11.026660
_cell_length_b	13.262508
_cell_length_c	9.482944
_cell_angle_alpha	84.681713
_cell_angle_beta	98.185679
_cell_angle_gamma	96.045600
loop_
_atom_site_label
_atom_site_type_symbol
_atom_site_fract_x
_atom_site_fract_y
_atom_site_fract_z
O1	O	1.605296	0.432527	-0.050128
O2	O	1.254380	0.385193	-0.031411
O3	O	1.446699	0.266070	0.015686
O4	O	1.412977	0.551649	-0.097225
O5	O	1.414455	0.232402	-0.212794
O6	O	1.222136	0.351525	-0.259891
O7	O	1.573052	0.398858	-0.278609
Cu8	Cu	1.394650	0.372117	-0.290112
Cu9	Cu	1.432782	0.411934	-0.019908
O10	O	1.380734	0.517981	-0.325705
C11	C	1.193488	0.359627	-0.142198
C12	C	1.060088	0.333595	-0.131904
C13	C	0.844780	0.378578	-0.149685
C14	C	0.982655	0.405485	-0.160326
C15	C	1.431652	0.212108	-0.083872
C16	C	1.434840	0.101475	-0.040121
C17	C	1.373515	-0.283807	-0.414988
C18	C	1.370510	-0.179863	-0.456095
C19	C	1.386593	-0.109523	-0.352105
C20	C	1.405680	-0.143138	-0.207001
C21	C	1.408676	-0.247093	-0.165889
C22	C	1.421754	-0.072809	-0.103007
C23	C	1.440841	-0.106423	0.042098
C24	C	1.443837	-0.210368	0.083202
C25	C	1.427755	-0.280708	-0.020788
C26	C	1.418758	0.031146	-0.144118
C27	C	1.453919	0.067860	0.104981
C28	C	1.456924	-0.036084	0.146088
C29	C	1.633944	0.424425	-0.167819
C30	C	1.767346	0.450458	-0.178103
C31	C	1.395781	0.571944	-0.226145
C32	C	1.392594	0.682578	-0.269886
N33	N	1.367839	0.344113	-0.480159
C34	C	1.424865	0.403672	-0.575908
C35	C	1.402569	0.380364	-0.734109
N36	N	1.459603	0.439932	0.170142
H37	H	0.808998	0.297117	-0.117499
H38	H	1.018427	0.486948	-0.192544
C39	C	1.011778	0.223545	-0.088380
H40	H	0.925450	0.219897	-0.086922
H41	H	1.028788	0.179677	-0.155347
H42	H	1.051280	0.203178	0.004008
C43	C	1.477938	-0.073062	0.305694
H44	H	1.487104	-0.016288	0.361746
H45	H	1.409387	-0.117924	0.328936
H46	H	1.550317	-0.107772	0.324869
H47	H	0.803123	0.531916	-0.210319
H48	H	1.430207	-0.365349	0.012674
H49	H	1.403205	0.058503	-0.262262
H50	H	1.384143	-0.024889	-0.385583
C51	C	1.355828	-0.361177	-0.529357
H52	H	1.360354	-0.427898	-0.484088
H53	H	1.277651	-0.356755	-0.585266
H54	H	1.418590	-0.346620	-0.589271
H55	H	1.459369	-0.237734	0.201355
H56	H	1.354982	-0.152501	-0.574239
C57	C	1.547862	0.532132	-0.782402
H58	H	1.551266	0.535708	-0.682301
H59	H	1.627747	0.524932	-0.804412
H60	H	1.519005	0.592644	-0.831204
H61	H	1.467006	0.125131	0.189658
H62	H	1.490199	0.471914	-0.540759
C63	C	1.314307	0.288166	-0.781569
H64	H	1.310892	0.284600	-0.881674
H65	H	1.343148	0.227655	-0.732768
H66	H	1.234416	0.295378	-0.759567
H67	H	1.302514	0.275865	-0.515306
