data_functionalizedCrystal
_audit_creation_method	'MofGen! by Chris Wilmer'
_symmetry_space_group_name_H-M	'P1'
_symmetry_Int_Tables_number	1
_symmetry_cell_setting	triclinic
loop_
_symmetry_equiv_pos_as_xyz
  x,y,z
_cell_length_a	12.827892
_cell_length_b	10.686220
_cell_length_c	10.686551
_cell_angle_alpha	90.308082
_cell_angle_beta	94.405078
_cell_angle_gamma	85.603024
loop_
_atom_site_label
_atom_site_type_symbol
_atom_site_fract_x
_atom_site_fract_y
_atom_site_fract_z
Zn1	Zn	-0.254771	-1.972286	0.562389
Zn2	Zn	0.245229	-1.472286	1.062389
Zn3	Zn	-0.443915	-1.956055	0.352633
Zn4	Zn	0.056085	-1.456055	0.852633
Zn5	Zn	-0.281503	-1.746404	0.368707
Zn6	Zn	0.218497	-1.246404	0.868707
Zn7	Zn	-0.441797	-1.762485	0.578411
Zn8	Zn	0.058203	-1.262485	1.078411
O9	O	-0.355496	-1.859307	0.465535
O10	O	0.144504	-1.359307	0.965535
O11	O	-0.269560	-2.145674	0.521133
O12	O	0.230440	-1.645674	1.021133
O13	O	-0.434445	-1.914721	0.179220
O14	O	0.065555	-1.414721	0.679220
O15	O	-0.131715	-1.776430	0.394421
O16	O	0.368285	-1.276430	0.894421
O17	O	-0.408523	-2.133750	0.367026
O18	O	0.091477	-1.633750	0.867026
O19	O	-0.112075	-1.942384	0.536719
O20	O	0.387925	-1.442384	1.036719
O21	O	-0.315121	-1.760692	0.191029
O22	O	0.184879	-1.260692	0.691029
O23	O	-0.313068	-1.572995	0.409957
O24	O	0.186932	-1.072995	0.909957
O25	O	-0.404914	-1.803838	0.751831
O26	O	0.095086	-1.303838	1.251831
O27	O	-0.430835	-1.584810	0.564025
O28	O	0.069165	-1.084810	1.064025
O29	O	-0.267506	-1.957978	0.740060
O30	O	0.232494	-1.457978	1.240060
O31	O	-0.589876	-1.930315	0.382561
O32	O	-0.089876	-1.430315	0.882561
O33	O	-0.588320	-1.788100	0.548439
O34	O	-0.088320	-1.288100	1.048439
C35	C	-0.374623	-1.533386	0.490474
C36	C	0.125377	-1.033386	0.990474
C37	C	-0.382829	-1.393958	0.501173
C38	C	0.117171	-0.893958	1.001173
C39	C	-0.627013	-1.859227	0.465519
C40	C	-0.127013	-1.359227	0.965519
C41	C	-0.743159	-1.859311	0.465545
C42	C	-0.243159	-1.359311	0.965545
C43	C	-0.332992	-1.884512	0.792735
C44	C	0.167008	-1.384512	1.292735
C45	C	-0.323402	-1.895253	0.932168
C46	C	0.176598	-1.395253	1.432168
C47	C	-0.795668	-1.929780	0.383541
C48	C	-0.295668	-1.429780	0.883541
C49	C	-0.915711	-1.929868	0.383567
C50	C	-0.415711	-1.429868	0.883567
C51	C	-0.082916	-1.859424	0.465576
C52	C	0.417084	-1.359424	0.965576
C53	C	0.033241	-1.859474	0.465594
C54	C	0.533241	-1.359474	0.965594
C55	C	-0.336296	-2.186501	0.440499
C56	C	0.163704	-1.686501	0.940499
C57	C	-0.328114	-2.325931	0.429830
C58	C	0.171886	-1.825931	0.929830
C59	C	-0.377834	-1.834273	0.139602
C60	C	0.122166	-1.334273	0.639602
C61	C	-0.387115	-1.823775	0.000151
C62	C	0.112885	-1.323775	0.500151
H63	H	-0.751753	-1.990053	0.313319
H64	H	-0.251753	-1.490053	0.813319
H65	H	-0.921614	-1.799133	0.535800
H66	H	-0.421614	-1.299133	1.035800
F67	F	-0.452278	-1.330659	0.591705
F68	F	0.047722	-0.830659	1.091705
H69	H	-0.274993	-1.374357	0.360564
H70	H	0.225007	-0.874357	0.860564
F71	F	-0.974727	-2.008722	0.291792
F72	F	-0.474727	-1.508722	0.791792
F73	F	-0.800554	-1.780542	0.557344
F74	F	-0.300554	-1.280542	1.057344
H75	H	-0.449003	-1.754366	0.951684
H76	H	0.050997	-1.254366	1.451684
H77	H	-0.261517	-1.964676	0.980641
H78	H	0.238483	-1.464676	1.480641
