data_functionalizedCrystal
_audit_creation_method	'MofGen! by Chris Wilmer'
_symmetry_space_group_name_H-M	'P1'
_symmetry_Int_Tables_number	1
_symmetry_cell_setting	triclinic
loop_
_symmetry_equiv_pos_as_xyz
  x,y,z
_cell_length_a	16.109301
_cell_length_b	17.019294
_cell_length_c	15.186229
_cell_angle_alpha	86.117288
_cell_angle_beta	89.999006
_cell_angle_gamma	83.427995
loop_
_atom_site_label
_atom_site_type_symbol
_atom_site_fract_x
_atom_site_fract_y
_atom_site_fract_z
O1	O	1.103039	0.101396	-0.080867
O2	O	1.436372	0.434729	0.252466
O3	O	1.769706	0.768062	0.585799
O4	O	0.860966	0.114014	-0.081837
O5	O	1.194299	0.447347	0.251497
O6	O	1.527632	0.780681	0.584830
O7	O	0.988756	-0.007130	-0.072640
O8	O	1.322089	0.326204	0.260694
O9	O	1.655422	0.659537	0.594027
O10	O	0.975249	0.222539	-0.090064
O11	O	1.308583	0.555873	0.243269
O12	O	1.641916	0.889206	0.576602
O13	O	0.988747	-0.007131	0.073818
O14	O	1.322080	0.326202	0.407151
O15	O	1.655414	0.659535	0.740484
O16	O	0.860957	0.114012	0.064621
O17	O	1.194291	0.447345	0.397954
O18	O	1.527624	0.780679	0.731288
O19	O	1.103031	0.101394	0.065590
O20	O	1.436364	0.434727	0.398923
O21	O	1.769697	0.768061	0.732257
Zn22	Zn	0.981993	0.107703	0.088359
Zn23	Zn	1.315326	0.441036	0.421692
Zn24	Zn	1.648659	0.774369	0.755025
Zn25	Zn	0.982004	0.107705	-0.104605
Zn26	Zn	1.315337	0.441038	0.228728
Zn27	Zn	1.648670	0.774372	0.562061
O28	O	0.975241	0.222537	0.056393
O29	O	1.308574	0.555871	0.389726
O30	O	1.641908	0.889204	0.723060
C31	C	0.829987	0.113502	-0.008571
C32	C	1.163320	0.446835	0.324763
C33	C	1.496654	0.780169	0.658096
C34	C	0.737693	0.111969	-0.008459
C35	C	1.071027	0.445303	0.324874
C36	C	1.404360	0.778636	0.658208
C37	C	0.428635	0.178844	-0.013517
C38	C	0.761968	0.512177	0.319816
C39	C	1.095301	0.845511	0.653149
C40	C	0.515354	0.180291	-0.013632
C41	C	0.848687	0.513624	0.319701
C42	C	1.182020	0.846958	0.653034
C43	C	0.535356	0.036558	-0.002739
C44	C	0.868690	0.369892	0.330594
C45	C	1.202023	0.703225	0.663927
C46	C	0.448639	0.035112	-0.002631
C47	C	0.781972	0.368445	0.330703
C48	C	1.115306	0.701779	0.664036
C49	C	0.395280	0.106257	-0.008015
C50	C	0.728613	0.439590	0.325318
C51	C	1.061947	0.772924	0.658651
C52	C	0.568716	0.109151	-0.008239
C53	C	0.902050	0.442484	0.325094
C54	C	1.235383	0.775817	0.658428
C55	C	0.662741	0.110719	-0.008363
C56	C	0.996074	0.444053	0.324970
C57	C	1.329408	0.777386	0.658303
C58	C	0.301249	0.104689	-0.007893
C59	C	0.634583	0.438022	0.325441
C60	C	0.967916	0.771355	0.658774
C61	C	0.988239	-0.036520	0.002817
C62	C	1.321572	0.296814	0.336150
C63	C	1.654906	0.630147	0.669483
C64	C	0.986703	-0.124090	0.009455
C65	C	1.320036	0.209244	0.342788
C66	C	1.653370	0.542577	0.676121
C67	C	0.985988	-0.165225	-0.067260
C68	C	1.319321	0.168109	0.266073
C69	C	1.652654	0.501442	0.599406
C70	C	0.984539	-0.247505	-0.061021
C71	C	1.317872	0.085828	0.272313
C72	C	1.651206	0.419161	0.605646
C73	C	0.983811	-0.288650	0.021935
C74	C	1.317145	0.044683	0.355268
C75	C	1.650478	0.378017	0.688601
C76	C	0.984524	-0.247509	0.098655
C77	C	1.317857	0.085825	0.431989
C78	C	1.651191	0.419158	0.765322
C79	C	0.985967	-0.165229	0.092415
C80	C	1.319300	0.168104	0.425748
C81	C	1.652633	0.501438	0.759081
C82	C	0.979449	-0.537082	0.044771
C83	C	1.312782	-0.203748	0.378105
C84	C	1.646116	0.129585	0.711438
C85	C	0.978009	-0.619368	0.051006
C86	C	1.311342	-0.286034	0.384339
C87	C	1.644675	0.047299	0.717673
C88	C	0.978022	-0.619358	-0.108671
C89	C	1.311355	-0.286025	0.224663
C90	C	1.644689	0.047309	0.557996
C91	C	0.979470	-0.537077	-0.114904
C92	C	1.312803	-0.203744	0.218429
C93	C	1.646137	0.129589	0.551763
C94	C	0.980178	-0.495943	-0.038183
C95	C	1.313512	-0.162609	0.295150
C96	C	1.646845	0.170724	0.628483
C97	C	0.982333	-0.372754	0.028315
C98	C	1.315666	-0.039421	0.361648
C99	C	1.649000	0.293912	0.694981
C100	C	0.981651	-0.411839	-0.044564
C101	C	1.314984	-0.078506	0.288769
C102	C	1.648317	0.254827	0.622102
C103	C	1.134009	0.101906	-0.007678
C104	C	1.467343	0.435239	0.325655
C105	C	1.800676	0.768573	0.658989
C106	C	1.226303	0.103438	-0.007795
C107	C	1.559637	0.436772	0.325538
C108	C	1.892970	0.770105	0.658871
C109	C	0.975757	0.251927	-0.019065
C110	C	1.309091	0.585261	0.314268
C111	C	1.642424	0.918594	0.647601
C112	C	0.977294	0.339497	-0.025709
C113	C	1.310627	0.672831	0.307624
C114	C	1.643960	1.006164	0.640958
N115	N	0.981991	0.107701	0.220052
N116	N	1.315324	0.441034	0.553385
N117	N	1.648658	0.774367	0.886718
N118	N	0.982012	0.107701	-0.236298
N119	N	1.315345	0.441034	0.097036
N120	N	1.648679	0.774367	0.430369
C121	C	1.038596	0.054076	0.449845
C122	C	1.371929	0.387410	0.783179
C123	C	1.705262	0.720743	1.116512
C124	C	1.038598	0.054075	0.542035
C125	C	1.371932	0.387408	0.875368
C126	C	1.705265	0.720741	1.208702
C127	C	0.925401	0.161328	0.533902
C128	C	1.258735	0.494661	0.867235
C129	C	1.592068	0.827994	1.200569
C130	C	0.925396	0.161325	0.441714
C131	C	1.258729	0.494658	0.775047
C132	C	1.592062	0.827992	1.108381
C133	C	0.981997	0.107700	0.399688
C134	C	1.315331	0.441034	0.733021
C135	C	1.648664	0.774367	1.066355
C136	C	0.982006	0.107701	0.584066
C137	C	1.315339	0.441034	0.917399
C138	C	1.648672	0.774368	1.250732
C139	C	0.982008	0.107699	0.684022
C140	C	1.315342	0.441033	1.017355
C141	C	1.648675	0.774366	1.350689
C142	C	0.981994	0.107701	0.299726
C143	C	1.315327	0.441034	0.633059
C144	C	1.648661	0.774368	0.966392
H145	H	0.542506	0.239398	-0.018113
H146	H	0.875840	0.572732	0.315220
H147	H	1.209173	0.906065	0.648554
H148	H	0.977412	-0.652865	0.118562
H149	H	1.310745	-0.319531	0.451895
H150	H	1.644079	0.013802	0.785228
H151	H	0.578811	-0.021365	0.001647
H152	H	0.912145	0.311968	0.334980
H153	H	1.245478	0.645301	0.668314
H154	H	0.385192	0.236775	-0.017902
H155	H	0.718525	0.570108	0.315431
H156	H	1.051858	0.903442	0.648764
H157	H	0.879302	0.204993	0.400873
H158	H	1.212636	0.538326	0.734206
H159	H	1.545969	0.871659	1.067540
H160	H	1.084685	0.010408	0.582871
H161	H	1.418018	0.343742	0.916204
H162	H	1.751351	0.677075	1.249538
H163	H	0.421482	-0.024000	0.001847
H164	H	0.754816	0.309333	0.335180
H165	H	1.088149	0.642666	0.668514
H166	H	0.986585	-0.131731	-0.134812
H167	H	1.319918	0.201602	0.198522
H168	H	1.653251	0.534936	0.531855
H169	H	0.983960	-0.280994	-0.123490
H170	H	1.317293	0.052339	0.209843
H171	H	1.650627	0.385672	0.543176
H172	H	0.980064	-0.503583	-0.182455
H173	H	1.313397	-0.170250	0.150878
H174	H	1.646730	0.163084	0.484212
H175	H	0.980042	-0.503602	0.107243
H176	H	1.313376	-0.170268	0.440576
H177	H	1.646709	0.163065	0.773910
H178	H	0.977444	-0.652859	-0.171132
H179	H	1.310777	-0.319525	0.162201
H180	H	1.644111	0.013808	0.495535
H181	H	0.983926	-0.281015	0.166200
H182	H	1.317260	0.052319	0.499533
H183	H	1.650593	0.385652	0.832866
H184	H	0.986537	-0.131736	0.154884
H185	H	1.319871	0.201597	0.488218
H186	H	1.653204	0.534930	0.821551
H187	H	0.982237	-0.378335	-0.112106
H188	H	1.315571	-0.045002	0.221227
H189	H	1.648904	0.288332	0.554560
H190	H	0.981743	-0.406264	0.095857
H191	H	1.315077	-0.072931	0.429191
H192	H	1.648410	0.260403	0.762524
H193	H	0.879319	0.204989	0.568129
H194	H	1.212652	0.538322	0.901462
H195	H	1.545985	0.871655	1.234795
H196	H	1.084683	0.010411	0.415630
H197	H	1.418016	0.343744	0.748964
H198	H	1.751350	0.677078	1.082297
