data_functionalizedCrystal
_audit_creation_method	'MofGen! by Chris Wilmer'
_symmetry_space_group_name_H-M	'P1'
_symmetry_Int_Tables_number	1
_symmetry_cell_setting	triclinic
loop_
_symmetry_equiv_pos_as_xyz
  x,y,z
_cell_length_a	10.654541
_cell_length_b	10.654545
_cell_length_c	26.210047
_cell_angle_alpha	89.996376
_cell_angle_beta	90.023106
_cell_angle_gamma	95.515322
loop_
_atom_site_label
_atom_site_type_symbol
_atom_site_fract_x
_atom_site_fract_y
_atom_site_fract_z
O1	O	1.667881	-0.176383	0.042410
O2	O	1.302402	-0.193192	0.042415
O3	O	1.493544	-0.002048	0.042412
O4	O	1.476739	-0.367527	0.042413
O5	O	1.493454	-0.002045	-0.042446
O6	O	1.302312	-0.193189	-0.042443
O7	O	1.667791	-0.176380	-0.042448
Cu8	Cu	1.485044	-0.184784	-0.050194
Cu9	Cu	1.485150	-0.184788	0.050161
O10	O	1.476650	-0.367524	-0.042445
C11	C	1.255559	-0.191957	-0.000014
C12	C	1.116116	-0.188266	-0.000012
C13	C	1.088146	-0.416831	-0.000005
C14	C	1.008652	-0.529374	0.000000
C15	C	0.877634	-0.525898	0.000001
C16	C	0.826108	-0.409867	-0.000006
C17	C	0.905602	-0.297324	-0.000011
C18	C	1.036622	-0.300812	-0.000010
C19	C	0.933572	-0.068763	-0.000022
C20	C	1.064590	-0.072235	-0.000019
C21	C	0.882046	0.047269	-0.000028
C22	C	0.961540	0.159814	-0.000030
C23	C	1.092565	0.156334	-0.000030
C24	C	1.144084	0.040308	-0.000024
C25	C	1.492265	0.044751	-0.000016
C26	C	1.488572	0.184195	-0.000013
C27	C	1.714634	-0.177615	-0.000018
C28	C	1.854078	-0.181306	-0.000016
C29	C	1.477929	-0.414323	-0.000016
C30	C	1.481621	-0.553766	-0.000016
N31	N	1.484978	-0.184780	-0.120778
C32	C	1.488685	0.184199	0.092502
C33	C	1.487012	0.249711	0.138759
C34	C	1.483542	0.380730	0.138760
C35	C	1.481743	0.446239	0.092498
C36	C	1.483417	0.380727	0.046241
C37	C	1.486890	0.249706	0.046245
C38	C	1.483295	0.380721	-0.046273
C39	C	1.486773	0.249704	-0.046275
C40	C	1.481496	0.446230	-0.092534
C41	C	1.483178	0.380719	-0.138793
C42	C	1.486649	0.249693	-0.138791
C43	C	1.488447	0.184191	-0.092532
C44	C	1.400430	-0.269385	-0.526744
C45	C	1.400369	-0.269385	-0.313085
O46	O	1.328333	-0.341304	-0.285466
N47	N	1.485018	-0.184777	-0.286361
C48	C	1.569683	-0.100157	-0.313055
O49	O	1.641672	-0.028184	-0.285422
C50	C	1.569737	-0.100152	-0.526713
C51	C	1.485090	-0.184774	-0.553434
C52	C	1.315789	-0.353999	-0.553465
C53	C	1.315810	-0.354003	-0.606877
C54	C	1.400471	-0.269392	-0.633567
C55	C	1.485111	-0.184778	-0.606846
C56	C	1.654394	-0.015528	-0.553406
C57	C	1.654398	-0.015532	-0.606824
C58	C	1.569752	-0.100154	-0.633545
C59	C	1.569792	-0.100172	-0.686947
N60	N	1.485143	-0.184780	-0.713671
C61	C	1.400482	-0.269390	-0.686981
C62	C	1.569651	-0.100167	-0.200882
C63	C	1.569639	-0.100170	-0.147468
C64	C	1.400323	-0.269396	-0.147502
C65	C	1.400342	-0.269399	-0.200917
C66	C	1.485002	-0.184775	-0.227606
C67	C	1.400533	-0.269392	-0.799149
C68	C	1.400564	-0.269392	-0.852565
C69	C	1.569875	-0.100162	-0.852527
C70	C	1.569849	-0.100166	-0.799115
C71	C	1.485167	-0.184786	-0.772428
O72	O	1.641781	-0.028280	-0.714600
O73	O	1.328485	-0.341333	-0.714623
C74	C	1.400409	-0.269381	-0.473332
C75	C	1.485049	-0.184767	-0.446611
C76	C	1.569710	-0.100156	-0.473301
C77	C	1.485038	-0.184769	-0.393197
C78	C	1.400377	-0.269380	-0.366507
C79	C	1.315728	-0.353988	-0.393231
C80	C	1.315748	-0.353991	-0.446642
C81	C	1.654359	-0.015548	-0.446578
C82	C	1.654333	-0.015552	-0.393166
C83	C	1.569672	-0.100163	-0.366476
N84	N	1.485225	-0.184782	0.120745
H85	H	1.250764	0.037463	-0.000018
H86	H	1.246821	-0.422898	-0.468395
H87	H	1.491278	0.077510	-0.092526
H88	H	0.812909	-0.617541	0.000002
C89	C	1.180000	0.280144	-0.000037
N90	N	1.245851	0.373400	-0.000041
C91	C	1.492537	0.040079	0.092506
N92	N	1.495446	-0.068473	0.092510
H93	H	1.488475	0.196359	0.176424
H94	H	1.246797	-0.422885	-0.371491
C95	C	1.307400	-0.362500	-0.769800
N96	N	1.237265	-0.432641	-0.747695
C97	C	1.747456	0.077546	-0.363779
N98	N	1.817586	0.147675	-0.341646
C99	C	1.747504	0.077574	-0.524025
N100	N	1.817637	0.147708	-0.501895
H101	H	1.482168	0.434069	0.176426
H102	H	1.331635	-0.338306	-0.874320
H103	H	1.331415	-0.338304	-0.222670
H104	H	1.194826	-0.419672	0.000006
C105	C	0.737922	0.051088	-0.000028
N106	N	0.629366	0.053968	-0.000026
C107	C	1.477894	0.590359	0.092502
N108	N	1.474989	0.698912	0.092504
C109	C	1.477657	0.590352	-0.092532
N110	N	1.474764	0.698906	-0.092532
C111	C	1.481191	0.452786	-0.189675
N112	N	1.479695	0.507072	-0.228000
H113	H	1.487992	0.196358	-0.176460
C114	C	1.307189	-0.362461	-0.118132
N115	N	1.237036	-0.432547	-0.096009
C116	C	1.222677	-0.447081	-0.636263
N117	N	1.152519	-0.517186	-0.658393
H118	H	1.246843	-0.422899	-0.531739
C119	C	1.662766	-0.007088	-0.118081
N120	N	1.732906	0.063031	-0.095948
C121	C	1.662777	-0.007057	-0.230233
N122	N	1.732919	0.063078	-0.252339
H123	H	0.919576	0.254278	-0.000035
H124	H	1.723337	0.053383	-0.628552
H125	H	1.638787	-0.031272	-0.777358
H126	H	1.723299	0.053353	-0.468305
C127	C	1.662993	-0.007090	-0.881896
N128	N	1.733122	0.063020	-0.904019
H129	H	1.050619	-0.623844	0.000004
C130	C	0.681984	-0.406051	-0.000011
N131	N	0.573428	-0.403175	-0.000014
