data_functionalizedCrystal
_audit_creation_method	'MofGen! by Chris Wilmer'
_symmetry_space_group_name_H-M	'P1'
_symmetry_Int_Tables_number	1
_symmetry_cell_setting	triclinic
loop_
_symmetry_equiv_pos_as_xyz
  x,y,z
_cell_length_a	6.817900
_cell_length_b	16.306198
_cell_length_c	16.255661
_cell_angle_alpha	95.358115
_cell_angle_beta	103.488922
_cell_angle_gamma	103.467075
loop_
_atom_site_label
_atom_site_type_symbol
_atom_site_fract_x
_atom_site_fract_y
_atom_site_fract_z
V1	V	-4.026607	-0.117401	-0.264172
O2	O	-4.014195	0.004940	-0.258835
O3	O	-3.978057	-0.232112	-0.262662
O4	O	-3.978170	-0.115903	-0.379252
O5	O	-4.014080	-0.112073	-0.141438
V6	V	-4.510259	-0.102731	-0.249456
O7	O	-4.287582	-0.149580	-0.296453
O8	O	-4.699482	-0.070552	-0.217176
O9	O	-4.335603	0.011980	-0.250967
O10	O	-4.640069	-0.225073	-0.254793
O11	O	-4.640183	-0.108059	-0.372190
O12	O	-4.335490	-0.104229	-0.134377
C13	C	-3.823022	-0.260067	-0.258571
C14	C	-3.864613	-0.353846	-0.258103
C15	C	-4.015564	-0.694593	-0.256392
C16	C	-4.219655	-0.664059	-0.261369
C17	C	-4.176720	-0.566570	-0.262183
C18	C	-3.940676	-0.525545	-0.257240
C19	C	-3.889203	-0.571192	-0.335744
C20	C	-3.933898	-0.668809	-0.335355
C21	C	-3.845531	-0.643261	-0.173498
C22	C	-3.805855	-0.545609	-0.173011
C23	C	-3.898343	-0.430006	-0.257722
C24	C	-4.057894	-0.790133	-0.255915
C25	C	-3.823166	-0.111829	-0.407292
C26	C	-3.864846	-0.111363	-0.501372
C27	C	-3.775408	-0.105798	-0.724176
C28	C	-3.931760	-0.177626	-0.793836
C29	C	-3.941232	-0.110490	-0.673618
C30	C	-3.859171	-0.037839	-0.771593
C31	C	-4.015000	-0.109642	-0.839999
C32	C	-4.097065	-0.182382	-0.742049
C33	C	-4.024415	-0.042532	-0.719789
C34	C	-4.180903	-0.114380	-0.789430
C35	C	-3.898730	-0.110979	-0.577770
C36	C	-4.057519	-0.109159	-0.935847
C37	C	-4.153980	0.039930	-0.255055
C38	C	-4.091627	0.133709	-0.255529
C39	C	-4.153836	-0.108306	-0.106332
C40	C	-4.091394	-0.108768	-0.012251
H41	H	-4.282904	-0.554483	-0.322634
H42	H	-4.053148	-0.702997	-0.397763
H43	H	-3.893036	-0.234742	-0.826069
Cl44	Cl	-3.510242	-0.100337	-0.680184
H45	H	-3.631879	-0.516644	-0.164485
H46	H	-4.197227	-0.243535	-0.728739
Cl47	Cl	-4.446251	-0.120008	-0.833213
Cl48	Cl	-3.921823	-0.668823	-0.080787
H49	H	-4.063060	0.014587	-0.687534
Cl50	Cl	-3.704508	0.056474	-0.792318
H51	H	-4.346515	-0.699760	-0.321169
H52	H	-4.286331	-0.680438	-0.205053
Cl53	Cl	-4.246117	-0.518544	-0.175557
H54	H	-3.784821	-0.689184	-0.335189
Cl55	Cl	-3.625812	-0.530200	-0.334776
H56	H	-3.985627	-0.558099	-0.398078
Cl57	Cl	-3.864945	-0.498149	-0.083276
Cl58	Cl	-3.610577	-0.672838	-0.166651
