data_functionalizedCrystal
_audit_creation_method	'MofGen! by Chris Wilmer'
_symmetry_space_group_name_H-M	'P1'
_symmetry_Int_Tables_number	1
_symmetry_cell_setting	triclinic
loop_
_symmetry_equiv_pos_as_xyz
  x,y,z
_cell_length_a	14.519731
_cell_length_b	27.732048
_cell_length_c	13.596369
_cell_angle_alpha	90.010933
_cell_angle_beta	89.993567
_cell_angle_gamma	96.834246
loop_
_atom_site_label
_atom_site_type_symbol
_atom_site_fract_x
_atom_site_fract_y
_atom_site_fract_z
O1	O	-1.222753	0.063411	0.081828
O2	O	-0.954149	0.070862	0.081826
O3	O	-1.096793	-0.003220	0.081808
O4	O	-1.080109	0.137493	0.081845
O5	O	-1.096779	-0.003224	-0.081775
O6	O	-0.954135	0.070858	-0.081757
O7	O	-1.222739	0.063407	-0.081755
Zn8	Zn	-1.088435	0.067132	-0.107729
Zn9	Zn	-1.088453	0.067137	0.107799
O10	O	-1.080095	0.137489	-0.081738
C11	C	-0.919789	0.070511	0.000033
C12	C	-0.817427	0.069465	0.000032
C13	C	-1.096436	-0.021231	0.000014
C14	C	-1.095382	-0.074890	0.000006
C15	C	-0.734297	0.068615	0.000034
C16	C	-0.630007	0.067553	0.000032
C17	C	-0.546883	0.066710	0.000030
C18	C	-0.442586	0.065647	0.000030
C19	C	-1.173036	-0.413331	0.000057
C20	C	-1.169123	-0.615010	0.000071
O21	O	-1.240132	-0.645923	0.000114
N22	N	-1.084541	-0.634541	0.000069
C23	C	-1.000931	-0.603649	0.000070
O24	O	-0.928899	-0.624890	0.000079
C25	C	-1.004845	-0.401972	0.000064
C26	C	-1.089432	-0.382444	0.000055
C27	C	-1.257616	-0.393802	0.000050
C28	C	-1.258594	-0.343386	0.000041
C29	C	-1.174990	-0.312498	0.000039
C30	C	-1.090410	-0.332027	0.000047
C31	C	-0.921236	-0.371081	0.000072
C32	C	-0.922222	-0.320659	0.000073
C33	C	-1.006809	-0.301131	0.000065
C34	C	-1.007784	-0.250723	0.000036
N35	N	-1.092366	-0.231191	0.000038
C36	C	-1.175969	-0.262079	0.000039
C37	C	-0.998882	-0.709533	0.000072
C38	C	-0.997903	-0.759953	0.000072
C39	C	-1.166096	-0.771309	0.000074
C40	C	-1.167073	-0.720889	0.000067
C41	C	-1.083464	-0.690002	0.000073
C42	C	-1.178015	-0.156200	0.000020
C43	C	-1.178985	-0.105778	0.000007
C44	C	-1.010793	-0.094426	0.000010
C45	C	-1.009823	-0.144843	0.000018
C46	C	-1.093441	-0.175729	0.000026
O47	O	-0.936812	-0.219781	0.000004
O48	O	-1.247991	-0.240829	0.000052
C49	C	-1.172058	-0.463748	0.000066
C50	C	-1.087478	-0.483277	0.000073
C51	C	-1.003874	-0.452389	0.000071
C52	C	-1.086499	-0.533696	0.000073
C53	C	-1.170102	-0.564584	0.000074
C54	C	-1.254685	-0.545052	0.000076
C55	C	-1.255662	-0.494636	0.000067
C56	C	-0.919292	-0.471921	0.000070
C57	C	-0.918322	-0.522338	0.000077
C58	C	-1.001925	-0.553225	0.000079
C59	C	-0.257099	0.063758	0.000034
C60	C	-0.359462	0.064804	0.000028
C61	C	-1.080452	0.155500	0.000059
C62	C	-1.081507	0.209160	0.000073
N63	N	-1.088429	0.067128	-0.254820
C64	C	-1.088452	0.067138	-0.656111
C65	C	-1.088443	0.067137	-0.544460
C66	C	-1.088441	0.067133	-0.455469
C67	C	-1.088431	0.067132	-0.343811
N68	N	-1.088467	0.067137	0.254891
H69	H	-1.247869	-0.089881	-0.000002
O70	O	-0.927635	-0.163794	0.000195
C71	C	-0.783572	-0.169474	0.084929
C72	C	-0.876625	-0.147993	0.084848
H73	H	-0.742296	-0.156699	0.153352
H74	H	-0.797179	-0.210818	0.085007
H75	H	-0.742323	-0.156781	0.016437
H76	H	-0.917922	-0.160649	0.153327
H77	H	-0.862953	-0.106652	0.084719
O78	O	-0.929610	-0.064396	0.000186
C79	C	-0.833164	-0.000844	0.084915
C80	C	-0.925127	-0.034834	0.084840
H81	H	-0.829518	0.023073	0.153340
H82	H	-0.772498	-0.023433	0.084986
H83	H	-0.829424	0.023017	0.016424
H84	H	-0.928958	-0.058702	0.153319
H85	H	-0.985750	-0.012216	0.084718
O86	O	-1.338812	-0.423822	0.000224
C87	C	-1.435335	-0.487343	0.084929
C88	C	-1.343350	-0.453371	0.084875
H89	H	-1.439025	-0.511250	0.153351
H90	H	-1.495981	-0.464739	0.084988
H91	H	-1.439070	-0.511215	0.016436
H92	H	-1.339524	-0.429493	0.153356
H93	H	-1.282748	-0.476004	0.084764
O94	O	-1.259181	-0.186247	-0.000108
C95	C	-1.355721	-0.249745	-0.084887
C96	C	-1.263760	-0.215753	-0.084845
H97	H	-1.359462	-0.273602	-0.153400
H98	H	-1.359500	-0.273660	-0.016472
H99	H	-1.416317	-0.227109	-0.084847
H100	H	-1.203111	-0.238351	-0.084919
H101	H	-1.260062	-0.191836	-0.153254
H102	H	-1.327474	-0.327491	0.000038
H103	H	-0.929024	-0.775848	0.000061
O104	O	-0.917681	-0.679514	0.000246
C105	C	-0.821179	-0.615977	0.084958
C106	C	-0.913163	-0.649950	0.084899
H107	H	-0.817505	-0.592059	0.153382
H108	H	-0.760532	-0.638580	0.085017
H109	H	-0.817433	-0.592117	0.016467
H110	H	-0.917000	-0.673818	0.153379
H111	H	-0.973767	-0.627319	0.084788
O112	O	-1.337807	-0.475646	-0.000106
C113	C	-1.436514	-0.425309	-0.084820
C114	C	-1.343457	-0.446786	-0.084761
H115	H	-1.441104	-0.401963	-0.153245
H116	H	-1.496129	-0.456033	-0.084878
H117	H	-1.441174	-0.402002	-0.016330
H118	H	-1.338706	-0.470087	-0.153239
H119	H	-1.283887	-0.416039	-0.084651
O120	O	-1.249322	-0.702002	0.000112
C121	C	-1.416041	-0.718601	0.000058
C122	C	-1.322956	-0.740052	0.000025
H123	H	-1.475598	-0.749355	-0.000033
H124	H	-1.420776	-0.695295	0.068537
H125	H	-1.420655	-0.695268	-0.068382
H126	H	-1.318280	-0.763407	0.068418
H127	H	-1.318260	-0.763331	-0.068499
H128	H	-1.234169	-0.796467	0.000075
H129	H	-0.852356	-0.386972	0.000085
H130	H	-0.854135	-0.295513	0.000080
H131	H	-1.322757	-0.570210	0.000073
H132	H	-0.849435	-0.538232	0.000076
H133	H	-0.851211	-0.446776	0.000071
