data_functionalizedCrystal
_audit_creation_method	'MofGen! by Chris Wilmer'
_symmetry_space_group_name_H-M	'P1'
_symmetry_Int_Tables_number	1
_symmetry_cell_setting	triclinic
loop_
_symmetry_equiv_pos_as_xyz
  x,y,z
_cell_length_a	19.805407
_cell_length_b	13.897448
_cell_length_c	19.805399
_cell_angle_alpha	89.974981
_cell_angle_beta	89.980427
_cell_angle_gamma	90.017692
loop_
_atom_site_label
_atom_site_type_symbol
_atom_site_fract_x
_atom_site_fract_y
_atom_site_fract_z
Zn1	Zn	1.034777	-0.384037	-0.382732
Zn2	Zn	1.534777	0.115963	0.117268
Zn3	Zn	1.034709	-0.545343	-0.269549
Zn4	Zn	1.534709	-0.045343	0.230451
Zn5	Zn	0.921591	-0.384064	-0.269556
Zn6	Zn	1.421591	0.115936	0.230444
Zn7	Zn	0.921572	-0.545292	-0.382695
Zn8	Zn	1.421572	-0.045292	0.117305
O9	O	0.978162	-0.464684	-0.326133
O10	O	1.478162	0.035316	0.173867
O11	O	1.129484	-0.405445	-0.367730
O12	O	1.629484	0.094555	0.132270
O13	O	1.019683	-0.523982	-0.174833
O14	O	1.519683	-0.023982	0.325167
O15	O	0.936642	-0.249079	-0.284588
O16	O	1.436642	0.250921	0.215412
O17	O	1.129434	-0.523956	-0.284575
O18	O	1.629434	-0.023956	0.215425
O19	O	1.019799	-0.249059	-0.367737
O20	O	1.519799	0.250941	0.132263
O21	O	0.936576	-0.405490	-0.174839
O22	O	1.436576	0.094510	0.325161
O23	O	0.826872	-0.405441	-0.284552
O24	O	1.326872	0.094559	0.215448
O25	O	0.936609	-0.523869	-0.477417
O26	O	1.436609	-0.023869	0.022583
O27	O	0.826858	-0.523894	-0.367675
O28	O	1.326858	-0.023894	0.132325
O29	O	1.019780	-0.405395	-0.477443
O30	O	1.519780	0.094605	0.022557
O31	O	1.019664	-0.680318	-0.284539
O32	O	1.519664	-0.180318	0.215461
O33	O	0.936543	-0.680280	-0.367668
O34	O	1.436543	-0.180280	0.132332
C35	C	0.802306	-0.464666	-0.326111
C36	C	1.302306	0.035334	0.173889
C37	C	0.727074	-0.464681	-0.326118
C38	C	1.227074	0.035319	0.173882
C39	C	0.691740	-0.526453	-0.369330
C40	C	1.191740	-0.026453	0.130670
C41	C	0.621052	-0.526454	-0.369339
C42	C	1.121052	-0.026454	0.130661
C43	C	0.585699	-0.464688	-0.326133
C44	C	1.085699	0.035312	0.173867
C45	C	0.621037	-0.402910	-0.282919
C46	C	1.121037	0.097090	0.217081
C47	C	0.691725	-0.402904	-0.282913
C48	C	1.191725	0.097096	0.217087
C49	C	0.335964	-0.402931	-0.282941
C50	C	0.835964	0.097069	0.217059
C51	C	0.265272	-0.402944	-0.282949
C52	C	0.765272	0.097056	0.217051
C53	C	0.265292	-0.526481	-0.369367
C54	C	0.765292	-0.026481	0.130633
C55	C	0.335979	-0.526476	-0.369362
C56	C	0.835979	-0.026476	0.130638
C57	C	0.371311	-0.464694	-0.326151
C58	C	0.871311	0.035306	0.173849
C59	C	0.447960	-0.464692	-0.326142
C60	C	0.947960	0.035308	0.173858
C61	C	0.509051	-0.464695	-0.326138
C62	C	1.009051	0.035305	0.173862
C63	C	0.978113	-0.715298	-0.326113
C64	C	1.478113	-0.215298	0.173887
C65	C	0.978154	-0.822512	-0.326128
C66	C	1.478154	-0.322512	0.173872
C67	C	0.978225	-1.018807	-0.326170
C68	C	1.478225	-0.518807	0.173830
C69	C	0.978183	-0.909575	-0.326149
C70	C	1.478183	-0.409575	0.173851
C71	C	1.154705	-0.464703	-0.326155
C72	C	1.654705	0.035297	0.173845
C73	C	1.229937	-0.464711	-0.326165
C74	C	1.729937	0.035289	0.173835
C75	C	0.978200	-0.464623	-0.502676
C76	C	1.478200	0.035377	-0.002676
C77	C	0.978216	-0.464597	-0.577908
C78	C	1.478216	0.035403	-0.077908
C79	C	0.978230	-0.213091	-0.326167
C80	C	1.478230	0.286909	0.173833
C81	C	0.978259	-0.105877	-0.326182
C82	C	1.478259	0.394123	0.173818
C83	C	1.021524	-0.402905	-0.613267
C84	C	1.521524	0.097095	-0.113267
C85	C	1.021531	-0.402877	-0.683955
C86	C	1.521531	0.097123	-0.183955
C87	C	0.978233	-0.464547	-0.719283
C88	C	1.478233	0.035453	-0.219283
C89	C	0.934920	-0.526242	-0.683919
C90	C	1.434920	-0.026242	-0.183919
C91	C	0.934910	-0.526264	-0.613232
C92	C	1.434910	-0.026264	-0.113232
C93	C	0.934958	-0.526152	-0.968993
C94	C	1.434958	-0.026152	-0.468993
C95	C	0.934973	-0.526127	-1.039685
C96	C	1.434973	-0.026127	-0.539685
C97	C	1.021579	-0.402765	-1.039716
C98	C	1.521579	0.097235	-0.539716
C99	C	1.021570	-0.402787	-0.969029
C100	C	1.521570	0.097213	-0.469029
C101	C	0.978255	-0.464478	-0.933671
C102	C	1.478255	0.035522	-0.433671
C103	C	0.978247	-0.464507	-0.857022
C104	C	1.478247	0.035493	-0.357022
C105	C	0.978244	-0.464524	-0.795931
C106	C	1.478244	0.035476	-0.295931
C107	C	0.978163	-0.464675	-0.150277
C108	C	1.478163	0.035325	0.349723
C109	C	0.978278	-0.464429	-0.075045
C110	C	1.478278	0.035571	0.424955
H111	H	0.364723	-0.352632	-0.247751
H112	H	0.864723	0.147368	0.252249
H113	H	0.236489	-0.352641	-0.247765
H114	H	0.736489	0.147359	0.252235
C115	C	0.582154	-0.334965	-0.235393
C116	C	1.082154	0.165035	0.264607
H117	H	0.613323	-0.298168	-0.209662
H118	H	1.113323	0.201832	0.290338
H119	H	0.554560	-0.371808	-0.205858
H120	H	1.054560	0.128192	0.294142
H121	H	0.554598	-0.292985	-0.261344
H122	H	1.054598	0.207015	0.238656
H123	H	0.720520	-0.576753	-0.404511
H124	H	1.220520	-0.076753	0.095489
C125	C	0.730592	-0.334954	-0.235382
C126	C	1.230592	0.165046	0.264618
H127	H	0.699414	-0.298174	-0.209647
H128	H	1.199414	0.201826	0.290353
H129	H	0.758184	-0.292974	-0.261326
H130	H	1.258184	0.207026	0.238674
H131	H	0.758149	-0.371796	-0.205839
H132	H	1.258149	0.128204	0.294161
H133	H	0.899699	-0.576398	-0.940213
H134	H	1.399699	-0.076398	-0.440213
C135	C	0.374864	-0.594414	-0.416890
C136	C	0.874864	-0.094414	0.083110
H137	H	0.343696	-0.631198	-0.442633
H138	H	0.843696	-0.131198	0.057367
H139	H	0.402423	-0.636392	-0.390948
H140	H	0.902423	-0.136392	0.109052
H141	H	0.402455	-0.557558	-0.446426
H142	H	0.902455	-0.057558	0.053574
H143	H	0.899664	-0.576451	-0.712689
H144	H	1.399664	-0.076451	-0.212689
C145	C	0.887288	-0.594149	-0.574337
C146	C	1.387288	-0.094149	-0.074337
H147	H	0.861511	-0.630887	-0.605500
H148	H	1.361511	-0.130887	-0.105500
H149	H	0.857799	-0.557276	-0.546754
H150	H	1.357799	-0.057276	-0.046754
H151	H	0.913183	-0.636186	-0.546769
H152	H	1.413183	-0.136186	-0.046769
C153	C	1.069195	-0.334948	-0.930172
C154	C	1.569195	0.165052	-0.430172
H155	H	1.094985	-0.298194	-0.961355
H156	H	1.594985	0.201806	-0.461355
H157	H	1.098672	-0.371854	-0.902595
H158	H	1.598672	0.128146	-0.402595
H159	H	1.043303	-0.292924	-0.902600
H160	H	1.543303	0.207076	-0.402600
C161	C	1.069221	-0.334899	-1.078612
C162	C	1.569221	0.165101	-0.578612
H163	H	1.063024	-0.343707	-1.125770
H164	H	1.563024	0.156293	-0.625770
H165	H	1.114692	-0.349028	-1.067034
H166	H	1.614692	0.150972	-0.567034
H167	H	1.059330	-0.270088	-1.067032
H168	H	1.559330	0.229912	-0.567032
C169	C	1.069150	-0.335063	-0.574412
C170	C	1.569150	0.164937	-0.074412
H171	H	1.094938	-0.298311	-0.605598
H172	H	1.594938	0.201689	-0.105598
H173	H	1.098629	-0.371967	-0.546835
H174	H	1.598629	0.128033	-0.046835
H175	H	1.043258	-0.293038	-0.546841
H176	H	1.543258	0.206962	-0.046841
C177	C	1.069186	-0.335042	-0.722851
C178	C	1.569186	0.164958	-0.222851
H179	H	1.062991	-0.343858	-0.770009
H180	H	1.562991	0.156142	-0.270009
H181	H	1.114652	-0.349191	-0.711267
H182	H	1.614652	0.150809	-0.211267
H183	H	1.059309	-0.270224	-0.711280
H184	H	1.559309	0.229776	-0.211280
C185	C	0.582188	-0.594462	-0.416831
C186	C	1.082188	-0.094462	0.083169
H187	H	0.613367	-0.631272	-0.442544
H188	H	1.113367	-0.131272	0.057456
H189	H	0.554612	-0.557678	-0.446386
H190	H	1.054612	-0.057678	0.053614
H191	H	0.554615	-0.636426	-0.390847
H192	H	1.054615	-0.136426	0.109153
C193	C	0.226424	-0.594431	-0.416906
C194	C	0.726424	-0.094431	0.083094
H195	H	0.179262	-0.585584	-0.410730
H196	H	0.679262	-0.085584	0.089270
H197	H	0.237992	-0.659221	-0.406920
H198	H	0.737992	-0.159221	0.093080
H199	H	0.238034	-0.580393	-0.462401
H200	H	0.738034	-0.080393	0.037599
H201	H	0.899712	-0.576347	-1.068447
H202	H	1.399712	-0.076347	-0.568447
