data_functionalizedCrystal
_audit_creation_method	'MofGen! by Chris Wilmer'
_symmetry_space_group_name_H-M	'P1'
_symmetry_Int_Tables_number	1
_symmetry_cell_setting	triclinic
loop_
_symmetry_equiv_pos_as_xyz
  x,y,z
_cell_length_a	19.077105
_cell_length_b	10.686285
_cell_length_c	19.077569
_cell_angle_alpha	83.146359
_cell_angle_beta	85.299277
_cell_angle_gamma	83.162422
loop_
_atom_site_label
_atom_site_type_symbol
_atom_site_fract_x
_atom_site_fract_y
_atom_site_fract_z
Zn1	Zn	1.116552	-0.552740	-0.419179
Zn2	Zn	1.616552	-0.052740	0.080821
Zn3	Zn	1.120843	-0.773201	-0.292247
Zn4	Zn	1.620843	-0.273201	0.207753
Zn5	Zn	0.993935	-0.552758	-0.296574
Zn6	Zn	1.493935	-0.052758	0.203426
Zn7	Zn	1.007059	-0.756730	-0.406043
Zn8	Zn	1.507059	-0.256730	0.093957
O9	O	1.059597	-0.658857	-0.353511
O10	O	1.559597	-0.158857	0.146489
O11	O	1.216056	-0.588870	-0.406029
O12	O	1.716056	-0.088870	0.093971
O13	O	1.100312	-0.750860	-0.193887
O14	O	1.600312	-0.250860	0.306113
O15	O	1.002913	-0.375129	-0.320147
O16	O	1.502913	0.124871	0.179853
O17	O	1.219208	-0.750842	-0.312772
O18	O	1.719208	-0.250842	0.187228
O19	O	1.092999	-0.375115	-0.410224
O20	O	1.592999	0.124885	0.089776
O21	O	1.007073	-0.588901	-0.197066
O22	O	1.507073	-0.088901	0.302934
O23	O	0.896741	-0.572930	-0.307408
O24	O	1.396741	-0.072930	0.192592
O25	O	1.025280	-0.722769	-0.506720
O26	O	1.525280	-0.222769	-0.006720
O27	O	0.906383	-0.722787	-0.387834
O28	O	1.406383	-0.222787	0.112166
O29	O	1.105724	-0.572899	-0.516371
O30	O	1.605724	-0.072899	-0.016371
O31	O	1.113037	-0.948643	-0.300034
O32	O	1.613037	-0.448643	0.199966
O33	O	1.029440	-0.936542	-0.383639
O34	O	1.529440	-0.436542	0.116361
C35	C	0.875910	-0.646074	-0.346666
C36	C	1.375910	-0.146074	0.153334
C37	C	0.797329	-0.640635	-0.343753
C38	C	1.297329	-0.140635	0.156247
C39	C	0.765453	-0.716229	-0.384182
C40	C	1.265453	-0.216229	0.115818
C41	C	0.691618	-0.711101	-0.381449
C42	C	1.191618	-0.211101	0.118551
C43	C	0.649660	-0.630385	-0.338283
C44	C	1.149660	-0.130385	0.161717
C45	C	0.681541	-0.554782	-0.297853
C46	C	1.181541	-0.054782	0.202147
C47	C	0.755375	-0.559904	-0.300590
C48	C	1.255375	-0.059904	0.199410
C49	C	0.428300	-0.606679	-0.325618
C50	C	0.928300	-0.106679	0.174382
C51	C	0.354461	-0.601566	-0.322883
C52	C	0.854461	-0.101566	0.177117
C53	C	0.364542	-0.757885	-0.406480
C54	C	0.864542	-0.257885	0.093520
C55	C	0.438377	-0.763005	-0.409211
C56	C	0.938377	-0.263005	0.090789
C57	C	0.470252	-0.687397	-0.368783
C58	C	0.970252	-0.187397	0.131217
N59	N	0.574189	-0.625144	-0.335487
N60	N	1.074189	-0.125144	0.164513
N61	N	0.545722	-0.692632	-0.371583
N62	N	1.045722	-0.192632	0.128417
C63	C	1.073148	-0.988650	-0.339957
C64	C	1.573148	-0.488650	0.160043
C65	C	1.079011	-1.129739	-0.334185
C66	C	1.579011	-0.629739	0.165815
C67	C	1.244002	-0.671691	-0.360383
C68	C	1.744002	-0.171691	0.139617
C69	C	1.322585	-0.677161	-0.363312
C70	C	1.822585	-0.177161	0.136688
C71	C	1.066488	-0.645995	-0.537915
C72	C	1.566488	-0.145995	-0.037915
C73	C	1.069424	-0.640513	-0.616497
C74	C	1.569424	-0.140513	-0.116497
C75	C	1.046013	-0.327777	-0.367134
C76	C	1.546013	0.172223	0.132866
C77	C	1.040225	-0.186691	-0.372939
C78	C	1.540225	0.313309	0.127061
C79	C	1.028921	-0.715962	-0.648392
C80	C	1.528921	-0.215962	-0.148392
C81	C	1.031686	-0.710812	-0.722228
C82	C	1.531686	-0.210812	-0.222228
C83	C	1.074950	-0.630206	-0.764169
C84	C	1.574950	-0.130206	-0.264169
C85	C	1.115457	-0.554755	-0.732270
C86	C	1.615457	-0.054755	-0.232270
C87	C	1.112696	-0.559912	-0.658435
C88	C	1.612696	-0.059912	-0.158435
C89	C	1.087703	-0.606420	-0.985533
C90	C	1.587703	-0.106420	-0.485533
C91	C	1.090460	-0.601266	-1.059373
C92	C	1.590460	-0.101266	-0.559373
C93	C	1.006689	-0.757326	-1.049326
C94	C	1.506689	-0.257326	-0.549326
C95	C	1.003928	-0.762470	-0.975490
C96	C	1.503928	-0.262470	-0.475490
C97	C	1.044438	-0.687024	-0.943597
C98	C	1.544438	-0.187024	-0.443597
N99	N	1.077775	-0.624937	-0.839642
N100	N	1.577775	-0.124937	-0.339642
N101	N	1.041616	-0.692300	-0.868125
N102	N	1.541616	-0.192300	-0.368125
C103	C	1.052771	-0.671581	-0.169829
C104	C	1.552771	-0.171581	0.330171
C105	C	1.049957	-0.676714	-0.091267
C106	C	1.549957	-0.176714	0.408733
H107	H	0.472535	-0.828736	-0.444359
H108	H	0.972535	-0.328736	0.055641
H109	H	0.993681	-0.781584	-0.614249
H110	H	1.493681	-0.281584	-0.114249
H111	H	0.998705	-0.772252	-0.748193
H112	H	1.498705	-0.272252	-0.248193
H113	H	1.116699	-1.188924	-0.296582
H114	H	1.616699	-0.688924	0.203418
C115	C	0.767994	-0.870214	-0.466546
C116	C	1.267994	-0.370214	0.033454
C117	C	0.811569	-0.804952	-0.431635
C118	C	1.311569	-0.304952	0.068365
H119	H	0.796464	-0.924979	-0.495847
H120	H	1.296464	-0.424979	0.004153
H121	H	0.740032	-0.918836	-0.432640
H122	H	1.240032	-0.418836	0.067360
H123	H	0.737940	-0.811081	-0.494838
H124	H	1.237940	-0.311081	0.005162
H125	H	0.841619	-0.864085	-0.403338
H126	H	1.341619	-0.364085	0.096662
H127	H	0.839543	-0.756327	-0.465545
H128	H	1.339543	-0.256327	0.034455
H129	H	0.968709	-0.828129	-0.941345
H130	H	1.468709	-0.328129	-0.441345
H131	H	0.973708	-0.818750	-1.075301
H132	H	1.473708	-0.318750	-0.575301
C133	C	0.255837	-0.819436	-0.439411
C134	C	0.755837	-0.319436	0.060589
C135	C	0.329503	-0.840976	-0.450924
C136	C	0.829503	-0.340976	0.049076
H137	H	0.234208	-0.870729	-0.466855
H138	H	0.734208	-0.370729	0.033145
H139	H	0.242712	-0.840363	-0.390691
H140	H	0.742712	-0.340363	0.109309
H141	H	0.240631	-0.732609	-0.452890
H142	H	0.740631	-0.232609	0.047110
H143	H	0.344710	-0.927802	-0.437439
H144	H	0.844710	-0.427802	0.062561
H145	H	0.342634	-0.820058	-0.499654
H146	H	0.842634	-0.320058	0.000346
H147	H	1.120690	-0.544987	-0.959574
H148	H	1.620690	-0.044987	-0.459574
H149	H	1.125688	-0.535615	-1.093520
H150	H	1.625688	-0.035615	-0.593520
H151	H	1.150688	-0.489129	-0.766424
H152	H	1.650688	0.010871	-0.266424
H153	H	1.002534	-1.127514	-0.410534
H154	H	1.502534	-0.627514	0.089466
C155	C	0.507013	-0.601156	-0.234346
C156	C	1.007013	-0.101156	0.265654
C157	C	0.463328	-0.523580	-0.281175
C158	C	0.963328	-0.023580	0.218825
H159	H	0.528642	-0.549849	-0.206910
H160	H	1.028642	-0.049849	0.293090
H161	H	0.479463	-0.656271	-0.203920
H162	H	0.979463	-0.156271	0.296080
H163	H	0.542570	-0.649946	-0.260453
H164	H	1.042570	-0.149946	0.239547
H165	H	0.427769	-0.474797	-0.255067
H166	H	0.927769	0.025203	0.244933
H167	H	0.490880	-0.468443	-0.311605
H168	H	0.990880	0.031557	0.188395
C169	C	1.195770	-0.405126	-0.675777
C170	C	1.695770	0.094874	-0.175777
C171	C	1.157215	-0.476971	-0.623374
C172	C	1.657215	0.023029	-0.123374
H173	H	1.223253	-0.353918	-0.654131
H174	H	1.723253	0.146082	-0.154131
H175	H	1.226158	-0.460300	-0.703307
H176	H	1.726158	0.039700	-0.203307
H177	H	1.164044	-0.352418	-0.705426
H178	H	1.664044	0.147582	-0.205426
H179	H	1.188941	-0.529686	-0.593728
H180	H	1.688941	-0.029686	-0.093728
H181	H	1.126825	-0.421791	-0.595832
H182	H	1.626825	0.078209	-0.095832
C183	C	0.651758	-0.499373	-0.179907
C184	C	1.151758	0.000627	0.320093
C185	C	0.635423	-0.466053	-0.250404
C186	C	1.135423	0.033947	0.249596
H187	H	0.623289	-0.444590	-0.150615
H188	H	1.123289	0.055410	0.349385
H189	H	0.642768	-0.584506	-0.165535
H190	H	1.142768	-0.084506	0.334465
H191	H	0.700294	-0.491597	-0.175761
H192	H	1.200294	0.008403	0.324239
H193	H	0.586888	-0.473838	-0.254552
H194	H	1.086888	0.026162	0.245448
H195	H	0.644407	-0.380899	-0.264781
H196	H	1.144407	0.119101	0.235219
H197	H	0.665668	-0.772660	-0.414370
H198	H	1.165668	-0.272660	0.085630
H199	H	0.320300	-0.535822	-0.287737
H200	H	0.820300	-0.035822	0.212263
H201	H	0.781327	-0.498340	-0.267672
H202	H	1.281327	0.001660	0.232328
