data_functionalizedCrystal
_audit_creation_method	'MofGen! by Chris Wilmer'
_symmetry_space_group_name_H-M	'P1'
_symmetry_Int_Tables_number	1
_symmetry_cell_setting	triclinic
loop_
_symmetry_equiv_pos_as_xyz
  x,y,z
_cell_length_a	9.065218
_cell_length_b	19.288865
_cell_length_c	17.766277
_cell_angle_alpha	89.988397
_cell_angle_beta	89.990588
_cell_angle_gamma	84.076066
loop_
_atom_site_label
_atom_site_type_symbol
_atom_site_fract_x
_atom_site_fract_y
_atom_site_fract_z
O1	O	1.956844	0.101842	-0.062606
O2	O	2.456844	0.601842	0.437394
O3	O	1.527266	0.110195	-0.062608
O4	O	2.027266	0.610195	0.437392
O5	O	1.754468	0.004985	-0.062592
O6	O	2.254468	0.504985	0.437408
O7	O	1.729642	0.207053	-0.062622
O8	O	2.229642	0.707053	0.437378
O9	O	1.754428	0.004979	0.062596
O10	O	2.254428	0.504979	0.562596
O11	O	1.527227	0.110190	0.062580
O12	O	2.027227	0.610190	0.562580
O13	O	1.956804	0.101836	0.062582
O14	O	2.456804	0.601836	0.562582
Cu15	Cu	1.742012	0.106013	0.074012
Cu16	Cu	2.242012	0.606013	0.574012
Cu17	Cu	1.742059	0.106019	-0.074038
Cu18	Cu	2.242059	0.606019	0.425962
O19	O	1.729603	0.207047	0.062566
O20	O	2.229603	0.707047	0.562566
C21	C	1.472288	0.109390	-0.000014
C22	C	1.972288	0.609390	0.499986
C23	C	1.308529	0.106989	-0.000014
C24	C	1.808529	0.606989	0.499986
C25	C	1.753649	-0.020901	0.000004
C26	C	2.253649	0.479099	0.500004
C27	C	1.751251	-0.098023	0.000011
C28	C	2.251251	0.401977	0.500011
C29	C	1.884563	-0.141684	0.000015
C30	C	2.384563	0.358316	0.500015
C31	C	1.882310	-0.214149	0.000003
C32	C	2.382310	0.285851	0.500003
C33	C	1.746738	-0.242949	0.000002
C34	C	2.246738	0.257051	0.500002
C35	C	1.613409	-0.199278	-0.000006
C36	C	2.113409	0.300722	0.499994
C37	C	1.615666	-0.126815	-0.000002
C38	C	2.115666	0.373185	0.499998
C39	C	1.640149	-0.352066	0.043852
C40	C	2.140149	0.147934	0.543852
C41	C	1.637898	-0.424528	0.043853
C42	C	2.137898	0.075472	0.543853
C43	C	1.739773	-0.466448	-0.000015
C44	C	2.239773	0.033552	0.499985
C45	C	1.843923	-0.435900	-0.043873
C46	C	2.343923	0.064100	0.456127
C47	C	1.846180	-0.363437	-0.043868
C48	C	2.346180	0.136563	0.456132
C49	C	1.744276	-0.321522	-0.000003
C50	C	2.244276	0.178478	0.499997
C51	C	1.870651	-0.588685	-0.000025
C52	C	2.370651	-0.088685	0.499975
C53	C	1.868392	-0.661150	-0.000041
C54	C	2.368392	-0.161150	0.499959
C55	C	1.599488	-0.646278	-0.000043
C56	C	2.099488	-0.146278	0.499957
C57	C	1.601750	-0.573814	-0.000034
C58	C	2.101750	-0.073814	0.499966
C59	C	1.737335	-0.545022	-0.000021
C60	C	2.237335	-0.045022	0.499979
C61	C	2.011782	0.102642	-0.000014
C62	C	2.511782	0.602642	0.499986
C63	C	2.175541	0.105043	-0.000019
C64	C	2.675541	0.605043	0.499981
C65	C	1.730421	0.232933	-0.000032
C66	C	2.230421	0.732933	0.499968
C67	C	1.732819	0.310055	-0.000043
C68	C	2.232819	0.810055	0.499957
N69	N	1.741989	0.106007	0.178142
N70	N	2.241989	0.606007	0.678142
N71	N	1.742093	0.106019	-0.178168
N72	N	2.242093	0.606019	0.321832
C73	C	1.842627	0.059444	0.217536
C74	C	2.342627	0.559444	0.717536
C75	C	1.842635	0.059440	0.296338
C76	C	2.342635	0.559440	0.796338
C77	C	1.742020	0.106013	0.335743
C78	C	2.242020	0.606013	0.835743
C79	C	1.641364	0.152581	0.296339
C80	C	2.141364	0.652581	0.796339
C81	C	1.641349	0.152578	0.217539
C82	C	2.141349	0.652578	0.717539
C83	C	1.722271	0.169148	0.460571
C84	C	2.222271	0.669148	0.960571
C85	C	1.722297	0.169151	0.539370
C86	C	2.222297	0.669151	1.039370
C87	C	1.742060	0.106022	0.578789
C88	C	2.242060	0.606022	1.078789
C89	C	1.761829	0.042886	0.539400
C90	C	2.261829	0.542886	1.039400
C91	C	1.761813	0.042883	0.460599
C92	C	2.261813	0.542883	0.960599
C93	C	1.742026	0.106021	0.421189
C94	C	2.242026	0.606021	0.921189
C95	C	1.842712	0.059451	0.703629
C96	C	2.342712	0.559451	1.203629
C97	C	1.842710	0.059447	0.782432
C98	C	2.342710	0.559447	1.282432
C99	C	1.641446	0.152593	0.782432
C100	C	2.141446	0.652593	1.282432
C101	C	1.641441	0.152591	0.703630
C102	C	2.141441	0.652591	1.203630
C103	C	1.742082	0.106021	0.664234
C104	C	2.242082	0.606021	1.164234
H105	H	1.994967	-0.118247	0.000023
H106	H	2.494967	0.381753	0.500023
H107	H	1.559499	0.190510	0.671554
H108	H	2.059499	0.690510	1.171554
H109	H	1.924570	0.021522	0.185462
H110	H	2.424570	0.521522	0.685462
Cl111	Cl	1.972002	-0.488592	-0.099026
Cl112	Cl	2.472002	0.011408	0.400974
Cl113	Cl	2.036000	-0.716040	-0.000041
Cl114	Cl	2.536000	-0.216040	0.499959
Cl115	Cl	2.049914	-0.269047	0.000008
Cl116	Cl	2.549914	0.230953	0.500008
H117	H	1.489102	-0.669726	-0.000048
H118	H	1.989102	-0.169726	0.499952
H119	H	1.930980	-0.338567	-0.079581
H120	H	2.430980	0.161433	0.420419
H121	H	1.559519	0.190510	0.814515
H122	H	2.059519	0.690510	1.314515
H123	H	1.924657	0.021525	0.814507
H124	H	2.424657	0.521525	1.314507
Cl125	Cl	1.969163	0.000898	0.345870
Cl126	Cl	2.469163	0.500898	0.845870
H127	H	1.777905	-0.008524	0.428531
H128	H	2.277905	0.491476	0.928531
Cl129	Cl	1.697456	0.248521	0.588881
Cl130	Cl	2.197456	0.748521	1.088881
Cl131	Cl	1.448060	-0.071923	-0.000007
Cl132	Cl	1.948060	0.428077	0.499993
Cl133	Cl	1.514825	0.211121	0.168012
Cl134	Cl	2.014825	0.711121	0.668012
H135	H	1.777921	-0.008520	0.571493
H136	H	2.277921	0.491480	1.071493
Cl137	Cl	1.434148	-0.518922	-0.000036
Cl138	Cl	1.934148	-0.018922	0.499964
H139	H	1.981053	-0.565241	-0.000017
H140	H	2.481053	-0.065241	0.499983
Cl141	Cl	1.506973	-0.462925	0.098991
Cl142	Cl	2.006973	0.037075	0.598991
Cl143	Cl	1.512068	-0.299372	0.099008
Cl144	Cl	2.012068	0.200628	0.599008
H145	H	1.503025	-0.222732	-0.000009
H146	H	2.003025	0.277268	0.499991
H147	H	1.924655	0.021528	0.671551
H148	H	2.424655	0.521528	1.171551
Cl149	Cl	1.697562	0.248521	0.411025
Cl150	Cl	2.197562	0.748521	0.911025
H151	H	1.559440	0.190500	0.328427
H152	H	2.059440	0.690500	0.828427
