data_functionalizedCrystal
_audit_creation_method	'MofGen! by Chris Wilmer'
_symmetry_space_group_name_H-M	'P1'
_symmetry_Int_Tables_number	1
_symmetry_cell_setting	triclinic
loop_
_symmetry_equiv_pos_as_xyz
  x,y,z
_cell_length_a	19.121215
_cell_length_b	19.121063
_cell_length_c	16.625539
_cell_angle_alpha	87.591339
_cell_angle_beta	92.466418
_cell_angle_gamma	95.002544
loop_
_atom_site_label
_atom_site_type_symbol
_atom_site_fract_x
_atom_site_fract_y
_atom_site_fract_z
Zn1	Zn	1.063758	-0.234338	0.519601
Zn2	Zn	1.058643	-0.352013	0.390270
Zn3	Zn	0.946087	-0.239371	0.379250
Zn4	Zn	0.941033	-0.356976	0.519527
O5	O	1.002380	-0.295674	0.452162
O6	O	1.161545	-0.245764	0.507088
O7	O	1.043686	-0.337100	0.275976
O8	O	0.965951	-0.140237	0.393287
O9	O	1.157788	-0.332220	0.412069
O10	O	1.052404	-0.136540	0.496403
O11	O	0.960992	-0.254342	0.267879
O12	O	0.846950	-0.259155	0.393215
O13	O	0.957339	-0.340679	0.632369
O14	O	0.843237	-0.345559	0.496276
O15	O	1.047504	-0.250577	0.632424
O16	O	1.038786	-0.451137	0.411997
O17	O	0.952379	-0.454783	0.506962
C18	C	0.819563	-0.303442	0.443542
C19	C	0.741352	-0.306782	0.439874
C20	C	0.298908	-0.327926	0.416670
C21	C	0.372396	-0.324784	0.420110
C22	C	0.411095	-0.278274	0.471389
C23	C	0.376304	-0.234898	0.519225
C24	C	0.302817	-0.238037	0.515780
C25	C	0.633074	-0.266545	0.484265
C26	C	0.706565	-0.263411	0.487708
C27	C	0.702652	-0.353296	0.388592
C28	C	0.629165	-0.356434	0.385155
C29	C	0.594380	-0.313055	0.432988
C30	C	0.486211	-0.275062	0.474908
C31	C	0.519265	-0.316263	0.429464
C32	C	0.994498	-0.478490	0.460686
C33	C	0.991191	-0.556697	0.464362
C34	C	1.034659	-0.591516	0.416691
C35	C	1.031553	-0.664999	0.420153
C36	C	0.984973	-0.703663	0.471284
C37	C	0.941503	-0.668839	0.518961
C38	C	0.944613	-0.595357	0.515502
C39	C	0.973332	-0.925628	0.484203
C40	C	0.970223	-0.999115	0.487656
C41	C	1.060275	-0.995270	0.388850
C42	C	1.063378	-0.921787	0.385392
C43	C	1.019910	-0.886969	0.433072
C44	C	0.981795	-0.778775	0.474823
C45	C	1.023092	-0.811858	0.429537
C46	C	1.185911	-0.287877	0.460816
C47	C	1.264122	-0.284554	0.464504
C48	C	1.002428	-0.295620	0.662471
C49	C	1.002449	-0.295597	0.752092
C50	C	1.010312	-0.112144	0.443624
C51	C	1.013692	-0.033934	0.439985
C52	C	1.002375	-0.295676	0.242671
C53	C	1.002499	-0.295495	0.153048
C54	C	1.002484	-0.295517	1.080265
C55	C	1.002472	-0.295541	0.988958
C56	C	1.002467	-0.295557	0.916182
C57	C	1.002454	-0.295581	0.824868
H58	H	1.072586	-0.560040	0.375051
N59	N	1.104668	-1.030846	0.340154
N60	N	1.101886	-1.096455	0.343245
H61	H	1.133241	-1.121582	0.308852
H62	H	0.274495	-0.202717	0.554729
H63	H	1.066949	-0.693345	0.381334
H64	H	1.101307	-0.890308	0.343758
H65	H	0.604761	-0.231226	0.523218
H66	H	0.937937	-0.897286	0.523024
H67	H	0.400716	-0.360100	0.381157
H68	H	0.487753	-0.354130	0.387710
H69	H	0.738072	-0.225532	0.529464
H70	H	0.517728	-0.237195	0.516662
N71	N	0.922631	-1.038601	0.539886
N72	N	0.883822	-1.007507	0.582449
H73	H	0.850209	-1.035393	0.619331
H74	H	0.903580	-0.700325	0.560596
N75	N	0.900211	-0.559799	0.564208
N76	N	0.858626	-0.594327	0.609859
H77	H	0.827267	-0.569215	0.644263
H78	H	0.407819	-0.197025	0.560974
N79	N	0.934201	-0.818274	0.527030
N80	N	0.869620	-0.812894	0.518167
H81	H	0.836006	-0.840793	0.555037
H82	H	0.267404	-0.365803	0.374917
N83	N	1.070659	-0.772369	0.377296
N84	N	1.065670	-0.780819	0.303059
H85	H	1.099261	-0.752924	0.266160
N86	N	0.589647	-0.403952	0.332776
N87	N	0.620716	-0.442676	0.290072
H88	H	0.592807	-0.476240	0.253082
N89	N	0.738196	-0.397599	0.339741
N90	N	0.803808	-0.394794	0.342822
H91	H	0.828912	-0.426084	0.308318
