data_functionalizedCrystal
_audit_creation_method	'MofGen! by Chris Wilmer'
_symmetry_space_group_name_H-M	'P1'
_symmetry_Int_Tables_number	1
_symmetry_cell_setting	triclinic
loop_
_symmetry_equiv_pos_as_xyz
  x,y,z
_cell_length_a	17.077404
_cell_length_b	29.839131
_cell_length_c	17.077396
_cell_angle_alpha	89.968087
_cell_angle_beta	89.980499
_cell_angle_gamma	90.041645
loop_
_atom_site_label
_atom_site_type_symbol
_atom_site_fract_x
_atom_site_fract_y
_atom_site_fract_z
Zn1	Zn	1.199954	-0.178851	-0.443824
Zn2	Zn	1.199818	-0.253981	-0.312550
Zn3	Zn	1.068685	-0.178866	-0.312572
Zn4	Zn	1.068611	-0.253955	-0.443774
O5	O	1.134267	-0.216413	-0.378180
O6	O	1.309782	-0.188821	-0.426422
O7	O	1.182398	-0.244035	-0.202706
O8	O	1.086186	-0.115997	-0.330013
O9	O	1.309683	-0.244020	-0.329976
O10	O	1.182628	-0.115986	-0.426443
O11	O	1.086055	-0.188848	-0.202722
O12	O	0.958829	-0.188822	-0.329964
O13	O	1.086059	-0.243974	-0.553627
O14	O	0.958774	-0.243989	-0.426358
O15	O	1.182556	-0.188796	-0.553664
O16	O	1.182325	-0.316845	-0.329927
O17	O	1.085928	-0.316825	-0.426336
C18	C	0.930319	-0.216405	-0.378158
C19	C	0.843069	-0.216412	-0.378168
C20	C	1.134125	-0.333136	-0.378141
C21	C	1.134136	-0.383070	-0.378151
C22	C	0.802071	-0.245181	-0.428279
C23	C	0.720091	-0.245182	-0.428292
C24	C	0.679110	-0.216416	-0.378188
C25	C	0.720114	-0.187644	-0.328074
C26	C	0.802093	-0.187641	-0.328066
C27	C	0.549244	-0.187653	-0.328093
C28	C	0.467259	-0.187657	-0.328100
C29	C	0.467242	-0.245194	-0.428319
C30	C	0.549221	-0.245191	-0.428311
C31	C	0.590219	-0.216420	-0.378196
C32	C	1.184552	-0.692711	-0.328053
C33	C	1.184649	-0.880384	-0.328083
O34	O	1.227402	-0.904647	-0.285459
N35	N	1.134430	-0.903855	-0.378239
C36	C	1.084186	-0.880405	-0.428394
O37	O	1.041479	-0.904675	-0.471061
C38	C	1.084094	-0.692733	-0.428367
C39	C	1.134311	-0.669264	-0.378203
C40	C	1.234766	-0.669242	-0.277893
C41	C	1.234738	-0.622327	-0.277883
C42	C	1.184497	-0.598880	-0.328033
C43	C	1.134283	-0.622349	-0.378193
C44	C	1.033855	-0.669284	-0.478526
C45	C	1.033837	-0.622363	-0.478516
C46	C	1.084055	-0.598894	-0.428352
C47	C	1.084014	-0.551987	-0.428332
N48	N	1.134233	-0.528516	-0.378177
C49	C	1.184475	-0.551962	-0.328027
C50	C	1.084237	-0.978936	-0.428404
C51	C	1.084259	-1.025854	-0.428410
C52	C	1.184723	-1.025829	-0.328100
C53	C	1.184697	-0.978911	-0.328090
C54	C	1.134457	-0.955465	-0.378248
C55	C	1.184412	-0.453437	-0.328009
C56	C	1.184378	-0.406517	-0.328001
C57	C	1.083917	-0.406545	-0.428314
C58	C	1.083948	-0.453461	-0.428319
C59	C	1.134202	-0.476905	-0.378164
O60	O	1.041290	-0.527695	-0.470941
O61	O	1.227188	-0.527685	-0.285378
C62	C	1.184580	-0.739627	-0.328063
C63	C	1.134366	-0.763095	-0.378223
C64	C	1.084125	-0.739649	-0.428373
C65	C	1.134388	-0.810013	-0.378229
C66	C	1.184630	-0.833460	-0.328079
C67	C	1.234849	-0.809989	-0.277923
C68	C	1.234822	-0.763073	-0.277913
C69	C	1.033905	-0.763120	-0.478529
C70	C	1.033937	-0.810035	-0.478534
C71	C	1.084178	-0.833482	-0.428384
C72	C	1.339011	-0.216422	-0.378202
C73	C	1.426261	-0.216425	-0.378212
C74	C	1.134314	-0.216380	-0.582924
C75	C	1.134335	-0.216366	-0.670174
C76	C	1.134431	-0.099235	-0.378236
C77	C	1.134500	-0.049300	-0.378260
C78	C	1.184582	-0.187632	-0.711185
C79	C	1.184592	-0.187617	-0.793165
C80	C	1.134357	-0.216339	-0.834134
C81	C	1.084104	-0.245074	-0.793117
C82	C	1.084091	-0.245086	-0.711138
C83	C	1.084135	-0.245047	-0.963987
C84	C	1.084149	-0.245035	-1.045972
C85	C	1.184636	-0.187578	-1.046014
C86	C	1.184624	-0.187590	-0.964035
C87	C	1.134371	-0.216326	-0.923025
C88	C	1.134265	-0.216414	-0.174232
C89	C	1.134397	-0.216301	-0.086983
H90	H	0.686714	-0.268609	-0.469097
O91	O	1.233305	-0.159661	-0.924159
C92	C	1.188630	-0.130644	-0.876772
H93	H	1.129125	-0.146496	-0.864469
H94	H	1.220598	-0.124623	-0.819134
H95	H	1.180043	-0.097351	-0.908393
H96	H	0.835472	-0.164213	-0.287265
H97	H	1.043008	-0.387448	-0.469143
O98	O	1.233450	-1.048603	-0.279295
C99	C	1.216389	-1.037193	-0.201023
H100	H	1.153685	-1.024322	-0.196958
H101	H	1.223187	-1.068074	-0.162289
H102	H	1.258499	-1.009959	-0.180528
O103	O	1.035390	-1.048669	-0.477022
C104	C	0.984737	-1.075863	-0.432297
H105	H	0.979915	-1.061752	-0.370464
H106	H	0.924313	-1.076416	-0.460636
H107	H	1.009023	-1.111409	-0.429625
H108	H	0.582622	-0.164220	-0.287291
H109	H	0.686741	-0.164221	-0.287283
O110	O	1.233462	-0.159795	-0.671355
C111	C	1.284108	-0.185378	-0.623914
H112	H	1.288917	-0.220758	-0.648601
H113	H	1.344538	-0.169130	-0.623002
H114	H	1.259824	-0.186934	-0.561779
O115	O	1.035395	-0.273022	-0.671207
C116	C	1.080044	-0.302052	-0.623795
H117	H	1.139552	-0.286210	-0.611539
H118	H	1.048057	-0.308078	-0.566135
H119	H	1.088625	-0.335341	-0.655370
H120	H	0.582585	-0.268617	-0.469105
H121	H	1.225511	-0.164220	-0.826553
O122	O	1.035350	-0.956233	-0.477150
C123	C	0.991047	-0.987016	-0.521425
H124	H	0.988377	-1.020472	-0.489268
H125	H	0.929184	-0.973498	-0.529735
H126	H	1.019755	-0.991968	-0.581071
H127	H	1.225271	-0.387410	-0.287148
H128	H	1.043202	-0.268440	-0.930599
H129	H	1.275713	-0.743969	-0.237065
O130	O	1.283573	-0.832755	-0.229104
C131	C	1.266489	-0.821336	-0.150841
H132	H	1.203780	-0.808470	-0.146798
H133	H	1.273286	-0.852210	-0.112093
H134	H	1.308585	-0.794094	-0.130348
O135	O	0.985051	-0.692004	-0.527334
C136	C	0.940699	-0.661240	-0.571578
H137	H	0.972839	-0.627777	-0.574306
H138	H	0.932301	-0.674770	-0.633426
H139	H	0.881093	-0.656294	-0.542783
H140	H	0.433857	-0.268619	-0.469126
H141	H	1.225588	-0.959805	-0.287243
O142	O	1.035249	-0.476242	-0.477156
C143	C	1.052342	-0.464724	-0.555402
H144	H	1.115040	-0.451783	-0.559415
H145	H	1.045582	-0.495567	-0.594187
H146	H	1.010225	-0.437509	-0.575874
O147	O	1.233251	-0.476137	-0.279212
C148	C	1.277572	-0.445354	-0.234956
H149	H	1.245396	-0.411932	-0.232213
H150	H	1.285987	-0.458923	-0.173115
H151	H	1.337171	-0.440316	-0.263753
O152	O	1.233524	-0.159647	-1.085726
C153	C	1.277849	-0.134294	-1.031988
H154	H	1.280531	-0.152706	-0.973543
H155	H	1.339707	-0.129502	-1.055688
H156	H	1.249153	-0.100173	-1.023278
O157	O	0.985126	-0.832760	-0.527341
C158	C	0.940767	-0.801999	-0.571586
H159	H	0.972901	-0.768534	-0.574315
H160	H	0.932371	-0.815531	-0.633432
H161	H	0.881161	-0.797057	-0.542789
O162	O	0.427570	-0.159669	-0.279410
C163	C	0.481333	-0.134279	-0.235166
H164	H	0.539787	-0.132744	-0.267316
H165	H	0.457679	-0.098878	-0.226917
H166	H	0.490006	-0.150682	-0.175492
H167	H	0.992994	-0.744033	-0.519368
O168	O	1.035455	-0.272975	-1.085810
C169	C	1.080102	-0.301981	-1.133244
H170	H	1.141914	-0.304776	-1.108544
H171	H	1.051645	-0.336548	-1.134166
H172	H	1.082848	-0.288075	-1.195377
H173	H	0.835432	-0.268607	-0.469077
H174	H	1.275632	-0.603222	-0.237037
O175	O	1.283598	-0.691945	-0.229097
C176	C	1.327921	-0.661161	-0.184846
H177	H	1.295747	-0.627737	-0.182109
H178	H	1.336333	-0.674727	-0.123002
H179	H	1.387520	-0.656126	-0.213642
O180	O	1.035232	-0.272989	-0.832790
C181	C	0.990892	-0.298361	-0.779010
H182	H	0.988189	-0.279967	-0.720583
H183	H	0.929043	-0.303148	-0.802684
H184	H	1.019590	-0.332483	-0.770277
O185	O	0.985144	-0.599567	-0.527323
C186	C	1.029791	-0.572373	-0.578045
H187	H	1.091622	-0.586472	-0.582949
H188	H	1.001369	-0.571836	-0.638430
H189	H	1.032486	-0.536822	-0.553771
