data_functionalizedCrystal
_audit_creation_method	'MofGen! by Chris Wilmer'
_symmetry_space_group_name_H-M	'P1'
_symmetry_Int_Tables_number	1
_symmetry_cell_setting	triclinic
loop_
_symmetry_equiv_pos_as_xyz
  x,y,z
_cell_length_a	16.974897
_cell_length_b	10.489716
_cell_length_c	16.053802
_cell_angle_alpha	87.404351
_cell_angle_beta	96.225225
_cell_angle_gamma	83.964219
loop_
_atom_site_label
_atom_site_type_symbol
_atom_site_fract_x
_atom_site_fract_y
_atom_site_fract_z
O1	O	1.056752	0.151761	0.140749
O2	O	0.825923	0.173653	0.125170
O3	O	0.946600	-0.023007	0.133318
O4	O	0.936075	0.348421	0.132601
O5	O	0.939958	-0.012227	-0.005990
O6	O	0.819281	0.184434	-0.014138
O7	O	1.050109	0.162541	0.001442
Zn8	Zn	0.933640	0.175199	-0.028466
Zn9	Zn	0.942392	0.160995	0.155078
O10	O	0.929432	0.359201	-0.006706
C11	C	0.793044	0.178408	0.053521
C12	C	0.704973	0.176498	0.047577
C13	C	0.667209	0.169728	0.120715
C14	C	0.584454	0.167955	0.115118
C15	C	0.539465	0.172943	0.036382
C16	C	0.577233	0.179717	-0.036761
C17	C	0.659986	0.181499	-0.031163
C18	C	0.291582	0.168252	0.011497
C19	C	0.208823	0.166466	0.005904
C20	C	0.216050	0.154706	0.157784
C21	C	0.298805	0.156481	0.163375
C22	C	0.336566	0.163262	0.090232
N23	N	0.454876	0.171127	0.030659
N24	N	0.421152	0.165087	0.095956
C25	C	0.942488	-0.065132	0.063613
C26	C	0.940123	-0.206712	0.063461
C27	C	1.014125	-0.305989	0.068448
C28	C	0.978295	-0.387817	0.134493
C29	C	0.971729	-0.377152	-0.002855
C30	C	0.904327	-0.286681	0.129564
C31	C	0.897768	-0.276006	-0.007844
C32	C	0.861885	-0.357786	0.058213
C33	C	1.082988	0.157787	0.073092
C34	C	1.171060	0.159696	0.079042
C35	C	0.933544	0.401326	0.063000
C36	C	0.935910	0.542906	0.063158
N37	N	0.927673	0.184892	-0.153729
C38	C	0.979040	0.101242	-0.193955
C39	C	0.974874	0.108034	-0.281643
C40	C	0.919343	0.198483	-0.329103
C41	C	0.867970	0.282137	-0.288872
C42	C	0.872134	0.275337	-0.201186
C43	C	0.901156	0.228147	-0.591741
C44	C	0.896998	0.234942	-0.679433
C45	C	1.003901	0.060837	-0.672198
C46	C	1.008063	0.054051	-0.584510
C47	C	0.956688	0.137700	-0.544286
N48	N	0.915084	0.205431	-0.418735
N49	N	0.960943	0.130746	-0.454657
N50	N	0.948366	0.151293	0.280341
H51	H	0.703835	0.165662	0.184831
H52	H	1.078498	-0.282712	0.072863
H53	H	0.797468	-0.380824	0.053903
O54	O	0.543710	0.160641	0.193994
H55	H	0.512748	0.072627	0.195497
H56	H	0.335431	0.152410	0.227490
O57	O	0.852758	-0.211491	-0.087551
H58	H	0.880901	-0.247782	-0.142405
O59	O	1.009450	-0.429667	-0.076985
H60	H	1.072593	-0.409388	-0.072572
O61	O	0.845754	0.318382	-0.548366
H62	H	0.808788	0.261832	-0.511057
H63	H	1.045728	-0.007267	-0.704956
H64	H	0.822752	0.355778	-0.327520
O65	O	1.023338	-0.452310	0.214196
H66	H	1.086475	-0.432045	0.218317
H67	H	0.185296	0.149188	0.217333
O68	O	0.866641	-0.234399	0.203778
H69	H	0.899876	-0.280364	0.262726
O70	O	1.038932	0.003681	-0.142766
H71	H	1.073944	-0.053354	-0.185473
H72	H	0.172192	0.170564	-0.058216
H73	H	1.016700	0.039919	-0.314394
O74	O	0.332302	0.175611	-0.067390
H75	H	0.287112	0.178785	-0.123077
O76	O	0.528656	0.185885	-0.121689
H77	H	0.464747	0.183782	-0.113297
H78	H	0.851776	0.308602	-0.718072
H79	H	0.690731	0.187018	-0.090720
H80	H	1.053281	-0.019599	-0.545869
O81	O	0.816735	0.365564	-0.157792
H82	H	0.777427	0.429611	-0.205524
