data_functionalizedCrystal
_audit_creation_method	'MofGen! by Chris Wilmer'
_symmetry_space_group_name_H-M	'P1'
_symmetry_Int_Tables_number	1
_symmetry_cell_setting	triclinic
loop_
_symmetry_equiv_pos_as_xyz
  x,y,z
_cell_length_a	6.817900
_cell_length_b	15.185311
_cell_length_c	10.992410
_cell_angle_alpha	93.518482
_cell_angle_beta	108.764651
_cell_angle_gamma	104.261569
loop_
_atom_site_label
_atom_site_type_symbol
_atom_site_fract_x
_atom_site_fract_y
_atom_site_fract_z
V1	V	-4.091258	-0.125756	-0.400970
O2	O	-4.073481	0.006043	-0.392949
O3	O	-4.046242	-0.249352	-0.398601
O4	O	-4.069204	-0.123821	-0.575677
O5	O	-4.050360	-0.120357	-0.214647
V6	V	-4.571034	-0.109991	-0.378639
O7	O	-4.360737	-0.160337	-0.449955
O8	O	-4.751753	-0.075410	-0.329654
O9	O	-4.392844	0.013606	-0.381008
O10	O	-4.706208	-0.241789	-0.386660
O11	O	-4.729329	-0.115390	-0.564962
O12	O	-4.369882	-0.111925	-0.203932
C13	C	-3.891213	-0.279482	-0.392371
C14	C	-3.935869	-0.380524	-0.391599
C15	C	-4.066368	-0.794784	-0.270670
C16	C	-4.183241	-0.820728	-0.506076
C17	C	-4.141255	-0.725793	-0.506794
C18	C	-4.061826	-0.665348	-0.389449
C19	C	-4.024383	-0.699839	-0.271385
C20	C	-4.178714	-0.691295	-0.624857
C21	C	-4.136731	-0.596354	-0.625580
C22	C	-4.057286	-0.535908	-0.508233
C23	C	-4.019841	-0.570404	-0.390165
C24	C	-3.940412	-0.509959	-0.272820
C25	C	-3.902951	-0.544454	-0.154749
C26	C	-3.944938	-0.639393	-0.154038
C27	C	-4.015298	-0.440968	-0.508944
C28	C	-3.898426	-0.415015	-0.273535
C29	C	-3.920503	-0.119354	-0.618248
C30	C	-3.983777	-0.118590	-0.761074
C31	C	-3.852172	-0.111631	-0.956176
C32	C	-3.786408	-0.112802	-0.807697
C33	C	-4.165409	-0.208209	-0.838447
C34	C	-4.229867	-0.207417	-0.987011
C35	C	-4.139358	-0.033882	-0.948459
C36	C	-4.068727	-0.033457	-0.799445
C37	C	-4.211214	0.043731	-0.387234
C38	C	-4.145797	0.144772	-0.388015
C39	C	-4.181924	-0.116395	-0.161354
C40	C	-4.097888	-0.117155	-0.018527
H41	H	-4.045835	-0.412888	-0.605076
O42	O	-4.025962	-0.831983	-0.143328
H43	H	-3.852876	-0.804083	-0.082233
H44	H	-4.243410	-0.740515	-0.720393
O45	O	-4.375641	-0.038180	-1.002584
H46	H	-4.473401	-0.103517	-0.986444
H47	H	-4.048885	0.034173	-0.968613
H48	H	-3.649733	-0.048362	-0.754163
O49	O	-3.812735	-0.349820	-0.146968
H50	H	-3.793750	-0.389759	-0.064755
H51	H	-3.838286	-0.495228	-0.059207
O52	O	-3.895035	0.054367	-0.729847
H53	H	-3.748809	0.037466	-0.668174
O54	O	-4.257182	-0.032034	-0.756341
H55	H	-4.293419	-0.092258	-0.706689
O56	O	-4.268932	-0.885915	-0.632639
H57	H	-4.291835	-0.957727	-0.612306
O58	O	-3.904530	-0.676594	-0.026698
H59	H	-3.947086	-0.752766	-0.045918
H60	H	-3.746830	-0.046748	-0.974811
H61	H	-4.167232	-0.568278	-0.721720
H62	H	-3.816296	-0.171463	-1.004348
H63	H	-3.718137	-0.173465	-0.783064
H64	H	-4.410445	-0.215210	-1.029665
O65	O	-4.193935	-0.290919	-1.048563
H66	H	-4.130769	-0.331484	-0.972147
O67	O	-4.362810	-0.218124	-0.800340
H68	H	-4.318802	-0.221815	-0.694776
O69	O	-4.089504	-0.291942	-0.804805
H70	H	-3.922565	-0.269949	-0.733045
