data_functionalizedCrystal
_audit_creation_method	'MofGen! by Chris Wilmer'
_symmetry_space_group_name_H-M	'P1'
_symmetry_Int_Tables_number	1
_symmetry_cell_setting	triclinic
loop_
_symmetry_equiv_pos_as_xyz
  x,y,z
_cell_length_a	9.730223
_cell_length_b	10.654550
_cell_length_c	10.654550
_cell_angle_alpha	95.515083
_cell_angle_beta	90.000193
_cell_angle_gamma	90.003019
loop_
_atom_site_label
_atom_site_type_symbol
_atom_site_fract_x
_atom_site_fract_y
_atom_site_fract_z
O1	O	0.114183	-1.667834	0.176394
O2	O	0.114208	-1.302355	0.193200
O3	O	0.114190	-1.493498	0.002057
O4	O	0.114202	-1.476692	0.367536
O5	O	-0.114390	-1.493496	0.002062
O6	O	-0.114372	-1.302353	0.193204
O7	O	-0.114396	-1.667832	0.176398
Zn8	Zn	-0.150676	-1.485092	0.184802
Zn9	Zn	0.150488	-1.485095	0.184796
O10	O	-0.114378	-1.476689	0.367541
C11	C	-0.000078	-1.255556	0.191968
C12	C	-0.000069	-1.116113	0.188276
N13	N	-0.356212	-1.485099	0.184806
C14	C	-0.000098	-1.492263	-0.044738
C15	C	-0.000093	-1.488571	-0.184181
C16	C	-0.428146	-1.569759	0.100197
C17	C	-0.572029	-1.569756	0.100182
C18	C	-0.572032	-1.400429	0.269395
C19	C	-0.428151	-1.400427	0.269403
C20	C	-0.428146	-1.667522	0.002506
C21	C	-0.572029	-1.667519	0.002491
N22	N	0.356024	-1.485098	0.184782
C23	C	-0.000107	-1.714631	0.177630
C24	C	-0.000107	-1.854074	0.181322
C25	C	-0.000069	-1.036627	0.300818
C26	C	-0.000093	-0.905607	0.297341
C27	C	-0.000111	-0.933570	0.068772
C28	C	-0.000097	-1.064588	0.072250
C29	C	-0.000105	-1.601112	-0.263667
C30	C	-0.000095	-1.597636	-0.394688
C31	C	-0.000067	-1.369066	-0.366725
C32	C	-0.000067	-1.372544	-0.235706
C33	C	-0.000127	-1.733075	-0.279813
C34	C	-0.000117	-1.729599	-0.410834
C35	C	-0.000087	-1.477924	0.414336
C36	C	-0.000083	-1.481616	0.553779
H37	H	-0.369584	-1.331480	0.338288
C38	C	0.132887	-1.784099	-0.472582
H39	H	0.192152	-1.810695	-0.409407
H40	H	0.177572	-1.721296	-0.515292
H41	H	0.110894	-1.854134	-0.531153
C42	C	-0.000045	-1.248749	-0.148276
H43	H	-0.000043	-1.179154	-0.197730
H44	H	0.079665	-1.245361	-0.096583
H45	H	-0.079767	-1.245348	-0.096587
C46	C	-0.000124	-0.876894	-0.058850
H47	H	-0.000134	-0.943001	-0.125378
H48	H	0.079582	-0.826355	-0.064961
H49	H	-0.079850	-0.826375	-0.064955
C50	C	0.129087	-1.802791	-0.240144
H51	H	0.182237	-1.829092	-0.312737
H52	H	0.102513	-1.874452	-0.199362
H53	H	0.182243	-1.747820	-0.183870
H54	H	-0.000100	-1.129309	-0.019401
H55	H	-0.000045	-1.274601	-0.408693
H56	H	-0.611086	-1.764031	0.024009
C57	C	-0.000053	-1.093302	0.428441
H58	H	-0.000070	-1.027193	0.494967
H59	H	0.079662	-1.143821	0.434550
H60	H	-0.079770	-1.143839	0.434549
C61	C	-0.367856	-1.790703	0.043814
H62	H	-0.440572	-1.845562	0.062198
H63	H	-0.312906	-1.772192	0.116947
H64	H	-0.312911	-1.830363	-0.022236
C65	C	-0.133449	-1.789849	-0.231672
H66	H	-0.192818	-1.812731	-0.300898
H67	H	-0.177741	-1.729318	-0.174063
H68	H	-0.112036	-1.862546	-0.190371
H69	H	-0.616645	-1.637006	-0.088732
C70	C	-0.000084	-0.818178	0.421137
H71	H	-0.000055	-0.867633	0.490731
H72	H	-0.079800	-0.766496	0.424544
H73	H	0.079632	-0.766477	0.424522
H74	H	-0.095779	-1.779319	-0.452592
H75	H	-0.630620	-1.331490	0.338271
C76	C	-0.375372	-1.638519	-0.127880
H77	H	-0.277734	-1.638523	-0.127867
H78	H	-0.407907	-1.558099	-0.145807
H79	H	-0.407899	-1.701055	-0.190400
