data_functionalizedCrystal
_audit_creation_method	'MofGen! by Chris Wilmer'
_symmetry_space_group_name_H-M	'P1'
_symmetry_Int_Tables_number	1
_symmetry_cell_setting	triclinic
loop_
_symmetry_equiv_pos_as_xyz
  x,y,z
_cell_length_a	10.489741
_cell_length_b	10.723024
_cell_length_c	9.798715
_cell_angle_alpha	90.001978
_cell_angle_beta	90.001001
_cell_angle_gamma	84.503522
loop_
_atom_site_label
_atom_site_type_symbol
_atom_site_fract_x
_atom_site_fract_y
_atom_site_fract_z
O1	O	-1.693940	-0.176060	-0.113403
O2	O	-1.322734	-0.192587	-0.113424
O3	O	-1.516899	-0.002753	-0.113408
O4	O	-1.499774	-0.365895	-0.113419
O5	O	-1.516885	-0.002752	0.113574
O6	O	-1.322719	-0.192586	0.113558
O7	O	-1.693925	-0.176060	0.113579
Zn8	Zn	-1.508320	-0.184323	0.149607
Zn9	Zn	-1.508339	-0.184324	-0.149452
O10	O	-1.499760	-0.365894	0.113563
C11	C	-1.515646	0.043748	0.000082
C12	C	-1.511917	0.182305	0.000077
C13	C	-1.275196	-0.191338	0.000065
C14	C	-1.133569	-0.187604	0.000057
C15	C	-1.741464	-0.177308	0.000088
C16	C	-1.883091	-0.181043	0.000087
C17	C	-1.065506	-0.066818	0.000073
C18	C	-0.973349	-0.123876	-0.111840
C19	C	-0.973369	-0.123905	0.111947
C20	C	-1.043278	-0.244712	-0.111949
C21	C	-1.043307	-0.244723	0.111939
C22	C	-0.951178	-0.301869	-0.000002
C23	C	-1.501013	-0.412395	0.000071
C24	C	-1.504742	-0.550951	0.000067
N25	N	-1.508316	-0.184322	0.353707
C26	C	-1.620562	0.257221	0.000081
C27	C	-1.616711	0.400426	0.000076
N28	N	-1.508353	-0.184315	-0.353551
C29	C	-1.589841	-0.104264	0.421490
C30	C	-1.589861	-0.104260	0.578653
H31	H	-1.115259	0.032476	-0.000064
C32	C	-1.414053	-0.276917	0.567711
N33	N	-1.343025	-0.346663	0.508396
H34	H	-1.074314	-0.295789	0.206556
C35	C	-0.884311	-0.436148	-0.000090
N36	N	-0.833942	-0.537285	-0.000163
C37	C	-1.684094	-0.011649	0.342709
N38	N	-1.755082	0.058118	0.283373
H39	H	-0.942418	-0.072775	0.206561
C40	C	-1.750078	0.200648	0.000098
N41	N	-1.847632	0.158040	0.000116
C42	C	-1.379081	0.362091	0.000061
N43	N	-1.284434	0.296585	0.000053
H44	H	-1.416051	0.224185	0.000062
H45	H	-1.659663	-0.035724	0.636944
H46	H	-1.438530	-0.252855	0.412026
H47	H	-0.942374	-0.072769	-0.206453
H48	H	-1.074079	-0.295779	-0.206669
H49	H	-1.709719	0.464802	0.000085
