data_functionalizedCrystal
_audit_creation_method	'MofGen! by Chris Wilmer'
_symmetry_space_group_name_H-M	'P1'
_symmetry_Int_Tables_number	1
_symmetry_cell_setting	triclinic
loop_
_symmetry_equiv_pos_as_xyz
  x,y,z
_cell_length_a	16.120530
_cell_length_b	16.120484
_cell_length_c	16.120297
_cell_angle_alpha	84.385569
_cell_angle_beta	89.871860
_cell_angle_gamma	90.167327
loop_
_atom_site_label
_atom_site_type_symbol
_atom_site_fract_x
_atom_site_fract_y
_atom_site_fract_z
Zn1	Zn	1.224987	-0.422264	0.554813
Zn2	Zn	1.724987	0.077736	1.054813
Zn3	Zn	1.224883	-0.554948	0.422118
Zn4	Zn	1.724883	-0.054948	0.922118
Zn5	Zn	1.093726	-0.408180	0.408056
Zn6	Zn	1.593726	0.091820	0.908056
Zn7	Zn	1.078880	-0.554181	0.554051
Zn8	Zn	1.578880	-0.054181	1.054051
O9	O	1.155619	-0.484893	0.484760
O10	O	1.655619	0.015107	0.984760
O11	O	1.341009	-0.446081	0.543415
O12	O	1.841009	0.053919	1.043415
O13	O	1.213654	-0.529906	0.303620
O14	O	1.713654	-0.029906	0.803620
O15	O	1.117395	-0.293418	0.421958
O16	O	1.617395	0.206582	0.921958
O17	O	1.340932	-0.543563	0.445925
O18	O	1.840932	-0.043563	0.945925
O19	O	1.213832	-0.303765	0.529780
O20	O	1.713832	0.196235	1.029780
O21	O	1.117294	-0.422076	0.293289
O22	O	1.617294	0.077924	0.793289
O23	O	0.975721	-0.421332	0.421218
O24	O	1.475721	0.078668	0.921218
O25	O	1.092092	-0.542255	0.670785
O26	O	1.592092	-0.042255	1.170785
O27	O	0.964814	-0.528598	0.528480
O28	O	1.464814	-0.028598	1.028480
O29	O	1.199436	-0.445336	0.671345
O30	O	1.699436	0.054664	1.171345
O31	O	1.199258	-0.671477	0.445185
O32	O	1.699258	-0.171477	0.945185
O33	O	1.091990	-0.670913	0.542116
O34	O	1.591990	-0.170913	1.042116
C35	C	0.940181	-0.473354	0.473241
C36	C	1.440181	0.026646	0.973241
C37	C	0.848013	-0.468438	0.468334
C38	C	1.348013	0.031562	0.968334
C39	C	0.679262	-0.459445	0.459381
C40	C	1.179262	0.040555	0.959381
C41	C	0.632810	-0.510407	0.510202
C42	C	1.132810	-0.010407	1.010202
C43	C	0.538911	-0.505403	0.505220
C44	C	1.038911	-0.005403	1.005220
C45	C	0.773169	-0.464448	0.464361
C46	C	1.273169	0.035552	0.964361
C47	C	1.144023	-0.701438	0.495113
C48	C	1.644023	-0.201438	0.995113
C49	C	1.139137	-0.794083	0.499574
C50	C	1.639137	-0.294083	0.999574
C51	C	1.130220	-0.963706	0.507736
C52	C	1.630220	-0.463706	1.007736
C53	C	1.181166	-1.005249	0.461804
C54	C	1.681166	-0.505249	0.961804
C55	C	1.176204	-1.099633	0.466346
C56	C	1.676204	-0.599633	0.966346
C57	C	1.135180	-0.869313	0.503196
C58	C	1.635180	-0.369313	1.003196
C59	C	1.371899	-0.496479	0.496324
C60	C	1.871899	0.003521	0.996324
C61	C	1.464064	-0.501416	0.501252
C62	C	1.964064	-0.001416	1.001252
C63	C	1.144119	-0.495281	0.702152
C64	C	1.644119	0.004719	1.202152
C65	C	1.139219	-0.499708	0.794791
C66	C	1.639219	0.000292	1.294791
C67	C	1.167282	-0.267505	0.474385
C68	C	1.667282	0.232495	0.974385
C69	C	1.172251	-0.174867	0.469964
C70	C	1.672251	0.325133	0.969964
C71	C	1.167125	-0.474489	0.268213
C72	C	1.667125	0.025511	0.768213
C73	C	1.172198	-0.469836	0.175571
C74	C	1.672198	0.030164	0.675571
C75	C	1.130243	-0.507770	0.964403
C76	C	1.630243	-0.007770	1.464403
C77	C	1.181172	-0.461776	1.005965
C78	C	1.681172	0.038224	1.505965
C79	C	1.176177	-0.466262	1.100342
C80	C	1.676177	0.033738	1.600342
C81	C	1.135236	-0.503285	0.870017
C82	C	1.635236	-0.003285	1.370017
H83	H	0.648511	-0.412060	0.412135
H84	H	1.148511	0.087940	0.912135
C85	C	1.066285	-0.565520	1.012086
C86	C	1.566285	-0.065520	1.512086
C87	C	1.095621	-0.635659	1.077015
C88	C	1.595621	-0.135659	1.577015
C89	C	1.031670	-0.693412	1.124713
C90	C	1.531670	-0.193412	1.624713
C91	C	0.938381	-0.681025	1.107483
C92	C	1.438381	-0.181025	1.607483
C93	C	0.909040	-0.610883	1.042551
C94	C	1.409040	-0.110883	1.542551
C95	C	0.972992	-0.553130	0.994853
C96	C	1.472992	-0.053130	1.494853
H97	H	1.164683	-0.644832	1.089772
H98	H	1.664683	-0.144832	1.589772
H99	H	1.053390	-0.745336	1.172780
H100	H	1.553390	-0.245336	1.672780
H101	H	0.891040	-0.723777	1.142792
H102	H	1.391040	-0.223777	1.642792
H103	H	0.839978	-0.601711	1.029793
H104	H	1.339978	-0.101711	1.529793
H105	H	0.951271	-0.501206	0.946786
H106	H	1.451271	-0.001206	1.446786
C107	C	0.674348	-0.574432	0.574031
C108	C	1.174348	-0.074432	1.074031
C109	C	0.620622	-0.633474	0.632901
C110	C	1.120622	-0.133474	1.132901
C111	C	0.662164	-0.697499	0.696725
C112	C	1.162164	-0.197499	1.196725
C113	C	0.757431	-0.702482	0.701678
C114	C	1.257431	-0.202482	1.201678
C115	C	0.811162	-0.643438	0.642805
C116	C	1.311162	-0.143438	1.142805
C117	C	0.769621	-0.579413	0.578982
C118	C	1.269621	-0.079413	1.078982
H119	H	0.550095	-0.629787	0.629236
H120	H	1.050095	-0.129787	1.129236
H121	H	0.622388	-0.741207	0.740306
H122	H	1.122388	-0.241207	1.240306
H123	H	0.788182	-0.749877	0.748924
H124	H	1.288182	-0.249877	1.248924
H125	H	0.881689	-0.647125	0.646470
H126	H	1.381689	-0.147125	1.146470
H127	H	0.809396	-0.535705	0.535400
H128	H	1.309396	-0.035705	1.035400
H129	H	1.228508	-0.969931	0.419069
H130	H	1.728508	-0.469931	0.919069
C131	C	1.245150	-0.404036	0.958287
C132	C	1.745150	0.095964	1.458287
C133	C	1.338431	-0.416451	0.975540
C134	C	1.838431	0.083549	1.475540
C135	C	1.402409	-0.358716	0.927857
C136	C	1.902409	0.141284	1.427857
C137	C	1.373105	-0.288568	0.862922
C138	C	1.873105	0.211432	1.362922
C139	C	1.279819	-0.276151	0.845665
C140	C	1.779819	0.223849	1.345665
C141	C	1.215842	-0.333885	0.893348
C142	C	1.715842	0.166115	1.393348
H143	H	1.360128	-0.468381	1.023612
H144	H	1.860128	0.031619	1.523612
H145	H	1.471466	-0.367909	0.940632
H146	H	1.971466	0.132091	1.440632
H147	H	1.420465	-0.245830	0.827624
H148	H	1.920465	0.254170	1.327624
H149	H	1.258123	-0.224220	0.797593
H150	H	1.758123	0.275780	1.297593
H151	H	1.146785	-0.324692	0.880573
H152	H	1.646785	0.175308	1.380573
H153	H	1.082881	-0.999022	0.550467
H154	H	1.582881	-0.499022	1.050467
