data_functionalizedCrystal
_audit_creation_method	'MofGen! by Chris Wilmer'
_symmetry_space_group_name_H-M	'P1'
_symmetry_Int_Tables_number	1
_symmetry_cell_setting	triclinic
loop_
_symmetry_equiv_pos_as_xyz
  x,y,z
_cell_length_a	21.295417
_cell_length_b	12.759401
_cell_length_c	12.759393
_cell_angle_alpha	90.021396
_cell_angle_beta	89.960780
_cell_angle_gamma	89.968672
loop_
_atom_site_label
_atom_site_type_symbol
_atom_site_fract_x
_atom_site_fract_y
_atom_site_fract_z
Zn1	Zn	-0.250558	-1.606140	-0.594008
Zn2	Zn	-0.355842	-1.605986	-0.418305
Zn3	Zn	-0.250592	-1.430442	-0.418339
Zn4	Zn	-0.355795	-1.430382	-0.593938
O5	O	-0.303197	-1.518237	-0.506147
O6	O	-0.264530	-1.753140	-0.570716
O7	O	-0.341915	-1.582660	-0.271288
O8	O	-0.162498	-1.453838	-0.441685
O9	O	-0.341881	-1.753027	-0.441628
O10	O	-0.162473	-1.582922	-0.570749
O11	O	-0.264588	-1.453689	-0.271313
O12	O	-0.264542	-1.283413	-0.441617
O13	O	-0.341801	-1.453736	-0.740968
O14	O	-0.341834	-1.283369	-0.570628
O15	O	-0.264484	-1.582864	-0.741020
O16	O	-0.443925	-1.582602	-0.441559
O17	O	-0.443890	-1.453586	-0.570596
C18	C	-0.303187	-1.245270	-0.506119
C19	C	-0.303198	-1.128493	-0.506132
C20	C	-0.466748	-1.518099	-0.506089
C21	C	-0.536716	-1.518137	-0.506099
C22	C	-0.343505	-1.073636	-0.573201
C23	C	-0.343506	-0.963912	-0.573219
C24	C	-0.262893	-0.963912	-0.439089
C25	C	-0.262888	-1.073634	-0.439078
C26	C	-0.569580	-1.585375	-0.438979
C27	C	-0.635323	-1.585424	-0.439003
C28	C	-0.668199	-1.518216	-0.506136
C29	C	-0.635327	-1.450974	-0.573269
C30	C	-0.569586	-1.450934	-0.573251
N31	N	-0.771465	-1.426309	-0.514136
N32	N	-0.833916	-1.426350	-0.514147
C33	C	-0.866274	-1.518334	-0.506196
N34	N	-0.833820	-1.610278	-0.498213
N35	N	-0.771363	-1.610236	-0.498197
C36	C	-0.739484	-1.518253	-0.506163
C37	C	-0.970423	-1.585631	-0.439098
C38	C	-1.036167	-1.585682	-0.439129
C39	C	-1.036170	-1.451222	-0.573390
C40	C	-0.970427	-1.451181	-0.573364
C41	C	-0.937558	-1.518384	-0.506212
C42	C	-0.139006	-1.518404	-0.506229
C43	C	-0.069038	-1.518475	-0.506263
C44	C	-0.303133	-1.518311	-0.780181
C45	C	-0.303106	-1.518342	-0.896958
C46	C	-0.303205	-0.792270	-0.506170
C47	C	-0.303204	-0.909047	-0.506162
C48	C	-0.262835	-1.451211	-0.951832
C49	C	-0.262815	-1.451235	-1.061556
C50	C	-0.343340	-1.585531	-1.061522
C51	C	-0.343362	-1.585500	-0.951800
C52	C	-0.303215	-1.518225	-0.233180
C53	C	-0.303065	-1.518397	-0.116404
H54	H	-0.376326	-1.118299	-0.627804
H55	H	-0.943668	-1.396425	-0.628015
C56	C	-1.071737	-1.658729	-0.366136
C57	C	-1.028877	-1.717549	-0.307308
C58	C	-1.061621	-1.784841	-0.240045
H59	H	-1.097337	-1.704599	-0.406255
H60	H	-1.097416	-1.618600	-0.320278
H61	H	-1.003208	-1.757675	-0.353160
H62	H	-1.003275	-1.671707	-0.267168
H63	H	-1.087301	-1.744712	-0.194188
H64	H	-1.087221	-1.830703	-0.280172
H65	H	-1.032546	-1.824751	-0.200116
H66	H	-0.376327	-0.919252	-0.627835
H67	H	-0.230055	-1.396525	-0.907183
C68	C	-0.219021	-1.378312	-1.120945
C69	C	-0.183763	-1.319513	-1.049427
C70	C	-0.143406	-1.252331	-1.104096
H71	H	-0.243019	-1.332424	-1.163730
H72	H	-0.191554	-1.418519	-1.163747
H73	H	-0.211226	-1.279308	-1.006643
H74	H	-0.159752	-1.365372	-1.006639
H75	H	-0.115939	-1.292539	-1.146899
H76	H	-0.167409	-1.206451	-1.146880
H77	H	-0.119474	-1.212435	-1.055581
C78	C	-1.071969	-1.378297	-0.646169
C79	C	-1.136578	-1.392707	-0.631807
C80	C	-1.169578	-1.325540	-0.698830
H81	H	-1.061224	-1.393564	-0.716812
H82	H	-1.061280	-1.307684	-0.630718
H83	H	-1.147263	-1.463304	-0.647266
H84	H	-1.147341	-1.377433	-0.561178
H85	H	-1.158889	-1.254926	-0.683378
H86	H	-1.158828	-1.340812	-0.769468
H87	H	-1.213418	-1.335301	-0.689087
C88	C	-0.219200	-0.904159	-0.366328
C89	C	-0.227841	-0.796327	-0.380673
C90	C	-0.187607	-0.741252	-0.313652
H91	H	-0.176890	-0.922056	-0.381772
H92	H	-0.228366	-0.922038	-0.295683
H93	H	-0.218671	-0.778455	-0.451302
H94	H	-0.270142	-0.778398	-0.365221
H95	H	-0.196773	-0.759131	-0.243007
H96	H	-0.145300	-0.759158	-0.329101
H97	H	-0.193468	-0.668083	-0.323369
H98	H	-0.542828	-1.396180	-0.627910
H99	H	-0.230062	-1.118300	-0.384462
C100	C	-0.934696	-1.658423	-0.366074
C101	C	-0.897036	-1.598946	-0.298649
C102	C	-0.864124	-1.665965	-0.231357
H103	H	-0.908951	-1.704179	-0.406177
H104	H	-0.963666	-1.698466	-0.326044
H105	H	-0.868070	-1.558922	-0.338674
H106	H	-0.922766	-1.553193	-0.258522
H107	H	-0.893093	-1.706007	-0.191327
H108	H	-0.838382	-1.711717	-0.271469
H109	H	-0.838572	-1.625619	-0.185595
H110	H	-0.542820	-1.640098	-0.384303
H111	H	-0.662086	-1.640181	-0.384345
H112	H	-0.376115	-1.640210	-1.106188
H113	H	-0.662099	-1.396255	-0.627931
C114	C	-0.387112	-1.658506	-0.892403
C115	C	-0.422347	-1.717353	-0.963913
C116	C	-0.462649	-1.784618	-0.909235
H117	H	-0.414601	-1.618389	-0.849578
H118	H	-0.363057	-1.704351	-0.849640
H119	H	-0.446401	-1.671513	-1.006658
H120	H	-0.394875	-1.757491	-1.006740
H121	H	-0.438594	-1.830464	-0.866472
H122	H	-0.490134	-1.744493	-0.866411
H123	H	-0.486557	-1.824561	-0.957746
