data_functionalizedCrystal
_audit_creation_method	'MofGen! by Chris Wilmer'
_symmetry_space_group_name_H-M	'P1'
_symmetry_Int_Tables_number	1
_symmetry_cell_setting	triclinic
loop_
_symmetry_equiv_pos_as_xyz
  x,y,z
_cell_length_a	10.723024
_cell_length_b	19.188930
_cell_length_c	9.198806
_cell_angle_alpha	89.991701
_cell_angle_beta	89.996352
_cell_angle_gamma	83.806325
loop_
_atom_site_label
_atom_site_type_symbol
_atom_site_fract_x
_atom_site_fract_y
_atom_site_fract_z
O1	O	1.655155	0.097922	-0.120901
O2	O	1.291808	0.107295	-0.120908
O3	O	1.483967	0.001021	-0.120876
O4	O	1.462996	0.204196	-0.120933
O5	O	1.483952	0.001021	0.120909
O6	O	1.291793	0.107295	0.120877
O7	O	1.655140	0.097922	0.120884
Cu8	Cu	1.473465	0.102608	0.142957
Cu9	Cu	1.473483	0.102609	-0.142982
O10	O	1.462981	0.204196	0.120852
C11	C	1.245315	0.106613	-0.000016
C12	C	1.106803	0.104572	-0.000017
C13	C	1.030586	0.164037	-0.000035
C14	C	0.887427	0.161930	-0.000036
C15	C	1.483280	-0.024995	0.000021
C16	C	1.481242	-0.102512	0.000033
C17	C	1.593994	-0.146704	0.000042
C18	C	1.592079	-0.219540	0.000019
C19	C	1.477405	-0.248182	0.000016
C20	C	1.364638	-0.203981	-0.000002
C21	C	1.366556	-0.131146	0.000007
N22	N	1.389745	-0.356756	0.082298
N23	N	1.387930	-0.425947	0.082293
C24	C	1.471618	-0.467628	-0.000014
N25	N	1.557208	-0.437506	-0.082297
N26	N	1.559026	-0.368310	-0.082285
C27	C	1.475312	-0.327158	0.000005
C28	C	1.582302	-0.590797	-0.000032
C29	C	1.580382	-0.663634	-0.000065
C30	C	1.352937	-0.648073	-0.000070
C31	C	1.354860	-0.575238	-0.000053
C32	C	1.469546	-0.546604	-0.000027
C33	C	1.701633	0.098604	-0.000012
C34	C	1.840145	0.100645	-0.000020
C35	C	1.463668	0.230211	-0.000048
C36	C	1.465706	0.307729	-0.000070
N37	N	1.473462	0.102608	0.344071
N38	N	1.473496	0.102604	-0.344096
C39	C	1.554148	0.057789	0.416282
C40	C	1.554167	0.057787	0.583694
H41	H	1.066070	0.052101	-0.000040
C42	C	1.004302	0.029193	-0.124290
C43	C	0.928538	0.031915	-0.000001
H44	H	1.058883	-0.013236	-0.124271
H45	H	0.952905	0.031046	-0.208590
H46	H	1.052516	0.067919	-0.124286
H47	H	0.880317	-0.006808	-0.000010
H48	H	0.979942	0.030056	0.084321
H49	H	0.821937	0.212836	-0.000057
C50	C	1.818619	-0.169406	0.000053
C51	C	1.720056	-0.115230	0.000055
H52	H	1.896442	-0.149973	0.000051
H53	H	1.813131	-0.197496	0.084362
H54	H	1.813137	-0.197485	-0.084271
H55	H	1.725532	-0.087155	0.084385
H56	H	1.725546	-0.087129	-0.084262
H57	H	1.675686	-0.567482	-0.000018
C58	C	1.173294	-0.095448	-0.124289
C59	C	1.242607	-0.082567	0.000008
H60	H	1.096770	-0.065459	-0.124278
H61	H	1.220339	-0.086694	-0.208583
H62	H	1.155749	-0.142926	-0.124285
H63	H	1.260161	-0.035090	-0.000001
H64	H	1.195553	-0.091316	0.084325
C65	C	1.305604	0.195845	0.329133
C66	C	1.380216	0.154405	0.427911
H67	H	1.248031	0.227819	0.380893
H68	H	1.357488	0.221165	0.269755
H69	H	1.260675	0.166652	0.269776
H70	H	1.425152	0.183598	0.487261
H71	H	1.328325	0.129082	0.487314
C72	C	1.721885	-0.310471	-0.124257
C73	C	1.716024	-0.268127	0.000037
H74	H	1.798407	-0.340462	-0.124244
H75	H	1.653318	-0.337945	-0.124259
H76	H	1.717926	-0.281721	-0.208562
H77	H	1.719975	-0.296877	0.084344
H78	H	1.784610	-0.240651	0.000053
H79	H	1.071319	0.216508	-0.000041
H80	H	1.271269	-0.227305	-0.000007
C81	C	1.805390	-0.671695	-0.000018
C82	C	1.704330	-0.712213	-0.000051
H83	H	1.881910	-0.701687	0.000001
H84	H	1.801424	-0.642956	-0.084323
H85	H	1.801383	-0.642970	0.084309
H86	H	1.708331	-0.740934	-0.084384
H87	H	1.708298	-0.740964	0.084263
H88	H	1.259567	-0.671393	-0.000080
H89	H	1.623208	0.019418	0.354167
C90	C	1.129856	-0.567175	-0.000038
C91	C	1.230917	-0.526658	-0.000037
H92	H	1.053337	-0.537182	-0.000022
H93	H	1.133839	-0.595896	-0.084354
H94	H	1.133845	-0.595919	0.084278
H95	H	1.226933	-0.497918	-0.084359
H96	H	1.226932	-0.497925	0.084288
C97	C	1.722011	-0.035456	0.568721
C98	C	1.647425	0.005983	0.667511
H99	H	1.779589	-0.067436	0.620471
H100	H	1.670110	-0.060770	0.509375
H101	H	1.766933	-0.006262	0.509332
H102	H	1.602495	-0.023210	0.726893
H103	H	1.699332	0.031299	0.726882
H104	H	1.404419	0.140979	0.593816
