data_functionalizedCrystal
_audit_creation_method	'MofGen! by Chris Wilmer'
_symmetry_space_group_name_H-M	'P1'
_symmetry_Int_Tables_number	1
_symmetry_cell_setting	triclinic
loop_
_symmetry_equiv_pos_as_xyz
  x,y,z
_cell_length_a	16.974959
_cell_length_b	16.109301
_cell_length_c	16.053934
_cell_angle_alpha	92.567699
_cell_angle_beta	88.925772
_cell_angle_gamma	96.567540
loop_
_atom_site_label
_atom_site_type_symbol
_atom_site_fract_x
_atom_site_fract_y
_atom_site_fract_z
O1	O	0.104619	-1.099908	0.062316
O2	O	0.604619	-0.599908	0.562316
O3	O	0.117227	-0.857878	0.061479
O4	O	0.617227	-0.357878	0.561479
O5	O	-0.003808	-0.985243	0.069633
O6	O	0.496192	-0.485243	0.569633
O7	O	0.225654	-0.972543	0.054162
O8	O	0.725654	-0.472543	0.554162
O9	O	-0.010447	-0.992215	-0.068776
O10	O	0.489553	-0.492215	0.431224
O11	O	0.110588	-0.864851	-0.076930
O12	O	0.610588	-0.364851	0.423070
O13	O	0.097980	-1.106880	-0.076093
O14	O	0.597980	-0.606880	0.423907
Zn15	Zn	0.103230	-0.986972	-0.098487
Zn16	Zn	0.603230	-0.486972	0.401513
Zn17	Zn	0.111977	-0.977786	0.083873
Zn18	Zn	0.611977	-0.477786	0.583873
O19	O	0.219015	-0.979516	-0.084247
O20	O	0.719015	-0.479516	0.415753
C21	C	0.113397	-0.830388	-0.007689
C22	C	0.613397	-0.330388	0.492311
C23	C	0.111866	-0.738089	-0.007581
C24	C	0.611866	-0.238089	0.492419
N25	N	0.097259	-0.993248	-0.222942
N26	N	0.597259	-0.493248	0.277058
C27	C	-0.036490	-0.988113	0.002410
C28	C	0.463510	-0.488113	0.502410
C29	C	-0.123980	-0.986269	0.008315
C30	C	0.376020	-0.486269	0.508315
C31	C	-0.616075	-0.975552	0.049742
C32	C	-0.116075	-0.475552	0.549742
C33	C	-0.533868	-0.977277	0.044177
C34	C	-0.033868	-0.477277	0.544177
C35	C	-0.496399	-0.981934	-0.034052
C36	C	0.003601	-0.481934	0.465948
C37	C	-0.541143	-0.984874	-0.106721
C38	C	-0.041143	-0.484874	0.393279
C39	C	-0.623349	-0.983154	-0.101155
C40	C	-0.123349	-0.483154	0.398845
C41	C	-0.250930	-0.987490	-0.058788
C42	C	0.249070	-0.487490	0.441212
C43	C	-0.168718	-0.989207	-0.064349
C44	C	0.331282	-0.489207	0.435651
C45	C	-0.161449	-0.981611	0.086551
C46	C	0.338551	-0.481611	0.586551
C47	C	-0.243656	-0.979887	0.092110
C48	C	0.256344	-0.479887	0.592110
C49	C	-0.288393	-0.982831	0.019441
C50	C	0.211607	-0.482831	0.519441
N51	N	-0.412371	-0.983695	-0.039742
N52	N	0.087629	-0.483695	0.460258
N53	N	-0.372421	-0.981076	0.025132
N54	N	0.127579	-0.481076	0.525132
C55	C	0.251697	-0.976645	-0.017022
C56	C	0.751697	-0.476645	0.482978
C57	C	0.339187	-0.978489	-0.022921
C58	C	0.839187	-0.478489	0.477079
C59	C	0.101810	-1.134370	-0.006922
C60	C	0.601810	-0.634370	0.493078
C61	C	0.103341	-1.226670	-0.007025
C62	C	0.603341	-0.726670	0.492975
C63	C	0.180125	-0.515995	-0.012193
C64	C	0.680125	-0.015995	0.487807
C65	C	0.178680	-0.429271	-0.012101
C66	C	0.678680	0.070729	0.487899
C67	C	0.035077	-0.448770	-0.002415
C68	C	0.535077	0.051230	0.497585
C69	C	0.036522	-0.535493	-0.002513
C70	C	0.536522	-0.035493	0.497487
C71	C	0.109049	-0.569102	-0.007398
C72	C	0.609049	-0.069102	0.492602
C73	C	0.106158	-0.395656	-0.007208
C74	C	0.606158	0.104344	0.492792
C75	C	0.104591	-0.301626	-0.007108
C76	C	0.604591	0.198374	0.492892
C77	C	0.110616	-0.663138	-0.007500
C78	C	0.610616	-0.163138	0.492500
C79	C	0.148741	-0.939044	-0.270125
C80	C	0.648741	-0.439044	0.229875
C81	C	0.144561	-0.943458	-0.357249
C82	C	0.644561	-0.443458	0.142751
C83	C	0.088896	-1.002073	-0.397187
C84	C	0.588896	-0.502073	0.102813
C85	C	0.037412	-1.056283	-0.349998
C86	C	0.537412	-0.556283	0.150002
C87	C	0.041596	-1.051872	-0.262877
C88	C	0.541596	-0.551872	0.237123
C89	C	0.070641	-1.021317	-0.657360
C90	C	0.570641	-0.521317	-0.157360
C91	C	0.066460	-1.025721	-0.744488
C92	C	0.566460	-0.525721	-0.244488
C93	C	0.173610	-0.912897	-0.751732
C94	C	0.673610	-0.412897	-0.251732
C95	C	0.177786	-0.908488	-0.664609
C96	C	0.677786	-0.408488	-0.164609
C97	C	0.126305	-0.962701	-0.617427
C98	C	0.626305	-0.462701	-0.117427
N99	N	0.084621	-1.006584	-0.486242
N100	N	0.584621	-0.506584	0.013758
N101	N	0.130585	-0.958193	-0.528375
N102	N	0.630585	-0.458193	-0.028375
N103	N	0.117941	-0.971517	0.208329
N104	N	0.617941	-0.471517	0.708329
H105	H	-0.646575	-0.971752	0.113445
H106	H	-0.146575	-0.471752	0.613445
H107	H	-0.510630	-0.988671	-0.170417
H108	H	-0.010630	-0.488671	0.329583
Cl109	Cl	-0.290754	-0.974035	0.190459
Cl110	Cl	0.209246	-0.474035	0.690459
Cl111	Cl	0.271300	-0.558245	-0.018339
Cl112	Cl	0.771300	-0.058245	0.481661
H113	H	-0.497447	-0.974887	0.103348
H114	H	0.002553	-0.474887	0.603348
H115	H	-0.138210	-0.992974	-0.128056
H116	H	0.361790	-0.492974	0.371944
H117	H	-0.659774	-0.985546	-0.160326
H118	H	-0.159774	-0.485546	0.339674
H119	H	-0.021360	-0.578735	0.001389
H120	H	0.478640	-0.078735	0.501389
H121	H	0.215524	-0.868760	-0.790155
H122	H	0.715524	-0.368760	-0.290155
H123	H	-0.000324	-1.096012	-0.224461
H124	H	0.499676	-0.596012	0.275539
H125	H	0.236557	-0.386034	-0.016007
H126	H	0.736557	0.113966	0.483993
Cl127	Cl	-0.056094	-0.406511	0.003731
Cl128	Cl	0.443906	0.093489	0.503731
H129	H	-0.007909	-1.104013	-0.382522
H130	H	0.492091	-0.604013	0.117478
Cl131	Cl	-0.105206	-0.977928	0.177900
Cl132	Cl	0.394794	-0.477928	0.677900
H133	H	0.028722	-1.065458	-0.618952
H134	H	0.528722	-0.565458	-0.118952
Cl135	Cl	0.218720	-0.865348	-0.219926
Cl136	Cl	0.718720	-0.365348	0.280074
H137	H	0.021127	-1.073455	-0.777001
H138	H	0.521127	-0.573455	-0.277001
Cl139	Cl	-0.307159	-0.991183	-0.150145
Cl140	Cl	0.192841	-0.491183	0.349855
H141	H	0.186482	-0.899321	-0.395665
H142	H	0.686482	-0.399321	0.104335
Cl143	Cl	0.247765	-0.834799	-0.614400
Cl144	Cl	0.747765	-0.334799	-0.114400
