data_functionalizedCrystal
_audit_creation_method	'MofGen! by Chris Wilmer'
_symmetry_space_group_name_H-M	'P1'
_symmetry_Int_Tables_number	1
_symmetry_cell_setting	triclinic
loop_
_symmetry_equiv_pos_as_xyz
  x,y,z
_cell_length_a	12.811457
_cell_length_b	15.995292
_cell_length_c	11.892095
_cell_angle_alpha	93.891493
_cell_angle_beta	91.498327
_cell_angle_gamma	83.757111
loop_
_atom_site_label
_atom_site_type_symbol
_atom_site_fract_x
_atom_site_fract_y
_atom_site_fract_z
O1	O	1.389172	0.115517	0.048418
O2	O	1.085808	0.126019	0.017317
O3	O	1.245814	-0.001046	0.033719
O4	O	1.229166	0.242582	0.032016
O5	O	1.232473	0.009532	0.220359
O6	O	1.072467	0.136597	0.203957
O7	O	1.375831	0.126095	0.235058
Zn8	Zn	1.222031	0.133025	0.249140
Zn9	Zn	1.239608	0.119089	0.003234
O10	O	1.215825	0.253159	0.218656
C11	C	1.040319	0.130395	0.106657
C12	C	0.924650	0.127666	0.094798
C13	C	0.692750	0.134055	0.276012
C14	C	0.584068	0.131490	0.264875
C15	C	0.598603	0.119966	0.061389
C16	C	0.707285	0.122531	0.072526
C17	C	0.754354	0.129576	0.179841
C18	C	0.863037	0.132147	0.190976
C19	C	0.877571	0.120617	-0.012509
C20	C	0.768889	0.118053	-0.023646
C21	C	1.238466	-0.026959	0.126967
C22	C	1.236436	-0.119931	0.126750
C23	C	1.228967	-0.457738	0.125995
C24	C	1.344425	-0.433327	0.138252
C25	C	1.346650	-0.336655	0.138052
C26	C	1.232673	-0.290148	0.126370
C27	C	1.182553	-0.325827	0.013874
C28	C	1.181168	-0.422636	0.013646
C29	C	1.163639	-0.410486	0.225649
C30	C	1.167818	-0.313874	0.227492
C31	C	1.234761	-0.195433	0.126578
C32	C	1.226875	-0.552454	0.125779
C33	C	1.421320	0.121718	0.145715
C34	C	1.536990	0.124447	0.157567
C35	C	1.223173	0.279072	0.125406
C36	C	1.225204	0.372044	0.125615
N37	N	1.210042	0.142536	0.416966
N38	N	1.251605	0.109571	-0.164590
C39	C	1.335026	0.043341	0.666426
C40	C	1.326654	0.049995	0.783909
C41	C	1.184921	0.162495	0.769418
C42	C	1.193294	0.155841	0.651935
C43	C	1.268349	0.096262	0.600443
C44	C	1.276726	0.089613	0.482957
C45	C	1.134989	0.202108	0.468468
C46	C	1.126617	0.208762	0.585952
H47	H	0.901358	0.137889	0.278357
H48	H	1.380947	0.006900	0.837630
H49	H	0.730551	0.112313	-0.111018
H50	H	0.731072	0.139802	0.363391
H51	H	0.533913	0.135141	0.343187
H52	H	1.065505	0.257268	0.627890
H53	H	1.123806	0.210996	0.811358
H54	H	1.080700	0.245203	0.414731
H55	H	1.204225	-0.290448	0.310647
H56	H	1.078579	-0.425227	0.217654
H57	H	1.396146	-0.005165	0.624501
H58	H	1.386409	-0.312878	0.219085
H59	H	1.084166	-0.281314	0.225402
H60	H	0.560262	0.114216	-0.025982
H61	H	0.927740	0.116976	-0.090819
H62	H	1.383476	-0.456577	0.219246
H63	H	1.394125	-0.466239	0.066788
H64	H	1.397607	-0.322164	0.066183
H65	H	1.226850	-0.453595	-0.061925
H66	H	1.098963	-0.294965	0.001315
H67	H	1.096837	-0.438248	0.000138
H68	H	1.194234	-0.433657	0.310163
H69	H	1.228317	-0.309889	-0.061332
H70	H	1.337843	0.041103	0.441034
