data_functionalizedCrystal
_audit_creation_method	'MofGen! by Chris Wilmer'
_symmetry_space_group_name_H-M	'P1'
_symmetry_Int_Tables_number	1
_symmetry_cell_setting	triclinic
loop_
_symmetry_equiv_pos_as_xyz
  x,y,z
_cell_length_a	12.759395
_cell_length_b	17.640280
_cell_length_c	12.759387
_cell_angle_alpha	78.768503
_cell_angle_beta	89.978574
_cell_angle_gamma	78.801264
loop_
_atom_site_label
_atom_site_type_symbol
_atom_site_fract_x
_atom_site_fract_y
_atom_site_fract_z
Zn1	Zn	1.690825	-0.314613	-0.509568
Zn2	Zn	1.726244	-0.446808	-0.298399
Zn3	Zn	1.515134	-0.314654	-0.333891
Zn4	Zn	1.550629	-0.446750	-0.474050
O5	O	1.620708	-0.380706	-0.403977
O6	O	1.842546	-0.332156	-0.481566
O7	O	1.698209	-0.429319	-0.156074
O8	O	1.508762	-0.204042	-0.386913
O9	O	1.868569	-0.429279	-0.326421
O10	O	1.637841	-0.204012	-0.515982
O11	O	1.543107	-0.332226	-0.182150
O12	O	1.372819	-0.332170	-0.352473
O13	O	1.569257	-0.429180	-0.625794
O14	O	1.398897	-0.429220	-0.455448
O15	O	1.672259	-0.332099	-0.651889
O16	O	1.732626	-0.557406	-0.291981
O17	O	1.603602	-0.557364	-0.421032
C18	C	1.347737	-0.380693	-0.403958
C19	C	1.230964	-0.380707	-0.403970
C20	C	1.038783	-0.481947	-0.510971
C21	C	1.107271	-0.532550	-0.564451
C22	C	1.216990	-0.532541	-0.564440
C23	C	1.258222	-0.481924	-0.510941
C24	C	1.189733	-0.431320	-0.457461
C25	C	1.080013	-0.431334	-0.457480
C26	C	1.162475	-0.330103	-0.350489
C27	C	1.052755	-0.330108	-0.350505
C28	C	1.203707	-0.279487	-0.296990
C29	C	1.135217	-0.228878	-0.243515
C30	C	1.025492	-0.228889	-0.243529
C31	C	0.984266	-0.279505	-0.297025
C32	C	1.675838	-0.586064	-0.348824
C33	C	1.699519	-0.673917	-0.325265
C34	C	1.441237	-0.962881	-0.583338
C35	C	1.463491	-1.045432	-0.561167
C36	C	1.597927	-1.045411	-0.426922
C37	C	1.575688	-0.962858	-0.449086
C38	C	1.497341	-0.921600	-0.527294
C39	C	1.631792	-0.921577	-0.393042
C40	C	1.609551	-0.839031	-0.415200
C41	C	1.531205	-0.797767	-0.493403
C42	C	1.475100	-0.839054	-0.549452
C43	C	1.710134	-0.962837	-0.314829
C44	C	1.766238	-0.921556	-0.258785
C45	C	1.744002	-0.839009	-0.280948
C46	C	1.665656	-0.797744	-0.359150
C47	C	1.800107	-0.797722	-0.224898
C48	C	1.777866	-0.715176	-0.247056
C49	C	1.643415	-0.715198	-0.381309
C50	C	1.894745	-0.380719	-0.403997
C51	C	2.011523	-0.380725	-0.404005
C52	C	1.620766	-0.380629	-0.678031
C53	C	1.620791	-0.380596	-0.794817
C54	C	1.565391	-0.174546	-0.459368
C55	C	1.541818	-0.086693	-0.482973
C56	C	1.728058	-0.279512	-0.822007
C57	C	1.781702	-0.228959	-0.890466
C58	C	1.781720	-0.228930	-1.000196
C59	C	1.728085	-0.279459	-1.041468
C60	C	1.674440	-0.330012	-0.973009
C61	C	1.674431	-0.330037	-0.863278
C62	C	1.567169	-0.431090	-0.945820
C63	C	1.567156	-0.431124	-0.836089
C64	C	1.513533	-0.481618	-0.987092
C65	C	1.459894	-0.532177	-0.918631
C66	C	1.459879	-0.532204	-0.808895
C67	C	1.513511	-0.481677	-0.767630
C68	C	1.620695	-0.380726	-0.131004
C69	C	1.620813	-0.380536	-0.014279
H70	H	1.272755	-0.573748	-0.607985
H71	H	1.513547	-0.481588	-1.076441
C72	C	1.401773	-0.587000	-0.963638
C73	C	1.413284	-0.576163	-1.074384
C74	C	1.359771	-0.626662	-1.115882
H75	H	1.328047	-0.575483	-0.948863
H76	H	1.431409	-0.640131	-0.931449
H77	H	1.383645	-0.523044	-1.106563
H78	H	1.486998	-0.587686	-1.089189
H79	H	1.389407	-0.679793	-1.083693
H80	H	1.286048	-0.615140	-1.101100
H81	H	1.367582	-0.619321	-1.191025
H82	H	1.825369	-0.187819	-0.856851
C83	C	1.401630	-0.587186	-0.734736
C84	C	1.354694	-0.631442	-0.794367
C85	C	1.301043	-0.682111	-0.726089
H86	H	1.347667	-0.557053	-0.700011
H87	H	1.451048	-0.621684	-0.682700
H88	H	1.305280	-0.596949	-0.846383
H89	H	1.408633	-0.661592	-0.829089
H90	H	1.350461	-0.716609	-0.674053
H91	H	1.247086	-0.651972	-0.691368
H92	H	1.269199	-0.712150	-0.766537
C93	C	1.885294	-0.842568	-0.140143
C94	C	1.965366	-0.889889	-0.186978
C95	C	2.043860	-0.931205	-0.108933
H96	H	1.853940	-0.874869	-0.085641
H97	H	1.915594	-0.806187	-0.109943
H98	H	1.935070	-0.926265	-0.217161
H99	H	1.996748	-0.857607	-0.241471
H100	H	2.074160	-0.894824	-0.078734
H101	H	2.012496	-0.963502	-0.054436
H102	H	2.098203	-0.963311	-0.140701
H103	H	1.579624	-0.681604	-0.445002
H104	H	0.949443	-0.481952	-0.510998
H105	H	1.661714	-1.079016	-0.363242
H106	H	1.168799	-0.187673	-0.199954
H107	H	1.825394	-0.187760	-1.055938
C108	C	0.951302	-0.173860	-0.185445
C109	C	1.010898	-0.129522	-0.138617
C110	C	0.942593	-0.078814	-0.085113
H111	H	0.916556	-0.203969	-0.131430
H112	H	0.899295	-0.139416	-0.234944
H113	H	1.062886	-0.163962	-0.089123
H114	H	1.045642	-0.099397	-0.192609
H115	H	0.890586	-0.044370	-0.134611
H116	H	0.907851	-0.108929	-0.031103
H117	H	0.983017	-0.048719	-0.053341
C118	C	1.513434	-0.481860	-0.648454
C119	C	1.455003	-0.536963	-0.597324
C120	C	1.454928	-0.537161	-0.487537
H121	H	1.481565	-0.430907	-0.637180
H122	H	1.584895	-0.495586	-0.619932
H123	H	1.383556	-0.523232	-0.625836
H124	H	1.486857	-0.587924	-0.608567
H125	H	1.526389	-0.550887	-0.459015
H126	H	1.423061	-0.486205	-0.476274
H127	H	1.415292	-0.574552	-0.452830
H128	H	1.513090	-0.730553	-0.511435
C129	C	1.728262	-0.279334	-1.160628
C130	C	1.786735	-0.224257	-1.211745
C131	C	1.786931	-0.224128	-1.321514
H132	H	1.656852	-0.265624	-1.189248
H133	H	1.760163	-0.330321	-1.171794
H134	H	1.754832	-0.173281	-1.200587
H135	H	1.858153	-0.237954	-1.183158
H136	H	1.818832	-0.275115	-1.332680
H137	H	1.715518	-0.210419	-1.350123
H138	H	1.826612	-0.186764	-1.356209
H139	H	1.293048	-0.279486	-0.296979
H140	H	1.823551	-0.681564	-0.201418
C141	C	1.062291	-0.587416	-0.622520
C142	C	0.951541	-0.576582	-0.611112
C143	C	0.910073	-0.627105	-0.664600
H144	H	1.094406	-0.640540	-0.592825
H145	H	1.077158	-0.575902	-0.696248
H146	H	0.936683	-0.588103	-0.537398
H147	H	0.919398	-0.523470	-0.640812
H148	H	0.924940	-0.615590	-0.738328
H149	H	0.942195	-0.680225	-0.634900
H150	H	0.834924	-0.619756	-0.656875
H151	H	1.830025	-0.955160	-0.195105
C152	C	1.356113	-0.918220	-0.668270
C153	C	1.311727	-0.972038	-0.712606
C154	C	1.233308	-0.930925	-0.790838
H155	H	1.387490	-0.885977	-0.722821
H156	H	1.301636	-0.886076	-0.636701
H157	H	1.366195	-1.004169	-0.744175
H158	H	1.280330	-1.004283	-0.658081
H159	H	1.178830	-0.898781	-0.759269
H160	H	1.264693	-0.898683	-0.845382
H161	H	1.203175	-0.967434	-0.820923
C162	C	1.402774	-1.090356	-0.622055
C163	C	1.474979	-1.137698	-0.676723
C164	C	1.419087	-1.179102	-0.732807
H165	H	1.352928	-1.054052	-0.671880
H166	H	1.365738	-1.122647	-0.573181
H167	H	1.511997	-1.105411	-0.725592
H168	H	1.524826	-1.174017	-0.626923
H169	H	1.382052	-1.211393	-0.683932
H170	H	1.369243	-1.142792	-0.782626
H171	H	1.468070	-1.211234	-0.769897
H172	H	0.894928	-0.279515	-0.297048
H173	H	1.347564	-0.481927	-0.510926
C174	C	1.728127	-0.279404	-0.702910
C175	C	1.786558	-0.224325	-0.681421
C176	C	1.786635	-0.224195	-0.571722
H177	H	1.759995	-0.330373	-0.664268
H178	H	1.656666	-0.265693	-0.681718
H179	H	1.858005	-0.238040	-0.702600
H180	H	1.754705	-0.173348	-0.720036
H181	H	1.715174	-0.210485	-0.550530
H182	H	1.818502	-0.275167	-0.533089
H183	H	1.826271	-0.186820	-0.557129
H184	H	1.728243	-1.030051	-0.296793
H185	H	1.411309	-0.805460	-0.613145
