data_functionalizedCrystal
_audit_creation_method	'MofGen! by Chris Wilmer'
_symmetry_space_group_name_H-M	'P1'
_symmetry_Int_Tables_number	1
_symmetry_cell_setting	triclinic
loop_
_symmetry_equiv_pos_as_xyz
  x,y,z
_cell_length_a	14.971482
_cell_length_b	15.944493
_cell_length_c	14.048226
_cell_angle_alpha	89.999441
_cell_angle_beta	89.994098
_cell_angle_gamma	83.543826
loop_
_atom_site_label
_atom_site_type_symbol
_atom_site_fract_x
_atom_site_fract_y
_atom_site_fract_z
O1	O	1.186807	0.109451	-0.079136
O2	O	0.926389	0.122563	-0.079139
O3	O	1.063736	-0.006264	-0.079145
O4	O	1.049459	0.238279	-0.079129
O5	O	1.063720	-0.006272	0.079176
O6	O	0.926373	0.122556	0.079183
O7	O	1.186790	0.109444	0.079186
Zn8	Zn	1.056579	0.115999	0.104321
Zn9	Zn	1.056600	0.116009	-0.104274
O10	O	1.049443	0.238271	0.079192
C11	C	0.893057	0.121974	0.000021
C12	C	0.793762	0.120218	0.000020
C13	C	0.747109	0.119387	0.086321
C14	C	0.653813	0.117724	0.086322
C15	C	0.607170	0.116898	0.000020
C16	C	0.653830	0.117727	-0.086288
C17	C	0.747125	0.119384	-0.086288
C18	C	0.459372	0.114275	-0.086282
C19	C	0.366070	0.112620	-0.086283
C20	C	0.366060	0.112616	0.086328
C21	C	0.459356	0.114273	0.086328
C22	C	0.506008	0.115103	0.000019
C23	C	1.063145	-0.037563	0.000012
C24	C	1.061395	-0.130813	-0.000000
C25	C	1.142241	-0.366497	0.000019
C26	C	1.098652	-0.417103	-0.078042
C27	C	1.058154	-0.301538	0.000011
C28	C	1.098616	-0.417086	0.078050
C29	C	1.055029	-0.466450	0.000027
C30	C	1.014587	-0.350915	-0.078114
C31	C	1.014564	-0.350895	0.078049
C32	C	0.970913	-0.401467	-0.000031
C33	C	1.059956	-0.206536	0.000001
C34	C	1.053219	-0.561449	0.000029
C35	C	1.220122	0.110033	0.000024
C36	C	1.319417	0.111789	0.000019
C37	C	1.050035	0.269570	0.000033
C38	C	1.051784	0.362821	0.000039
N39	N	1.056570	0.115991	0.246682
N40	N	1.056616	0.116009	-0.246635
C41	C	1.117407	0.058970	0.296497
C42	C	1.117413	0.058970	0.396155
C43	C	1.056586	0.115995	0.445995
C44	C	0.995743	0.173019	0.396173
C45	C	0.995734	0.173015	0.296517
C46	C	0.995769	0.173025	0.603887
C47	C	0.995779	0.173031	0.703550
C48	C	1.117448	0.058980	0.703525
C49	C	1.117439	0.058976	0.603869
C50	C	1.056597	0.116001	0.554054
H51	H	0.497329	0.114950	0.156603
H52	H	1.166950	0.012538	0.436714
N53	N	0.603492	0.116825	0.179403
H54	H	0.647274	0.117008	0.234075
H55	H	0.557948	0.168472	0.183454
H56	H	1.214671	-0.350801	-0.000059
H57	H	0.615846	0.117048	-0.156557
N58	N	0.930116	0.234521	0.242791
H59	H	0.964278	0.271765	0.201431
H60	H	0.890532	0.202296	0.201514
N61	N	1.182999	-0.002553	0.242747
H62	H	1.173761	0.006091	0.172056
H63	H	1.246454	0.007235	0.260145
N64	N	0.797413	0.120287	0.179405
H65	H	0.753698	0.119507	0.234077
H66	H	0.843386	0.068943	0.183164
H67	H	1.166988	0.012548	0.744090
H68	H	1.166973	0.012545	0.563289
N69	N	1.145692	-0.455401	-0.165460
H70	H	1.210371	-0.442975	-0.165403
H71	H	1.143561	-0.518486	-0.165069
N72	N	0.967581	-0.312789	-0.165625
H73	H	0.969093	-0.249622	-0.165104
H74	H	0.999115	-0.337542	-0.224468
H75	H	0.946247	0.219466	0.744125
N76	N	0.874913	-0.422088	-0.000105
H77	H	0.843281	-0.397789	-0.059100
H78	H	0.874350	-0.485367	0.000484
N79	N	0.967552	-0.312577	0.165465
H80	H	0.999381	-0.336765	0.224403
H81	H	0.968603	-0.249361	0.164390
H82	H	0.497354	0.114952	-0.156564
N83	N	1.145659	-0.455369	0.165465
H84	H	1.210336	-0.442935	0.165391
H85	H	1.114493	-0.430333	0.224376
N86	N	0.797449	0.120274	-0.179370
H87	H	0.753746	0.119499	-0.234043
H88	H	0.828898	0.172991	-0.183131
N89	N	0.930146	0.234534	0.550162
H90	H	0.964314	0.271776	0.508804
H91	H	0.890561	0.202313	0.508882
N92	N	0.315744	0.111724	0.179418
H93	H	0.249410	0.111731	0.166327
H94	H	0.338448	0.059382	0.216526
N95	N	0.315758	0.111734	-0.179363
H96	H	0.359468	0.112506	-0.234039
H97	H	0.284308	0.059016	-0.183119
N98	N	0.930141	0.234524	0.449934
H99	H	0.940425	0.294157	0.432582
H100	H	0.866690	0.224678	0.432589
