data_functionalizedCrystal
_audit_creation_method	'MofGen! by Chris Wilmer'
_symmetry_space_group_name_H-M	'P1'
_symmetry_Int_Tables_number	1
_symmetry_cell_setting	triclinic
loop_
_symmetry_equiv_pos_as_xyz
  x,y,z
_cell_length_a	10.908878
_cell_length_b	10.723024
_cell_length_c	9.798715
_cell_angle_alpha	90.003391
_cell_angle_beta	89.997232
_cell_angle_gamma	107.723670
loop_
_atom_site_label
_atom_site_type_symbol
_atom_site_fract_x
_atom_site_fract_y
_atom_site_fract_z
O1	O	0.179774	-1.618384	-0.113479
O2	O	0.679774	-1.118384	0.386521
O3	O	0.196982	-1.251517	-0.113483
O4	O	0.696982	-0.751517	0.386517
O5	O	0.001874	-1.483583	-0.113475
O6	O	0.501874	-0.983583	0.386525
O7	O	0.374882	-1.386318	-0.113487
O8	O	0.874882	-0.886318	0.386513
O9	O	0.001874	-1.483569	0.113507
O10	O	0.501874	-0.983569	0.613507
O11	O	0.196982	-1.251503	0.113499
O12	O	0.696982	-0.751503	0.613499
O13	O	0.179774	-1.618370	0.113503
O14	O	0.679774	-1.118370	0.613503
Zn15	Zn	0.188377	-1.434934	0.149539
Zn16	Zn	0.688377	-0.934934	0.649539
Zn17	Zn	0.188378	-1.434953	-0.149519
Zn18	Zn	0.688378	-0.934953	0.350481
O19	O	0.374881	-1.386304	0.113495
O20	O	0.874881	-0.886304	0.613495
C21	C	0.195730	-1.205281	0.000007
C22	C	0.695730	-0.705281	0.500007
C23	C	0.191983	-1.067535	0.000006
C24	C	0.691983	-0.567535	0.500006
C25	C	-0.045887	-1.492666	0.000014
C26	C	0.454113	-0.992666	0.500014
C27	C	-0.188201	-1.519736	0.000010
C28	C	0.311799	-1.019736	0.500010
N29	N	0.188376	-1.434931	0.353639
N30	N	0.688376	-0.934931	0.853639
C31	C	-0.238080	-1.420962	0.000006
C32	C	0.261920	-0.920962	0.500006
C33	C	-0.385169	-1.448938	0.000002
C34	C	0.114831	-0.948938	0.500002
C35	C	0.422643	-1.377221	0.000003
C36	C	0.922643	-0.877221	0.500003
C37	C	0.564957	-1.350150	-0.000002
C38	C	1.064957	-0.850150	0.499998
C39	C	0.181026	-1.664606	0.000010
C40	C	0.681026	-1.164606	0.500010
C41	C	0.184773	-1.802352	0.000002
C42	C	0.684773	-1.302352	0.500002
C43	C	0.301155	-0.968988	0.000001
C44	C	0.801155	-0.468988	0.500001
C45	C	0.297285	-0.826620	-0.000000
C46	C	0.797285	-0.326620	0.500000
N47	N	0.188369	-1.434968	-0.353619
N48	N	0.688369	-0.934968	0.146381
C49	C	0.106095	-1.532447	0.421419
C50	C	0.606095	-1.032447	0.921419
C51	C	0.106091	-1.532468	0.578582
C52	C	0.606091	-1.032468	1.078582
H53	H	-0.171889	-1.315687	0.000013
H54	H	0.328111	-0.815687	0.500013
C55	C	-0.345643	-1.207921	-0.000012
C56	C	0.154357	-0.707921	0.499988
H57	H	-0.258510	-1.207773	-0.000021
H58	H	0.241490	-0.707773	0.499979
H59	H	-0.361627	-1.164112	0.079135
H60	H	0.138373	-0.664112	0.579135
H61	H	-0.361625	-1.164140	-0.079182
H62	H	0.138375	-0.664140	0.420818
C63	C	0.283546	-1.322174	0.567663
C64	C	0.783546	-0.822174	1.067663
H65	H	0.335171	-1.261012	0.630587
H66	H	0.835171	-0.761012	1.130587
H67	H	0.237067	-1.279781	0.511928
H68	H	0.737067	-0.779781	1.011928
H69	H	0.337137	-1.356148	0.511916
H70	H	0.837137	-0.856148	1.011916
H71	H	-0.451356	-1.554221	0.000007
H72	H	0.048644	-1.054221	0.500007
H73	H	-0.254392	-1.625012	0.000016
H74	H	0.245608	-1.125012	0.500016
C75	C	0.431294	-0.997384	-0.000004
C76	C	0.931294	-0.497384	0.499996
H77	H	0.416823	-1.089346	-0.000012
H78	H	0.916823	-0.589346	0.499988
H79	H	0.478677	-0.960160	0.079145
H80	H	0.978677	-0.460160	0.579145
H81	H	0.478667	-0.960174	-0.079173
H82	H	0.978667	-0.460174	0.420827
H83	H	0.390745	-0.742015	-0.000009
H84	H	0.890745	-0.242015	0.499991
H85	H	0.091308	-0.886951	-0.000003
H86	H	0.591308	-0.386951	0.499997
C87	C	0.061840	-1.039147	0.000010
C88	C	0.561840	-0.539147	0.500010
H89	H	-0.006152	-1.119436	0.000022
H90	H	0.493848	-0.619436	0.500022
H91	H	0.055685	-0.990256	-0.079141
H92	H	0.555685	-0.490256	0.420859
H93	H	0.055687	-0.990253	0.079176
H94	H	0.555687	-0.490253	0.579176
H95	H	0.035648	-1.615916	0.363099
H96	H	0.535648	-1.115916	0.863099
H97	H	0.035651	-1.615959	0.636870
H98	H	0.535651	-1.115959	1.136870
H99	H	0.258813	-1.351455	0.411961
H100	H	0.758813	-0.851455	0.911961
