data_functionalizedCrystal
_audit_creation_method	'MofGen! by Chris Wilmer'
_symmetry_space_group_name_H-M	'P1'
_symmetry_Int_Tables_number	1
_symmetry_cell_setting	triclinic
loop_
_symmetry_equiv_pos_as_xyz
  x,y,z
_cell_length_a	17.699077
_cell_length_b	10.654541
_cell_length_c	16.776229
_cell_angle_alpha	89.993604
_cell_angle_beta	89.993415
_cell_angle_gamma	83.882252
loop_
_atom_site_label
_atom_site_type_symbol
_atom_site_fract_x
_atom_site_fract_y
_atom_site_fract_z
O1	O	1.005090	0.158773	-0.066277
O2	O	1.505090	0.658773	0.433723
O3	O	0.784842	0.179442	-0.066281
O4	O	1.284842	0.679442	0.433719
O5	O	0.900031	-0.013721	-0.066274
O6	O	1.400031	0.486279	0.433726
O7	O	0.889901	0.351936	-0.066284
O8	O	1.389901	0.851936	0.433716
O9	O	0.900015	-0.013732	0.066302
O10	O	1.400015	0.486268	0.566302
O11	O	0.784827	0.179431	0.066295
O12	O	1.284827	0.679431	0.566295
O13	O	1.005074	0.158761	0.066299
O14	O	1.505074	0.658761	0.566299
Zn15	Zn	0.894948	0.169094	0.087347
Zn16	Zn	1.394948	0.669094	0.587347
Zn17	Zn	0.894969	0.169110	-0.087329
Zn18	Zn	1.394969	0.669110	0.412671
O19	O	0.889886	0.351924	0.066292
O20	O	1.389886	0.851924	0.566292
C21	C	0.756633	0.178697	0.000007
C22	C	1.256633	0.678697	0.500007
C23	C	0.672600	0.176479	0.000005
C24	C	1.172600	0.676479	0.500005
C25	C	0.633118	0.175428	0.072274
C26	C	1.133118	0.675428	0.572274
C27	C	0.554162	0.173323	0.072274
C28	C	1.054162	0.673323	0.572274
C29	C	0.514689	0.172280	0.000006
C30	C	1.014689	0.672280	0.500006
C31	C	0.554178	0.173328	-0.072268
C32	C	1.054178	0.673328	0.427732
C33	C	0.633133	0.175423	-0.072268
C34	C	1.133133	0.675423	0.427732
C35	C	0.235761	0.164877	-0.072269
C36	C	0.735761	0.664877	0.427731
C37	C	0.156800	0.162785	-0.072263
C38	C	0.656800	0.662785	0.427737
C39	C	0.156790	0.162777	0.072273
C40	C	0.656790	0.662777	0.572273
C41	C	0.235745	0.164872	0.072273
C42	C	0.735745	0.664872	0.572273
C43	C	0.275227	0.165913	-0.000000
C44	C	0.775227	0.665913	0.500000
C45	C	0.360840	0.168193	-0.000000
C46	C	0.860840	0.668193	0.500000
C47	C	0.429077	0.170010	0.000006
C48	C	0.929077	0.670010	0.500006
C49	C	0.899280	-0.060511	0.000014
C50	C	1.399280	0.439489	0.500014
C51	C	0.897056	-0.199916	0.000012
C52	C	1.397056	0.300084	0.500012
C53	C	1.034795	-0.230303	0.000025
C54	C	1.534795	0.269697	0.500025
C55	C	1.102617	-0.310987	0.000033
C56	C	1.602617	0.189013	0.500033
C57	C	1.100522	-0.441968	0.000030
C58	C	1.600522	0.058032	0.500030
C59	C	1.030599	-0.492267	0.000017
C60	C	1.530599	0.007733	0.500017
C61	C	0.962777	-0.411583	0.000009
C62	C	1.462777	0.088417	0.500009
C63	C	0.964879	-0.280600	0.000014
C64	C	1.464879	0.219400	0.500014
C65	C	0.825039	-0.381196	-0.000009
C66	C	1.325039	0.118804	0.499991
C67	C	0.827132	-0.250215	-0.000001
C68	C	1.327132	0.249785	0.499999
C69	C	0.755116	-0.431495	-0.000022
C70	C	1.255116	0.068505	0.499978
C71	C	0.687292	-0.350811	-0.000024
C72	C	1.187292	0.149189	0.499976
C73	C	0.689390	-0.219822	-0.000020
C74	C	1.189390	0.280178	0.499980
C75	C	0.759310	-0.169531	-0.000008
C76	C	1.259310	0.330469	0.499992
C77	C	1.033284	0.159507	0.000010
C78	C	1.533284	0.659507	0.500010
C79	C	1.117316	0.161725	0.000006
C80	C	1.617316	0.661725	0.500006
C81	C	0.890637	0.398715	0.000003
C82	C	1.390637	0.898715	0.500003
C83	C	0.892861	0.538120	-0.000001
C84	C	1.392861	1.038120	0.499999
N85	N	0.894940	0.169083	0.206558
N86	N	1.394940	0.669083	0.706558
N87	N	0.894983	0.169111	-0.206540
N88	N	1.394983	0.669111	0.293460
C89	C	0.945961	0.083585	0.248278
C90	C	1.445961	0.583585	0.748278
C91	C	0.945965	0.083584	0.331730
C92	C	1.445965	0.583584	0.831730
C93	C	0.894951	0.169088	0.373461
C94	C	1.394951	0.669088	0.873461
C95	C	0.843924	0.254589	0.331735
C96	C	1.343924	0.754589	0.831735
C97	C	0.843917	0.254583	0.248284
C98	C	1.343917	0.754583	0.748284
C99	C	0.843952	0.254614	0.668282
C100	C	1.343952	0.754614	1.168282
C101	C	0.843964	0.254616	0.751739
C102	C	1.343964	0.754616	1.251739
C103	C	0.946000	0.083615	0.751728
C104	C	1.446000	0.583615	1.251728
C105	C	0.945993	0.083609	0.668277
C106	C	1.445993	0.583609	1.168277
C107	C	0.894964	0.169105	0.626559
C108	C	1.394964	0.669105	1.126559
C109	C	0.894959	0.169104	0.536070
C110	C	1.394959	0.669104	1.036070
C111	C	0.894959	0.169096	0.463948
C112	C	1.394959	0.669096	0.963948
H113	H	0.124635	0.161924	0.131122
H114	H	0.624635	0.661924	0.631122
H115	H	0.267879	0.165728	0.131121
H116	H	0.767879	0.665728	0.631121
C117	C	0.510762	0.172200	-0.151763
C118	C	1.010762	0.672200	0.348237
H119	H	0.545587	0.173122	-0.194804
H120	H	1.045587	0.673122	0.305196
H121	H	0.474575	0.244593	-0.154763
H122	H	0.974575	0.744593	0.345237
H123	H	0.485349	0.098177	-0.154773
H124	H	0.985349	0.598177	0.345227
C125	C	0.510675	0.172929	0.151766
C126	C	1.010675	0.672929	0.651766
H127	H	0.457984	0.171748	0.141418
H128	H	0.957984	0.671748	0.641418
H129	H	0.518372	0.246709	0.181146
H130	H	1.018372	0.746709	0.681146
H131	H	0.528821	0.100289	0.181772
H132	H	1.028821	0.600289	0.681772
H133	H	0.753415	-0.538148	-0.000029
H134	H	1.253415	-0.038148	0.499971
H135	H	0.802384	0.324204	0.365717
H136	H	1.302384	0.824204	0.865717
C137	C	1.028296	-0.636342	0.000009
C138	C	1.528296	-0.136342	0.500009
H139	H	1.078702	-0.677190	0.000017
H140	H	1.578702	-0.177190	0.500017
H141	H	1.002393	-0.660351	-0.046227
H142	H	1.502393	-0.160351	0.453773
H143	H	1.002379	-0.660373	0.046244
H144	H	1.502379	-0.160373	0.546244
H145	H	0.802420	0.324245	0.785714
H146	H	1.302420	0.824245	1.285714
H147	H	0.665250	0.176288	0.131123
H148	H	1.165250	0.676288	0.631123
H149	H	0.630366	-0.391776	-0.000039
H150	H	1.130366	0.108224	0.499961
C151	C	0.113381	0.161632	-0.151762
C152	C	0.613381	0.661632	0.348238
H153	H	0.148203	0.162541	-0.194806
H154	H	0.648203	0.662541	0.305194
H155	H	0.077191	0.234020	-0.154770
H156	H	0.577191	0.734020	0.345230
H157	H	0.087971	0.087604	-0.154757
H158	H	0.587971	0.587604	0.345243
H159	H	0.987549	0.013995	0.785704
H160	H	1.487549	0.513995	1.285704
H161	H	0.802369	0.324202	0.214316
H162	H	1.302369	0.824202	0.714316
H163	H	0.987536	0.013988	0.634303
H164	H	1.487536	0.513988	1.134303
C165	C	1.179527	-0.255656	0.000050
C166	C	1.679527	0.244344	0.500050
H167	H	1.171064	-0.166093	0.000058
H168	H	1.671064	0.333907	0.500058
H169	H	1.207493	-0.283354	-0.046178
H170	H	1.707493	0.216646	0.453822
H171	H	1.207467	-0.283374	0.046293
H172	H	1.707467	0.216626	0.546293
H173	H	0.634161	-0.154135	-0.000030
H174	H	1.134161	0.345865	0.499970
H175	H	0.267897	0.165721	-0.131118
H176	H	0.767897	0.665721	0.368882
H177	H	0.987510	0.013965	0.365698
H178	H	1.487510	0.513965	0.865698
H179	H	0.987506	0.013964	0.214306
H180	H	1.487506	0.513964	0.714306
C181	C	0.676563	0.176588	-0.151763
C182	C	1.176563	0.676588	0.348237
H183	H	0.641747	0.175679	-0.194804
H184	H	1.141747	0.675679	0.305196
H185	H	0.712755	0.104204	-0.154766
H186	H	1.212755	0.604204	0.345234
H187	H	0.701970	0.250620	-0.154767
H188	H	1.201970	0.750620	0.345233
H189	H	1.036507	-0.123652	0.000037
H190	H	1.536507	0.376348	0.500037
C191	C	1.175123	-0.530722	0.000039
C192	C	1.675123	-0.030722	0.500039
H193	H	1.217067	-0.482013	0.000051
H194	H	1.717067	0.017987	0.500051
H195	H	1.177176	-0.582444	-0.046193
H196	H	1.677176	-0.082444	0.453807
H197	H	1.177155	-0.582453	0.046278
H198	H	1.677155	-0.082453	0.546278
H199	H	0.761025	-0.062881	-0.000001
H200	H	1.261025	0.437119	0.499999
H201	H	0.802403	0.324230	0.634321
H202	H	1.302403	0.824230	1.134321
