data_functionalizedCrystal
_audit_creation_method	'MofGen! by Chris Wilmer'
_symmetry_space_group_name_H-M	'P1'
_symmetry_Int_Tables_number	1
_symmetry_cell_setting	triclinic
loop_
_symmetry_equiv_pos_as_xyz
  x,y,z
_cell_length_a	14.044220
_cell_length_b	17.699083
_cell_length_c	16.176319
_cell_angle_alpha	89.992304
_cell_angle_beta	89.997715
_cell_angle_gamma	88.235946
loop_
_atom_site_label
_atom_site_type_symbol
_atom_site_fract_x
_atom_site_fract_y
_atom_site_fract_z
O1	O	1.257290	0.182444	-0.068662
O2	O	0.981336	0.175860	-0.068683
O3	O	1.127110	0.069501	-0.068664
O4	O	1.111517	0.288803	-0.068680
O5	O	1.127090	0.069492	0.068829
O6	O	0.981316	0.175851	0.068810
O7	O	1.257270	0.182435	0.068831
Cu8	Cu	1.119291	0.179142	0.081375
Cu9	Cu	1.119315	0.179153	-0.081227
O10	O	1.111497	0.288795	0.068813
C11	C	1.126541	0.041261	0.000082
C12	C	1.124865	-0.042873	0.000082
C13	C	0.946018	0.172974	0.000061
C14	C	0.840812	0.164378	0.000054
C15	C	1.210431	-0.085591	0.000090
C16	C	1.208850	-0.164644	0.000083
C17	C	1.121702	-0.200976	0.000073
C18	C	1.036130	-0.158252	0.000063
C19	C	1.037712	-0.079201	0.000065
C20	C	1.029750	-0.477055	0.000056
C21	C	1.028175	-0.556112	0.000057
C22	C	1.200888	-0.562498	0.000074
C23	C	1.202470	-0.483447	0.000075
C24	C	1.116898	-0.440730	0.000061
C25	C	1.118613	-0.355012	0.000067
C26	C	1.119987	-0.286692	0.000073
C27	C	0.648187	0.148663	0.000071
C28	C	0.590414	0.209629	0.000070
C29	C	0.483230	0.200885	0.000080
C30	C	0.755381	0.157406	0.000061
C31	C	1.292588	0.185321	0.000085
C32	C	1.397794	0.193917	0.000088
C33	C	1.112066	0.317035	0.000064
C34	C	1.113742	0.401168	0.000059
N35	N	1.119282	0.179135	0.195740
N36	N	1.119332	0.179155	-0.195592
C37	C	1.183849	0.132061	0.239013
C38	C	1.183854	0.132061	0.325560
C39	C	1.119295	0.179139	0.368833
C40	C	1.054720	0.226214	0.325555
C41	C	1.054712	0.226210	0.239009
C42	C	1.054753	0.226231	0.674583
C43	C	1.054768	0.226233	0.761134
C44	C	1.183895	0.132081	0.761133
C45	C	1.183887	0.132077	0.674588
C46	C	1.119309	0.179150	0.631317
C47	C	1.119303	0.179149	0.537473
C48	C	1.119304	0.179144	0.462675
H49	H	1.278527	-0.199422	0.000091
O50	O	0.607084	0.070830	0.000082
H51	H	0.631489	0.039661	-0.055956
H52	H	1.236425	0.093729	0.203785
H53	H	1.236430	0.093730	0.360792
O54	O	1.253512	0.081297	0.627912
H55	H	1.298405	0.048556	0.672543
H56	H	1.273434	-0.453869	0.000087
H57	H	1.236475	0.093750	0.796374
H58	H	0.960072	-0.442284	0.000045
O59	O	0.631511	0.287469	0.000062
H60	H	0.607094	0.318642	-0.055976
H61	H	1.002193	0.264570	0.796366
H62	H	1.281396	-0.056016	0.000103
H63	H	0.965173	-0.187840	0.000051
H64	H	0.968035	-0.044420	0.000059
H65	H	1.002173	0.264560	0.639359
O66	O	0.985089	0.276997	0.372221
H67	H	0.995949	0.269099	0.439672
H68	H	1.002133	0.264541	0.203778
H69	H	1.270565	-0.597288	0.000081
H70	H	0.957205	-0.585691	0.000051
