data_functionalizedCrystal
_audit_creation_method	'MofGen! by Chris Wilmer'
_symmetry_space_group_name_H-M	'P1'
_symmetry_Int_Tables_number	1
_symmetry_cell_setting	triclinic
loop_
_symmetry_equiv_pos_as_xyz
  x,y,z
_cell_length_a	10.654550
_cell_length_b	15.944493
_cell_length_c	9.730223
_cell_angle_alpha	90.000355
_cell_angle_beta	90.001022
_cell_angle_gamma	83.979987
loop_
_atom_site_label
_atom_site_type_symbol
_atom_site_fract_x
_atom_site_fract_y
_atom_site_fract_z
O1	O	1.666277	0.117982	0.114168
O2	O	1.300650	0.129222	0.114191
O3	O	1.493486	0.001382	0.114190
O4	O	1.473441	0.245822	0.114168
O5	O	1.493471	0.001374	-0.114390
O6	O	1.300635	0.129214	-0.114389
O7	O	1.666262	0.117974	-0.114412
Zn8	Zn	1.483446	0.123593	-0.150693
Zn9	Zn	1.483466	0.123603	0.150471
O10	O	1.473426	0.245814	-0.114411
C11	C	1.253855	0.128393	-0.000096
C12	C	1.114445	0.125923	-0.000086
C13	C	1.033962	0.201194	-0.000096
C14	C	0.902972	0.198869	-0.000120
C15	C	0.932960	0.045996	-0.000117
C16	C	1.063948	0.048322	-0.000103
C17	C	1.492659	-0.029922	-0.000094
C18	C	1.490203	-0.123185	-0.000076
C19	C	1.603711	-0.358288	-0.000110
C20	C	1.542508	-0.409206	0.112595
C21	C	1.485652	-0.293932	-0.000093
C22	C	1.542465	-0.409190	-0.112767
C23	C	1.481264	-0.458867	-0.000115
C24	C	1.424481	-0.343622	0.112705
C25	C	1.424455	-0.343603	-0.112758
C26	C	1.363166	-0.394489	-0.000025
C27	C	1.488183	-0.198918	-0.000079
C28	C	1.478724	-0.553879	-0.000119
C29	C	1.713057	0.118803	-0.000123
C30	C	1.852467	0.121272	-0.000123
C31	C	1.474253	0.277117	-0.000124
C32	C	1.476709	0.370380	-0.000133
N33	N	1.483441	0.123585	-0.356229
C34	C	1.407325	0.072180	-0.572082
C35	C	1.407308	0.072168	-0.428199
C36	C	1.559606	0.175011	-0.428149
C37	C	1.559628	0.175018	-0.572030
N38	N	1.483481	0.123604	0.356008
H39	H	1.705403	-0.342071	-0.000003
O40	O	1.241810	-0.413755	0.000231
C41	C	1.220768	-0.461797	0.118078
H42	H	1.314587	-0.494142	0.156880
H43	H	1.175382	-0.418599	0.201653
C44	C	1.017131	-0.489208	0.033837
C45	C	1.132360	-0.528941	0.081488
H46	H	0.962592	-0.530624	0.011271
H47	H	1.031304	-0.456839	-0.045556
H48	H	0.979325	-0.453211	0.103492
H49	H	1.170171	-0.564929	0.011828
H50	H	1.118190	-0.561318	0.160869
O51	O	1.365201	-0.309447	-0.226566
C52	C	1.427769	-0.343023	-0.345168
H53	H	1.529327	-0.367039	-0.318172
H54	H	1.377174	-0.397376	-0.386286
C55	C	1.302535	-0.244336	-0.488802
C56	C	1.427274	-0.273827	-0.455648
H57	H	1.302226	-0.201655	-0.556955
H58	H	1.260378	-0.221717	-0.408899
H59	H	1.260386	-0.289637	-0.523060
H60	H	1.469415	-0.228528	-0.421376
H61	H	1.469438	-0.296436	-0.535549
O62	O	1.602131	-0.443275	-0.226399
C63	C	1.728857	-0.425188	-0.225952
H64	H	1.737994	-0.367058	-0.159975
H65	H	1.791298	-0.481236	-0.181965
C66	C	1.759376	-0.479638	-0.455043
C67	C	1.770595	-0.408238	-0.374018
H68	H	1.785125	-0.469186	-0.546377
H69	H	1.673999	-0.491827	-0.455343
H70	H	1.811410	-0.526338	-0.418371
H71	H	1.718550	-0.361542	-0.410681
H72	H	1.855964	-0.396040	-0.373728
H73	H	0.837447	0.260161	-0.000132
H74	H	0.891830	-0.017184	-0.000139
O75	O	1.141959	-0.024879	-0.000030
C76	C	1.069305	-0.093870	-0.000071
H77	H	0.971533	-0.073125	0.043196
H78	H	1.059992	-0.117621	-0.109733
C79	C	1.254679	-0.190655	0.036433
C80	C	1.134597	-0.165176	0.089586
H81	H	1.294956	-0.234641	0.091732
H82	H	1.303629	-0.144175	0.036455
H83	H	1.246902	-0.210441	-0.054951
H84	H	1.142376	-0.145380	0.180961
H85	H	1.085649	-0.211655	0.089581
O86	O	1.333512	0.022108	-0.641926
C87	C	1.368311	-0.062937	-0.606748
H88	H	1.469576	-0.070428	-0.567178
H89	H	1.302475	-0.082849	-0.523247
C90	C	1.234088	-0.109619	-0.783173
C91	C	1.358468	-0.118820	-0.734582
H92	H	1.228012	-0.144092	-0.862024
H93	H	1.210639	-0.052322	-0.806870
H94	H	1.179239	-0.126212	-0.713576
H95	H	1.413312	-0.102218	-0.804172
H96	H	1.381926	-0.176116	-0.710900
O97	O	1.333133	0.022313	-0.358415
C98	C	1.205676	0.044791	-0.393631
H99	H	1.193531	0.112460	-0.433164
H100	H	1.176555	0.000585	-0.477171
C101	C	1.137109	-0.045461	-0.217290
C102	C	1.122190	0.037654	-0.265834
H103	H	1.085609	-0.049866	-0.138462
H104	H	1.222979	-0.060607	-0.193567
H105	H	1.112842	-0.082290	-0.286918
H106	H	1.146471	0.074481	-0.196212
H107	H	1.036322	0.052807	-0.289543
O108	O	1.633447	0.224934	-0.358029
C109	C	1.617121	0.213888	-0.215616
H110	H	1.522013	0.189348	-0.195989
H111	H	1.695890	0.166522	-0.174774
C112	C	1.738168	0.329097	-0.165838
C113	C	1.621351	0.298963	-0.141732
H114	H	1.740783	0.381573	-0.120261
H115	H	1.749172	0.336537	-0.261785
H116	H	1.803797	0.289617	-0.131803
H117	H	1.555726	0.338438	-0.175782
H118	H	1.610336	0.291532	-0.045789
H119	H	1.592372	-0.437860	0.207874
O120	O	1.633643	0.225053	-0.641679
C121	C	1.700863	0.270421	-0.547314
H122	H	1.648864	0.274999	-0.444760
H123	H	1.799440	0.236428	-0.531996
C124	C	1.775239	0.354090	-0.729419
C125	C	1.711366	0.359719	-0.603463
H126	H	1.781724	0.409172	-0.764055
H127	H	1.729956	0.323523	-0.792996
H128	H	1.857380	0.325758	-0.716637
H129	H	1.629222	0.388040	-0.616250
H130	H	1.756636	0.390293	-0.539889
H131	H	1.374658	-0.315088	0.208090
H132	H	1.075071	0.264381	-0.000093
