data_functionalizedCrystal
_audit_creation_method	'MofGen! by Chris Wilmer'
_symmetry_space_group_name_H-M	'P1'
_symmetry_Int_Tables_number	1
_symmetry_cell_setting	triclinic
loop_
_symmetry_equiv_pos_as_xyz
  x,y,z
_cell_length_a	12.594509
_cell_length_b	12.594517
_cell_length_c	12.594516
_cell_angle_alpha	90.015853
_cell_angle_beta	90.026199
_cell_angle_gamma	90.021327
loop_
_atom_site_label
_atom_site_type_symbol
_atom_site_fract_x
_atom_site_fract_y
_atom_site_fract_z
Zn1	Zn	-0.601875	-1.627267	0.423716
Zn2	Zn	-0.423903	-1.627158	0.601726
Zn3	Zn	-0.423904	-1.449271	0.423761
Zn4	Zn	-0.601833	-1.449253	0.601652
O5	O	-0.512879	-1.538237	0.512714
O6	O	-0.578284	-1.776198	0.447341
O7	O	-0.274957	-1.603522	0.578169
O8	O	-0.447530	-1.472936	0.274809
O9	O	-0.447528	-1.776118	0.578124
O10	O	-0.578285	-1.603709	0.274776
O11	O	-0.274958	-1.472830	0.447419
O12	O	-0.447489	-1.300323	0.447347
O13	O	-0.750784	-1.472905	0.577998
O14	O	-0.578213	-1.300310	0.578042
O15	O	-0.750815	-1.603691	0.447269
O16	O	-0.447488	-1.603505	0.750662
O17	O	-0.578212	-1.472799	0.750608
C18	C	-0.512847	-1.261696	0.512692
C19	C	-0.512859	-1.143391	0.512709
C20	C	-0.512868	-1.538167	0.789255
C21	C	-0.512899	-1.538235	0.907560
C22	C	-0.790500	-1.538308	0.512620
C23	C	-0.908805	-1.538339	0.512581
C24	C	-0.978042	-1.467227	0.583644
C25	C	-1.048833	-1.564347	0.609650
C26	C	-1.048813	-1.441294	0.486510
C27	C	-0.978038	-1.635510	0.538638
C28	C	-0.978012	-1.512391	0.415453
C29	C	-1.048772	-1.609579	0.441422
C30	C	-0.236338	-1.538227	0.512730
C31	C	-0.118033	-1.538403	0.512470
C32	C	-0.512911	-1.815858	0.512736
C33	C	-0.512924	-1.934163	0.512745
C34	C	-0.441894	-1.074114	0.441526
C35	C	-0.415718	-1.003303	0.538615
C36	C	-0.539054	-1.003403	0.415668
C37	C	-0.486632	-1.074138	0.609849
C38	C	-0.610013	-1.074244	0.486836
C39	C	-0.583874	-1.003465	0.583991
C40	C	-0.512912	-1.538336	0.235093
C41	C	-0.512927	-1.538378	0.116787
C42	C	-0.583950	-1.467137	0.976822
C43	C	-0.486827	-1.441204	1.047688
C44	C	-0.610039	-1.564265	1.047494
C45	C	-0.415725	-1.512250	0.976867
C46	C	-0.539002	-1.635357	0.976667
C47	C	-0.441812	-1.609460	1.047500
H48	H	-0.946986	-1.407136	0.643833
H49	H	-0.381807	-1.105135	0.381389
H50	H	-0.643949	-1.406905	0.945788
H51	H	-0.946881	-1.490382	0.333385
Br52	Br	-0.746939	-1.600862	1.099211
Br53	Br	-1.100635	-1.304464	0.449833
H54	H	-0.561104	-1.717406	0.945451
H55	H	-1.079941	-1.586329	0.691742
Br56	Br	-0.278826	-0.951368	0.575132
Br57	Br	-0.341577	-1.709781	1.098900
Br58	Br	-0.926448	-1.772382	0.575480
Br59	Br	-0.683949	-0.952083	0.684458
Br60	Br	-0.449593	-1.125701	0.746698
Br61	Br	-1.100215	-1.709967	0.341178
Br62	Br	-0.278780	-1.475498	0.925381
Br63	Br	-0.746873	-1.126218	0.450278
H64	H	-0.561146	-0.972276	0.333597
H65	H	-0.464772	-1.359136	1.078906
