data_functionalizedCrystal
_audit_creation_method	'MofGen! by Chris Wilmer'
_symmetry_space_group_name_H-M	'P1'
_symmetry_Int_Tables_number	1
_symmetry_cell_setting	triclinic
loop_
_symmetry_equiv_pos_as_xyz
  x,y,z
_cell_length_a	18.050591
_cell_length_b	19.805405
_cell_length_c	19.805399
_cell_angle_alpha	90.029301
_cell_angle_beta	89.975361
_cell_angle_gamma	89.977584
loop_
_atom_site_label
_atom_site_type_symbol
_atom_site_fract_x
_atom_site_fract_y
_atom_site_fract_z
Zn1	Zn	1.135329	0.269551	-0.382803
Zn2	Zn	1.635329	0.769551	0.117197
Zn3	Zn	1.135236	0.382739	-0.269611
Zn4	Zn	1.635236	0.882739	0.230389
Zn5	Zn	1.011140	0.269562	-0.269618
Zn6	Zn	1.511140	0.769562	0.230382
Zn7	Zn	1.011100	0.382695	-0.382748
Zn8	Zn	1.511100	0.882695	0.117252
O9	O	1.073201	0.326137	-0.326195
O10	O	1.573201	0.826137	0.173805
O11	O	1.239241	0.284579	-0.367808
O12	O	1.739241	0.784579	0.132192
O13	O	1.118752	0.367749	-0.174896
O14	O	1.618752	0.867749	0.325104
O15	O	1.027670	0.174844	-0.284657
O16	O	1.527670	0.674844	0.215343
O17	O	1.239173	0.367738	-0.284647
O18	O	1.739173	0.867738	0.215353
O19	O	1.118911	0.174836	-0.367814
O20	O	1.618911	0.674836	0.132186
O21	O	1.027579	0.284598	-0.174900
O22	O	1.527579	0.784598	0.325100
O23	O	0.907210	0.284555	-0.284604
O24	O	1.407210	0.784555	0.215396
O25	O	1.027602	0.367664	-0.477472
O26	O	1.527602	0.867664	0.022528
O27	O	0.907181	0.367674	-0.367721
O28	O	1.407181	0.867674	0.132279
O29	O	1.118872	0.284537	-0.477512
O30	O	1.618872	0.784537	0.022488
O31	O	1.118713	0.477450	-0.284594
O32	O	1.618713	0.977450	0.215406
O33	O	1.027511	0.477418	-0.367715
O34	O	1.527511	0.977418	0.132285
C35	C	1.073118	0.501993	-0.326162
C36	C	1.573118	1.001993	0.173838
C37	C	1.073150	0.577225	-0.326171
C38	C	1.573150	1.077225	0.173829
C39	C	0.880249	0.326112	-0.326158
C40	C	1.380249	0.826112	0.173842
C41	C	0.797703	0.326117	-0.326158
C42	C	1.297703	0.826117	0.173842
C43	C	1.073243	0.326094	-0.502738
C44	C	1.573243	0.826094	-0.002738
C45	C	1.073261	0.326076	-0.577970
C46	C	1.573261	0.826076	-0.077970
C47	C	0.598247	0.280865	-0.281063
C48	C	1.098247	0.780865	0.218937
C49	C	0.548828	0.342600	-0.264403
C50	C	1.048828	0.842600	0.235597
C51	C	0.646573	0.326138	-0.326188
C52	C	1.146573	0.826138	0.173812
C53	C	0.548910	0.264424	-0.342846
C54	C	1.048910	0.764424	0.157154
C55	C	0.500588	0.326152	-0.326216
C56	C	1.000588	0.826152	0.173784
C57	C	0.598242	0.387906	-0.309496
C58	C	1.098242	0.887906	0.190504
C59	C	0.598327	0.309687	-0.387968
C60	C	1.098327	0.809687	0.112032
C61	C	0.548931	0.371466	-0.371332
C62	C	1.048931	0.871466	0.128668
C63	C	0.730671	0.326129	-0.326170
C64	C	1.230671	0.826129	0.173830
C65	C	0.416491	0.326168	-0.326235
C66	C	0.916491	0.826168	0.173765
C67	C	1.266907	0.326163	-0.326233
C68	C	1.766907	0.826163	0.173767
C69	C	1.349453	0.326174	-0.326249
C70	C	1.849453	0.826174	0.173751
C71	C	1.073305	0.149594	-0.326243
C72	C	1.573305	0.649594	0.173757
C73	C	1.073350	0.074362	-0.326263
C74	C	1.573350	0.574362	0.173737
C75	C	1.120685	0.612563	-0.282935
C76	C	1.620685	1.112563	0.217065
C77	C	1.120716	0.683252	-0.282950
C78	C	1.620716	1.183252	0.217050
C79	C	1.073209	0.718600	-0.326198
C80	C	1.573209	1.218600	0.173802
C81	C	1.025672	0.683257	-0.369438
C82	C	1.525672	1.183257	0.130562
C83	C	1.025645	0.612570	-0.369426
C84	C	1.525645	1.112570	0.130574
C85	C	1.025781	0.968330	-0.369489
C86	C	1.525781	1.468330	0.130511
C87	C	1.025811	1.039022	-0.369496
C88	C	1.525811	1.539022	0.130504
C89	C	1.120853	1.039012	-0.283012
C90	C	1.620853	1.539012	0.216988
C91	C	1.120826	0.968325	-0.283000
C92	C	1.620826	1.468325	0.217000
C93	C	1.073292	0.932988	-0.326243
C94	C	1.573292	1.432988	0.173757
C95	C	1.073259	0.856339	-0.326227
C96	C	1.573259	1.356339	0.173773
C97	C	1.073237	0.795248	-0.326211
C98	C	1.573237	1.295248	0.173789
C99	C	1.120786	0.282790	-0.613336
C100	C	1.620786	0.782790	-0.113336
C101	C	1.120794	0.282770	-0.684025
C102	C	1.620794	0.782770	-0.184025
C103	C	1.073279	0.326041	-0.719345
C104	C	1.573279	0.826041	-0.219345
C105	C	1.025748	0.369329	-0.683974
C106	C	1.525748	0.869329	-0.183974
C107	C	1.025738	0.369345	-0.613287
C108	C	1.525738	0.869345	-0.113287
C109	C	1.025790	0.369266	-0.969048
C110	C	1.525790	0.869266	-0.469048
C111	C	1.025806	0.369248	-1.039740
C112	C	1.525806	0.869248	-0.539740
C113	C	1.120847	0.282691	-1.039785
C114	C	1.620847	0.782691	-0.539785
C115	C	1.120836	0.282707	-0.969098
C116	C	1.620836	0.782707	-0.469098
C117	C	1.073303	0.325992	-0.933733
C118	C	1.573303	0.825992	-0.433733
C119	C	1.073294	0.326012	-0.857085
C120	C	1.573294	0.826012	-0.357085
C121	C	1.073291	0.326025	-0.795993
C122	C	1.573291	0.826025	-0.295993
C123	C	1.073203	0.326130	-0.150339
C124	C	1.573203	0.826130	0.349661
C125	C	1.073329	0.325958	-0.075107
C126	C	1.573329	0.825958	0.424893
H127	H	0.619901	0.242620	-0.242861
H128	H	1.119901	0.742620	0.257139
H129	H	0.986993	0.712044	-0.404655
H130	H	1.486993	1.212044	0.095345
H131	H	0.527414	0.409802	-0.409505
H132	H	1.027414	0.909802	0.090495
H133	H	0.987058	0.404558	-0.712738
H134	H	1.487058	0.904558	-0.212738
C135	C	1.172283	0.929912	-0.235961
C136	C	1.672283	1.429912	0.264039
C137	C	1.130246	0.889401	-0.192520
C138	C	1.630246	1.389401	0.307480
C139	C	1.177625	0.854014	-0.149174
C140	C	1.677625	1.354014	0.350826
H141	H	1.204628	0.902243	-0.261801
H142	H	1.704628	1.402243	0.238199
H143	H	1.200586	0.961062	-0.210174
H144	H	1.700586	1.461062	0.289826
H145	H	1.101956	0.858255	-0.218304
H146	H	1.601956	1.358255	0.281696
H147	H	1.097904	0.917054	-0.166666
H148	H	1.597904	1.417054	0.333334
H149	H	1.205928	0.885165	-0.123387
H150	H	1.705928	1.385165	0.376613
H151	H	1.209967	0.826349	-0.175019
H152	H	1.709967	1.326349	0.324981
H153	H	1.149110	0.826529	-0.119690
H154	H	1.649110	1.326529	0.380310
C155	C	0.627495	0.291141	-0.457555
C156	C	1.127495	0.791141	0.042445
C157	C	0.705050	0.292004	-0.456747
C158	C	1.205050	0.792004	0.043253
C159	C	0.731947	0.274922	-0.520839
C160	C	1.231947	0.774922	-0.020839
H161	H	0.610715	0.247251	-0.469382
H162	H	1.110715	0.747251	0.030618
H163	H	0.609919	0.322870	-0.489753
H164	H	1.109919	0.822870	0.010247
H165	H	0.722618	0.260277	-0.424559
H166	H	1.222618	0.760277	0.075441
H167	H	0.721849	0.335888	-0.444931
H168	H	1.221849	0.835888	0.055069
H169	H	0.714371	0.306650	-0.553037
H170	H	1.214371	0.806650	-0.053037
H171	H	0.715162	0.231032	-0.532661
H172	H	1.215162	0.731032	-0.032661
H173	H	0.784570	0.275511	-0.520301
H174	H	1.284570	0.775511	-0.020301
H175	H	0.987076	0.939564	-0.404697
H176	H	1.487076	1.439564	0.095303
H177	H	1.159496	0.247524	-0.712817
H178	H	1.659496	0.747524	-0.212817
H179	H	1.159560	1.067792	-0.247804
H180	H	1.659560	1.567792	0.252196
H181	H	0.619821	0.440118	-0.295361
H182	H	1.119821	0.940118	0.204639
H183	H	0.986938	0.583798	-0.404634
H184	H	1.486938	1.083798	0.095366
H185	H	1.159481	0.247556	-0.584583
H186	H	1.659481	0.747556	-0.084583
H187	H	1.159530	0.247474	-0.940343
H188	H	1.659530	0.747474	-0.440343
C189	C	0.520117	0.194767	-0.361530
C190	C	1.020117	0.694767	0.138470
C191	C	0.545121	0.147571	-0.314111
C192	C	1.045121	0.647571	0.185889
C193	C	0.518623	0.083394	-0.331299
C194	C	1.018623	0.583394	0.168701
H195	H	0.467497	0.195281	-0.361798
H196	H	0.967497	0.695281	0.138202
H197	H	0.537815	0.182728	-0.405087
H198	H	1.037815	0.682728	0.094913
H199	H	0.527419	0.159607	-0.270565
H200	H	1.027419	0.659607	0.229435
H201	H	0.597738	0.147036	-0.313836
H202	H	1.097738	0.647036	0.186164
H203	H	0.536321	0.071356	-0.374857
H204	H	1.036321	0.571356	0.125143
H205	H	0.466003	0.083916	-0.331567
H206	H	0.966003	0.583916	0.168433
H207	H	0.535589	0.051364	-0.299132
H208	H	1.035589	0.551364	0.200868
C209	C	1.172368	0.235713	-1.078305
C210	C	1.672368	0.735713	-0.578305
C211	C	1.162195	0.244941	-1.147770
C212	C	1.662195	0.744941	-0.647770
C213	C	1.209636	0.201673	-1.183273
C214	C	1.709636	0.701673	-0.683273
H215	H	1.222289	0.245586	-1.066813
H216	H	1.722289	0.745586	-0.566813
H217	H	1.161517	0.190222	-1.066766
H218	H	1.661517	0.690222	-0.566766
H219	H	1.173051	0.290421	-1.159304
H220	H	1.673051	0.790421	-0.659304
H221	H	1.112284	0.235063	-1.159282
H222	H	1.612284	0.735063	-0.659282
H223	H	1.198785	0.156182	-1.171734
H224	H	1.698785	0.656182	-0.671734
H225	H	1.259554	0.211550	-1.171776
H226	H	1.759554	0.711550	-0.671776
H227	H	1.202736	0.207924	-1.230408
H228	H	1.702736	0.707924	-0.730408
H229	H	0.987111	0.404486	-1.068496
H230	H	1.487111	0.904486	-0.568496
H231	H	0.527087	0.356525	-0.212170
H232	H	1.027087	0.856525	0.287830
C233	C	1.172346	0.574310	-0.235951
C234	C	1.672346	1.074310	0.264049
C235	C	1.213995	0.620391	-0.198104
C236	C	1.713995	1.120391	0.301896
C237	C	1.261601	0.585180	-0.154822
C238	C	1.761601	1.085180	0.345178
H239	H	1.144028	0.546773	-0.206368
H240	H	1.644028	1.046773	0.293632
H241	H	1.204717	0.546709	-0.261853
H242	H	1.704717	1.046709	0.238147
H243	H	1.181628	0.647981	-0.172204
H244	H	1.681628	1.147981	0.327796
H245	H	1.242327	0.647930	-0.227669
H246	H	1.742327	1.147930	0.272331
H247	H	1.293972	0.557579	-0.180723
H248	H	1.793972	1.057579	0.319277
H249	H	1.233278	0.557643	-0.125243
H250	H	1.733278	1.057643	0.374757
H251	H	1.289871	0.616440	-0.129141
H252	H	1.789871	1.116440	0.370859
C253	C	0.974204	1.077281	-0.416532
C254	C	1.474204	1.577281	0.083468
C255	C	0.932585	1.031205	-0.454415
C256	C	1.432585	1.531205	0.045585
C257	C	0.885048	1.066424	-0.497755
C258	C	1.385048	1.566424	0.002245
H259	H	0.941806	1.104897	-0.390692
H260	H	1.441806	1.604897	0.109308
H261	H	1.002594	1.104803	-0.446086
H262	H	1.502594	1.604803	0.053914
H263	H	0.904198	1.003695	-0.424865
H264	H	1.404198	1.503695	0.075135
H265	H	0.964964	1.003587	-0.480269
H266	H	1.464964	1.503587	0.019731
H267	H	0.913438	1.093946	-0.527308
H268	H	1.413438	1.593946	-0.027308
H269	H	0.852654	1.094039	-0.471909
H270	H	1.352654	1.594039	0.028091
H271	H	0.856809	1.035167	-0.523467
H272	H	1.356809	1.535167	-0.023467
C273	C	0.974219	0.416192	-0.930535
C274	C	1.474219	0.916192	-0.430535
C275	C	0.984359	0.406936	-0.861070
C276	C	1.484359	0.906936	-0.361070
C277	C	0.936857	0.450150	-0.825569
C278	C	1.436857	0.950150	-0.325569
H279	H	0.985018	0.461695	-0.942029
H280	H	1.485018	0.961695	-0.442029
H281	H	0.924313	0.406272	-0.942073
H282	H	1.424313	0.906272	-0.442073
H283	H	1.034254	0.416861	-0.849537
H284	H	1.534254	0.916861	-0.349537
H285	H	0.973554	0.361442	-0.849556
H286	H	1.473554	0.861442	-0.349556
H287	H	0.886950	0.440229	-0.837106
H288	H	1.386950	0.940229	-0.337106
H289	H	0.947660	0.495650	-0.837068
H290	H	1.447660	0.995650	-0.337068
H291	H	0.943725	0.443871	-0.778433
H292	H	1.443725	0.943871	-0.278433
H293	H	1.159423	0.712021	-0.247743
H294	H	1.659423	1.212021	0.252257
H295	H	0.987030	0.404586	-0.584493
H296	H	1.487030	0.904586	-0.084493
