data_functionalizedCrystal
_audit_creation_method	'MofGen! by Chris Wilmer'
_symmetry_space_group_name_H-M	'P1'
_symmetry_Int_Tables_number	1
_symmetry_cell_setting	triclinic
loop_
_symmetry_equiv_pos_as_xyz
  x,y,z
_cell_length_a	10.686220
_cell_length_b	15.297327
_cell_length_c	10.685880
_cell_angle_alpha	104.677293
_cell_angle_beta	89.641569
_cell_angle_gamma	103.240265
loop_
_atom_site_label
_atom_site_type_symbol
_atom_site_fract_x
_atom_site_fract_y
_atom_site_fract_z
Zn1	Zn	1.907908	-0.289251	-0.637256
Zn2	Zn	1.859636	-0.433340	-0.464806
Zn3	Zn	1.681617	-0.291139	-0.444067
Zn4	Zn	1.660814	-0.456893	-0.696675
O5	O	1.777494	-0.367656	-0.560701
O6	O	2.079416	-0.297717	-0.598192
O7	O	1.824526	-0.405410	-0.284166
O8	O	1.740544	-0.161218	-0.436147
O9	O	2.043951	-0.403579	-0.471493
O10	O	1.906799	-0.159831	-0.578082
O11	O	1.693736	-0.300936	-0.268930
O12	O	1.500947	-0.323774	-0.493764
O13	O	1.705087	-0.443721	-0.866681
O14	O	1.485662	-0.445552	-0.679354
O15	O	1.886626	-0.320555	-0.823026
O16	O	1.804354	-0.566135	-0.529110
O17	O	1.658280	-0.583439	-0.699463
C18	C	1.447174	-0.387424	-0.590757
C19	C	1.305859	-0.395905	-0.603651
C20	C	1.723857	-0.608408	-0.623010
C21	C	1.701031	-0.711398	-0.649697
C22	C	1.941193	-0.965542	-0.370344
C23	C	1.962639	-0.868778	-0.345263
C24	C	1.897239	-0.829428	-0.421370
C25	C	1.810389	-0.886853	-0.522561
C26	C	1.788933	-0.983627	-0.547638
C27	C	1.744979	-0.847512	-0.598664
C28	C	1.658129	-0.904937	-0.699855
C29	C	1.636678	-1.001702	-0.724928
C30	C	1.702078	-1.041051	-0.648822
C31	C	1.766435	-0.750738	-0.573587
C32	C	1.614175	-0.768823	-0.750881
C33	C	1.592730	-0.865587	-0.775962
C34	C	2.109104	-0.347810	-0.530528
C35	C	2.250416	-0.339353	-0.517670
C36	C	1.798921	-0.384555	-0.892268
C37	C	1.808052	-0.391756	-1.033562
C38	C	1.831376	-0.125962	-0.498173
C39	C	1.854338	-0.022967	-0.471528
C40	C	1.756239	-0.350751	-0.230400
C41	C	1.747412	-0.343274	-0.089017
H42	H	1.311059	-0.284449	-0.434192
H43	H	1.245207	-0.450819	-0.687128
H44	H	1.837149	-0.703991	-0.491196
Br45	Br	1.906226	-0.470134	-1.134592
H46	H	1.565943	-1.048455	-0.807312
H47	H	1.684625	-1.119844	-0.669240
H48	H	1.914704	-0.750637	-0.400942
Br49	Br	1.649208	-0.264909	-0.987988
H50	H	1.994424	-0.997591	-0.308382
Br51	Br	1.474868	-0.943531	-0.913291
Br52	Br	2.080513	-0.790851	-0.207948
H53	H	1.560918	-0.736786	-0.812851
