data_functionalizedCrystal
_audit_creation_method	'MofGen! by Chris Wilmer'
_symmetry_space_group_name_H-M	'P1'
_symmetry_Int_Tables_number	1
_symmetry_cell_setting	triclinic
loop_
_symmetry_equiv_pos_as_xyz
  x,y,z
_cell_length_a	19.188905
_cell_length_b	19.188930
_cell_length_c	15.021413
_cell_angle_alpha	89.998889
_cell_angle_beta	89.985589
_cell_angle_gamma	83.139668
loop_
_atom_site_label
_atom_site_type_symbol
_atom_site_fract_x
_atom_site_fract_y
_atom_site_fract_z
O1	O	0.926160	0.087075	-0.074189
O2	O	1.259493	0.420408	0.259145
O3	O	1.592827	0.753742	0.592478
O4	O	0.722846	0.098828	-0.074160
O5	O	1.056179	0.432161	0.259174
O6	O	1.389513	0.765494	0.592507
O7	O	0.830370	-0.008705	-0.074158
O8	O	1.163704	0.324628	0.259176
O9	O	1.497037	0.657962	0.592509
O10	O	0.818636	0.194607	-0.074191
O11	O	1.151969	0.527941	0.259143
O12	O	1.485302	0.861274	0.592476
O13	O	0.830353	-0.008690	0.073907
O14	O	1.163686	0.324644	0.407240
O15	O	1.497020	0.657977	0.740573
O16	O	0.722829	0.098843	0.073905
O17	O	1.056162	0.432176	0.407238
O18	O	1.389496	0.765510	0.740571
O19	O	0.926143	0.087090	0.073876
O20	O	1.259476	0.420424	0.407209
O21	O	1.592809	0.753757	0.740542
Zn22	Zn	0.824483	0.092969	0.097398
Zn23	Zn	1.157817	0.426302	0.430732
Zn24	Zn	1.491150	0.759636	0.764065
Zn25	Zn	0.824506	0.092949	-0.097683
Zn26	Zn	1.157839	0.426282	0.235651
Zn27	Zn	1.491172	0.759616	0.568984
O28	O	0.818619	0.194623	0.073874
O29	O	1.151952	0.527956	0.407207
O30	O	1.485285	0.861290	0.740540
C31	C	0.696826	0.098458	-0.000124
C32	C	1.030160	0.431791	0.333210
C33	C	1.363493	0.765124	0.666543
C34	C	0.619321	0.097324	-0.000112
C35	C	0.952654	0.430657	0.333222
C36	C	1.285987	0.763991	0.666555
C37	C	0.582938	0.096771	-0.080824
C38	C	0.916272	0.430104	0.252510
C39	C	1.249605	0.763438	0.585843
C40	C	0.510115	0.095698	-0.080835
C41	C	0.843448	0.429031	0.252499
C42	C	1.176781	0.762365	0.585832
C43	C	0.473678	0.095164	-0.000129
C44	C	0.807012	0.428497	0.333205
C45	C	1.140345	0.761830	0.666538
C46	C	0.510069	0.095721	0.080594
C47	C	0.843402	0.429054	0.413927
C48	C	1.176736	0.762387	0.747261
C49	C	0.582890	0.096801	0.080602
C50	C	0.916224	0.430134	0.413936
C51	C	1.249557	0.763467	0.747269
N52	N	0.364651	0.053741	0.059939
N53	N	0.697984	0.387075	0.393273
N54	N	1.031318	0.720408	0.726606
N55	N	0.295474	0.052714	0.059926
N56	N	0.628807	0.386047	0.393259
N57	N	0.962141	0.719381	0.726592
C58	C	0.254272	0.091911	-0.000150
C59	C	0.587605	0.425244	0.333184
C60	C	0.920938	0.758578	0.666517
N61	N	0.284861	0.132166	-0.060225
N62	N	0.618194	0.465499	0.273109
N63	N	0.951527	0.798833	0.606442
N64	N	0.354044	0.133190	-0.060214
N65	N	0.687378	0.466524	0.273120
N66	N	1.020711	0.799857	0.606453
C67	C	0.394716	0.093993	-0.000129
C68	C	0.728049	0.427326	0.333204
C69	C	1.061382	0.760660	0.666538
C70	C	0.138925	0.090196	-0.080879
C71	C	0.472259	0.423529	0.252454
C72	C	0.805592	0.756862	0.585787
C73	C	0.066100	0.089127	-0.080887
C74	C	0.399433	0.422460	0.252447
C75	C	0.732766	0.755794	0.585780
C76	C	0.066056	0.089143	0.080544
C77	C	0.399390	0.422476	0.413877
C78	C	0.732723	0.755810	0.747211
C79	C	0.138879	0.090219	0.080549
C80	C	0.472213	0.423552	0.413883
C81	C	0.805546	0.756885	0.747216
C82	C	0.175310	0.090742	-0.000165
C83	C	0.508643	0.424075	0.333168
C84	C	0.841977	0.757408	0.666502
C85	C	0.829982	-0.034708	-0.000123
C86	C	1.163315	0.298625	0.333210
C87	C	1.496648	0.631959	0.666544
C88	C	0.828841	-0.112213	-0.000115
C89	C	1.162174	0.221121	0.333218
C90	C	1.495508	0.554454	0.666552
C91	C	0.891933	-0.157142	-0.000120
C92	C	1.225266	0.176191	0.333214
C93	C	1.558599	0.509525	0.666547
C94	C	0.890861	-0.229966	-0.000134
C95	C	1.224194	0.103367	0.333199
C96	C	1.557528	0.436701	0.666533
C97	C	0.826694	-0.257857	-0.000125
C98	C	1.160027	0.075477	0.333208
C99	C	1.493361	0.408810	0.666541
C100	C	0.763594	-0.212917	-0.000126
C101	C	1.096927	0.120416	0.333208
C102	C	1.430261	0.453749	0.666541
C103	C	0.764668	-0.140095	-0.000120
C104	C	1.098001	0.193238	0.333213
C105	C	1.431334	0.526572	0.666546
N106	N	0.777640	-0.365852	0.050271
N107	N	1.110974	-0.032519	0.383604
N108	N	1.444307	0.300815	0.716937
N109	N	0.776625	-0.435031	0.050268
N110	N	1.109958	-0.101697	0.383601
N111	N	1.443291	0.231636	0.716934
C112	C	0.823456	-0.477265	-0.000143
C113	C	1.156789	-0.143932	0.333190
C114	C	1.490122	0.189402	0.666524
N115	N	0.871351	-0.447709	-0.050539
N116	N	1.204685	-0.114376	0.282794
N117	N	1.538018	0.218958	0.616127
N118	N	0.872369	-0.378524	-0.050532
N119	N	1.205702	-0.045191	0.282801
N120	N	1.539036	0.288142	0.616134
C121	C	0.825523	-0.336819	-0.000132
C122	C	1.158856	-0.003486	0.333202
C123	C	1.492190	0.329848	0.666535
C124	C	0.885390	-0.601159	-0.000164
C125	C	1.218723	-0.267826	0.333169
C126	C	1.552056	0.065508	0.666502
C127	C	0.884315	-0.673984	-0.000184
C128	C	1.217649	-0.340650	0.333149
C129	C	1.550982	-0.007317	0.666483
C130	C	0.757047	-0.656933	-0.000167
C131	C	1.090380	-0.323600	0.333167
C132	C	1.423714	0.009733	0.666500
C133	C	0.758123	-0.584110	-0.000156
C134	C	1.091456	-0.250777	0.333177
C135	C	1.424790	0.082556	0.666511
C136	C	0.822296	-0.556228	-0.000151
C137	C	1.155630	-0.222894	0.333183
C138	C	1.488963	0.110439	0.666516
C139	C	0.952163	0.087460	-0.000162
C140	C	1.285496	0.420794	0.333171
C141	C	1.618829	0.754127	0.666504
C142	C	1.029668	0.088594	-0.000180
C143	C	1.363001	0.421927	0.333153
C144	C	1.696335	0.755261	0.666486
C145	C	0.819007	0.220626	-0.000163
C146	C	1.152341	0.553959	0.333170
C147	C	1.485674	0.887293	0.666504
C148	C	0.820148	0.298131	-0.000177
C149	C	1.153481	0.631464	0.333157
C150	C	1.486815	0.964797	0.666490
N151	N	0.824473	0.092982	0.230536
N152	N	1.157806	0.426316	0.563869
N153	N	1.491140	0.759649	0.897203
N154	N	0.824522	0.092930	-0.230820
N155	N	1.157855	0.426263	0.102513
N156	N	1.491188	0.759597	0.435847
C157	C	0.774746	0.142682	0.470218
C158	C	1.108080	0.476016	0.803552
C159	C	1.441413	0.809349	1.136885
C160	C	0.837795	0.156035	0.529541
C161	C	1.171129	0.489369	0.862874
C162	C	1.504462	0.822702	1.196208
C163	C	0.824491	0.092965	0.412143
C164	C	1.157824	0.426298	0.745476
C165	C	1.491157	0.759632	1.078810
C166	C	0.761459	0.079627	0.529562
C167	C	1.094792	0.412961	0.862895
C168	C	1.428125	0.746294	1.196229
C169	C	0.824502	0.092950	0.587567
C170	C	1.157836	0.426283	0.920900
C171	C	1.491169	0.759616	1.254234
C172	C	0.887572	0.106349	0.470159
C173	C	1.220905	0.439683	0.803492
C174	C	1.554238	0.773016	1.136826
C175	C	0.811194	0.029914	0.470175
C176	C	1.144527	0.363248	0.803508
C177	C	1.477860	0.696581	1.136842
C178	C	0.874288	0.043240	0.529471
C179	C	1.207622	0.376574	0.862804
C180	C	1.540955	0.709907	1.196137
C181	C	0.824483	0.092976	0.311086
C182	C	1.157816	0.426309	0.644419
C183	C	1.491150	0.759642	0.977752
C184	C	0.824517	0.092938	0.688622
C185	C	1.157851	0.426272	1.021956
C186	C	1.491184	0.759605	1.355289
H187	H	0.612596	0.097197	-0.146548
H188	H	0.945929	0.430530	0.186786
H189	H	1.279262	0.763864	0.520119
H190	H	0.940893	0.117687	0.444176
H191	H	1.274227	0.451021	0.777509
H192	H	1.607560	0.784354	1.110843
H193	H	0.036478	0.088681	-0.146615
H194	H	0.369811	0.422014	0.186718
H195	H	0.703144	0.755348	0.520052
O196	O	0.952370	-0.722446	-0.000181
O197	O	1.285703	-0.389112	0.333153
O198	O	1.619037	-0.055779	0.666486
H199	H	0.983106	-0.712548	-0.060521
H200	H	1.316439	-0.379215	0.272812
H201	H	1.649773	-0.045881	0.606146
H202	H	0.480397	0.095288	0.146305
H203	H	0.813731	0.428621	0.479638
H204	H	1.147064	0.761954	0.812972
O205	O	0.696616	-0.091629	-0.000111
O206	O	1.029949	0.241704	0.333223
O207	O	1.363282	0.575037	0.666556
H208	H	0.694059	-0.058046	0.060240
H209	H	1.027392	0.275287	0.393574
H210	H	1.360725	0.608620	0.726907
O211	O	0.852675	0.226655	0.564117
O212	O	1.186008	0.559989	0.897450
O213	O	1.519341	0.893322	1.230783
H214	H	0.859584	0.262020	0.507141
H215	H	1.192917	0.595353	0.840474
H216	H	1.526251	0.928686	1.173808
O217	O	0.470861	0.095087	-0.167891
O218	O	0.804195	0.428421	0.165443
O219	O	1.137528	0.761754	0.498776
H220	H	0.508429	0.095625	-0.224014
H221	H	0.841763	0.428959	0.109320
H222	H	1.175096	0.762292	0.442653
H223	H	0.036390	0.088712	0.146256
H224	H	0.369723	0.422046	0.479590
H225	H	0.703057	0.755379	0.812923
H226	H	0.612512	0.097252	0.146330
H227	H	0.945846	0.430585	0.479663
H228	H	1.279179	0.763918	0.812997
H229	H	0.706747	-0.547527	-0.000147
H230	H	1.040080	-0.214194	0.333186
H231	H	1.373413	0.119139	0.666520
H232	H	0.168503	0.090664	0.146274
H233	H	0.501836	0.423998	0.479607
H234	H	0.835170	0.757331	0.812941
H235	H	0.944187	-0.134445	-0.000118
H236	H	1.277521	0.198888	0.333215
H237	H	1.610854	0.532221	0.666548
H238	H	0.168588	0.090629	-0.146601
H239	H	0.501921	0.423962	0.186732
H240	H	0.835254	0.757296	0.520065
H241	H	0.708149	0.068354	0.555657
H242	H	1.041482	0.401687	0.888991
H243	H	1.374815	0.735020	1.222324
H244	H	0.732721	0.184760	0.444202
H245	H	1.066054	0.518094	0.777535
H246	H	1.399388	0.851427	1.110869
O247	O	0.958911	-0.278440	-0.000127
O248	O	1.292245	0.054893	0.333206
O249	O	1.625578	0.388227	0.666540
H250	H	1.003714	-0.246817	-0.000115
H251	H	1.337048	0.086517	0.333218
H252	H	1.670381	0.419850	0.666551
H253	H	0.799916	-0.023382	0.444078
H254	H	1.133250	0.309951	0.777411
H255	H	1.466583	0.643284	1.110745
O256	O	0.694383	-0.242993	-0.000106
O257	O	1.027716	0.090341	0.333227
O258	O	1.361050	0.423674	0.666560
H259	H	0.704235	-0.301179	-0.000098
H260	H	1.037569	0.032154	0.333235
H261	H	1.370902	0.365487	0.666568
H262	H	0.916407	0.001187	0.555324
H263	H	1.249740	0.334520	0.888657
H264	H	1.583073	0.667854	1.221991
O265	O	0.954600	-0.571076	-0.000176
O266	O	1.287934	-0.237743	0.333157
O267	O	1.621267	0.095590	0.666490
H268	H	0.998294	-0.614557	-0.000199
H269	H	1.331627	-0.281224	0.333134
H270	H	1.664960	0.052110	0.666468
H271	H	0.704801	-0.679641	-0.000164
H272	H	1.038134	-0.346308	0.333169
H273	H	1.371468	-0.012975	0.666503
