data_functionalizedCrystal
_audit_creation_method	'MofGen! by Chris Wilmer'
_symmetry_space_group_name_H-M	'P1'
_symmetry_Int_Tables_number	1
_symmetry_cell_setting	triclinic
loop_
_symmetry_equiv_pos_as_xyz
  x,y,z
_cell_length_a	18.050589
_cell_length_b	18.050591
_cell_length_c	18.050582
_cell_angle_alpha	90.022741
_cell_angle_beta	90.018005
_cell_angle_gamma	90.028131
loop_
_atom_site_label
_atom_site_type_symbol
_atom_site_fract_x
_atom_site_fract_y
_atom_site_fract_z
Zn1	Zn	0.295837	-1.135259	-0.420091
Zn2	Zn	0.420020	-1.135156	-0.295911
Zn3	Zn	0.295834	-1.011078	-0.295898
Zn4	Zn	0.419975	-1.011012	-0.420042
O5	O	0.357917	-1.073126	-0.357986
O6	O	0.312330	-1.239170	-0.403644
O7	O	0.403564	-1.118681	-0.191985
O8	O	0.191910	-1.027622	-0.312388
O9	O	0.403567	-1.239094	-0.312409
O10	O	0.191912	-1.118857	-0.403632
O11	O	0.312325	-1.027522	-0.191975
O12	O	0.312282	-0.907145	-0.312341
O13	O	0.403490	-1.027509	-0.523974
O14	O	0.403488	-0.907096	-0.403549
O15	O	0.312286	-1.118793	-0.524009
O16	O	0.523939	-1.118617	-0.312362
O17	O	0.523906	-1.027409	-0.403561
C18	C	0.357880	-0.880174	-0.357938
C19	C	0.357883	-0.797628	-0.357936
C20	C	0.308220	-0.548808	-0.308441
C21	C	0.290142	-0.598242	-0.376218
C22	C	0.357905	-0.500508	-0.357981
C23	C	0.375937	-0.598156	-0.290186
C24	C	0.357892	-0.646493	-0.357955
C25	C	0.339791	-0.548855	-0.425794
C26	C	0.425618	-0.548764	-0.339716
C27	C	0.407566	-0.598176	-0.407540
C28	C	0.357910	-0.416410	-0.357995
C29	C	0.357887	-0.730590	-0.357949
C30	C	0.550869	-1.073015	-0.357974
C31	C	0.633414	-1.073035	-0.357994
C32	C	0.832874	-1.023463	-0.407571
C33	C	0.882306	-1.005359	-0.339802
C34	C	0.784545	-1.073091	-0.358004
C35	C	0.882195	-1.091214	-0.425782
C36	C	0.930530	-1.073144	-0.358020
C37	C	0.832889	-1.054952	-0.290198
C38	C	0.832774	-1.140839	-0.376225
C39	C	0.882183	-1.122761	-0.308408
C40	C	0.700447	-1.073059	-0.357996
C41	C	1.014626	-1.073176	-0.358020
C42	C	1.164211	-1.073230	-0.358014
C43	C	1.081665	-1.073202	-0.358029
C44	C	0.357884	-1.073155	-0.551691
C45	C	0.357870	-1.073168	-0.634237
C46	C	0.357940	-0.266832	-0.358020
C47	C	0.357917	-0.349378	-0.358002
C48	C	0.407399	-1.023566	-0.833668
C49	C	0.425560	-1.091319	-0.883071
C50	C	0.357813	-1.073204	-0.785368
C51	C	0.339631	-1.005488	-0.883047
C52	C	0.357760	-1.073234	-0.931353
C53	C	0.376010	-1.140993	-0.833682
C54	C	0.290049	-1.055117	-0.833655
C55	C	0.308185	-1.122917	-0.883035
C56	C	0.357845	-1.073187	-0.701269
C57	C	0.357727	-1.073259	-1.015449
C58	C	0.357896	-1.073140	-0.165034
C59	C	0.357701	-1.073272	-0.082488
H60	H	0.449577	-0.619715	-0.449471
H61	H	0.482871	-0.527016	-0.324253
F62	F	0.500432	-1.111340	-0.911443
H63	H	0.266229	-1.164956	-0.904573
F64	F	0.804315	-1.215674	-0.396392
H65	H	0.904080	-0.948092	-0.324405
H66	H	0.232782	-1.039781	-0.811933
F67	F	0.804701	-1.034859	-0.215265
F68	F	0.910305	-1.177649	-0.253567
F69	F	0.215286	-0.626642	-0.396409
F70	F	0.319558	-0.930622	-0.911392
H71	H	0.811222	-0.981439	-0.449429
F72	F	0.910506	-1.111223	-0.500692
F73	F	0.253269	-0.520473	-0.253765
F74	F	0.319761	-0.520669	-0.500742
F75	F	0.395881	-0.626465	-0.215261
F76	F	0.462277	-0.968749	-0.805335
F77	F	0.396172	-1.215882	-0.805461
