data_functionalizedCrystal
_audit_creation_method	'MofGen! by Chris Wilmer'
_symmetry_space_group_name_H-M	'P1'
_symmetry_Int_Tables_number	1
_symmetry_cell_setting	triclinic
loop_
_symmetry_equiv_pos_as_xyz
  x,y,z
_cell_length_a	14.044191
_cell_length_b	14.044220
_cell_length_c	12.503552
_cell_angle_alpha	93.839943
_cell_angle_beta	86.157523
_cell_angle_gamma	93.190327
loop_
_atom_site_label
_atom_site_type_symbol
_atom_site_fract_x
_atom_site_fract_y
_atom_site_fract_z
O1	O	1.282215	0.225150	-0.089273
O2	O	1.532215	0.475150	0.160727
O3	O	1.782215	0.725150	0.410727
O4	O	2.032215	0.975150	0.660727
O5	O	1.005543	0.216836	-0.089287
O6	O	1.255543	0.466836	0.160713
O7	O	1.505543	0.716836	0.410713
O8	O	1.755543	0.966836	0.660713
O9	O	1.139726	0.082658	-0.089270
O10	O	1.389726	0.332658	0.160730
O11	O	1.639726	0.582658	0.410730
O12	O	1.889726	0.832658	0.660730
O13	O	1.148032	0.359328	-0.089291
O14	O	1.398032	0.609328	0.160709
O15	O	1.648032	0.859328	0.410709
O16	O	1.898032	1.109328	0.660709
O17	O	1.129622	0.092758	0.089372
O18	O	1.379622	0.342758	0.339372
O19	O	1.629622	0.592758	0.589372
O20	O	1.879622	0.842758	0.839372
O21	O	0.995440	0.226936	0.089354
O22	O	1.245440	0.476936	0.339354
O23	O	1.495440	0.726936	0.589354
O24	O	1.745440	0.976936	0.839354
O25	O	1.272112	0.235250	0.089368
O26	O	1.522112	0.485250	0.339368
O27	O	1.772112	0.735250	0.589368
O28	O	2.022112	0.985250	0.839368
Cu29	Cu	1.132853	0.232015	0.105672
Cu30	Cu	1.382853	0.482015	0.355672
Cu31	Cu	1.632853	0.732015	0.605672
Cu32	Cu	1.882853	0.982015	0.855672
Cu33	Cu	1.144802	0.220071	-0.105591
Cu34	Cu	1.394802	0.470071	0.144409
Cu35	Cu	1.644802	0.720071	0.394409
Cu36	Cu	1.894802	0.970071	0.644409
O37	O	1.137929	0.369428	0.089351
O38	O	1.387929	0.619428	0.339351
O39	O	1.637929	0.869428	0.589351
O40	O	1.887929	1.119428	0.839351
C41	C	0.964870	0.218250	0.000032
C42	C	1.214870	0.468250	0.250032
C43	C	1.464870	0.718250	0.500032
C44	C	1.714870	0.968250	0.750032
C45	C	0.858727	0.207402	0.000027
C46	C	1.108727	0.457402	0.250027
C47	C	1.358727	0.707402	0.500027
C48	C	1.608727	0.957402	0.750027
C49	C	0.613268	0.264503	0.000034
C50	C	0.863268	0.514503	0.250034
C51	C	1.113268	0.764503	0.500034
C52	C	1.363268	1.014503	0.750034
C53	C	0.664393	0.187587	0.000038
C54	C	0.914393	0.437587	0.250038
C55	C	1.164393	0.687587	0.500038
C56	C	1.414393	0.937587	0.750038
C57	C	0.772531	0.198615	0.000032
C58	C	1.022531	0.448615	0.250032
C59	C	1.272531	0.698615	0.500032
C60	C	1.522531	0.948615	0.750032
C61	C	0.505121	0.253477	0.000040
C62	C	0.755121	0.503477	0.250040
C63	C	1.005121	0.753477	0.500040
C64	C	1.255121	1.003477	0.750040
C65	C	1.131038	0.052086	0.000051
C66	C	1.381038	0.302086	0.250051
C67	C	1.631038	0.552086	0.500051
C68	C	1.881038	0.802086	0.750051
C69	C	1.120194	-0.054057	0.000052
C70	C	1.370194	0.195943	0.250052
C71	C	1.620194	0.445943	0.500052
C72	C	1.870194	0.695943	0.750052
C73	C	1.100368	-0.248396	0.000036
C74	C	1.350368	0.001604	0.250036
C75	C	1.600368	0.251604	0.500036
C76	C	1.850368	0.501604	0.750036
C77	C	1.177283	-0.299524	0.000036
C78	C	1.427283	-0.049524	0.250036
C79	C	1.677283	0.200476	0.500036
C80	C	1.927283	0.450476	0.750036
C81	C	1.166252	-0.407661	0.000027
C82	C	1.416252	-0.157661	0.250027
C83	C	1.666252	0.092339	0.500027
C84	C	1.916252	0.342339	0.750027
C85	C	1.111398	-0.140249	0.000045
C86	C	1.361398	0.109751	0.250045
C87	C	1.611398	0.359751	0.500045
C88	C	1.861398	0.609751	0.750045
C89	C	1.312785	0.233836	0.000046
C90	C	1.562785	0.483836	0.250046
C91	C	1.812785	0.733836	0.500046
C92	C	2.062785	0.983836	0.750046
C93	C	1.418929	0.244683	0.000044
C94	C	1.668929	0.494683	0.250044
C95	C	1.918929	0.744683	0.500044
C96	C	2.168929	0.994683	0.750044
C97	C	1.146617	0.400000	0.000027
C98	C	1.396617	0.650000	0.250027
C99	C	1.646617	0.900000	0.500027
C100	C	1.896617	1.150000	0.750027
C101	C	1.157462	0.506143	0.000020
C102	C	1.407462	0.756143	0.250020
C103	C	1.657462	1.006143	0.500020
C104	C	1.907462	1.256143	0.750020
N105	N	1.124457	0.240416	0.254264
N106	N	1.374457	0.490416	0.504264
N107	N	1.624457	0.740416	0.754264
N108	N	1.874457	0.990416	1.004264
N109	N	1.153205	0.211663	-0.254183
N110	N	1.403205	0.461663	-0.004183
N111	N	1.653205	0.711663	0.245817
N112	N	1.903205	0.961663	0.495817
C113	C	1.165552	0.199302	0.526702
C114	C	1.415552	0.449302	0.776702
C115	C	1.665552	0.699302	1.026702
C116	C	1.915552	0.949302	1.276702
C117	C	1.112113	0.252774	0.473372
C118	C	1.362113	0.502774	0.723372
C119	C	1.612113	0.752774	0.973372
C120	C	1.862113	1.002774	1.223372
C121	C	1.118983	0.245896	0.351449
C122	C	1.368983	0.495896	0.601449
C123	C	1.618983	0.745896	0.851449
C124	C	1.868983	0.995896	1.101449
C125	C	1.158683	0.206179	0.648636
C126	C	1.408683	0.456179	0.898636
C127	C	1.658683	0.706179	1.148636
C128	C	1.908683	0.956179	1.398636
H129	H	0.650710	0.338629	0.000025
H130	H	0.900710	0.588629	0.250025
H131	H	1.150710	0.838629	0.500025
H132	H	1.400710	1.088629	0.750025
H133	H	1.216460	0.148362	0.480799
H134	H	1.466460	0.398362	0.730799
H135	H	1.716460	0.648362	0.980799
H136	H	1.966460	0.898362	1.230799
H137	H	1.251420	-0.262087	-0.000032
H138	H	1.501420	-0.012087	0.249968
H139	H	1.751420	0.237913	0.499968
H140	H	2.001420	0.487913	0.749968
O141	O	1.011999	-0.293203	0.000083
O142	O	1.261999	-0.043203	0.250083
O143	O	1.511999	0.206797	0.500083
O144	O	1.761999	0.456797	0.750083
C145	C	1.020522	-0.392762	0.000052
C146	C	1.270522	-0.142762	0.250052
C147	C	1.520522	0.107238	0.500052
C148	C	1.770522	0.357238	0.750052
H149	H	1.091175	-0.407811	0.033865
H150	H	1.341175	-0.157811	0.283865
H151	H	1.591175	0.092189	0.533865
H152	H	1.841175	0.342189	0.783865
H153	H	0.958843	-0.425262	0.051919
H154	H	1.208843	-0.175262	0.301919
H155	H	1.458843	0.074738	0.551919
H156	H	1.708843	0.324738	0.801919
H157	H	1.018437	-0.425719	-0.085652
H158	H	1.268437	-0.175719	0.164348
H159	H	1.518437	0.074281	0.414348
H160	H	1.768437	0.324281	0.664348
H161	H	0.626954	0.113450	-0.000032
H162	H	0.876954	0.363450	0.249968
H163	H	1.126954	0.613450	0.499968
H164	H	1.376954	0.863450	0.749968
H165	H	1.061203	0.303719	0.519281
H166	H	1.311203	0.553719	0.769281
H167	H	1.561203	0.803719	1.019281
H168	H	1.811203	1.053719	1.269281
