data_functionalizedCrystal
_audit_creation_method	'MofGen! by Chris Wilmer'
_symmetry_space_group_name_H-M	'P1'
_symmetry_Int_Tables_number	1
_symmetry_cell_setting	triclinic
loop_
_symmetry_equiv_pos_as_xyz
  x,y,z
_cell_length_a	6.817900
_cell_length_b	12.908942
_cell_length_c	16.255661
_cell_angle_alpha	95.685686
_cell_angle_beta	103.488922
_cell_angle_gamma	100.860556
loop_
_atom_site_label
_atom_site_type_symbol
_atom_site_fract_x
_atom_site_fract_y
_atom_site_fract_z
V1	V	-4.013122	-0.146702	-0.263398
O2	O	-4.014762	0.006173	-0.258868
O3	O	-3.951394	-0.290044	-0.261130
O4	O	-3.964857	-0.144830	-0.378487
O5	O	-4.001207	-0.140045	-0.140699
V6	V	-4.498459	-0.128371	-0.248778
O7	O	-4.270400	-0.186913	-0.295466
O8	O	-4.691378	-0.088160	-0.216710
O9	O	-4.336979	0.014970	-0.251046
O10	O	-4.614215	-0.281247	-0.253308
O11	O	-4.627771	-0.135029	-0.371477
O12	O	-4.323517	-0.130243	-0.133689
C13	C	-3.793149	-0.324975	-0.256855
C14	C	-3.823967	-0.442161	-0.255768
C15	C	-4.245154	-0.673134	-0.262155
C16	C	-4.274120	-0.783241	-0.261134
C17	C	-3.910871	-0.772484	-0.252712
C18	C	-3.881905	-0.662377	-0.253732
C19	C	-4.049054	-0.612706	-0.258453
C20	C	-4.020082	-0.502596	-0.259467
C21	C	-3.656839	-0.491843	-0.251051
C22	C	-3.685805	-0.601949	-0.250031
C23	C	-3.810321	-0.139740	-0.406554
C24	C	-3.852054	-0.139158	-0.500637
C25	C	-3.763255	-0.132203	-0.723478
C26	C	-3.911356	-0.221959	-0.792664
C27	C	-3.928540	-0.138066	-0.672889
C28	C	-3.854824	-0.047283	-0.771343
C29	C	-4.002406	-0.137007	-0.839276
C30	C	-4.076116	-0.227902	-0.740845
C31	C	-4.019529	-0.053147	-0.719509
C32	C	-4.167764	-0.142928	-0.788676
C33	C	-3.885982	-0.138677	-0.577038
C34	C	-4.044980	-0.136404	-0.935127
C35	C	-4.158567	0.049896	-0.255319
C36	C	-4.106986	0.167080	-0.256411
C37	C	-4.141395	-0.135337	-0.105618
C38	C	-4.078900	-0.135914	-0.011534
H39	H	-3.549726	-0.642407	-0.246191
H40	H	-4.156182	-0.462155	-0.263305
N41	N	-4.485578	-0.848459	-0.265102
H42	H	-4.586384	-0.842090	-0.319787
H43	H	-4.533360	-0.821219	-0.214403
H44	H	-3.866072	-0.293329	-0.824520
N45	N	-3.730614	-0.826074	-0.247600
H46	H	-3.760907	-0.881934	-0.299655
H47	H	-3.708297	-0.861040	-0.194280
N48	N	-3.445310	-0.426666	-0.247050
H49	H	-3.452315	-0.349375	-0.248409
H50	H	-3.397435	-0.453965	-0.297705
N51	N	-4.199487	-0.329129	-0.722693
H52	H	-4.351792	-0.333447	-0.747037
H53	H	-4.170114	-0.328865	-0.658826
H54	H	-3.591910	-0.127786	-0.695012
N55	N	-4.394861	-0.148953	-0.826205
H56	H	-4.478490	-0.217165	-0.815353
H57	H	-4.421639	-0.147846	-0.889860
N58	N	-4.079416	0.041394	-0.677281
H59	H	-3.954341	0.086932	-0.633788
H60	H	-4.190302	0.015373	-0.647766
N61	N	-3.731440	0.053828	-0.789664
H62	H	-3.579081	0.057778	-0.765837
H63	H	-3.770947	0.117578	-0.761908
H64	H	-4.381247	-0.632689	-0.265985
