data_functionalizedCrystal
_audit_creation_method	'MofGen! by Chris Wilmer'
_symmetry_space_group_name_H-M	'P1'
_symmetry_Int_Tables_number	1
_symmetry_cell_setting	triclinic
loop_
_symmetry_equiv_pos_as_xyz
  x,y,z
_cell_length_a	14.044191
_cell_length_b	17.019294
_cell_length_c	13.101039
_cell_angle_alpha	89.487532
_cell_angle_beta	86.337551
_cell_angle_gamma	88.281862
loop_
_atom_site_label
_atom_site_type_symbol
_atom_site_fract_x
_atom_site_fract_y
_atom_site_fract_z
O1	O	1.263670	0.185438	-0.101525
O2	O	1.763670	0.685438	0.398475
O3	O	0.987674	0.178598	-0.100934
O4	O	1.487674	0.678598	0.399066
O5	O	1.132755	0.068197	-0.091181
O6	O	1.632755	0.568197	0.408819
O7	O	1.118589	0.295839	-0.111278
O8	O	1.618589	0.795839	0.388722
O9	O	1.122346	0.076133	0.078548
O10	O	1.622346	0.576133	0.578548
O11	O	0.977265	0.186533	0.068795
O12	O	1.477265	0.686533	0.568795
O13	O	1.253261	0.193374	0.068204
O14	O	1.753261	0.693374	0.568204
Zn15	Zn	1.113610	0.191213	0.095447
Zn16	Zn	1.613610	0.691213	0.595447
Zn17	Zn	1.127325	0.180758	-0.128178
Zn18	Zn	1.627325	0.680758	0.371822
O19	O	1.108180	0.303774	0.058450
O20	O	1.608180	0.803774	0.558450
C21	C	0.947143	0.179574	-0.015807
C22	C	1.447143	0.679574	0.484193
C23	C	0.841881	0.170648	-0.015025
C24	C	1.341881	0.670648	0.484975
C25	C	1.126808	0.042856	-0.003731
C26	C	1.626808	0.542856	0.496269
C27	C	1.124585	-0.044478	0.003972
C28	C	1.624585	0.455522	0.503972
C29	C	0.591784	0.217630	-0.019162
C30	C	1.091784	0.717630	0.480838
C31	C	0.649157	0.154344	-0.013577
C32	C	1.149157	0.654344	0.486423
C33	C	0.756398	0.163418	-0.014383
C34	C	1.256398	0.663418	0.485617
C35	C	0.484533	0.208558	-0.018357
C36	C	0.984533	0.708558	0.481643
C37	C	1.129216	-0.089828	-0.084927
C38	C	1.629216	0.410172	0.415073
C39	C	1.127121	-0.171887	-0.077686
C40	C	1.627121	0.328113	0.422314
C41	C	1.120401	-0.208594	0.018456
C42	C	1.620401	0.291406	0.518456
C43	C	1.115766	-0.163237	0.107362
C44	C	1.615766	0.336763	0.607362
C45	C	1.117854	-0.081180	0.100120
C46	C	1.617854	0.418820	0.600120
C47	C	1.113804	-0.456137	0.044952
C48	C	1.613804	0.043863	0.544952
C49	C	1.111719	-0.538201	0.052188
C50	C	1.611719	-0.038201	0.552188
C51	C	1.123073	-0.546845	-0.132861
C52	C	1.623073	-0.046845	0.367139
C53	C	1.125166	-0.464786	-0.140095
C54	C	1.625166	0.035214	0.359905
C55	C	1.120526	-0.419436	-0.051189
C56	C	1.620526	0.080564	0.448811
C57	C	1.118262	-0.292471	0.025860
C58	C	1.618262	0.207529	0.525860
C59	C	1.122658	-0.335560	-0.058594
C60	C	1.622658	0.164440	0.441406
C61	C	1.293792	0.192398	-0.016925
C62	C	1.793792	0.692398	0.483075
C63	C	1.399054	0.201323	-0.017714
C64	C	1.899054	0.701323	0.482286
C65	C	1.114127	0.329116	-0.029001
C66	C	1.614127	0.829116	0.470999
C67	C	1.116351	0.416449	-0.036712
C68	C	1.616351	0.916449	0.463288
N69	N	1.104257	0.198349	0.248066
N70	N	1.604257	0.698349	0.748066
N71	N	1.136685	0.173617	-0.280795
N72	N	1.636685	0.673617	0.219205
C73	C	1.091532	0.208064	0.456250
C74	C	1.591532	0.708064	0.956250
C75	C	1.149407	0.163904	0.511027
C76	C	1.649407	0.663904	1.011027
C77	C	1.142327	0.169310	0.626868
C78	C	1.642327	0.669310	1.126868
C79	C	1.098611	0.202659	0.340398
C80	C	1.598611	0.702659	0.840398
H81	H	0.617739	0.093346	-0.008264
H82	H	1.117739	0.593346	0.491736
H83	H	1.112793	-0.322367	0.104139
H84	H	1.612793	0.177633	0.604139
C85	C	0.633862	0.298887	-0.026399
C86	C	1.133862	0.798887	0.473601
C87	C	0.733410	0.291842	-0.025810
C88	C	1.233410	0.791842	0.474190
C89	C	0.772217	0.366677	-0.032492
C90	C	1.272217	0.866677	0.467508
H91	H	0.609668	0.329458	0.030315
H92	H	1.109668	0.829458	0.530315
H93	H	0.616864	0.323855	-0.088063
H94	H	1.116864	0.823855	0.411937
H95	H	0.750399	0.266885	0.035847
H96	H	1.250399	0.766885	0.535847
H97	H	0.757630	0.261285	-0.082521
H98	H	1.257630	0.761285	0.417479
H99	H	0.755220	0.391645	-0.094156
H100	H	1.255220	0.891645	0.405844
H101	H	0.748016	0.397242	0.024224
H102	H	1.248016	0.897242	0.524224
H103	H	0.839764	0.361906	-0.032102
H104	H	1.339764	0.861906	0.467898
H105	H	1.134694	-0.059948	-0.163216
H106	H	1.634694	0.440052	0.336784
C107	C	1.129911	-0.295855	-0.163069
C108	C	1.629911	0.204145	0.336931
C109	C	1.133502	-0.353129	-0.239383
C110	C	1.633502	0.146871	0.260617
C111	C	1.140176	-0.316574	-0.335637
C112	C	1.640176	0.183426	0.164363
H113	H	1.186187	-0.266143	-0.169686
H114	H	1.686187	0.233857	0.330314
H115	H	1.075711	-0.261926	-0.169984
H116	H	1.575711	0.238074	0.330016
H117	H	1.187698	-0.387045	-0.232471
H118	H	1.687698	0.112955	0.267529
H119	H	1.077233	-0.382844	-0.232799
H120	H	1.577233	0.117156	0.267201
H121	H	1.085975	-0.282645	-0.342552
H122	H	1.585975	0.217355	0.157448
H123	H	1.196451	-0.286864	-0.342243
H124	H	1.696451	0.213136	0.157757
H125	H	1.142604	-0.355429	-0.387427
H126	H	1.642604	0.144571	0.112573
H127	H	1.204274	0.122038	0.470923
H128	H	1.704274	0.622038	0.970923
C129	C	1.018478	0.263873	0.509900
C130	C	1.518478	0.763873	1.009900
C131	C	1.025920	0.258227	0.615794
C132	C	1.525920	0.758227	1.115794
C133	C	0.958651	0.309635	0.665262
C134	C	1.458651	0.809635	1.165262
H135	H	0.956133	0.250229	0.493718
H136	H	1.456133	0.750229	0.993718
H137	H	1.030156	0.316226	0.487817
H138	H	1.530156	0.816226	0.987817
H139	H	1.014235	0.205885	0.637870
H140	H	1.514235	0.705885	1.137870
H141	H	1.088250	0.271878	0.632006
H142	H	1.588250	0.771878	1.132006
H143	H	0.970330	0.361989	0.643178
H144	H	1.470330	0.861989	1.143178
H145	H	0.896312	0.295987	0.649072
H146	H	1.396312	0.795987	1.149072
H147	H	0.963698	0.305817	0.737115
H148	H	1.463698	0.805817	1.237115
C149	C	1.112632	-0.031887	0.196601
C150	C	1.612632	0.468113	0.696601
C151	C	1.031998	0.018581	0.197571
C152	C	1.531998	0.518581	0.697571
C153	C	1.027143	0.063994	0.286440
C154	C	1.527143	0.563994	0.786440
H155	H	1.168371	-0.001740	0.197906
H156	H	1.668371	0.498260	0.697906
H157	H	1.108278	-0.065467	0.254929
H158	H	1.608278	0.434533	0.754929
H159	H	1.036360	0.052157	0.139259
H160	H	1.536360	0.552157	0.639259
H161	H	0.976245	-0.011546	0.196282
H162	H	1.476245	0.488454	0.696282
H163	H	1.022789	0.030414	0.344768
H164	H	1.522789	0.530414	0.844768
H165	H	1.082885	0.094137	0.287737
H166	H	1.582885	0.594137	0.787737
H167	H	0.972429	0.098237	0.287114
H168	H	1.472429	0.598237	0.787114
C169	C	1.127935	-0.595987	-0.229460
C170	C	1.627935	-0.095987	0.270540
C171	C	1.050383	-0.575491	-0.287311
C172	C	1.550383	-0.075491	0.212689
C173	C	1.054823	-0.620740	-0.376311
C174	C	1.554823	-0.120740	0.123689
H175	H	1.125680	-0.650129	-0.211512
H176	H	1.625680	-0.150129	0.288488
H177	H	1.185809	-0.586430	-0.268549
H178	H	1.685809	-0.086430	0.231451
H179	H	0.992523	-0.585054	-0.248229
H180	H	1.492523	-0.085054	0.251771
H181	H	1.052622	-0.521357	-0.305285
H182	H	1.552622	-0.021357	0.194715
H183	H	1.112697	-0.611183	-0.415400
H184	H	1.612697	-0.111183	0.084600
H185	H	1.052570	-0.674879	-0.358354
H186	H	1.552570	-0.174879	0.141646
H187	H	1.002211	-0.606834	-0.415578
H188	H	1.502211	-0.106834	0.084422
H189	H	1.130640	-0.434905	-0.218384
H190	H	1.630640	0.065095	0.281616
C191	C	1.104366	-0.577907	0.156671
C192	C	1.604366	-0.077907	0.656671
C193	C	1.100723	-0.520629	0.232982
C194	C	1.600723	-0.020629	0.732982
C195	C	1.093938	-0.557177	0.329237
C196	C	1.593938	-0.057177	0.829237
H197	H	1.158524	-0.611849	0.163679
H198	H	1.658524	-0.111849	0.663679
H199	H	1.048060	-0.607603	0.163198
H200	H	1.548060	-0.107603	0.663198
H201	H	1.157022	-0.490946	0.226458
H202	H	1.657022	0.009054	0.726458
H203	H	1.046566	-0.486684	0.226008
H204	H	1.546566	0.013316	0.726008
H205	H	1.037633	-0.586873	0.335764
H206	H	1.537633	-0.086873	0.835764
H207	H	1.148099	-0.591118	0.336235
H208	H	1.648099	-0.091118	0.836235
H209	H	1.091457	-0.518319	0.381026
H210	H	1.591457	-0.018319	0.881026
H211	H	1.130897	-0.208808	-0.150077
H212	H	1.630897	0.291192	0.349923
C213	C	1.108589	-0.406869	0.141448
C214	C	1.608589	0.093131	0.641448
C215	C	1.027959	-0.356396	0.142453
C216	C	1.527959	0.143604	0.642453
C217	C	1.023120	-0.311006	0.231343
C218	C	1.523120	0.188994	0.731343
H219	H	1.164331	-0.376726	0.142756
H220	H	1.664331	0.123274	0.642756
H221	H	1.104242	-0.440464	0.199761
H222	H	1.604242	0.059536	0.699761
H223	H	1.032314	-0.322805	0.084156
H224	H	1.532314	0.177195	0.584156
H225	H	0.972203	-0.386518	0.141161
H226	H	1.472203	0.113482	0.641161
H227	H	1.018773	-0.344601	0.289656
H228	H	1.518773	0.155399	0.789656
H229	H	1.078866	-0.280868	0.232643
H230	H	1.578866	0.219132	0.732643
H231	H	0.968409	-0.276760	0.232041
H232	H	1.468409	0.223240	0.732041
H233	H	1.110288	-0.193130	0.185643
H234	H	1.610288	0.306870	0.685643
