data_functionalizedCrystal
_audit_creation_method	'MofGen! by Chris Wilmer'
_symmetry_space_group_name_H-M	'P1'
_symmetry_Int_Tables_number	1
_symmetry_cell_setting	triclinic
loop_
_symmetry_equiv_pos_as_xyz
  x,y,z
_cell_length_a	8.559649
_cell_length_b	10.489741
_cell_length_c	7.681481
_cell_angle_alpha	84.199479
_cell_angle_beta	94.913240
_cell_angle_gamma	77.158919
loop_
_atom_site_label
_atom_site_type_symbol
_atom_site_fract_x
_atom_site_fract_y
_atom_site_fract_z
O1	O	2.104681	-0.029684	-0.146400
O2	O	1.640234	0.036114	-0.146410
O3	O	1.883027	-0.183496	-0.146394
O4	O	1.861888	0.189927	-0.146416
O5	O	1.912910	-0.210581	0.146465
O6	O	1.670117	0.009029	0.146450
O7	O	2.134565	-0.056769	0.146459
Zn8	Zn	1.907085	-0.028170	0.192952
Zn9	Zn	1.867713	0.007516	-0.192903
O10	O	1.891771	0.162842	0.146444
C11	C	1.595703	0.027558	0.000019
C12	C	1.418493	0.042401	0.000015
C13	C	1.896372	-0.244402	0.000034
C14	C	1.891596	-0.385529	0.000031
C15	C	1.737113	-0.437401	0.000015
C16	C	1.824822	-0.550562	0.144412
C17	C	1.795396	-0.523837	-0.144325
C18	C	1.979381	-0.496842	0.144547
C19	C	1.949920	-0.470093	-0.144320
C20	C	2.037746	-0.583242	0.000112
C21	C	2.179095	-0.048212	0.000027
C22	C	2.356304	-0.063054	0.000019
C23	C	1.878426	0.223748	0.000011
C24	C	1.883201	0.364876	0.000003
N25	N	1.933968	-0.052526	0.456288
N26	N	1.840843	0.031861	-0.456239
H27	H	1.336155	0.144049	-0.000000
H28	H	1.745782	0.117995	0.468558
C29	C	1.565552	-0.352264	0.000197
C30	C	1.466561	-0.376809	0.153170
C31	C	1.295007	-0.291672	0.153361
C32	C	1.222445	-0.181990	0.000580
C33	C	1.321437	-0.157440	-0.152404
C34	C	1.492991	-0.242577	-0.152595
H35	H	1.520275	-0.458007	0.266278
H36	H	1.221727	-0.309847	0.266611
H37	H	1.095451	-0.118966	0.000722
H38	H	1.267723	-0.076242	-0.265512
H39	H	1.566271	-0.224402	-0.265845
H40	H	1.438631	-0.164693	0.000016
H41	H	1.771914	-0.585981	0.266486
C42	C	1.690241	-0.541137	-0.309244
C43	C	1.510876	-0.468996	-0.340926
C44	C	1.405710	-0.486290	-0.505834
C45	C	1.479908	-0.575726	-0.639062
C46	C	1.659283	-0.647874	-0.607385
C47	C	1.764450	-0.630580	-0.442476
H48	H	1.455941	-0.402784	-0.242299
H49	H	1.272924	-0.432881	-0.529283
H50	H	1.402058	-0.588529	-0.761137
H51	H	1.714218	-0.714086	-0.706011
H52	H	1.897235	-0.683989	-0.419027
C53	C	2.062409	-0.168894	0.557879
C54	C	2.011608	-0.271783	0.684686
C55	C	2.140047	-0.388148	0.786277
C56	C	2.319286	-0.401624	0.761060
C57	C	2.370096	-0.298732	0.634248
C58	C	2.241657	-0.182367	0.532657
H59	H	1.878917	-0.261810	0.703358
H60	H	2.102434	-0.464316	0.880152
H61	H	2.414364	-0.487765	0.836264
H62	H	2.502787	-0.308705	0.615576
H63	H	2.279271	-0.106199	0.438782
H64	H	2.057159	-0.484189	0.266760
H65	H	2.164882	-0.646059	0.000195
H66	H	2.002772	-0.434635	-0.266400
