data_functionalizedCrystal
_audit_creation_method	'MofGen! by Chris Wilmer'
_symmetry_space_group_name_H-M	'P1'
_symmetry_Int_Tables_number	1
_symmetry_cell_setting	triclinic
loop_
_symmetry_equiv_pos_as_xyz
  x,y,z
_cell_length_a	14.908571
_cell_length_b	16.625546
_cell_length_c	14.908308
_cell_angle_alpha	86.735930
_cell_angle_beta	89.824947
_cell_angle_gamma	86.718495
loop_
_atom_site_label
_atom_site_type_symbol
_atom_site_fract_x
_atom_site_fract_y
_atom_site_fract_z
Zn1	Zn	1.345280	-0.420778	0.587557
Zn2	Zn	1.353856	-0.548312	0.437189
Zn3	Zn	1.203596	-0.405291	0.428555
Zn4	Zn	1.194884	-0.547354	0.578841
O5	O	1.274404	-0.480434	0.508036
O6	O	1.472243	-0.444578	0.574871
O7	O	1.341159	-0.523260	0.310220
O8	O	1.222448	-0.294517	0.449681
O9	O	1.478544	-0.538277	0.464397
O10	O	1.326543	-0.305896	0.566499
O11	O	1.230763	-0.418182	0.303876
O12	O	1.076615	-0.417254	0.441230
O13	O	1.207599	-0.536644	0.705821
O14	O	1.070214	-0.521627	0.551644
O15	O	1.318095	-0.443649	0.712225
O16	O	1.332711	-0.661013	0.455945
O17	O	1.215914	-0.660309	0.560016
C18	C	1.040789	-0.467656	0.494555
C19	C	0.940846	-0.462211	0.488810
C20	C	0.746435	-0.560814	0.592833
C21	C	0.652530	-0.555700	0.587437
C22	C	0.659128	-0.446865	0.472629
C23	C	0.753033	-0.451979	0.478024
C24	C	0.796683	-0.508956	0.538127
C25	C	0.890591	-0.514074	0.543517
C26	C	0.897187	-0.405236	0.428714
C27	C	0.803282	-0.400121	0.423318
C28	C	1.274321	-0.689918	0.507993
C29	C	1.274366	-0.779542	0.508010
C30	C	1.274517	-1.107731	0.508112
C31	C	1.274472	-1.016419	0.508086
C32	C	1.274441	-0.943640	0.508060
C33	C	1.274397	-0.852322	0.508035
C34	C	1.508931	-0.493262	0.521569
C35	C	1.608873	-0.498728	0.527336
C36	C	1.260918	-0.491767	0.742560
C37	C	1.255172	-0.496597	0.842501
C38	C	1.274511	-0.270134	0.508099
C39	C	1.274556	-0.180516	0.508127
C40	C	1.287889	-0.469089	0.274426
C41	C	1.293810	-0.464042	0.174497
C42	C	1.359429	-0.408817	1.036969
C43	C	1.354033	-0.413353	1.130872
C44	C	1.238977	-0.510198	1.124211
C45	C	1.244374	-0.505662	1.030308
C46	C	1.304603	-0.454971	0.986690
C47	C	1.310004	-0.450441	0.892786
C48	C	1.194945	-0.547281	0.886127
C49	C	1.189548	-0.551817	0.980030
H50	H	0.938110	-0.363011	0.384166
O51	O	1.130971	-0.601072	1.022260
C52	C	1.083756	-0.640855	0.957745
H53	H	1.084502	-0.604428	0.890636
H54	H	1.117237	-0.703405	0.949642
C55	C	0.985033	-0.693765	1.071294
C56	C	0.985942	-0.649021	0.988871
H57	H	0.924697	-0.698806	1.090495
H58	H	1.016843	-0.666965	1.114760
H59	H	1.012937	-0.745885	1.064530
H60	H	0.958048	-0.596899	0.995638
H61	H	0.954124	-0.675812	0.945406
O62	O	0.616808	-0.391557	0.414146
C63	C	0.644834	-0.405967	0.325797
H64	H	0.713125	-0.440569	0.327757
H65	H	0.593706	-0.443036	0.292406
C66	C	0.568391	-0.282391	0.269339
C67	C	0.652270	-0.324884	0.271746
H68	H	0.572974	-0.232377	0.235995
H69	H	0.549506	-0.272684	0.328860
H70	H	0.525792	-0.313291	0.241515
H71	H	0.694864	-0.293989	0.299579
H72	H	0.671163	-0.334584	0.212227
H73	H	0.926129	-0.560469	0.592455
O74	O	0.603808	-0.606046	0.640708
C75	C	0.621609	-0.594111	0.731676
H76	H	0.689689	-0.566925	0.737517
H77	H	0.567031	-0.551285	0.759003
C78	C	0.539201	-0.709037	0.779067
C79	C	0.622821	-0.675654	0.786242
H80	H	0.539944	-0.759336	0.812728
H81	H	0.527205	-0.717077	0.717781
H82	H	0.493728	-0.673341	0.801839
H83	H	0.668291	-0.711345	0.763460
H84	H	0.634825	-0.667622	0.847526
H85	H	1.359047	-0.409167	0.857274
H86	H	0.781976	-0.607211	0.641766
H87	H	1.408475	-0.367547	1.001455
H88	H	1.398676	-0.375767	1.171805
O89	O	1.180343	-0.559337	1.166536
C90	C	1.092059	-0.535719	1.138400
H91	H	1.089039	-0.469813	1.112337
H92	H	1.071671	-0.575031	1.082527
C93	C	1.030953	-0.626789	1.250358
C94	C	1.027242	-0.545841	1.218355
H95	H	0.990969	-0.633036	1.299676
H96	H	1.090431	-0.642704	1.269313
H97	H	1.013965	-0.659540	1.203790
H98	H	1.044240	-0.513093	1.264920
H99	H	0.967765	-0.529921	1.199410
H100	H	0.767729	-0.353730	0.374387
O101	O	1.141809	-0.592161	0.837197
C102	C	1.196099	-0.644429	0.785840
H103	H	1.265061	-0.619037	0.775705
H104	H	1.203873	-0.706465	0.822590
C105	C	1.067044	-0.683211	0.706235
C106	C	1.151742	-0.652020	0.693781
H107	H	1.039682	-0.687898	0.649450
H108	H	1.030467	-0.648000	0.740837
H109	H	1.073534	-0.734904	0.736862
H110	H	1.145250	-0.600324	0.663164
H111	H	1.188317	-0.687224	0.659170
