data_functionalizedCrystal
_audit_creation_method	'MofGen! by Chris Wilmer'
_symmetry_space_group_name_H-M	'P1'
_symmetry_Int_Tables_number	1
_symmetry_cell_setting	triclinic
loop_
_symmetry_equiv_pos_as_xyz
  x,y,z
_cell_length_a	14.971506
_cell_length_b	17.699083
_cell_length_c	14.048226
_cell_angle_alpha	89.992674
_cell_angle_beta	89.993237
_cell_angle_gamma	83.452701
loop_
_atom_site_label
_atom_site_type_symbol
_atom_site_fract_x
_atom_site_fract_y
_atom_site_fract_z
O1	O	1.186597	0.098706	-0.079169
O2	O	1.686597	0.598706	0.420831
O3	O	0.926158	0.110502	-0.079170
O4	O	1.426158	0.610502	0.420830
O5	O	1.063735	-0.005567	-0.079161
O6	O	1.563735	0.494433	0.420839
O7	O	1.049019	0.214774	-0.079178
O8	O	1.549019	0.714774	0.420822
O9	O	1.063719	-0.005574	0.079160
O10	O	1.563719	0.494426	0.579160
O11	O	0.926142	0.110495	0.079151
O12	O	1.426142	0.610495	0.579151
O13	O	1.186580	0.098699	0.079152
O14	O	1.686580	0.598699	0.579152
Zn15	Zn	1.056358	0.104596	0.104289
Zn16	Zn	1.556358	0.604596	0.604289
Zn17	Zn	1.056380	0.104605	-0.104306
Zn18	Zn	1.556380	0.604605	0.395694
O19	O	1.049003	0.214768	0.079143
O20	O	1.549003	0.714768	0.579143
C21	C	0.892828	0.109968	-0.000009
C22	C	1.392828	0.609968	0.499991
C23	C	0.793537	0.108379	-0.000009
C24	C	1.293537	0.608379	0.499991
C25	C	0.355041	0.170503	-0.000024
C26	C	0.855041	0.670503	0.499976
C27	C	0.448336	0.171990	-0.000028
C28	C	0.948336	0.671990	0.499972
C29	C	0.505790	0.103795	-0.000019
C30	C	1.005790	0.603795	0.499981
C31	C	0.469945	0.034109	-0.000015
C32	C	0.969945	0.534109	0.499985
C33	C	0.376652	0.032623	-0.000017
C34	C	0.876652	0.532623	0.499983
C35	C	0.664398	0.037212	-0.000007
C36	C	1.164398	0.537212	0.499993
C37	C	0.757698	0.038698	-0.000002
C38	C	1.257698	0.538698	0.499998
C39	C	0.736082	0.176579	-0.000018
C40	C	1.236082	0.676579	0.499982
C41	C	0.642788	0.175093	-0.000020
C42	C	1.142788	0.675093	0.499980
C43	C	0.606950	0.105406	-0.000014
C44	C	1.106950	0.605406	0.499986
C45	C	1.063200	-0.033769	-0.000000
C46	C	1.563200	0.466231	0.500000
C47	C	1.061618	-0.117791	0.000000
C48	C	1.561618	0.382209	0.500000
C49	C	1.142373	-0.166208	0.000002
C50	C	1.642373	0.333792	0.500002
C51	C	1.140881	-0.245155	-0.000007
C52	C	1.640881	0.254845	0.499993
C53	C	1.058634	-0.275683	-0.000010
C54	C	1.558634	0.224317	0.499990
C55	C	0.977873	-0.227260	-0.000014
C56	C	1.477873	0.272740	0.499986
C57	C	0.979365	-0.148314	-0.000013
C58	C	1.479365	0.351686	0.499987
C59	C	0.971851	-0.545638	-0.000022
C60	C	1.471851	-0.045638	0.499978
C61	C	0.970365	-0.624590	-0.000021
C62	C	1.470365	-0.124590	0.499979
C63	C	1.133367	-0.642479	-0.000016
C64	C	1.633367	-0.142479	0.499984
C65	C	1.134860	-0.563533	-0.000015
C66	C	1.634860	-0.063533	0.499985
C67	C	1.054099	-0.515117	-0.000024
C68	C	1.554099	-0.015117	0.499976
C69	C	1.055718	-0.429513	-0.000017
C70	C	1.555718	0.070487	0.499983
C71	C	1.057014	-0.361285	-0.000011
C72	C	1.557014	0.138715	0.499989
C73	C	1.219911	0.099233	-0.000011
C74	C	1.719911	0.599233	0.499989
C75	C	1.319202	0.100822	-0.000017
C76	C	1.819202	0.600822	0.499983
C77	C	1.049538	0.242969	-0.000020
C78	C	1.549538	0.742969	0.499980
C79	C	1.051120	0.326991	-0.000026
C80	C	1.551120	0.826991	0.499974
N81	N	1.056350	0.104589	0.246649
N82	N	1.556350	0.604589	0.746649
N83	N	1.056395	0.104605	-0.246667
N84	N	1.556395	0.604605	0.253333
C85	C	1.117288	0.053215	0.296471
C86	C	1.617288	0.553215	0.796471
C87	C	1.117294	0.053215	0.396129
C88	C	1.617294	0.553215	0.896129
C89	C	1.056366	0.104593	0.445963
C90	C	1.556366	0.604593	0.945963
C91	C	0.995421	0.155969	0.396134
C92	C	1.495421	0.655969	0.896134
C93	C	0.995411	0.155965	0.296478
C94	C	1.495411	0.655965	0.796478
C95	C	0.995447	0.155974	0.603848
C96	C	1.495447	0.655974	1.103848
C97	C	0.995457	0.155979	0.703511
C98	C	1.495457	0.655979	1.203511
C99	C	1.117330	0.053224	0.703499
C100	C	1.617330	0.553224	1.203499
C101	C	1.117320	0.053220	0.603843
C102	C	1.617320	0.553220	1.103843
C103	C	1.056376	0.104598	0.554021
C104	C	1.556376	0.604598	1.054021
H105	H	0.516732	-0.021416	-0.000012
H106	H	1.016732	0.478584	0.499988
F107	F	0.338510	-0.041541	-0.000010
F108	F	0.838510	0.458459	0.499990
H109	H	1.209348	-0.141359	0.000010
H110	H	1.709348	0.358641	0.500010
F111	F	0.930580	0.210655	0.550828
F112	F	1.430580	0.710655	1.050828
F113	F	0.930607	0.210662	0.756541
F114	F	1.430607	0.710662	1.256541
H115	H	0.945807	0.197799	0.436714
H116	H	1.445807	0.697799	0.936714
H117	H	0.906091	-0.506226	-0.000030
H118	H	1.406091	-0.006226	0.499970
H119	H	0.910905	-0.252122	-0.000023
H120	H	1.410905	0.247878	0.499977
F121	F	1.226832	-0.296681	-0.000003
F122	F	1.726832	0.203319	0.499997
F123	F	1.222398	-0.531048	-0.000012
F124	F	1.722398	-0.031048	0.499988
H125	H	1.166937	0.011389	0.563269
H126	H	1.666937	0.511389	1.063269
H127	H	1.199126	-0.681909	-0.000013
H128	H	1.699126	-0.181909	0.499987
F129	F	0.293901	0.243086	-0.000026
F130	F	0.793901	0.743086	0.499974
F131	F	0.882821	-0.657078	-0.000026
F132	F	1.382821	-0.157078	0.499974
F133	F	0.893415	-0.096785	-0.000017
F134	F	1.393415	0.403215	0.499983
H135	H	1.166914	0.011382	0.436694
H136	H	1.666914	0.511382	0.936694
H137	H	1.166907	0.011381	0.255903
H138	H	1.666907	0.511381	0.755903
F139	F	1.182191	-0.001454	0.756527
F140	F	1.682191	0.498546	1.256527
H141	H	0.477511	0.228731	-0.000042
H142	H	0.977511	0.728731	0.499958
F143	F	0.581643	0.247673	-0.000025
F144	F	1.081643	0.747673	0.499975
F145	F	0.818843	-0.033882	0.000002
F146	F	1.318843	0.466118	0.500002
F147	F	0.930550	0.210642	0.243455
F148	F	1.430550	0.710642	0.743455
H149	H	0.635222	-0.019534	-0.000007
H150	H	1.135222	0.480466	0.499993
F151	F	0.774224	0.250745	-0.000016
F152	F	1.274224	0.750745	0.499984
