data_functionalizedCrystal
_audit_creation_method	'MofGen! by Chris Wilmer'
_symmetry_space_group_name_H-M	'P1'
_symmetry_Int_Tables_number	1
_symmetry_cell_setting	triclinic
loop_
_symmetry_equiv_pos_as_xyz
  x,y,z
_cell_length_a	10.489741
_cell_length_b	19.188930
_cell_length_c	9.565339
_cell_angle_alpha	89.995116
_cell_angle_beta	89.999100
_cell_angle_gamma	83.841978
loop_
_atom_site_label
_atom_site_type_symbol
_atom_site_fract_x
_atom_site_fract_y
_atom_site_fract_z
O1	O	1.691850	0.098497	-0.116191
O2	O	1.320448	0.107743	-0.116215
O3	O	1.516867	0.001537	-0.116175
O4	O	1.495431	0.204704	-0.116231
O5	O	1.516852	0.001543	0.116345
O6	O	1.320432	0.107750	0.116305
O7	O	1.691835	0.098504	0.116329
Zn8	Zn	1.506131	0.103128	0.153235
Zn9	Zn	1.506152	0.103119	-0.153121
O10	O	1.495416	0.204711	0.116289
C11	C	1.272924	0.107048	0.000043
C12	C	1.131341	0.104959	0.000035
C13	C	1.064712	0.037383	0.000067
C14	C	0.971879	0.069302	-0.114584
C15	C	0.971898	0.069325	0.114663
C16	C	1.040373	0.136906	-0.114710
C17	C	1.040401	0.136919	0.114640
C18	C	0.947595	0.168887	-0.000039
C19	C	1.516165	-0.024476	0.000089
C20	C	1.514081	-0.101994	0.000101
C21	C	1.629334	-0.146146	0.000115
C22	C	1.627376	-0.218983	0.000092
C23	C	1.510159	-0.247665	0.000084
C24	C	1.394892	-0.203503	0.000062
C25	C	1.396853	-0.130668	0.000071
N26	N	1.420556	-0.356268	0.079209
N27	N	1.418701	-0.425459	0.079204
C28	C	1.504244	-0.467113	0.000055
N29	N	1.591732	-0.436964	-0.079071
N30	N	1.593590	-0.367767	-0.079059
C31	C	1.508020	-0.326642	0.000074
C32	C	1.617382	-0.590244	0.000043
C33	C	1.615419	-0.663081	0.000012
C34	C	1.382932	-0.647600	-0.000004
C35	C	1.384898	-0.574764	0.000013
C36	C	1.502126	-0.546090	0.000043
C37	C	1.739359	0.099199	0.000068
C38	C	1.880941	0.101288	0.000067
C39	C	1.496118	0.230723	0.000022
C40	C	1.498202	0.308242	0.000001
N41	N	1.506127	0.103134	0.362314
N42	N	1.506166	0.103108	-0.362200
C43	C	1.415262	0.152234	0.453499
C44	C	1.530443	0.166361	0.546681
C45	C	1.390995	0.089012	0.546688
C46	C	1.621366	0.117292	0.453444
C47	C	1.481842	0.039916	0.453443
C48	C	1.597107	0.054016	0.546583
H49	H	1.721231	-0.254938	0.000098
N50	N	1.749064	-0.116846	0.000121
N51	N	1.750805	-0.051815	0.000124
H52	H	1.835365	-0.031119	0.000127
H53	H	1.302998	-0.094719	0.000060
N54	N	1.078223	0.172764	-0.236430
N55	N	1.133904	0.226844	-0.223916
H56	H	1.160632	0.252172	-0.309877
H57	H	1.461239	-0.013519	0.412456
N58	N	1.737110	-0.560937	0.000038
N59	N	1.738846	-0.495905	0.000047
H60	H	1.823404	-0.475207	0.000040
N61	N	1.263207	-0.676900	-0.000029
N62	N	1.261469	-0.741932	-0.000045
H63	H	1.176911	-0.762629	-0.000068
H64	H	1.718768	0.129289	0.412658
H65	H	0.941511	0.040706	-0.211499
N66	N	1.268844	0.074020	0.598066
N67	N	1.260693	0.021239	0.672790
H68	H	1.174422	0.010654	0.709072
N69	N	1.128546	-0.032319	-0.000065
N70	N	1.111206	-0.073007	-0.098646
H71	H	1.156288	-0.122234	-0.098746
N72	N	0.884041	0.238652	-0.000144
N73	N	0.901598	0.279335	-0.098679
H74	H	0.856713	0.328606	-0.098760
H75	H	1.070802	0.165492	0.211559
N76	N	0.933832	0.033437	0.236250
N77	N	0.976361	-0.029104	0.256660
H78	H	0.949482	-0.054455	0.342524
N79	N	1.693642	0.001922	0.597546
N80	N	1.781688	0.019342	0.673756
H81	H	1.849872	-0.017446	0.709752
H82	H	1.551011	0.219812	0.587634
N83	N	1.275169	-0.232809	0.000041
N84	N	1.273433	-0.297841	0.000035
H85	H	1.188875	-0.318539	0.000013
N86	N	1.733168	-0.708173	0.000038
N87	N	1.811200	-0.705225	0.098069
H88	H	1.894364	-0.737070	0.098090
N89	N	1.267157	-0.529670	0.000003
N90	N	1.162505	-0.555284	-0.000010
H91	H	1.079344	-0.523437	-0.000020
N92	N	1.318955	0.204376	0.402238
N93	N	1.323773	0.267448	0.432158
H94	H	1.255760	0.304274	0.395957
