data_functionalizedCrystal
_audit_creation_method	'MofGen! by Chris Wilmer'
_symmetry_space_group_name_H-M	'P1'
_symmetry_Int_Tables_number	1
_symmetry_cell_setting	triclinic
loop_
_symmetry_equiv_pos_as_xyz
  x,y,z
_cell_length_a	12.759401
_cell_length_b	12.759400
_cell_length_c	12.759393
_cell_angle_alpha	90.028272
_cell_angle_beta	90.019059
_cell_angle_gamma	90.012809
loop_
_atom_site_label
_atom_site_type_symbol
_atom_site_fract_x
_atom_site_fract_y
_atom_site_fract_z
Zn1	Zn	1.606266	-0.418237	0.594007
Zn2	Zn	1.606165	-0.593949	0.418331
Zn3	Zn	1.430568	-0.418284	0.418345
Zn4	Zn	1.430561	-0.593873	0.593970
O5	O	1.518390	-0.506086	0.506163
O6	O	1.753274	-0.441558	0.570713
O7	O	1.582833	-0.570698	0.271311
O8	O	1.453920	-0.271256	0.441668
O9	O	1.753200	-0.570653	0.441644
O10	O	1.583004	-0.271222	0.570726
O11	O	1.453822	-0.441637	0.271322
O12	O	1.283546	-0.441564	0.441632
O13	O	1.453908	-0.570523	0.740996
O14	O	1.283541	-0.570569	0.570663
O15	O	1.582998	-0.441484	0.741023
O16	O	1.582826	-0.740960	0.441608
O17	O	1.453810	-0.740904	0.570650
C18	C	1.245423	-0.506064	0.506146
C19	C	1.128646	-0.506080	0.506163
C20	C	0.964031	-0.438841	0.439106
C21	C	1.073755	-0.438819	0.439095
C22	C	1.073807	-0.573359	0.573254
C23	C	0.964085	-0.573375	0.573269
C24	C	0.909146	-0.371584	0.372025
C25	C	0.963977	-0.304303	0.304936
C26	C	1.073701	-0.304281	0.304925
C27	C	1.128594	-0.371540	0.372004
C28	C	1.518335	-0.779053	0.506147
C29	C	1.518408	-0.895830	0.506175
C30	C	1.585588	-0.950594	0.573430
C31	C	1.585637	-1.060318	0.573456
C32	C	1.451322	-1.060504	0.438961
C33	C	1.451268	-0.950782	0.438941
C34	C	1.652727	-0.895642	0.640664
C35	C	1.719914	-0.950407	0.707924
C36	C	1.719963	-1.060131	0.707950
C37	C	1.652825	-1.115090	0.640715
C38	C	1.792423	-0.506108	0.506181
C39	C	1.909200	-0.506118	0.506189
C40	C	1.518463	-0.505990	0.780197
C41	C	1.518495	-0.505949	0.896973
C42	C	1.518474	-0.232052	0.506203
C43	C	1.518510	-0.115276	0.506220
C44	C	1.518378	-0.506105	0.233196
C45	C	1.518550	-0.505850	0.116420
C46	C	1.585674	-0.573121	0.951834
C47	C	1.585704	-0.573069	1.061558
C48	C	1.451368	-0.438670	1.061552
C49	C	1.451343	-0.438718	0.951829
C50	C	1.709631	-0.610555	1.211519
C51	C	1.776801	-0.677743	1.266384
C52	C	1.792890	-0.780275	1.230768
C53	C	1.741794	-0.815639	1.140290
C54	C	1.674616	-0.748456	1.085432
C55	C	1.658547	-0.645910	1.121046
C56	C	1.327415	-0.401243	0.801866
C57	C	1.260231	-0.334065	0.747005
C58	C	1.244131	-0.231532	0.782619
C59	C	1.295209	-0.196172	0.873100
C60	C	1.362393	-0.263350	0.927960
C61	C	1.378494	-0.365882	0.892340
H62	H	1.652697	-0.806299	0.640648
H63	H	0.819803	-0.371596	0.372024
O64	O	1.785092	-0.896862	0.773136
C65	C	1.844498	-0.727748	0.832754
C66	C	1.770649	-0.788252	0.758827
H67	H	1.832831	-0.639926	0.821226
H68	H	1.929257	-0.749199	0.814380
H69	H	1.826024	-0.749336	0.917447
H70	H	1.789028	-0.766696	0.674109
H71	H	1.685912	-0.766796	0.777291
H72	H	1.118341	-0.249489	0.250306
O73	O	1.694117	-0.510883	1.245967
C74	C	1.707970	-0.326646	1.206921
C75	C	1.725620	-0.439469	1.167782
H76	H	1.733411	-0.268877	1.143720
H77	H	1.756050	-0.312838	1.280980
H78	H	1.621302	-0.314702	1.225020
H79	H	1.812261	-0.451492	1.149623
H80	H	1.677473	-0.453223	1.093759
O81	O	1.785319	-1.113168	0.773320
C82	C	1.918493	-1.101397	0.906760
C83	C	1.844542	-1.041206	0.832767
H84	H	1.966379	-1.043242	0.954858
H85	H	1.973547	-1.152735	0.858633
H86	H	1.870238	-1.152789	0.961623
H87	H	1.892713	-0.989758	0.777889
H88	H	1.789486	-0.989935	0.880960
O89	O	1.127243	-0.638550	0.638456
C90	C	1.251145	-0.652835	0.780298
C91	C	1.190716	-0.578885	0.706510
H92	H	1.302461	-0.604625	0.835353
H93	H	1.302557	-0.707687	0.732017
H94	H	1.193088	-0.700948	0.828201
H95	H	1.248697	-0.530704	0.658592
H96	H	1.139288	-0.524102	0.754851
H97	H	0.919441	-0.628155	0.627897
H98	H	0.919276	-0.249537	0.250329
H99	H	1.282100	-0.112681	0.902098
H100	H	1.396563	-0.906192	0.384177
H101	H	1.640362	-0.627856	0.907173
H102	H	1.189416	-0.176839	0.737945
H103	H	1.217939	-0.371506	0.372001
H104	H	1.652858	-1.204435	0.640753
H105	H	1.396662	-1.105260	0.384221
O106	O	1.625100	-0.782949	0.997542
C107	C	1.597410	-0.926831	0.878302
C108	C	1.653566	-0.887893	0.977842
H109	H	1.620387	-1.011689	0.862355
H110	H	1.621201	-0.875985	0.808819
H111	H	1.508999	-0.921659	0.890083
H112	H	1.741988	-0.893065	0.966164
H113	H	1.629690	-0.938746	1.047290
H114	H	1.754889	-0.899135	1.111308
O115	O	1.858208	-0.845392	1.284159
C116	C	1.973758	-0.866160	1.432114
C117	C	1.899830	-0.792306	1.371732
H118	H	2.007413	-0.823276	1.502940
H119	H	2.040394	-0.892037	1.378527
H120	H	1.928130	-0.937879	1.459612
H121	H	1.945368	-0.720538	1.344226
H122	H	1.833194	-0.766514	1.425357
H123	H	1.818406	-0.648940	1.340050
H124	H	1.396694	-0.383935	1.106229
H125	H	1.403996	-0.234546	1.001626
H126	H	1.218632	-0.362868	0.673337
H127	H	1.340524	-0.484733	0.772856
