data_functionalizedCrystal
_audit_creation_method	'MofGen! by Chris Wilmer'
_symmetry_space_group_name_H-M	'P1'
_symmetry_Int_Tables_number	1
_symmetry_cell_setting	triclinic
loop_
_symmetry_equiv_pos_as_xyz
  x,y,z
_cell_length_a	16.120444
_cell_length_b	16.120542
_cell_length_c	16.120297
_cell_angle_alpha	89.872913
_cell_angle_beta	95.615117
_cell_angle_gamma	89.835691
loop_
_atom_site_label
_atom_site_type_symbol
_atom_site_fract_x
_atom_site_fract_y
_atom_site_fract_z
Zn1	Zn	-0.422357	-1.224978	-0.554850
Zn2	Zn	-0.089023	-0.891645	-0.221516
Zn3	Zn	0.244310	-0.558311	0.111817
Zn4	Zn	-0.555041	-1.224871	-0.422156
Zn5	Zn	-0.221708	-0.891538	-0.088823
Zn6	Zn	0.111626	-0.558204	0.244510
Zn7	Zn	-0.408262	-1.093718	-0.408089
Zn8	Zn	-0.074929	-0.760384	-0.074756
Zn9	Zn	0.258404	-0.427051	0.258578
Zn10	Zn	-0.554263	-1.078868	-0.554085
Zn11	Zn	-0.220929	-0.745535	-0.220752
Zn12	Zn	0.112404	-0.412202	0.112582
O13	O	-0.484981	-1.155609	-0.484795
O14	O	-0.151647	-0.822275	-0.151462
O15	O	0.181686	-0.488942	0.181872
O16	O	-0.446182	-1.340999	-0.543455
O17	O	-0.112848	-1.007666	-0.210122
O18	O	0.220485	-0.674333	0.123212
O19	O	-0.529998	-1.213643	-0.303658
O20	O	-0.196665	-0.880310	0.029676
O21	O	0.136669	-0.546976	0.363009
O22	O	-0.293501	-1.117389	-0.421990
O23	O	0.039832	-0.784056	-0.088656
O24	O	0.373165	-0.450722	0.244677
O25	O	-0.543664	-1.340921	-0.445966
O26	O	-0.210331	-1.007587	-0.112632
O27	O	0.123002	-0.674254	0.220701
O28	O	-0.303856	-1.213825	-0.529814
O29	O	0.029477	-0.880492	-0.196481
O30	O	0.362810	-0.547159	0.136852
O31	O	-0.422160	-1.117285	-0.293322
O32	O	-0.088827	-0.783952	0.040011
O33	O	0.244506	-0.450618	0.373344
O34	O	-0.421406	-0.975712	-0.421248
O35	O	-0.088072	-0.642379	-0.087915
O36	O	0.245261	-0.309046	0.245418
O37	O	-0.542338	-1.092080	-0.670819
O38	O	-0.209004	-0.758747	-0.337486
O39	O	0.124329	-0.425414	-0.004152
O40	O	-0.528671	-0.964803	-0.528511
O41	O	-0.195338	-0.631469	-0.195178
O42	O	0.137995	-0.298136	0.138156
O43	O	-0.445427	-1.199427	-0.671381
O44	O	-0.112093	-0.866093	-0.338048
O45	O	0.221240	-0.532760	-0.004714
O46	O	-0.671568	-1.199244	-0.445224
O47	O	-0.338235	-0.865911	-0.111891
O48	O	-0.004902	-0.532578	0.221443
O49	O	-0.670997	-1.091977	-0.542152
O50	O	-0.337663	-0.758643	-0.208818
O51	O	-0.004330	-0.425310	0.124515
C52	C	-0.473425	-0.940171	-0.473271
C53	C	-0.140092	-0.606837	-0.139937
C54	C	0.193241	-0.273504	0.193396
C55	C	-0.468503	-0.848003	-0.468361
C56	C	-0.135169	-0.514670	-0.135028
C57	C	0.198164	-0.181337	0.198305
C58	C	-0.510488	-0.632809	-0.510215
C59	C	-0.177155	-0.299475	-0.176881
C60	C	0.156178	0.033858	0.156452
C61	C	-0.459523	-0.679257	-0.459397
C62	C	-0.126190	-0.345923	-0.126064
C63	C	0.207144	-0.012590	0.207270
C64	C	-0.464521	-0.773156	-0.464386
C65	C	-0.131188	-0.439823	-0.131053
C66	C	0.202146	-0.106489	0.202280
C67	C	-0.505492	-0.538901	-0.505227
C68	C	-0.172158	-0.205567	-0.171893
C69	C	0.161175	0.127766	0.161440
C70	C	-0.701526	-1.144009	-0.495151
C71	C	-0.368192	-0.810676	-0.161817
C72	C	-0.034859	-0.477342	0.171516
C73	C	-0.794170	-1.139121	-0.499613
C74	C	-0.460836	-0.805788	-0.166280
C75	C	-0.127503	-0.472454	0.167054
C76	C	-1.005331	-1.181159	-0.461837
C77	C	-0.671998	-0.847826	-0.128504
C78	C	-0.338664	-0.514492	0.204829
C79	C	-0.963788	-1.130212	-0.507769
C80	C	-0.630454	-0.796878	-0.174436
C81	C	-0.297121	-0.463545	0.158897
C82	C	-0.869403	-1.135170	-0.503230
C83	C	-0.536070	-0.801837	-0.169896
C84	C	-0.202737	-0.468504	0.163437
C85	C	-1.099724	-1.176202	-0.466376
C86	C	-0.766391	-0.842868	-0.133043
C87	C	-0.433057	-0.509535	0.200291
C88	C	-0.267592	-1.167275	-0.474418
C89	C	0.065741	-0.833942	-0.141085
C90	C	0.399074	-0.500609	0.192248
C91	C	-0.174954	-1.172247	-0.469996
C92	C	0.158379	-0.838914	-0.136663
C93	C	0.491712	-0.505580	0.196670
C94	C	-0.495368	-1.144109	-0.702187
C95	C	-0.162034	-0.810776	-0.368854
C96	C	0.171299	-0.477442	-0.035520
C97	C	-0.499794	-1.139209	-0.794827
C98	C	-0.166461	-0.805875	-0.461493
C99	C	0.166873	-0.472542	-0.128160
C100	C	-0.496577	-0.371889	-0.496353
C101	C	-0.163244	-0.038556	-0.163020
C102	C	0.170090	0.294778	0.170314
C103	C	-0.501506	-0.464057	-0.501248
C104	C	-0.168173	-0.130723	-0.167915
C105	C	0.165161	0.202610	0.165419
C106	C	-0.507855	-1.130232	-0.964438
C107	C	-0.174522	-0.796899	-0.631104
C108	C	0.158812	-0.463565	-0.297771
C109	C	-0.461865	-1.181162	-1.006001
C110	C	-0.128532	-0.847829	-0.672667
C111	C	0.204801	-0.514495	-0.339334
C112	C	-0.466351	-1.176168	-1.100378
C113	C	-0.133017	-0.842834	-0.767045
C114	C	0.200316	-0.509501	-0.433712
C115	C	-0.503371	-1.135226	-0.870052
C116	C	-0.170037	-0.801892	-0.536718
C117	C	0.163296	-0.468559	-0.203385
C118	C	-0.474577	-1.167115	-0.268248
C119	C	-0.141243	-0.833781	0.065085
C120	C	0.192090	-0.500448	0.398418
C121	C	-0.469924	-1.172188	-0.175607
C122	C	-0.136591	-0.838855	0.157727
C123	C	0.196743	-0.505522	0.491060
H124	H	-0.999106	-1.082870	-0.550502
H125	H	-0.665773	-0.749536	-0.217169
H126	H	-0.332439	-0.416203	0.116165
C127	C	-0.983791	-1.325139	-0.427566
C128	C	-0.650458	-0.991806	-0.094233
C129	C	-0.317125	-0.658472	0.239101
C130	C	-0.957660	-1.245060	-0.404144
C131	C	-0.624326	-0.911726	-0.070811
C132	C	-0.290993	-0.578393	0.262523
H133	H	-0.954349	-1.364584	-0.391949
H134	H	-0.621016	-1.031251	-0.058615
H135	H	-0.287683	-0.697918	0.274718
H136	H	-1.041876	-1.330148	-0.423083
H137	H	-0.708543	-0.996815	-0.089749
H138	H	-0.375210	-0.663481	0.243584
H139	H	-0.972857	-1.334997	-0.483550
H140	H	-0.639523	-1.001664	-0.150217
H141	H	-0.306190	-0.668331	0.183117
H142	H	-0.968600	-1.235199	-0.348162
H143	H	-0.635267	-0.901866	-0.014828
H144	H	-0.301933	-0.568532	0.318505
H145	H	-0.899561	-1.240048	-0.408620
H146	H	-0.566228	-0.906715	-0.075286
H147	H	-0.232894	-0.573381	0.258047
H148	H	-0.550594	-1.082883	-0.999732
H149	H	-0.217260	-0.749550	-0.666399
H150	H	0.116073	-0.416216	-0.333065
H151	H	-0.557871	-0.663562	-0.557464
H152	H	-0.224538	-0.330229	-0.224131
H153	H	0.108796	0.003105	0.109203
C154	C	-0.402967	-0.551411	-0.402899
C155	C	-0.069634	-0.218077	-0.069565
C156	C	0.263699	0.115256	0.263768
C157	C	-0.395585	-0.637745	-0.395572
C158	C	-0.062251	-0.304411	-0.062239
C159	C	0.271082	0.028922	0.271095
H160	H	-0.363508	-0.525782	-0.363484
H161	H	-0.030175	-0.192449	-0.030151
H162	H	0.303158	0.140884	0.303183
H163	H	-0.392759	-0.534952	-0.457583
H164	H	-0.059426	-0.201618	-0.124249
H165	H	0.273907	0.131715	0.209084
H166	H	-0.457640	-0.534947	-0.392584
H167	H	-0.124307	-0.201613	-0.059250
H168	H	0.209027	0.131720	0.274083
H169	H	-0.340913	-0.654209	-0.405893
H170	H	-0.007580	-0.320876	-0.072560
H171	H	0.325753	0.012457	0.260774
H172	H	-0.405786	-0.654210	-0.340875
H173	H	-0.072453	-0.320877	-0.007542
H174	H	0.260880	0.012457	0.325792
H175	H	-0.419123	-1.228515	-0.970704
H176	H	-0.085790	-0.895182	-0.637371
H177	H	0.247544	-0.561848	-0.304038
