data_functionalizedCrystal
_audit_creation_method	'MofGen! by Chris Wilmer'
_symmetry_space_group_name_H-M	'P1'
_symmetry_Int_Tables_number	1
_symmetry_cell_setting	triclinic
loop_
_symmetry_equiv_pos_as_xyz
  x,y,z
_cell_length_a	12.759394
_cell_length_b	17.077404
_cell_length_c	17.077396
_cell_angle_alpha	90.019501
_cell_angle_beta	90.026316
_cell_angle_gamma	90.015062
loop_
_atom_site_label
_atom_site_type_symbol
_atom_site_fract_x
_atom_site_fract_y
_atom_site_fract_z
Zn1	Zn	-0.418260	1.200099	0.443855
Zn2	Zn	-0.593961	1.200024	0.312593
Zn3	Zn	-0.418297	1.068830	0.312602
Zn4	Zn	-0.593898	1.068817	0.443817
O5	O	-0.506104	1.134442	0.378217
O6	O	-0.441578	1.309936	0.426454
O7	O	-0.570700	1.182595	0.202748
O8	O	-0.271271	1.086280	0.330033
O9	O	-0.570664	1.309881	0.330017
O10	O	-0.271244	1.182722	0.426463
O11	O	-0.441641	1.086208	0.202754
O12	O	-0.441580	0.958982	0.329996
O13	O	-0.570558	1.086257	0.553669
O14	O	-0.570594	0.958972	0.426399
O15	O	-0.441517	1.182709	0.553697
O16	O	-0.740974	1.182582	0.329981
O17	O	-0.740928	1.086185	0.426391
C18	C	-0.506085	0.930495	0.378195
C19	C	-0.506102	0.843245	0.378205
C20	C	-0.573381	0.802270	0.428321
C21	C	-0.573383	0.720290	0.428334
C22	C	-0.506111	0.679285	0.378225
C23	C	-0.438825	0.720266	0.328107
C24	C	-0.438818	0.802245	0.328099
C25	C	-0.438846	0.549396	0.328125
C26	C	-0.438854	0.467411	0.328132
C27	C	-0.573411	0.467441	0.428360
C28	C	-0.573404	0.549419	0.428352
C29	C	-0.506119	0.590394	0.378233
C30	C	-0.779072	1.134395	0.378198
C31	C	-0.895848	1.134447	0.378216
C32	C	-0.895843	1.234901	0.277900
C33	C	-0.950701	1.285148	0.227751
C34	C	-1.060422	1.285194	0.227773
C35	C	-1.115288	1.234989	0.277950
C36	C	-1.060430	1.184742	0.328099
C37	C	-0.950706	1.184700	0.328070
C38	C	-1.060436	1.084293	0.428417
C39	C	-0.950714	1.084242	0.428393
C40	C	-1.115302	1.034088	0.478594
C41	C	-1.060444	0.983835	0.528740
C42	C	-0.950716	0.983791	0.528716
C43	C	-0.895856	1.033994	0.478542
C44	C	-0.232071	1.134511	0.378253
C45	C	-0.115294	1.134540	0.378269
C46	C	-0.506027	1.134490	0.582961
C47	C	-0.505994	1.134510	0.670211
C48	C	-0.506124	1.339187	0.378239
C49	C	-0.506132	1.426436	0.378249
C50	C	-0.506105	1.134440	0.174269
C51	C	-0.505842	1.134572	0.087020
C52	C	-0.438797	1.184735	0.711217
C53	C	-0.438762	1.184744	0.793197
C54	C	-0.505930	1.134532	0.834171
C55	C	-0.573130	1.084302	0.793159
C56	C	-0.573159	1.084290	0.711180
C57	C	-0.573067	1.084334	0.964029
C58	C	-0.573039	1.084348	1.046014
C59	C	-0.438670	1.184788	1.046047
C60	C	-0.438699	1.184776	0.964068
C61	C	-0.505900	1.134546	0.923062
H62	H	-0.628169	0.686931	0.469143
H63	H	-0.384028	0.835606	0.287293
H64	H	-0.906019	1.326027	0.186899
C65	C	-0.647412	0.594522	0.483470
N66	N	-0.703155	0.628494	0.524986
C67	C	-0.647420	0.422367	0.483497
N68	N	-0.703163	0.388413	0.525023
H69	H	-0.384062	0.434028	0.287339
H70	H	-0.806502	1.234858	0.277868
H71	H	-0.384046	0.582755	0.287319
H72	H	-1.204643	1.034132	0.478612
H73	H	-0.627731	1.043459	1.079372
C74	C	-0.646996	1.029082	0.918925
N75	N	-0.702684	0.987470	0.884952
H76	H	-0.627816	1.043416	0.826526
C77	C	-1.120768	1.340468	0.172607
N78	N	-1.166220	1.382100	0.131055
H79	H	-0.627867	1.043384	0.677794
H80	H	-0.384010	1.225667	0.930709
H81	H	-1.105125	0.942966	0.569594
H82	H	-0.906056	0.942876	0.569557
C83	C	-0.364746	1.240041	1.091154
N84	N	-0.309072	1.281657	1.125133
H85	H	-1.204629	1.235038	0.277970
C86	C	-0.775160	1.033954	0.478514
N87	N	-0.684249	1.033929	0.478495
C88	C	-0.647387	0.847367	0.483445
N89	N	-0.703128	0.881332	0.524968
H90	H	-0.384047	0.686874	0.287311
H91	H	-0.384104	1.225625	0.677862
H92	H	-0.384046	1.225644	0.826581
