data_functionalizedCrystal
_audit_creation_method	'MofGen! by Chris Wilmer'
_symmetry_space_group_name_H-M	'P1'
_symmetry_Int_Tables_number	1
_symmetry_cell_setting	triclinic
loop_
_symmetry_equiv_pos_as_xyz
  x,y,z
_cell_length_a	20.919287
_cell_length_b	14.560438
_cell_length_c	14.560438
_cell_angle_alpha	59.996693
_cell_angle_beta	86.845423
_cell_angle_gamma	58.214243
loop_
_atom_site_label
_atom_site_type_symbol
_atom_site_fract_x
_atom_site_fract_y
_atom_site_fract_z
Zr1	Zr	0.616755	1.005320	-0.169370
O2	O	0.514528	1.196930	-0.307946
O3	O	0.648093	0.813712	-0.126881
O4	O	0.648090	1.005323	-0.318497
O5	O	0.514533	1.005316	0.034811
O6	O	0.753447	1.005324	-0.326830
O7	O	0.514530	1.005319	-0.116330
O8	O	0.753451	0.662566	0.015937
O9	O	0.514529	1.348074	-0.307956
O10	O	0.740085	0.892523	-0.114988
O11	O	0.661460	0.892521	0.004025
O12	O	0.661458	1.118118	-0.221579
O13	O	0.582833	1.118116	-0.102566
Zr14	Zr	0.784792	1.005317	0.058392
Zr15	Zr	0.784787	1.005321	-0.182660
Zr16	Zr	0.616759	1.005316	0.071682
Zr17	Zr	0.616756	1.246377	-0.169386
Zr18	Zr	0.784790	0.764260	0.058407
O19	O	0.753454	1.196926	0.015902
O20	O	0.753448	1.196932	-0.326842
O21	O	0.514534	1.196924	0.034799
O22	O	0.887019	0.813707	0.196968
O23	O	0.887013	0.813713	-0.145777
O24	O	0.648099	0.813706	0.215864
O25	O	0.887014	1.005321	-0.145789
O26	O	0.753457	1.005315	0.207519
O27	O	0.648100	1.005314	0.215851
O28	O	0.887016	1.005319	0.005351
O29	O	0.648092	1.348075	-0.318519
O30	O	0.753455	0.662563	0.207541
O31	O	0.887018	0.662564	0.196977
O32	O	0.887015	0.662567	0.005373
O33	O	0.514532	1.348071	-0.116352
O34	O	0.648095	1.348072	-0.126915
O35	O	0.740089	0.892519	0.110601
O36	O	0.818714	0.892522	-0.008413
O37	O	0.740086	1.118117	-0.115003
O38	O	0.661462	1.118114	0.004010
C39	C	0.700772	0.703793	-0.055470
C40	C	0.700771	0.601458	-0.055463
C41	C	0.642726	0.636673	-0.134155
C42	C	0.642730	0.540533	-0.134184
C43	C	0.758826	0.373965	0.023180
C44	C	0.758825	0.470104	0.023204
C45	C	0.490591	1.005317	-0.038866
C46	C	0.419257	1.005317	-0.033224
C47	C	0.385742	1.005322	-0.113840
C48	C	0.318718	1.005315	-0.108534
C49	C	0.285207	1.005312	-0.022614
C50	C	0.318728	1.005303	0.058010
C51	C	0.385754	1.005301	0.052707
C52	C	0.082836	1.005310	-0.002433
C53	C	0.015805	1.005316	0.002862
C54	C	0.015800	1.005325	-0.163681
C55	C	0.082825	1.005331	-0.168980
C56	C	0.116342	1.005315	-0.088353
C57	C	0.216697	1.005309	-0.017190
C58	C	0.184854	1.005309	-0.093774
C59	C	0.910956	1.005320	-0.072113
C60	C	0.982290	1.005321	-0.077755
C61	C	0.700768	1.005324	-0.357008
C62	C	0.700766	1.005326	-0.459341
C63	C	0.700775	1.306844	-0.055509
C64	C	0.700775	1.409179	-0.055515
C65	C	0.659724	1.123082	-0.563056
C66	C	0.659733	1.123076	-0.659206
C67	C	0.741828	0.887547	-0.547911
C68	C	0.741822	0.887554	-0.451764
C69	C	0.700779	1.005314	0.246030
C70	C	0.700781	1.005312	0.348363
C71	C	0.910954	0.703795	-0.072093
C72	C	0.982288	0.601460	-0.077728
C73	C	0.700777	0.703788	0.246049
C74	C	0.700778	0.601451	0.348389
C75	C	0.910960	0.703790	0.229426
C76	C	0.982295	0.601453	0.326123
C77	C	0.490587	1.306848	-0.340404
C78	C	0.419252	1.409184	-0.437102
C79	C	0.490592	1.306843	-0.038885
C80	C	0.419259	1.409177	-0.033250
C81	C	0.700770	1.306849	-0.357028
C82	C	0.700768	1.409186	-0.459367
C83	C	0.974744	0.553404	-0.136016
C84	C	1.041763	0.457263	-0.141333
C85	C	1.116325	0.409174	-0.088355
C86	C	1.123868	0.457240	-0.030065
C87	C	1.056850	0.553386	-0.024755
C88	C	1.056843	0.553397	0.309409
C89	C	1.123877	0.457254	0.400257
C90	C	1.116360	0.409164	0.507818
C91	C	1.041804	0.457230	0.524531
C92	C	0.974773	0.553377	0.433684
C93	C	0.344703	1.457253	-0.420388
C94	C	0.277670	1.553425	-0.511236
C95	C	0.285186	1.601520	-0.618797
C96	C	0.359742	1.553448	-0.635509
C97	C	0.426774	1.457284	-0.544662
C98	C	0.426803	1.457244	0.025028
C99	C	0.359784	1.553411	0.030318
C100	C	0.285222	1.601504	-0.022663
C101	C	0.277679	1.553433	-0.080949
C102	C	0.344697	1.457274	-0.086245
C103	C	0.741822	0.553371	0.452100
C104	C	0.741814	0.457224	0.548255
C105	C	0.659719	0.457242	0.436975
C106	C	0.659722	0.553394	0.340823
H107	H	0.806091	0.267007	0.087229
O108	O	0.212885	1.705239	-0.716780
H109	H	0.212925	1.792859	-0.767551
O110	O	0.212939	1.705182	-0.016911
H111	H	0.230720	1.730498	0.032538
H112	H	0.110108	1.005333	-0.238942
H113	H	1.170949	0.330875	0.581782
O114	O	0.180547	1.005310	0.075474
H115	H	0.215111	1.005302	0.130650
O116	O	0.786091	0.405364	0.660111
H117	H	0.744657	0.423832	0.710008
O118	O	0.894366	0.605198	0.451716
H119	H	0.861870	0.586737	0.413300
H120	H	0.365853	1.592619	-0.723096
H121	H	0.775253	0.791661	-0.541756
O122	O	0.894326	0.605274	-0.193174
H123	H	0.900352	0.555706	-0.234607
H124	H	0.216961	1.592605	-0.124084
H125	H	0.338568	1.418099	-0.332814
H126	H	0.216970	1.592549	-0.497607
H127	H	1.035696	0.418061	0.612119
O128	O	0.580126	0.578508	-0.219057
H129	H	0.521605	0.636864	-0.210321
H130	H	0.626294	1.218979	-0.569232
H131	H	0.338543	1.418141	-0.133698
O132	O	0.580119	0.778344	-0.219014
H133	H	0.546645	0.826120	-0.176324
O134	O	0.507180	1.405423	-0.562695
H135	H	0.501137	1.455018	-0.652753
O136	O	0.507220	1.405402	0.082158
H137	H	0.501194	1.455011	0.123550
O138	O	0.821434	0.432133	0.108077
H139	H	0.818582	0.373740	0.192259
H140	H	0.413019	1.005332	-0.183809
H141	H	0.365941	1.592534	0.077784
O142	O	0.786096	0.605215	0.460252
H143	H	0.814629	0.555633	0.548527
H144	H	0.626293	0.418101	0.430829
O145	O	0.615568	0.605098	0.228941
H146	H	0.587070	0.555456	0.239827
H147	H	1.035606	0.418139	-0.188798
H148	H	0.291431	1.005317	-0.174177
H149	H	0.626314	1.218965	-0.743653
H150	H	-0.011477	1.005315	0.072832
O151	O	-0.020353	1.005347	-0.250641
H152	H	-0.020200	0.917296	-0.210616
O153	O	0.118985	1.005289	0.084526
H154	H	0.084417	1.005298	0.145154
O155	O	0.786087	0.760540	-0.339886
H156	H	0.814626	0.678645	-0.350767
O157	O	1.188608	0.305463	-0.094075
H158	H	1.170827	0.280123	-0.143500
O159	O	0.282593	1.005294	0.150688
H160	H	0.221371	1.093352	0.115489
H161	H	0.413042	1.005295	0.118354
H162	H	0.212143	1.005304	-0.163726
H163	H	1.184586	0.418072	0.013067
O164	O	1.064991	0.605197	0.038135
H165	H	1.128100	0.555585	0.074089
H166	H	1.184577	0.418128	0.386630
O167	O	1.064960	0.605271	0.193402
H168	H	1.128064	0.555703	0.197060
