data_functionalizedCrystal
_audit_creation_method	'MofGen! by Chris Wilmer'
_symmetry_space_group_name_H-M	'P1'
_symmetry_Int_Tables_number	1
_symmetry_cell_setting	triclinic
loop_
_symmetry_equiv_pos_as_xyz
  x,y,z
_cell_length_a	6.817900
_cell_length_b	12.908942
_cell_length_c	10.992410
_cell_angle_alpha	94.375677
_cell_angle_beta	108.764651
_cell_angle_gamma	100.860556
loop_
_atom_site_label
_atom_site_type_symbol
_atom_site_fract_x
_atom_site_fract_y
_atom_site_fract_z
V1	V	-4.073725	-0.145852	-0.399878
O2	O	-4.074323	0.007009	-0.393002
O3	O	-4.011476	-0.289201	-0.396436
O4	O	-4.051940	-0.143609	-0.574602
O5	O	-4.033579	-0.139591	-0.213603
V6	V	-4.555698	-0.127568	-0.377684
O7	O	-4.338382	-0.185960	-0.448563
O8	O	-4.741239	-0.087461	-0.329000
O9	O	-4.394741	0.015780	-0.381126
O10	O	-4.672497	-0.280430	-0.384561
O11	O	-4.713241	-0.133830	-0.563960
O12	O	-4.354276	-0.129812	-0.202961
C13	C	-3.852247	-0.324146	-0.389945
C14	C	-3.882815	-0.441335	-0.388295
C15	C	-3.903862	-0.138428	-0.617212
C16	C	-3.967242	-0.137542	-0.760044
C17	C	-4.305471	-0.672288	-0.397991
C18	C	-4.334203	-0.782398	-0.396441
C19	C	-3.969016	-0.771668	-0.383655
C20	C	-3.940285	-0.661558	-0.385205
C21	C	-4.108519	-0.611872	-0.392371
C22	C	-4.079781	-0.501759	-0.393912
C23	C	-3.714601	-0.491032	-0.381135
C24	C	-3.743333	-0.601142	-0.379585
C25	C	-3.836608	-0.129471	-0.955207
C26	C	-3.770680	-0.130829	-0.806717
C27	C	-4.136379	-0.241483	-0.836639
C28	C	-4.200948	-0.240564	-0.985210
C29	C	-4.134634	-0.039296	-0.948165
C30	C	-4.064062	-0.038804	-0.799154
C31	C	-4.217311	0.050720	-0.387614
C32	C	-4.165982	0.167908	-0.389272
C33	C	-4.165696	-0.134997	-0.160344
C34	C	-4.081554	-0.135877	-0.017510
H35	H	-4.216764	-0.461305	-0.399738
H36	H	-3.606370	-0.641613	-0.373756
F37	F	-4.484511	-0.619405	-0.405611
F38	F	-3.904740	0.061701	-0.731220
H39	H	-4.284348	-0.250149	-0.807793
F40	F	-4.543825	-0.846695	-0.402427
F41	F	-3.670403	-0.222796	-0.773827
F42	F	-4.367204	-0.044230	-1.001525
F43	F	-3.790000	-0.824568	-0.376044
H44	H	-3.554224	-0.441829	-0.376557
H45	H	-4.206514	-0.037583	-0.766648
F46	F	-3.603735	-0.033156	-0.737473
H47	H	-4.070250	-0.314791	-0.810675
H48	H	-3.792390	-0.198865	-1.002860
H49	H	-3.740312	-0.054219	-0.974405
F50	F	-4.154053	-0.336148	-1.045224
F51	F	-4.028789	0.063872	-0.975283
H52	H	-4.380439	-0.249602	-1.027797
