data_functionalizedCrystal
_audit_creation_method	'MofGen! by Chris Wilmer'
_symmetry_space_group_name_H-M	'P1'
_symmetry_Int_Tables_number	1
_symmetry_cell_setting	triclinic
loop_
_symmetry_equiv_pos_as_xyz
  x,y,z
_cell_length_a	10.540514
_cell_length_b	15.944564
_cell_length_c	9.616153
_cell_angle_alpha	90.003440
_cell_angle_beta	89.992599
_cell_angle_gamma	95.990453
loop_
_atom_site_label
_atom_site_type_symbol
_atom_site_fract_x
_atom_site_fract_y
_atom_site_fract_z
O1	O	1.684309	-0.118268	-0.115667
O2	O	1.314740	-0.129443	-0.115667
O3	O	1.509608	-0.001641	-0.115654
O4	O	1.489441	-0.246070	-0.115680
O5	O	1.509581	-0.001644	0.115638
O6	O	1.314713	-0.129446	0.115625
O7	O	1.684282	-0.118271	0.115624
Zn8	Zn	1.499493	-0.123859	0.152347
Zn9	Zn	1.499529	-0.123855	-0.152389
O10	O	1.489414	-0.246073	0.115611
C11	C	1.267435	-0.128611	-0.000021
C12	C	1.126519	-0.126117	-0.000020
C13	C	1.054575	-0.217520	-0.000033
C14	C	0.907996	-0.214956	-0.000564
C15	C	0.934870	-0.076406	-0.131844
C16	C	1.081366	-0.079618	-0.131948
C17	C	1.081756	-0.078268	0.131083
C18	C	0.934789	-0.077386	0.132808
C19	C	1.508755	0.029656	-0.000007
C20	C	1.506236	0.122917	-0.000006
C21	C	1.379423	0.338521	-0.000023
C22	C	1.438286	0.399189	0.114017
C23	C	1.501680	0.293669	-0.000016
C24	C	1.438342	0.399175	-0.114018
C25	C	1.497269	0.458606	-0.000031
C26	C	1.560577	0.353108	0.114120
C27	C	1.560615	0.353088	-0.114018
C28	C	1.619567	0.413738	0.000051
C29	C	1.504217	0.198652	-0.000006
C30	C	1.494742	0.553622	-0.000031
C31	C	1.731587	-0.119103	-0.000025
C32	C	1.872503	-0.121597	-0.000035
C33	C	1.490250	0.722628	-0.000036
C34	C	1.492717	0.629364	-0.000042
N35	N	1.499479	-0.123861	0.360322
N36	N	1.499553	-0.123847	-0.360364
C37	C	1.394925	-0.191997	0.580685
C38	C	1.395150	-0.192252	0.419517
C39	C	1.631934	-0.143791	0.418768
C40	C	1.631363	-0.144273	0.579986
C41	C	1.472902	-0.035570	0.580243
C42	C	1.469848	-0.036143	0.419016
H43	H	0.891854	-0.107381	-0.230319
F44	F	1.572630	0.030731	0.630070
F45	F	1.122367	-0.118038	0.261712
F46	F	1.370739	0.425835	-0.240026
H47	H	1.109154	-0.112621	-0.230862
H48	H	1.296694	-0.180261	0.380004
F49	F	1.145306	0.008139	-0.139287
F50	F	1.417344	-0.277864	0.369075
F51	F	1.265823	-0.176556	0.631388
H52	H	0.913485	-0.007837	-0.136366
H53	H	1.277949	0.305812	0.000090
H54	H	1.721130	0.446297	0.000115
F55	F	1.628162	0.326377	-0.240043
H56	H	1.386565	0.419601	0.210430
F57	F	0.880606	-0.120551	0.260270
F58	F	1.342493	-0.016395	0.369091
H59	H	0.864840	-0.250500	0.093900
H60	H	0.911525	-0.009337	0.141167
F61	F	1.736092	-0.081850	0.630958
F62	F	1.416875	-0.277120	0.633586
H63	H	1.711643	-0.095509	0.380421
H64	H	1.654845	-0.208677	0.617567
F65	F	0.852832	-0.261211	-0.124804
F66	F	1.663354	-0.227019	0.365968
F67	F	1.349387	-0.010787	0.633452
H68	H	1.084318	-0.254054	-0.094423
H69	H	1.541096	0.017007	0.378727
F70	F	1.628098	0.326583	0.240274
F71	F	1.144735	0.009848	0.132772
F72	F	1.091831	-0.266170	0.123015
