data_functionalizedCrystal
_audit_creation_method	'MofGen! by Chris Wilmer'
_symmetry_space_group_name_H-M	'P1'
_symmetry_Int_Tables_number	1
_symmetry_cell_setting	triclinic
loop_
_symmetry_equiv_pos_as_xyz
  x,y,z
_cell_length_a	14.044220
_cell_length_b	14.044220
_cell_length_c	11.804365
_cell_angle_alpha	102.927057
_cell_angle_beta	77.060035
_cell_angle_gamma	93.188878
loop_
_atom_site_label
_atom_site_type_symbol
_atom_site_fract_x
_atom_site_fract_y
_atom_site_fract_z
O1	O	1.294803	0.212544	-0.098903
O2	O	1.018137	0.204233	-0.098932
O3	O	1.152315	0.070055	-0.098906
O4	O	1.160625	0.346722	-0.098929
O5	O	1.116988	0.105340	0.099143
O6	O	0.982810	0.239518	0.099117
O7	O	1.259476	0.247829	0.099146
Cu8	Cu	1.117917	0.246895	0.117215
Cu9	Cu	1.159696	0.205167	-0.117001
O10	O	1.125298	0.382007	0.099120
C11	C	0.964852	0.218239	0.000088
C12	C	0.858712	0.207393	0.000077
C13	C	0.664369	0.187571	0.000102
C14	C	0.613240	0.264485	0.000101
C15	C	0.505101	0.253456	0.000115
C16	C	0.772518	0.198598	0.000088
C17	C	1.131016	0.052075	0.000118
C18	C	1.120171	-0.054067	0.000119
C19	C	1.100349	-0.248408	0.000099
C20	C	1.177262	-0.299537	0.000104
C21	C	1.166233	-0.407676	0.000093
C22	C	1.111377	-0.140260	0.000110
C23	C	1.312761	0.233822	0.000123
C24	C	1.418903	0.244667	0.000126
C25	C	1.146598	0.399986	0.000093
C26	C	1.157444	0.506127	0.000085
N27	N	1.088539	0.276245	0.281950
N28	N	1.189081	0.175810	-0.281736
C29	C	1.259626	0.105312	0.655932
C30	C	1.281849	0.083105	0.531275
C31	C	1.233523	0.131388	0.468937
C32	C	1.162971	0.201882	0.531270
C33	C	1.140752	0.224097	0.655939
C34	C	1.114649	0.250173	0.468944
C35	C	1.044097	0.320667	0.531277
C36	C	1.021880	0.342878	0.655934
C37	C	1.070206	0.294595	0.718271
C38	C	1.136868	0.227958	0.344275
C39	C	1.017994	0.346743	0.344282
C40	C	0.995771	0.368950	0.468939
H41	H	0.626930	0.113446	0.000115
F42	F	1.274157	-0.250601	0.000124
F43	F	1.003460	-0.297344	0.000083
H44	H	0.938326	0.426349	0.519706
F45	F	1.211952	0.152935	0.277951
F46	F	1.257175	0.107750	0.336265
F47	F	0.946803	0.417914	0.722273
F48	F	1.046551	0.318226	0.850948
F49	F	0.662175	0.361381	0.000088
F50	F	1.356933	0.008085	0.464940
F51	F	1.311058	0.053940	0.722279
F52	F	0.966562	0.398136	0.277943
