data_functionalizedCrystal
_audit_creation_method	'MofGen! by Chris Wilmer'
_symmetry_space_group_name_H-M	'P1'
_symmetry_Int_Tables_number	1
_symmetry_cell_setting	triclinic
loop_
_symmetry_equiv_pos_as_xyz
  x,y,z
_cell_length_a	23.196402
_cell_length_b	23.096457
_cell_length_c	23.196401
_cell_angle_alpha	90.011648
_cell_angle_beta	60.008520
_cell_angle_gamma	59.998263
loop_
_atom_site_label
_atom_site_type_symbol
_atom_site_fract_x
_atom_site_fract_y
_atom_site_fract_z
Zr1	Zr	0.631030	0.557733	-0.075662
O2	O	0.751300	0.465260	-0.167707
O3	O	0.510761	0.586083	-0.047446
O4	O	0.631032	0.586052	-0.167714
O5	O	0.631027	0.465315	0.047432
O6	O	0.631034	0.681332	-0.167718
O7	O	0.631028	0.465292	-0.047439
O8	O	0.415890	0.681388	0.047420
O9	O	0.846170	0.465258	-0.167705
O10	O	0.560231	0.669279	-0.035413
O11	O	0.560228	0.598189	0.035391
O12	O	0.701832	0.598152	-0.106209
O13	O	0.701830	0.527062	-0.035405
Zr14	Zr	0.631031	0.709731	0.075642
Zr15	Zr	0.631033	0.709695	-0.075667
Zr16	Zr	0.631028	0.557770	0.075647
Zr17	Zr	0.782338	0.557730	-0.075658
Zr18	Zr	0.479723	0.709734	0.075639
O19	O	0.751300	0.681381	0.047427
O20	O	0.751303	0.681330	-0.167715
O21	O	0.751296	0.465312	0.047434
O22	O	0.510761	0.802204	0.167688
O23	O	0.510765	0.802152	-0.047454
O24	O	0.510758	0.586135	0.167695
O25	O	0.631034	0.802150	-0.047452
O26	O	0.631029	0.681413	0.167694
O27	O	0.631027	0.586132	0.167698
O28	O	0.631033	0.802173	0.047420
O29	O	0.846172	0.586047	-0.167710
O30	O	0.415889	0.681417	0.167690
O31	O	0.415891	0.802206	0.167686
O32	O	0.415893	0.802177	0.047415
O33	O	0.846169	0.465287	-0.047435
O34	O	0.846171	0.586076	-0.047439
O35	O	0.560229	0.669313	0.106189
O36	O	0.560231	0.740402	0.035385
O37	O	0.701833	0.669276	-0.035410
O38	O	0.701830	0.598186	0.035394
C39	C	0.441768	0.633736	-0.000014
C40	C	0.377534	0.633737	-0.000015
C41	C	-0.085308	0.670842	-0.036956
C42	C	-0.024950	0.670840	-0.036963
C43	C	0.005231	0.633733	-0.000004
C44	C	-0.024937	0.596610	0.036950
C45	C	-0.085289	0.596607	0.036949
C46	C	0.067258	0.639051	0.061901
C47	C	0.127605	0.639059	0.061904
C48	C	0.191379	0.633738	-0.000003
C49	C	0.194792	0.628423	-0.061912
C50	C	0.134440	0.628420	-0.061913
C51	C	0.070673	0.633732	0.000001
C52	C	0.286992	0.670853	-0.036965
C53	C	0.347356	0.670846	-0.036974
C54	C	0.347362	0.596621	0.036946
C55	C	0.287005	0.596623	0.036947
C56	C	0.256821	0.633743	-0.000007
C57	C	0.631027	0.443652	-0.000003
C58	C	0.631026	0.379140	-0.000001
C59	C	0.557114	0.385962	0.036947
C60	C	0.557113	0.325347	0.036950
C61	C	0.631028	0.257910	-0.000008
C62	C	0.704950	0.251091	-0.036958
C63	C	0.704949	0.311706	-0.036954
N64	N	0.686048	0.135099	-0.060158
N65	N	0.686044	0.077519	-0.060160
C66	C	0.631035	0.075277	-0.000021
N67	N	0.576019	0.132796	0.060120
N68	N	0.576021	0.190382	0.060121
C69	C	0.631037	0.192179	-0.000016
C70	C	0.557117	0.016375	0.036934
C71	C	0.557119	-0.044243	0.036939
C72	C	0.704958	-0.118499	-0.036976
C73	C	0.704954	-0.057881	-0.036975
C74	C	0.631031	0.009554	-0.000021
C75	C	0.820293	0.633728	-0.000006
C76	C	0.884527	0.633727	-0.000005
C77	C	0.631033	0.633687	-0.189274
C78	C	0.631034	0.633671	-0.253509
C79	C	0.631034	0.823813	-0.000017
C80	C	0.631035	0.888324	-0.000019
C81	C	0.704947	0.596548	-0.320637
C82	C	0.704948	0.596565	-0.380992
C83	C	0.631032	0.633698	-0.374215
C84	C	0.557110	0.670830	-0.307075
C85	C	0.557111	0.670817	-0.246722
C86	C	0.574402	0.628426	-0.441533
C87	C	0.574404	0.628434	-0.501887
C88	C	0.631026	0.633743	-0.560363
C89	C	0.687660	0.639028	-0.558485
C90	C	0.687661	0.639015	-0.498132
C91	C	0.631023	0.633717	-0.439654
C92	C	0.704945	0.596636	-0.692937
C93	C	0.704943	0.596660	-0.753292
C94	C	0.557103	0.670919	-0.679373
C95	C	0.557107	0.670901	-0.619021
C96	C	0.631030	0.633756	-0.625807
C97	C	0.631028	0.633778	0.189254
C98	C	0.631027	0.633793	0.253489
C99	C	0.441771	0.823816	-0.000021
C100	C	0.377538	0.888329	-0.000025
C101	C	0.441765	0.633782	0.189250
C102	C	0.377530	0.633798	0.253484
C103	C	0.441768	0.823862	0.189244
C104	C	0.377534	0.888390	0.253474
C105	C	0.820293	0.443603	-0.189263
C106	C	0.884527	0.379074	-0.253494
C107	C	0.820290	0.443648	0.000001
C108	C	0.884523	0.379135	0.000005
C109	C	0.820296	0.633683	-0.189270
C110	C	0.884531	0.633666	-0.253504
C111	C	0.347373	0.881499	-0.036989
C112	C	0.287028	0.942110	-0.037006
C113	C	0.256844	1.009550	-0.000055
C114	C	0.287015	1.016379	0.036910
C115	C	0.347363	0.955769	0.036923
C116	C	0.347364	0.670932	0.320611
C117	C	0.287017	0.670945	0.380971
C118	C	0.256832	0.633828	0.374202
C119	C	0.287003	0.596690	0.307067
C120	C	0.347354	0.596673	0.246709
C121	C	0.347370	0.955808	0.246679
C122	C	0.287024	1.016445	0.307025
C123	C	0.256838	1.009663	0.374166
C124	C	0.287008	0.942238	0.380960
C125	C	0.347357	0.881602	0.320615
C126	C	0.914698	0.311657	-0.246699
C127	C	0.975063	0.251020	-0.307045
C128	C	1.005252	0.257802	-0.374186
C129	C	0.975078	0.325227	-0.380980
C130	C	0.914719	0.385862	-0.320634
C131	C	0.914694	0.385965	0.036963
C132	C	0.975056	0.325354	0.036964
C133	C	1.005242	0.257914	0.000010
C134	C	0.975069	0.251086	-0.036952
C135	C	0.914712	0.311696	-0.036957
C136	C	0.914697	0.670790	-0.246712
C137	C	0.975045	0.670788	-0.307060
C138	C	1.005230	0.633658	-0.374199
C139	C	0.975058	0.596533	-0.380990
C140	C	0.914707	0.596539	-0.320642
H141	H	-0.109880	0.701065	-0.067049
O142	O	0.007590	0.710878	-0.076813
H143	H	-0.023542	0.736693	-0.102505
O144	O	0.784666	0.556617	-0.825701
H145	H	0.836065	0.530782	-0.820276
H146	H	0.765137	0.566391	-0.698464
O147	O	0.191752	1.074923	-0.000068
H148	H	0.136760	1.074883	0.023058
O149	O	0.379931	0.963131	0.174266
H150	H	0.348819	1.020203	0.179691
H151	H	0.262459	0.701190	0.435628
H152	H	0.999620	0.196126	-0.301499
H153	H	0.371907	0.566437	0.192053
O154	O	0.477391	-0.036882	0.076796
H155	H	0.489809	-0.090360	0.070594
H156	H	-0.109848	0.566383	0.067041
H157	H	0.262466	1.071339	0.301481
H158	H	0.765142	-0.063439	-0.067067
O159	O	-0.001531	0.644794	0.128677
H160	H	0.006227	0.648503	0.171727
H161	H	0.262430	1.071297	0.066995
O162	O	0.748738	0.644755	-0.621546
H163	H	0.715924	0.692932	-0.632616
O164	O	0.784686	0.304328	-0.076847
H165	H	0.788200	0.330159	-0.117693
O166	O	0.254447	0.710877	-0.076834
H167	H	0.266027	0.673389	-0.117675
O168	O	0.191738	1.075065	0.439251
H169	H	0.175832	1.123082	0.423239
H170	H	0.496922	0.330901	0.067038
H171	H	0.999613	0.330928	0.067066
O172	O	0.882170	0.304319	-0.076816
H173	H	0.893754	0.330139	-0.117674
O174	O	0.379926	0.808767	-0.076856
H175	H	0.426958	0.767760	-0.070641
H176	H	0.733772	0.643321	-0.496605
O177	O	1.007579	0.710831	-0.299722
H178	H	1.054608	0.704602	-0.352961
O179	O	0.191736	0.633851	0.439305
H180	H	0.136741	0.657077	0.439264
O181	O	1.007620	0.556505	-0.453415
H182	H	0.956961	0.577964	-0.459563
H183	H	0.262470	0.936536	-0.067108
O184	O	0.882183	0.556486	-0.327971
H185	H	0.913323	0.530661	-0.384797
H186	H	0.496921	0.701048	-0.192062
O187	O	0.138121	0.622676	-0.128682
H188	H	0.192608	0.618971	-0.171735
H189	H	0.246720	0.624089	-0.112323
O190	O	0.882149	0.458698	0.076822
H191	H	0.835104	0.499705	0.070621
O192	O	0.379884	0.963139	0.076806
H193	H	0.348744	1.020218	0.102503
O194	O	0.784678	0.556486	-0.327959
H195	H	0.788219	0.593948	-0.302213
H196	H	0.262418	0.566470	0.301566
O197	O	0.513226	0.622831	-0.503822
H198	H	0.521505	0.572414	-0.496400
H199	H	0.528294	0.624099	-0.393924
H200	H	0.890130	0.701026	-0.192049
H201	H	0.124816	0.643393	0.112315
O202	O	0.784674	0.556527	-0.453404
H203	H	0.772252	0.562784	-0.494230
O204	O	0.477384	0.458692	0.076810
H205	H	0.473846	0.488076	0.039498
O206	O	0.784676	0.178359	-0.076830
H207	H	0.772260	0.137355	-0.070634
O208	O	1.070333	0.633643	-0.439287
H209	H	1.086241	0.665690	-0.423278
H210	H	0.262422	0.936726	0.435634
O211	O	0.477376	0.710969	-0.672052
H212	H	0.489791	0.704739	-0.725297
H213	H	0.496920	0.701128	-0.564361
H214	H	0.371934	0.701157	0.326136
H215	H	0.371909	0.826710	0.326157
O216	O	0.882148	0.304333	-0.174286
H217	H	0.913285	0.247262	-0.179711
O218	O	1.070363	0.192400	-0.439271
H219	H	1.086265	0.144383	-0.423259
H220	H	0.999666	0.330740	-0.435653
O221	O	0.254488	0.556568	0.076779
H222	H	0.285620	0.530758	0.102472
O223	O	0.379898	0.710876	-0.076834
H224	H	0.348763	0.736689	-0.102524
O225	O	0.379891	0.556608	0.076823
H226	H	0.426919	0.562852	0.070624
O227	O	0.477384	0.710877	-0.299759
H228	H	0.489800	0.704643	-0.353004
O229	O	0.784686	-0.191226	-0.076844
H230	H	0.772270	-0.232231	-0.070644
H231	H	0.890154	0.440755	-0.326176
O232	O	1.070321	0.192550	0.000045
H233	H	1.125312	0.192589	-0.023065
O234	O	0.007579	0.556617	0.076846
H235	H	0.054597	0.562871	0.070655
O236	O	0.477391	0.089112	0.076797
H237	H	0.425993	0.083670	0.102502
H238	H	0.999655	0.196168	-0.067039
