data_functionalizedCrystal
_audit_creation_method	'MofGen! by Chris Wilmer'
_symmetry_space_group_name_H-M	'P1'
_symmetry_Int_Tables_number	1
_symmetry_cell_setting	triclinic
loop_
_symmetry_equiv_pos_as_xyz
  x,y,z
_cell_length_a	14.971486
_cell_length_b	11.295483
_cell_length_c	14.971494
_cell_angle_alpha	85.898143
_cell_angle_beta	83.615843
_cell_angle_gamma	94.105328
loop_
_atom_site_label
_atom_site_type_symbol
_atom_site_fract_x
_atom_site_fract_y
_atom_site_fract_z
O1	O	1.192958	0.098883	0.110554
O2	O	0.932560	0.098915	0.124510
O3	O	1.069734	0.098895	-0.012667
O4	O	1.055784	0.098902	0.247731
O5	O	1.057686	-0.099154	-0.000637
O6	O	0.920512	-0.099134	0.136541
O7	O	1.180910	-0.099166	0.122584
Cu8	Cu	1.049611	-0.117234	0.130661
Cu9	Cu	1.063859	0.116982	0.116434
O10	O	1.043735	-0.099147	0.259761
C11	C	0.893211	-0.000106	0.129901
C12	C	0.793915	-0.000093	0.128030
N13	N	1.039595	-0.281969	0.140666
C14	C	0.736692	-0.000093	0.208618
C15	C	0.643392	-0.000111	0.206856
C16	C	0.607316	-0.000120	0.124504
C17	C	0.664546	-0.000125	0.043909
C18	C	0.757844	-0.000115	0.045673
C19	C	0.470083	-0.000141	0.040239
C20	C	0.376778	-0.000148	0.038475
C21	C	0.355630	-0.000136	0.201423
C22	C	0.448928	-0.000127	0.203186
C23	C	0.506152	-0.000129	0.122591
C24	C	1.145976	-0.531273	0.034343
C25	C	1.138414	-0.655936	0.041910
C26	C	1.016905	-0.655959	0.163365
C27	C	1.024467	-0.531296	0.155797
C28	C	1.089006	-0.468958	0.091285
C29	C	1.096571	-0.344293	0.083722
C30	C	0.975059	-0.344318	0.205172
C31	C	0.967497	-0.468981	0.212740
C32	C	1.220258	-0.000143	0.117193
C33	C	1.319555	-0.000148	0.119064
C34	C	1.063085	-0.000127	-0.039977
C35	C	1.061212	-0.000122	-0.139274
N36	N	1.073881	0.281717	0.106421
C37	C	1.066901	0.107836	-0.192476
C38	C	1.065135	0.107838	-0.285776
C39	C	1.057685	-0.000119	-0.325871
C40	C	1.051993	-0.108086	-0.272662
C41	C	1.053753	-0.108086	-0.179363
C42	C	1.048328	-0.108077	-0.467125
C43	C	1.046569	-0.108077	-0.560430
C44	C	1.059709	0.107847	-0.573537
C45	C	1.061469	0.107847	-0.480239
C46	C	1.055778	-0.000120	-0.427036
C47	C	1.050385	-0.000121	0.287071
C48	C	1.052259	-0.000119	0.386368
H49	H	0.766057	-0.000084	0.275679
O50	O	1.199859	-0.723153	-0.019504
H51	H	1.239920	-0.779948	0.021669
O52	O	1.042191	-0.224527	-0.409741
H53	H	1.103594	-0.229688	-0.374823
O54	O	1.065803	0.224297	-0.630914
H55	H	1.071276	0.299366	-0.587358
O56	O	1.043955	-0.224526	-0.315908
H57	H	1.040285	-0.299596	-0.263234
H58	H	0.914949	-0.519751	0.265262
O59	O	0.293915	-0.000152	0.288355
H60	H	0.255792	0.080556	0.286545
H61	H	1.198531	-0.480516	-0.018180
O62	O	0.337861	-0.000174	-0.050344
H63	H	0.393323	-0.000195	-0.106089
O64	O	1.074926	0.224280	-0.149234
H65	H	1.138648	0.276052	-0.178195
O66	O	0.487831	-0.000121	0.292013
H67	H	0.534728	0.080609	0.291815
H68	H	0.928673	-0.293566	0.251541
H69	H	0.964354	-0.706731	0.215884
O70	O	1.071226	0.224277	-0.343156
H71	H	1.076696	0.299346	-0.299600
H72	H	1.067542	0.195755	-0.447597
H73	H	0.596804	-0.000109	0.272480
O74	O	0.625635	-0.000143	-0.044913
H75	H	0.681102	-0.000155	-0.100655
O76	O	1.038521	-0.224513	-0.603681
H77	H	1.034843	-0.299590	-0.551011
O78	O	1.047628	-0.224528	-0.121979
H79	H	0.983229	-0.276297	-0.128842
O80	O	0.531808	-0.000137	-0.046686
H81	H	0.491051	-0.000131	-0.104249
O82	O	0.819571	-0.000112	-0.041247
H83	H	0.778814	-0.000110	-0.098810
H84	H	1.149124	-0.293538	0.031195
