data_functionalizedCrystal
_audit_creation_method	'MofGen! by Chris Wilmer'
_symmetry_space_group_name_H-M	'P1'
_symmetry_Int_Tables_number	1
_symmetry_cell_setting	triclinic
loop_
_symmetry_equiv_pos_as_xyz
  x,y,z
_cell_length_a	14.519731
_cell_length_b	10.654550
_cell_length_c	13.596369
_cell_angle_alpha	89.994113
_cell_angle_beta	90.001056
_cell_angle_gamma	95.913108
loop_
_atom_site_label
_atom_site_type_symbol
_atom_site_fract_x
_atom_site_fract_y
_atom_site_fract_z
O1	O	1.224705	-0.164754	0.081793
O2	O	1.724705	0.335246	0.581793
O3	O	0.956331	-0.184112	0.081795
O4	O	1.456331	0.315888	0.581795
O5	O	1.096688	0.008365	0.081788
O6	O	1.596688	0.508365	0.581788
O7	O	1.084347	-0.357231	0.081800
O8	O	1.584347	0.142769	0.581800
O9	O	1.096686	0.008377	-0.081795
O10	O	1.596686	0.508377	0.418205
O11	O	0.956328	-0.184100	-0.081788
O12	O	1.456328	0.315900	0.418212
O13	O	1.224702	-0.164741	-0.081790
O14	O	1.724702	0.335259	0.418210
Zn15	Zn	1.090515	-0.174419	-0.107761
Zn16	Zn	1.590515	0.325581	0.392239
Zn17	Zn	1.090518	-0.174435	0.107766
Zn18	Zn	1.590518	0.325565	0.607766
O19	O	1.084345	-0.357219	-0.081783
O20	O	1.584345	0.142781	0.418217
C21	C	0.921965	-0.183199	0.000003
C22	C	1.421965	0.316801	0.500003
C23	C	0.819571	-0.180481	0.000004
C24	C	1.319571	0.319519	0.500004
C25	C	0.736416	-0.178272	0.000008
C26	C	1.236416	0.321728	0.500008
C27	C	0.632093	-0.175513	0.000008
C28	C	1.132093	0.324487	0.500008
C29	C	0.548942	-0.173322	0.000008
C30	C	1.048942	0.326678	0.500008
C31	C	0.444612	-0.170563	0.000010
C32	C	0.944612	0.329437	0.500010
C33	C	1.095781	0.055160	-0.000003
C34	C	1.595781	0.555160	0.499997
C35	C	1.093070	0.194578	-0.000002
C36	C	1.593070	0.694578	0.499998
C37	C	1.259068	-0.165655	0.000004
C38	C	1.759068	0.334345	0.500004
C39	C	1.361462	-0.168373	0.000010
C40	C	1.861462	0.331627	0.500010
N41	N	1.090520	-0.174407	-0.254853
N42	N	1.590520	0.325593	0.245147
C43	C	1.085252	-0.404014	0.000010
C44	C	1.585252	0.095986	0.500010
C45	C	1.087963	-0.543432	0.000015
C46	C	1.587963	-0.043432	0.500015
C47	C	1.175710	0.274850	-0.000002
C48	C	1.675710	0.774850	0.499998
C49	C	1.173157	0.405846	0.000010
C50	C	1.673157	0.905846	0.500010
C51	C	1.005317	0.376286	0.000018
C52	C	1.505317	0.876286	0.500018
C53	C	1.007871	0.245293	0.000013
C54	C	1.507871	0.745293	0.500013
N55	N	1.090521	-0.174437	0.254858
N56	N	1.590521	0.325563	0.754858
C57	C	1.090516	-0.174423	0.656149
C58	C	1.590516	0.325577	1.156149
C59	C	1.090514	-0.174430	0.544498
C60	C	1.590514	0.325570	1.044498
C61	C	1.090518	-0.174429	0.455507
C62	C	1.590518	0.325571	0.955507
C63	C	1.090517	-0.174438	0.343849
C64	C	1.590517	0.325562	0.843849
H65	H	1.245085	0.233562	-0.000012
H66	H	1.745085	0.733562	0.499988
O67	O	0.927675	0.167128	0.000057
O68	O	1.427675	0.667128	0.500057
C69	C	0.948202	0.040636	0.000030
C70	C	1.448202	0.540636	0.500030
H71	H	1.020675	0.035449	0.030994
H72	H	1.520675	0.535449	0.530994
H73	H	0.944944	0.002773	-0.078449
H74	H	1.444944	0.502773	0.421551
C75	C	0.788112	-0.033011	0.026156
C76	C	1.288112	0.466989	0.526156
C77	C	0.877122	-0.039383	0.064194
C78	C	1.377122	0.460617	0.564194
H79	H	0.744265	-0.082373	0.065732
H80	H	1.244265	0.417627	0.565732
H81	H	0.774282	0.052209	0.026171
H82	H	1.274282	0.552209	0.526171
H83	H	0.785411	-0.064562	-0.039242
H84	H	1.285411	0.435438	0.460758
H85	H	0.879825	-0.007818	0.129587
H86	H	1.379825	0.492182	0.629587
H87	H	0.890951	-0.124600	0.064192
H88	H	1.390951	0.375400	0.564192
O89	O	1.253496	0.483692	0.000138
O90	O	1.753496	0.983692	0.500138
C91	C	1.305168	0.460672	0.084865
C92	C	1.805168	0.960672	0.584865
H93	H	1.283159	0.361354	0.113105
H94	H	1.783159	0.861354	0.613105
H95	H	1.292104	0.532335	0.144196
H96	H	1.792104	1.032335	0.644196
C97	C	1.436019	0.594867	0.024436
C98	C	1.936019	1.094867	0.524436
C99	C	1.408993	0.472878	0.059117
C100	C	1.908993	0.972878	0.559117
H101	H	1.500064	0.602402	0.008556
H102	H	2.000064	1.102402	0.508556
H103	H	1.401206	0.610381	-0.032644
H104	H	1.901206	1.110381	0.467356
H105	H	1.425125	0.654573	0.073885
H106	H	1.925125	1.154573	0.573885
H107	H	1.419876	0.413176	0.009664
H108	H	1.919876	0.913176	0.509664
H109	H	1.443810	0.457355	0.116189
H110	H	1.943810	0.957355	0.616189
O111	O	0.922638	0.425762	-0.000020
O112	O	1.422638	0.925762	0.499980
C113	C	0.938102	0.558595	0.000006
C114	C	1.438102	1.058595	0.500006
H115	H	1.009874	0.589193	-0.030965
H116	H	1.509874	1.089193	0.469035
H117	H	0.933401	0.595056	0.078485
H118	H	1.433401	1.095056	0.578485
C119	C	0.776242	0.575526	-0.026106
C120	C	1.276242	1.075526	0.473894
C121	C	0.864390	0.613107	-0.064152
C122	C	1.364390	1.113107	0.435848
H123	H	0.730771	0.609154	-0.065678
H124	H	1.230771	1.109154	0.434322
H125	H	0.765822	0.486035	-0.026120
H126	H	1.265822	0.986035	0.473880
H127	H	0.772337	0.605913	0.039293
H128	H	1.272337	1.105913	0.539293
H129	H	0.868297	0.582707	-0.129545
H130	H	1.368297	1.082707	0.370455
H131	H	0.874809	0.702595	-0.064151
H132	H	1.374809	1.202595	0.435849
