data_functionalizedCrystal
_audit_creation_method	'MofGen! by Chris Wilmer'
_symmetry_space_group_name_H-M	'P1'
_symmetry_Int_Tables_number	1
_symmetry_cell_setting	triclinic
loop_
_symmetry_equiv_pos_as_xyz
  x,y,z
_cell_length_a	6.394989
_cell_length_b	17.699083
_cell_length_c	16.176319
_cell_angle_alpha	90.007696
_cell_angle_beta	90.006825
_cell_angle_gamma	84.890363
loop_
_atom_site_label
_atom_site_type_symbol
_atom_site_fract_x
_atom_site_fract_y
_atom_site_fract_z
O1	O	-2.770874	-0.123990	-0.068740
O2	O	-2.270874	0.376010	0.431260
O3	O	-2.162714	-0.130236	-0.068744
O4	O	-1.662714	0.369764	0.431256
O5	O	-2.483976	-0.017099	-0.068735
O6	O	-1.983976	0.482901	0.431265
O7	O	-2.449612	-0.237127	-0.068749
O8	O	-1.949612	0.262873	0.431251
O9	O	-2.483932	-0.017091	0.068758
O10	O	-1.983932	0.482909	0.568758
O11	O	-2.162670	-0.130228	0.068749
O12	O	-1.662670	0.369772	0.568749
O13	O	-2.770830	-0.123982	0.068753
O14	O	-2.270830	0.376018	0.568753
Cu15	Cu	-2.466746	-0.127104	0.081305
Cu16	Cu	-1.966746	0.372896	0.581305
Cu17	Cu	-2.466798	-0.127114	-0.081296
Cu18	Cu	-1.966798	0.372886	0.418704
O19	O	-2.449568	-0.237119	0.068744
O20	O	-1.949568	0.262881	0.568744
C21	C	-2.482722	0.011114	0.000012
C22	C	-1.982722	0.511114	0.500012
C23	C	-2.479028	0.095170	0.000012
C24	C	-1.979028	0.595170	0.500012
C25	C	-2.450821	-0.265332	-0.000005
C26	C	-1.950821	0.234668	0.499995
C27	C	-2.454515	-0.349388	-0.000011
C28	C	-1.954515	0.150612	0.499989
N29	N	-2.466724	-0.127097	0.195671
N30	N	-1.966724	0.372903	0.695671
C31	C	-2.084876	-0.128997	0.000007
C32	C	-1.584876	0.371003	0.500007
C33	C	-1.848661	-0.125223	0.000010
C34	C	-1.348661	0.374777	0.500010
N35	N	-2.466836	-0.127115	-0.195662
N36	N	-1.966836	0.372885	0.304338
C37	C	-2.667602	0.141867	0.000015
C38	C	-2.167602	0.641867	0.500015
C39	C	-2.664119	0.220846	0.000007
C40	C	-2.164119	0.720846	0.500007
C41	C	-2.472059	0.253126	0.000004
C42	C	-1.972059	0.753126	0.500004
C43	C	-2.283471	0.206424	-0.000001
C44	C	-1.783471	0.706424	0.499999
C45	C	-2.286956	0.127446	0.000000
C46	C	-1.786956	0.627446	0.500000
C47	C	-2.269410	0.524930	-0.000008
C48	C	-1.769410	1.024930	0.499992
C49	C	-2.265939	0.603914	-0.000007
C50	C	-1.765939	1.103914	0.499993
C51	C	-2.646572	0.618330	-0.000001
C52	C	-2.146572	1.118330	0.499999
C53	C	-2.650058	0.539352	0.000000
C54	C	-2.150058	1.039352	0.500000
C55	C	-2.461471	0.492657	-0.000009
C56	C	-1.961471	0.992657	0.499991
C57	C	-2.465250	0.407019	-0.000002
C58	C	-1.965250	0.907019	0.499998
C59	C	-2.468278	0.338763	0.000003
C60	C	-1.968278	0.838763	0.500003
C61	C	-2.609022	-0.077022	0.238939
C62	C	-2.109022	0.422978	0.738939
C63	C	-2.609032	-0.077021	0.325486
C64	C	-2.109032	0.422979	0.825486
C65	C	-2.466754	-0.127100	0.368763
C66	C	-1.966754	0.372900	0.868763
C67	C	-2.324441	-0.177178	0.325489
C68	C	-1.824441	0.322822	0.825489
C69	C	-2.324422	-0.177175	0.238943
C70	C	-1.824422	0.322825	0.738943
C71	C	-2.324512	-0.177193	0.674517
C72	C	-1.824512	0.322807	1.174517
C73	C	-2.324547	-0.177194	0.761069
C74	C	-1.824547	0.322806	1.261069
C75	C	-2.609123	-0.077040	0.761060
C76	C	-2.109123	0.422960	1.261060
C77	C	-2.609104	-0.077036	0.674514
C78	C	-2.109104	0.422964	1.174514
C79	C	-2.466785	-0.127111	0.631247
C80	C	-1.966785	0.372889	1.131247
C81	C	-2.466772	-0.127110	0.537403
C82	C	-1.966772	0.372890	1.037403
C83	C	-2.466774	-0.127105	0.462606
C84	C	-1.966774	0.372895	0.962606
H85	H	-2.824000	0.115590	0.000023
H86	H	-2.324000	0.615590	0.500023
C87	C	-2.079531	0.076077	-0.000003
C88	C	-1.579531	0.576077	0.499997
H89	H	-2.109112	0.024418	-0.000010
H90	H	-1.609112	0.524418	0.499990
H91	H	-2.000734	0.086061	0.047941
H92	H	-1.500734	0.586061	0.547941
H93	H	-2.000789	0.086054	-0.047958
H94	H	-1.500789	0.586054	0.452042
H95	H	-2.115850	0.486920	-0.000015
H96	H	-1.615850	0.986920	0.499985
C97	C	-2.765643	-0.021965	0.626910
C98	C	-2.265643	0.478035	1.126910
H99	H	-2.745273	-0.029144	0.569169
H100	H	-2.245273	0.470856	1.069169
H101	H	-2.743270	0.028772	0.641096
H102	H	-2.243270	0.528772	1.141096
H103	H	-2.904984	-0.031563	0.641087
H104	H	-2.404984	0.468437	1.141087
C105	C	-2.168027	-0.232291	0.626930
C106	C	-1.668027	0.267709	1.126930
H107	H	-2.188379	-0.225120	0.569188
H108	H	-1.688379	0.274880	1.069188
H109	H	-2.190490	-0.283018	0.641111
H110	H	-1.690490	0.216982	1.141111
H111	H	-2.028663	-0.222723	0.641123
H112	H	-1.528663	0.277277	1.141123
H113	H	-2.817675	0.258863	0.000011
H114	H	-2.317675	0.758863	0.500011
C115	C	-2.072209	0.241931	-0.000003
C116	C	-1.572209	0.741931	0.499997
H117	H	-2.097138	0.295655	0.000006
H118	H	-1.597138	0.795655	0.500006
H119	H	-1.994590	0.226021	-0.047949
H120	H	-1.494590	0.726021	0.452051
H121	H	-1.994575	0.226029	0.047951
H122	H	-1.494575	0.726029	0.547951
C123	C	-2.861322	0.503847	0.000001
C124	C	-2.361322	1.003847	0.500001
H125	H	-2.973135	0.542970	-0.000007
H126	H	-2.473135	1.042970	0.499993
H127	H	-2.870586	0.473342	0.047946
H128	H	-2.370586	0.973342	0.547946
H129	H	-2.870597	0.473334	-0.047954
H130	H	-2.370597	0.973334	0.452046
H131	H	-2.724890	-0.036245	0.203708
H132	H	-2.224890	0.463755	0.703708
H133	H	-2.208546	-0.217950	0.203715
H134	H	-1.708546	0.282050	0.703715
H135	H	-2.724900	-0.036245	0.360714
H136	H	-2.224900	0.463755	0.860714
C137	C	-2.854018	0.669697	-0.000004
C138	C	-2.354018	1.169697	0.499996
H139	H	-2.824447	0.721357	-0.000016
H140	H	-2.324447	1.221357	0.499984
H141	H	-2.932775	0.659724	0.047943
H142	H	-2.432775	1.159724	0.547943
H143	H	-2.932798	0.659706	-0.047956
H144	H	-2.432798	1.159706	0.452044
H145	H	-2.725001	-0.036263	0.796297
H146	H	-2.225001	0.463737	1.296297
C147	C	-2.167995	-0.232270	0.808672
C148	C	-1.667995	0.267730	1.308672
H149	H	-2.083210	-0.262085	0.770510
H150	H	-1.583210	0.237915	1.270510
H151	H	-2.242936	-0.264515	0.842426
H152	H	-1.742936	0.235485	1.342426
H153	H	-2.081225	-0.204178	0.842441
H154	H	-1.581225	0.295822	1.342441
C155	C	-2.167941	-0.232266	0.373091
C156	C	-1.667941	0.267734	0.873091
H157	H	-2.188345	-0.225102	0.430832
H158	H	-1.688345	0.274898	0.930832
H159	H	-2.028590	-0.222688	0.358924
H160	H	-1.528590	0.277312	0.858924
H161	H	-2.190373	-0.282999	0.358893
H162	H	-1.690373	0.217001	0.858893
H163	H	-2.109532	0.630193	-0.000008
H164	H	-1.609532	1.130193	0.499992
