data_functionalizedCrystal
_audit_creation_method	'MofGen! by Chris Wilmer'
_symmetry_space_group_name_H-M	'P1'
_symmetry_Int_Tables_number	1
_symmetry_cell_setting	triclinic
loop_
_symmetry_equiv_pos_as_xyz
  x,y,z
_cell_length_a	14.519731
_cell_length_b	14.519731
_cell_length_c	9.798715
_cell_angle_alpha	89.995867
_cell_angle_beta	89.996220
_cell_angle_gamma	83.688853
loop_
_atom_site_label
_atom_site_type_symbol
_atom_site_fract_x
_atom_site_fract_y
_atom_site_fract_z
O1	O	1.223864	0.120982	-0.113497
O2	O	1.557197	0.454315	0.219836
O3	O	1.890530	0.787648	0.553170
O4	O	0.955391	0.135197	-0.113500
O5	O	1.288724	0.468531	0.219834
O6	O	1.622057	0.801864	0.553167
O7	O	1.096735	-0.006147	-0.113486
O8	O	1.430068	0.327186	0.219848
O9	O	1.763402	0.660520	0.553181
O10	O	1.082519	0.262326	-0.113511
O11	O	1.415853	0.595659	0.219823
O12	O	1.749186	0.928993	0.553156
O13	O	1.096725	-0.006147	0.113496
O14	O	1.430058	0.327186	0.446830
O15	O	1.763391	0.660519	0.780163
O16	O	0.955380	0.135197	0.113483
O17	O	1.288713	0.468530	0.446816
O18	O	1.622047	0.801864	0.780149
O19	O	1.223853	0.120981	0.113485
O20	O	1.557187	0.454315	0.446818
O21	O	1.890520	0.787648	0.780152
Zn22	Zn	1.089615	0.128089	0.149522
Zn23	Zn	1.422948	0.461422	0.482856
Zn24	Zn	1.756282	0.794756	0.816189
Zn25	Zn	1.089629	0.128090	-0.149537
Zn26	Zn	1.422962	0.461423	0.183797
Zn27	Zn	1.756296	0.794756	0.517130
O28	O	1.082509	0.262326	0.113471
O29	O	1.415842	0.595659	0.446805
O30	O	1.749175	0.928992	0.780138
C31	C	0.921026	0.134531	-0.000009
C32	C	1.254359	0.467864	0.333325
C33	C	1.587693	0.801198	0.666658
C34	C	0.818645	0.132535	-0.000009
C35	C	1.151979	0.465868	0.333324
C36	C	1.485312	0.799202	0.666657
C37	C	1.096064	-0.040507	0.000006
C38	C	1.429397	0.292827	0.333339
C39	C	1.762730	0.626160	0.666672
C40	C	1.094068	-0.142887	0.000006
C41	C	1.427401	0.190446	0.333340
C42	C	1.760734	0.523780	0.666673
C43	C	0.735501	0.130913	-0.000015
C44	C	1.068835	0.464247	0.333319
C45	C	1.402168	0.797580	0.666652
C46	C	0.631192	0.128887	-0.000015
C47	C	0.964526	0.462220	0.333318
C48	C	1.297859	0.795553	0.666652
C49	C	0.548053	0.127278	-0.000015
C50	C	0.881386	0.460612	0.333319
C51	C	1.214720	0.793945	0.666652
C52	C	0.443738	0.125252	-0.000017
C53	C	0.777071	0.458585	0.333316
C54	C	1.110404	0.791919	0.666649
C55	C	1.092446	-0.226031	0.000003
C56	C	1.425779	0.107302	0.333337
C57	C	1.759113	0.440635	0.666670
C58	C	1.090419	-0.330340	-0.000007
C59	C	1.423753	0.002993	0.333326
C60	C	1.757086	0.336326	0.666659
C61	C	1.088811	-0.413479	-0.000016
C62	C	1.422144	-0.080146	0.333317
C63	C	1.755478	0.253187	0.666651
C64	C	1.086785	-0.517795	-0.000024
C65	C	1.420118	-0.184462	0.333309
C66	C	1.753451	0.148872	0.666643
C67	C	1.258218	0.121648	-0.000009
C68	C	1.591551	0.454981	0.333325
C69	C	1.924885	0.788314	0.666658
C70	C	1.360598	0.123643	-0.000017
C71	C	1.693932	0.456977	0.333316
C72	C	2.027265	0.790310	0.666649
C73	C	1.083180	0.296685	-0.000023
C74	C	1.416513	0.630019	0.333310
C75	C	1.749847	0.963352	0.666644
C76	C	1.085176	0.399066	-0.000033
C77	C	1.418509	0.732399	0.333301
C78	C	1.751843	1.065732	0.666634
N79	N	1.089612	0.128088	0.353622
N80	N	1.422946	0.461422	0.686955
N81	N	1.756279	0.794755	1.020289
N82	N	1.089639	0.128083	-0.353636
N83	N	1.422972	0.461416	-0.020303
N84	N	1.756306	0.794750	0.313030
C85	C	1.148961	0.068482	0.421405
C86	C	1.482294	0.401815	0.754738
C87	C	1.815627	0.735149	1.088071
C88	C	1.148976	0.068479	0.578567
C89	C	1.482309	0.401812	0.911901
C90	C	1.815642	0.735145	1.245234
H91	H	1.199758	0.017449	0.363087
H92	H	1.533091	0.350782	0.696420
H93	H	1.866424	0.684116	1.029754
H94	H	1.199790	0.017450	0.636857
H95	H	1.533123	0.350784	0.970191
H96	H	1.866456	0.684117	1.303524
H97	H	1.038809	0.179114	0.411941
H98	H	1.372143	0.512447	0.745275
H99	H	1.705476	0.845781	1.078608
H100	H	1.038829	0.179121	0.588082
H101	H	1.372162	0.512454	0.921416
H102	H	1.705495	0.845787	1.254749
