data_functionalizedCrystal
_audit_creation_method	'MofGen! by Chris Wilmer'
_symmetry_space_group_name_H-M	'P1'
_symmetry_Int_Tables_number	1
_symmetry_cell_setting	triclinic
loop_
_symmetry_equiv_pos_as_xyz
  x,y,z
_cell_length_a	14.908783
_cell_length_b	14.909042
_cell_length_c	14.908308
_cell_angle_alpha	89.837538
_cell_angle_beta	90.211273
_cell_angle_gamma	89.820521
loop_
_atom_site_label
_atom_site_type_symbol
_atom_site_fract_x
_atom_site_fract_y
_atom_site_fract_z
Zn1	Zn	1.364399	-0.313454	0.570869
Zn2	Zn	1.697733	0.019880	0.904202
Zn3	Zn	2.031066	0.353213	1.237536
Zn4	Zn	1.381551	-0.454222	0.412892
Zn5	Zn	1.714884	-0.120889	0.746226
Zn6	Zn	2.048217	0.212444	1.079559
Zn7	Zn	1.222653	-0.312484	0.411893
Zn8	Zn	1.555987	0.020849	0.745226
Zn9	Zn	1.889320	0.354183	1.078560
Zn10	Zn	1.223621	-0.471383	0.553585
Zn11	Zn	1.556954	-0.138050	0.886919
Zn12	Zn	1.890288	0.195283	1.220252
O13	O	1.298056	-0.387886	0.487310
O14	O	1.631389	-0.054553	0.820643
O15	O	1.964723	0.278781	1.153977
O16	O	1.492090	-0.325351	0.557565
O17	O	1.825423	0.007982	0.890898
O18	O	2.158756	0.341316	1.224231
O19	O	1.367245	-0.427833	0.287347
O20	O	1.700579	-0.094499	0.620680
O21	O	2.033912	0.238834	0.954014
O22	O	1.233874	-0.187200	0.439796
O23	O	1.567207	0.146133	0.773130
O24	O	1.900540	0.479466	1.106463
O25	O	1.504691	-0.428773	0.441500
O26	O	1.838024	-0.095440	0.774833
O27	O	2.171357	0.237893	1.108166
O28	O	1.338014	-0.187913	0.556596
O29	O	1.671347	0.145420	0.889929
O30	O	2.004680	0.478754	1.223262
O31	O	1.250505	-0.323698	0.286613
O32	O	1.583838	0.009635	0.619946
O33	O	1.917171	0.342969	0.953279
O34	O	1.097367	-0.340338	0.423037
O35	O	1.430700	-0.007005	0.756370
O36	O	1.764033	0.326328	1.089704
O37	O	1.235522	-0.458021	0.681291
O38	O	1.568856	-0.124688	1.014624
O39	O	1.902189	0.208645	1.347957
O40	O	1.098077	-0.457081	0.527138
O41	O	1.431411	-0.123748	0.860471
O42	O	1.764744	0.209586	1.193805
O43	O	1.338952	-0.341991	0.693989
O44	O	1.672285	-0.008658	1.027322
O45	O	2.005618	0.324675	1.360656
O46	O	1.368184	-0.581911	0.424741
O47	O	1.701517	-0.248578	0.758074
O48	O	2.034850	0.084756	1.091407
O49	O	1.252153	-0.594519	0.528107
O50	O	1.585487	-0.261186	0.861441
O51	O	1.918820	0.072148	1.194774
C52	C	1.065203	-0.400467	0.473104
C53	C	1.398537	-0.067134	0.806437
C54	C	1.731870	0.266199	1.139771
C55	C	0.965588	-0.405873	0.467047
C56	C	1.298921	-0.072539	0.800380
C57	C	1.632255	0.260794	1.133714
C58	C	0.765277	-0.308504	0.576690
C59	C	1.098610	0.024830	0.910023
C60	C	1.431944	0.358163	1.243356
C61	C	0.671679	-0.313579	0.571002
C62	C	1.005013	0.019754	0.904335
C63	C	1.338346	0.353087	1.237668
C64	C	0.684793	-0.421095	0.449979
C65	C	1.018126	-0.087761	0.783312
C66	C	1.351459	0.245572	1.116645
C67	C	0.778391	-0.416019	0.455667
C68	C	1.111724	-0.082685	0.789000
C69	C	1.445057	0.250648	1.122334
C70	C	0.818629	-0.359722	0.519026
C71	C	1.151962	-0.026389	0.852359
C72	C	1.485296	0.306944	1.185692
C73	C	0.912229	-0.354652	0.524717
C74	C	1.245562	-0.021319	0.858051
C75	C	1.578895	0.312015	1.191384
C76	C	0.925340	-0.462162	0.403691
C77	C	1.258674	-0.128828	0.737024
C78	C	1.592007	0.204505	1.070357
C79	C	0.831743	-0.467238	0.398003
C80	C	1.165076	-0.133904	0.731336
C81	C	1.498409	0.199429	1.064669
C82	C	1.312158	-0.620733	0.474678
C83	C	1.645491	-0.287400	0.808011
C84	C	1.978825	0.045934	1.141345
C85	C	1.318271	-0.720343	0.469309
C86	C	1.651604	-0.387010	0.802642
C87	C	1.984938	-0.053677	1.135975
C88	C	1.208831	-0.920715	0.566749
C89	C	1.542165	-0.587382	0.900083
C90	C	1.875498	-0.254048	1.233416
C91	C	1.214572	-1.014308	0.561708
C92	C	1.547905	-0.680975	0.895041
C93	C	1.881239	-0.347641	1.228374
C94	C	1.335489	-1.001124	0.454179
C95	C	1.668822	-0.667791	0.787513
C96	C	2.002155	-0.334458	1.120846
C97	C	1.329748	-0.907531	0.459221
C98	C	1.663081	-0.574198	0.792554
C99	C	1.996415	-0.240865	1.125888
C100	C	1.266418	-0.867330	0.515509
C101	C	1.599751	-0.533997	0.848842
C102	C	1.933085	-0.200663	1.182176
C103	C	1.260682	-0.773735	0.520555
C104	C	1.594015	-0.440402	0.853888
C105	C	1.927349	-0.107069	1.187222
C106	C	1.381594	-0.760553	0.413022
C107	C	1.714927	-0.427220	0.746356
C108	C	2.048260	-0.093887	1.079689
C109	C	1.387335	-0.854147	0.407981
C110	C	1.720668	-0.520813	0.741314
C111	C	2.054001	-0.187480	1.074647
C112	C	1.531818	-0.375256	0.501572
C113	C	1.865151	-0.041923	0.834905
C114	C	2.198485	0.291411	1.168238
C115	C	1.631434	-0.369874	0.507649
C116	C	1.964767	-0.036541	0.840983
C117	C	2.298100	0.296793	1.174316
C118	C	1.285432	-0.402029	0.721067
C119	C	1.618765	-0.068695	1.054401
C120	C	1.952098	0.264638	1.387734
C121	C	1.280052	-0.408056	0.820681
C122	C	1.613385	-0.074722	1.154014
C123	C	1.946719	0.258611	1.487347
C124	C	1.283923	-0.154129	0.500012
C125	C	1.617256	0.179204	0.833346
C126	C	1.950589	0.512537	1.166679
C127	C	1.277900	-0.054516	0.505425
C128	C	1.611233	0.278817	0.838759
C129	C	1.944566	0.612150	1.172092
C130	C	1.310679	-0.373731	0.254469
C131	C	1.644012	-0.040397	0.587802
C132	C	1.977345	0.292936	0.921135
C133	C	1.316217	-0.367442	0.154880
C134	C	1.649550	-0.034109	0.488213
C135	C	1.982883	0.299225	0.821547
C136	C	1.377640	-0.298538	1.021090
C137	C	1.710973	0.034796	1.354424
C138	C	2.044307	0.368129	1.687757
C139	C	1.372588	-0.304197	1.114686
C140	C	1.705921	0.029136	1.448020
C141	C	2.039255	0.362469	1.781353
C142	C	1.264892	-0.425029	1.101471
C143	C	1.598225	-0.091696	1.434804
C144	C	1.931558	0.241637	1.768137
C145	C	1.269944	-0.419370	1.007875
C146	C	1.603277	-0.086037	1.341208
C147	C	1.936610	0.247297	1.674541
C148	C	1.326321	-0.356123	0.967688
C149	C	1.659654	-0.022789	1.301021
C150	C	1.992988	0.310544	1.634355
C151	C	1.331377	-0.350468	0.874090
C152	C	1.664711	-0.017135	1.207423
C153	C	1.998044	0.316198	1.540757
C154	C	1.223677	-0.471295	0.860876
C155	C	1.557010	-0.137962	1.194209
C156	C	1.890343	0.195371	1.527543
C157	C	1.218624	-0.476955	0.954472
C158	C	1.551958	-0.143622	1.287806
C159	C	1.885291	0.189712	1.621139
H160	H	0.652014	-0.466918	0.398386
H161	H	0.985347	-0.133584	0.731719
H162	H	1.318680	0.199749	1.065053
H163	H	1.423549	-0.247044	0.988370
H164	H	1.756883	0.086290	1.321703
H165	H	2.090216	0.419623	1.655037
F166	F	1.141439	-0.877928	0.626663
F167	F	1.474773	-0.544594	0.959996
F168	F	1.808106	-0.211261	1.293329
F169	F	0.982129	-0.516682	0.342321
F170	F	1.315462	-0.183348	0.675654
F171	F	1.648795	0.149985	1.008988
F172	F	0.788908	-0.527146	0.330573
F173	F	1.122241	-0.193812	0.663907
F174	F	1.455574	0.139521	0.997240
H175	H	1.172722	-0.528447	0.987205
H176	H	1.506055	-0.195114	1.320539
H177	H	1.839389	0.138220	1.653872
H178	H	1.387041	-1.033873	0.408343
H179	H	1.720374	-0.700540	0.741677
H180	H	2.053708	-0.367206	1.075010
H181	H	1.209118	-0.741005	0.566390
H182	H	1.542451	-0.407671	0.899723
H183	H	1.875784	-0.074338	1.233057
F184	F	0.614901	-0.259063	0.632374
F185	F	0.948234	0.074270	0.965708
F186	F	1.281567	0.407603	1.299041
F187	F	1.153279	-1.071121	0.616243
F188	F	1.486612	-0.737788	0.949576
F189	F	1.819946	-0.404455	1.282910
F190	F	1.454732	-0.896942	0.348079
F191	F	1.788065	-0.563608	0.681413
F192	F	2.121399	-0.230275	1.014746
H193	H	0.944989	-0.308814	0.576308
H194	H	1.278323	0.024520	0.909641
H195	H	1.611656	0.357853	1.242975
F196	F	1.442889	-0.703730	0.358489
F197	F	1.776223	-0.370397	0.691822
F198	F	2.109556	-0.037064	1.025156
F199	F	1.204890	-0.492330	1.144256
F200	F	1.538223	-0.158997	1.477589
F201	F	1.871557	0.174337	1.810922
F202	F	1.391381	-0.283158	0.831322
F203	F	1.724714	0.050175	1.164655
F204	F	2.058047	0.383508	1.497988
H205	H	0.798040	-0.262669	0.628282
H206	H	1.131373	0.070664	0.961616
H207	H	1.464706	0.403998	1.294949
F208	F	1.427208	-0.242906	1.171518
F209	F	1.760541	0.090427	1.504852
F210	F	2.093875	0.423760	1.838185
H211	H	1.181891	-0.518188	0.817385
H212	H	1.515224	-0.184854	1.150719
H213	H	1.848558	0.148479	1.484052
