data_functionalizedCrystal
_audit_creation_method	'MofGen! by Chris Wilmer'
_symmetry_space_group_name_H-M	'P1'
_symmetry_Int_Tables_number	1
_symmetry_cell_setting	triclinic
loop_
_symmetry_equiv_pos_as_xyz
  x,y,z
_cell_length_a	14.519709
_cell_length_b	15.072220
_cell_length_c	15.995362
_cell_angle_alpha	89.996009
_cell_angle_beta	83.588762
_cell_angle_gamma	90.001669
loop_
_atom_site_label
_atom_site_type_symbol
_atom_site_fract_x
_atom_site_fract_y
_atom_site_fract_z
O1	O	-1.223672	0.073656	-0.109764
O2	O	-0.723672	0.573656	0.390236
O3	O	-0.955172	0.073682	-0.122689
O4	O	-0.455172	0.573682	0.377311
O5	O	-1.096756	0.073675	0.005650
O6	O	-0.596756	0.573675	0.505650
O7	O	-1.082088	0.073663	-0.238102
O8	O	-0.582088	0.573663	0.261898
O9	O	-1.096747	-0.073891	0.005665
O10	O	-0.596747	0.426109	0.505665
O11	O	-0.955163	-0.073883	-0.122674
O12	O	-0.455163	0.426117	0.377326
O13	O	-1.223663	-0.073909	-0.109748
O14	O	-0.723663	0.426091	0.390252
Zn15	Zn	-1.089411	-0.097325	-0.116208
Zn16	Zn	-0.589411	0.402675	0.383792
Zn17	Zn	-1.089424	0.097098	-0.116229
Zn18	Zn	-0.589424	0.597098	0.383771
O19	O	-1.082079	-0.073902	-0.238087
O20	O	-0.582079	0.426098	0.261913
C21	C	-0.920809	-0.000097	-0.122079
C22	C	-0.420809	0.499903	0.377921
C23	C	-0.818431	-0.000087	-0.120274
C24	C	-0.318431	0.499913	0.379726
N25	N	-1.089410	-0.230014	-0.116194
N26	N	-0.589410	0.269986	0.383806
C27	C	-1.258026	-0.000128	-0.110358
C28	C	-0.758026	0.499872	0.389642
C29	C	-1.360404	-0.000133	-0.112163
C30	C	-0.860404	0.499867	0.387837
C31	C	-1.096143	-0.000104	0.036853
C32	C	-0.596143	0.499896	0.536853
C33	C	-1.094319	-0.000094	0.129805
C34	C	-0.594319	0.499906	0.629805
C35	C	-0.443547	-0.000127	-0.113628
C36	C	0.056453	0.499873	0.386372
C37	C	-0.547851	-0.000115	-0.115474
C38	C	-0.047851	0.499885	0.384526
C39	C	-0.630986	-0.000106	-0.116951
C40	C	-0.130986	0.499894	0.383049
C41	C	-0.735297	-0.000096	-0.118797
C42	C	-0.235297	0.499904	0.381203
C43	C	-1.089424	-0.589216	-0.116222
C44	C	-0.589424	-0.089216	0.383778
C45	C	-1.165429	-0.551585	-0.047781
C46	C	-0.665429	-0.051585	0.452219
C47	C	-1.165230	-0.448759	-0.047528
C48	C	-0.665230	0.051241	0.452472
C49	C	-1.089418	-0.411012	-0.116208
C50	C	-0.589418	0.088988	0.383792
C51	C	-0.993200	-0.448344	-0.096984
C52	C	-0.493200	0.051656	0.403016
C53	C	-0.993650	-0.551202	-0.096500
C54	C	-0.493650	-0.051202	0.403500
C55	C	-1.108771	-0.551299	-0.204089
C56	C	-0.608771	-0.051299	0.295911
C57	C	-1.110955	-0.448435	-0.203504
C58	C	-0.610955	0.051565	0.296496
C59	C	-1.089408	-0.310298	-0.116202
C60	C	-0.589408	0.189702	0.383798
C61	C	-1.089428	-0.689929	-0.116227
C62	C	-0.589428	-0.189929	0.383773
N63	N	-1.089433	0.229787	-0.116237
N64	N	-0.589433	0.729787	0.383763
C65	C	-1.087769	-0.000076	0.467561
C66	C	-0.587769	0.499924	0.967561
C67	C	-0.986933	0.000262	0.420278
C68	C	-0.486933	0.500262	0.920278
C69	C	-0.988758	-0.000077	0.323586
C70	C	-0.488758	0.499923	0.823586
C71	C	-1.091018	-0.000085	0.299996
C72	C	-0.591018	0.499915	0.799996
C73	C	-1.140747	-0.084352	0.341008
C74	C	-0.640747	0.415648	0.841008
C75	C	-1.138209	-0.084417	0.437647
C76	C	-0.638209	0.415583	0.937647
C77	C	-1.140303	0.083392	0.437984
C78	C	-0.640303	0.583392	0.937984
C79	C	-1.140284	0.084500	0.341039
C80	C	-0.640284	0.584500	0.841039
C81	C	-1.092859	-0.000092	0.205297
C82	C	-0.592859	0.499908	0.705297
C83	C	-1.085930	-0.000075	0.562261
C84	C	-0.585930	0.499925	1.062261
C85	C	-1.082680	-0.000106	0.730709
C86	C	-0.582680	0.499894	1.230709
C87	C	-1.084468	-0.000067	0.637752
C88	C	-0.584468	0.499933	1.137752
H89	H	-1.236753	-0.423518	-0.058996
H90	H	-0.736753	0.076482	0.441004
C91	C	-1.091240	0.168719	0.304224
C92	C	-0.591240	0.668719	0.804224
H93	H	-1.040952	0.152412	0.264003
H94	H	-0.540952	0.652412	0.764003
H95	H	-1.068587	0.201812	0.348154
H96	H	-0.568587	0.701812	0.848154
H97	H	-1.133925	0.203886	0.277780
H98	H	-0.633925	0.703886	0.777780
H99	H	-0.946632	0.060695	0.438864
H100	H	-0.446632	0.560695	0.938864
H101	H	-0.949396	-0.060582	0.295786
H102	H	-0.449396	0.439418	0.795786
H103	H	-0.935279	-0.423894	-0.145500
H104	H	-0.435279	0.076106	0.354500
C105	C	-1.089197	-0.169499	0.462456
C106	C	-0.589197	0.330501	0.962456
H107	H	-1.071018	-0.203695	0.413495
H108	H	-0.571018	0.296305	0.913495
H109	H	-1.130393	-0.203192	0.500369
H110	H	-0.630393	0.296808	1.000369
H111	H	-1.035925	-0.154094	0.488797
H112	H	-0.535925	0.345906	0.988797
H113	H	-1.214856	0.089582	0.325565
H114	H	-0.714856	0.589582	0.825565
C115	C	-1.240732	0.084163	0.480745
C116	C	-0.740732	0.584163	0.980745
H117	H	-1.250636	0.033894	0.516454
H118	H	-0.750636	0.533894	1.016454
H119	H	-1.282399	0.082309	0.439021
H120	H	-0.782399	0.582309	0.939021
H121	H	-1.251110	0.136755	0.513160
H122	H	-0.751110	0.636755	1.013160
H123	H	-1.237192	-0.576322	-0.059067
H124	H	-0.737192	-0.076322	0.440933
H125	H	-0.949667	0.060330	0.295216
H126	H	-0.449667	0.560330	0.795216
C127	C	-0.932721	-0.080913	0.446825
C128	C	-0.432721	0.419087	0.946825
H129	H	-0.971273	-0.115011	0.486596
H130	H	-0.471273	0.384989	0.986596
H131	H	-0.879634	-0.061534	0.471447
H132	H	-0.379634	0.438466	0.971447
H133	H	-0.913827	-0.116286	0.398804
H134	H	-0.413827	0.383714	0.898804
C135	C	-1.242239	-0.088602	0.321782
C136	C	-0.742239	0.411398	0.821782
H137	H	-1.271000	-0.140045	0.347171
H138	H	-0.771000	0.359955	0.847171
H139	H	-1.244009	-0.091130	0.262643
H140	H	-0.744009	0.408870	0.762643
H141	H	-1.274327	-0.037251	0.343690
H142	H	-0.774327	0.462749	0.843690
C143	C	-1.148972	-0.586498	0.039807
C144	C	-0.648972	-0.086498	0.539807
H145	H	-1.095981	-0.623906	0.034846
H146	H	-0.595981	-0.123906	0.534846
H147	H	-1.201624	-0.619226	0.063038
H148	H	-0.701624	-0.119226	0.563038
H149	H	-1.139138	-0.537896	0.075568
H150	H	-0.639138	-0.037896	0.575568
H151	H	-0.935393	-0.576095	-0.144446
H152	H	-0.435393	-0.076095	0.355554
H153	H	-0.975730	-0.422587	-0.033627
H154	H	-0.475730	0.077413	0.466373
H155	H	-1.212241	-0.088243	0.469784
H156	H	-0.712241	0.411757	0.969784
H157	H	-1.152869	-0.424157	0.017677
H158	H	-0.652869	0.075843	0.517677
H159	H	-0.976599	-0.575197	-0.032415
H160	H	-0.476599	-0.075197	0.467585
C161	C	-1.094072	-0.169068	0.302761
C162	C	-0.594072	0.330932	0.802761
H163	H	-1.044286	-0.153263	0.261810
H164	H	-0.544286	0.346737	0.761810
H165	H	-1.138113	-0.203169	0.276960
H166	H	-0.638113	0.296831	0.776960
H167	H	-1.070997	-0.203027	0.345924
H168	H	-0.570997	0.296973	0.845924
C169	C	-1.201527	-0.586339	-0.229004
C170	C	-0.701527	-0.086339	0.270996
H171	H	-1.229326	-0.624424	-0.186045
H172	H	-0.729326	-0.124424	0.313955
H173	H	-1.190755	-0.618373	-0.280307
H174	H	-0.690755	-0.118373	0.219693
H175	H	-1.241737	-0.537835	-0.236010
H176	H	-0.741737	-0.037835	0.263990
H177	H	-1.059185	-0.422738	-0.256831
H178	H	-0.559185	0.077262	0.243169
C179	C	-1.206563	-0.415461	-0.223225
C180	C	-0.706563	0.084539	0.276775
H181	H	-1.219192	-0.438322	-0.276109
H182	H	-0.719192	0.061678	0.223891
H183	H	-1.206638	-0.352467	-0.225102
H184	H	-0.706638	0.147533	0.274898
H185	H	-1.252845	-0.435261	-0.180633
H186	H	-0.752845	0.064739	0.319367
C187	C	-1.033903	-0.584178	-0.272898
C188	C	-0.533903	-0.084178	0.227102
H189	H	-0.991057	-0.620835	-0.248245
H190	H	-0.491057	-0.120835	0.251755
H191	H	-1.002191	-0.534721	-0.299288
H192	H	-0.502191	-0.034721	0.200712
H193	H	-1.062274	-0.617282	-0.313603
H194	H	-0.562274	-0.117282	0.186397
C195	C	-1.095768	0.169679	0.465781
C196	C	-0.595768	0.669679	0.965781
H197	H	-1.044713	0.155604	0.495687
H198	H	-0.544713	0.655604	0.995687
H199	H	-1.140263	0.202582	0.501185
H200	H	-0.640263	0.702582	1.001185
H201	H	-1.074830	0.204076	0.417611
H202	H	-0.574830	0.704076	0.917611
