data_functionalizedCrystal
_audit_creation_method	'MofGen! by Chris Wilmer'
_symmetry_space_group_name_H-M	'P1'
_symmetry_Int_Tables_number	1
_symmetry_cell_setting	triclinic
loop_
_symmetry_equiv_pos_as_xyz
  x,y,z
_cell_length_a	10.540539
_cell_length_b	10.540539
_cell_length_c	9.016244
_cell_angle_alpha	90.000067
_cell_angle_beta	89.994699
_cell_angle_gamma	95.474508
loop_
_atom_site_label
_atom_site_type_symbol
_atom_site_fract_x
_atom_site_fract_y
_atom_site_fract_z
O1	O	1.685893	-0.178895	-0.123263
O2	O	1.316480	-0.195751	-0.123280
O3	O	1.509614	-0.002617	-0.123269
O4	O	1.492759	-0.372030	-0.123274
O5	O	1.509586	-0.002621	0.123411
O6	O	1.316452	-0.195755	0.123400
O7	O	1.685865	-0.178900	0.123418
Cu8	Cu	1.501156	-0.187328	0.145933
Cu9	Cu	1.501189	-0.187323	-0.145795
O10	O	1.492730	-0.372034	0.123407
C11	C	1.269163	-0.194489	0.000058
C12	C	1.128215	-0.190707	0.000051
C13	C	0.944788	-0.045790	0.000628
C14	C	1.091406	-0.049624	0.000057
C15	C	1.066558	-0.258600	-0.140811
C16	C	0.920014	-0.253785	-0.140914
C17	C	0.919493	-0.256660	0.139608
C18	C	1.066475	-0.257960	0.141455
C19	C	1.508336	0.044684	0.000068
C20	C	1.504554	0.185632	0.000060
C21	C	1.733182	-0.180161	0.000077
C22	C	1.874130	-0.183943	0.000074
C23	C	1.494008	-0.419335	0.000066
C24	C	1.497790	-0.560283	0.000064
N25	N	1.501141	-0.187331	0.351119
C26	C	1.359637	0.369059	-0.000500
C27	C	1.363471	0.222441	0.000055
C28	C	1.572434	0.247287	0.140930
C29	C	1.567619	0.393832	0.141049
C30	C	1.570520	0.394355	-0.139473
C31	C	1.571820	0.247373	-0.141336
N32	N	1.501213	-0.187310	-0.350982
C33	C	1.397510	-0.290298	0.586146
C34	C	1.397739	-0.290684	0.414255
C35	C	1.633864	-0.217464	0.413464
C36	C	1.633298	-0.218193	0.585409
C37	C	1.473367	-0.053892	0.585663
C38	C	1.470322	-0.054757	0.413709
H39	H	0.887935	-0.211004	0.246381
H40	H	1.107425	-0.208362	0.245664
O41	O	1.292696	0.166004	-0.133688
H42	H	1.338613	0.206547	-0.236222
O43	O	1.702015	0.457374	0.149563
H44	H	1.712591	0.517009	0.251080
H45	H	1.712919	-0.144501	0.372564
O46	O	1.709670	0.217671	0.147905
H47	H	1.731001	0.158548	0.050812
O48	O	1.267104	-0.266693	0.358418
H49	H	1.227773	-0.348914	0.290272
O50	O	0.856935	-0.391641	0.140873
H51	H	0.889446	-0.442352	0.239691
H52	H	1.674681	0.223152	-0.149837
H53	H	1.304121	0.399265	0.099949
O54	O	1.666851	-0.344949	0.356433
H55	H	1.588933	-0.387043	0.283703
O56	O	1.098563	-0.394209	0.152743
H57	H	1.159277	-0.416222	0.057311
H58	H	1.298584	-0.272446	0.627535
O59	O	1.420904	-0.420681	0.643337
H60	H	1.506072	-0.412451	0.716344
O61	O	1.421456	-0.421793	0.359729
H62	H	1.432819	-0.485165	0.456174
O63	O	1.509958	0.190866	0.279797
H64	H	1.430573	0.118931	0.248839
H65	H	1.303918	0.397661	-0.101521
O66	O	1.665556	-0.347127	0.638517
H67	H	1.665481	-0.348925	0.761605
H68	H	1.712941	-0.146204	0.626995
O69	O	1.292224	0.167113	0.134048
H70	H	1.254902	0.245097	0.198709
O71	O	1.501124	0.431199	0.280514
H72	H	1.472698	0.344636	0.347235
H73	H	1.372684	-0.031916	0.372962
O74	O	1.347850	-0.015918	0.643142
H75	H	1.303909	-0.091725	0.717516
O76	O	1.506136	0.193154	-0.279392
H77	H	1.425919	0.122520	-0.247455
H78	H	0.914592	0.009712	-0.099828
H79	H	1.524871	0.425910	-0.246244
O80	O	1.563757	0.051646	0.356831
H81	H	1.633937	0.011519	0.282738
O82	O	1.705501	0.456914	-0.140746
H83	H	1.720776	0.520016	-0.042537
H84	H	1.548979	0.022762	0.626319
H85	H	1.134008	0.003797	0.101034
H86	H	0.916191	0.009944	0.101649
H87	H	0.891816	-0.203602	-0.246209
O88	O	1.146735	0.021627	-0.133931
H89	H	1.068751	0.058948	-0.198580
H90	H	0.872045	-0.355250	-0.147309
O91	O	1.096150	-0.395845	-0.147770
H92	H	1.149066	-0.411768	-0.251515
O93	O	1.122962	-0.196122	-0.279685
H94	H	1.194890	-0.116728	-0.248736
