data_functionalizedCrystal
_audit_creation_method	'MofGen! by Chris Wilmer'
_symmetry_space_group_name_H-M	'P1'
_symmetry_Int_Tables_number	1
_symmetry_cell_setting	triclinic
loop_
_symmetry_equiv_pos_as_xyz
  x,y,z
_cell_length_a	14.853567
_cell_length_b	9.065215
_cell_length_c	8.140239
_cell_angle_alpha	89.997810
_cell_angle_beta	90.000276
_cell_angle_gamma	84.324814
loop_
_atom_site_label
_atom_site_type_symbol
_atom_site_fract_x
_atom_site_fract_y
_atom_site_fract_z
O1	O	0.132179	1.957781	-0.136579
O2	O	0.143024	1.528280	-0.136585
O3	O	0.006456	1.754503	-0.136587
O4	O	0.268746	1.731558	-0.136577
O5	O	0.006455	1.754490	0.136641
O6	O	0.143023	1.528268	0.136642
O7	O	0.132177	1.957768	0.136648
Zn8	Zn	0.137599	1.743016	0.180026
Zn9	Zn	0.137602	1.743032	-0.179962
O10	O	0.268745	1.731545	0.136650
C11	C	0.141982	1.473308	0.000028
C12	C	0.138867	1.309527	0.000025
C13	C	-0.027141	1.753457	0.000022
C14	C	-0.127248	1.750342	0.000008
C15	C	-0.540872	1.602790	0.000037
C16	C	-0.560166	1.871548	0.000041
C17	C	-0.466111	1.874478	0.000031
C18	C	-0.409432	1.741561	0.000027
C19	C	-0.446808	1.605716	0.000032
C20	C	-0.428727	2.010321	0.000042
C21	C	-0.334666	2.013256	0.000035
C22	C	-0.277986	1.880338	0.000019
C23	C	-0.315367	1.744487	0.000022
C24	C	-0.258688	1.611571	0.000018
C25	C	-0.296068	1.475718	0.000010
C26	C	-0.390127	1.472798	0.000016
C27	C	-0.183927	1.883258	0.000012
C28	C	-0.164624	1.614496	0.000013
C29	C	0.302342	1.732591	0.000038
C30	C	0.402449	1.735707	0.000041
C31	C	0.133219	2.012740	0.000032
C32	C	0.136334	2.176522	0.000024
N33	N	0.137597	1.743015	0.425709
N34	N	0.137597	1.743044	-0.425645
H35	H	-0.249908	1.367498	0.000018
H36	H	-0.474882	2.118534	0.000061
C37	C	-0.048309	2.007073	0.000020
C38	C	-0.142836	2.032570	0.000028
H39	H	-0.022944	2.099259	0.000039
H40	H	-0.028940	1.952362	-0.095263
H41	H	-0.028935	1.952324	0.095299
H42	H	-0.162211	2.087310	-0.095257
H43	H	-0.162213	2.087304	0.095321
C44	C	-0.525745	1.348985	0.000056
C45	C	-0.431217	1.323479	0.000032
H46	H	-0.551112	1.256802	0.000081
H47	H	-0.545122	1.403707	-0.095220
H48	H	-0.545106	1.403726	0.095342
H49	H	-0.411855	1.268748	-0.095261
H50	H	-0.411832	1.268734	0.095317
H51	H	-0.118481	1.506258	0.000003
H52	H	-0.571311	1.492182	0.000024
H53	H	-0.606319	1.979762	0.000057
H54	H	-0.304240	2.123875	0.000039
