data_functionalizedCrystal
_audit_creation_method	'MofGen! by Chris Wilmer'
_symmetry_space_group_name_H-M	'P1'
_symmetry_Int_Tables_number	1
_symmetry_cell_setting	triclinic
loop_
_symmetry_equiv_pos_as_xyz
  x,y,z
_cell_length_a	10.967926
_cell_length_b	10.654551
_cell_length_c	9.482900
_cell_angle_alpha	99.428019
_cell_angle_beta	92.549900
_cell_angle_gamma	84.600089
loop_
_atom_site_label
_atom_site_type_symbol
_atom_site_fract_x
_atom_site_fract_y
_atom_site_fract_z
O1	O	1.612052	0.221773	0.282989
O2	O	1.262861	0.224528	0.195502
O3	O	1.445484	0.040734	0.241256
O4	O	1.429428	0.405566	0.237235
O5	O	1.408391	0.078224	0.473755
O6	O	1.225767	0.262017	0.428002
O7	O	1.574958	0.259263	0.515488
Cu8	Cu	1.396976	0.264063	0.492974
Cu9	Cu	1.440843	0.219727	0.218016
O10	O	1.392335	0.443056	0.469734
C11	C	1.199602	0.240239	0.300550
C12	C	1.066373	0.231186	0.267170
C13	C	0.987760	0.246571	0.372730
C14	C	0.850060	0.237215	0.338233
C15	C	1.425759	0.012633	0.357207
C16	C	1.422232	-0.126954	0.356314
C17	C	1.440797	-0.212968	0.229166
C18	C	1.437471	-0.344121	0.228340
C19	C	1.397019	-0.303233	0.481821
C20	C	1.400337	-0.172082	0.482644
C21	C	1.462692	-0.167839	0.102837
C22	C	1.481260	-0.253855	-0.024321
C23	C	1.477933	-0.385008	-0.025148
C24	C	1.456040	-0.430146	0.101183
C25	C	1.638218	0.243550	0.410438
C26	C	1.771448	0.252602	0.443808
C27	C	1.412061	0.471157	0.353780
C28	C	1.415589	0.610742	0.354664
N29	N	1.366130	0.295246	0.686366
N30	N	1.471698	0.188534	0.024627
C31	C	1.431737	0.228918	0.775002
C32	C	1.406082	0.254873	0.935992
H33	H	1.022400	0.266662	0.488642
O34	O	0.804183	0.210575	0.184687
H35	H	0.847818	0.117341	0.132396
H36	H	1.330911	0.330875	0.979283
H37	H	1.290965	0.371244	0.729664
H38	H	1.453316	-0.536940	0.100495
O39	O	0.817302	0.279233	0.597364
H40	H	0.918258	0.282415	0.600367
H41	H	1.499073	-0.217094	-0.127177
O42	O	1.020509	0.204568	0.113622
H43	H	0.919551	0.201407	0.110623
H44	H	1.546860	0.112523	0.981333
H45	H	1.385195	-0.102044	0.586172
H46	H	1.465406	-0.061051	0.103496
O47	O	1.497918	-0.477785	-0.162295
H48	H	1.513694	-0.424364	-0.249996
O49	O	1.373438	-0.351911	0.618080
H50	H	1.374269	-0.457562	0.596151
O51	O	1.531266	0.128202	0.717659
H52	H	1.535785	0.123607	0.600207
