data_functionalizedCrystal
_audit_creation_method	'MofGen! by Chris Wilmer'
_symmetry_space_group_name_H-M	'P1'
_symmetry_Int_Tables_number	1
_symmetry_cell_setting	triclinic
loop_
_symmetry_equiv_pos_as_xyz
  x,y,z
_cell_length_a	18.101398
_cell_length_b	18.050589
_cell_length_c	18.101389
_cell_angle_alpha	90.014016
_cell_angle_beta	90.024327
_cell_angle_gamma	90.023488
loop_
_atom_site_label
_atom_site_type_symbol
_atom_site_fract_x
_atom_site_fract_y
_atom_site_fract_z
Zn1	Zn	1.132136	-0.295831	0.418861
Zn2	Zn	1.132038	-0.420005	0.295029
Zn3	Zn	1.008295	-0.295823	0.295023
Zn4	Zn	1.008252	-0.419974	0.418818
O5	O	1.070180	-0.357908	0.356933
O6	O	1.235756	-0.312320	0.402456
O7	O	1.115600	-0.403542	0.191396
O8	O	1.024782	-0.191900	0.311465
O9	O	1.235684	-0.403550	0.311477
O10	O	1.115767	-0.191905	0.402449
O11	O	1.024687	-0.312306	0.191391
O12	O	0.904656	-0.312276	0.311423
O13	O	1.024708	-0.403496	0.522457
O14	O	0.904625	-0.403488	0.402375
O15	O	1.115725	-0.312289	0.522489
O16	O	1.115558	-0.523926	0.311435
O17	O	1.024613	-0.523902	0.402382
C18	C	0.877770	-0.357878	0.356894
C19	C	0.795455	-0.357883	0.356895
C20	C	0.496364	-0.357930	0.356957
C21	C	0.527685	-0.300254	0.300012
C22	C	0.613303	-0.300409	0.299769
C23	C	0.644747	-0.357906	0.356927
C24	C	0.613633	-0.436133	0.335608
C25	C	0.527988	-0.435813	0.335212
C26	C	0.527978	-0.338057	0.435355
C27	C	0.613629	-0.336315	0.434927
C28	C	0.728606	-0.357897	0.356910
C29	C	0.412505	-0.357943	0.356972
C30	C	1.070091	-0.550860	0.356921
C31	C	1.070120	-0.633406	0.356940
C32	C	1.020713	-0.832871	0.406380
C33	C	1.002661	-0.882299	0.338801
C34	C	1.070193	-0.784537	0.356950
C35	C	1.088281	-0.882191	0.424536
C36	C	1.070262	-0.930522	0.356965
C37	C	1.052106	-0.832877	0.289335
C38	C	1.137757	-0.832765	0.375116
C39	C	1.119731	-0.882170	0.307491
C40	C	1.070151	-0.700438	0.356942
C41	C	1.070304	-1.014618	0.356965
C42	C	1.263342	-0.357939	0.356972
C43	C	1.345656	-0.357952	0.356989
C44	C	1.070223	-0.357890	0.550095
C45	C	1.070241	-0.357882	0.632409
C46	C	1.070290	-0.164203	0.356961
C47	C	1.070337	-0.081657	0.356974
C48	C	1.070180	-0.357873	0.164522
C49	C	1.070305	-0.357672	0.082209
C50	C	1.070284	-0.357742	0.931500
C51	C	1.012822	-0.414945	0.900155
C52	C	1.012977	-0.415210	0.814536
C53	C	1.070262	-0.357811	0.783117
C54	C	1.148289	-0.379062	0.814225
C55	C	1.147969	-0.379437	0.899870
C56	C	1.050399	-0.279163	0.899918
C57	C	1.048663	-0.279616	0.814267
C58	C	1.070255	-0.357849	0.699258
C59	C	1.070297	-0.357706	1.015360
H60	H	0.978808	-0.811224	0.448122
H61	H	1.092252	-0.236544	0.920191
O62	O	1.108517	-0.910882	0.500237
H63	H	1.067326	-0.891137	0.541150
O64	O	0.499409	-0.263809	0.461029
H65	H	0.522496	-0.251071	0.516411
O66	O	1.213399	-0.804006	0.395548
H67	H	1.212887	-0.742521	0.394867
O68	O	1.171003	-0.454344	0.785831
H69	H	1.223070	-0.449127	0.753884
O70	O	0.640609	-0.494583	0.388826
H71	H	0.617841	-0.549308	0.372542
O72	O	0.641173	-0.223568	0.317462
H73	H	0.702491	-0.223601	0.317309
O74	O	1.031793	-0.804312	0.213607
H75	H	0.975919	-0.824643	0.198483
H76	H	1.026106	-0.473456	0.794059
H77	H	0.955117	-0.401912	0.793503
H78	H	0.954788	-0.401782	0.920740
H79	H	1.192253	-0.338707	0.793876
H80	H	1.025820	-0.472835	0.921685
H81	H	1.161604	-0.903680	0.265648
H82	H	1.164826	-0.436880	0.919858
O83	O	0.640387	-0.317801	0.222813
H84	H	0.674292	-0.369005	0.224156
H85	H	0.507977	-0.452667	0.277900
H86	H	0.507268	-0.480240	0.374880
H87	H	0.635048	-0.453280	0.278915
O88	O	0.976335	-0.253519	0.928490
H89	H	0.952870	-0.296501	0.965524
O90	O	1.206612	-0.326662	0.927349
H91	H	1.235078	-0.300989	0.879463
H92	H	0.991242	-0.263592	0.793934
O93	O	1.100057	-0.220159	0.785950
H94	H	1.141989	-0.245527	0.749071
O95	O	0.640570	-0.260062	0.456229
H96	H	0.701859	-0.259918	0.458152
O97	O	0.500383	-0.223192	0.317500
H98	H	0.518788	-0.207265	0.373807
O99	O	0.499166	-0.317464	0.223502
H100	H	0.462780	-0.366915	0.225857
H101	H	0.635036	-0.375263	0.479629
H102	H	0.507724	-0.380066	0.477785
H103	H	0.945556	-0.904073	0.323450
