data_functionalizedCrystal
_audit_creation_method	'MofGen! by Chris Wilmer'
_symmetry_space_group_name_H-M	'P1'
_symmetry_Int_Tables_number	1
_symmetry_cell_setting	triclinic
loop_
_symmetry_equiv_pos_as_xyz
  x,y,z
_cell_length_a	23.532407
_cell_length_b	23.532407
_cell_length_c	12.376457
_cell_angle_alpha	101.199798
_cell_angle_beta	78.781502
_cell_angle_gamma	82.848712
loop_
_atom_site_label
_atom_site_type_symbol
_atom_site_fract_x
_atom_site_fract_y
_atom_site_fract_z
O1	O	0.766236	0.058165	-0.093942
O2	O	0.600375	0.068165	-0.093962
O3	O	0.688304	-0.019764	-0.093931
O4	O	0.678306	0.146094	-0.093973
O5	O	0.666330	0.002188	0.094074
O6	O	0.578400	0.090118	0.094043
O7	O	0.744261	0.080117	0.094062
Zn8	Zn	0.657842	0.088603	0.123902
Zn9	Zn	0.686794	0.059680	-0.123802
O10	O	0.656332	0.168047	0.094031
C11	C	0.568172	0.078887	0.000038
C12	C	0.504956	0.078120	0.000032
C13	C	0.238783	0.022930	0.000077
C14	C	0.298183	0.023641	0.000076
O15	O	0.334922	-0.020139	0.000127
N16	N	0.320812	0.075915	0.000055
C17	C	0.284035	0.127482	0.000046
O18	O	0.308737	0.172011	0.000029
C19	C	0.224635	0.126771	0.000055
C20	C	0.202011	0.074493	0.000064
C21	C	0.216158	-0.029344	0.000088
C22	C	0.156762	-0.030056	0.000086
C23	C	0.119991	0.021507	0.000073
C24	C	0.142615	0.073781	0.000063
C25	C	0.187859	0.178339	0.000054
C26	C	0.128455	0.177623	0.000063
C27	C	0.105832	0.125345	0.000073
C28	C	0.046448	0.124633	0.000048
N29	N	0.023819	0.072359	0.000070
C30	C	0.060591	0.020796	0.000082
C31	C	0.408780	0.128972	0.000030
C32	C	0.468180	0.129683	0.000013
C33	C	0.482323	0.025842	0.000046
C34	C	0.422923	0.025130	0.000054
C35	C	0.386151	0.076698	0.000051
C36	C	-0.064145	0.019306	0.000078
C37	C	-0.123547	0.018599	0.000071
C38	C	-0.137686	0.122440	0.000045
C39	C	-0.078289	0.123147	0.000045
C40	C	-0.041520	0.071576	0.000065
O41	O	0.009674	0.168390	0.000003
O42	O	0.035879	-0.023723	0.000114
C43	C	0.677062	-0.030004	0.000074
C44	C	0.676295	-0.093220	0.000083
C45	C	0.723535	-0.492329	0.000027
C46	C	0.722825	-0.551730	0.000018
O47	O	0.766615	-0.588479	-0.000019
N48	N	0.670549	-0.574357	0.000013
C49	C	0.618982	-0.537581	0.000004
O50	O	0.574452	-0.562281	-0.000002
C51	C	0.619694	-0.478182	0.000005
C52	C	0.671972	-0.455557	0.000022
C53	C	0.775809	-0.469704	0.000042
C54	C	0.776519	-0.410307	0.000053
C55	C	0.724955	-0.373534	0.000048
C56	C	0.672682	-0.396160	0.000033
C57	C	0.568128	-0.441407	-0.000011
C58	C	0.568845	-0.382005	-0.000011
C59	C	0.621123	-0.359380	0.000005
C60	C	0.621828	-0.299990	0.000039
N61	N	0.674104	-0.277363	0.000044
C62	C	0.725667	-0.314135	0.000049
C63	C	0.617491	-0.662324	0.000001
C64	C	0.616777	-0.721721	0.000009
C65	C	0.720621	-0.735867	0.000020
C66	C	0.721333	-0.676467	0.000021
C67	C	0.669767	-0.639697	0.000007
C68	C	0.727154	-0.189396	0.000072
C69	C	0.727859	-0.129992	0.000088
C70	C	0.624017	-0.115852	0.000070
C71	C	0.623311	-0.175250	0.000061
C72	C	0.674885	-0.212021	0.000058
O73	O	0.578061	-0.263207	0.000071
O74	O	0.770191	-0.289428	0.000040
C75	C	0.776465	0.069396	0.000060
C76	C	0.839682	0.070161	0.000059
C77	C	0.667574	0.178286	0.000024
C78	C	0.668342	0.241501	0.000008
N79	N	0.638087	0.108342	0.292954
N80	N	0.706554	0.039936	-0.292853
C81	C	0.752412	-0.005896	0.647979
C82	C	0.766235	-0.019712	0.529644
C83	C	0.734199	0.012301	0.470466
C84	C	0.688338	0.058131	0.529634
C85	C	0.674516	0.071951	0.647980
C86	C	0.656303	0.090147	0.470467
C87	C	0.610442	0.135978	0.529635
C88	C	0.596622	0.149795	0.647970
C89	C	0.628658	0.117783	0.707148
C90	C	0.670125	0.076327	0.352120
C91	C	0.592229	0.154174	0.352122
C92	C	0.578406	0.167990	0.470457
H93	H	0.404507	-0.017439	0.000063
F94	F	0.547818	0.198577	0.710942
F95	F	0.561134	-0.745790	0.000011
H96	H	0.778494	-0.031953	0.696170
F97	F	0.613944	0.132484	0.833096
F98	F	-0.025021	-0.035582	0.000099
F99	F	0.132693	-0.085699	0.000088
H100	H	0.803575	-0.057026	0.481474
F101	F	0.529598	0.216765	0.533440
H102	H	-0.059868	0.165716	0.000036
F103	F	0.558134	0.188248	0.289145
H104	H	-0.141963	-0.023975	0.000076
F105	F	0.562602	-0.623192	-0.000003
F106	F	0.255285	-0.084229	0.000104
H107	H	0.745456	0.001050	0.374112
H108	H	0.512274	-0.016144	0.000056
H109	H	0.486596	0.172251	-0.000010
H110	H	0.526852	-0.352068	-0.000025
H111	H	0.206269	0.220909	0.000041
H112	H	0.378843	0.170966	0.000019
H113	H	-0.167635	0.164420	0.000029
H114	H	0.769151	-0.219329	0.000066
H115	H	0.098517	0.219618	0.000066
F116	F	0.783502	-0.105917	0.000105
H117	H	0.819089	-0.391892	0.000062
F118	F	0.569142	-0.076706	0.000066
H119	H	0.817801	-0.499640	0.000042
F120	F	0.512487	-0.465473	-0.000034
H121	H	0.707466	0.039012	0.303956
F122	F	0.567669	-0.199327	0.000063
H123	H	0.762607	-0.765818	0.000020
F124	F	0.776973	-0.652394	0.000038
