data_functionalizedCrystal
_audit_creation_method	'MofGen! by Chris Wilmer'
_symmetry_space_group_name_H-M	'P1'
_symmetry_Int_Tables_number	1
_symmetry_cell_setting	triclinic
loop_
_symmetry_equiv_pos_as_xyz
  x,y,z
_cell_length_a	16.109301
_cell_length_b	19.288864
_cell_length_c	18.366186
_cell_angle_alpha	90.022894
_cell_angle_beta	89.992337
_cell_angle_gamma	96.701137
loop_
_atom_site_label
_atom_site_type_symbol
_atom_site_fract_x
_atom_site_fract_y
_atom_site_fract_z
O1	O	0.103716	-0.921600	-0.060785
O2	O	0.117707	-0.719373	-0.060736
O3	O	-0.010339	-0.826042	-0.060755
O4	O	0.231761	-0.814931	-0.060767
O5	O	-0.010345	-0.826024	0.060345
O6	O	0.117701	-0.719355	0.060363
O7	O	0.103710	-0.921582	0.060314
Zn8	Zn	0.110704	-0.820466	0.079566
Zn9	Zn	0.110712	-0.820490	-0.079988
O10	O	0.231755	-0.814913	0.060333
C11	C	0.117254	-0.693487	-0.000180
C12	C	0.115902	-0.616380	-0.000161
C13	C	-0.041315	-0.825583	-0.000205
C14	C	-0.133606	-0.824234	-0.000203
C15	C	0.104163	-0.947469	-0.000244
C16	C	0.105514	-1.024576	-0.000268
C17	C	-0.356084	-0.884391	-0.000229
C18	C	-0.442800	-0.883118	-0.000235
C19	C	-0.422493	-0.756559	-0.000201
C20	C	-0.335778	-0.757833	-0.000201
C21	C	-0.302577	-0.821751	-0.000211
C22	C	-0.476007	-0.819204	-0.000217
C23	C	-0.570028	-0.817823	-0.000223
C24	C	-0.208549	-0.823133	-0.000206
C25	C	0.262732	-0.815372	-0.000219
C26	C	0.355022	-0.816722	-0.000225
N27	N	0.110698	-0.820455	0.188457
C28	C	0.191034	-0.571863	-0.000176
C29	C	0.189764	-0.499413	-0.000184
C30	C	0.113359	-0.471483	-0.000191
C31	C	0.038218	-0.516009	-0.000172
C32	C	0.039489	-0.588458	-0.000157
C33	C	0.053298	-0.363084	-0.042639
C34	C	0.052029	-0.290636	-0.042659
C35	C	0.109433	-0.248028	-0.000235
C36	C	0.168120	-0.277874	0.042199
C37	C	0.169391	-0.350323	0.042214
C38	C	0.111971	-0.392925	-0.000207
C39	C	0.183193	-0.124952	-0.000258
C40	C	0.181920	-0.052501	-0.000262
C41	C	0.030372	-0.069099	-0.000257
C42	C	0.031647	-0.141548	-0.000246
C43	C	0.108060	-0.169470	-0.000250
N44	N	0.110712	-0.820506	-0.188879
C45	C	0.054027	-0.867703	0.226549
C46	C	0.054023	-0.867707	0.302777
C47	C	0.110705	-0.820470	0.340910
C48	C	0.167380	-0.773213	0.302808
C49	C	0.167377	-0.773205	0.226582
C50	C	0.186459	-0.811353	0.461668
C51	C	0.186463	-0.811365	0.537893
C52	C	0.110715	-0.820490	0.576017
C53	C	0.034960	-0.829616	0.537908
C54	C	0.034956	-0.829609	0.461681
C55	C	0.110715	-0.820473	0.423564
C56	C	0.054036	-0.867746	0.696764
C57	C	0.054031	-0.867745	0.772993
C58	C	0.167395	-0.773254	0.773023
C59	C	0.167392	-0.773251	0.696796
C60	C	0.110714	-0.820500	0.658671
H61	H	-0.329054	-0.936438	-0.000239
C62	C	-0.051005	-0.190519	-0.000238
N63	N	-0.113262	-0.227404	-0.000230
C64	C	-0.048373	-0.839639	0.419763
N65	N	-0.111139	-0.847189	0.388191
H66	H	-0.031839	-0.046359	-0.000308
C67	C	0.275090	-0.602572	-0.000166
N68	N	0.338403	-0.625704	-0.000153
H69	H	-0.292210	-0.706821	-0.000188
C70	C	-0.501655	-0.952028	-0.000249
N71	N	-0.545985	-1.003933	-0.000257
H72	H	0.217173	-0.374621	0.076768
C73	C	-0.048370	-0.839652	0.579839
N74	N	-0.111132	-0.847212	0.611425
C75	C	-0.008319	-0.919714	0.654824
N76	N	-0.055286	-0.958856	0.623237
C77	C	0.269793	-0.801315	0.419738
N78	N	0.332558	-0.793754	0.388158
H79	H	-0.449537	-0.704519	-0.000191
H80	H	0.007878	-0.906218	0.804009
H81	H	0.250947	-0.463160	-0.000194
C82	C	0.229795	-0.721323	0.654893
N83	N	0.276819	-0.682224	0.623332
H84	H	0.004247	-0.266341	-0.077214
H85	H	0.214863	-0.243184	0.076745
C86	C	0.264575	-0.003531	-0.000268
N87	N	0.326833	0.033354	-0.000270
C88	C	0.267248	-0.155668	-0.000253
N89	N	0.330559	-0.178801	-0.000248
H90	H	0.006551	-0.397770	-0.077190
H91	H	0.213530	-0.734750	0.333860
C92	C	-0.045828	-0.485285	-0.000181
N93	N	-0.109135	-0.462144	-0.000186
C94	C	-0.008329	-0.919673	0.184616
N95	N	-0.055299	-0.958814	0.153031
H96	H	-0.021694	-0.624704	-0.000145
C97	C	0.229746	-0.721292	0.814965
N98	N	0.276710	-0.682153	0.846559
C99	C	-0.008313	-0.919693	0.344687
N100	N	-0.055262	-0.958852	0.376251
C101	C	0.269795	-0.801319	0.579806
N102	N	0.332563	-0.793748	0.611373
H103	H	0.213526	-0.734729	0.195567
