data_functionalizedCrystal
_audit_creation_method	'MofGen! by Chris Wilmer'
_symmetry_space_group_name_H-M	'P1'
_symmetry_Int_Tables_number	1
_symmetry_cell_setting	triclinic
loop_
_symmetry_equiv_pos_as_xyz
  x,y,z
_cell_length_a	14.519709
_cell_length_b	10.654550
_cell_length_c	9.730223
_cell_angle_alpha	90.000193
_cell_angle_beta	89.994593
_cell_angle_gamma	84.082524
loop_
_atom_site_label
_atom_site_type_symbol
_atom_site_fract_x
_atom_site_fract_y
_atom_site_fract_z
O1	O	-1.224716	-0.164618	-0.114107
O2	O	-0.956339	-0.184004	-0.114149
O3	O	-1.096698	0.008488	-0.114122
O4	O	-1.084357	-0.357109	-0.114134
O5	O	-1.096696	0.008483	0.114458
O6	O	-0.956338	-0.184009	0.114431
O7	O	-1.224714	-0.164622	0.114473
Zn8	Zn	-1.090526	-0.174316	0.150744
Zn9	Zn	-1.090528	-0.174310	-0.150420
O10	O	-1.084355	-0.357114	0.114446
C11	C	-1.095791	0.055275	0.000166
C12	C	-1.093080	0.194692	0.000161
C13	C	-0.921974	-0.183103	0.000136
C14	C	-0.819579	-0.180396	0.000120
C15	C	-1.259079	-0.165524	0.000185
C16	C	-1.361475	-0.168231	0.000192
C17	C	-0.444631	-0.170428	0.000183
C18	C	-0.548954	-0.173196	0.000165
C19	C	-0.632102	-0.175412	0.000150
C20	C	-0.736431	-0.178180	0.000135
C21	C	-1.085262	-0.403901	0.000155
C22	C	-1.087973	-0.543318	0.000151
N23	N	-1.090531	-0.174320	0.356280
C24	C	-1.175721	0.274972	0.000178
C25	C	-1.173168	0.405968	0.000168
C26	C	-1.005326	0.376391	0.000130
C27	C	-1.007880	0.245397	0.000130
C28	C	-1.272623	0.292049	0.000206
C29	C	-1.270070	0.423046	0.000196
N30	N	-1.090530	-0.174297	-0.355956
C31	C	-1.152698	-0.089113	0.428218
C32	C	-1.152695	-0.089098	0.572101
C33	C	-1.028356	-0.259507	0.572096
C34	C	-1.028355	-0.259516	0.428215
C35	C	-1.224487	0.009267	0.428223
C36	C	-1.224485	0.009283	0.572106
H37	H	-0.940586	0.180037	0.000097
N38	N	-0.913432	0.431073	0.000104
H39	H	-0.908632	0.484760	-0.084633
H40	H	-0.908683	0.484702	0.084892
H41	H	-1.291445	-0.020677	0.383606
H42	H	-1.306581	0.465155	0.095860
H43	H	-0.977733	-0.328870	0.630681
H44	H	-1.310526	0.263058	-0.095442
N45	N	-1.194821	0.129829	0.631227
H46	H	-1.246387	0.172466	0.689669
H47	H	-1.137702	0.109607	0.689593
H48	H	-1.295354	-0.011554	0.611167
H49	H	-1.208741	0.105648	0.389169
N50	N	-1.313437	0.245282	0.131007
H51	H	-1.378928	0.286078	0.142343
H52	H	-1.313755	0.150637	0.126222
N53	N	-1.308885	0.483901	-0.130504
H54	H	-1.329516	0.416956	-0.193651
H55	H	-1.363529	0.546919	-0.107621
N56	N	-0.961288	-0.351394	0.350622
H57	H	-0.921901	-0.405359	0.418028
H58	H	-0.996931	-0.407036	0.290926
