data_functionalizedCrystal
_audit_creation_method	'MofGen! by Chris Wilmer'
_symmetry_space_group_name_H-M	'P1'
_symmetry_Int_Tables_number	1
_symmetry_cell_setting	triclinic
loop_
_symmetry_equiv_pos_as_xyz
  x,y,z
_cell_length_a	18.100771
_cell_length_b	18.101398
_cell_length_c	16.625539
_cell_angle_alpha	89.984069
_cell_angle_beta	89.716699
_cell_angle_gamma	89.690946
loop_
_atom_site_label
_atom_site_type_symbol
_atom_site_fract_x
_atom_site_fract_y
_atom_site_fract_z
Zn1	Zn	0.294883	1.130693	-0.457555
Zn2	Zn	0.418739	1.129981	-0.323456
Zn3	Zn	0.294905	1.006848	-0.322747
Zn4	Zn	0.418691	1.006198	-0.458256
O5	O	0.356804	1.068430	-0.390503
O6	O	0.311324	1.234231	-0.439770
O7	O	0.402342	1.113621	-0.210529
O8	O	0.191263	1.023847	-0.340039
O9	O	0.402321	1.233708	-0.341247
O10	O	0.191247	1.114835	-0.439083
O11	O	0.311361	1.023156	-0.210008
O12	O	0.311314	0.903129	-0.340719
O13	O	0.402238	1.022739	-0.570995
O14	O	0.402259	0.902652	-0.440277
O15	O	0.311277	1.114205	-0.570480
O16	O	0.522372	1.112991	-0.341927
O17	O	0.522336	1.022048	-0.440964
C18	C	0.356784	0.876020	-0.390498
C19	C	0.356793	0.793706	-0.390514
C20	C	0.163631	1.069493	-0.389404
C21	C	0.081312	1.069946	-0.388935
C22	C	0.356807	0.642997	-0.390513
C23	C	0.414115	0.611367	-0.453057
C24	C	0.414347	0.525748	-0.452874
C25	C	0.356821	0.494614	-0.390513
C26	C	0.377650	0.525563	-0.305559
C27	C	0.378058	0.611206	-0.305921
C28	C	0.278527	0.611859	-0.412181
C29	C	0.278956	0.526206	-0.414057
C30	C	0.356827	0.410755	-0.390508
C31	C	0.356802	0.726857	-0.390513
C32	C	-0.217757	1.067997	-0.391052
C33	C	-0.186440	1.125252	-0.453355
C34	C	-0.100832	1.126035	-0.452567
C35	C	-0.069386	1.068964	-0.390002
C36	C	-0.101610	1.089934	-0.305263
C37	C	-0.187249	1.089790	-0.306231
C38	C	-0.185039	0.989838	-0.412519
C39	C	-0.099380	0.990809	-0.413790
C40	C	0.014468	1.069509	-0.389404
C41	C	-0.301610	1.067454	-0.391645
C42	C	0.549227	1.067392	-0.391616
C43	C	0.631546	1.067015	-0.392119
C44	C	0.356749	1.068479	-0.600812
C45	C	0.356726	1.068499	-0.690433
C46	C	0.356825	1.261592	-0.390510
C47	C	0.356834	1.343906	-0.390512
C48	C	0.356643	1.068534	-1.018608
C49	C	0.356668	1.068522	-0.927300
C50	C	0.356685	1.068517	-0.854524
C51	C	0.356709	1.068504	-0.763209
C52	C	0.356806	1.068425	-0.181013
C53	C	0.356621	1.068549	-0.091391
H54	H	0.401354	0.504818	-0.515870
H55	H	-0.077903	0.946167	-0.371418
H56	H	-0.081182	1.184229	-0.438064
F57	F	0.222724	0.638630	-0.352637
H58	H	0.434237	0.503807	-0.286870
F59	F	-0.215658	1.200528	-0.435027
H60	H	-0.208094	1.146943	-0.287989
H61	H	-0.206212	1.112019	-0.516699
F62	F	-0.071722	0.970111	-0.495323
H63	H	0.471791	0.632573	-0.438893
F64	F	-0.214393	1.037671	-0.243450
F65	F	0.324766	0.499227	-0.243000
H66	H	0.435269	0.630869	-0.287554
F67	F	-0.075042	1.037475	-0.242534
F68	F	-0.074710	1.164170	-0.280611
H69	H	0.472356	0.504942	-0.438534
F70	F	-0.212138	0.964463	-0.492301
H71	H	0.401273	0.632052	-0.516250
F72	F	0.325852	0.638570	-0.242936
H73	H	-0.205282	0.947198	-0.367124
H74	H	0.263244	0.505992	-0.476577
F75	F	0.253654	0.640247	-0.491757
H76	H	0.234004	0.505044	-0.371824
F77	F	-0.072293	1.108937	-0.534727
