data_functionalizedCrystal
_audit_creation_method	'MofGen! by Chris Wilmer'
_symmetry_space_group_name_H-M	'P1'
_symmetry_Int_Tables_number	1
_symmetry_cell_setting	triclinic
loop_
_symmetry_equiv_pos_as_xyz
  x,y,z
_cell_length_a	21.395362
_cell_length_b	21.295417
_cell_length_c	21.395355
_cell_angle_alpha	90.021451
_cell_angle_beta	90.043940
_cell_angle_gamma	90.046383
loop_
_atom_site_label
_atom_site_type_symbol
_atom_site_fract_x
_atom_site_fract_y
_atom_site_fract_z
Zn1	Zn	0.957860	-0.250415	0.354573
Zn2	Zn	1.291194	0.082918	0.687906
Zn3	Zn	1.624527	0.416251	1.021239
Zn4	Zn	0.957763	-0.355667	0.249790
Zn5	Zn	1.291097	-0.022334	0.583123
Zn6	Zn	1.624430	0.311000	0.916457
Zn7	Zn	0.853075	-0.250445	0.249774
Zn8	Zn	1.186409	0.082889	0.583107
Zn9	Zn	1.519742	0.416222	0.916441
Zn10	Zn	0.853045	-0.355680	0.354495
Zn11	Zn	1.186378	-0.022346	0.687828
Zn12	Zn	1.519712	0.310987	1.021161
O13	O	0.905436	-0.303052	0.302158
O14	O	1.238769	0.030282	0.635491
O15	O	1.572103	0.363615	0.968825
O16	O	1.045525	-0.264359	0.340713
O17	O	1.378859	0.068974	0.674046
O18	O	1.712192	0.402307	1.007379
O19	O	0.943848	-0.341716	0.162110
O20	O	1.277182	-0.008382	0.495443
O21	O	1.610515	0.324951	0.828777
O22	O	0.867029	-0.162351	0.263702
O23	O	1.200362	0.170982	0.597035
O24	O	1.533695	0.504315	0.930369
O25	O	1.045454	-0.341687	0.263729
O26	O	1.378787	-0.008354	0.597062
O27	O	1.712121	0.324979	0.930396
O28	O	0.944014	-0.162330	0.340697
O29	O	1.277347	0.171004	0.674030
O30	O	1.610680	0.504337	1.007364
O31	O	0.866934	-0.264409	0.162098
O32	O	1.200268	0.068924	0.495432
O33	O	1.533601	0.402257	0.828765
O34	O	0.765393	-0.264422	0.263626
O35	O	1.098727	0.068911	0.596959
O36	O	1.432060	0.402245	0.930293
O37	O	0.866977	-0.341709	0.442183
O38	O	1.200310	-0.008376	0.775516
O39	O	1.533643	0.324957	1.108850
O40	O	0.765371	-0.341738	0.340564
O41	O	1.098704	-0.008404	0.673897
O42	O	1.432038	0.324929	1.007231
O43	O	0.943984	-0.264372	0.442240
O44	O	1.277318	0.068961	0.775574
O45	O	1.610651	0.402295	1.108907
O46	O	0.943819	-0.443758	0.263653
O47	O	1.277152	-0.110425	0.596987
O48	O	1.610485	0.222909	0.930320
O49	O	0.866883	-0.443767	0.340579
O50	O	1.200216	-0.110434	0.673913
O51	O	1.533549	0.222899	1.007246
C52	C	0.742648	-0.303085	0.302085
C53	C	1.075982	0.030248	0.635419
C54	C	1.409315	0.363582	0.968752
C55	C	0.673007	-0.303114	0.302069
C56	C	1.006340	0.030219	0.635402
C57	C	1.339674	0.363552	0.968736
C58	C	0.905354	-0.466603	0.302123
C59	C	1.238687	-0.133270	0.635457
C60	C	1.572020	0.200063	0.968790
C61	C	0.905376	-0.536571	0.302129
C62	C	1.238709	-0.203238	0.635463
C63	C	1.572043	0.130095	0.968796
C64	C	0.640299	-0.343426	0.342070
C65	C	0.973632	-0.010093	0.675404
C66	C	1.306965	0.323241	1.008737
C67	C	0.574863	-0.343411	0.342098
C68	C	0.908197	-0.010077	0.675432
C69	C	1.241530	0.323256	1.008765
C70	C	0.542139	-0.303090	0.302114
C71	C	0.875472	0.030243	0.635447
C72	C	1.208805	0.363577	0.968780
C73	C	0.574855	-0.262771	0.262109
C74	C	0.908188	0.070563	0.595443
C75	C	1.241522	0.403896	0.928776
C76	C	0.640289	-0.262783	0.262087
C77	C	0.973622	0.070551	0.595420
C78	C	1.306956	0.403884	0.928754
C79	C	0.438414	-0.298019	0.245709
C80	C	0.771747	0.035314	0.579042
C81	C	1.105081	0.368648	0.912375
C82	C	0.372981	-0.298011	0.245730
C83	C	0.706314	0.035322	0.579063
C84	C	1.039648	0.368655	0.912397
C85	C	0.340318	-0.303049	0.302183
C86	C	0.673651	0.030284	0.635516
C87	C	1.006985	0.363618	0.968849
C88	C	0.373096	-0.308108	0.358616
C89	C	0.706429	0.025226	0.691949
C90	C	1.039763	0.358559	1.025283
C91	C	0.438530	-0.308120	0.358594
C92	C	0.771863	0.025213	0.691927
C93	C	1.105197	0.358547	1.025261
C94	C	0.471186	-0.303072	0.302134
C95	C	0.804520	0.030261	0.635467
C96	C	1.137853	0.363594	0.968800
C97	C	0.236657	-0.343346	0.342218
C98	C	0.569990	-0.010013	0.675551
C99	C	0.903324	0.323321	1.008885
C100	C	0.171221	-0.343326	0.342247
C101	C	0.504554	-0.009993	0.675580
C102	C	0.837887	0.323340	1.008914
C103	C	0.171214	-0.262690	0.262252
C104	C	0.504547	0.070644	0.595586
C105	C	0.837880	0.403977	0.928919
C106	C	0.236649	-0.262706	0.262229
C107	C	0.569982	0.070627	0.595562
C108	C	0.903316	0.403961	0.928896
C109	C	0.269367	-0.303038	0.302211
C110	C	0.602700	0.030296	0.635544
C111	C	0.936033	0.363629	0.968878
C112	C	0.945472	-0.569412	0.262115
C113	C	1.278806	-0.236079	0.595448
C114	C	1.612139	0.097254	0.928782
C115	C	0.945502	-0.635155	0.262129
C116	C	1.278835	-0.301821	0.595462
C117	C	1.612168	0.031512	0.928796
C118	C	0.905424	-0.668054	0.302151
C119	C	1.238757	-0.334721	0.635484
C120	C	1.572090	-0.001387	0.968818
C121	C	0.865324	-0.635205	0.342173
C122	C	1.198658	-0.301872	0.675506
C123	C	1.531991	0.031462	1.008840
C124	C	0.865301	-0.569464	0.342162
C125	C	1.198634	-0.236131	0.675496
C126	C	1.531967	0.097203	1.008829
N127	N	0.850614	-0.771336	0.306903
N128	N	1.183947	-0.438002	0.640236
N129	N	1.517280	-0.104669	0.973570
N130	N	0.850638	-0.833787	0.306910
N131	N	1.183971	-0.500454	0.640243
N132	N	1.517305	-0.167121	0.973576
C133	C	0.905494	-0.866129	0.302187
C134	C	1.238827	-0.532795	0.635520
C135	C	1.572160	-0.199462	0.968854
N136	N	0.960325	-0.833659	0.297445
N137	N	1.293659	-0.500326	0.630778
N138	N	1.626992	-0.166993	0.964112
N139	N	0.960300	-0.771202	0.297435
N140	N	1.293634	-0.437869	0.630769
N141	N	1.626967	-0.104535	0.964102
C142	C	0.905445	-0.739339	0.302167
C143	C	1.238778	-0.406006	0.635501
C144	C	1.572112	-0.072673	0.968834
C145	C	0.945625	-0.970255	0.262186
C146	C	1.278959	-0.636922	0.595519
C147	C	1.612292	-0.303588	0.928852
C148	C	0.945656	-1.035999	0.262204
C149	C	1.278989	-0.702665	0.595537
C150	C	1.612322	-0.369332	0.928871
C151	C	0.865473	-1.036048	0.342245
C152	C	1.198806	-0.702714	0.675578
C153	C	1.532140	-0.369381	1.008912
C154	C	0.865448	-0.970305	0.342230
C155	C	1.198781	-0.636972	0.675563
C156	C	1.532115	-0.303639	1.008896
C157	C	0.905523	-0.937413	0.302197
C158	C	1.238857	-0.604079	0.635530
C159	C	1.572190	-0.270746	0.968863
C160	C	1.068859	-0.303019	0.302231
C161	C	1.402193	0.030315	0.635565
C162	C	1.735526	0.363648	0.968898
C163	C	1.138501	-0.303005	0.302262
C164	C	1.471834	0.030329	0.635596
C165	C	1.805167	0.363662	0.968929
C166	C	0.905488	-0.303039	0.465581
C167	C	1.238821	0.030294	0.798915
C168	C	1.572155	0.363628	1.132248
C169	C	0.905510	-0.303033	0.535223
C170	C	1.238843	0.030300	0.868556
C171	C	1.572177	0.363633	1.201889
C172	C	0.905535	-0.138861	0.302206
C173	C	1.238869	0.194472	0.635540
C174	C	1.572202	0.527805	0.968873
C175	C	0.905578	-0.068893	0.302227
C176	C	1.238911	0.264440	0.635561
C177	C	1.572245	0.597773	0.968894
C178	C	0.905420	-0.303019	0.139370
C179	C	1.238754	0.030314	0.472704
C180	C	1.572087	0.363648	0.806037
C181	C	0.905519	-0.302847	0.069729
C182	C	1.238853	0.030486	0.403063
C183	C	1.572186	0.363820	0.736396
C184	C	0.945606	-0.262762	0.567967
C185	C	1.278940	0.070571	0.901300
C186	C	1.612273	0.403904	1.234633
C187	C	0.945605	-0.262735	0.633402
C188	C	1.278939	0.070598	0.966735
C189	C	1.612272	0.403932	1.300069
C190	C	0.905515	-0.302991	0.666091
C191	C	1.238848	0.030343	0.999424
C192	C	1.572182	0.363676	1.332758
C193	C	0.865411	-0.343265	0.633339
C194	C	1.198744	-0.009931	0.966672
C195	C	1.532078	0.323402	1.300006
C196	C	0.865409	-0.343286	0.567905
C197	C	1.198742	-0.009953	0.901238
C198	C	1.532075	0.323381	1.234571
C199	C	0.900539	-0.359672	0.769752
C200	C	1.233873	-0.026339	1.103085
C201	C	1.567206	0.306995	1.436419
C202	C	0.900546	-0.359652	0.835185
C203	C	1.233879	-0.026318	1.168518
C204	C	1.567213	0.307015	1.501852
C205	C	0.905519	-0.302924	0.867912
C206	C	1.238852	0.030409	1.201245
C207	C	1.572186	0.363743	1.534578
C208	C	0.910498	-0.246215	0.835198
C209	C	1.243831	0.087118	1.168531
C210	C	1.577165	0.420452	1.501864
C211	C	0.910496	-0.246237	0.769763
C212	C	1.243829	0.087097	1.103097
C213	C	1.577162	0.420430	1.436430
C214	C	0.905513	-0.302972	0.737043
C215	C	1.238846	0.030362	1.070377
C216	C	1.572180	0.363695	1.403710
C217	C	0.945616	-0.262620	0.971608
C218	C	1.278950	0.070713	1.304942
C219	C	1.612283	0.404047	1.638275
C220	C	0.945611	-0.262592	1.037045
C221	C	1.278944	0.070741	1.370378
C222	C	1.612278	0.404075	1.703712
C223	C	0.865420	-0.343127	1.036981
C224	C	1.198753	-0.009794	1.370314
C225	C	1.532087	0.323540	1.703647
C226	C	0.865422	-0.343150	0.971545
C227	C	1.198755	-0.009816	1.304879
C228	C	1.532089	0.323517	1.638212
C229	C	0.905523	-0.302897	0.938863
C230	C	1.238857	0.030436	1.272196
C231	C	1.572190	0.363770	1.605530
H232	H	0.548227	-0.376237	0.374675
H233	H	0.881560	-0.042904	0.708008
H234	H	1.214894	0.290430	1.041341
H235	H	0.465215	-0.312237	0.404544
H236	H	0.798549	0.021096	0.737877
H237	H	1.131882	0.354430	1.071210
N238	N	0.675591	-0.386913	0.385200
N239	N	1.008925	-0.053580	0.718533
N240	N	1.342258	0.279754	1.051866
H241	H	0.702685	-0.416052	0.359676
H242	H	1.036018	-0.082718	0.693010
H243	H	1.369352	0.250615	1.026343
H244	H	0.644901	-0.412406	0.410540
H245	H	0.978235	-0.079073	0.743874
H246	H	1.311568	0.254260	1.077207
H247	H	0.832694	-0.661996	0.374760
H248	H	1.166027	-0.328663	0.708094
H249	H	1.499360	0.004671	1.041427
N250	N	0.675577	-0.219309	0.218938
N251	N	1.008910	0.114024	0.552271
N252	N	1.342243	0.447358	0.885604
H253	H	0.702784	-0.190183	0.244446
H254	H	1.036118	0.143150	0.577780
H255	H	1.369451	0.476483	0.911113
H256	H	0.644884	-0.193801	0.193618
H257	H	0.978217	0.139532	0.526951
H258	H	1.311550	0.472865	0.860285
N259	N	0.822173	-0.386541	1.072228
N260	N	1.155507	-0.053208	1.405562
N261	N	1.488840	0.280125	1.738895
H262	H	0.828257	-0.380416	1.118650
H263	H	1.161590	-0.047083	1.451983
H264	H	1.494923	0.286250	1.785317
H265	H	0.831896	-0.431502	1.060798
H266	H	1.165229	-0.098168	1.394131
H267	H	1.498562	0.235165	1.727464
H268	H	0.346503	-0.312209	0.404586
H269	H	0.679837	0.021124	0.737919
H270	H	1.013170	0.354458	1.071252
N271	N	0.988840	-0.219331	0.532719
N272	N	1.322174	0.114003	0.866052
N273	N	1.655507	0.447336	1.199385
H274	H	0.982753	-0.225450	0.486297
H275	H	1.316086	0.107883	0.819630
H276	H	1.649420	0.441216	1.152964
H277	H	1.033586	-0.229107	0.544183
H278	H	1.366919	0.104226	0.877516
H279	H	1.700252	0.437559	1.210850
N280	N	0.271952	-0.386842	0.385340
N281	N	0.605285	-0.053508	0.718674
N282	N	0.938618	0.279825	1.052007
H283	H	0.241299	-0.412374	0.410690
H284	H	0.574632	-0.079041	0.744023
H285	H	0.907966	0.254293	1.077357
H286	H	0.299161	-0.361267	0.414372
H287	H	0.632494	-0.027933	0.747705
H288	H	0.965828	0.305400	1.081038
H289	H	0.914548	-0.200062	0.743130
H290	H	1.247881	0.133271	1.076464
H291	H	1.581215	0.466604	1.409797
N292	N	0.988853	-0.219298	0.668730
N293	N	1.322186	0.114035	1.002063
N294	N	1.655519	0.447369	1.335396
H295	H	1.014255	-0.193801	0.638096
H296	H	1.347589	0.139532	0.971430
H297	H	1.680922	0.472865	1.304763
H298	H	1.017830	-0.244913	0.695897
H299	H	1.351163	0.088421	1.029231
H300	H	1.684497	0.421754	1.362564
N301	N	0.135939	-0.386810	0.385391
N302	N	0.469272	-0.053476	0.718725
N303	N	0.802605	0.279857	1.052058
H304	H	0.166597	-0.412362	0.410711
H305	H	0.499930	-0.079029	0.744045
H306	H	0.833264	0.254304	1.077378
H307	H	0.108733	-0.415892	0.359835
H308	H	0.442067	-0.082559	0.693168
H309	H	0.775400	0.250774	1.026502
N310	N	0.822167	-0.386732	0.532586
N311	N	1.155500	-0.053398	0.865919
N312	N	1.488834	0.279935	1.199252
H313	H	0.828251	-0.380639	0.486174
H314	H	1.161585	-0.047305	0.819507
H315	H	1.494918	0.286028	1.152841
H316	H	0.777425	-0.376940	0.543987
H317	H	1.110758	-0.043606	0.877321
H318	H	1.444091	0.289727	1.210654
N319	N	0.135928	-0.219195	0.219129
N320	N	0.469261	0.114138	0.552463
N321	N	0.802594	0.447472	0.885796
H322	H	0.089511	-0.225302	0.225214
H323	H	0.422845	0.108031	0.558547
H324	H	0.756178	0.441365	0.891880
H325	H	0.147304	-0.228927	0.174359
H326	H	0.480638	0.104406	0.507692
H327	H	0.813971	0.437739	0.841026
N328	N	0.895175	-0.420813	0.870465
N329	N	1.228508	-0.087480	1.203798
N330	N	1.561841	0.245853	1.537131
H331	H	0.895935	-0.412194	0.916882
H332	H	1.229269	-0.078860	1.250216
H333	H	1.562602	0.254473	1.583549
H334	H	0.931388	-0.448955	0.859049
H335	H	1.264721	-0.115622	1.192383
H336	H	1.598054	0.217712	1.525716
H337	H	0.978311	-1.062736	0.229621
H338	H	1.311644	-0.729403	0.562954
H339	H	1.644977	-0.396070	0.896288
H340	H	0.978105	-0.542633	0.229519
H341	H	1.311439	-0.209300	0.562853
H342	H	1.644772	0.124034	0.896186
H343	H	0.346298	-0.293896	0.199778
H344	H	0.679632	0.039437	0.533112
H345	H	1.012965	0.372771	0.866445
N346	N	0.271932	-0.219223	0.219088
N347	N	0.605266	0.114111	0.552421
N348	N	0.938599	0.447444	0.885755
H349	H	0.241274	-0.193675	0.193763
H350	H	0.574608	0.139659	0.527097
H351	H	0.907941	0.472992	0.860430
H352	H	0.299027	-0.244802	0.190034
H353	H	0.632361	0.088531	0.523367
H354	H	0.965694	0.421864	0.856701
N355	N	0.473641	-0.292582	0.184817
N356	N	0.806974	0.040751	0.518150
N357	N	1.140307	0.374085	0.851483
H358	H	0.442949	-0.289381	0.149071
H359	H	0.776282	0.043952	0.482405
H360	H	1.109615	0.377285	0.815738
H361	H	0.500745	-0.330933	0.178920
H362	H	0.834078	0.002400	0.512253
H363	H	1.167412	0.335733	0.845587
N364	N	0.915868	-0.185025	0.870485
N365	N	1.249201	0.148309	1.203818
N366	N	1.582535	0.481642	1.537152
H367	H	0.915112	-0.193613	0.916901
H368	H	1.248445	0.139720	1.250234
H369	H	1.581779	0.473054	1.583568
H370	H	0.879654	-0.156891	0.859020
H371	H	1.212987	0.176442	1.192353
H372	H	1.546321	0.509776	1.525687
N373	N	0.988750	-0.670587	0.218970
N374	N	1.322084	-0.337253	0.552303
N375	N	1.655417	-0.003920	0.885637
H376	H	1.014135	-0.639774	0.193609
H377	H	1.347468	-0.306440	0.526943
H378	H	1.680801	0.026893	0.860276
H379	H	0.963265	-0.697908	0.189951
H380	H	1.296599	-0.364575	0.523284
H381	H	1.629932	-0.031241	0.856617
H382	H	0.896322	-0.405855	0.743111
H383	H	1.229656	-0.072521	1.076445
H384	H	1.562989	0.260812	1.409778
H385	H	0.548206	-0.229940	0.229555
H386	H	0.881540	0.103393	0.562888
H387	H	1.214873	0.436726	0.896221
H388	H	0.832795	-0.943565	0.374811
H389	H	1.166129	-0.610231	0.708144
H390	H	1.499462	-0.276898	1.041477
H391	H	0.832649	-0.542724	0.374747
H392	H	1.165982	-0.209391	0.708081
H393	H	1.499316	0.123942	1.041414
N394	N	0.988847	-0.934772	0.219012
N395	N	1.322181	-0.601439	0.552345
N396	N	1.655514	-0.268105	0.885678
H397	H	1.014257	-0.965555	0.193667
H398	H	1.347591	-0.632222	0.527000
H399	H	1.680924	-0.298888	0.860334
H400	H	1.017819	-0.907444	0.244546
H401	H	1.351152	-0.574111	0.577880
H402	H	1.684485	-0.240778	0.911213
N403	N	0.822160	-0.386674	0.668592
N404	N	1.155493	-0.053340	1.001925
N405	N	1.488827	0.279993	1.335258
H406	H	0.828244	-0.380548	0.715013
H407	H	1.161578	-0.047215	1.048346
H408	H	1.494911	0.286118	1.381680
H409	H	0.831875	-0.431636	0.657162
H410	H	1.165208	-0.098303	0.990495
H411	H	1.498541	0.235031	1.323829
N412	N	0.988855	-0.219142	1.072357
N413	N	1.322188	0.114191	1.405690
N414	N	1.655521	0.447524	1.739024
H415	H	1.033616	-0.228914	1.061005
H416	H	1.366949	0.104419	1.394338
H417	H	1.700282	0.437752	1.727671
H418	H	0.982719	-0.225247	1.118759
H419	H	1.316052	0.108087	1.452092
H420	H	1.649386	0.441420	1.785425
H421	H	0.978266	-0.229840	0.944997
H422	H	1.311599	0.103493	1.278330
H423	H	1.644932	0.436826	1.611664
N424	N	0.822165	-0.386584	0.936235
N425	N	1.155498	-0.053251	1.269568
N426	N	1.488831	0.280083	1.602902
H427	H	0.831862	-0.431557	0.947626
H428	H	1.165195	-0.098224	1.280960
H429	H	1.498528	0.235109	1.614293
H430	H	0.828256	-0.380439	0.889833
H431	H	1.161589	-0.047106	1.223166
H432	H	1.494923	0.286227	1.556499
N433	N	0.822250	-1.071522	0.385418
N434	N	1.155583	-0.738189	0.718751
N435	N	1.488916	-0.404855	1.052084
H436	H	0.828349	-1.118153	0.379355
H437	H	1.161683	-0.784820	0.712688
H438	H	1.495016	-0.451486	1.046022
H439	H	0.777502	-1.060091	0.375609
H440	H	1.110835	-0.726757	0.708942
H441	H	1.444168	-0.393424	1.042275
