data_functionalizedCrystal
_audit_creation_method	'MofGen! by Chris Wilmer'
_symmetry_space_group_name_H-M	'P1'
_symmetry_Int_Tables_number	1
_symmetry_cell_setting	triclinic
loop_
_symmetry_equiv_pos_as_xyz
  x,y,z
_cell_length_a	21.395362
_cell_length_b	19.121063
_cell_length_c	21.395355
_cell_angle_alpha	92.420740
_cell_angle_beta	89.956060
_cell_angle_gamma	92.485681
loop_
_atom_site_label
_atom_site_type_symbol
_atom_site_fract_x
_atom_site_fract_y
_atom_site_fract_z
Zn1	Zn	0.947241	-0.279403	-0.365205
Zn2	Zn	1.447241	0.220597	0.134795
Zn3	Zn	0.942680	-0.396839	-0.264891
Zn4	Zn	1.442680	0.103161	0.235109
Zn5	Zn	0.842454	-0.279436	-0.260407
Zn6	Zn	1.342454	0.220564	0.239593
Zn7	Zn	0.837961	-0.396853	-0.369596
Zn8	Zn	1.337961	0.103147	0.130404
O9	O	0.892584	-0.338133	-0.315025
O10	O	1.392584	0.161867	0.184975
O11	O	1.034314	-0.294962	-0.351936
O12	O	1.534314	0.205038	0.148064
O13	O	0.929357	-0.381273	-0.176618
O14	O	1.429357	0.118727	0.323382
O15	O	0.860144	-0.181145	-0.270595
O16	O	1.360144	0.318855	0.229405
O17	O	1.030964	-0.381241	-0.278236
O18	O	1.530964	0.118759	0.221764
O19	O	0.937130	-0.181121	-0.347589
O20	O	1.437130	0.318879	0.152411
O21	O	0.855721	-0.295017	-0.173324
O22	O	1.355721	0.204983	0.326676
O23	O	0.754180	-0.295031	-0.274853
O24	O	1.254180	0.204969	0.225147
O25	O	0.852486	-0.381266	-0.456691
O26	O	1.352486	0.118734	0.043309
O27	O	0.750879	-0.381297	-0.355073
O28	O	1.250879	0.118703	0.144927
O29	O	0.932773	-0.294976	-0.453465
O30	O	1.432773	0.205024	0.046535
O31	O	0.925000	-0.495127	-0.282494
O32	O	1.425000	0.004873	0.217506
O33	O	0.848063	-0.495138	-0.359420
O34	O	1.348063	0.004862	0.140580
C35	C	0.729795	-0.338170	-0.314953
C36	C	1.229795	0.161830	0.185047
C37	C	0.660152	-0.338203	-0.314938
C38	C	1.160152	0.161797	0.185062
C39	C	0.885566	-0.520617	-0.321934
C40	C	1.385566	-0.020617	0.178066
C41	C	0.882621	-0.598685	-0.324911
C42	C	1.382621	-0.098685	0.175089
C43	C	0.625735	-0.383181	-0.356651
C44	C	1.125735	0.116819	0.143349
C45	C	0.560300	-0.383164	-0.356679
C46	C	1.060300	0.116836	0.143321
C47	C	0.529285	-0.338176	-0.314982
C48	C	1.029285	0.161824	0.185018
C49	C	0.563711	-0.293189	-0.273266
C50	C	1.063711	0.206811	0.226734
C51	C	0.629145	-0.293202	-0.273244
C52	C	1.129145	0.206798	0.226756
C53	C	0.425776	-0.332517	-0.258362
C54	C	0.925776	0.167483	0.241638
C55	C	0.360343	-0.332509	-0.258383
C56	C	0.860343	0.167491	0.241617
C57	C	0.327466	-0.338130	-0.315049
C58	C	0.827466	0.161870	0.184951
C59	C	0.360030	-0.343774	-0.371698
C60	C	0.860030	0.156226	0.128302
C61	C	0.425463	-0.343788	-0.371676
C62	C	0.925463	0.156212	0.128324
C63	C	0.458334	-0.338156	-0.315001
C64	C	0.958334	0.161844	0.184999
C65	C	0.222096	-0.383092	-0.356795
C66	C	0.722096	0.116908	0.143205
C67	C	0.156661	-0.383070	-0.356824
C68	C	0.656661	0.116930	0.143176
C69	C	0.160073	-0.293098	-0.273405
C70	C	0.660073	0.206902	0.226595
C71	C	0.225508	-0.293117	-0.273383
C72	C	0.725508	0.206883	0.226617
C73	C	0.256516	-0.338117	-0.315077
C74	C	0.756516	0.161883	0.184923
C75	C	0.921325	-0.635332	-0.286291
C76	C	1.421325	-0.135332	0.213709
C77	C	0.918559	-0.708685	-0.289094
C78	C	1.418559	-0.208685	0.210906
C79	C	0.877085	-0.745389	-0.330515
C80	C	1.377085	-0.245389	0.169485
C81	C	0.838379	-0.708736	-0.369139
C82	C	1.338379	-0.208736	0.130861
C83	C	0.841149	-0.635385	-0.366338
C84	C	1.341149	-0.135385	0.133662
C85	C	0.866720	-0.966864	-0.340976
C86	C	1.366720	-0.466864	0.159024
C87	C	0.863952	-1.040221	-0.343772
C88	C	1.363952	-0.540221	0.156228
C89	C	0.944133	-1.040164	-0.263728
C90	C	1.444133	-0.540164	0.236272
C91	C	0.946896	-0.966812	-0.260928
C92	C	1.446896	-0.466812	0.239072
C93	C	0.908193	-0.930165	-0.299555
C94	C	1.408193	-0.430165	0.200445
C95	C	0.874256	-0.820367	-0.333380
C96	C	1.374256	-0.320367	0.166620
C97	C	0.911026	-0.855188	-0.296692
C98	C	1.411026	-0.355188	0.203308
C99	C	1.056009	-0.338096	-0.315097
C100	C	1.556009	0.161904	0.184903
C101	C	1.125651	-0.338080	-0.315127
C102	C	1.625651	0.161920	0.184873
C103	C	0.892637	-0.338119	-0.478447
C104	C	1.392637	0.161881	0.021553
C105	C	0.892659	-0.338112	-0.548089
C106	C	1.392659	0.161888	-0.048089
C107	C	0.899647	-0.154936	-0.308102
C108	C	1.399647	0.345064	0.191898
C109	C	0.902656	-0.076868	-0.305152
C110	C	1.402656	0.423132	0.194848
C111	C	0.934463	-0.293179	-0.579123
C112	C	1.434463	0.206821	-0.079123
C113	C	0.934463	-0.293149	-0.644557
C114	C	1.434463	0.206851	-0.144557
C115	C	0.892666	-0.338065	-0.678955
C116	C	1.392666	0.161935	-0.178955
C117	C	0.850854	-0.383001	-0.647913
C118	C	1.350854	0.116999	-0.147913
C119	C	0.850851	-0.383025	-0.582480
C120	C	1.350851	0.116975	-0.082480
C121	C	0.885286	-0.401308	-0.785023
C122	C	1.385286	0.098692	-0.285023
C123	C	0.885294	-0.401285	-0.850455
C124	C	1.385294	0.098715	-0.350455
C125	C	0.892672	-0.337990	-0.880773
C126	C	1.392672	0.162010	-0.380773
C127	C	0.900056	-0.274717	-0.845651
C128	C	1.400056	0.225283	-0.345651
C129	C	0.900053	-0.274741	-0.780218
C130	C	1.400053	0.225259	-0.280218
C131	C	0.892664	-0.338043	-0.749907
C132	C	1.392664	0.161957	-0.249907
C133	C	0.934479	-0.293021	-0.982759
C134	C	1.434479	0.206979	-0.482759
C135	C	0.934475	-0.292989	-1.048194
C136	C	1.434475	0.207011	-0.548194
C137	C	0.850869	-0.382847	-1.051549
C138	C	1.350869	0.117153	-0.551549
C139	C	0.850870	-0.382872	-0.986115
C140	C	1.350870	0.117128	-0.486115
C141	C	0.892678	-0.337960	-0.951723
C142	C	1.392678	0.162040	-0.451723
C143	C	0.892570	-0.338096	-0.152236
C144	C	1.392570	0.161904	0.347764
C145	C	0.892676	-0.337904	-0.082588
C146	C	1.392676	0.162096	0.417412
H147	H	0.650977	-0.419823	-0.390603
H148	H	1.150977	0.080177	0.109397
H149	H	0.975644	-1.070010	-0.232282
H150	H	1.475644	-0.570010	0.267718
H151	H	0.955095	-0.605453	-0.252559
H152	H	1.455095	-0.105453	0.247441
N153	N	0.805752	-0.431480	-0.549002
N154	N	1.305752	0.068520	-0.049002
H155	H	0.779268	-0.459926	-0.580719
H156	H	1.279268	0.040074	-0.080719
H157	H	0.829994	-0.463993	-0.523104
H158	H	1.329994	0.036007	-0.023104
N159	N	0.523167	-0.431676	-0.401672
N160	N	1.023167	0.068324	0.098328
H161	H	0.552739	-0.460184	-0.428082
H162	H	1.052739	0.039816	0.071918
H163	H	0.494728	-0.464128	-0.377353
H164	H	0.994728	0.035872	0.122647
H165	H	0.333835	-0.327917	-0.212256
H166	H	0.833835	0.172083	0.287744
N167	N	0.530262	-0.244675	-0.228286
N168	N	1.030262	0.255325	0.271714
H169	H	0.504400	-0.212164	-0.252568
H170	H	1.004400	0.287836	0.247432
H171	H	0.502013	-0.273226	-0.200310
H172	H	1.002013	0.226774	0.299690
H173	H	0.980668	-0.936929	-0.227201
H174	H	1.480668	-0.436929	0.272799
H175	H	0.968506	-0.256607	-0.551125
H176	H	1.468506	0.243393	-0.051125
H177	H	0.830186	-1.070103	-0.377512
H178	H	1.330186	-0.570103	0.122488
N179	N	0.793643	-0.748323	-0.413809
N180	N	1.293643	-0.248323	0.086191
H181	H	0.769544	-0.713974	-0.437850
H182	H	1.269544	-0.213974	0.062150
H183	H	0.817983	-0.778711	-0.443997
H184	H	1.317983	-0.278711	0.056003
H185	H	0.809633	-0.605547	-0.397787
H186	H	1.309633	-0.105547	0.102213
H187	H	0.451974	-0.348381	-0.417801
H188	H	0.951974	0.151619	0.082199
H189	H	0.944797	-0.825302	-0.262970
H190	H	1.444797	-0.325302	0.237030
N191	N	0.119536	-0.431589	-0.401813
N192	N	0.619536	0.068411	0.098187
H193	H	0.093529	-0.403094	-0.429826
H194	H	0.593529	0.096906	0.070174
H195	H	0.149151	-0.460088	-0.428175
H196	H	0.649151	0.039912	0.071825
H197	H	0.835205	-0.937033	-0.372426
H198	H	1.335205	-0.437033	0.127574
N199	N	0.960301	-0.748213	-0.247437
N200	N	1.460301	-0.248213	0.252563
H201	H	0.988180	-0.778593	-0.274094
H202	H	1.488180	-0.278593	0.225906
H203	H	0.986951	-0.713786	-0.220777
H204	H	1.486951	-0.213786	0.279223
H205	H	0.247344	-0.419730	-0.390749
H206	H	0.747344	0.080270	0.109251
H207	H	0.840486	-0.850260	-0.367103
H208	H	1.340486	-0.350260	0.132897
H209	H	0.657168	-0.256574	-0.239276
H210	H	1.157168	0.243426	0.260724
N211	N	0.126626	-0.244578	-0.228433
N212	N	0.626626	0.255422	0.271567
H213	H	0.137541	-0.255414	-0.184057
H214	H	0.637541	0.244586	0.315943
H215	H	0.139988	-0.194432	-0.236388
H216	H	0.639988	0.305568	0.263612
N217	N	0.979553	-0.244684	-0.678040
N218	N	1.479553	0.255316	-0.178040
H219	H	1.006037	-0.216236	-0.646325
H220	H	1.506037	0.283764	-0.146325
H221	H	1.007444	-0.273264	-0.706296
H222	H	1.507444	0.226736	-0.206296
H223	H	0.906064	-0.223221	-0.751624
H224	H	1.406064	0.276779	-0.251624
N225	N	0.908021	-0.206443	-0.878341
N226	N	1.408021	0.293557	-0.378341
H227	H	0.906901	-0.216026	-0.925121
H228	H	1.406901	0.283974	-0.425121
H229	H	0.873000	-0.175053	-0.865681
H230	H	1.373000	0.324947	-0.365681
H231	H	0.968519	-0.256447	-0.954755
H232	H	1.468519	0.243553	-0.454755
H233	H	0.968516	-0.256395	-1.073461
H234	H	1.468516	0.243605	-0.573461
N235	N	0.805781	-0.431287	-1.088640
N236	N	1.305781	0.068713	-0.588640
H237	H	0.812124	-0.424453	-1.134801
H238	H	1.312124	0.075547	-0.634801
H239	H	0.813597	-0.481452	-1.079118
H240	H	1.313597	0.018548	-0.579118
N241	N	0.805790	-0.431339	-0.952628
N242	N	1.305790	0.068661	-0.452628
H243	H	0.777858	-0.402806	-0.924374
H244	H	1.277858	0.097194	-0.424374
H245	H	0.779349	-0.459784	-0.984378
H246	H	1.279349	0.040216	-0.484378
H247	H	0.253531	-0.256494	-0.239412
H248	H	0.753531	0.243506	0.260588
N249	N	0.877335	-0.469526	-0.888334
N250	N	1.377335	0.030474	-0.388334
H251	H	0.872652	-0.509625	-0.859200
H252	H	1.372652	-0.009625	-0.359200
H253	H	0.838771	-0.468510	-0.915417
H254	H	1.338771	0.031490	-0.415417
N255	N	0.324581	-0.349841	-0.432823
N256	N	0.824581	0.150159	0.067177
H257	H	0.278188	-0.348973	-0.424244
H258	H	0.778188	0.151027	0.075756
H259	H	0.337631	-0.309274	-0.459354
H260	H	0.837631	0.190726	0.040646
H261	H	0.879111	-0.452836	-0.760343
H262	H	1.379111	0.047164	-0.260343
N263	N	0.805762	-0.431435	-0.685009
N264	N	1.305762	0.068565	-0.185009
H265	H	0.812106	-0.424600	-0.731170
H266	H	1.312106	0.075400	-0.231170
H267	H	0.813570	-0.481602	-0.675488
H268	H	1.313570	0.018398	-0.175488
H269	H	0.452538	-0.327937	-0.212214
H270	H	0.952538	0.172063	0.287786
