data_functionalizedCrystal
_audit_creation_method	'MofGen! by Chris Wilmer'
_symmetry_space_group_name_H-M	'P1'
_symmetry_Int_Tables_number	1
_symmetry_cell_setting	triclinic
loop_
_symmetry_equiv_pos_as_xyz
  x,y,z
_cell_length_a	19.805407
_cell_length_b	14.908579
_cell_length_c	19.805399
_cell_angle_alpha	93.273228
_cell_angle_beta	90.019573
_cell_angle_gamma	86.677887
loop_
_atom_site_label
_atom_site_type_symbol
_atom_site_fract_x
_atom_site_fract_y
_atom_site_fract_z
Zn1	Zn	1.019197	0.359181	0.398282
Zn2	Zn	1.519197	0.859181	0.898282
Zn3	Zn	1.012585	0.510047	0.291630
Zn4	Zn	1.512585	1.010047	0.791630
Zn5	Zn	0.906011	0.359206	0.285107
Zn6	Zn	1.406011	0.859206	0.785107
Zn7	Zn	0.899451	0.509999	0.404775
Zn8	Zn	1.399451	1.009999	0.904775
O9	O	0.959311	0.434608	0.344949
O10	O	1.459311	0.934608	0.844949
O11	O	1.113036	0.379203	0.384147
O12	O	1.613036	0.879203	0.884147
O13	O	0.998426	0.490068	0.196050
O14	O	1.498426	0.990068	0.696050
O15	O	0.926538	0.232958	0.294673
O16	O	1.426538	0.732958	0.794673
O17	O	1.108179	0.490044	0.305790
O18	O	1.608179	0.990044	0.805790
O19	O	1.009695	0.232939	0.377822
O20	O	1.509695	0.732939	0.877822
O21	O	0.920126	0.379246	0.191257
O22	O	1.420126	0.879246	0.691257
O23	O	0.810424	0.379199	0.300969
O24	O	1.310424	0.879199	0.800969
O25	O	0.915357	0.489962	0.498629
O26	O	1.415357	0.989962	0.998629
O27	O	0.805605	0.489986	0.388888
O28	O	1.305605	0.989986	0.888888
O29	O	1.003334	0.379157	0.493858
O30	O	1.503334	0.879157	0.993858
O31	O	0.992065	0.636286	0.312086
O32	O	1.492065	1.136286	0.812086
O33	O	0.908946	0.636250	0.395213
O34	O	1.408946	1.136250	0.895213
C35	C	0.783456	0.434591	0.344926
C36	C	1.283456	0.934591	0.844926
C37	C	0.708223	0.434605	0.344933
C38	C	1.208223	0.934605	0.844933
C39	C	0.949095	0.669002	0.355077
C40	C	1.449095	1.169002	0.855077
C41	C	0.944786	0.769277	0.359432
C42	C	1.444786	1.269277	0.859432
C43	C	0.670383	0.492379	0.390646
C44	C	1.170383	0.992379	0.890646
C45	C	0.599695	0.492380	0.390656
C46	C	1.099695	0.992380	0.890656
C47	C	0.566847	0.434612	0.344949
C48	C	1.066847	0.934612	0.844949
C49	C	0.604692	0.376832	0.299233
C50	C	1.104692	0.876832	0.799233
C51	C	0.675380	0.376827	0.299227
C52	C	1.175380	0.876827	0.799227
C53	C	0.319618	0.376852	0.299257
C54	C	0.819618	0.876852	0.799257
C55	C	0.248925	0.376864	0.299265
C56	C	0.748925	0.876864	0.799265
C57	C	0.243933	0.492406	0.390685
C58	C	0.743933	0.992406	0.890685
C59	C	0.314621	0.492400	0.390679
C60	C	0.814621	0.992400	0.890679
C61	C	0.352460	0.434618	0.344967
C62	C	0.852460	0.934618	0.844967
C63	C	0.429108	0.434615	0.344958
C64	C	0.929108	0.934615	0.844958
C65	C	0.490200	0.434618	0.344954
C66	C	0.990200	0.934618	0.844954
C67	C	1.023331	0.957679	0.281126
C68	C	1.523331	1.457679	0.781126
C69	C	1.019285	1.051896	0.285216
C70	C	1.519285	1.551896	0.785216
C71	C	0.932652	1.051929	0.371705
C72	C	1.432652	1.551929	0.871705
C73	C	0.936698	0.957712	0.367615
C74	C	1.436698	1.457712	0.867615
C75	C	0.982038	0.910590	0.322323
C76	C	1.482038	1.410590	0.822323
C77	C	0.986081	0.816372	0.318230
C78	C	1.486081	1.316372	0.818230
C79	C	0.899451	0.816407	0.404722
C80	C	1.399451	1.316407	0.904722
C81	C	0.895405	0.910624	0.408813
C82	C	1.395405	1.410624	0.908813
C83	C	1.135853	0.434626	0.344972
C84	C	1.635853	0.934626	0.844972
C85	C	1.211085	0.434634	0.344982
C86	C	1.711085	0.934634	0.844982
C87	C	0.959351	0.434551	0.521489
C88	C	1.459351	0.934551	1.021489
C89	C	0.959369	0.434527	0.596720
C90	C	1.459369	0.934527	1.096720
C91	C	0.969581	1.199299	0.334804
C92	C	1.469581	1.699299	0.834804
C93	C	0.973946	1.099024	0.330504
C94	C	1.473946	1.599024	0.830504
C95	C	0.959313	0.434600	0.169092
C96	C	1.459313	0.934600	0.669092
C97	C	0.959437	0.434370	0.093851
C98	C	1.459437	0.934370	0.593851
C99	C	1.005179	0.376828	0.629581
C100	C	1.505179	0.876828	1.129581
C101	C	1.005188	0.376802	0.700268
C102	C	1.505188	0.876802	1.200268
C103	C	0.959388	0.434480	0.738093
C104	C	1.459388	0.934480	1.238093
C105	C	0.913572	0.492182	0.705227
C106	C	1.413572	0.992182	1.205227
C107	C	0.913561	0.492203	0.634541
C108	C	1.413561	0.992203	1.134541
C109	C	0.913614	0.492098	0.990297
C110	C	1.413614	0.992098	1.490297
C111	C	0.913629	0.492074	1.060988
C112	C	1.413629	0.992074	1.560988
C113	C	1.005240	0.376697	1.056024
C114	C	1.505240	0.876697	1.556024
C115	C	1.005229	0.376718	0.985338
C116	C	1.505229	0.876718	1.485338
C117	C	0.959412	0.434416	0.952478
C118	C	1.459412	0.934416	1.452478
C119	C	0.959403	0.434442	0.875831
C120	C	1.459403	0.934442	1.375831
C121	C	0.959399	0.434459	0.814740
C122	C	1.459399	0.934459	1.314740
H123	H	0.697122	0.539423	0.427864
H124	H	1.197122	1.039423	0.927864
H125	H	1.042477	0.329862	0.598789
H126	H	1.542477	0.829862	1.098789
C127	C	1.055610	0.313264	0.943734
C128	C	1.555610	0.813264	1.443734
N129	N	1.093556	0.265465	0.912399
N130	N	1.593556	0.765465	1.412399
H131	H	0.706188	0.329777	0.262006
H132	H	1.206188	0.829777	0.762006
C133	C	1.055633	0.313216	1.092176
C134	C	1.555633	0.813216	1.592176
N135	N	1.093588	0.265403	1.119405
N136	N	1.593588	0.765403	1.619405
H137	H	0.568889	0.539426	0.427880
H138	H	1.068889	1.039426	0.927880
C139	C	1.055584	0.313330	0.736412
C140	C	1.555584	0.813330	1.236412
N141	N	1.093545	0.265520	0.763635
N142	N	1.593545	0.765520	1.263635
C143	C	0.361232	0.313295	0.248967
C144	C	0.861232	0.813295	0.748967
N145	N	0.392577	0.265422	0.211086
N146	N	0.892577	0.765422	0.711086
H147	H	0.876315	0.539092	0.963552
H148	H	1.376315	1.039092	1.463552
C149	C	1.035956	0.764539	0.268409
C150	C	1.535956	1.264539	0.768409
N151	N	1.073524	0.725501	0.230883
N152	N	1.573524	1.225501	0.730883
C153	C	0.863167	0.555678	0.598394
C154	C	1.363167	1.055678	1.098394
N155	N	0.825207	0.603488	0.571170
N156	N	1.325207	1.103488	1.071170
C157	C	1.073204	0.905843	0.231304
C158	C	1.573204	1.405843	0.731304
N159	N	1.110770	0.866801	0.193778
N160	N	1.610770	1.366801	0.693778
C161	C	0.350749	0.555951	0.440960
C162	C	0.850749	1.055951	0.940960
N163	N	0.377960	0.603816	0.478834
N164	N	0.877960	1.103816	0.978834
H165	H	0.213116	0.539452	0.427909
H166	H	0.713116	1.039452	0.927909
C167	C	0.863239	0.555522	1.102595
C168	C	1.363239	1.055522	1.602595
N169	N	0.825286	0.603307	1.133932
N170	N	1.325286	1.103307	1.633932
C171	C	0.212795	0.313305	0.248986
C172	C	0.712795	0.813305	0.748986
N173	N	0.185582	0.265433	0.211118
N174	N	0.685582	0.765433	0.711118
C175	C	1.064708	1.103690	0.239893
C176	C	1.564708	1.603690	0.739893
N177	N	1.098922	1.142701	0.205754
N178	N	1.598922	1.642701	0.705754
H179	H	0.577942	0.329793	0.262020
H180	H	1.077942	0.829793	0.762020
H181	H	0.895742	1.090312	0.408584
H182	H	1.395742	1.590312	0.908584
C183	C	0.845530	0.962469	0.458627
C184	C	1.345530	1.462469	0.958627
N185	N	0.807959	1.001517	0.496146
N186	N	1.307959	1.501517	0.996146
C187	C	0.854026	0.764602	0.450042
C188	C	1.354026	1.264602	0.950042
N189	N	0.819812	0.725581	0.484175
N190	N	1.319812	1.225581	0.984175
H191	H	0.876278	0.539141	0.736030
H192	H	1.376278	1.039141	1.236030
