data_functionalizedCrystal
_audit_creation_method	'MofGen! by Chris Wilmer'
_symmetry_space_group_name_H-M	'P1'
_symmetry_Int_Tables_number	1
_symmetry_cell_setting	triclinic
loop_
_symmetry_equiv_pos_as_xyz
  x,y,z
_cell_length_a	16.120444
_cell_length_b	16.120566
_cell_length_c	16.120297
_cell_angle_alpha	89.874982
_cell_angle_beta	95.615117
_cell_angle_gamma	89.830856
loop_
_atom_site_label
_atom_site_type_symbol
_atom_site_fract_x
_atom_site_fract_y
_atom_site_fract_z
Zn1	Zn	-0.422256	-1.224976	-0.554884
Zn2	Zn	0.077744	-0.724976	-0.054884
Zn3	Zn	-0.554941	-1.224869	-0.422191
Zn4	Zn	-0.054941	-0.724869	0.077809
Zn5	Zn	-0.408173	-1.093716	-0.408120
Zn6	Zn	0.091827	-0.593716	0.091880
Zn7	Zn	-0.554175	-1.078867	-0.554115
Zn8	Zn	-0.054175	-0.578867	-0.054115
O9	O	-0.484886	-1.155607	-0.484827
O10	O	0.015114	-0.655607	0.015173
O11	O	-0.446072	-1.340998	-0.543493
O12	O	0.053928	-0.840998	-0.043493
O13	O	-0.529899	-1.213641	-0.303692
O14	O	-0.029899	-0.713641	0.196308
O15	O	-0.293410	-1.117387	-0.422021
O16	O	0.206590	-0.617387	0.077979
O17	O	-0.543555	-1.340919	-0.446003
O18	O	-0.043555	-0.840919	0.053997
O19	O	-0.303757	-1.213824	-0.529849
O20	O	0.196243	-0.713824	-0.029849
O21	O	-0.422069	-1.117284	-0.293354
O22	O	0.077931	-0.617284	0.206646
O23	O	-0.421326	-0.975711	-0.421276
O24	O	0.078674	-0.475711	0.078724
O25	O	-0.542249	-1.092079	-0.670850
O26	O	-0.042249	-0.592079	-0.170850
O27	O	-0.528593	-0.964801	-0.528538
O28	O	-0.028593	-0.464801	-0.028538
O29	O	-0.445329	-1.199425	-0.671415
O30	O	0.054671	-0.699425	-0.171415
O31	O	-0.671470	-1.199243	-0.445258
O32	O	-0.171470	-0.699243	0.054742
O33	O	-0.670907	-1.091975	-0.542182
O34	O	-0.170907	-0.591975	-0.042182
C35	C	-0.473348	-0.940169	-0.473297
C36	C	0.026652	-0.440169	0.026703
C37	C	-0.468433	-0.848002	-0.468385
C38	C	0.031567	-0.348002	0.031615
C39	C	-0.459441	-0.679251	-0.459423
C40	C	0.040559	-0.179251	0.040577
C41	C	-0.510404	-0.632799	-0.510242
C42	C	-0.010404	-0.132799	-0.010242
C43	C	-0.505400	-0.538901	-0.505255
C44	C	-0.005400	-0.038901	-0.005255
C45	C	-0.464443	-0.773159	-0.464409
C46	C	0.035557	-0.273159	0.035591
C47	C	-0.701432	-1.144008	-0.495183
C48	C	-0.201432	-0.644008	0.004817
C49	C	-0.794077	-1.139120	-0.499645
C50	C	-0.294077	-0.639120	0.000355
C51	C	-1.005235	-1.181158	-0.461871
C52	C	-0.505235	-0.681158	0.038129
C53	C	-0.963695	-1.130210	-0.507801
C54	C	-0.463695	-0.630210	-0.007801
C55	C	-0.869311	-1.135169	-0.503262
C56	C	-0.369311	-0.635169	-0.003262
C57	C	-1.099628	-1.176200	-0.466409
C58	C	-0.599628	-0.676200	0.033591
C59	C	-0.267497	-1.167274	-0.474451
C60	C	0.232503	-0.667274	0.025549
C61	C	-0.174859	-1.172245	-0.470029
C62	C	0.325141	-0.672245	0.029971
C63	C	-0.495274	-1.144108	-0.702219
C64	C	0.004726	-0.644108	-0.202219
C65	C	-0.499701	-1.139207	-0.794859
C66	C	0.000299	-0.639207	-0.294859
C67	C	-0.496472	-0.371887	-0.496390
C68	C	0.003528	0.128113	0.003610
C69	C	-0.501414	-0.464054	-0.501283
C70	C	-0.001414	0.035946	-0.001283
C71	C	-0.507763	-1.130231	-0.964470
C72	C	-0.007763	-0.630231	-0.464470
C73	C	-0.461769	-1.181161	-1.006034
C74	C	0.038231	-0.681161	-0.506034
C75	C	-0.466255	-1.176166	-1.100411
C76	C	0.033745	-0.676166	-0.600411
C77	C	-0.503278	-1.135224	-0.870084
C78	C	-0.003278	-0.635224	-0.370084
C79	C	-0.474481	-1.167113	-0.268281
C80	C	0.025519	-0.667113	0.231719
C81	C	-0.469828	-1.172187	-0.175639
C82	C	0.030172	-0.672187	0.324361
H83	H	-0.412057	-0.648502	-0.412174
H84	H	0.087943	-0.148502	0.087826
H85	H	-0.419023	-1.228513	-0.970739
H86	H	0.080977	-0.728513	-0.470739
N87	N	-1.010475	-1.067498	-0.564405
N88	N	-0.510475	-0.567498	-0.064405
H89	H	-1.072246	-1.072798	-0.559665
H90	H	-0.572246	-0.572798	-0.059665
H91	H	-0.991582	-1.009756	-0.547498
H92	H	-0.491582	-0.509756	-0.047498
H93	H	-0.969916	-1.228495	-0.419141
H94	H	-0.469916	-0.728495	0.080859
N95	N	-0.564369	-1.067496	-1.011211
N96	N	-0.064369	-0.567496	-0.511211
H97	H	-0.559582	-1.072775	-1.072982
H98	H	-0.059582	-0.572775	-0.572982
H99	H	-0.623883	-1.077985	-0.999599
H100	H	-0.123883	-0.577985	-0.499599
N101	N	-0.573189	-0.673520	-0.572826
N102	N	-0.073189	-0.173520	-0.072826
H103	H	-0.562408	-0.656055	-0.631005
H104	H	-0.062408	-0.156055	-0.131005
H105	H	-0.567886	-0.735789	-0.567489
H106	H	-0.067886	-0.235789	-0.067489
