data_functionalizedCrystal
_audit_creation_method	'MofGen! by Chris Wilmer'
_symmetry_space_group_name_H-M	'P1'
_symmetry_Int_Tables_number	1
_symmetry_cell_setting	triclinic
loop_
_symmetry_equiv_pos_as_xyz
  x,y,z
_cell_length_a	19.805407
_cell_length_b	14.908520
_cell_length_c	19.805399
_cell_angle_alpha	93.269050
_cell_angle_beta	89.983114
_cell_angle_gamma	93.320773
loop_
_atom_site_label
_atom_site_type_symbol
_atom_site_fract_x
_atom_site_fract_y
_atom_site_fract_z
Zn1	Zn	1.019185	-0.359168	-0.398269
Zn2	Zn	1.012581	-0.510037	-0.291612
Zn3	Zn	0.906004	-0.359197	-0.285095
Zn4	Zn	0.899441	-0.509986	-0.404757
O5	O	0.959303	-0.434597	-0.344933
O6	O	1.113026	-0.379191	-0.384133
O7	O	0.998426	-0.490062	-0.196032
O8	O	0.926528	-0.232948	-0.294665
O9	O	1.108173	-0.490034	-0.305773
O10	O	1.009682	-0.232927	-0.377813
O11	O	0.920124	-0.379240	-0.191244
O12	O	0.810417	-0.379190	-0.300956
O13	O	0.915343	-0.489946	-0.498611
O14	O	0.805596	-0.489974	-0.388871
O15	O	1.003319	-0.379141	-0.493845
O16	O	0.992063	-0.636275	-0.312064
O17	O	0.908939	-0.636238	-0.395190
C18	C	0.783448	-0.434580	-0.344910
C19	C	0.708215	-0.434594	-0.344918
C20	C	0.670374	-0.492366	-0.390629
C21	C	0.599686	-0.492368	-0.390638
C22	C	0.566839	-0.434601	-0.344933
C23	C	0.604685	-0.376823	-0.299220
C24	C	0.675373	-0.376817	-0.299214
C25	C	0.319611	-0.376843	-0.299243
C26	C	0.248919	-0.376854	-0.299251
C27	C	0.243924	-0.492393	-0.390667
C28	C	0.314612	-0.492388	-0.390662
C29	C	0.352452	-0.434606	-0.344951
C30	C	0.429100	-0.434604	-0.344942
C31	C	0.490192	-0.434607	-0.344938
C32	C	0.949091	-0.668990	-0.355053
C33	C	0.944783	-0.769265	-0.359405
C34	C	1.023335	-0.957670	-0.281093
C35	C	1.019291	-1.051887	-0.285180
C36	C	0.932654	-1.051917	-0.371669
C37	C	0.936698	-0.957700	-0.367582
C38	C	0.982040	-0.910580	-0.322292
C39	C	0.986081	-0.816361	-0.318202
C40	C	0.899447	-0.816394	-0.404694
C41	C	0.895403	-0.910610	-0.408781
C42	C	1.135845	-0.434615	-0.344956
C43	C	1.211077	-0.434623	-0.344966
C44	C	0.959335	-0.434534	-0.521473
C45	C	0.959349	-0.434508	-0.596704
C46	C	0.969574	-0.199288	-0.334788
C47	C	0.973951	-0.099014	-0.330465
C48	C	0.918590	-0.376797	-0.629554
C49	C	0.918600	-0.376780	-0.700242
C50	C	0.959374	-0.434469	-0.738078
C51	C	1.000134	-0.492185	-0.705223
C52	C	1.000120	-0.492207	-0.634537
C53	C	1.000192	-0.492101	-0.990293
C54	C	1.000204	-0.492073	-1.060984
C55	C	0.918672	-0.376674	-1.055998
C56	C	0.918658	-0.376695	-0.985312
C57	C	0.959415	-0.434415	-0.952463
C58	C	0.959403	-0.434435	-0.875816
C59	C	0.959390	-0.434445	-0.814724
C60	C	0.959313	-0.434594	-0.169077
C61	C	0.959441	-0.434367	-0.093835
H62	H	0.222177	-0.329808	-0.262032
C63	C	0.874270	-0.314174	-0.944274
C64	C	0.806446	-0.333825	-0.962295
C65	C	0.765533	-0.276258	-0.924501
H66	H	0.886733	-0.253523	-0.953216
H67	H	0.880053	-0.322459	-0.897465
H68	H	0.800667	-0.325531	-1.009094
H69	H	0.793962	-0.394465	-0.953351
H70	H	0.771316	-0.284544	-0.877692
H71	H	0.778003	-0.215611	-0.933446
H72	H	0.719511	-0.289589	-0.936718
C73	C	0.360809	-0.314154	-0.249685
C74	C	0.429746	-0.326489	-0.259469
C75	C	0.467720	-0.268747	-0.213831
H76	H	0.348718	-0.327227	-0.204730
H77	H	0.351905	-0.253537	-0.257053
H78	H	0.438646	-0.387092	-0.252096
H79	H	0.441857	-0.313409	-0.304414
H80	H	0.458816	-0.208129	-0.221199
H81	H	0.455624	-0.281825	-0.168880
H82	H	0.514498	-0.277102	-0.220467
H83	H	0.697113	-0.539409	-0.427845
H84	H	0.885392	-0.329815	-0.598753
C85	C	1.064023	-1.103148	-0.240439
C86	C	1.023423	-1.157358	-0.199380
C87	C	1.064615	-1.204610	-0.158174
H88	H	1.091628	-1.061707	-0.212823
H89	H	1.091895	-1.139885	-0.267961
H90	H	0.995563	-1.120624	-0.171860
H91	H	0.995818	-1.198816	-0.226978
H92	H	1.092487	-1.241347	-0.185696
H93	H	1.092218	-1.163162	-0.130562
H94	H	1.037074	-1.241403	-0.130314
H95	H	0.858489	-0.948989	-0.445656
H96	H	1.022998	-0.777997	-0.281322
C97	C	1.044453	-0.554613	-1.102183
C98	C	1.035757	-0.542215	-1.171116
C99	C	1.076514	-0.599796	-1.209088
H100	H	1.031940	-0.615269	-1.093298
H101	H	1.090520	-0.541412	-1.090072
H102	H	0.989701	-0.555423	-1.183222
H103	H	1.048274	-0.481571	-1.180022
H104	H	1.122580	-0.586595	-1.196977
H105	H	1.063998	-0.660448	-1.200198
H106	H	1.070624	-0.591386	-1.255863
C107	C	1.072622	-0.906667	-0.231899
C108	C	1.107930	-0.968073	-0.196699
C109	C	1.153343	-0.921124	-0.151381
H110	H	1.048396	-0.869966	-0.200734
H111	H	1.103713	-0.869874	-0.256205
H112	H	1.076843	-1.004850	-0.172395
H113	H	1.132169	-1.004776	-0.227847
H114	H	1.184435	-0.884331	-0.175687
H115	H	1.129112	-0.884425	-0.120220
H116	H	1.177309	-0.962781	-0.127497
H117	H	1.033316	-0.539194	-0.607791
C118	C	0.558719	-0.555204	-0.440289
C119	C	0.602613	-0.605817	-0.480296
C120	C	0.564898	-0.663726	-0.526035
H121	H	0.532645	-0.520859	-0.468408
H122	H	0.529439	-0.594512	-0.416055
H123	H	0.631880	-0.566514	-0.504528
H124	H	0.628687	-0.640180	-0.452196
H125	H	0.535619	-0.703034	-0.501801
H126	H	0.538826	-0.629374	-0.554149
H127	H	0.594674	-0.698080	-0.553181
H128	H	0.341352	-0.539430	-0.427877
C129	C	0.202722	-0.555024	-0.440274
C130	C	0.133787	-0.542650	-0.430514
C131	C	0.095814	-0.600321	-0.476202
H132	H	0.211581	-0.615657	-0.432951
H133	H	0.214860	-0.541891	-0.485214
H134	H	0.121654	-0.555790	-0.385585
H135	H	0.124908	-0.482029	-0.437842
H136	H	0.107952	-0.587188	-0.521142
H137	H	0.104678	-0.660951	-0.468876
H138	H	0.049038	-0.591928	-0.469591
H139	H	1.033371	-0.539110	-0.963557
C140	C	0.883449	-1.103249	-0.420771
C141	C	0.888739	-1.195838	-0.415519
C142	C	0.843415	-1.243152	-0.460735
H143	H	0.893937	-1.087868	-0.465619
H144	H	0.838621	-1.087927	-0.410147
H145	H	0.933557	-1.211153	-0.426147
H146	H	0.878244	-1.211245	-0.370681
H147	H	0.798586	-1.227831	-0.450111
H148	H	0.853907	-1.227764	-0.505580
H149	H	0.846993	-1.305979	-0.457173
C150	C	1.044380	-0.554724	-0.746418
C151	C	1.035684	-0.542337	-0.815353
C152	C	1.076442	-0.599924	-0.853320
H153	H	1.031867	-0.615379	-0.737528
H154	H	1.090447	-0.541522	-0.734308
H155	H	0.989628	-0.555546	-0.827459
H156	H	1.048203	-0.481695	-0.824264
H157	H	1.122508	-0.586722	-0.841209
H158	H	1.063924	-0.660574	-0.844424
H159	H	1.070552	-0.591521	-0.900096
H160	H	0.577936	-0.329784	-0.262009
C161	C	0.874502	-0.313862	-1.091622
C162	C	0.893148	-0.224608	-1.070598
C163	C	0.852483	-0.166722	-1.103406
H164	H	0.828428	-0.326942	-1.080623
H165	H	0.880355	-0.322051	-1.139143
H166	H	0.887290	-0.216424	-1.023088
H167	H	0.939216	-0.211500	-1.081599
H168	H	0.858336	-0.174910	-1.150927
H169	H	0.806411	-0.179810	-1.092404
H170	H	0.865133	-0.106156	-1.089151
C171	C	0.854722	-0.765221	-0.449510
C172	C	0.895336	-0.711063	-0.490595
C173	C	0.854158	-0.663921	-0.531891
H174	H	0.826813	-0.728453	-0.422072
H175	H	0.827154	-0.806755	-0.477104
H176	H	0.922892	-0.669534	-0.463004
H177	H	0.923245	-0.747809	-0.518047
H178	H	0.826590	-0.705454	-0.559485
H179	H	0.826251	-0.627157	-0.504447
H180	H	0.881708	-0.627175	-0.559776
C181	C	0.716339	-0.314064	-0.249504
C182	C	0.672445	-0.263494	-0.209465
C183	C	0.710157	-0.205683	-0.163658
H184	H	0.745641	-0.274717	-0.273666
H185	H	0.742388	-0.348505	-0.221420
H186	H	0.646408	-0.229056	-0.237545
H187	H	0.643143	-0.302817	-0.185288
H188	H	0.736206	-0.240124	-0.135574
H189	H	0.739458	-0.166342	-0.187826
H190	H	0.680381	-0.171370	-0.136482
C191	C	0.874328	-0.314019	-0.735781
C192	C	0.838636	-0.263481	-0.687516
C193	C	0.797851	-0.205646	-0.720229
H194	H	0.843278	-0.348413	-0.764837
H195	H	0.901931	-0.274660	-0.761650
H196	H	0.811036	-0.302835	-0.661659
H197	H	0.869669	-0.229068	-0.658458
H198	H	0.825453	-0.166287	-0.746097
H199	H	0.766804	-0.240047	-0.749283
H200	H	0.773633	-0.171343	-0.687486
