data_functionalizedCrystal
_audit_creation_method	'MofGen! by Chris Wilmer'
_symmetry_space_group_name_H-M	'P1'
_symmetry_Int_Tables_number	1
_symmetry_cell_setting	triclinic
loop_
_symmetry_equiv_pos_as_xyz
  x,y,z
_cell_length_a	9.565339
_cell_length_b	14.044220
_cell_length_c	14.044220
_cell_angle_alpha	93.188878
_cell_angle_beta	90.007312
_cell_angle_gamma	89.992604
loop_
_atom_site_label
_atom_site_type_symbol
_atom_site_fract_x
_atom_site_fract_y
_atom_site_fract_z
O1	O	-0.116117	-1.277159	-0.230169
O2	O	-0.116152	-1.000487	-0.221864
O3	O	-0.116121	-1.134670	-0.087681
O4	O	-0.116148	-1.142976	-0.364352
O5	O	0.116399	-1.134676	-0.087672
O6	O	0.116368	-1.000493	-0.221854
O7	O	0.116403	-1.277164	-0.230160
Zn8	Zn	0.153303	-1.138830	-0.226006
Zn9	Zn	-0.153052	-1.138822	-0.226018
O10	O	0.116372	-1.142981	-0.364343
C11	C	0.000104	-0.964868	-0.218223
C12	C	0.000091	-0.858725	-0.207379
N13	N	-0.362131	-1.138817	-0.226019
C14	C	0.000139	-1.131037	-0.052054
C15	C	0.000139	-1.120193	0.054088
C16	C	-0.453340	-1.076618	-0.287933
C17	C	-0.546517	-1.051014	-0.200043
C18	C	-0.546510	-1.164403	-0.313876
C19	C	-0.453257	-1.113166	-0.138083
C20	C	-0.453241	-1.226597	-0.251975
C21	C	-0.546376	-1.201025	-0.164027
N22	N	0.362383	-1.138842	-0.225998
C23	C	0.000145	-1.312783	-0.233800
C24	C	0.000148	-1.418926	-0.244645
C25	C	0.000120	-0.664388	-0.187553
C26	C	0.000119	-0.613258	-0.264467
C27	C	0.000135	-0.505122	-0.253435
C28	C	0.000104	-0.772534	-0.198583
C29	C	0.000109	-1.146614	-0.399969
C30	C	0.000100	-1.157459	-0.506112
C31	C	0.000117	-1.100366	0.248426
C32	C	0.000122	-1.177281	0.299556
C33	C	0.000110	-1.166249	0.407692
C34	C	0.000129	-1.111397	0.140280
H35	H	-0.412487	-1.023964	-0.340231
H36	H	-0.412237	-1.300799	-0.273970
O37	O	-0.000175	-0.657952	-0.352893
C38	C	-0.120605	-0.715400	-0.363821
H39	H	-0.204738	-0.687536	-0.311962
H40	H	-0.161069	-0.713071	-0.440011
H41	H	-0.093394	-0.792043	-0.348328
O42	O	0.000369	-0.619777	-0.099095
C43	C	0.120768	-0.646544	-0.049186
H44	H	0.204942	-0.671699	-0.102265
H45	H	0.161189	-0.582719	-0.003565
H46	H	0.093531	-0.706857	-0.001371
H47	H	0.000038	-1.251414	0.262117
O48	O	-0.000075	-1.011980	0.293191
C49	C	-0.120520	-1.001014	0.350620
H50	H	-0.160672	-1.074198	0.368927
H51	H	-0.093437	-0.957560	0.419116
H52	H	-0.204841	-0.962415	0.310257
O53	O	-0.595575	-0.962482	-0.173966
C54	C	-0.678724	-0.929010	-0.247974
H55	H	-0.719581	-0.992201	-0.294310
H56	H	-0.770658	-0.886591	-0.216040
H57	H	-0.613173	-0.881175	-0.293416
O58	O	-0.404540	-1.087096	-0.049460
C59	C	-0.322534	-1.004025	-0.053688
H60	H	-0.353557	-0.964203	-0.119016
H61	H	-0.340371	-0.956136	0.013436
H62	H	-0.207366	-1.024560	-0.058903
O63	O	-0.594987	-1.263665	-0.101420
C64	C	-0.677908	-1.214650	-0.031658
H65	H	-0.719057	-1.145955	-0.060997
H66	H	-0.769646	-1.261586	-0.012181
H67	H	-0.612078	-1.196776	0.034614
O68	O	-0.595246	-1.190088	-0.402586
C69	C	-0.547892	-1.124278	-0.467626
H70	H	-0.449739	-1.087160	-0.438246
H71	H	-0.522836	-1.163527	-0.538816
H72	H	-0.632805	-1.068934	-0.478409
