data_functionalizedCrystal
_audit_creation_method	'MofGen! by Chris Wilmer'
_symmetry_space_group_name_H-M	'P1'
_symmetry_Int_Tables_number	1
_symmetry_cell_setting	triclinic
loop_
_symmetry_equiv_pos_as_xyz
  x,y,z
_cell_length_a	20.919309
_cell_length_b	20.919099
_cell_length_c	20.919309
_cell_angle_alpha	64.544464
_cell_angle_beta	89.827191
_cell_angle_gamma	64.528973
loop_
_atom_site_label
_atom_site_type_symbol
_atom_site_fract_x
_atom_site_fract_y
_atom_site_fract_z
Zr1	Zr	0.633598	0.705936	-0.067017
O2	O	0.544563	0.819357	-0.156023
O3	O	0.656368	0.582726	-0.044275
O4	O	0.667246	0.701041	-0.166931
O5	O	0.530251	0.708317	0.068555
O6	O	0.769166	0.708316	-0.170368
O7	O	0.533685	0.701042	-0.033367
O8	O	0.749708	0.496672	0.049041
O9	O	0.549709	0.919961	-0.150854
O10	O	0.747606	0.642459	-0.031652
O11	O	0.668981	0.642459	0.046976
O12	O	0.681788	0.781760	-0.097436
O13	O	0.603163	0.781760	-0.018808
Zr14	Zr	0.790671	0.729141	0.090056
Zr15	Zr	0.796148	0.717538	-0.072498
Zr16	Zr	0.628120	0.717539	0.095536
Zr17	Zr	0.641805	0.866388	-0.058774
Zr18	Zr	0.782464	0.568689	0.081812
O19	O	0.767900	0.852351	0.067314
O20	O	0.775689	0.835853	-0.163816
O21	O	0.536774	0.835854	0.075107
O22	O	0.879705	0.615720	0.179061
O23	O	0.887494	0.599223	-0.052069
O24	O	0.648579	0.599223	0.186855
O25	O	0.894018	0.726760	-0.045516
O26	O	0.757023	0.734035	0.189970
O27	O	0.655103	0.726761	0.193407
O28	O	0.890583	0.734035	0.056405
O29	O	0.678915	0.929183	-0.155211
O30	O	0.745354	0.505894	0.178249
O31	O	0.874560	0.515116	0.173893
O32	O	0.878914	0.505894	0.044685
O33	O	0.545355	0.929183	-0.021646
O34	O	0.674561	0.938405	-0.026003
O35	O	0.742480	0.653317	0.120474
O36	O	0.821105	0.653317	0.041847
O37	O	0.755287	0.792618	-0.023937
O38	O	0.676662	0.792618	0.054690
C39	C	0.701869	0.516838	0.001209
C40	C	0.698385	0.448722	-0.002291
C41	C	0.676097	0.065755	-0.024452
C42	C	0.679370	0.129772	-0.021195
C43	C	0.732434	0.114386	0.031841
C44	C	0.782223	0.034978	0.081628
C45	C	0.778946	-0.029037	0.078374
C46	C	0.744897	0.305299	0.044242
C47	C	0.748172	0.369322	0.047491
C48	C	0.645317	0.464112	-0.055332
C49	C	0.642048	0.400091	-0.058584
C50	C	0.691835	0.320689	-0.008795
C51	C	0.735782	0.179820	0.035170
C52	C	0.688483	0.255256	-0.012121
C53	C	0.508808	0.703026	0.018375
C54	C	0.439801	0.698101	0.020702
C55	C	0.373025	0.768499	-0.012542
C56	C	0.308188	0.763866	-0.010359
C57	C	0.310129	0.688834	0.025073
C58	C	0.376912	0.618431	0.058318
C59	C	0.441748	0.623064	0.056130
C60	C	0.116086	0.671206	0.033393
C61	C	0.051243	0.666578	0.035581
C62	C	-0.017476	0.812013	-0.033097
C63	C	0.047364	0.816640	-0.035278
C64	C	0.114141	0.746237	-0.002037
C65	C	0.243856	0.684097	0.027308
C66	C	0.180413	0.750975	-0.004276
C67	C	0.915460	0.732051	0.004664
C68	C	0.984467	0.736976	0.002337
C69	C	0.718986	0.703026	-0.191810
C70	C	0.721312	0.698100	-0.260818
C71	C	0.722400	0.918239	0.021830
C72	C	0.725884	0.986355	0.025330
C73	C	0.688049	0.768498	-0.327577
C74	C	0.690243	0.763866	-0.392415
C75	C	0.725697	0.688834	-0.390493
C76	C	0.758964	0.618431	-0.323727
C77	C	0.756773	0.623065	-0.258891
C78	C	0.734033	0.671207	-0.584540
C79	C	0.736219	0.666579	-0.649384
C80	C	0.667500	0.812014	-0.718068
C81	C	0.665309	0.816640	-0.653227
C82	C	0.698579	0.746238	-0.586467
C83	C	0.727939	0.684098	-0.456768
C84	C	0.696341	0.750976	-0.520194
C85	C	0.705282	0.732051	0.214849
C86	C	0.702957	0.736977	0.283857
C87	C	0.905195	0.531350	-0.005647
C88	C	0.970718	0.468160	-0.011474
C89	C	0.695017	0.531351	0.204538
C90	C	0.689207	0.468161	0.270047
C91	C	0.898343	0.545863	0.197682
C92	C	0.961540	0.487598	0.260864
C93	C	0.525926	0.889214	-0.174643
C94	C	0.462728	0.947479	-0.237825
C95	C	0.519074	0.903726	0.028686
C96	C	0.453551	0.966917	0.034512
C97	C	0.729252	0.903726	-0.181499
C98	C	0.735061	0.966916	-0.247008
C99	C	0.963123	0.432817	-0.052582
C100	C	1.024683	0.373450	-0.058071
C101	C	1.093838	0.349423	-0.022447
C102	C	1.101431	0.384773	0.018663
C103	C	1.039872	0.444142	0.024147
C104	C	0.724844	0.444154	0.339182
C105	C	0.719383	0.384789	0.400742
C106	C	0.678288	0.349428	0.393163
C107	C	0.642647	0.373440	0.324020
C108	C	0.648104	0.432808	0.262463
C109	C	1.032267	0.460237	0.249492
C110	C	1.091654	0.405500	0.308852
C111	C	1.080314	0.378120	0.379583
C112	C	1.009580	0.405487	0.390955
C113	C	0.950194	0.460228	0.331595
C114	C	0.392002	0.974848	-0.226453
C115	C	0.332616	1.029605	-0.285812
C116	C	0.343956	1.056988	-0.356543
C117	C	0.414690	1.029616	-0.367915
C118	C	0.474075	0.974865	-0.308556
C119	C	0.461146	1.002266	0.075614
C120	C	0.399587	1.061650	0.081086
C121	C	0.330433	1.085678	0.045460
C122	C	0.322839	1.050326	0.004353
C123	C	0.384398	0.990948	-0.001123
C124	C	0.776162	1.002259	-0.239406
C125	C	0.781634	1.061627	-0.300953
C126	C	0.746002	1.085653	-0.370101
C127	C	0.704900	1.050304	-0.377701
C128	C	0.699432	0.990934	-0.316155
H129	H	0.638835	0.194421	-0.061741
H130	H	0.659174	0.829596	-0.329150
H131	H	1.157745	0.365201	0.047666
H132	H	0.636442	0.877739	-0.654800
H133	H	0.371436	0.829598	-0.041383
H134	H	0.382754	0.952555	-0.168865
H135	H	0.815102	1.090403	-0.294751
H136	H	0.496119	0.565739	0.083208
H137	H	0.619086	0.452345	0.206171
H138	H	1.046066	0.472912	0.057626
H139	H	0.640414	0.869332	-0.772429
H140	H	0.675890	1.069876	-0.434010
H141	H	0.632890	0.078292	-0.067644
H142	H	0.758307	0.472939	0.345367
H143	H	0.531662	0.952580	-0.317825
H144	H	0.423915	1.051918	-0.425511
H145	H	0.295595	1.101570	-0.404870
H146	H	0.517449	0.982708	0.104631
H147	H	0.748410	0.365246	0.457034
H148	H	0.663159	0.821191	-0.446771
H149	H	0.665961	0.962163	-0.322355
H150	H	0.253818	0.821191	-0.037429
H151	H	0.673850	0.301088	0.443293
H152	H	0.609188	0.344640	0.317860
H153	H	0.378203	0.962167	-0.034590
H154	H	0.791383	0.356785	0.090684
H155	H	0.805179	0.982707	-0.183108
H156	H	0.750460	1.133997	-0.420210
H157	H	0.405784	1.090424	0.114562
H158	H	1.128676	0.333547	0.427911
H159	H	0.245428	0.623006	0.056160
H160	H	0.598837	0.412628	-0.101771
H161	H	0.604783	0.528766	-0.095867
H162	H	1.018486	0.344675	-0.091546
H163	H	0.892607	0.482498	0.340865
H164	H	0.280314	1.134029	0.049924
H165	H	0.378488	0.557339	0.087164
H166	H	0.819487	-0.093689	0.118913
H167	H	0.178836	0.812065	-0.033128
H168	H	0.266525	1.069900	-0.024652
H169	H	1.041514	0.482521	0.191903
H170	H	1.143957	0.301079	-0.026917
H171	H	1.149244	0.383222	0.299580
H172	H	1.000357	0.383187	0.448552
H173	H	0.645276	0.267780	-0.055301
H174	H	0.170451	0.613878	0.060450
H175	H	0.825426	0.022455	0.124814
H176	H	0.778988	0.167301	0.078351
H177	H	0.785439	0.240654	0.084782
H178	H	0.275027	1.051881	-0.276539
H179	H	-0.071852	0.869332	-0.060162
H180	H	0.045776	0.877738	-0.064146
H181	H	0.052831	0.605475	0.064434
H182	H	0.765089	0.605476	-0.647812
H183	H	0.761125	0.613880	-0.530190
H184	H	0.783859	0.565739	-0.204533
H185	H	0.787834	0.557340	-0.322167
H186	H	0.756804	0.623007	-0.455210
H187	H	0.667479	0.812066	-0.521756
H188	H	0.906820	0.452378	-0.081601
