data_functionalizedCrystal
_audit_creation_method	'MofGen! by Chris Wilmer'
_symmetry_space_group_name_H-M	'P1'
_symmetry_Int_Tables_number	1
_symmetry_cell_setting	triclinic
loop_
_symmetry_equiv_pos_as_xyz
  x,y,z
_cell_length_a	21.295418
_cell_length_b	21.295417
_cell_length_c	12.759393
_cell_angle_alpha	89.961905
_cell_angle_beta	89.958063
_cell_angle_gamma	90.046319
loop_
_atom_site_label
_atom_site_type_symbol
_atom_site_fract_x
_atom_site_fract_y
_atom_site_fract_z
Zn1	Zn	0.962345	-0.250313	-0.594554
Zn2	Zn	0.962250	-0.355595	-0.418850
Zn3	Zn	0.857071	-0.250373	-0.418824
Zn4	Zn	0.857037	-0.355577	-0.594423
O5	O	0.909676	-0.302964	-0.506663
O6	O	1.050422	-0.264261	-0.571312
O7	O	0.948273	-0.341669	-0.271826
O8	O	0.871090	-0.162275	-0.442179
O9	O	1.050352	-0.341612	-0.442223
O10	O	0.948434	-0.162231	-0.571286
O11	O	0.870998	-0.264363	-0.271807
O12	O	0.768977	-0.264346	-0.442052
O13	O	0.871032	-0.341581	-0.741462
O14	O	0.768952	-0.341639	-0.571064
O15	O	0.948401	-0.264244	-0.741557
O16	O	0.948240	-0.443682	-0.442097
O17	O	0.870940	-0.443669	-0.571089
C18	C	0.746124	-0.302998	-0.506542
C19	C	0.676156	-0.303027	-0.506515
C20	C	0.643293	-0.343327	-0.573591
C21	C	0.577550	-0.343311	-0.573638
C22	C	0.544674	-0.303003	-0.506591
C23	C	0.577545	-0.262695	-0.439510
C24	C	0.643286	-0.262707	-0.439472
N25	N	0.441399	-0.298091	-0.414700
N26	N	0.378948	-0.298083	-0.414738
C27	C	0.346599	-0.302962	-0.506702
N28	N	0.379061	-0.307862	-0.598627
N29	N	0.441518	-0.307873	-0.598587
C30	C	0.473388	-0.302985	-0.506625
C31	C	0.242450	-0.343248	-0.573835
C32	C	0.176707	-0.343228	-0.573884
C33	C	0.176702	-0.262614	-0.439746
C34	C	0.242445	-0.262631	-0.439707
C35	C	0.275315	-0.302951	-0.506750
C36	C	0.909593	-0.466516	-0.506605
C37	C	0.909616	-0.536484	-0.506615
C38	C	0.949901	-0.569337	-0.439517
C39	C	0.949931	-0.635079	-0.439541
C40	C	0.909663	-0.667967	-0.506651
C41	C	0.869375	-0.635106	-0.573762
C42	C	0.869351	-0.569365	-0.573744
N43	N	0.854596	-0.771247	-0.514620
N44	N	0.854621	-0.833699	-0.514631
C45	C	0.909734	-0.866041	-0.506711
N46	N	0.964823	-0.833573	-0.498760
N47	N	0.964798	-0.771116	-0.498743
C48	C	0.909685	-0.739252	-0.506679
C49	C	0.950055	-0.970179	-0.439636
C50	C	0.950086	-1.035923	-0.439667
C51	C	0.869524	-1.035949	-0.573882
C52	C	0.869499	-0.970206	-0.573857
C53	C	0.909764	-0.937326	-0.506728
C54	C	1.073866	-0.302932	-0.506785
C55	C	1.143834	-0.302918	-0.506837
C56	C	0.909723	-0.302904	-0.780696
C57	C	0.909743	-0.302878	-0.897473
C58	C	0.909776	-0.138774	-0.506744
C59	C	0.909818	-0.068806	-0.506779
C60	C	0.950032	-0.262602	-0.952387
C61	C	0.950043	-0.262575	-1.062111
C62	C	0.869474	-0.343105	-1.061998
C63	C	0.869460	-0.343129	-0.952276
C64	C	0.909665	-0.302979	-0.233695
C65	C	0.909767	-0.302828	-0.116919
H66	H	0.550772	-0.229874	-0.384921
H67	H	0.149934	-0.229791	-0.385160
H68	H	0.982831	-0.229826	-0.907769
H69	H	0.836648	-0.375926	-0.907564
H70	H	0.670043	-0.229888	-0.384851
H71	H	0.836740	-1.062725	-0.628529
H72	H	0.982849	-0.229777	-1.106817
H73	H	0.982895	-1.062670	-0.385030
H74	H	0.836678	-0.375877	-1.106632
H75	H	0.836590	-0.661887	-0.628405
H76	H	0.269215	-0.376075	-0.628431
H77	H	0.670052	-0.376158	-0.628184
H78	H	0.982738	-0.661833	-0.384902
H79	H	0.149951	-0.376044	-0.628512
H80	H	0.550788	-0.376128	-0.628263
H81	H	0.982689	-0.542567	-0.384860
H82	H	0.836692	-0.943456	-0.628489
H83	H	0.836545	-0.542616	-0.628384
H84	H	0.269202	-0.229817	-0.385081
H85	H	0.982843	-0.943407	-0.384979
