data_functionalizedCrystal
_audit_creation_method	'MofGen! by Chris Wilmer'
_symmetry_space_group_name_H-M	'P1'
_symmetry_Int_Tables_number	1
_symmetry_cell_setting	triclinic
loop_
_symmetry_equiv_pos_as_xyz
  x,y,z
_cell_length_a	16.959455
_cell_length_b	12.645330
_cell_length_c	16.959447
_cell_angle_alpha	89.975203
_cell_angle_beta	89.982031
_cell_angle_gamma	90.014639
loop_
_atom_site_label
_atom_site_type_symbol
_atom_site_fract_x
_atom_site_fract_y
_atom_site_fract_z
Zn1	Zn	1.208425	-0.422118	-0.446932
Zn2	Zn	1.208345	-0.599406	-0.314763
Zn3	Zn	1.076245	-0.422147	-0.314770
Zn4	Zn	1.076224	-0.599331	-0.446902
O5	O	1.142310	-0.510750	-0.380842
O6	O	1.319026	-0.445655	-0.429410
O7	O	1.190797	-0.575936	-0.204153
O8	O	1.093822	-0.273796	-0.332316
O9	O	1.318966	-0.575907	-0.332306
O10	O	1.190934	-0.273775	-0.429416
O11	O	1.093744	-0.445705	-0.204158
O12	O	0.965632	-0.445632	-0.332287
O13	O	1.093785	-0.575779	-0.557517
O14	O	0.965616	-0.575808	-0.429364
O15	O	1.190913	-0.445582	-0.557539
O16	O	1.190776	-0.747743	-0.332277
O17	O	1.093707	-0.747688	-0.429358
C18	C	0.936944	-0.510716	-0.380824
C19	C	0.849087	-0.510726	-0.380835
C20	C	0.477595	-0.442912	-0.330399
C21	C	0.477628	-0.578676	-0.431329
C22	C	0.560174	-0.578661	-0.431325
C23	C	0.601434	-0.510771	-0.380855
C24	C	0.560149	-0.442897	-0.330391
C25	C	0.601465	-0.646541	-0.481782
C26	C	0.684016	-0.646529	-0.481779
C27	C	0.725278	-0.578634	-0.431313
C28	C	0.683988	-0.510756	-0.380847
C29	C	0.725248	-0.442867	-0.330378
C30	C	0.683959	-0.374983	-0.279916
C31	C	0.601411	-0.375002	-0.279925
C32	C	0.807826	-0.578615	-0.431304
C33	C	0.807802	-0.442852	-0.330370
C34	C	1.142252	-0.786180	-0.380831
C35	C	1.142300	-0.904010	-0.380852
C36	C	1.081486	-1.071584	-0.442115
C37	C	1.081175	-0.949024	-0.441918
C38	C	1.119753	-0.948603	-0.297551
C39	C	1.119382	-1.071201	-0.297922
C40	C	1.226033	-1.071106	-0.402216
C41	C	1.225519	-0.948499	-0.404038
C42	C	1.348478	-0.510786	-0.380860
C43	C	1.436335	-0.510802	-0.380868
C44	C	1.142356	-0.510669	-0.587010
C45	C	1.142375	-0.510634	-0.674867
C46	C	1.142389	-0.234245	-0.380870
C47	C	1.142423	-0.116415	-0.380882
C48	C	1.192917	-0.578422	-0.716140
C49	C	1.091848	-0.442820	-0.716147
C50	C	1.091861	-0.442789	-0.798693
C51	C	1.142403	-0.510576	-0.839966
C52	C	1.192930	-0.578395	-0.798693
C53	C	1.041329	-0.374979	-0.839972
C54	C	1.041340	-0.374946	-0.922523
C55	C	1.091886	-0.442729	-0.963798
C56	C	1.142416	-0.510549	-0.922520
C57	C	1.192957	-0.578337	-0.963793
C58	C	1.243492	-0.646153	-0.922517
C59	C	1.243476	-0.646178	-0.839968
C60	C	1.091902	-0.442704	-1.046346
C61	C	1.192971	-0.578310	-1.046347
C62	C	1.142310	-0.510755	-0.175475
C63	C	1.142443	-0.510491	-0.087619
H64	H	0.567865	-0.701820	-0.522866
H65	H	0.443974	-0.387640	-0.289316
H66	H	1.284640	-0.701349	-0.956132
Br67	Br	0.972777	-0.282941	-0.783956
H68	H	0.717564	-0.319713	-0.238821
H69	H	1.000192	-0.319725	-0.956123
H70	H	1.234063	-0.633633	-0.682529
H71	H	0.567786	-0.319736	-0.238841
H72	H	0.841440	-0.633888	-0.472387
H73	H	0.444028	-0.633954	-0.472414
H74	H	1.050756	-0.387491	-1.079949
Br75	Br	1.023277	-0.350804	-0.660133
Br76	Br	1.017514	-1.119021	-0.267799
Br77	Br	0.863792	-0.350703	-0.261879
H78	H	0.717626	-0.701803	-0.522869
Br79	Br	1.104684	-0.898761	-0.544869
Br80	Br	1.312055	-0.738201	-0.783946
H81	H	1.095462	-1.100997	-0.504085
Br82	Br	0.978822	-1.123106	-0.418880
H83	H	1.019190	-0.919785	-0.427784
H84	H	1.161840	-1.100861	-0.250744
Br85	Br	1.018944	-0.897583	-0.266880
H86	H	1.273311	-0.917852	-0.362687
H87	H	1.162730	-0.919447	-0.250681
H88	H	1.246601	-1.101951	-0.461927
H89	H	1.242523	-0.919349	-0.465343
Br90	Br	1.301706	-1.119447	-0.327897
H91	H	1.234131	-0.633507	-1.079945
