data_functionalizedCrystal
_audit_creation_method	'MofGen! by Chris Wilmer'
_symmetry_space_group_name_H-M	'P1'
_symmetry_Int_Tables_number	1
_symmetry_cell_setting	triclinic
loop_
_symmetry_equiv_pos_as_xyz
  x,y,z
_cell_length_a	11.026607
_cell_length_b	10.967829
_cell_length_c	9.130313
_cell_angle_alpha	102.134343
_cell_angle_beta	90.003461
_cell_angle_gamma	96.380563
loop_
_atom_site_label
_atom_site_type_symbol
_atom_site_fract_x
_atom_site_fract_y
_atom_site_fract_z
O1	O	1.614528	0.523522	0.253934
O2	O	2.114528	1.023522	0.753934
O3	O	1.260725	0.463909	0.238890
O4	O	1.760725	0.963909	0.738890
O5	O	1.445785	0.313896	0.201020
O6	O	1.945785	0.813896	0.701020
O7	O	1.429468	0.673534	0.291804
O8	O	1.929468	1.173534	0.791804
O9	O	1.445770	0.313880	-0.042583
O10	O	1.945770	0.813880	0.457417
O11	O	1.260709	0.463893	-0.004713
O12	O	1.760709	0.963893	0.495287
O13	O	1.614513	0.523506	0.010331
O14	O	2.114513	1.023506	0.510331
Cu15	Cu	1.437610	0.493698	-0.019434
Cu16	Cu	1.937610	0.993698	0.480566
Cu17	Cu	1.437628	0.493717	0.268655
Cu18	Cu	1.937628	0.993717	0.768655
O19	O	1.429453	0.673519	0.048201
O20	O	1.929453	1.173519	0.548201
C21	C	1.215415	0.452903	0.114313
C22	C	1.715415	0.952903	0.614313
C23	C	1.080427	0.420119	0.106039
C24	C	1.580427	0.920119	0.606039
C25	C	1.007377	0.510642	0.128891
C26	C	1.507377	1.010642	0.628891
C27	C	0.867860	0.476760	0.120340
C28	C	1.367860	0.976760	0.620340
C29	C	1.444589	0.267131	0.067419
C30	C	1.944589	0.767131	0.567419
C31	C	1.441033	0.127806	0.032258
C32	C	1.941033	0.627806	0.532258
C33	C	1.439456	0.065705	0.142778
C34	C	1.939456	0.565705	0.642778
C35	C	1.435781	-0.078294	0.106440
C36	C	1.935781	0.421706	0.606440
C37	C	1.659823	0.534511	0.134911
C38	C	2.159823	1.034511	0.634911
C39	C	1.794810	0.567295	0.143195
C40	C	2.294810	1.067295	0.643195
C41	C	1.430649	0.720284	0.181805
C42	C	1.930649	1.220284	0.681805
C43	C	1.434205	0.859608	0.216976
C44	C	1.934205	1.359608	0.716976
N45	N	1.437605	0.493686	-0.222059
N46	N	1.937605	0.993686	0.277941
C47	C	1.363271	0.401281	-0.475431
C48	C	1.863271	0.901281	0.024569
C49	C	1.363255	0.401260	-0.322099
C50	C	1.863255	0.901260	0.177901
C51	C	1.511985	0.586131	-0.275360
C52	C	2.011985	1.086131	0.224640
C53	C	1.512006	0.586145	-0.428690
C54	C	2.012006	1.086145	0.071310
N55	N	1.437642	0.493721	0.471278
N56	N	1.937642	0.993721	0.971278
H57	H	1.039681	0.317536	0.080182
H58	H	1.539681	0.817536	0.580182
H59	H	0.835550	0.669886	0.169082
H60	H	1.335550	1.169886	0.669082
H61	H	0.827119	0.374170	0.094481
H62	H	1.327119	0.874170	0.594481
C63	C	1.062404	0.649226	0.163877
C64	C	1.562404	1.149226	0.663877
H65	H	0.998480	0.701626	0.177097
H66	H	1.498480	1.201626	0.677097
H67	H	1.111339	0.665783	0.253003
H68	H	1.611339	1.165783	0.753003
H69	H	1.111323	0.665774	0.083094
H70	H	1.611323	1.165774	0.583094
C71	C	1.441310	0.137886	0.306945
C72	C	1.941310	0.637886	0.806945
H73	H	1.443545	0.225202	0.309831
H74	H	1.943545	0.725202	0.809831
H75	H	1.369996	0.110116	0.354536
H76	H	1.869996	0.610116	0.854536
H77	H	1.511553	0.122884	0.357746
H78	H	2.011553	0.622884	0.857746
C79	C	1.593766	0.687800	-0.165320
C80	C	2.093766	1.187800	0.334680
H81	H	1.583093	0.674562	-0.066367
H82	H	2.083093	1.174562	0.433633
H83	H	1.676760	0.683316	-0.191556
H84	H	2.176760	1.183316	0.308444
H85	H	1.571876	0.768255	-0.170136
H86	H	2.071876	1.268255	0.329864
C87	C	1.436065	-0.068218	0.381152
C88	C	1.936065	0.431782	0.881152
H89	H	1.438303	0.019099	0.384042
H90	H	1.938303	0.519099	0.884042
H91	H	1.364754	-0.095987	0.428748
H92	H	1.864754	0.404013	0.928748
H93	H	1.506311	-0.083224	0.431946
H94	H	2.006311	0.416776	0.931946
H95	H	1.572575	0.661423	-0.472078
H96	H	2.072575	1.161423	0.027922
H97	H	1.434403	-0.131730	-0.015089
H98	H	1.934403	0.368270	0.484911
C99	C	1.439180	0.055626	-0.131909
C100	C	1.939180	0.555626	0.368091
H101	H	1.436960	-0.031688	-0.134795
H102	H	1.936960	0.468312	0.365205
H103	H	1.368950	0.070632	-0.182717
H104	H	1.868950	0.570632	0.317283
H105	H	1.510507	0.083395	-0.179492
H106	H	2.010507	0.583395	0.320508
H107	H	1.302696	0.325985	-0.278719
H108	H	1.802696	0.825985	0.221281
H109	H	1.302720	0.326022	-0.556874
H110	H	1.802720	0.826022	-0.056874
