data_functionalizedCrystal
_audit_creation_method	'MofGen! by Chris Wilmer'
_symmetry_space_group_name_H-M	'P1'
_symmetry_Int_Tables_number	1
_symmetry_cell_setting	triclinic
loop_
_symmetry_equiv_pos_as_xyz
  x,y,z
_cell_length_a	6.817900
_cell_length_b	14.858572
_cell_length_c	11.168129
_cell_angle_alpha	93.498200
_cell_angle_beta	108.508637
_cell_angle_gamma	104.524003
loop_
_atom_site_label
_atom_site_type_symbol
_atom_site_fract_x
_atom_site_fract_y
_atom_site_fract_z
V1	V	-4.064039	-0.289968	-0.175499
V2	V	-3.730706	0.043365	0.157834
V3	V	-3.397372	0.376698	0.491167
O4	O	-4.024496	-0.284440	0.007616
O5	O	-3.691163	0.048893	0.340949
O6	O	-3.357830	0.382227	0.674282
O7	O	-4.040640	-0.287993	-0.347199
O8	O	-3.707306	0.045340	-0.013866
O9	O	-3.373973	0.378673	0.319467
O10	O	-4.020336	-0.416430	-0.173159
O11	O	-3.687003	-0.083097	0.160175
O12	O	-3.353669	0.250237	0.493508
O13	O	-4.044941	-0.155114	-0.167630
O14	O	-3.711608	0.178219	0.165704
O15	O	-3.378274	0.511552	0.499037
V16	V	-4.543819	-0.273838	-0.153554
V17	V	-4.210485	0.059496	0.179779
V18	V	-3.877152	0.392829	0.513112
O19	O	-4.333508	-0.325352	-0.223638
O20	O	-4.000175	0.007981	0.109696
O21	O	-3.666842	0.341315	0.443029
O22	O	-4.724546	-0.238454	-0.105416
O23	O	-4.391213	0.094879	0.227917
O24	O	-4.057880	0.428213	0.561251
O25	O	-4.344011	-0.275813	0.018146
O26	O	-4.010678	0.057520	0.351479
O27	O	-3.677345	0.390854	0.684812
O28	O	-4.700758	-0.279366	-0.336669
O29	O	-4.367425	0.053967	-0.003336
O30	O	-4.034091	0.387301	0.329997
O31	O	-4.680314	-0.408692	-0.161424
O32	O	-4.346980	-0.075358	0.171909
O33	O	-4.013647	0.257975	0.505243
O34	O	-4.364315	-0.147376	-0.155895
O35	O	-4.030982	0.185957	0.177438
O36	O	-3.697648	0.519290	0.510772
C37	C	-3.891571	-0.283421	-0.389045
C38	C	-3.558237	0.049912	-0.055712
C39	C	-3.224904	0.383246	0.277622
C40	C	-3.953757	-0.282649	-0.529414
C41	C	-3.620424	0.050684	-0.196081
C42	C	-3.287091	0.384018	0.137252
C43	C	-3.937465	-0.201368	-0.574637
C44	C	-3.604131	0.131965	-0.241304
C45	C	-3.270798	0.465299	0.092029
C46	C	-4.001737	-0.200568	-0.719716
C47	C	-3.668403	0.132765	-0.386383
C48	C	-3.335070	0.466098	-0.053049
C49	C	-3.865670	-0.447253	-0.167037
C50	C	-3.532336	-0.113920	0.166296
C51	C	-3.199003	0.219413	0.499630
C52	C	-3.911387	-0.550636	-0.166259
C53	C	-3.578053	-0.217303	0.167074
C54	C	-3.244720	0.116030	0.500407
C55	C	-4.078712	-0.929204	-0.163417
C56	C	-3.745379	-0.595871	0.169916
C57	C	-3.412045	-0.262538	0.503249
C58	C	-4.032149	-0.823875	-0.164208
C59	C	-3.698815	-0.490542	0.169125
C60	C	-3.365482	-0.157208	0.502459
C61	C	-3.995051	-0.739924	-0.164839
C62	C	-3.661718	-0.406591	0.168494
C63	C	-3.328384	-0.073257	0.501827
C64	C	-3.948484	-0.634588	-0.165628
C65	C	-3.615151	-0.301254	0.167705
C66	C	-3.281818	0.032079	0.501039
C67	C	-4.156423	-0.280383	0.059985
C68	C	-3.823090	0.052951	0.393318
C69	C	-3.489757	0.386284	0.726651
C70	C	-4.073475	-0.281161	0.200353
C71	C	-3.740142	0.052173	0.533686
C72	C	-3.406809	0.385506	0.867019
C73	C	-4.182324	-0.116548	-0.162021
C74	C	-3.848991	0.216786	0.171313
C75	C	-3.515657	0.550119	0.504646
C76	C	-4.115845	-0.013164	-0.162792
C77	C	-3.782511	0.320170	0.170541
C78	C	-3.449178	0.653503	0.503875
H79	H	-3.875945	-0.132373	-0.505949
H80	H	-3.542612	0.200960	-0.172616
H81	H	-3.209278	0.534294	0.160718
H82	H	-4.015295	-0.351644	-0.598103
H83	H	-3.681961	-0.018311	-0.264770
H84	H	-3.348628	0.315022	0.068564
H85	H	-4.087313	-0.350753	-0.760699
H86	H	-3.753979	-0.017419	-0.427365
H87	H	-3.420646	0.315914	-0.094032
H88	H	-3.987881	-0.130979	-0.758673
H89	H	-3.654548	0.202354	-0.425339
H90	H	-3.321214	0.535687	-0.092006
