data_functionalizedCrystal
_audit_creation_method	'MofGen! by Chris Wilmer'
_symmetry_space_group_name_H-M	'P1'
_symmetry_Int_Tables_number	1
_symmetry_cell_setting	triclinic
loop_
_symmetry_equiv_pos_as_xyz
  x,y,z
_cell_length_a	10.654538
_cell_length_b	16.974823
_cell_length_c	9.730223
_cell_angle_alpha	86.341869
_cell_angle_beta	89.991909
_cell_angle_gamma	83.935778
loop_
_atom_site_label
_atom_site_type_symbol
_atom_site_fract_x
_atom_site_fract_y
_atom_site_fract_z
O1	O	-1.666123	-0.111009	0.126714
O2	O	-1.300478	-0.121599	0.127877
O3	O	-1.493496	-0.001257	0.114491
O4	O	-1.473106	-0.231352	0.140100
O5	O	-1.493474	-0.001257	-0.114088
O6	O	-1.300456	-0.121600	-0.100702
O7	O	-1.666102	-0.111010	-0.101866
Zn8	Zn	-1.483276	-0.116305	-0.137576
Zn9	Zn	-1.483304	-0.116304	0.163588
O10	O	-1.473084	-0.231353	-0.088480
C11	C	-1.253681	-0.120824	0.013499
C12	C	-1.114273	-0.118504	0.013236
C13	C	-1.048807	-0.117405	0.137717
C14	C	-0.917820	-0.115218	0.137481
C15	C	-0.917777	-0.115226	-0.111729
C16	C	-1.048761	-0.117418	-0.111491
C17	C	-1.114320	-0.118491	0.262443
C18	C	-1.048854	-0.117391	0.386934
C19	C	-0.917867	-0.115204	0.386698
C20	C	-0.852345	-0.114117	0.261971
C21	C	-1.492710	0.028206	-0.003075
C22	C	-1.490385	0.115995	-0.012837
C23	C	-0.712898	-0.111790	0.012508
C24	C	-0.852303	-0.114124	0.012762
C25	C	-1.489308	0.157235	0.107175
C26	C	-1.487115	0.239722	0.097998
C27	C	-1.486009	0.280968	-0.031192
C28	C	-1.487083	0.239723	-0.151213
C29	C	-1.489266	0.157236	-0.142034
C30	C	-1.479470	0.527665	-0.072003
C31	C	-1.477290	0.610157	-0.081172
C32	C	-1.477320	0.610150	0.168039
C33	C	-1.479511	0.527663	0.177206
C34	C	-1.480578	0.486424	0.057186
N35	N	-1.483772	0.365283	-0.040575
N36	N	-1.482806	0.402110	0.066570
N37	N	-1.483265	-0.116305	-0.343113
C38	C	-1.473875	0.739185	0.029084
C39	C	-1.476212	0.651397	0.038839
C40	C	-1.559386	-0.164698	-0.553525
C41	C	-1.559353	-0.164704	-0.409642
C42	C	-1.407196	-0.067903	-0.420474
C43	C	-1.407222	-0.067902	-0.564355
C44	C	-1.635488	-0.213094	-0.620047
C45	C	-1.711556	-0.261497	-0.542695
C46	C	-1.711524	-0.261503	-0.398812
C47	C	-1.635423	-0.213106	-0.332280
N48	N	-1.483325	-0.116298	0.369123
H49	H	-1.102208	-0.118283	0.488483
H50	H	-1.486243	0.273296	0.195724
F51	F	-1.792462	-0.313029	-0.316491
F52	F	-1.635532	-0.213089	-0.773180
F53	F	-1.253728	-0.120815	0.262704
F54	F	-1.476183	0.654046	0.295764
H55	H	-1.476383	0.643737	-0.186380
F56	F	-1.326268	-0.016390	-0.646682
H57	H	-1.480363	0.494100	-0.169733
F58	F	-0.712934	-0.111799	0.261727
F59	F	-1.485892	0.283621	-0.288707
H60	H	-1.490126	0.123659	-0.239761
F61	F	-0.848194	-0.114043	0.519191
F62	F	-1.490493	0.113345	0.244678
F63	F	-0.848041	-0.114066	-0.244463
H64	H	-1.102064	-0.118317	-0.212854
F65	F	-1.480690	0.483772	0.314708
F66	F	-1.792531	-0.313009	-0.613504
F67	F	-1.635378	-0.213124	-0.179143
F68	F	-1.326212	-0.016398	-0.349662
