data_functionalizedCrystal
_audit_creation_method	'MofGen! by Chris Wilmer'
_symmetry_space_group_name_H-M	'P1'
_symmetry_Int_Tables_number	1
_symmetry_cell_setting	triclinic
loop_
_symmetry_equiv_pos_as_xyz
  x,y,z
_cell_length_a	16.992694
_cell_length_b	14.853567
_cell_length_c	16.053802
_cell_angle_alpha	92.572962
_cell_angle_beta	87.249047
_cell_angle_gamma	87.151577
loop_
_atom_site_label
_atom_site_type_symbol
_atom_site_fract_x
_atom_site_fract_y
_atom_site_fract_z
O1	O	1.043898	0.187626	-0.069313
O2	O	0.815612	0.185528	-0.069338
O3	O	0.935853	0.055778	-0.069327
O4	O	0.923657	0.317376	-0.069323
O5	O	0.929234	0.062888	0.069531
O6	O	0.808993	0.192638	0.069521
O7	O	1.037280	0.194737	0.069545
Zn8	Zn	0.922086	0.194816	0.091580
Zn9	Zn	0.930806	0.185448	-0.091372
O10	O	0.917038	0.324487	0.069535
C11	C	0.783087	0.186385	0.000088
C12	C	0.696035	0.178334	0.000078
C13	C	0.645879	0.256009	0.000080
C14	C	0.564083	0.248440	0.000092
C15	C	0.532446	0.163195	0.000095
C16	C	0.582608	0.085513	0.000096
C17	C	0.664401	0.093084	0.000091
C18	C	0.288813	0.131819	0.000117
C19	C	0.207013	0.124255	0.000120
C20	C	0.188494	0.287183	0.000117
C21	C	0.270290	0.294745	0.000107
C22	C	0.320445	0.217064	0.000112
N23	N	0.448838	0.155456	0.000104
N24	N	0.404051	0.224804	0.000109
C25	C	0.931991	0.025705	0.000099
C26	C	0.930335	-0.074496	0.000092
C27	C	0.851909	-0.492567	0.000099
C28	C	0.994758	-0.503761	0.000115
C29	C	0.996315	-0.409617	0.000110
C30	C	0.925668	-0.356944	0.000101
C31	C	0.853464	-0.398414	0.000097
C32	C	1.068518	-0.368139	0.000123
C33	C	1.070078	-0.273990	0.000119
C34	C	0.999430	-0.221316	0.000104
C35	C	0.927223	-0.262792	0.000099
C36	C	0.856576	-0.210118	0.000090
C37	C	0.784368	-0.251593	0.000079
C38	C	0.782816	-0.345740	0.000082
C39	C	1.000983	-0.127169	0.000101
C40	C	0.858131	-0.115966	0.000088
C41	C	1.069804	0.193880	0.000118
C42	C	1.156857	0.201930	0.000122
C43	C	0.920900	0.354559	0.000106
C44	C	0.922556	0.454760	0.000108
N45	N	0.916140	0.201210	0.216440
N46	N	0.936757	0.179048	-0.216232
C47	C	0.967322	0.146023	0.260138
C48	C	0.963170	0.150505	0.347544
C49	C	0.907840	0.210178	0.391251
C50	C	0.856653	0.265367	0.347546
C51	C	0.860801	0.260880	0.260141
C52	C	0.889719	0.229750	0.652659
C53	C	0.885576	0.234235	0.740070
C54	C	0.992092	0.119371	0.740062
C55	C	0.996239	0.114894	0.652655
C56	C	0.945049	0.170079	0.608958
N57	N	0.903597	0.214762	0.480594
N58	N	0.949289	0.165490	0.519617
H59	H	0.523249	0.311692	0.000092
H60	H	0.819123	0.305817	0.224563
O61	O	0.802868	0.323211	0.390094
C62	C	0.752034	0.273999	0.440650
H63	H	0.782570	0.206391	0.453745
H64	H	0.736754	0.313885	0.502112
H65	H	0.695672	0.261930	0.406976
O66	O	1.012869	0.096773	0.389896
C67	C	1.001043	0.005494	0.368561
H68	H	0.973824	0.000147	0.305107
H69	H	1.060086	-0.034762	0.365559
H70	H	0.959659	-0.022713	0.417765
H71	H	1.052275	-0.546652	0.000129
O72	O	0.300888	0.377625	0.000145
C73	C	0.239079	0.444561	0.000129
H74	H	0.182239	0.416632	0.026421
H75	H	0.254320	0.505787	0.040442
H76	H	0.230698	0.465392	-0.066488
O77	O	1.050008	0.056845	0.610331
C78	C	1.094306	0.009111	0.667644
H79	H	1.059201	0.008951	0.729954
H80	H	1.107392	-0.063318	0.642394
H81	H	1.152145	0.043100	0.676929
H82	H	1.126034	-0.411032	0.000138
H83	H	0.181257	0.054834	0.000122
O84	O	0.831926	0.292301	0.782561
C85	C	0.871573	0.353566	0.833121
H86	H	0.934662	0.358239	0.806771
H87	H	0.839603	0.422951	0.834109
H88	H	0.872513	0.329050	0.899366
H89	H	0.724028	-0.379517	0.000074
O90	O	0.676476	0.338889	0.000113
C91	C	0.614664	0.405822	0.000097
H92	H	0.557826	0.377889	0.026390
H93	H	0.629902	0.467049	0.040410
H94	H	0.606281	0.426653	-0.066519
O95	O	0.789549	-0.064702	0.000189
C96	C	0.782732	-0.006241	0.072116
H97	H	0.843834	0.004232	0.096103
H98	H	0.754367	0.061505	0.055938
H99	H	0.744484	-0.037183	0.122468
H100	H	1.128874	-0.240230	0.000127
H101	H	0.793119	-0.526340	0.000087
H102	H	0.147649	0.350426	0.000115
O103	O	0.715772	-0.200391	-0.000077
C104	C	0.715842	-0.149260	-0.071980
H105	H	0.758298	-0.183388	-0.122241
H106	H	0.653840	-0.144465	-0.096128
H107	H	0.735443	-0.078583	-0.055714
H108	H	1.059773	-0.093404	0.000115
H109	H	1.012380	0.097435	0.224558
O110	O	1.041728	0.065797	0.782639
C111	C	1.026219	0.082565	0.869157
H112	H	0.963347	0.112344	0.881102
H113	H	1.033293	0.016623	0.902378
H114	H	1.069473	0.132284	0.893951
H115	H	0.848039	0.274686	0.617088
H116	H	0.329640	0.068566	0.000122
H117	H	0.556842	0.016105	0.000111
H118	H	0.705238	0.029832	0.000089
