data_functionalizedCrystal
_audit_creation_method	'MofGen! by Chris Wilmer'
_symmetry_space_group_name_H-M	'P1'
_symmetry_Int_Tables_number	1
_symmetry_cell_setting	triclinic
loop_
_symmetry_equiv_pos_as_xyz
  x,y,z
_cell_length_a	21.395362
_cell_length_b	29.839131
_cell_length_c	21.395356
_cell_angle_alpha	89.970658
_cell_angle_beta	89.957023
_cell_angle_gamma	90.057297
loop_
_atom_site_label
_atom_site_type_symbol
_atom_site_fract_x
_atom_site_fract_y
_atom_site_fract_z
Zn1	Zn	0.957807	-0.178674	-0.354578
Zn2	Zn	0.957692	-0.253802	-0.249798
Zn3	Zn	0.853024	-0.178707	-0.249780
Zn4	Zn	0.852972	-0.253799	-0.354503
O5	O	0.905373	-0.216245	-0.302165
O6	O	1.045470	-0.188627	-0.340718
O7	O	0.943781	-0.243855	-0.162117
O8	O	0.866994	-0.115836	-0.263706
O9	O	1.045385	-0.243823	-0.263737
O10	O	0.943977	-0.115812	-0.340701
O11	O	0.866882	-0.188684	-0.162104
O12	O	0.765339	-0.188681	-0.263632
O13	O	0.866905	-0.243818	-0.442191
O14	O	0.765301	-0.243850	-0.340571
O15	O	0.943927	-0.188625	-0.442246
O16	O	0.943730	-0.316668	-0.263663
O17	O	0.866793	-0.316666	-0.340589
C18	C	0.742586	-0.216269	-0.302092
C19	C	0.672944	-0.216290	-0.302076
C20	C	0.905260	-0.332968	-0.302133
C21	C	0.905269	-0.382903	-0.302141
C22	C	0.640228	-0.245055	-0.342078
C23	C	0.574792	-0.245044	-0.342106
C24	C	0.542076	-0.216273	-0.302120
C25	C	0.574801	-0.187503	-0.262115
C26	C	0.640235	-0.187511	-0.262093
C27	C	0.438353	-0.212660	-0.245715
C28	C	0.372920	-0.212655	-0.245736
C29	C	0.340256	-0.216244	-0.302189
C30	C	0.373032	-0.219847	-0.358623
C31	C	0.438466	-0.219856	-0.358601
C32	C	0.471124	-0.216260	-0.302140
C33	C	0.236586	-0.244998	-0.342226
C34	C	0.171150	-0.244984	-0.342254
C35	C	0.171159	-0.187445	-0.262258
C36	C	0.236595	-0.187457	-0.262235
C37	C	0.269304	-0.216236	-0.302218
C38	C	0.945508	-0.692534	-0.262168
C39	C	0.945585	-0.880207	-0.262192
O40	O	0.979707	-0.904462	-0.228181
N41	N	0.905503	-0.903687	-0.302212
C42	C	0.865403	-0.880247	-0.342231
O43	O	0.831317	-0.904524	-0.376276
C44	C	0.865329	-0.692574	-0.342210
C45	C	0.905409	-0.669097	-0.302183
C46	C	0.985585	-0.669056	-0.222145
C47	C	0.985562	-0.622141	-0.222137
C48	C	0.945463	-0.598703	-0.262152
C49	C	0.905386	-0.622181	-0.302175
C50	C	0.825232	-0.669134	-0.382232
C51	C	0.825218	-0.622213	-0.382224
C52	C	0.865298	-0.598736	-0.342197
C53	C	0.865265	-0.551828	-0.342182
N54	N	0.905347	-0.528348	-0.302162
C55	C	0.945446	-0.551786	-0.262147
C56	C	0.865443	-0.978777	-0.342239
C57	C	0.865461	-1.025695	-0.342244
C58	C	0.945644	-1.025652	-0.262205
C59	C	0.945623	-0.978734	-0.262198
C60	C	0.905525	-0.955297	-0.302219
C61	C	0.945396	-0.453260	-0.262132
C62	C	0.945368	-0.406340	-0.262126
C63	C	0.865188	-0.406387	-0.342167
C64	C	0.865212	-0.453302	-0.342171
C65	C	0.905322	-0.476738	-0.302152
O66	O	0.831166	-0.527544	-0.376180
O67	O	0.979536	-0.527500	-0.228117
C68	C	0.945530	-0.739450	-0.262176
C69	C	0.905453	-0.762928	-0.302199
C70	C	0.865354	-0.739490	-0.342214
C71	C	0.905470	-0.809845	-0.302204
C72	C	0.945569	-0.833283	-0.262189
C73	C	0.985651	-0.809803	-0.222169
C74	C	0.985629	-0.762887	-0.222161
C75	C	0.825272	-0.762970	-0.382234
C76	C	0.825297	-0.809886	-0.382238
C77	C	0.865396	-0.833323	-0.342223
C78	C	1.068797	-0.216222	-0.302238
C79	C	1.138438	-0.216212	-0.302269
C80	C	0.905423	-0.216218	-0.465588
C81	C	0.905444	-0.216206	-0.535229
C82	C	0.905504	-0.099067	-0.302210
C83	C	0.905560	-0.049133	-0.302229
C84	C	0.865413	-0.187475	-0.567926
C85	C	0.865411	-0.187466	-0.633361
C86	C	0.905451	-0.216184	-0.666098
C87	C	0.945484	-0.244921	-0.633393
C88	C	0.945481	-0.244932	-0.567959
C89	C	0.961902	-0.219705	-0.769803
C90	C	0.961906	-0.219691	-0.835236
C91	C	0.905461	-0.216154	-0.867918
C92	C	0.849010	-0.212621	-0.835160
C93	C	0.849006	-0.212632	-0.769726
C94	C	0.905459	-0.216176	-0.737050
C95	C	0.865425	-0.187412	-0.971567
C96	C	0.865422	-0.187407	-1.037004
C97	C	0.945500	-0.244860	-1.037035
C98	C	0.945498	-0.244867	-0.971600
C99	C	0.905461	-0.216141	-0.938870
C100	C	0.905360	-0.216241	-0.139377
C101	C	0.905461	-0.216126	-0.069736
H102	H	0.666856	-0.268489	-0.374636
H103	H	0.144523	-0.164017	-0.229704
C104	C	0.821375	-0.155857	-0.669334
N105	N	0.788209	-0.132047	-0.696427
H106	H	0.263220	-0.268429	-0.374785
C107	C	0.989715	-0.952913	-0.218167
N108	N	1.022929	-0.933466	-0.185003
C109	C	1.029759	-0.835593	-0.178151
N110	N	1.062982	-0.855021	-0.145002
C111	C	1.024004	-0.223577	-0.871264
N112	N	1.070777	-0.226505	-0.898399
C113	C	1.029649	-0.596322	-0.178098
N114	N	1.062855	-0.576877	-0.144925
H115	H	1.018241	-0.688134	-0.189559
C116	C	0.989458	-0.380517	-0.218089
N117	N	1.022665	-0.361069	-0.184920
H118	H	0.792654	-0.828997	-0.414832
C119	C	0.786910	-0.208750	-0.733694
N120	N	0.740138	-0.205829	-0.706555
C121	C	0.781174	-0.737195	-0.426273
N122	N	0.747961	-0.717783	-0.459451
H123	H	0.978085	-0.268304	-0.660052
H124	H	0.978081	-0.268328	-0.541338
C125	C	0.821366	-0.155879	-0.531926
N126	N	0.788188	-0.132082	-0.504811
C127	C	0.272584	-0.155817	-0.218223
N128	N	0.299692	-0.131983	-0.185071
C129	C	0.821384	-0.155798	-1.072970
N130	N	0.788216	-0.131987	-1.100060
H131	H	0.832824	-0.164022	-0.944917
H132	H	0.978103	-0.268241	-1.063689
C133	C	0.538797	-0.276690	-0.386111
N134	N	0.511687	-0.300527	-0.419255
H135	H	0.465149	-0.222789	-0.404551
H136	H	0.346239	-0.209723	-0.199785
C137	C	0.786914	-0.208734	-0.871106
N138	N	0.740145	-0.205807	-0.898183
C139	C	0.989557	-0.276458	-0.935632
N140	N	1.022750	-0.300251	-0.908542
H141	H	0.346437	-0.222769	-0.404593
C142	C	0.135162	-0.276633	-0.386257
N143	N	0.108055	-0.300474	-0.419398
C144	C	0.474278	-0.208714	-0.183608
N145	N	0.501336	-0.205742	-0.136830
H146	H	1.007870	-0.222582	-0.743198
C147	C	0.538812	-0.155854	-0.218131
N148	N	0.511705	-0.132015	-0.185002
C149	C	0.676224	-0.155869	-0.218082
N150	N	0.703333	-0.132036	-0.184930
H151	H	0.978058	-0.472335	-0.229546
H152	H	0.978295	-1.044743	-0.229623
C153	C	0.821364	-1.051515	-0.386270
N154	N	0.788151	-1.070962	-0.419436
C155	C	1.029718	-0.737068	-0.178125
N156	N	1.062928	-0.717624	-0.144955
H157	H	0.832789	-0.959698	-0.374830
H158	H	0.792591	-0.688242	-0.414823
C159	C	0.781106	-0.596436	-0.426252
N160	N	0.747879	-0.577021	-0.459413
C161	C	0.821121	-0.479129	-0.386200
N162	N	0.787915	-0.498578	-0.419369
H163	H	0.832537	-0.387297	-0.374745
