data_functionalizedCrystal
_audit_creation_method	'MofGen! by Chris Wilmer'
_symmetry_space_group_name_H-M	'P1'
_symmetry_Int_Tables_number	1
_symmetry_cell_setting	triclinic
loop_
_symmetry_equiv_pos_as_xyz
  x,y,z
_cell_length_a	18.050589
_cell_length_b	18.101398
_cell_length_c	18.101389
_cell_angle_alpha	90.006642
_cell_angle_beta	89.982037
_cell_angle_gamma	89.976974
loop_
_atom_site_label
_atom_site_type_symbol
_atom_site_fract_x
_atom_site_fract_y
_atom_site_fract_z
Zn1	Zn	-0.295811	-1.132121	-0.418550
Zn2	Zn	0.037522	-0.798788	-0.085217
Zn3	Zn	0.370855	-0.465455	0.248116
Zn4	Zn	-0.419994	-1.132028	-0.294719
Zn5	Zn	-0.086661	-0.798694	0.038615
Zn6	Zn	0.246672	-0.465361	0.371948
Zn7	Zn	-0.295811	-1.008285	-0.294746
Zn8	Zn	0.037522	-0.674951	0.038588
Zn9	Zn	0.370855	-0.341618	0.371921
Zn10	Zn	-0.419953	-1.008237	-0.418541
Zn11	Zn	-0.086619	-0.674904	-0.085208
Zn12	Zn	0.246714	-0.341571	0.248126
O13	O	-0.357892	-1.070168	-0.356639
O14	O	-0.024559	-0.736835	-0.023306
O15	O	0.308774	-0.403501	0.310028
O16	O	-0.312302	-1.235742	-0.402117
O17	O	0.021031	-0.902409	-0.068783
O18	O	0.354365	-0.569075	0.264550
O19	O	-0.403538	-1.115594	-0.191089
O20	O	-0.070205	-0.782260	0.142244
O21	O	0.263128	-0.448927	0.475577
O22	O	-0.191887	-1.024771	-0.311184
O23	O	0.141447	-0.691438	0.022149
O24	O	0.474780	-0.358104	0.355483
O25	O	-0.403538	-1.235673	-0.311138
O26	O	-0.070205	-0.902340	0.022196
O27	O	0.263128	-0.569006	0.355529
O28	O	-0.191887	-1.115753	-0.402143
O29	O	0.141447	-0.782420	-0.068809
O30	O	0.474780	-0.449087	0.264524
O31	O	-0.312302	-1.024680	-0.191109
O32	O	0.021032	-0.691347	0.142224
O33	O	0.354365	-0.358013	0.475558
O34	O	-0.312262	-0.904646	-0.311175
O35	O	0.021072	-0.571312	0.022159
O36	O	0.354405	-0.237979	0.355492
O37	O	-0.403468	-1.024690	-0.522175
O38	O	-0.070135	-0.691357	-0.188842
O39	O	0.263199	-0.358024	0.144491
O40	O	-0.403468	-0.904611	-0.402127
O41	O	-0.070134	-0.571277	-0.068793
O42	O	0.263199	-0.237944	0.264540
O43	O	-0.312262	-1.115707	-0.522182
O44	O	0.021072	-0.782374	-0.188849
O45	O	0.354405	-0.449041	0.144484
O46	O	-0.523913	-1.115548	-0.311129
O47	O	-0.190580	-0.782214	0.022205
O48	O	0.142753	-0.448881	0.355538
O49	O	-0.523883	-1.024599	-0.402100
O50	O	-0.190550	-0.691266	-0.068767
O51	O	0.142784	-0.357933	0.264566
C52	C	-0.357861	-0.877757	-0.356653
C53	C	-0.024527	-0.544424	-0.023320
C54	C	0.308806	-0.211091	0.310014
C55	C	-0.357865	-0.795443	-0.356677
C56	C	-0.024532	-0.462110	-0.023343
C57	C	0.308802	-0.128777	0.309990
C58	C	-0.357905	-0.496352	-0.356652
C59	C	-0.024571	-0.163019	-0.023319
C60	C	0.308762	0.170314	0.310015
C61	C	-0.415567	-0.527680	-0.413593
C62	C	-0.082234	-0.194347	-0.080260
C63	C	0.251100	0.138986	0.253073
C64	C	-0.415388	-0.613299	-0.413826
C65	C	-0.082054	-0.279965	-0.080492
C66	C	0.251279	0.053368	0.252841
C67	C	-0.357886	-0.644735	-0.356664
C68	C	-0.024552	-0.311401	-0.023331
C69	C	0.308781	0.021932	0.310002
C70	C	-0.279666	-0.613676	-0.377987
C71	C	0.053668	-0.280342	-0.044653
C72	C	0.387001	0.052991	0.288680
C73	C	-0.280011	-0.528031	-0.378393
C74	C	0.053323	-0.194697	-0.045060
C75	C	0.386656	0.138636	0.288273
C76	C	-0.377773	-0.527903	-0.278250
C77	C	-0.044440	-0.194570	0.055083
C78	C	0.288893	0.138763	0.388417
C79	C	-0.379491	-0.613553	-0.278667
C80	C	-0.046157	-0.280220	0.054666
C81	C	0.287176	0.053113	0.387999
C82	C	-0.357870	-0.728594	-0.356670
C83	C	-0.024537	-0.395261	-0.023337
C84	C	0.308797	-0.061928	0.309997
C85	C	-0.357915	-0.412493	-0.356648
C86	C	-0.024582	-0.079159	-0.023315
C87	C	0.308752	0.254174	0.310019
C88	C	-0.550845	-1.070078	-0.356627
C89	C	-0.217511	-0.736745	-0.023293
C90	C	0.115822	-0.403412	0.310040
C91	C	-0.633390	-1.070108	-0.356646
C92	C	-0.300057	-0.736775	-0.023313
C93	C	0.033276	-0.403441	0.310021
C94	C	-0.832851	-1.020699	-0.406099
C95	C	-0.499518	-0.687366	-0.072766
C96	C	-0.166185	-0.354032	0.260567
C97	C	-0.882283	-1.002649	-0.338526
C98	C	-0.548950	-0.669316	-0.005192
C99	C	-0.215617	-0.335983	0.328141
C100	C	-0.784521	-1.070181	-0.356656
C101	C	-0.451187	-0.736847	-0.023322
C102	C	-0.117854	-0.403514	0.310011
C103	C	-0.882170	-1.088267	-0.424237
C104	C	-0.548837	-0.754933	-0.090904
C105	C	-0.215504	-0.421600	0.242429
C106	C	-0.930506	-1.070250	-0.356671
C107	C	-0.597172	-0.736916	-0.023338
C108	C	-0.263839	-0.403583	0.309996
C109	C	-0.832866	-1.052096	-0.289046
C110	C	-0.499532	-0.718762	0.044287
C111	C	-0.166199	-0.385429	0.377620
C112	C	-0.832748	-1.137744	-0.374804
C113	C	-0.499415	-0.804411	-0.041470
C114	C	-0.166081	-0.471078	0.291863
C115	C	-0.882158	-1.119720	-0.307183
C116	C	-0.548824	-0.786387	0.026150
C117	C	-0.215491	-0.453054	0.359483
C118	C	-0.700422	-1.070139	-0.356648
C119	C	-0.367089	-0.736806	-0.023315
C120	C	-0.033756	-0.403472	0.310019
C121	C	-1.014602	-1.070291	-0.356671
C122	C	-0.681269	-0.736958	-0.023338
C123	C	-0.347936	-0.403625	0.309995
C124	C	-0.164187	-1.070278	-0.356667
C125	C	0.169147	-0.736944	-0.023334
C126	C	0.502480	-0.403611	0.309999
C127	C	-0.081641	-1.070325	-0.356680
C128	C	0.251692	-0.736991	-0.023346
C129	C	0.585026	-0.403658	0.309987
C130	C	-0.357860	-1.070204	-0.549801
C131	C	-0.024527	-0.736871	-0.216468
C132	C	0.308806	-0.403537	0.116866
C133	C	-0.357847	-1.070220	-0.632115
C134	C	-0.024513	-0.736886	-0.298782
C135	C	0.308820	-0.403553	0.034552
C136	C	-0.357921	-0.263330	-0.356630
C137	C	-0.024588	0.070004	-0.023297
C138	C	0.308745	0.403337	0.310037
C139	C	-0.357925	-0.345644	-0.356639
C140	C	-0.024592	-0.012310	-0.023306
C141	C	0.308741	0.321023	0.310027
C142	C	-0.357789	-1.070247	-0.782824
C143	C	-0.024455	-0.736914	-0.449490
C144	C	0.308878	-0.403581	-0.116157
C145	C	-0.415162	-1.012991	-0.814173
C146	C	-0.081828	-0.679658	-0.480840
C147	C	0.251505	-0.346324	-0.147506
C148	C	-0.414960	-1.012783	-0.899791
C149	C	-0.081627	-0.679449	-0.566458
C150	C	0.251707	-0.346116	-0.233125
C151	C	-0.357733	-1.070275	-0.931206
C152	C	-0.024400	-0.736941	-0.597873
C153	C	0.308934	-0.403608	-0.264540
C154	C	-0.279417	-1.049384	-0.900122
C155	C	0.053917	-0.716051	-0.566788
C156	C	0.387250	-0.382717	-0.233455
C157	C	-0.279781	-1.048952	-0.814477
C158	C	0.053553	-0.715619	-0.481143
C159	C	0.386886	-0.382286	-0.147810
C160	C	-0.378036	-1.148545	-0.814379
C161	C	-0.044703	-0.815211	-0.481045
C162	C	0.288631	-0.481878	-0.147712
C163	C	-0.379730	-1.148141	-0.900029
C164	C	-0.046397	-0.814807	-0.566696
C165	C	0.286936	-0.481474	-0.233363
C166	C	-0.357697	-1.070291	-1.015066
C167	C	-0.024364	-0.736958	-0.681732
C168	C	0.308970	-0.403625	-0.348399
C169	C	-0.357820	-1.070229	-0.698964
C170	C	-0.024486	-0.736895	-0.365631
C171	C	0.308847	-0.403562	-0.032297
C172	C	-0.357871	-1.070174	-0.164228
C173	C	-0.024538	-0.736841	0.169105
C174	C	0.308796	-0.403508	0.502438
C175	C	-0.357675	-1.070302	-0.081915
C176	C	-0.024342	-0.736969	0.251419
C177	C	0.308991	-0.403636	0.584752
H178	H	-0.235539	-0.634039	-0.337806
H179	H	0.097794	-0.300706	-0.004472
H180	H	0.431127	0.032628	0.328861
O181	O	-0.322141	-0.501067	-0.222050
O182	O	0.011192	-0.167734	0.111284
O183	O	0.344526	0.165599	0.444617
H184	H	-0.336539	-0.523581	-0.166851
H185	H	-0.003205	-0.190247	0.166482
H186	H	0.330128	0.143086	0.499816
O187	O	-0.804298	-1.031781	-0.213328
O188	O	-0.470965	-0.698447	0.120005
O189	O	-0.137631	-0.365114	0.453339
H190	H	-0.824506	-1.072654	-0.172307
H191	H	-0.491172	-0.739320	0.161026
H192	H	-0.157839	-0.405987	0.494360
O193	O	-0.398377	-0.499194	-0.490100
O194	O	-0.065044	-0.165860	-0.156767
O195	O	0.268289	0.167473	0.176567
H196	H	-0.387105	-0.546520	-0.527449
H197	H	-0.053771	-0.213186	-0.194115
H198	H	0.279562	0.120147	0.139218
H199	H	-0.903671	-1.161595	-0.265329
H200	H	-0.570338	-0.828262	0.068005
H201	H	-0.237004	-0.494928	0.401338
H202	H	-0.810975	-1.194836	-0.390172
H203	H	-0.477642	-0.861502	-0.056838
H204	H	-0.144308	-0.528169	0.276495
H205	H	-0.433835	-0.506293	-0.258873
H206	H	-0.100501	-0.172960	0.074461
H207	H	0.232832	0.160373	0.407794
H208	H	-0.262509	-0.635138	-0.434678
H209	H	0.070824	-0.301804	-0.101344
H210	H	0.404158	0.031529	0.231989
H211	H	-0.434193	-1.167606	-0.792778
H212	H	-0.100859	-0.834273	-0.459444
H213	H	0.232474	-0.500939	-0.126111
H214	H	-0.437368	-1.163897	-0.920343
H215	H	-0.104035	-0.830564	-0.587010
H216	H	0.229298	-0.497231	-0.253677
H217	H	-0.235560	-1.088857	-0.793738
H218	H	0.097773	-0.755523	-0.460404
H219	H	0.431107	-0.422190	-0.127071
O220	O	-0.911107	-0.927008	-0.318188
O221	O	-0.577774	-0.593675	0.015146
O222	O	-0.244440	-0.260341	0.348479
H223	H	-0.891365	-0.886002	-0.359301
H224	H	-0.558031	-0.552668	-0.025968
H225	H	-0.224698	-0.219335	0.307366
O226	O	-0.804163	-0.965190	-0.461402
O227	O	-0.470829	-0.631857	-0.128069
O228	O	-0.137496	-0.298523	0.205265
H229	H	-0.824764	-0.979660	-0.517328
H230	H	-0.491431	-0.646327	-0.183994
H231	H	-0.158098	-0.312993	0.149339
H232	H	-0.437049	-0.633861	-0.262586
H233	H	-0.103716	-0.300528	0.070747
H234	H	0.229618	0.032806	0.404081
H235	H	-0.903828	-1.103536	-0.481384
H236	H	-0.570494	-0.770203	-0.148051
H237	H	-0.237161	-0.436870	0.185282
H238	H	-0.340542	-0.634953	-0.233963
H239	H	-0.007208	-0.301620	0.099371
H240	H	0.326125	0.031714	0.432704
O241	O	-0.257086	-0.973156	-0.788017
O242	O	0.076247	-0.639823	-0.454684
O243	O	0.409580	-0.306490	-0.121351
H244	H	-0.245960	-0.937153	-0.836393
H245	H	0.087373	-0.603820	-0.503060
H246	H	0.420707	-0.270487	-0.169727
O247	O	-0.221178	-0.500590	-0.325844
O248	O	0.112156	-0.167257	0.007489
O249	O	0.445489	0.166076	0.340822
H250	H	-0.247413	-0.466527	-0.282061
H251	H	0.085920	-0.133194	0.051272
H252	H	0.419254	0.200139	0.384606
O253	O	-0.397605	-0.936573	-0.785685
O254	O	-0.064272	-0.603239	-0.452352
O255	O	0.269062	-0.269906	-0.119019
H256	H	-0.341017	-0.920601	-0.803586
H257	H	-0.007684	-0.587267	-0.470253
H258	H	0.325649	-0.253934	-0.136919
H259	H	-0.473025	-1.025824	-0.920809
H260	H	-0.139692	-0.692490	-0.587475
H261	H	0.193642	-0.359157	-0.254142
O262	O	-0.397149	-0.935948	-0.926954
O263	O	-0.063816	-0.602615	-0.593620
O264	O	0.269517	-0.269281	-0.260287
H265	H	-0.388640	-0.898797	-0.878916
H266	H	-0.055306	-0.565463	-0.545583
H267	H	0.278027	-0.232130	-0.212250
H268	H	-0.473424	-1.025870	-0.793578
H269	H	-0.140091	-0.692537	-0.460245
H270	H	0.193242	-0.359203	-0.126912
H271	H	-0.235484	-1.089817	-0.920469
H272	H	0.097849	-0.756484	-0.587136
H273	H	0.431183	-0.423151	-0.253802
O274	O	-0.397960	-0.640458	-0.490768
O275	O	-0.064627	-0.307124	-0.157435
O276	O	0.268707	0.026209	0.175898
H277	H	-0.440653	-0.619807	-0.529762
H278	H	-0.107319	-0.286474	-0.196429
H279	H	0.226014	0.046859	0.136905
H280	H	-0.261975	-0.992796	-0.921580
H281	H	0.071358	-0.659463	-0.588247
H282	H	0.404692	-0.326129	-0.254913
O283	O	-0.257692	-0.501576	-0.454311
O284	O	0.075642	-0.168243	-0.120978
O285	O	0.408975	0.165091	0.212355
H286	H	-0.246758	-0.549954	-0.490390
H287	H	0.086576	-0.216621	-0.157057
H288	H	0.419909	0.116712	0.176277
H289	H	-0.336246	-1.191200	-0.794109
H290	H	-0.002913	-0.857867	-0.460776
H291	H	0.330420	-0.524534	-0.127442
O292	O	-0.328410	-1.207651	-0.928339
O293	O	0.004923	-0.874318	-0.595005
O294	O	0.338257	-0.540985	-0.261672
H295	H	-0.331289	-1.209609	-0.989557
H296	H	0.002044	-0.876276	-0.656224
H297	H	0.335377	-0.542942	-0.322891
O298	O	-0.492220	-0.641122	-0.396129
O299	O	-0.158887	-0.307788	-0.062796
O300	O	0.174447	0.025545	0.270537
H301	H	-0.531743	-0.620557	-0.438356
H302	H	-0.198410	-0.287224	-0.105023
H303	H	0.134924	0.046110	0.228311
O304	O	-0.492655	-0.500374	-0.396106
O305	O	-0.159321	-0.167041	-0.062773
O306	O	0.174012	0.166292	0.270561
H307	H	-0.490697	-0.464178	-0.346646
H308	H	-0.157364	-0.130845	-0.013313
H309	H	0.175969	0.202489	0.320020
