data_functionalizedCrystal
_audit_creation_method	'MofGen! by Chris Wilmer'
_symmetry_space_group_name_H-M	'P1'
_symmetry_Int_Tables_number	1
_symmetry_cell_setting	triclinic
loop_
_symmetry_equiv_pos_as_xyz
  x,y,z
_cell_length_a	16.625548
_cell_length_b	16.625545
_cell_length_c	16.625539
_cell_angle_alpha	90.026370
_cell_angle_beta	90.018832
_cell_angle_gamma	90.023896
loop_
_atom_site_label
_atom_site_type_symbol
_atom_site_fract_x
_atom_site_fract_y
_atom_site_fract_z
Zn1	Zn	-1.232644	0.321018	-0.455948
Zn2	Zn	-0.732644	0.821018	0.044052
Zn3	Zn	-1.232552	0.455857	-0.321115
Zn4	Zn	-0.732552	0.955857	0.178885
Zn5	Zn	-1.097814	0.321042	-0.321124
Zn6	Zn	-0.597814	0.821042	0.178876
Zn7	Zn	-1.097772	0.455812	-0.455901
Zn8	Zn	-0.597772	0.955812	0.044099
O9	O	-1.165195	0.388432	-0.388522
O10	O	-0.665195	0.888432	0.111478
O11	O	-1.345464	0.338914	-0.438078
O12	O	-0.845464	0.838914	0.061922
O13	O	-1.214657	0.438002	-0.208284
O14	O	-0.714657	0.938002	0.291716
O15	O	-1.115755	0.208206	-0.339032
O16	O	-0.615755	0.708206	0.160968
O17	O	-1.345396	0.437979	-0.339017
O18	O	-0.845396	0.937979	0.160983
O19	O	-1.214814	0.208189	-0.438087
O20	O	-0.714814	0.708189	0.061913
O21	O	-1.115666	0.338954	-0.208291
O22	O	-0.615666	0.838954	0.291709
O23	O	-0.984976	0.338910	-0.338987
O24	O	-0.484976	0.838910	0.161013
O25	O	-1.115684	0.437903	-0.568740
O26	O	-0.615684	0.937903	-0.068740
O27	O	-0.984945	0.437926	-0.438007
O28	O	-0.484945	0.937926	0.061993
O29	O	-1.214774	0.338870	-0.568774
O30	O	-0.714774	0.838870	-0.068774
O31	O	-1.214617	0.568683	-0.338972
O32	O	-0.714617	1.068683	0.161028
O33	O	-1.115595	0.568650	-0.437998
O34	O	-0.615595	1.068650	0.062002
C35	C	-0.955704	0.388416	-0.388493
C36	C	-0.455704	0.888416	0.111507
C37	C	-0.866083	0.388429	-0.388500
C38	C	-0.366083	0.888429	0.111500
C39	C	-1.165113	0.597923	-0.388496
C40	C	-0.665113	1.097923	0.111504
C41	C	-1.165152	0.687544	-0.388512
C42	C	-0.665152	1.187544	0.111488
C43	C	-0.537908	0.388427	-0.388524
C44	C	-0.037908	0.888427	0.111476
C45	C	-0.629216	0.388425	-0.388515
C46	C	-0.129216	0.888425	0.111485
C47	C	-0.701993	0.388428	-0.388511
C48	C	-0.201993	0.888428	0.111489
C49	C	-0.793307	0.388426	-0.388503
C50	C	-0.293307	0.888426	0.111497
C51	C	-1.165235	0.388379	-0.598831
C52	C	-0.665235	0.888379	-0.098831
C53	C	-1.165252	0.388356	-0.688452
C54	C	-0.665252	0.888356	-0.188452
C55	C	-0.375504	0.388443	-0.388544
C56	C	0.124496	0.888443	0.111456
C57	C	-0.465125	0.388435	-0.388533
C58	C	0.034875	0.888435	0.111467
C59	C	-1.165284	1.015720	-0.388609
C60	C	-0.665284	1.515720	0.111391
C61	C	-1.165244	0.924411	-0.388584
C62	C	-0.665244	1.424411	0.111416
C63	C	-1.165217	0.851635	-0.388560
C64	C	-0.665217	1.351635	0.111440
C65	C	-1.165179	0.760320	-0.388536
C66	C	-0.665179	1.260320	0.111464
C67	C	-1.165293	1.178123	-0.388575
C68	C	-0.665293	1.678123	0.111425
C69	C	-1.165317	1.088502	-0.388622
C70	C	-0.665317	1.588502	0.111378
C71	C	-1.165265	0.388338	-0.761235
C72	C	-0.665265	0.888338	-0.261235
C73	C	-1.165284	0.388308	-0.852543
C74	C	-0.665284	0.888308	-0.352543
C75	C	-1.165303	0.388280	-0.925320
C76	C	-0.665303	0.888280	-0.425320
C77	C	-1.165323	0.388251	-1.016634
C78	C	-0.665323	0.888251	-0.516634
C79	C	-1.165202	0.388427	-0.179031
C80	C	-0.665202	0.888427	0.320969
C81	C	-1.165342	0.388222	-0.089411
C82	C	-0.665342	0.888222	0.410589
