data_functionalizedCrystal
_audit_creation_method	'MofGen! by Chris Wilmer'
_symmetry_space_group_name_H-M	'P1'
_symmetry_Int_Tables_number	1
_symmetry_cell_setting	triclinic
loop_
_symmetry_equiv_pos_as_xyz
  x,y,z
_cell_length_a	31.640172
_cell_length_b	23.096457
_cell_length_c	23.096457
_cell_angle_alpha	60.007119
_cell_angle_beta	90.017156
_cell_angle_gamma	60.002549
loop_
_atom_site_label
_atom_site_type_symbol
_atom_site_fract_x
_atom_site_fract_y
_atom_site_fract_z
Zr1	Zr	0.407215	0.633639	-0.075885
O2	O	0.339718	0.754433	-0.168343
O3	O	0.427901	0.512853	-0.047545
O4	O	0.427888	0.633637	-0.168331
O5	O	0.339747	0.633648	0.047725
O6	O	0.497445	0.633625	-0.168319
O7	O	0.339730	0.633650	-0.047557
O8	O	0.497467	0.417564	0.047747
O9	O	0.339725	0.849708	-0.168340
O10	O	0.488640	0.562521	-0.035445
O11	O	0.436742	0.562529	0.035654
O12	O	0.436728	0.704736	-0.106557
O13	O	0.384831	0.704744	-0.035459
Zr14	Zr	0.518177	0.633617	0.076099
Zr15	Zr	0.518151	0.633619	-0.075865
Zr16	Zr	0.407242	0.633636	0.076079
Zr17	Zr	0.407226	0.785591	-0.075880
Zr18	Zr	0.518166	0.481665	0.076094
O19	O	0.497492	0.754403	0.047758
O20	O	0.497454	0.754406	-0.168314
O21	O	0.339756	0.754430	0.047730
O22	O	0.585674	0.512822	0.168557
O23	O	0.585636	0.512826	-0.047516
O24	O	0.427938	0.512849	0.168528
O25	O	0.585645	0.633607	-0.047512
O26	O	0.497504	0.633619	0.168545
O27	O	0.427947	0.633631	0.168532
O28	O	0.585662	0.633606	0.047770
O29	O	0.427904	0.849693	-0.168324
O30	O	0.497488	0.417562	0.168538
O31	O	0.585667	0.417547	0.168554
O32	O	0.585646	0.417549	0.047763
O33	O	0.339746	0.849706	-0.047549
O34	O	0.427925	0.849691	-0.047533
O35	O	0.488664	0.562519	0.106771
O36	O	0.540562	0.562511	0.035672
O37	O	0.488650	0.704726	-0.035440
O38	O	0.436753	0.704734	0.035659
C39	C	0.462682	0.443559	0.000100
C40	C	0.462677	0.379051	0.000098
C41	C	0.501007	0.296258	0.052592
C42	C	0.501010	0.235636	0.052599
C43	C	0.462688	0.257813	0.000100
C44	C	0.424353	0.340620	-0.052398
C45	C	0.424347	0.401239	-0.052399
N46	N	0.451086	0.201706	-0.062148
N47	N	0.451094	0.144116	-0.062145
C48	C	0.462702	0.075174	0.000101
N49	N	0.474311	0.065987	0.062347
N50	N	0.474305	0.123580	0.062343
C51	C	0.462690	0.192087	0.000096
C52	C	0.501037	-0.073356	0.052607
C53	C	0.501037	-0.133977	0.052614
C54	C	0.424382	-0.028991	-0.052388
C55	C	0.424380	0.031627	-0.052390
C56	C	0.462710	0.009440	0.000107
C57	C	0.323933	0.633652	0.000082
C58	C	0.276838	0.633660	0.000073
C59	C	0.011929	0.559385	0.037241
C60	C	-0.165056	0.559371	0.037255
O61	O	-0.164897	0.496237	0.068850
N62	N	-0.214283	0.633605	0.000134
C63	C	-0.219263	0.707848	-0.036989
O64	O	-0.265195	0.770989	-0.068556
C65	C	-0.042278	0.707862	-0.036998
C66	C	0.006948	0.633623	0.000119
C67	C	0.061153	0.485152	0.074356
C68	C	0.105397	0.485156	0.074349
C69	C	0.100416	0.559394	0.037227
C70	C	0.051191	0.633627	0.000112
C71	C	-0.047259	0.782104	-0.074117
C72	C	-0.003008	0.782101	-0.074115
C73	C	0.046219	0.707862	-0.036997
C74	C	0.090454	0.707868	-0.037017
N75	N	0.139681	0.633634	0.000104
C76	C	0.144662	0.559397	0.037226
C77	C	-0.312180	0.707836	-0.036982
C78	C	-0.356427	0.707833	-0.036981
C79	C	-0.302216	0.559355	0.037264
C80	C	-0.257970	0.559359	0.037258
C81	C	-0.262953	0.633602	0.000138
C82	C	0.237574	0.559412	0.037208
C83	C	0.281819	0.559422	0.037195
C84	C	0.227605	0.707900	-0.037047
C85	C	0.183364	0.707889	-0.037038
C86	C	0.188352	0.633639	0.000095
O87	O	0.090334	0.770970	-0.068589
O88	O	0.190598	0.496266	0.068801
C89	C	-0.032314	0.559381	0.037248
C90	C	-0.081539	0.633614	0.000133
C91	C	-0.086520	0.707851	-0.036989
C92	C	-0.125785	0.633611	0.000134
C93	C	-0.120804	0.559373	0.037256
C94	C	-0.071577	0.485139	0.074377
C95	C	-0.027333	0.485144	0.074370
C96	C	-0.135747	0.782086	-0.074110
C97	C	-0.179988	0.782075	-0.074100
C98	C	-0.175007	0.707838	-0.036978
C99	C	0.601459	0.633604	0.000132
C100	C	0.648554	0.633596	0.000141
C101	C	0.462663	0.633631	-0.189977
C102	C	0.462652	0.633632	-0.254489
C103	C	0.462710	0.823697	0.000114
C104	C	0.462715	0.888204	0.000116
C105	C	0.435557	0.707865	-0.321913
C106	C	0.435570	0.707866	-0.382529
C107	C	0.462671	0.633630	-0.375718
C108	C	0.489772	0.559388	-0.308282
C109	C	0.489762	0.559389	-0.247668
N110	N	0.458928	0.578377	-0.443276
N111	N	0.458934	0.578381	-0.500860
C112	C	0.462703	0.633623	-0.558343
N113	N	0.466455	0.688873	-0.556074
N114	N	0.466446	0.688871	-0.498486
C115	C	0.462685	0.633621	-0.441440
C116	C	0.435621	0.707862	-0.691497
C117	C	0.435638	0.707860	-0.752113
C118	C	0.489837	0.559380	-0.677864
C119	C	0.489823	0.559384	-0.617250
C120	C	0.462713	0.633627	-0.624071
C121	C	0.462729	0.633624	0.190190
C122	C	0.462740	0.633623	0.254703
C123	C	0.601446	0.443535	0.000125
C124	C	0.648536	0.379019	0.000132
C125	C	0.462715	0.443555	0.190184
C126	C	0.462722	0.379047	0.254694
C127	C	0.601479	0.443532	0.190209
C128	C	0.648580	0.379015	0.254728
C129	C	0.323914	0.823724	-0.189995
C130	C	0.276812	0.888241	-0.254514
C131	C	0.323947	0.823721	0.000088
C132	C	0.276856	0.888236	0.000082
C133	C	0.462677	0.823700	-0.189970
C134	C	0.462671	0.888209	-0.254480
C135	C	0.643547	0.348727	-0.036994
C136	C	0.687789	0.288116	-0.037002
C137	C	0.737019	0.257794	0.000120
C138	C	0.742007	0.288092	0.037247
C139	C	0.697766	0.348706	0.037251
C140	C	0.489827	0.348747	0.322118
C141	C	0.489832	0.288143	0.382738
C142	C	0.462733	0.257835	0.375933
C143	C	0.435623	0.288140	0.308502
C144	C	0.435617	0.348748	0.247883
C145	C	0.697794	0.348713	0.247914
C146	C	0.742055	0.288101	0.308531
C147	C	0.737101	0.257788	0.375960
C148	C	0.687882	0.288095	0.382773
C149	C	0.643622	0.348710	0.322157
C150	C	0.227598	0.918550	-0.247700
C151	C	0.183337	0.979181	-0.308317
C152	C	0.188291	1.009497	-0.375747
C153	C	0.237510	0.979186	-0.382559
C154	C	0.281770	0.918560	-0.321943
C155	C	0.281845	0.918535	0.037202
C156	C	0.237603	0.979163	0.037193
C157	C	0.188373	1.009487	0.000069
C158	C	0.183385	0.979186	-0.037056
C159	C	0.227627	0.918563	-0.037051
C160	C	0.489775	0.918498	-0.247652
C161	C	0.489779	0.979102	-0.308261
C162	C	0.462675	1.009421	-0.375697
C163	C	0.435570	0.979126	-0.382523
C164	C	0.435570	0.918519	-0.321915
H165	H	0.393133	0.468656	-0.095146
C166	C	0.785794	0.191103	0.442633
N167	N	0.822471	0.140873	0.492849
C168	C	0.335905	0.885217	-0.329451
N169	N	0.376678	0.860104	-0.335110
H170	H	0.321927	0.893849	0.067437
H171	H	0.241674	1.003823	0.067427
C172	C	0.589398	0.382074	-0.077839
N173	N	0.548614	0.407192	-0.108610
C174	C	-0.203823	0.477691	0.078095
N175	N	-0.163041	0.416175	0.108857
C176	C	0.796165	0.254723	0.078084
N177	N	0.836959	0.229582	0.108848
C178	C	0.382219	0.122706	-0.110145
N179	N	0.350461	0.191308	-0.153648
C180	C	0.589488	0.382034	0.329664
N181	N	0.548714	0.407132	0.335324
C182	C	0.129201	1.012511	-0.300807
N183	N	0.088427	1.037614	-0.295149
C184	C	0.462751	0.191157	0.442622
N185	N	0.462769	0.140931	0.492856
C186	C	0.703262	0.382012	0.078103
N187	N	0.707406	0.407095	0.108875
H188	H	0.223558	0.893896	-0.067276
H189	H	0.511846	0.893821	-0.192748
C190	C	0.543178	0.144551	0.110347
N191	N	0.574939	0.075948	0.153843
C192	C	0.405780	1.012457	-0.456709
N193	N	0.383347	1.037556	-0.512588
C194	C	0.222136	0.885219	-0.173533
N195	N	0.218018	0.860122	-0.117672
H196	H	-0.298167	0.498908	0.067486
C197	C	-0.101401	0.863774	-0.114948
N198	N	-0.142182	0.925294	-0.145702
C199	C	0.519661	0.254811	0.456905
N200	N	0.542130	0.229704	0.512766
H201	H	0.413547	0.768315	-0.697052
C202	C	0.519595	1.012419	-0.300736
N203	N	0.542052	1.037513	-0.295066
H204	H	0.532218	0.278185	0.095340
H205	H	0.511895	0.373418	0.327672
C206	C	0.242951	1.012535	-0.456739
N207	N	0.247047	1.037650	-0.512613
H208	H	0.413560	0.263454	0.302972
H209	H	0.143296	1.003885	-0.067281
H210	H	0.462680	1.058772	-0.425042
H211	H	0.413496	0.893864	-0.327484
H212	H	0.321901	0.498965	0.067423
C213	C	0.382199	0.365013	-0.110147
N214	N	0.350447	0.383387	-0.153645
H215	H	0.511827	0.498938	-0.192767
H216	H	0.152353	1.058850	0.000071
H217	H	0.511903	0.498935	-0.672317
C218	C	0.139599	1.076181	-0.442420
N219	N	0.102921	1.126404	-0.492635
H220	H	0.532246	-0.091423	0.095357
C221	C	0.243069	0.477732	0.078050
N222	N	0.247207	0.416211	0.108807
C223	C	0.405803	0.382061	0.173718
N224	N	0.383346	0.407149	0.117858
C225	C	0.543210	-0.225056	0.110357
N226	N	0.574978	-0.293658	0.153847
H227	H	0.773040	0.208437	0.000112
C228	C	0.382227	-0.004592	-0.110137
N229	N	0.350474	0.013783	-0.153634
H230	H	0.413484	0.768319	-0.327473
H231	H	0.065218	0.424696	0.104589
C232	C	0.159543	0.403487	0.115188
N233	N	0.200324	0.341969	0.145953
H234	H	0.782127	0.263430	0.302971
C235	C	-0.410573	0.789502	-0.077821
N236	N	-0.451355	0.851018	-0.108580
C237	C	-0.317672	0.789514	-0.077830
N238	N	-0.321811	0.851035	-0.108601
H239	H	-0.007071	0.842559	-0.104333
H240	H	0.701837	0.373385	0.193015
H241	H	0.413577	0.768311	-0.807014
H242	H	0.223558	0.768342	-0.067273
C243	C	0.129213	0.789555	-0.077871
N244	N	0.088429	0.851068	-0.108622
H245	H	0.012746	0.424690	0.104597
H246	H	0.683856	0.263405	0.437682
H247	H	-0.067528	0.424692	0.104599
C248	C	0.519624	0.477721	-0.543079
N249	N	0.542071	0.416208	-0.487212
H250	H	-0.220069	0.842534	-0.104333
H251	H	0.413505	0.768317	-0.437436
C252	C	0.682291	0.254792	-0.077839
N253	N	0.678149	0.229692	-0.108596
C254	C	0.519581	0.477728	-0.300791
N255	N	0.542036	0.416220	-0.295147
H256	H	-0.139810	0.842540	-0.104341
