data_functionalizedCrystal
_audit_creation_method	'MofGen! by Chris Wilmer'
_symmetry_space_group_name_H-M	'P1'
_symmetry_Int_Tables_number	1
_symmetry_cell_setting	triclinic
loop_
_symmetry_equiv_pos_as_xyz
  x,y,z
_cell_length_a	8.497374
_cell_length_b	8.497374
_cell_length_c	13.897449
_cell_angle_alpha	89.998080
_cell_angle_beta	90.005472
_cell_angle_gamma	90.004389
loop_
_atom_site_label
_atom_site_type_symbol
_atom_site_fract_x
_atom_site_fract_y
_atom_site_fract_z
Zn1	Zn	0.892247	0.628281	1.474643
Zn2	Zn	0.628512	0.892031	1.474634
Zn3	Zn	0.628459	0.628263	1.313383
Zn4	Zn	0.892229	0.892017	1.313361
O5	O	0.760362	0.760148	1.394005
O6	O	0.857292	0.663282	1.609624
O7	O	0.407743	0.857040	1.453250
O8	O	0.663436	0.407503	1.334787
O9	O	0.663528	0.857058	1.609617
O10	O	0.857240	0.407517	1.453265
O11	O	0.407704	0.663250	1.334779
O12	O	0.663418	0.663237	1.178398
O13	O	1.112993	0.857034	1.334750
O14	O	0.857209	0.857016	1.178382
O15	O	1.113007	0.663269	1.453243
O16	O	0.663510	1.112792	1.453228
O17	O	0.857261	1.112781	1.334741
C18	C	0.760307	0.760124	1.143391
C19	C	0.760321	0.760151	1.036177
C20	C	1.350482	0.760174	1.394011
C21	C	1.171838	0.760166	1.394001
C22	C	0.760384	1.170028	1.393993
C23	C	0.760359	1.348672	1.394019
C24	C	0.760347	0.760157	0.949107
C25	C	0.760395	0.760168	0.839875
C26	C	0.760418	0.760174	1.645598
C27	C	0.760442	0.760185	1.752812
