data_functionalizedCrystal
_audit_creation_method	'MofGen! by Chris Wilmer'
_symmetry_space_group_name_H-M	'P1'
_symmetry_Int_Tables_number	1
_symmetry_cell_setting	triclinic
loop_
_symmetry_equiv_pos_as_xyz
  x,y,z
_cell_length_a	18.101398
_cell_length_b	18.050589
_cell_length_c	18.101390
_cell_angle_alpha	89.971577
_cell_angle_beta	89.977223
_cell_angle_gamma	90.023488
loop_
_atom_site_label
_atom_site_type_symbol
_atom_site_fract_x
_atom_site_fract_y
_atom_site_fract_z
Zn1	Zn	1.132125	-0.295725	-0.418861
Zn2	Zn	1.465458	0.037608	-0.085528
Zn3	Zn	1.798791	0.370941	0.247805
Zn4	Zn	1.132030	-0.419931	-0.295029
Zn5	Zn	1.465363	-0.086598	0.038304
Zn6	Zn	1.798697	0.246736	0.371637
Zn7	Zn	1.008287	-0.295749	-0.295023
Zn8	Zn	1.341620	0.037584	0.038311
Zn9	Zn	1.674953	0.370918	0.371644
Zn10	Zn	1.008240	-0.419868	-0.418818
Zn11	Zn	1.341574	-0.086535	-0.085485
Zn12	Zn	1.674907	0.246799	0.247849
O13	O	1.070170	-0.357818	-0.356933
O14	O	1.403504	-0.024485	-0.023599
O15	O	1.736837	0.308848	0.309734
O16	O	1.235745	-0.312218	-0.402456
O17	O	1.569078	0.021115	-0.069123
O18	O	1.902412	0.354449	0.264211
O19	O	1.115595	-0.403494	-0.191396
O20	O	1.448928	-0.070161	0.141938
O21	O	1.782262	0.263173	0.475271
O22	O	1.024773	-0.191821	-0.311465
O23	O	1.358106	0.141512	0.021868
O24	O	1.691440	0.474845	0.355201
O25	O	1.235675	-0.403471	-0.311477
O26	O	1.569009	-0.070138	0.021856
O27	O	1.902342	0.263195	0.355190
O28	O	1.115756	-0.191804	-0.402449
O29	O	1.449090	0.141529	-0.069116
O30	O	1.782423	0.474863	0.264217
O31	O	1.024681	-0.312258	-0.191391
O32	O	1.358015	0.021075	0.141943
O33	O	1.691348	0.354408	0.475276
O34	O	0.904648	-0.312197	-0.311423
O35	O	1.237981	0.021136	0.021910
O36	O	1.571314	0.354470	0.355243
O37	O	1.024694	-0.403364	-0.522457
O38	O	1.358027	-0.070031	-0.189123
O39	O	1.691361	0.263303	0.144210
O40	O	0.904614	-0.403387	-0.402375
O41	O	1.237947	-0.070053	-0.069042
O42	O	1.571280	0.263280	0.264291
O43	O	1.115711	-0.312157	-0.522489
O44	O	1.449045	0.021176	-0.189155
O45	O	1.782378	0.354510	0.144178
O46	O	1.115550	-0.523847	-0.311435
O47	O	1.448883	-0.190514	0.021898
O48	O	1.782217	0.142820	0.355232
O49	O	1.024602	-0.523801	-0.402382
O50	O	1.357936	-0.190468	-0.069048
O51	O	1.691269	0.142866	0.264285
C52	C	0.877760	-0.357788	-0.356894
C53	C	1.211093	-0.024455	-0.023561
C54	C	1.544427	0.308878	0.309772
C55	C	0.795446	-0.357793	-0.356895
C56	C	1.128779	-0.024460	-0.023562
C57	C	1.462112	0.308873	0.309771
C58	C	0.496355	-0.357840	-0.356957
C59	C	0.829688	-0.024506	-0.023624
C60	C	1.163022	0.308827	0.309709
C61	C	0.527677	-0.300179	-0.300012
C62	C	0.861010	0.033155	0.033321
C63	C	1.194343	0.366488	0.366655
C64	C	0.613295	-0.300333	-0.299769
C65	C	0.946628	0.033000	0.033564
C66	C	1.279962	0.366333	0.366898
C67	C	0.644737	-0.357816	-0.356927
C68	C	0.978071	-0.024483	-0.023593
C69	C	1.311404	0.308851	0.309740
C70	C	0.613624	-0.436049	-0.335608
C71	C	0.946957	-0.102715	-0.002275
C72	C	1.280290	0.230618	0.331059
C73	C	0.527979	-0.435728	-0.335212
C74	C	0.861312	-0.102395	-0.001879
C75	C	1.194645	0.230938	0.331455
C76	C	0.527966	-0.337948	-0.435355
C77	C	0.861300	-0.004614	-0.102022
C78	C	1.194633	0.328719	0.231311
C79	C	0.613617	-0.336206	-0.434927
C80	C	0.946950	-0.002872	-0.101594
C81	C	1.280284	0.330461	0.231739
C82	C	0.728597	-0.357807	-0.356910
C83	C	1.061930	-0.024474	-0.023577
C84	C	1.395264	0.308859	0.309756
C85	C	0.412495	-0.357853	-0.356972
C86	C	0.745829	-0.024520	-0.023638
C87	C	1.079162	0.308813	0.309695
C88	C	1.070081	-0.550770	-0.356921
C89	C	1.403414	-0.217437	-0.023587
C90	C	1.736748	0.115896	0.309746
C91	C	1.070111	-0.633316	-0.356940
C92	C	1.403444	-0.299983	-0.023607
C93	C	1.736777	0.033350	0.309727
C94	C	1.020702	-0.832769	-0.406380
C95	C	1.354035	-0.499435	-0.073046
C96	C	1.687369	-0.166102	0.260287
C97	C	1.002652	-0.882213	-0.338801
C98	C	1.335985	-0.548880	-0.005468
C99	C	1.669318	-0.215547	0.327866
C100	C	1.070183	-0.784447	-0.356950
C101	C	1.403517	-0.451113	-0.023616
C102	C	1.736850	-0.117780	0.309717
C103	C	1.088270	-0.882084	-0.424536
C104	C	1.421603	-0.548750	-0.091203
C105	C	1.754936	-0.215417	0.242130
C106	C	1.070252	-0.930432	-0.356965
C107	C	1.403586	-0.597098	-0.023632
C108	C	1.736919	-0.263765	0.309702
C109	C	1.052098	-0.832804	-0.289335
C110	C	1.385431	-0.499471	0.043998
C111	C	1.718764	-0.166137	0.377332
C112	C	1.137747	-0.832670	-0.375116
C113	C	1.471080	-0.499337	-0.041783
C114	C	1.804414	-0.166003	0.291551
C115	C	1.119723	-0.882092	-0.307491
C116	C	1.453056	-0.548759	0.025843
C117	C	1.786389	-0.215426	0.359176
C118	C	1.070142	-0.700348	-0.356942
C119	C	1.403475	-0.367015	-0.023609
C120	C	1.736808	-0.033682	0.309725
C121	C	1.070294	-1.014528	-0.356965
C122	C	1.403627	-0.681195	-0.023632
C123	C	1.736961	-0.347861	0.309701
C124	C	1.263332	-0.357849	-0.356972
C125	C	1.596666	-0.024516	-0.023639
C126	C	1.929999	0.308818	0.309695
C127	C	1.345646	-0.357862	-0.356989
C128	C	1.678980	-0.024529	-0.023655
C129	C	2.012313	0.308804	0.309678
C130	C	1.070208	-0.357751	-0.550095
C131	C	1.403541	-0.024418	-0.216761
C132	C	1.736875	0.308916	0.116572
C133	C	1.070224	-0.357722	-0.632409
C134	C	1.403557	-0.024389	-0.299076
C135	C	1.736891	0.308945	0.034258
C136	C	1.070280	-0.164113	-0.356961
C137	C	1.403614	0.169221	-0.023628
C138	C	1.736947	0.502554	0.309705
C139	C	1.070327	-0.081567	-0.356974
C140	C	1.403661	0.251766	-0.023640
C141	C	1.736994	0.585100	0.309693
C142	C	1.070251	-0.357699	-0.783117
C143	C	1.403584	-0.024366	-0.449784
C144	C	1.736917	0.308968	-0.116451
C145	C	1.127518	-0.300309	-0.814491
C146	C	1.460851	0.033025	-0.481158
C147	C	1.794185	0.366358	-0.147825
C148	C	1.127757	-0.300464	-0.900110
C149	C	1.461091	0.032869	-0.566776
C150	C	1.794424	0.366202	-0.233443
C151	C	1.070277	-0.357675	-0.931500
C152	C	1.403610	-0.024341	-0.598167
C153	C	1.736943	0.308992	-0.264833
C154	C	1.091156	-0.436008	-0.900397
C155	C	1.424490	-0.102674	-0.567064
C156	C	1.757823	0.230659	-0.233731
C157	C	1.091557	-0.435690	-0.814753
C158	C	1.424890	-0.102356	-0.481419
C159	C	1.758223	0.230977	-0.148086
C160	C	0.991964	-0.337435	-0.814666
C161	C	1.325298	-0.004102	-0.481333
C162	C	1.658631	0.329231	-0.147999
C163	C	0.992399	-0.335695	-0.900317
C164	C	1.325733	-0.002362	-0.566984
C165	C	1.659066	0.330972	-0.233651
C166	C	1.070290	-0.357666	-1.015360
C167	C	1.403623	-0.024333	-0.682026
C168	C	1.736957	0.309001	-0.348693
C169	C	1.070239	-0.357713	-0.699258
C170	C	1.403572	-0.024380	-0.365925
C171	C	1.736906	0.308954	-0.032591
C172	C	1.070176	-0.357832	-0.164522
C173	C	1.403509	-0.024499	0.168811
C174	C	1.736842	0.308835	0.502144
C175	C	1.070303	-0.357652	-0.082209
C176	C	1.403636	-0.024318	0.251125
C177	C	1.736970	0.309015	0.584458
H178	H	0.634332	-0.242321	-0.313131
H179	H	0.967666	0.091013	0.020202
H180	H	1.300999	0.424346	0.353535
H181	H	1.036762	-0.811247	-0.232168
H182	H	1.370095	-0.477913	0.101165
H183	H	1.703428	-0.144580	0.434498
H184	H	1.114630	-0.242057	-0.793913
H185	H	1.447963	0.091277	-0.460580
H186	H	1.781296	0.424610	-0.127247
Br187	Br	0.920851	-0.407088	-0.780830
Br188	Br	1.254184	-0.073755	-0.447497
Br189	Br	1.587518	0.259579	-0.114163
H190	H	1.161597	-0.903613	-0.265648
H191	H	1.494930	-0.570280	0.067686
H192	H	1.828264	-0.236946	0.401019
Br193	Br	0.907470	-0.918481	-0.313190
Br194	Br	1.240803	-0.585148	0.020143
Br195	Br	1.574136	-0.251814	0.353476
Br196	Br	1.224452	-0.322863	-0.934289
Br197	Br	1.557785	0.010470	-0.600956
Br198	Br	1.891118	0.343804	-0.267622
Br199	Br	0.647396	-0.322246	-0.202943
Br200	Br	0.980730	0.011088	0.130390
Br201	Br	1.314063	0.344421	0.463724
H202	H	0.978795	-0.811111	-0.448122
H203	H	1.312129	-0.477777	-0.114788
H204	H	1.645462	-0.144444	0.218545
Br205	Br	0.649316	-0.464656	-0.241115
Br206	Br	0.982650	-0.131322	0.092219
Br207	Br	1.315983	0.202011	0.425552
H208	H	0.507103	-0.241989	-0.313227
H209	H	0.840437	0.091345	0.020106
H210	H	1.173770	0.424678	0.353440
H211	H	1.051628	-0.479906	-0.793995
H212	H	1.384961	-0.146573	-0.460662
H213	H	1.718294	0.186760	-0.127329
Br214	Br	0.917524	-0.400236	-0.935926
Br215	Br	1.250857	-0.066903	-0.602593
Br216	Br	1.584191	0.266431	-0.269260
H217	H	1.147743	-0.453447	-0.921877
H218	H	1.481076	-0.120113	-0.588544
H219	H	1.814409	0.213220	-0.255210
H220	H	1.148775	-0.452829	-0.794789
H221	H	1.482108	-0.119495	-0.461456
H222	H	1.815441	0.213838	-0.128122
Br223	Br	0.492010	-0.244518	-0.467663
Br224	Br	0.825343	0.088816	-0.134330
Br225	Br	1.158676	0.422149	0.199004
H226	H	0.506130	-0.313181	-0.242258
H227	H	0.839463	0.020153	0.091075
H228	H	1.172796	0.353486	0.424409
H229	H	1.194838	-0.810894	-0.390500
H230	H	1.528172	-0.477561	-0.057166
H231	H	1.861505	-0.144227	0.276167
H232	H	1.050730	-0.479930	-0.920727
H233	H	1.384064	-0.146596	-0.587394
H234	H	1.717397	0.186737	-0.254060
Br235	Br	0.960179	-0.243859	-0.778682
Br236	Br	1.293512	0.089475	-0.445348
Br237	Br	1.626845	0.422808	-0.112015
H238	H	0.976648	-0.278048	-0.920648
H239	H	1.309982	0.055285	-0.587315
H240	H	1.643315	0.388619	-0.253981
H241	H	1.103540	-0.903731	-0.481687
H242	H	1.436873	-0.570397	-0.148354
H243	H	1.770207	-0.237064	0.184979
H244	H	1.185198	-0.313579	-0.792984
H245	H	1.518531	0.019754	-0.459650
H246	H	1.851864	0.353087	-0.126317
Br247	Br	0.494624	-0.463843	-0.239688
Br248	Br	0.827957	-0.130509	0.093645
Br249	Br	1.161291	0.202824	0.426979
H250	H	0.507258	-0.480145	-0.374880
H251	H	0.840591	-0.146812	-0.041547
H252	H	1.173924	0.186522	0.291786
H253	H	1.114712	-0.242391	-0.921141
H254	H	1.448045	0.090943	-0.587807
H255	H	1.781379	0.424276	-0.254474
H256	H	0.633989	-0.480162	-0.375787
H257	H	0.967323	-0.146828	-0.042453
H258	H	1.300656	0.186505	0.290880
Br259	Br	0.649289	-0.401104	-0.509437
Br260	Br	0.982622	-0.067771	-0.176104
Br261	Br	1.315956	0.265562	0.157230
Br262	Br	0.494207	-0.407946	-0.506075
Br263	Br	0.827541	-0.074612	-0.172741
Br264	Br	1.160874	0.258721	0.160592
Br265	Br	0.647532	-0.240257	-0.461732
Br266	Br	0.980865	0.093076	-0.128399
Br267	Br	1.314198	0.426410	0.204935
