data_functionalizedCrystal
_audit_creation_method	'MofGen! by Chris Wilmer'
_symmetry_space_group_name_H-M	'P1'
_symmetry_Int_Tables_number	1
_symmetry_cell_setting	triclinic
loop_
_symmetry_equiv_pos_as_xyz
  x,y,z
_cell_length_a	10.654545
_cell_length_b	10.654551
_cell_length_c	9.730223
_cell_angle_alpha	89.997362
_cell_angle_beta	89.997167
_cell_angle_gamma	84.484254
loop_
_atom_site_label
_atom_site_type_symbol
_atom_site_fract_x
_atom_site_fract_y
_atom_site_fract_z
O1	O	1.667843	0.176371	-0.114270
O2	O	1.302364	0.193183	-0.114276
O3	O	1.493506	0.002038	-0.114270
O4	O	1.476701	0.367517	-0.114276
O5	O	1.493493	0.002033	0.114310
O6	O	1.302352	0.193178	0.114304
O7	O	1.667831	0.176366	0.114310
Zn8	Zn	1.485089	0.184771	0.150599
Zn9	Zn	1.485106	0.184778	-0.150565
O10	O	1.476689	0.367511	0.114304
C11	C	1.255560	0.191948	0.000014
C12	C	1.116116	0.188258	0.000012
C13	C	1.050605	0.186518	0.124611
C14	C	0.919585	0.183031	0.124611
C15	C	0.919599	0.183028	-0.124599
C16	C	1.050618	0.186506	-0.124598
C17	C	1.492265	-0.044762	0.000018
C18	C	1.488573	-0.184205	0.000011
C19	C	1.486847	-0.249706	-0.124589
C20	C	1.483367	-0.380727	-0.124590
C21	C	1.483345	-0.380734	0.124620
C22	C	1.486816	-0.249715	0.124620
C23	C	1.714635	0.177602	0.000017
C24	C	1.854079	0.181292	0.000010
C25	C	1.477929	0.414312	0.000013
C26	C	1.481622	0.553755	0.000010
N27	N	1.485087	0.184766	0.356135
N28	N	1.485117	0.184774	-0.356101
C29	C	1.569754	0.100163	0.428064
C30	C	1.569766	0.100163	0.571947
C31	C	1.400442	0.269381	0.571960
C32	C	1.400424	0.269373	0.428080
H33	H	0.866254	0.181603	-0.226051
H34	H	1.103959	0.187920	-0.226068
H35	H	0.866252	0.181614	0.226073
C36	C	1.121906	0.188212	0.259795
C37	C	1.210342	0.082367	0.267060
C38	C	1.276056	0.083889	0.391566
H39	H	1.064273	0.186613	0.334117
H40	H	1.164148	0.262642	0.264989
H41	H	1.168103	0.007956	0.261880
H42	H	1.268001	0.083944	0.192767
H43	H	1.318297	0.158319	0.396760
H44	H	1.218414	0.082292	0.465878
H45	H	1.336075	0.012081	0.396507
C46	C	1.488671	-0.178797	-0.260017
C47	C	1.486379	-0.264205	-0.369136
C48	C	1.488037	-0.198931	-0.493915
H49	H	1.563114	-0.136620	-0.265395
H50	H	1.416886	-0.118769	-0.265273
H51	H	1.558157	-0.324211	-0.363883
H52	H	1.411941	-0.306386	-0.363803
H53	H	1.416252	-0.138903	-0.499171
H54	H	1.562481	-0.156757	-0.499279
H55	H	1.486470	-0.256869	-0.567967
C56	C	1.481393	-0.451630	0.260048
C57	C	1.483613	-0.366215	0.369168
C58	C	1.481803	-0.431473	0.493946
H59	H	1.553129	-0.511683	0.265425
H60	H	1.406902	-0.493771	0.265301
H61	H	1.558096	-0.324094	0.363918
H62	H	1.411882	-0.306160	0.363836
H63	H	1.407312	-0.473614	0.499199
H64	H	1.553541	-0.491523	0.499310
H65	H	1.483298	-0.373528	0.567999
H66	H	1.638708	0.031270	0.630507
C67	C	1.308329	0.361094	0.650006
C68	C	1.184740	0.339549	0.615066
C69	C	1.099852	0.424002	0.686947
H70	H	1.322514	0.445096	0.626474
H71	H	1.320383	0.348975	0.746011
H72	H	1.172691	0.351679	0.519083
H73	H	1.170514	0.255564	0.638602
H74	H	1.111906	0.411882	0.782952
H75	H	1.114049	0.507999	0.663410
H76	H	1.015988	0.409388	0.663260
H77	H	1.638690	0.031268	0.369490
H78	H	1.481958	-0.434051	-0.226052
H79	H	1.488214	-0.196382	0.226091
H80	H	1.331472	0.338268	0.369512
