data_functionalizedCrystal
_audit_creation_method	'MofGen! by Chris Wilmer'
_symmetry_space_group_name_H-M	'P1'
_symmetry_Int_Tables_number	1
_symmetry_cell_setting	triclinic
loop_
_symmetry_equiv_pos_as_xyz
  x,y,z
_cell_length_a	25.639239
_cell_length_b	25.639242
_cell_length_c	25.639233
_cell_angle_alpha	89.977834
_cell_angle_beta	90.018747
_cell_angle_gamma	89.965787
loop_
_atom_site_label
_atom_site_type_symbol
_atom_site_fract_x
_atom_site_fract_y
_atom_site_fract_z
Zn1	Zn	-0.208277	-0.799225	0.295742
Zn2	Zn	0.291723	-0.299225	0.795742
Zn3	Zn	-0.295696	-0.799149	0.208307
Zn4	Zn	0.204304	-0.299149	0.708307
Zn5	Zn	-0.208269	-0.711801	0.208306
Zn6	Zn	0.291731	-0.211801	0.708306
Zn7	Zn	-0.295676	-0.711746	0.295696
Zn8	Zn	0.204324	-0.211746	0.795696
O9	O	-0.251979	-0.755480	0.252013
O10	O	0.248021	-0.255480	0.752013
O11	O	-0.219884	-0.872380	0.284163
O12	O	0.280116	-0.372380	0.784163
O13	O	-0.284103	-0.787553	0.135141
O14	O	0.215897	-0.287553	0.635141
O15	O	-0.135105	-0.723453	0.219924
O16	O	0.364895	-0.223453	0.719924
O17	O	-0.284111	-0.872324	0.219924
O18	O	0.215889	-0.372324	0.719924
O19	O	-0.135111	-0.787683	0.284163
O20	O	0.364889	-0.287683	0.784163
O21	O	-0.219871	-0.723379	0.135141
O22	O	0.280129	-0.223379	0.635141
O23	O	-0.219853	-0.638629	0.219880
O24	O	0.280147	-0.138629	0.719880
O25	O	-0.284078	-0.723360	0.368868
O26	O	0.215922	-0.223360	0.868868
O27	O	-0.284070	-0.638589	0.284085
O28	O	0.215930	-0.138589	0.784085
O29	O	-0.219866	-0.787630	0.368901
O30	O	0.280134	-0.287630	0.868901
O31	O	-0.368858	-0.787499	0.219880
O32	O	0.131142	-0.287499	0.719880
O33	O	-0.368844	-0.723286	0.284085
O34	O	0.131156	-0.223286	0.784085
C35	C	-0.251959	-0.619638	0.251977
C36	C	0.248041	-0.119638	0.751977
C37	C	-0.251963	-0.561524	0.251975
C38	C	0.248037	-0.061524	0.751975
C39	C	-0.387822	-0.755392	0.251989
C40	C	0.112178	-0.255392	0.751989
C41	C	-0.445936	-0.755403	0.251996
C42	C	0.054064	-0.255403	0.751996
C43	C	-0.251970	-0.755497	0.388386
C44	C	0.248030	-0.255497	0.888386
C45	C	-0.251966	-0.755504	0.446500
C46	C	0.248034	-0.255504	0.946500
C47	C	-0.806294	-0.789004	0.218638
C48	C	-0.306294	-0.289004	0.718638
C49	C	-0.860898	-0.789024	0.218645
C50	C	-0.360898	-0.289024	0.718645
O51	O	-0.889131	-0.817502	0.190257
O52	O	-0.389131	-0.317502	0.690257
N53	N	-0.888218	-0.755572	0.252048
N54	N	-0.388218	-0.255572	0.752048
C55	C	-0.860932	-0.722102	0.285449
C56	C	-0.360932	-0.222102	0.785449
O57	O	-0.889184	-0.693651	0.313861
O58	O	-0.389184	-0.193651	0.813861
C59	C	-0.806328	-0.722085	0.285444
C60	C	-0.306328	-0.222085	0.785444
C61	C	-0.779011	-0.755535	0.252036
C62	C	-0.279011	-0.255535	0.752036
C63	C	-0.778976	-0.822452	0.185233
C64	C	-0.278976	-0.322452	0.685233
C65	C	-0.724376	-0.822431	0.185226
C66	C	-0.224376	-0.322431	0.685226
C67	C	-0.697093	-0.788962	0.218623
C68	C	-0.197093	-0.288962	0.718623
C69	C	-0.724410	-0.755514	0.252028
C70	C	-0.224410	-0.255514	0.752028
C71	C	-0.779042	-0.688617	0.318847
C72	C	-0.279042	-0.188617	0.818847
C73	C	-0.724435	-0.688603	0.318840
C74	C	-0.224435	-0.188603	0.818840
C75	C	-0.697118	-0.722053	0.285432
C76	C	-0.197118	-0.222053	0.785432
C77	C	-0.642527	-0.722024	0.285418
C78	C	-0.142527	-0.222024	0.785418
N79	N	-0.615206	-0.755475	0.252016
N80	N	-0.115206	-0.255475	0.752016
C81	C	-0.642490	-0.788944	0.218618
C82	C	-0.142490	-0.288944	0.718618
C83	C	-0.975602	-0.722141	0.285457
C84	C	-0.475602	-0.222141	0.785457
C85	C	-1.030204	-0.722155	0.285459
C86	C	-0.530204	-0.222155	0.785459
C87	C	-1.030167	-0.789078	0.218656
C88	C	-0.530167	-0.289078	0.718656
C89	C	-0.975564	-0.789061	0.218652
C90	C	-0.475564	-0.289061	0.718652
C91	C	-0.948282	-0.755593	0.252055
C92	C	-0.448282	-0.255593	0.752055
C93	C	-0.527824	-0.788897	0.218605
C94	C	-0.027824	-0.288897	0.718605
C95	C	-0.473219	-0.788872	0.218599
C96	C	0.026781	-0.288872	0.718599
C97	C	-0.473261	-0.721951	0.285403
C98	C	0.026739	-0.221951	0.785403
C99	C	-0.527862	-0.721974	0.285408
C100	C	-0.027862	-0.221974	0.785408
C101	C	-0.555142	-0.755452	0.252007
C102	C	-0.055142	-0.255452	0.752007
O103	O	-0.614260	-0.693562	0.313793
O104	O	-0.114260	-0.193562	0.813793
O105	O	-0.614231	-0.817396	0.190216
O106	O	-0.114231	-0.317396	0.690216
C107	C	-0.115606	-0.755583	0.252048
C108	C	0.384394	-0.255583	0.752048
C109	C	-0.057492	-0.755627	0.252064
C110	C	0.442508	-0.255627	0.752064
C111	C	-0.252000	-0.891853	0.252049
C112	C	0.248000	-0.391853	0.752049
C113	C	-0.252009	-0.949967	0.252064
C114	C	0.247991	-0.449967	0.752064
C115	C	-0.285473	-0.201149	0.285413
C116	C	0.214527	0.298851	0.785413
C117	C	-0.285477	-0.146544	0.285421
C118	C	0.214523	0.353456	0.785421
O119	O	-0.313943	-0.118297	0.313821
O120	O	0.186057	0.381703	0.813821
N121	N	-0.251994	-0.119241	0.252047
N122	N	0.248006	0.380759	0.752047
C123	C	-0.218502	-0.146545	0.218666
C124	C	0.281498	0.353455	0.718666
O125	O	-0.190022	-0.118308	0.190280
O126	O	0.309978	0.381692	0.690280
C127	C	-0.218496	-0.201149	0.218661
C128	C	0.281504	0.298851	0.718661
C129	C	-0.251985	-0.228449	0.252034
C130	C	0.248015	0.271551	0.752034
C131	C	-0.318959	-0.228449	0.318783
C132	C	0.181041	0.271551	0.818783
C133	C	-0.318956	-0.283049	0.318774
C134	C	0.181044	0.216951	0.818774
C135	C	-0.285468	-0.310350	0.285395
C136	C	0.214532	0.189650	0.785395
C137	C	-0.251983	-0.283049	0.252024
C138	C	0.248017	0.216951	0.752024
C139	C	-0.185002	-0.228452	0.185283
C140	C	0.314998	0.271548	0.685283
C141	C	-0.185000	-0.283059	0.185281
C142	C	0.315000	0.216941	0.685281
C143	C	-0.218488	-0.310359	0.218654
C144	C	0.281512	0.189641	0.718654
C145	C	-0.218492	-0.364950	0.218636
C146	C	0.281508	0.135050	0.718636
N147	N	-0.251974	-0.392253	0.252010
N148	N	0.248026	0.107747	0.752010
C149	C	-0.285463	-0.364953	0.285389
C150	C	0.214537	0.135047	0.785389
C151	C	-0.218515	-0.031875	0.218680
C152	C	0.281485	0.468125	0.718680
C153	C	-0.218523	0.022728	0.218683
C154	C	0.281477	0.522728	0.718683
C155	C	-0.285497	0.022725	0.285438
C156	C	0.214503	0.522725	0.785438
C157	C	-0.285492	-0.031878	0.285433
C158	C	0.214508	0.468122	0.785433
C159	C	-0.251998	-0.059178	0.252054
C160	C	0.248002	0.440822	0.752054
C161	C	-0.285455	-0.479618	0.285368
C162	C	0.214545	0.020382	0.785368
C163	C	-0.285451	-0.534223	0.285354
C164	C	0.214549	-0.034223	0.785354
C165	C	-0.218475	-0.534216	0.218601
C166	C	0.281525	-0.034216	0.718601
C167	C	-0.218481	-0.479615	0.218612
C168	C	0.281519	0.020385	0.718612
C169	C	-0.251972	-0.452318	0.252000
C170	C	0.248028	0.047682	0.752000
O171	O	-0.190038	-0.393232	0.190252
O172	O	0.309962	0.106768	0.690252
O173	O	-0.313933	-0.393197	0.313776
O174	O	0.186067	0.106803	0.813776
C175	C	-0.251951	-0.755494	0.116170
C176	C	0.248049	-0.255494	0.616170
C177	C	-0.251807	-0.755588	0.058057
C178	C	0.248193	-0.255588	0.558057
C179	C	-0.218432	-0.789012	0.806886
C180	C	0.281568	-0.289012	1.306886
C181	C	-0.218417	-0.789019	0.861491
C182	C	0.281583	-0.289019	1.361491
O183	O	-0.189967	-0.817466	0.889747
O184	O	0.310033	-0.317466	1.389747
N185	N	-0.251844	-0.755562	0.888783
N186	N	0.248156	-0.255562	1.388783
C187	C	-0.285283	-0.722093	0.861468
C188	C	0.214717	-0.222093	1.361468
O189	O	-0.313713	-0.693636	0.889695
O190	O	0.186287	-0.193636	1.389695
C191	C	-0.285294	-0.722084	0.806864
C192	C	0.214706	-0.222084	1.306864
C193	C	-0.251870	-0.755547	0.779575
C194	C	0.248130	-0.255547	1.279575
C195	C	-0.185009	-0.822472	0.779597
C196	C	0.314991	-0.322472	1.279597
C197	C	-0.185025	-0.822466	0.724997
C198	C	0.314975	-0.322466	1.224997
C199	C	-0.218462	-0.789000	0.697685
C200	C	0.281538	-0.289000	1.197685
C201	C	-0.251885	-0.755541	0.724974
C202	C	0.248115	-0.255541	1.224974
C203	C	-0.318731	-0.688613	0.779550
C204	C	0.181269	-0.188613	1.279550
C205	C	-0.318739	-0.688607	0.724943
C206	C	0.181261	-0.188607	1.224943
C207	C	-0.285314	-0.722069	0.697654
C208	C	0.214686	-0.222069	1.197654
C209	C	-0.285338	-0.722070	0.643063
C210	C	0.214662	-0.222070	1.143063
N211	N	-0.251912	-0.755526	0.615771
N212	N	0.248088	-0.255526	1.115771
C213	C	-0.218474	-0.788992	0.643082
C214	C	0.281526	-0.288992	1.143082
C215	C	-0.285256	-0.722113	0.976138
C216	C	0.214744	-0.222113	1.476138
C217	C	-0.285247	-0.722124	1.030741
C218	C	0.214753	-0.222124	1.530741
C219	C	-0.218381	-0.789049	1.030760
C220	C	0.281619	-0.289049	1.530760
C221	C	-0.218392	-0.789041	0.976157
C222	C	0.281608	-0.289041	1.476157
C223	C	-0.251829	-0.755570	0.948846
C224	C	0.248171	-0.255570	1.448846
C225	C	-0.218509	-0.788977	0.528417
C226	C	0.281491	-0.288977	1.028417
C227	C	-0.218529	-0.788970	0.473811
C228	C	0.281471	-0.288970	0.973811
C229	C	-0.285393	-0.722043	0.473797
C230	C	0.214607	-0.222043	0.973797
C231	C	-0.285375	-0.722052	0.528397
C232	C	0.214625	-0.222052	1.028397
C233	C	-0.251929	-0.755521	0.555706
C234	C	0.248071	-0.255521	1.055706
O235	O	-0.313773	-0.693635	0.614771
O236	O	0.186227	-0.193635	1.114771
O237	O	-0.190044	-0.817439	0.614847
O238	O	0.309956	-0.317439	1.114847
H239	H	-0.450979	-0.816111	0.191392
H240	H	0.049021	-0.316111	0.691392
H241	H	-0.345949	-0.661364	0.801759
H242	H	0.154051	-0.161364	1.301759
H243	H	-0.191241	-0.054099	0.191496
H244	H	0.308759	0.445901	0.691496
O245	O	-0.152470	-0.854911	0.698522
O246	O	0.347530	-0.354911	1.198522
C247	C	-0.063532	-0.880362	0.681891
C248	C	0.436468	-0.380362	1.181891
C249	C	-0.100348	-0.843578	0.711887
C250	C	0.399652	-0.343578	1.211887
H251	H	-0.021384	-0.871220	0.692694
H252	H	0.478616	-0.371220	1.192694
H253	H	-0.069224	-0.874618	0.638163
H254	H	0.430776	-0.374618	1.138163
H255	H	-0.072740	-0.922512	0.692636
H256	H	0.427260	-0.422512	1.192636
H257	H	-0.091162	-0.801414	0.701186
H258	H	0.408838	-0.301414	1.201186
H259	H	-0.094648	-0.849367	0.755608
H260	H	0.405352	-0.349367	1.255608
O261	O	-0.949006	-0.821482	0.186146
O262	O	-0.449006	-0.321482	0.686146
C263	C	-0.887361	-0.828552	0.115577
C264	C	-0.387361	-0.328552	0.615577
C265	C	-0.917410	-0.791774	0.152349
C266	C	-0.417410	-0.291774	0.652349
H267	H	-0.861799	-0.804549	0.088249
H268	H	-0.361799	-0.304549	0.588249
H269	H	-0.916222	-0.852464	0.091670
H270	H	-0.416222	-0.352464	0.591670
H271	H	-0.861787	-0.855879	0.139618
H272	H	-0.361787	-0.355879	0.639618
H273	H	-0.942985	-0.764415	0.128348
H274	H	-0.442985	-0.264415	0.628348
H275	H	-0.888521	-0.767898	0.176257
H276	H	-0.388521	-0.267898	0.676257
H277	H	-0.191153	-0.816298	1.053007
H278	H	0.308847	-0.316298	1.553007
H279	H	-0.157777	-0.849723	0.801828
H280	H	0.342223	-0.349723	1.301828
H281	H	-0.312723	-0.556449	0.312530
H282	H	0.187277	-0.056449	0.812530
O283	O	-0.318037	-0.453187	0.317817
O284	O	0.181963	0.046813	0.817817
C285	C	-0.384443	-0.458967	0.384050
C286	C	0.115557	0.041033	0.884050
C287	C	-0.347578	-0.488964	0.347321
C288	C	0.152422	0.011036	0.847321
H289	H	-0.408329	-0.487880	0.407921
H290	H	0.091671	0.012120	0.907921
H291	H	-0.411786	-0.433389	0.360029
H292	H	0.088214	0.066611	0.860029
H293	H	-0.360474	-0.433418	0.411417
H294	H	0.139526	0.066582	0.911417
H295	H	-0.371505	-0.514542	0.319947
H296	H	0.128495	-0.014542	0.819947
H297	H	-0.320234	-0.514509	0.371375
H298	H	0.179766	-0.014509	0.871375
H299	H	-0.191174	-0.816288	0.953941
H300	H	0.308826	-0.316288	1.453941
H301	H	-0.346225	-0.305272	0.345950
H302	H	0.153775	0.194728	0.845950
O303	O	-0.185979	0.049306	0.186328
O304	O	0.314021	0.549306	0.686328
C305	C	-0.115370	0.110904	0.179411
C306	C	0.384630	0.610904	0.679411
C307	C	-0.152200	0.080846	0.216112
C308	C	0.347800	0.580846	0.716112
H309	H	-0.088043	0.136403	0.203477
H310	H	0.411957	0.636403	0.703477
H311	H	-0.139317	0.136526	0.152045
H312	H	0.360683	0.636526	0.652045
H313	H	-0.091462	0.082002	0.155536
H314	H	0.408538	0.582002	0.655536
H315	H	-0.176117	0.109710	0.240021
H316	H	0.323883	0.609710	0.740021
H317	H	-0.128223	0.055216	0.243443
H318	H	0.371777	0.555216	0.743443
H319	H	-1.052391	-0.816333	0.191464
H320	H	-0.552391	-0.316333	0.691464
O321	O	-1.056657	-0.689641	0.317957
O322	O	-0.556657	-0.189641	0.817957
C323	C	-1.050915	-0.623239	0.384193
C324	C	-0.550915	-0.123239	0.884193
C325	C	-1.020896	-0.660042	0.347421
C326	C	-0.520896	-0.160042	0.847421
H327	H	-1.022016	-0.599291	0.408016
H328	H	-0.522016	-0.099291	0.908016
H329	H	-1.076428	-0.647207	0.411599
H330	H	-0.576428	-0.147207	0.911599
H331	H	-1.076531	-0.595947	0.360156
H332	H	-0.576531	-0.095947	0.860156
H333	H	-0.995252	-0.687341	0.371415
H334	H	-0.495252	-0.187341	0.871415
H335	H	-0.995416	-0.636042	0.320014
H336	H	-0.495416	-0.136042	0.820014
H337	H	-0.191310	-0.816221	0.451595
H338	H	0.308690	-0.316221	0.951595
O339	O	-0.152494	-0.202009	0.152786
O340	O	0.347506	0.297991	0.652786
C341	C	-0.126999	-0.185295	0.063888
C342	C	0.373001	0.314705	0.563888
C343	C	-0.163843	-0.215274	0.100640
C344	C	0.336157	0.284726	0.600640
H345	H	-0.136169	-0.196000	0.021720
H346	H	0.363831	0.304000	0.521720
H347	H	-0.084848	-0.196080	0.073106
H348	H	0.415152	0.303920	0.573106
H349	H	-0.132729	-0.141577	0.069634
H350	H	0.367271	0.358423	0.569634
H351	H	-0.158160	-0.258999	0.094915
H352	H	0.341840	0.241001	0.594915
H353	H	-0.205980	-0.204446	0.091413
H354	H	0.294020	0.295554	0.591413
O355	O	-0.318100	0.049227	0.317811
O356	O	0.181900	0.549227	0.817811
C357	C	-0.407070	0.065957	0.343059
C358	C	0.092930	0.565957	0.843059
C359	C	-0.370210	0.035919	0.306359
C360	C	0.129790	0.535919	0.806359
H361	H	-0.449208	0.055200	0.333820
H362	H	0.050792	0.555200	0.833820
H363	H	-0.401362	0.109678	0.337326
H364	H	0.098638	0.609678	0.837326
H365	H	-0.397921	0.055203	0.385230
H366	H	0.102079	0.555203	0.885230
H367	H	-0.379336	0.046629	0.264174
H368	H	0.120664	0.546629	0.764174
H369	H	-0.375925	-0.007795	0.312137
H370	H	0.124075	0.492205	0.812137
O371	O	-0.949079	-0.689697	0.317957
O372	O	-0.449079	-0.189697	0.817957
C373	C	-0.887390	-0.682581	0.388517
C374	C	-0.387390	-0.182581	0.888517
C375	C	-0.917400	-0.719382	0.351752
C376	C	-0.417400	-0.219382	0.851752
H377	H	-0.861762	-0.706567	0.415843
H378	H	-0.361762	-0.206567	0.915843
H379	H	-0.916276	-0.658687	0.412427
H380	H	-0.416276	-0.158687	0.912427
H381	H	-0.861885	-0.655239	0.364470
H382	H	-0.361885	-0.155239	0.864470
H383	H	-0.942905	-0.746756	0.375759
H384	H	-0.442905	-0.246756	0.875759
H385	H	-0.888486	-0.743240	0.327841
H386	H	-0.388486	-0.243240	0.827841
H387	H	-0.312619	-0.694798	0.451550
H388	H	0.187381	-0.194798	0.951550
H389	H	-0.191272	-0.816229	0.550645
H390	H	0.308728	-0.316229	1.050645
H391	H	-0.345963	-0.661345	0.702710
H392	H	0.154037	-0.161345	1.202710
H393	H	-0.312487	-0.694857	0.953905
H394	H	0.187513	-0.194857	1.453905
H395	H	-0.157721	-0.305283	0.158103
H396	H	0.342279	0.194717	0.658103
H397	H	-0.801275	-0.661376	0.346049
H398	H	-0.301275	-0.161376	0.846049
H399	H	-0.312597	-0.694809	0.550617
H400	H	0.187403	-0.194809	1.050617
H401	H	-0.550030	-0.816159	0.191408
H402	H	-0.050030	-0.316159	0.691408
H403	H	-0.312760	-0.054103	0.312609
H404	H	0.187240	0.445897	0.812609
H405	H	-0.702225	-0.661350	0.346042
H406	H	-0.202225	-0.161350	0.846042
H407	H	-0.191213	-0.457387	0.191436
H408	H	0.308787	0.042613	0.691436
H409	H	-0.312471	-0.694881	1.052955
H410	H	0.187529	-0.194881	1.552955
O411	O	-0.554320	-0.689463	0.317907
O412	O	-0.054320	-0.189463	0.817907
C413	C	-0.548587	-0.623066	0.384148
C414	C	-0.048587	-0.123066	0.884148
C415	C	-0.518564	-0.659861	0.347372
C416	C	-0.018564	-0.159861	0.847372
H417	H	-0.519691	-0.599115	0.407972
H418	H	-0.019691	-0.099115	0.907972
H419	H	-0.574096	-0.647039	0.411552
H420	H	-0.074096	-0.147039	0.911552
H421	H	-0.574208	-0.595776	0.360114
H422	H	-0.074208	-0.095776	0.860114
H423	H	-0.492915	-0.687158	0.371364
H424	H	0.007085	-0.187158	0.871364
H425	H	-0.493088	-0.635855	0.319966
H426	H	0.006912	-0.135855	0.819966
O427	O	-0.185962	-0.560822	0.186228
O428	O	0.314038	-0.060822	0.686228
C429	C	-0.156298	-0.644947	0.156623
C430	C	0.343702	-0.144947	0.656623
C431	C	-0.193140	-0.614880	0.193316
C432	C	0.306860	-0.114880	0.693316
H433	H	-0.162097	-0.688658	0.162334
H434	H	0.337903	-0.188658	0.662334
H435	H	-0.114142	-0.634279	0.165887
H436	H	0.385858	-0.134279	0.665887
H437	H	-0.165406	-0.634158	0.114452
H438	H	0.334594	-0.134158	0.614452
H439	H	-0.184080	-0.625653	0.235499
H440	H	0.315920	-0.125653	0.735499
H441	H	-0.235285	-0.625550	0.184007
H442	H	0.264715	-0.125550	0.684007
H443	H	-0.346229	-0.206227	0.345967
H444	H	0.153771	0.293773	0.845967
O445	O	-0.697924	-0.854979	0.152762
O446	O	-0.197924	-0.354979	0.652762
C447	C	-0.703671	-0.921344	0.086490
C448	C	-0.203671	-0.421344	0.586490
C449	C	-0.733687	-0.884514	0.123236
C450	C	-0.233687	-0.384514	0.623236
H451	H	-0.732572	-0.945225	0.062601
H452	H	-0.232572	-0.445225	0.562601
H453	H	-0.678088	-0.948694	0.110497
H454	H	-0.178088	-0.448694	0.610497
H455	H	-0.678125	-0.897350	0.059140
H456	H	-0.178125	-0.397350	0.559140
H457	H	-0.759261	-0.908466	0.150593
H458	H	-0.259261	-0.408466	0.650593
H459	H	-0.759237	-0.857162	0.099196
H460	H	-0.259237	-0.357162	0.599196
H461	H	-0.451039	-0.694699	0.312594
H462	H	0.048961	-0.194699	0.812594
H463	H	-0.801185	-0.849709	0.158037
H464	H	-0.301185	-0.349709	0.658037
