data_functionalizedCrystal
_audit_creation_method	'MofGen! by Chris Wilmer'
_symmetry_space_group_name_H-M	'P1'
_symmetry_Int_Tables_number	1
_symmetry_cell_setting	triclinic
loop_
_symmetry_equiv_pos_as_xyz
  x,y,z
_cell_length_a	11.026607
_cell_length_b	8.559649
_cell_length_c	7.681215
_cell_angle_alpha	97.070294
_cell_angle_beta	84.977625
_cell_angle_gamma	90.817659
loop_
_atom_site_label
_atom_site_type_symbol
_atom_site_fract_x
_atom_site_fract_y
_atom_site_fract_z
O1	O	-0.031346	-2.124597	-0.146407
O2	O	0.029689	-1.676949	-0.146415
O3	O	-0.174024	-1.863672	-0.146405
O4	O	0.172367	-1.937874	-0.146416
O5	O	-0.191525	-1.831642	0.146465
O6	O	0.012188	-1.644919	0.146456
O7	O	-0.048847	-2.092566	0.146464
Zn8	Zn	-0.021108	-1.863657	0.192959
Zn9	Zn	0.001950	-1.905859	-0.192910
O10	O	0.154866	-1.905844	0.146454
C11	C	0.025564	-1.602735	0.000020
C12	C	0.039332	-1.429315	0.000016
C13	C	-0.226710	-1.833968	0.000028
C14	C	-0.357620	-1.793162	0.000021
C15	C	-0.044722	-2.166781	0.000026
C16	C	-0.058489	-2.340202	0.000017
C17	C	-0.441927	-1.905837	0.000020
C18	C	-0.577230	-1.863664	0.000013
C19	C	0.207552	-1.935548	0.000017
C20	C	0.338463	-1.976356	0.000013
N21	N	-0.036846	-1.834867	0.456304
N22	N	0.017678	-1.934658	-0.456255
H23	H	-0.605215	-1.735971	-0.000001
C24	C	-0.112031	-1.697306	0.557933
C25	C	-0.222779	-1.730662	0.684714
C26	C	-0.297965	-1.593098	0.786355
C27	C	-0.262405	-1.422177	0.761216
C28	C	-0.151652	-1.388813	0.634429
C29	C	-0.076465	-1.526377	0.532788
H30	H	-0.249107	-1.857195	0.703328
H31	H	-0.379952	-1.617797	0.880211
H32	H	-0.318062	-1.320344	0.836457
H33	H	-0.125323	-1.262280	0.615815
H34	H	0.005521	-1.501678	0.438932
H35	H	0.073329	-2.036491	0.468497
H36	H	-0.385611	-1.665477	0.000007
C37	C	-0.623750	-2.148869	0.000019
C38	C	-0.555727	-2.196345	0.152104
C39	C	-0.517942	-2.368855	0.152110
C40	C	-0.548178	-2.493889	0.000032
C41	C	-0.616204	-2.446415	-0.152064
C42	C	-0.653990	-2.273905	-0.152071
H43	H	-0.533341	-2.103785	0.264691
H44	H	-0.467584	-2.403997	0.264702
H45	H	-0.520207	-2.621591	0.000036
H46	H	-0.638591	-2.538975	-0.264652
H47	H	-0.704348	-2.238763	-0.264663
H48	H	-0.413936	-2.033522	0.000034
H49	H	-0.152771	-1.396581	0.000012
H50	H	0.133621	-1.372932	0.000004
