data_functionalizedCrystal
_audit_creation_method	'MofGen! by Chris Wilmer'
_symmetry_space_group_name_H-M	'P1'
_symmetry_Int_Tables_number	1
_symmetry_cell_setting	triclinic
loop_
_symmetry_equiv_pos_as_xyz
  x,y,z
_cell_length_a	13.635800
_cell_length_b	17.982856
_cell_length_c	17.982783
_cell_angle_alpha	84.071345
_cell_angle_beta	102.448572
_cell_angle_gamma	77.550064
loop_
_atom_site_label
_atom_site_type_symbol
_atom_site_fract_x
_atom_site_fract_y
_atom_site_fract_z
V1	V	2.004951	-0.237868	0.106136
O2	O	2.001509	-0.233014	-0.004356
O3	O	1.978227	-0.236554	0.209734
O4	O	1.978233	-0.341468	0.104830
O5	O	2.001503	-0.127375	0.101274
V6	V	2.247418	-0.224614	0.092881
O7	O	2.134032	-0.266941	0.135211
O8	O	2.343436	-0.195541	0.063806
O9	O	2.162539	-0.225928	-0.010717
O10	O	2.309558	-0.229468	0.203373
O11	O	2.309564	-0.335107	0.097743
O12	O	2.162533	-0.121014	0.094187
V13	V	2.504951	-0.237868	0.106136
O14	O	2.501509	-0.233014	-0.004356
O15	O	2.478227	-0.236554	0.209734
O16	O	2.478233	-0.341468	0.104830
O17	O	2.501503	-0.127375	0.101274
V18	V	2.747418	-0.224614	0.092881
O19	O	2.634032	-0.266941	0.135211
O20	O	2.843436	-0.195541	0.063806
O21	O	2.662539	-0.225928	-0.010717
O22	O	2.809558	-0.229468	0.203373
O23	O	2.809564	-0.335107	0.097743
O24	O	2.662533	-0.121014	0.094187
C25	C	1.900202	-0.366709	0.101162
C26	C	1.918982	-0.451404	0.100779
C27	C	1.945935	-0.502284	0.170404
C28	C	1.963585	-0.581864	0.170043
C29	C	1.954274	-0.610563	0.100057
C30	C	1.927322	-0.559677	0.030427
C31	C	1.909679	-0.480099	0.030789
C32	C	1.998472	-0.880607	0.028967
C33	C	2.016114	-0.960191	0.028610
C34	C	2.052377	-0.982372	0.168221
C35	C	2.034735	-0.902794	0.168583
C36	C	2.007789	-0.851915	0.098954
C37	C	1.988653	-0.765626	0.099346
C38	C	1.973402	-0.696850	0.099664
C39	C	1.900195	-0.232882	0.234979
C40	C	1.918971	-0.232499	0.319674
C41	C	2.072242	-0.229598	-0.035958
C42	C	2.043084	-0.229986	-0.120652
C43	C	2.072235	-0.095769	0.097857
C44	C	2.043074	-0.011073	0.098236
C45	C	2.400195	-0.232882	0.234979
C46	C	2.418971	-0.232499	0.319674
C47	C	2.400202	-0.366709	0.101162
C48	C	2.418982	-0.451404	0.100779
C49	C	1.909656	-0.162514	0.348371
C50	C	1.927308	-0.162157	0.427951
C51	C	1.954269	-0.231784	0.478834
C52	C	1.963588	-0.301773	0.450132
C53	C	1.945942	-0.302131	0.370553
C54	C	2.034750	-0.300334	0.771066
C55	C	2.052392	-0.299971	0.850649
C56	C	2.016116	-0.160360	0.828464
C57	C	1.998471	-0.160717	0.748885
C58	C	2.007796	-0.230707	0.720191
C59	C	1.988657	-0.231094	0.633900
C60	C	1.973401	-0.231397	0.565122
C61	C	2.572242	-0.229598	-0.035958
C62	C	2.543084	-0.229986	-0.120652
C63	C	2.572235	-0.095769	0.097857
C64	C	2.543074	-0.011073	0.098236
C65	C	2.518667	-0.236137	0.363344
C66	C	2.536327	-0.235788	0.442926
C67	C	2.454288	-0.231796	0.478836
C68	C	2.354585	-0.228160	0.435160
C69	C	2.336928	-0.228514	0.355581
C70	C	2.518677	-0.495073	0.104410
C71	C	2.536334	-0.574652	0.104041
C72	C	2.454297	-0.610562	0.100046
C73	C	2.354593	-0.566887	0.096413
C74	C	2.336935	-0.487308	0.096777
C75	C	2.615883	-0.226350	-0.164322
C76	C	2.588495	-0.226703	-0.243903
C77	C	2.488310	-0.230697	-0.279813
C78	C	2.415506	-0.234331	-0.236138
C79	C	2.442892	-0.233973	-0.156559
C80	C	2.442881	0.024817	0.102222
C81	C	2.415464	0.104399	0.102569
C82	C	2.488244	0.148088	0.098935
C83	C	2.588445	0.112193	0.094946
C84	C	2.615858	0.032614	0.094594
H85	H	1.953511	-0.478924	0.227395
N86	N	2.458670	0.233918	0.099328
H87	H	2.519976	0.256155	0.096423
H88	H	2.399140	0.259035	0.053439
N89	N	2.666947	0.159313	0.091038
H90	H	2.690594	0.154714	0.041841
H91	H	2.634312	0.215149	0.091903
H92	H	2.287795	-0.224909	0.464410
N93	N	2.266116	-0.605623	0.092113
H94	H	2.210976	-0.582541	0.043040
H95	H	2.292529	-0.662656	0.092471
N96	N	2.364371	-0.237911	-0.109462
H97	H	2.396911	-0.237080	-0.053598
H98	H	2.302861	-0.192169	-0.129220
N99	N	2.229403	-0.440213	0.092862
H100	H	2.180121	-0.475043	0.090278
H101	H	2.230450	-0.414574	0.140321
H102	H	2.697463	-0.223098	-0.135095
N103	N	2.044794	-0.375820	0.740124
H104	H	2.029531	-0.365487	0.681991
H105	H	2.117595	-0.408834	0.761526
H106	H	2.697447	0.003398	0.091353
H107	H	1.985535	-0.623288	0.226739
H108	H	2.383606	-0.010745	0.105181
H109	H	1.976514	-0.104019	0.707460
N110	N	2.473349	-0.231403	0.564668
H111	H	2.429597	-0.182346	0.574770
H112	H	2.454280	-0.277321	0.589811
H113	H	2.008536	-0.983554	-0.028384
N114	N	2.044789	-0.871841	0.244068
H115	H	2.064550	-0.916150	0.288122
H116	H	2.100061	-0.841958	0.249841
N117	N	2.307391	0.143104	0.106871
H118	H	2.265455	0.103346	0.109127
H119	H	2.311193	0.168416	0.154655
H120	H	2.647789	-0.223744	-0.279453
N121	N	2.643878	-0.621748	0.107975
H122	H	2.642627	-0.677611	0.107136
H123	H	2.668149	-0.601985	0.062237
N124	N	2.307454	-0.238642	-0.274874
H125	H	2.301165	-0.238322	-0.331912
H126	H	2.293428	-0.287722	-0.251726
N127	N	2.081446	-1.037249	0.243325
H128	H	2.091215	-1.092017	0.232481
H129	H	2.148076	-1.030827	0.276467
H130	H	2.466024	-0.230987	-0.344613
H131	H	1.985548	-0.358465	0.491567
N132	N	2.006123	-0.084870	0.859415
H133	H	2.021416	-0.095206	0.917550
H134	H	2.056937	-0.057075	0.843291
N135	N	2.229395	-0.224589	0.308483
H136	H	2.180111	-0.222005	0.343313
H137	H	2.205773	-0.177096	0.267756
H138	H	1.919748	-0.583050	-0.026557
N139	N	1.969408	-0.825737	-0.046129
H140	H	1.966182	-0.855995	-0.090518
H141	H	1.899500	-0.789587	-0.051616
H142	H	1.887734	-0.438672	-0.025907
H143	H	2.617515	-0.238747	0.478476
H144	H	1.919724	-0.105168	0.451312
N145	N	1.880554	-0.087415	0.293492
H146	H	1.877330	-0.043026	0.323751
H147	H	1.934232	-0.087107	0.262630
H148	H	2.074347	-0.356673	0.892077
H149	H	1.953539	-0.359120	0.347190
N150	N	2.607160	-0.240444	0.324623
H151	H	2.672992	-0.242700	0.364374
H152	H	2.616125	-0.288232	0.299317
H153	H	2.468689	-0.675361	0.099751
N154	N	2.607169	-0.456352	0.108720
H155	H	2.672998	-0.496100	0.110961
H156	H	2.591469	-0.415959	0.061563
