data_functionalizedCrystal
_audit_creation_method	'MofGen! by Chris Wilmer'
_symmetry_space_group_name_H-M	'P1'
_symmetry_Int_Tables_number	1
_symmetry_cell_setting	triclinic
loop_
_symmetry_equiv_pos_as_xyz
  x,y,z
_cell_length_a	16.120297
_cell_length_b	13.897449
_cell_length_c	16.120484
_cell_angle_alpha	92.925700
_cell_angle_beta	84.385569
_cell_angle_gamma	87.125908
loop_
_atom_site_label
_atom_site_type_symbol
_atom_site_fract_x
_atom_site_fract_y
_atom_site_fract_z
Zn1	Zn	-0.489546	-1.424978	0.356754
Zn2	Zn	-0.239546	-1.174978	0.606754
Zn3	Zn	0.010454	-0.924978	0.856754
Zn4	Zn	0.260454	-0.674978	1.106754
Zn5	Zn	-0.356856	-1.424857	0.489444
Zn6	Zn	-0.106856	-1.174857	0.739444
Zn7	Zn	0.143144	-0.924857	0.989444
Zn8	Zn	0.393144	-0.674857	1.239444
Zn9	Zn	-0.349782	-1.272288	0.349690
Zn10	Zn	-0.099782	-1.022288	0.599690
Zn11	Zn	0.150218	-0.772288	0.849690
Zn12	Zn	0.400218	-0.522288	1.099690
Zn13	Zn	-0.496568	-1.255017	0.496484
Zn14	Zn	-0.246568	-1.005017	0.746484
Zn15	Zn	0.003432	-0.755017	0.996484
Zn16	Zn	0.253432	-0.505017	1.246484
O17	O	-0.423188	-1.344285	0.423093
O18	O	-0.173188	-1.094285	0.673093
O19	O	0.076812	-0.844285	0.923093
O20	O	0.326812	-0.594285	1.173093
O21	O	-0.471966	-1.559942	0.374366
O22	O	-0.221966	-1.309942	0.624366
O23	O	0.028034	-1.059942	0.874366
O24	O	0.278034	-0.809942	1.124366
O25	O	-0.238957	-1.411795	0.465002
O26	O	0.011043	-1.161795	0.715002
O27	O	0.261043	-0.911795	0.965002
O28	O	0.511043	-0.661795	1.215002
O29	O	-0.362423	-1.299821	0.233661
O30	O	-0.112423	-1.049821	0.483661
O31	O	0.137577	-0.799821	0.733661
O32	O	0.387577	-0.549821	0.983661
O33	O	-0.374480	-1.559852	0.471853
O34	O	-0.124480	-1.309852	0.721853
O35	O	0.125520	-1.059852	0.971853
O36	O	0.375520	-0.809852	1.221853
O37	O	-0.465107	-1.412002	0.238852
O38	O	-0.215107	-1.162002	0.488852
O39	O	0.034893	-0.912002	0.738852
O40	O	0.284893	-0.662002	0.988852
O41	O	-0.233759	-1.299703	0.362325
O42	O	0.016241	-1.049703	0.612325
O43	O	0.266241	-0.799703	0.862325
O44	O	0.516241	-0.549703	1.112325
O45	O	-0.369232	-1.135017	0.369152
O46	O	-0.119232	-0.885017	0.619152
O47	O	0.130768	-0.635017	0.869152
O48	O	0.380768	-0.385017	1.119152
O49	O	-0.612598	-1.270386	0.483852
O50	O	-0.362598	-1.020386	0.733852
O51	O	-0.112598	-0.770386	0.983852
O52	O	0.137402	-0.520386	1.233852
O53	O	-0.477075	-1.122329	0.477001
O54	O	-0.227075	-0.872329	0.727001
O55	O	0.022925	-0.622329	0.977001
O56	O	0.272925	-0.372329	1.227001
O57	O	-0.607439	-1.395256	0.381193
O58	O	-0.357439	-1.145256	0.631193
O59	O	-0.107439	-0.895256	0.881193
O60	O	0.142561	-0.645256	1.131193
O61	O	-0.381289	-1.395048	0.607343
O62	O	-0.131289	-1.145048	0.857343
O63	O	0.118711	-0.895048	1.107343
O64	O	0.368711	-0.645048	1.357343
O65	O	-0.483934	-1.270268	0.612516
O66	O	-0.233934	-1.020268	0.862516
O67	O	0.016066	-0.770268	1.112516
O68	O	0.266066	-0.520268	1.362516
C69	C	-0.423148	-1.093674	0.423075
C70	C	-0.173148	-0.843674	0.673075
C71	C	0.076852	-0.593674	0.923075
C72	C	0.326852	-0.343674	1.173075
C73	C	-0.423152	-0.986459	0.423088
C74	C	-0.173152	-0.736459	0.673088
C75	C	0.076848	-0.486459	0.923088
C76	C	0.326848	-0.236459	1.173088
C77	C	-0.423162	-0.899389	0.423090
C78	C	-0.173162	-0.649389	0.673090
C79	C	0.076838	-0.399389	0.923090
C80	C	0.326838	-0.149389	1.173090
C81	C	-0.423183	-0.790155	0.423096
C82	C	-0.173183	-0.540155	0.673096
C83	C	0.076817	-0.290155	0.923096
C84	C	0.326817	-0.040155	1.173096
C85	C	-0.641193	-1.330908	0.434096
C86	C	-0.391193	-1.080908	0.684096
C87	C	-0.141193	-0.830908	0.934096
C88	C	0.108807	-0.580908	1.184096
C89	C	-0.734094	-1.325208	0.438784
C90	C	-0.484094	-1.075208	0.688784
C91	C	-0.234094	-0.825208	0.938784
C92	C	0.015906	-0.575208	1.188784
C93	C	-0.904183	-1.314766	0.447326
C94	C	-0.654183	-1.064766	0.697326
C95	C	-0.404183	-0.814766	0.947326
C96	C	-0.154183	-0.564766	1.197326
C97	C	-0.943032	-1.374010	0.398609
C98	C	-0.693032	-1.124010	0.648609
C99	C	-0.443032	-0.874010	0.898609
C100	C	-0.193032	-0.624010	1.148609
C101	C	-1.037676	-1.368200	0.403362
C102	C	-0.787676	-1.118200	0.653362
C103	C	-0.537676	-0.868200	0.903362
C104	C	-0.287676	-0.618200	1.153362
C105	C	-0.809531	-1.320574	0.442575
C106	C	-0.559531	-1.070574	0.692575
C107	C	-0.309531	-0.820574	0.942575
C108	C	-0.059531	-0.570574	1.192575
C109	C	-0.206028	-1.357669	0.412073
C110	C	0.043972	-1.107669	0.662073
C111	C	0.293972	-0.857669	0.912073
C112	C	0.543972	-0.607669	1.162073
C113	C	-0.113116	-1.363571	0.407149
C114	C	0.136884	-1.113571	0.657149
C115	C	0.386884	-0.863571	0.907149
C116	C	0.636884	-0.613571	1.157149
C117	C	-0.434159	-1.330796	0.640258
C118	C	-0.184159	-1.080796	0.890258
C119	C	0.065841	-0.830796	1.140258
C120	C	0.315841	-0.580796	1.390258
C121	C	-0.438881	-1.325112	0.733164
C122	C	-0.188881	-1.075112	0.983164
C123	C	0.061119	-0.825112	1.233164
C124	C	0.311119	-0.575112	1.483164
C125	C	-0.423219	-0.595875	0.423108
C126	C	-0.173219	-0.345875	0.673108
C127	C	0.076781	-0.095875	0.923108
C128	C	0.326781	0.154125	1.173108
C129	C	-0.423205	-0.703090	0.423104
C130	C	-0.173205	-0.453090	0.673104
C131	C	0.076795	-0.203090	0.923104
C132	C	0.326795	0.046910	1.173104
C133	C	-0.412192	-1.357852	0.205081
C134	C	-0.162192	-1.107852	0.455081
C135	C	0.087808	-0.857852	0.705081
C136	C	0.337808	-0.607852	0.955081
C137	C	-0.407506	-1.363633	0.112177
C138	C	-0.157506	-1.113633	0.362177
C139	C	0.092494	-0.863633	0.612177
C140	C	0.342494	-0.613633	0.862177
C141	C	-0.447518	-1.314739	0.903264
C142	C	-0.197518	-1.064739	1.153264
C143	C	0.052482	-0.814739	1.403264
C144	C	0.302482	-0.564739	1.653264
C145	C	-0.398872	-1.374003	0.942083
C146	C	-0.148872	-1.124003	1.192083
C147	C	0.101128	-0.874003	1.442083
C148	C	0.351128	-0.624003	1.692083
C149	C	-0.403678	-1.368231	1.036732
C150	C	-0.153678	-1.118231	1.286732
C151	C	0.096322	-0.868231	1.536732
C152	C	0.346322	-0.618231	1.786732
C153	C	-0.442713	-1.320509	0.808606
C154	C	-0.192713	-1.070509	1.058606
C155	C	0.057287	-0.820509	1.308606
C156	C	0.307287	-0.570509	1.558606
H157	H	-0.905212	-1.429093	0.353331
H158	H	-0.655212	-1.179093	0.603331
H159	H	-0.405212	-0.929093	0.853331
H160	H	-0.155212	-0.679093	1.103331
H161	H	-0.942001	-1.259687	0.492600
H162	H	-0.692001	-1.009687	0.742600
H163	H	-0.442001	-0.759687	0.992600
H164	H	-0.192001	-0.509687	1.242600
H165	H	-0.353614	-1.429074	0.904232
H166	H	-0.103614	-1.179074	1.154232
H167	H	0.146386	-0.929074	1.404232
H168	H	0.396386	-0.679074	1.654232
H169	H	-0.492771	-1.259671	0.941111
H170	H	-0.242771	-1.009671	1.191111
H171	H	0.007229	-0.759671	1.441111
H172	H	0.257229	-0.509671	1.691111
