data_functionalizedCrystal
_audit_creation_method	'MofGen! by Chris Wilmer'
_symmetry_space_group_name_H-M	'P1'
_symmetry_Int_Tables_number	1
_symmetry_cell_setting	triclinic
loop_
_symmetry_equiv_pos_as_xyz
  x,y,z
_cell_length_a	6.817900
_cell_length_b	17.982959
_cell_length_c	11.102291
_cell_angle_alpha	94.235793
_cell_angle_beta	108.605752
_cell_angle_gamma	102.451857
loop_
_atom_site_label
_atom_site_type_symbol
_atom_site_fract_x
_atom_site_fract_y
_atom_site_fract_z
V1	V	-4.080405	-0.105422	-0.396790
O2	O	-4.072064	0.005056	-0.388690
O3	O	-4.026586	-0.209025	-0.394601
O4	O	-4.057667	-0.103805	-0.569604
O5	O	-4.040767	-0.100892	-0.212476
V6	V	-4.561410	-0.092207	-0.374681
O7	O	-4.347187	-0.134410	-0.445288
O8	O	-4.744825	-0.063219	-0.326182
O9	O	-4.392023	0.011396	-0.376869
O10	O	-4.687148	-0.202685	-0.382780
O11	O	-4.718444	-0.096737	-0.558994
O12	O	-4.360941	-0.093824	-0.201866
C13	C	-3.869438	-0.234281	-0.388477
C14	C	-3.906892	-0.318977	-0.387840
C15	C	-4.107349	-0.362649	-0.393899
C16	C	-4.142533	-0.442231	-0.393308
C17	C	-3.977253	-0.478139	-0.386648
C18	C	-3.776781	-0.434462	-0.380592
C19	C	-3.741604	-0.354883	-0.381192
C20	C	-3.918642	-0.755398	-0.378171
C21	C	-3.953833	-0.834983	-0.377567
C22	C	-4.319570	-0.842746	-0.390286
C23	C	-4.284394	-0.763166	-0.390887
C24	C	-4.083930	-0.719497	-0.384838
C25	C	-4.045782	-0.633206	-0.385481
C26	C	-4.015392	-0.564428	-0.385995
C27	C	-3.909084	-0.100061	-0.611709
C28	C	-3.971742	-0.099424	-0.752989
C29	C	-4.184062	-0.102925	-0.825854
C30	C	-4.242915	-0.102312	-0.958597
C31	C	-3.877106	-0.094700	-0.945598
C32	C	-3.818254	-0.095308	-0.812856
C33	C	-4.337550	-0.107042	-0.765987
C34	C	-4.549886	-0.110543	-0.838854
C35	C	-4.608739	-0.109930	-0.971597
C36	C	-4.455255	-0.105815	-1.031473
C37	C	-4.212512	0.036648	-0.382990
C38	C	-4.154297	0.121343	-0.383635
C39	C	-4.172865	-0.097570	-0.159755
C40	C	-4.089446	-0.098203	-0.018474
H41	H	-3.819234	-0.864217	-0.372152
Br42	Br	-3.646584	-0.696142	-0.369953
H43	H	-4.241938	-0.333417	-0.399310
Br44	Br	-3.552473	-0.483195	-0.371565
Br45	Br	-4.896896	-0.114674	-1.070482
Br46	Br	-3.530088	-0.090541	-0.713954
Br47	Br	-3.469551	-0.295614	-0.372982
H48	H	-4.289651	-0.107544	-0.657902
H49	H	-4.305763	-0.477785	-0.398244
H50	H	-4.674839	-0.113889	-0.790092
Br51	Br	-4.535121	-0.104964	-1.211621
H52	H	-3.752154	-0.091350	-0.994360
Br53	Br	-4.508702	-0.714435	-0.399903
Br54	Br	-4.591636	-0.902015	-0.398496
