data_functionalizedCrystal
_audit_creation_method	'MofGen! by Chris Wilmer'
_symmetry_space_group_name_H-M	'P1'
_symmetry_Int_Tables_number	1
_symmetry_cell_setting	triclinic
loop_
_symmetry_equiv_pos_as_xyz
  x,y,z
_cell_length_a	19.805407
_cell_length_b	19.805405
_cell_length_c	19.805399
_cell_angle_alpha	89.970699
_cell_angle_beta	90.019573
_cell_angle_gamma	89.973590
loop_
_atom_site_label
_atom_site_type_symbol
_atom_site_fract_x
_atom_site_fract_y
_atom_site_fract_z
Zn1	Zn	1.034736	0.269479	0.382712
Zn2	Zn	1.534736	0.769479	0.882712
Zn3	Zn	1.034651	0.382667	0.269520
Zn4	Zn	1.534651	0.882667	0.769520
Zn5	Zn	0.921550	0.269498	0.269536
Zn6	Zn	1.421550	0.769498	0.769536
Zn7	Zn	0.921514	0.382631	0.382667
Zn8	Zn	1.421514	0.882631	0.882667
O9	O	0.978113	0.326069	0.326109
O10	O	1.478113	0.826069	0.826109
O11	O	1.129441	0.284501	0.367708
O12	O	1.629441	0.784501	0.867708
O13	O	1.019627	0.367678	0.174805
O14	O	1.519627	0.867678	0.674805
O15	O	0.936616	0.174778	0.284575
O16	O	1.436616	0.674778	0.784575
O17	O	1.129378	0.367660	0.284547
O18	O	1.629378	0.867660	0.784547
O19	O	1.019772	0.174765	0.367724
O20	O	1.519772	0.674765	0.867724
O21	O	0.936533	0.284533	0.174817
O22	O	1.436533	0.784533	0.674817
O23	O	0.826829	0.284498	0.284531
O24	O	1.326829	0.784498	0.784531
O25	O	0.936553	0.367598	0.477389
O26	O	1.436553	0.867598	0.977389
O27	O	0.826802	0.367617	0.367648
O28	O	1.326802	0.867617	0.867648
O29	O	1.019737	0.284466	0.477422
O30	O	1.519737	0.784466	0.977422
O31	O	1.019592	0.477379	0.284503
O32	O	1.519592	0.977379	0.784503
O33	O	0.936471	0.477353	0.367632
O34	O	1.436471	0.977353	0.867632
C35	C	0.802257	0.326056	0.326087
C36	C	1.302257	0.826056	0.826087
C37	C	0.727025	0.326067	0.326093
C38	C	1.227025	0.826067	0.826093
C39	C	0.691684	0.369412	0.369302
C40	C	1.191684	0.869412	0.869302
C41	C	0.620996	0.369413	0.369312
C42	C	1.120996	0.869413	0.869312
C43	C	0.585649	0.326072	0.326109
C44	C	1.085649	0.826072	0.826109
C45	C	0.620994	0.282722	0.282898
C46	C	1.120994	0.782722	0.782898
C47	C	0.691681	0.282718	0.282892
C48	C	1.191681	0.782718	0.782892
C49	C	0.335921	0.282737	0.282920
C50	C	0.835921	0.782737	0.782920
C51	C	0.265229	0.282746	0.282928
C52	C	0.765229	0.782746	0.782928
C53	C	0.265235	0.369432	0.369340
C54	C	0.765235	0.869432	0.869340
C55	C	0.335922	0.369428	0.369334
C56	C	0.835922	0.869428	0.869334
C57	C	0.371262	0.326076	0.326126
C58	C	0.871262	0.826076	0.826126
C59	C	0.447910	0.326074	0.326117
C60	C	0.947910	0.826074	0.826117
C61	C	0.509002	0.326076	0.326114
C62	C	1.009002	0.826076	0.826114
C63	C	0.978036	0.501925	0.326076
C64	C	1.478036	1.001925	0.826076
C65	C	0.978066	0.577157	0.326084
C66	C	1.478066	1.077157	0.826084
C67	C	0.978151	0.326026	0.502651
C68	C	1.478151	0.826026	1.002651
C69	C	0.978167	0.326008	0.577883
C70	C	1.478167	0.826008	1.077883
C71	C	1.154655	0.326082	0.326131
C72	C	1.654655	0.826082	0.826131
C73	C	1.229887	0.326088	0.326140
C74	C	1.729887	0.826088	0.826140
C75	C	0.978207	0.149526	0.326156
C76	C	1.478207	0.649526	0.826156
C77	C	0.978248	0.074294	0.326177
C78	C	1.478248	0.574294	0.826177
C79	C	1.021389	0.612492	0.282845
C80	C	1.521389	1.112492	0.782845
C81	C	1.021418	0.683181	0.282860
C82	C	1.521418	1.183181	0.782860
C83	C	0.978119	0.718532	0.326111
C84	C	1.478119	1.218532	0.826111
C85	C	0.934794	0.683192	0.369356
C86	C	1.434794	1.183192	0.869356
C87	C	0.934769	0.612505	0.369344
C88	C	1.434769	1.112505	0.869344
C89	C	0.934894	0.968265	0.369406
C90	C	1.434894	1.468265	0.869406
C91	C	0.934921	1.038957	0.369413
C92	C	1.434921	1.538957	0.869413
C93	C	1.021542	1.038941	0.282922
C94	C	1.521542	1.538941	0.782922
C95	C	1.021517	0.968254	0.282910
C96	C	1.521517	1.468254	0.782910
C97	C	0.978195	0.932920	0.326157
C98	C	1.478195	1.432920	0.826157
C99	C	0.978166	0.856271	0.326141
C100	C	1.478166	1.356271	0.826141
C101	C	0.978145	0.795179	0.326124
C102	C	1.478145	1.295179	0.826124
C103	C	0.978114	0.326062	0.150253
C104	C	1.478114	0.826062	0.650253
C105	C	0.978229	0.325890	0.075021
C106	C	1.478229	0.825890	0.575021
C107	C	1.021481	0.282719	0.613246
C108	C	1.521481	0.782719	1.113246
C109	C	1.021488	0.282699	0.683934
C110	C	1.521488	0.782699	1.183934
C111	C	0.978184	0.325973	0.719259
C112	C	1.478184	0.825973	1.219259
C113	C	0.934864	0.369264	0.683892
C114	C	1.434864	0.869264	1.183892
C115	C	0.934854	0.369279	0.613204
C116	C	1.434854	0.869279	1.113204
C117	C	0.934902	0.369201	0.968965
C118	C	1.434902	0.869201	1.468965
C119	C	0.934917	0.369183	1.039657
C120	C	1.434917	0.869183	1.539657
C121	C	1.021536	0.282620	1.039695
C122	C	1.521536	0.782620	1.539695
C123	C	1.021527	0.282636	0.969008
C124	C	1.521527	0.782636	1.469008
C125	C	0.978205	0.325924	0.933647
C126	C	1.478205	0.825924	1.433647
C127	C	0.978197	0.325944	0.856998
C128	C	1.478197	0.825944	1.356998
C129	C	0.978194	0.325957	0.795906
C130	C	1.478194	0.825957	1.295906
H131	H	0.364686	0.247442	0.247733
H132	H	0.864686	0.747442	0.747733
O133	O	0.888198	0.415850	1.077760
O134	O	1.388198	0.915850	1.577760
H135	H	0.899761	0.468979	1.064178
H136	H	1.399761	0.968979	1.564178
O137	O	0.888150	0.930158	0.416027
O138	O	1.388150	1.430158	0.916027
H139	H	0.858036	0.966618	0.446091
H140	H	1.358036	1.466618	0.946091
O141	O	0.888217	1.077090	0.416064
O142	O	1.388217	1.577090	0.916064
H143	H	0.918503	1.109256	0.450524
H144	H	1.418503	1.609256	0.950524
O145	O	0.888145	0.415853	0.930829
O146	O	1.388145	0.915853	1.430829
H147	H	0.858027	0.445931	0.967270
H148	H	1.358027	0.945931	1.467270
O149	O	1.068195	0.236049	0.575148
O150	O	1.568195	0.736049	1.075148
H151	H	1.037918	0.201621	0.542941
H152	H	1.537918	0.701621	1.042941
O153	O	1.068210	0.236013	0.722078
O154	O	1.568210	0.736013	1.222078
H155	H	1.098328	0.205932	0.685639
H156	H	1.598328	0.705932	1.185639
O157	O	0.888036	0.574396	0.415980
O158	O	1.388036	1.074396	0.915980
H159	H	0.918297	0.542148	0.450445
H160	H	1.418297	1.042148	0.950445
H161	H	1.056695	0.711948	0.247649
H162	H	1.556695	1.211948	0.747649
O163	O	0.227106	0.236002	0.236319
O164	O	0.727106	0.736002	0.736319
H165	H	0.172016	0.243300	0.243574
H166	H	0.672016	0.743300	0.743574
O167	O	0.582881	0.235971	0.236295
O168	O	1.082881	0.735971	0.736295
H169	H	0.596435	0.247511	0.183155
H170	H	1.096435	0.747511	0.683155
O171	O	1.068273	1.077056	0.236280
O172	O	1.568273	1.577056	0.736280
H173	H	1.098369	1.040597	0.206197
H174	H	1.598369	1.540597	0.706197
H175	H	0.720455	0.247418	0.247711
H176	H	1.220455	0.747418	0.747711
H177	H	0.899543	0.711981	0.404575
H178	H	1.399543	1.211981	0.904575
O179	O	0.888125	0.415963	0.575064
O180	O	1.388125	0.915963	1.075064
H181	H	0.899700	0.469086	0.588609
H182	H	1.399700	0.969086	1.088609
H183	H	0.364698	0.404723	0.404512
H184	H	0.864698	0.904723	0.904512
H185	H	1.056644	0.583713	0.247621
H186	H	1.556644	1.083713	0.747621
O187	O	1.068234	0.235964	0.930905
O188	O	1.568234	0.735964	1.430905
H189	H	1.098352	0.205854	0.967372
H190	H	1.598352	0.705854	1.467372
O191	O	0.582946	0.416291	0.415844
O192	O	1.082946	0.916291	0.915844
H193	H	0.596532	0.404853	0.469010
H194	H	1.096532	0.904853	0.969010
O195	O	1.068246	0.235908	1.077833
O196	O	1.568246	0.735908	1.577833
H197	H	1.060970	0.243154	1.132921
H198	H	1.560970	0.743154	1.632921
H199	H	0.899602	0.404495	0.712659
H200	H	1.399602	0.904495	1.212659
H201	H	0.236454	0.404729	0.404524
H202	H	0.736454	0.904729	0.904524
H203	H	0.720458	0.404707	0.404481
H204	H	1.220458	0.904707	0.904481
O205	O	1.068221	0.930122	0.236265
O206	O	1.568221	1.430122	0.736265
H207	H	1.098358	0.966570	0.206205
H208	H	1.598358	1.466570	0.706205
