data_functionalizedCrystal
_audit_creation_method	'MofGen! by Chris Wilmer'
_symmetry_space_group_name_H-M	'P1'
_symmetry_Int_Tables_number	1
_symmetry_cell_setting	triclinic
loop_
_symmetry_equiv_pos_as_xyz
  x,y,z
_cell_length_a	19.188933
_cell_length_b	19.188924
_cell_length_c	17.666332
_cell_angle_alpha	90.007291
_cell_angle_beta	90.007838
_cell_angle_gamma	83.143767
loop_
_atom_site_label
_atom_site_type_symbol
_atom_site_fract_x
_atom_site_fract_y
_atom_site_fract_z
O1	O	0.926147	0.087174	0.062927
O2	O	1.426147	0.587174	0.562927
O3	O	0.722835	0.098907	0.062934
O4	O	1.222835	0.598907	0.562934
O5	O	0.830361	-0.008615	0.062921
O6	O	1.330361	0.491385	0.562921
O7	O	0.818621	0.194697	0.062939
O8	O	1.318621	0.694697	0.562939
O9	O	0.830342	-0.008618	-0.062976
O10	O	1.330342	0.491382	0.437024
O11	O	0.722816	0.098904	-0.062963
O12	O	1.222816	0.598904	0.437037
O13	O	0.926128	0.087171	-0.062970
O14	O	1.426128	0.587171	0.437030
Cu15	Cu	0.824470	0.093037	-0.074462
Cu16	Cu	1.324470	0.593037	0.425538
Cu17	Cu	0.824493	0.093041	0.074426
Cu18	Cu	1.324493	0.593041	0.574426
O19	O	0.818602	0.194694	-0.062957
O20	O	1.318602	0.694694	0.437043
C21	C	0.696815	0.098525	-0.000013
C22	C	1.196815	0.598525	0.499987
C23	C	0.619310	0.097384	-0.000011
C24	C	1.119310	0.597384	0.499989
C25	C	0.066065	0.089241	0.068606
C26	C	0.566065	0.589241	0.568606
C27	C	0.138890	0.090309	0.068610
C28	C	0.638890	0.590309	0.568610
C29	C	0.175296	0.090844	-0.000017
C30	C	0.675296	0.590844	0.499983
C31	C	0.138875	0.090294	-0.068651
C32	C	0.638875	0.590294	0.431349
C33	C	0.066053	0.089219	-0.068652
C34	C	0.566053	0.589219	0.431348
N35	N	0.284308	0.132262	-0.051094
N36	N	0.784308	0.632262	0.448906
N37	N	0.353485	0.133285	-0.051089
N38	N	0.853485	0.633285	0.448911
C39	C	0.394705	0.094082	-0.000017
C40	C	0.894705	0.594082	0.499983
N41	N	0.364133	0.053827	0.051059
N42	N	0.864133	0.553827	0.551059
N43	N	0.294948	0.052807	0.051056
N44	N	0.794948	0.552807	0.551056
C45	C	0.254260	0.092010	-0.000023
C46	C	0.754260	0.592010	0.499977
C47	C	0.510082	0.095786	0.068616
C48	C	1.010082	0.595786	0.568616
C49	C	0.582909	0.096850	0.068616
C50	C	1.082909	0.596850	0.568616
C51	C	0.582892	0.096842	-0.068646
C52	C	1.082892	0.596842	0.431354
C53	C	0.510068	0.095771	-0.068645
C54	C	1.010068	0.595771	0.431355
C55	C	0.473667	0.095246	-0.000011
C56	C	0.973667	0.595246	0.499989
C57	C	0.829972	-0.034628	-0.000028
C58	C	1.329972	0.465372	0.499972
C59	C	0.828833	-0.112133	-0.000030
C60	C	1.328833	0.387867	0.499970
C61	C	0.828312	-0.148530	0.068597
C62	C	1.328312	0.351470	0.568597
C63	C	0.827232	-0.221353	0.068602
C64	C	1.327232	0.278647	0.568602
C65	C	0.826687	-0.257777	-0.000022
C66	C	1.326687	0.242223	0.499978
C67	C	0.827205	-0.221371	-0.068658
C68	C	1.327205	0.278629	0.431342
C69	C	0.828277	-0.148548	-0.068662
C70	C	1.328277	0.351452	0.431338
N71	N	0.864727	-0.377441	-0.051099
N72	N	1.364727	0.122559	0.448901
N73	N	0.863710	-0.446620	-0.051091
N74	N	1.363710	0.053380	0.448909
C75	C	0.823453	-0.477186	-0.000015
C76	C	1.323453	0.022814	0.499985
N77	N	0.784262	-0.435963	0.051064
N78	N	1.284262	0.064037	0.551064
N79	N	0.785283	-0.366778	0.051058
N80	N	1.285283	0.133222	0.551058
C81	C	0.825523	-0.336741	-0.000026
C82	C	1.325523	0.163259	0.499974
C83	C	0.821760	-0.592546	0.068623
C84	C	1.321760	-0.092546	0.568623
C85	C	0.820676	-0.665370	0.068626
C86	C	1.320676	-0.165370	0.568626
C87	C	0.820655	-0.665387	-0.068637
C88	C	1.320655	-0.165387	0.431363
C89	C	0.821733	-0.592564	-0.068637
C90	C	1.321733	-0.092564	0.431363
C91	C	0.822288	-0.556149	-0.000006
C92	C	1.322288	-0.056149	0.499994
C93	C	0.952148	0.087553	-0.000021
C94	C	1.452148	0.587553	0.499979
C95	C	1.029653	0.088694	-0.000019
C96	C	1.529653	0.588694	0.499981
C97	C	0.818991	0.220706	-0.000007
C98	C	1.318991	0.720706	0.499993
C99	C	0.820130	0.298211	0.000000
C100	C	1.320130	0.798211	0.500000
N101	N	0.824460	0.093034	-0.179181
N102	N	1.324460	0.593034	0.320819
C103	C	0.866668	0.135280	-0.218782
C104	C	1.366668	0.635280	0.281218
C105	C	0.866679	0.135278	-0.298030
C106	C	1.366679	0.635278	0.201970
C107	C	0.824469	0.093038	-0.337673
C108	C	1.324469	0.593038	0.162327
C109	C	0.782259	0.050784	-0.298063
C110	C	1.282259	0.550784	0.201937
C111	C	0.782254	0.050782	-0.218817
C112	C	1.282254	0.550782	0.281183
N113	N	0.763321	0.091318	-0.462111
N114	N	1.263321	0.591318	0.037889
N115	N	0.763327	0.091324	-0.537391
N116	N	1.263327	0.591324	-0.037391
C117	C	0.824482	0.093041	-0.576437
C118	C	1.324482	0.593041	-0.076437
N119	N	0.885631	0.094765	-0.537359
N120	N	1.385631	0.594765	-0.037359
N121	N	0.885623	0.094763	-0.462072
N122	N	1.385623	0.594763	0.037928
C123	C	0.824470	0.093035	-0.423603
C124	C	1.324470	0.593035	0.076397
C125	C	0.866705	0.135287	-0.701968
C126	C	1.366705	0.635287	-0.201968
C127	C	0.866718	0.135280	-0.781217
C128	C	1.366718	0.635280	-0.281217
C129	C	0.782291	0.050789	-0.781248
C130	C	1.282291	0.550789	-0.281248
C131	C	0.782285	0.050792	-0.702001
C132	C	1.282285	0.550792	-0.202001
C133	C	0.824491	0.093045	-0.662365
C134	C	1.324491	0.593045	-0.162365
N135	N	0.824509	0.093038	0.179145
N136	N	1.324509	0.593038	0.679145
H137	H	0.168542	0.090758	0.124494
H138	H	0.668542	0.590758	0.624494
N139	N	0.822277	-0.553214	0.142618
N140	N	1.322277	-0.053214	0.642618
H141	H	0.865973	-0.528762	0.145704
H142	H	1.365973	-0.028762	0.645704
H143	H	0.821726	-0.587329	0.186082
H144	H	1.321726	-0.087329	0.686082
N145	N	0.470811	0.095212	0.142633
N146	N	0.970811	0.595212	0.642633
H147	H	0.477695	0.138671	0.172641
H148	H	0.977695	0.638671	0.672641
H149	H	0.489296	0.052099	0.172573
H150	H	0.989296	0.552099	0.672573
H151	H	0.480420	0.095329	-0.124527
H152	H	0.980420	0.595329	0.375473
H153	H	0.036406	0.088776	-0.124536
H154	H	0.536406	0.588776	0.375464
N155	N	0.820160	-0.704617	0.142661
N156	N	1.320160	-0.204617	0.642661
H157	H	0.777100	-0.686151	0.172700
H158	H	1.277100	-0.186151	0.672700
H159	H	0.863673	-0.697693	0.172552
H160	H	1.363673	-0.197693	0.672552
N161	N	0.736773	0.005221	-0.823996
N162	N	1.236773	0.505221	-0.323996
H163	H	0.685930	0.019110	-0.810216
H164	H	1.185930	0.519110	-0.310216
H165	H	0.750772	-0.045595	-0.810184
H166	H	1.250772	0.454405	-0.310184
N167	N	0.912197	0.180854	-0.340753
N168	N	1.412197	0.680854	0.159247
H169	H	0.905793	0.174445	-0.396969
H170	H	1.405793	0.674445	0.103031
H171	H	0.963019	0.166942	-0.326897
H172	H	1.463019	0.666942	0.173103
N173	N	0.828908	-0.109253	0.142617
N174	N	1.328908	0.390747	0.642617
H175	H	0.828413	-0.143365	0.186093
H176	H	1.328413	0.356635	0.686093
H177	H	0.786080	-0.073246	0.145610
H178	H	1.286080	0.426754	0.645610
N179	N	0.820060	-0.704662	-0.142655
N180	N	1.320060	-0.204662	0.357345
H181	H	0.819299	-0.756318	-0.132241
H182	H	1.319299	-0.256318	0.367759
H183	H	0.863516	-0.697732	-0.172629
H184	H	1.363516	-0.197732	0.327371
H185	H	0.826803	-0.250992	0.124488
H186	H	1.326803	0.249008	0.624488
N187	N	0.178139	0.090880	-0.142668
N188	N	0.678139	0.590880	0.357332
H189	H	0.144018	0.090372	-0.186144
H190	H	0.644018	0.590372	0.313856
H191	H	0.214150	0.048055	-0.145661
H192	H	0.714150	0.548055	0.354339
N193	N	0.736721	0.005220	-0.176101
N194	N	1.236721	0.505220	0.323899
H195	H	0.743121	0.011631	-0.119885
H196	H	1.243121	0.511631	0.380115
H197	H	0.750677	-0.045595	-0.189956
H198	H	1.250677	0.454405	0.310044
H199	H	0.901072	0.169690	-0.669695
H200	H	1.401072	0.669690	-0.169695
H201	H	0.036433	0.088811	0.124493
H202	H	0.536433	0.588811	0.624493
H203	H	0.612555	0.097289	0.124501
H204	H	1.112555	0.597289	0.624501
H205	H	0.612534	0.097275	-0.124523
H206	H	1.112534	0.597275	0.375477
H207	H	0.826759	-0.251032	-0.124532
H208	H	1.326759	0.248968	0.375468
H209	H	0.828699	-0.118914	-0.124547
H210	H	1.328699	0.381086	0.375453
N211	N	0.822302	-0.553303	-0.142657
N212	N	1.322302	-0.053303	0.357343
H213	H	0.821795	-0.587426	-0.186131
H214	H	1.321795	-0.087426	0.313869
H215	H	0.866021	-0.528883	-0.145647
H216	H	1.366021	-0.028883	0.354353
N217	N	0.912196	0.180842	-0.176033
N218	N	1.412196	0.680842	0.323967
H219	H	0.938939	0.207602	-0.213150
H220	H	1.438939	0.707602	0.286850
H221	H	0.946419	0.150309	-0.143156
H222	H	1.446419	0.650309	0.356844
N223	N	0.736736	0.005220	-0.340815
N224	N	1.236736	0.505220	0.159185
H225	H	0.743142	0.011633	-0.397027
H226	H	1.243142	0.511633	0.102973
H227	H	0.685915	0.019137	-0.326972
H228	H	1.185915	0.519137	0.173028
N229	N	0.912270	0.180821	-0.823934
N230	N	1.412270	0.680821	-0.323934
H231	H	0.939011	0.207579	-0.786797
H232	H	1.439011	0.707579	-0.286797
H233	H	0.881744	0.215032	-0.856830
H234	H	1.381744	0.715032	-0.356830
N235	N	0.736759	0.005229	-0.659282
N236	N	1.236759	0.505229	-0.159282
H237	H	0.710020	-0.021532	-0.696419
H238	H	1.210020	0.478468	-0.196419
H239	H	0.702531	0.035754	-0.626404
H240	H	1.202531	0.535754	-0.126404
