data_functionalizedCrystal
_audit_creation_method	'MofGen! by Chris Wilmer'
_symmetry_space_group_name_H-M	'P1'
_symmetry_Int_Tables_number	1
_symmetry_cell_setting	triclinic
loop_
_symmetry_equiv_pos_as_xyz
  x,y,z
_cell_length_a	12.827893
_cell_length_b	16.120531
_cell_length_c	12.827885
_cell_angle_alpha	92.860433
_cell_angle_beta	90.019082
_cell_angle_gamma	87.067638
loop_
_atom_site_label
_atom_site_type_symbol
_atom_site_fract_x
_atom_site_fract_y
_atom_site_fract_z
Zn1	Zn	1.576455	0.331862	0.611864
Zn2	Zn	2.076455	0.831862	1.111864
Zn3	Zn	1.567435	0.471297	0.445957
Zn4	Zn	2.067435	0.971297	0.945957
Zn5	Zn	1.401694	0.331903	0.437141
Zn6	Zn	1.901694	0.831903	0.937141
Zn7	Zn	1.392772	0.471236	0.620654
Zn8	Zn	1.892772	0.971236	1.120654
O9	O	1.484589	0.401575	0.528904
O10	O	1.984589	0.901575	1.028904
O11	O	1.721494	0.350367	0.589868
O12	O	2.221494	0.850367	1.089868
O13	O	1.545408	0.452849	0.298554
O14	O	2.045408	0.952849	0.798554
O15	O	1.432385	0.215232	0.452951
O16	O	1.932385	0.715232	0.952951
O17	O	1.714867	0.452810	0.467976
O18	O	2.214867	0.952810	0.967976
O19	O	1.560781	0.215202	0.581319
O20	O	2.060781	0.715202	1.081319
O21	O	1.423639	0.350437	0.292077
O22	O	1.923639	0.850437	0.792077
O23	O	1.254275	0.350377	0.461473
O24	O	1.754275	0.850377	0.961473
O25	O	1.417179	0.452705	0.765721
O26	O	1.917179	0.952705	1.265721
O27	O	1.247720	0.452744	0.596299
O28	O	1.747720	0.952744	1.096299
O29	O	1.552130	0.350307	0.759264
O30	O	2.052130	0.850307	1.259264
O31	O	1.536757	0.587955	0.476498
O32	O	2.036757	1.087955	0.976498
O33	O	1.408433	0.587909	0.604847
O34	O	1.908433	1.087909	1.104847
C35	C	1.213080	0.401559	0.528884
C36	C	1.713080	0.901559	1.028884
C37	C	1.096926	0.401573	0.528902
C38	C	1.596926	0.901573	1.028902
C39	C	1.048361	0.350851	0.462294
C40	C	1.548361	0.850851	0.962294
C41	C	0.928310	0.350864	0.462310
C42	C	1.428310	0.850864	0.962310
C43	C	1.470677	0.618182	0.542606
C44	C	1.970677	1.118182	1.042606
C45	C	1.464820	0.710847	0.548503
C46	C	1.964820	1.210847	1.048503
C47	C	1.454135	0.880508	0.559290
C48	C	1.954135	1.380508	1.059290
C49	C	1.515082	0.921800	0.498459
C50	C	2.015082	1.421800	0.998459
C51	C	1.509137	1.016206	0.504461
C52	C	2.009137	1.516206	1.004461
C53	C	1.460079	0.786095	0.553289
C54	C	1.960079	1.286095	1.053289
C55	C	1.757158	0.401591	0.528925
C56	C	2.257158	0.901591	1.028925
C57	C	1.873311	0.401597	0.528934
C58	C	2.373311	0.901597	1.028934
C59	C	1.484665	0.401495	0.801469
C60	C	1.984665	0.901495	1.301469
C61	C	1.484698	0.401460	0.917620
C62	C	1.984698	0.901460	1.417620
C63	C	1.498547	1.184122	0.515152
C64	C	1.998547	1.684122	1.015152
C65	C	1.504400	1.091456	0.509243
C66	C	2.004400	1.591456	1.009243
C67	C	1.484577	0.401594	0.257395
C68	C	1.984577	0.901594	0.757395
C69	C	1.484762	0.401393	0.141230
C70	C	1.984762	0.901393	0.641230
C71	C	1.551483	0.350781	0.966209
C72	C	2.051483	0.850781	1.466209
C73	C	1.551518	0.350745	1.086257
C74	C	2.051518	0.850745	1.586257
H75	H	1.095661	0.307420	0.405253
H76	H	1.595661	0.807420	0.905253
H77	H	1.571726	0.886251	0.441871
H78	H	2.071726	1.386251	0.941871
H79	H	1.427585	0.444787	1.099440
H80	H	1.927585	0.944787	1.599440
O81	O	1.416412	0.453221	0.973851
O82	O	1.916412	0.953221	1.473851
C83	C	1.277059	0.559031	0.969248
C84	C	1.777059	1.059031	1.469248
C85	C	1.354321	0.500440	0.905443
C86	C	1.854321	1.000440	1.405443
H87	H	1.226853	0.597236	0.913969
H88	H	1.726853	1.097236	1.413969
H89	H	1.224870	0.520740	1.017897
H90	H	1.724870	1.020740	1.517897
H91	H	1.322315	0.602537	1.023130
H92	H	1.822315	1.102537	1.523130
H93	H	1.309150	0.456923	0.851504
H94	H	1.809150	0.956923	1.351504
H95	H	1.406510	0.538783	0.856863
H96	H	1.906510	1.038783	1.356863
H97	H	0.886534	0.307436	0.405289
H98	H	1.386534	0.807436	0.905289
H99	H	1.608699	0.307359	1.128055
H100	H	2.108699	0.807359	1.628055
H101	H	1.397494	0.916056	0.615872
H102	H	1.897494	1.416056	1.115872
H103	H	0.915081	0.445020	0.585966
H104	H	1.415081	0.945020	1.085966
H105	H	1.049626	0.445009	0.585936
H106	H	1.549626	0.945009	1.085936
O107	O	1.619633	0.299130	0.909662
O108	O	2.119633	0.799130	1.409662
C109	C	1.681668	0.252015	0.738452
C110	C	2.181668	0.752015	1.238452
C111	C	1.604445	0.310566	0.802361
C112	C	2.104445	0.810566	1.302361
H113	H	1.669400	0.261228	0.651686
H114	H	2.169400	0.761228	1.151686
H115	H	1.765037	0.266644	0.760703
H116	H	2.265037	0.766644	1.260703
H117	H	1.667688	0.184775	0.755664
H118	H	2.167688	0.684775	1.255664
H119	H	1.618330	0.377826	0.785183
H120	H	2.118330	0.877826	1.285183
H121	H	1.521102	0.295865	0.780100
H122	H	2.021102	0.795865	1.280100
