data_functionalizedCrystal
_audit_creation_method	'MofGen! by Chris Wilmer'
_symmetry_space_group_name_H-M	'P1'
_symmetry_Int_Tables_number	1
_symmetry_cell_setting	triclinic
loop_
_symmetry_equiv_pos_as_xyz
  x,y,z
_cell_length_a	11.792241
_cell_length_b	11.026607
_cell_length_c	9.482900
_cell_angle_alpha	101.401054
_cell_angle_beta	80.650163
_cell_angle_gamma	96.389716
loop_
_atom_site_label
_atom_site_type_symbol
_atom_site_fract_x
_atom_site_fract_y
_atom_site_fract_z
O1	O	1.553788	0.147665	-0.120743
O2	O	1.226859	0.164825	-0.120776
O3	O	1.363228	-0.020587	-0.120760
O4	O	1.417420	0.333076	-0.120759
O5	O	1.335560	0.017227	0.121029
O6	O	1.199191	0.202638	0.121014
O7	O	1.526120	0.185478	0.121046
Cu8	Cu	1.360129	0.197511	0.143107
Cu9	Cu	1.392850	0.152792	-0.142837
O10	O	1.389751	0.370889	0.121031
C11	C	1.170521	0.182652	0.000115
C12	C	1.043868	0.179423	0.000102
C13	C	1.339397	-0.046957	0.000131
C14	C	1.309595	-0.181869	0.000120
N15	N	1.337123	0.228963	0.344225
C16	C	0.811972	0.173495	0.000143
C17	C	0.941015	0.176789	0.000120
C18	C	1.582459	0.167650	0.000153
C19	C	1.709113	0.170878	0.000156
C20	C	1.413583	0.397259	0.000136
C21	C	1.443385	0.532170	0.000138
C22	C	1.361096	0.605433	0.000128
C23	C	1.391897	0.744870	0.000130
N24	N	1.415864	0.121330	-0.343954
C25	C	1.386055	0.162062	0.416430
C26	C	1.366924	0.188240	0.583845
H27	H	1.485162	0.785362	0.000086
O28	O	1.453097	0.070691	0.342521
C29	C	1.565440	0.096734	0.379605
H30	H	1.562385	0.160778	0.490146
H31	H	1.622833	0.144021	0.293967
C32	C	1.618507	-0.103870	0.250704
C33	C	1.614754	-0.025218	0.386479
H34	H	1.648930	-0.179094	0.254939
H35	H	1.542822	-0.121414	0.225715
H36	H	1.666333	-0.064449	0.179353
H37	H	1.566918	-0.064632	0.457823
H38	H	1.690433	-0.007683	0.411481
O39	O	1.299943	0.279555	0.658101
C40	C	1.206358	0.227894	0.746126
H41	H	1.229372	0.136547	0.768768
H42	H	1.127332	0.210179	0.687567
C43	C	1.151527	0.430979	0.862991
C44	C	1.179797	0.318791	0.890810
H45	H	1.135139	0.487050	0.952236
H46	H	1.214575	0.465785	0.803683
H47	H	1.085676	0.416200	0.814187
H48	H	1.245656	0.333569	0.939595
H49	H	1.116760	0.283989	0.950130
O50	O	1.198347	0.769847	-0.000147
C51	C	1.158271	0.789586	-0.125358
H52	H	1.234808	0.802756	-0.212877
H53	H	1.108472	0.876125	-0.097049
C54	C	0.984370	0.660283	-0.074654
C55	C	1.078374	0.676448	-0.182151
H56	H	0.935082	0.590497	-0.109685
H57	H	1.011368	0.646988	0.009706
H58	H	0.942885	0.732406	-0.051073
H59	H	1.119866	0.604332	-0.205717
H60	H	1.051382	0.689728	-0.266517
O61	O	1.554620	0.580594	-0.000047
C62	C	1.591089	0.633497	-0.125291
H63	H	1.512689	0.657818	-0.167050
H64	H	1.640037	0.564182	-0.212972
C65	C	1.767001	0.722196	-0.035961
C66	C	1.670710	0.752077	-0.087242
H67	H	1.816120	0.795339	-0.012494
H68	H	1.742434	0.686551	0.048416
H69	H	1.807778	0.664431	-0.109037
H70	H	1.629928	0.809829	-0.014160
H71	H	1.695272	0.787735	-0.171607
O72	O	1.482806	0.029923	0.581965
C73	C	1.595237	0.055751	0.618792
H74	H	1.592380	0.119686	0.729389
H75	H	1.652568	0.103072	0.533138
C76	C	1.647974	-0.144853	0.489491
C77	C	1.644463	-0.066335	0.625334
H78	H	1.678343	-0.220160	0.493520
H79	H	1.572229	-0.162253	0.464675
H80	H	1.695748	-0.105403	0.418127
H81	H	1.596678	-0.105778	0.696691
H82	H	1.720202	-0.048945	0.650162
O83	O	1.270146	0.320272	0.418486
C84	C	1.176561	0.268611	0.506512
H85	H	1.199575	0.177264	0.529154
H86	H	1.097535	0.250896	0.447952
C87	C	1.121730	0.471696	0.623376
C88	C	1.150000	0.359508	0.651196
H89	H	1.105341	0.527767	0.712621
H90	H	1.184777	0.506502	0.564068
H91	H	1.055878	0.456917	0.574573
H92	H	1.215859	0.374286	0.699981
H93	H	1.086963	0.324706	0.710515
H94	H	1.267844	0.564925	0.000112
