data_functionalizedCrystal
_audit_creation_method	'MofGen! by Chris Wilmer'
_symmetry_space_group_name_H-M	'P1'
_symmetry_Int_Tables_number	1
_symmetry_cell_setting	triclinic
loop_
_symmetry_equiv_pos_as_xyz
  x,y,z
_cell_length_a	8.497374
_cell_length_b	11.169417
_cell_length_c	11.169409
_cell_angle_alpha	90.019824
_cell_angle_beta	89.979460
_cell_angle_gamma	89.998029
loop_
_atom_site_label
_atom_site_type_symbol
_atom_site_fract_x
_atom_site_fract_y
_atom_site_fract_z
Zn1	Zn	0.627891	1.835039	0.678641
Zn2	Zn	0.891756	1.834961	0.477999
Zn3	Zn	0.627987	1.634325	0.477976
Zn4	Zn	0.891627	1.634365	0.678644
O5	O	0.759815	1.734673	0.578315
O6	O	0.662907	2.002979	0.652034
O7	O	0.856860	1.808297	0.310046
O8	O	0.407212	1.660967	0.504583
O9	O	0.856767	2.002921	0.504624
O10	O	0.407142	1.808430	0.652011
O11	O	0.663071	1.660891	0.310029
O12	O	0.662946	1.466381	0.504586
O13	O	0.856548	1.661035	0.846594
O14	O	0.856641	1.466410	0.652016
O15	O	0.662782	1.808469	0.846591
O16	O	1.112501	1.808336	0.504627
O17	O	1.112407	1.660959	0.652040
C18	C	0.759791	1.422848	0.578300
C19	C	0.759819	1.289448	0.578321
C20	C	1.169695	1.734658	0.578332
C21	C	1.348339	1.734690	0.578313
C22	C	0.759640	1.734765	0.891358
C23	C	0.759565	1.734804	1.024758
C24	C	0.759840	2.047715	0.578331
C25	C	0.759851	2.181115	0.578338
C26	C	0.759876	1.734650	0.266490
C27	C	0.759506	1.734843	0.133091
