data_functionalizedCrystal
_audit_creation_method	'MofGen! by Chris Wilmer'
_symmetry_space_group_name_H-M	'P1'
_symmetry_Int_Tables_number	1
_symmetry_cell_setting	triclinic
loop_
_symmetry_equiv_pos_as_xyz
  x,y,z
_cell_length_a	16.625547
_cell_length_b	18.101395
_cell_length_c	16.625539
_cell_angle_alpha	90.027648
_cell_angle_beta	90.024822
_cell_angle_gamma	90.031041
loop_
_atom_site_label
_atom_site_type_symbol
_atom_site_fract_x
_atom_site_fract_y
_atom_site_fract_z
Zn1	Zn	1.232632	-0.294829	0.456005
Zn2	Zn	1.232515	-0.418679	0.321173
Zn3	Zn	1.097794	-0.294855	0.321175
Zn4	Zn	1.097744	-0.418634	0.455953
O5	O	1.165171	-0.356749	0.388576
O6	O	1.345449	-0.311266	0.438140
O7	O	1.214616	-0.402283	0.208341
O8	O	1.115750	-0.191219	0.339083
O9	O	1.345363	-0.402258	0.339080
O10	O	1.214815	-0.191200	0.438141
O11	O	1.115637	-0.311310	0.208342
O12	O	0.984955	-0.311267	0.339033
O13	O	1.115665	-0.402181	0.568792
O14	O	0.984918	-0.402206	0.438054
O15	O	1.214767	-0.311223	0.568830
O16	O	1.214567	-0.522305	0.339030
O17	O	1.115552	-0.522272	0.438052
C18	C	0.955680	-0.356735	0.388538
C19	C	0.866059	-0.356747	0.388541
C20	C	0.793277	-0.356748	0.388551
C21	C	0.701968	-0.356752	0.388571
C22	C	0.629192	-0.356759	0.388592
C23	C	0.537878	-0.356764	0.388611
C24	C	1.165063	-0.549160	0.388553
C25	C	1.165091	-0.631474	0.388570
C26	C	1.165268	-0.930565	0.388613
C27	C	1.103114	-0.899250	0.451070
C28	C	1.102819	-0.813632	0.450874
C29	C	1.165180	-0.782182	0.388592
C30	C	1.142173	-0.813334	0.303613
C31	C	1.141772	-0.898979	0.303986
C32	C	1.250565	-0.898908	0.410388
C33	C	1.250063	-0.813257	0.412252
C34	C	1.165132	-0.698323	0.388575
C35	C	1.165314	-1.014424	0.388624
C36	C	1.375480	-0.356764	0.388615
C37	C	1.465101	-0.356771	0.388632
C38	C	1.165224	-0.356694	0.598885
C39	C	1.165246	-0.356671	0.688507
C40	C	1.165302	-0.163587	0.388618
C41	C	1.165357	-0.081273	0.388636
C42	C	1.165165	-0.356751	0.179086
C43	C	1.165299	-0.356566	0.089465
C44	C	1.165283	-0.356588	1.016683
C45	C	1.165271	-0.356613	0.925374
C46	C	1.165265	-0.356630	0.852597
C47	C	1.165252	-0.356654	0.761283
H48	H	1.117214	-0.792567	0.513886
C49	C	1.201399	-0.785815	0.239026
C50	C	1.210978	-0.702408	0.223527
C51	C	1.270205	-0.674888	0.158942
C52	C	1.319853	-0.730775	0.109857
C53	C	1.310274	-0.814188	0.125355
C54	C	1.251047	-0.841708	0.189939
H55	H	1.174225	-0.661032	0.259864
H56	H	1.277295	-0.613140	0.147470
H57	H	1.363696	-0.710403	0.062047
H58	H	1.347028	-0.855564	0.089018
H59	H	1.243957	-0.903456	0.201412
C60	C	1.018220	-0.928410	0.431837
C61	C	1.005142	-0.980481	0.359729
C62	C	0.920249	-1.009645	0.340495
C63	C	0.848433	-0.986736	0.393370
C64	C	0.861509	-0.934662	0.465483
C65	C	0.946402	-0.905498	0.484716
H66	H	1.058306	-0.997442	0.320584
H67	H	0.910570	-1.048194	0.287112
H68	H	0.785591	-1.008325	0.379132
H69	H	0.808345	-0.917701	0.504628
H70	H	0.956081	-0.866949	0.538099
C71	C	1.315956	-0.784367	0.355283
C72	C	1.366323	-0.839109	0.305408
C73	C	1.432223	-0.810234	0.248433
C74	C	1.447756	-0.726616	0.241334
C75	C	1.397388	-0.671868	0.291210
C76	C	1.331488	-0.700743	0.348185
H77	H	1.354825	-0.901013	0.310662
H78	H	1.469509	-0.850762	0.211512
H79	H	1.496540	-0.705241	0.199158
H80	H	1.408886	-0.609964	0.285956
H81	H	1.294202	-0.660215	0.385107
H82	H	1.185078	-0.919697	0.255864
C83	C	1.273508	-0.785751	0.496739
C84	C	1.354583	-0.808684	0.533919
C85	C	1.378023	-0.781177	0.618409
C86	C	1.320389	-0.730736	0.665719
C87	C	1.239310	-0.707799	0.628540
C88	C	1.215869	-0.735307	0.544050
H89	H	1.397251	-0.846026	0.498896
H90	H	1.438044	-0.798156	0.645931
H91	H	1.337742	-0.710373	0.728263
H92	H	1.196641	-0.670457	0.663562
H93	H	1.155849	-0.718328	0.516528
C94	C	1.058828	-0.784456	0.278246
C95	C	1.011577	-0.732650	0.334486
C96	C	0.928230	-0.703774	0.309124
C97	C	0.892135	-0.726704	0.227524
C98	C	0.939388	-0.778513	0.171279
C99	C	1.022734	-0.807389	0.196640
H100	H	1.038296	-0.715673	0.394896
H101	H	0.893251	-0.665421	0.350761
H102	H	0.830437	-0.705328	0.208750
H103	H	0.912669	-0.795490	0.110869
H104	H	1.057713	-0.845742	0.155004
H105	H	1.271540	-0.920456	0.471299
C106	C	1.313127	-0.926267	0.348942
C107	C	1.401809	-0.902822	0.357087
C108	C	1.464364	-0.930185	0.295640
C109	C	1.438235	-0.980995	0.226047
C110	C	1.349548	-1.004443	0.217899
C111	C	1.286994	-0.977079	0.279346
H112	H	1.421155	-0.865207	0.408607
H113	H	1.530016	-0.912827	0.301672
H114	H	1.484542	-1.001251	0.180560
H115	H	1.330203	-1.042058	0.166379
H116	H	1.221342	-0.994438	0.273314
C117	C	1.122365	-0.927000	0.536475
C118	C	1.194756	-0.978438	0.550554
C119	C	1.214011	-1.006190	0.635962
C120	C	1.160875	-0.982504	0.707292
C121	C	1.088480	-0.931064	0.693215
C122	C	1.069225	-0.903312	0.607807
H123	H	1.234094	-0.995974	0.497749
H124	H	1.267603	-1.044270	0.646382
H125	H	1.175129	-1.003048	0.770516
H126	H	1.049142	-0.913528	0.746020
H127	H	1.015633	-0.865232	0.597387
H128	H	1.079421	-0.919022	0.285542
C129	C	1.017409	-0.786036	0.431383
C130	C	0.977383	-0.807190	0.351057
C131	C	0.891969	-0.779597	0.331562
C132	C	0.846582	-0.730849	0.392393
C133	C	0.886608	-0.709692	0.472724
C134	C	0.972022	-0.737286	0.492219
H135	H	1.010982	-0.843279	0.306021
H136	H	0.862339	-0.795259	0.272095
H137	H	0.783354	-0.710423	0.377962
H138	H	0.853010	-0.673604	0.517760
H139	H	1.001652	-0.721624	0.551686
