data_functionalizedCrystal
_audit_creation_method	'MofGen! by Chris Wilmer'
_symmetry_space_group_name_H-M	'P1'
_symmetry_Int_Tables_number	1
_symmetry_cell_setting	triclinic
loop_
_symmetry_equiv_pos_as_xyz
  x,y,z
_cell_length_a	8.497374
_cell_length_b	8.497374
_cell_length_c	19.121241
_cell_angle_alpha	92.447863
_cell_angle_beta	87.563908
_cell_angle_gamma	90.005237
loop_
_atom_site_label
_atom_site_type_symbol
_atom_site_fract_x
_atom_site_fract_y
_atom_site_fract_z
Zn1	Zn	0.525686	0.995219	1.073729
Zn2	Zn	0.789432	0.731484	1.073723
Zn3	Zn	0.536884	0.720171	0.956311
Zn4	Zn	0.800644	0.983939	0.956294
O5	O	0.663162	0.857703	1.015014
O6	O	0.551294	0.969690	1.172012
O7	O	0.755925	0.509222	1.058153
O8	O	0.314635	0.756642	0.971896
O9	O	0.745067	0.775925	1.172008
O10	O	0.306408	0.958719	1.058163
O11	O	0.570379	0.500910	0.971891
O12	O	0.581251	0.745704	0.858025
O13	O	0.764176	1.206197	0.971868
O14	O	0.775034	0.939494	0.858012
O15	O	0.562166	1.214485	1.058146
O16	O	1.011683	0.764987	1.058137
O17	O	1.019920	0.950464	0.971862
C18	C	0.680576	0.840148	0.832535
C19	C	0.688063	0.832675	0.754469
C20	C	1.073042	0.857725	1.015006
C21	C	1.251684	0.857701	1.015024
C22	C	0.663164	1.269183	1.015009
C23	C	0.663181	1.447827	1.015011
C24	C	0.590854	0.930202	0.717796
C25	C	0.597882	0.923167	0.644445
C26	C	0.702128	0.818612	0.607768
C27	C	0.799342	0.721075	0.644446
C28	C	0.792305	0.728103	0.717796
C29	C	0.728408	0.792330	0.386300
C30	C	0.735441	0.785312	0.312945
C31	C	0.533978	0.987402	0.312949
C32	C	0.526957	0.994428	0.386300
C33	C	0.624164	0.896885	0.422972
C34	C	0.709318	0.811422	0.532792
C35	C	0.616965	0.904068	0.497947
C36	C	0.645681	0.875328	1.198207
C37	C	0.638231	0.882838	1.276272
H38	H	0.518727	1.002586	0.614590
N39	N	0.847858	0.672523	0.273378
H40	H	0.923989	0.733608	0.242953
H41	H	0.908263	0.611809	0.307778
N42	N	0.911765	0.608287	0.604891
H43	H	0.901476	0.618632	0.552860
H44	H	1.023244	0.633893	0.617720
N45	N	0.504545	1.016846	0.537504
H46	H	0.444028	1.077574	0.503144
H47	H	0.428517	0.955657	0.567930
H48	H	0.505969	1.015346	0.747654
N49	N	0.821760	0.698674	0.493224
H50	H	0.933293	0.724235	0.505991
H51	H	0.795734	0.587254	0.505991
H52	H	0.442074	1.079573	0.416158
N53	N	0.429135	1.092601	0.273398
H54	H	0.449405	1.072287	0.221366
H55	H	0.315199	1.069438	0.286212
N56	N	0.833265	0.687156	0.425853
H57	H	0.766125	0.617054	0.456278
H58	H	0.900365	0.619963	0.391447
N59	N	0.897143	0.622907	0.757354
H60	H	0.964252	0.555606	0.722990
H61	H	0.967332	0.689925	0.787797
