data_functionalizedCrystal
_audit_creation_method	'MofGen! by Chris Wilmer'
_symmetry_space_group_name_H-M	'P1'
_symmetry_Int_Tables_number	1
_symmetry_cell_setting	triclinic
loop_
_symmetry_equiv_pos_as_xyz
  x,y,z
_cell_length_a	19.188905
_cell_length_b	14.519709
_cell_length_c	13.596369
_cell_angle_alpha	90.006934
_cell_angle_beta	89.987547
_cell_angle_gamma	96.592650
loop_
_atom_site_label
_atom_site_type_symbol
_atom_site_fract_x
_atom_site_fract_y
_atom_site_fract_z
O1	O	0.926566	-0.115027	-0.081956
O2	O	1.426566	0.384973	0.418044
O3	O	0.723308	-0.130550	-0.081922
O4	O	1.223308	0.369450	0.418078
O5	O	0.830326	0.011484	-0.081931
O6	O	1.330326	0.511484	0.418069
O7	O	0.819548	-0.257061	-0.081947
O8	O	1.319548	0.242939	0.418053
O9	O	0.830315	0.011491	0.081652
O10	O	1.330315	0.511491	0.581652
O11	O	0.723297	-0.130543	0.081661
O12	O	1.223297	0.369457	0.581661
O13	O	0.926556	-0.115020	0.081627
O14	O	1.426556	0.384980	0.581627
Zn15	Zn	0.824925	-0.122780	0.107616
Zn16	Zn	1.324925	0.377220	0.607616
Zn17	Zn	0.824939	-0.122790	-0.107911
Zn18	Zn	1.324939	0.377210	0.392089
O19	O	0.819537	-0.257054	0.081636
O20	O	1.319537	0.242946	0.581636
C21	C	0.697289	-0.130048	-0.000126
C22	C	1.197289	0.369952	0.499874
C23	C	0.619779	-0.128550	-0.000113
C24	C	1.119779	0.371450	0.499887
C25	C	0.583390	-0.127835	-0.089285
C26	C	1.083390	0.372165	0.410715
C27	C	0.510561	-0.126418	-0.089297
C28	C	1.010561	0.373582	0.410703
C29	C	0.474126	-0.125697	-0.000133
C30	C	0.974126	0.374303	0.499867
C31	C	0.510523	-0.126418	0.089051
C32	C	1.010523	0.373582	0.589051
C33	C	0.583349	-0.127844	0.089060
C34	C	1.083349	0.372156	0.589060
N35	N	0.364906	-0.070973	0.066227
N36	N	0.864906	0.429027	0.566227
N37	N	0.295724	-0.069616	0.066212
N38	N	0.795724	0.430384	0.566212
C39	C	0.254704	-0.121401	-0.000156
C40	C	0.754704	0.378599	0.499844
N41	N	0.285480	-0.174583	-0.066524
N42	N	0.785480	0.325417	0.433476
N43	N	0.354668	-0.175936	-0.066511
N44	N	0.854668	0.324064	0.433489
C45	C	0.395158	-0.124151	-0.000133
C46	C	0.895158	0.375849	0.499867
C47	C	0.139346	-0.119150	-0.089347
C48	C	0.639346	0.380850	0.410653
C49	C	0.066515	-0.117739	-0.089356
C50	C	0.566515	0.382261	0.410644
C51	C	0.066479	-0.117729	0.088995
C52	C	0.566479	0.382271	0.588995
C53	C	0.139307	-0.119150	0.089001
C54	C	0.639307	0.380850	0.589001
C55	C	0.175737	-0.119856	-0.000173
C56	C	0.675737	0.380144	0.499827
C57	C	0.829818	0.045844	-0.000139
C58	C	1.329818	0.545844	0.499861
C59	C	0.828313	0.148216	-0.000138
C60	C	1.328313	0.648216	0.499862
C61	C	0.952574	-0.115522	-0.000171
C62	C	1.452574	0.384478	0.499829
C63	C	1.030085	-0.117020	-0.000190
C64	C	1.530085	0.382980	0.499810
C65	C	0.820045	-0.291414	-0.000158
C66	C	1.320045	0.208586	0.499842
C67	C	0.821550	-0.393786	-0.000165
C68	C	1.321550	0.106214	0.499835
N69	N	0.824920	-0.122773	0.254708
N70	N	1.324920	0.377227	0.754708
C71	C	0.822772	0.523077	-0.000163
C72	C	1.322772	1.023077	0.499837
C73	C	0.824311	0.418779	-0.000156
C74	C	1.324311	0.918779	0.499844
C75	C	0.825542	0.335650	-0.000150
C76	C	1.325542	0.835650	0.499850
C77	C	0.827081	0.231345	-0.000145
C78	C	1.327081	0.731345	0.499855
N79	N	0.824949	-0.122790	-0.255003
N80	N	1.324949	0.377210	0.244997
C81	C	0.824938	-0.122791	0.655999
C82	C	1.324938	0.377209	1.155999
C83	C	0.824931	-0.122789	0.544348
C84	C	1.324931	0.377211	1.044348
C85	C	0.824929	-0.122782	0.455357
C86	C	1.324929	0.377218	0.955357
C87	C	0.824922	-0.122779	0.343699
C88	C	1.324922	0.377221	0.843699
H89	H	0.168936	-0.119726	0.161614
H90	H	0.668936	0.380274	0.661614
N91	N	0.620590	-0.128557	-0.180379
N92	N	1.120590	0.371443	0.319621
N93	N	0.588085	-0.127919	-0.259992
N94	N	1.088085	0.372081	0.240008
H95	H	0.614358	-0.128430	-0.324330
H96	H	1.114358	0.371570	0.175670
N97	N	0.473392	-0.125687	-0.180397
N98	N	0.973392	0.374313	0.319603
N99	N	0.505926	-0.126318	-0.260006
N100	N	1.005926	0.373682	0.239994
H101	H	0.479678	-0.125800	-0.324346
H102	H	0.979678	0.374200	0.175654
N103	N	0.473297	-0.125691	0.180122
N104	N	0.973297	0.374309	0.680122
N105	N	0.408274	-0.124418	0.180102
N106	N	0.908274	0.375582	0.680102
H107	H	0.381981	-0.123910	0.244423
H108	H	0.881981	0.376090	0.744423
H109	H	0.169008	-0.119735	-0.161958
H110	H	0.669008	0.380265	0.338042
H111	H	0.036889	-0.117162	-0.161973
H112	H	0.536889	0.382838	0.338027
N113	N	0.620511	-0.128581	0.180160
N114	N	1.120511	0.371419	0.680160
N115	N	0.587975	-0.127949	0.259768
N116	N	1.087975	0.372051	0.759768
H117	H	0.614221	-0.128470	0.324109
H118	H	1.114221	0.371530	0.824109
H119	H	0.036813	-0.117148	0.161595
H120	H	0.536813	0.382852	0.661595
