data_functionalizedCrystal
_audit_creation_method	'MofGen! by Chris Wilmer'
_symmetry_space_group_name_H-M	'P1'
_symmetry_Int_Tables_number	1
_symmetry_cell_setting	triclinic
loop_
_symmetry_equiv_pos_as_xyz
  x,y,z
_cell_length_a	15.538191
_cell_length_b	12.837942
_cell_length_c	11.892095
_cell_angle_alpha	85.697431
_cell_angle_beta	92.350151
_cell_angle_gamma	71.050517
loop_
_atom_site_label
_atom_site_type_symbol
_atom_site_fract_x
_atom_site_fract_y
_atom_site_fract_z
O1	O	-1.225929	0.334285	-0.094016
O2	O	-0.962063	0.218501	-0.094016
O3	O	-1.088145	0.425094	-0.094009
O4	O	-1.099848	0.127693	-0.094023
O5	O	-1.077631	0.407888	0.093998
O6	O	-0.951549	0.201296	0.093991
O7	O	-1.215415	0.317080	0.093990
Zn8	Zn	-1.081813	0.256456	0.123841
Zn9	Zn	-1.095666	0.279125	-0.123866
O10	O	-1.089333	0.110487	0.093984
C11	C	-0.922798	0.197785	-0.000012
C12	C	-0.821463	0.161701	-0.000012
C13	C	-1.078935	0.453624	-0.000006
C14	C	-1.067145	0.564266	-0.000008
C15	C	-1.254680	0.337797	-0.000016
C16	C	-1.356015	0.373881	-0.000023
C17	C	-0.501494	0.520183	-0.000013
C18	C	-0.406274	0.486252	-0.000015
C19	C	-0.400964	0.295396	-0.000024
C20	C	-0.496185	0.329311	-0.000016
C21	C	-0.546443	0.441706	-0.000011
C22	C	-0.541134	0.250834	-0.000015
C23	C	-0.636347	0.284747	-0.000013
C24	C	-0.686611	0.397137	-0.000012
C25	C	-0.641656	0.475619	-0.000009
C26	C	-0.490874	0.138440	-0.000027
C27	C	-0.535823	0.059963	-0.000026
C28	C	-0.631037	0.093875	-0.000016
C29	C	-0.681302	0.206265	-0.000015
C30	C	-0.675993	0.015393	-0.000018
C31	C	-0.771206	0.049306	-0.000016
C32	C	-0.776515	0.240178	-0.000013
C33	C	-1.098544	0.081957	-0.000021
C34	C	-1.110334	-0.028684	-0.000027
N35	N	-1.072365	0.240988	0.292895
C36	C	-1.208883	0.858557	-0.000032
C37	C	-1.197809	0.962516	-0.000034
C38	C	-1.033926	0.876147	-0.000022
C39	C	-1.045000	0.772188	-0.000020
C40	C	-1.132481	0.763398	-0.000023
C41	C	-1.143553	0.659435	-0.000013
C42	C	-0.979671	0.573069	-0.000009
C43	C	-0.968597	0.677028	-0.000011
N44	N	-1.105120	0.294604	-0.292920
C45	C	-1.170856	0.402294	0.529548
C46	C	-1.164259	0.391477	0.647889
C47	C	-1.052571	0.208542	0.647921
C48	C	-1.059168	0.219359	0.529580
C49	C	-1.118313	0.316237	0.470397
C50	C	-1.124914	0.327050	0.352053
C51	C	-1.013221	0.144119	0.352088
C52	C	-1.006625	0.133302	0.470429
H53	H	-0.817438	0.331700	-0.000003
O54	O	-0.949042	0.039258	0.527876
C55	C	-0.858988	0.024297	0.498961
H56	H	-0.853149	0.107385	0.466425
H57	H	-0.809952	-0.011528	0.576800
H58	H	-0.841043	-0.035065	0.430279
H59	H	-0.682579	0.567141	0.000001
O60	O	-0.962218	0.060638	0.294453
C61	C	-0.980744	0.090939	0.177310
H62	H	-1.008537	0.184935	0.161133
H63	H	-0.915248	0.057955	0.132347
H64	H	-1.033424	0.054430	0.143725
H65	H	-1.004410	0.129670	0.696123
H66	H	-0.764140	0.424748	-0.000025
O67	O	-0.627258	-0.093827	0.000120
C68	C	-0.643435	-0.152512	0.097503
H69	H	-0.711501	-0.103728	0.129980
H70	H	-0.645491	-0.236651	0.075597
H71	H	-0.586396	-0.164613	0.165678
H72	H	-0.542417	0.611706	-0.000002
O73	O	-1.293818	0.849880	-0.000181
C74	C	-1.310579	0.801260	-0.097565
H75	H	-1.242909	0.751167	-0.130029
H76	H	-1.351816	0.744424	-0.075664
H77	H	-1.350565	0.868871	-0.165747
O78	O	-0.905548	0.480521	-0.000055
C79	C	-0.934074	0.386873	-0.000022
H80	H	-1.007996	0.413039	-0.035619
H81	H	-0.889002	0.324773	-0.054600
H82	H	-0.928290	0.347079	0.090177
H83	H	-0.807803	-0.014599	-0.000005
H84	H	-1.214784	0.652282	-0.000012
H85	H	-0.369681	0.550166	-0.000018
H86	H	-1.207044	0.461554	0.696046
O87	O	-0.351999	0.186260	0.000025
C88	C	-0.258324	0.173155	-0.000008
H89	H	-0.245609	0.247287	0.035580
H90	H	-0.217388	0.094326	0.054577
H91	H	-0.236225	0.167255	-0.090205
O92	O	-0.398396	0.105639	-0.000181
C93	C	-0.373488	0.155549	-0.097562
H94	H	-0.431720	0.233794	-0.130015
H95	H	-0.309866	0.177766	-0.075660
H96	H	-0.358736	0.095450	-0.165752
O97	O	-0.486858	-0.049173	0.000023
C98	C	-0.393183	-0.062278	-0.000010
H99	H	-0.380468	0.011854	0.035578
H100	H	-0.352247	-0.141107	0.054575
H101	H	-0.371084	-0.068178	-0.090208
O102	O	-0.949016	0.884891	0.000029
C103	C	-0.955634	0.997059	-0.000010
H104	H	-1.022555	1.045112	0.035577
H105	H	-0.896047	1.004009	0.054573
H106	H	-0.953651	1.032758	-0.090209
O107	O	-0.883678	0.685729	-0.000156
C108	C	-0.877800	0.752156	-0.097542
H109	H	-0.949097	0.808190	-0.130017
H110	H	-0.834112	0.804984	-0.075641
H111	H	-0.845436	0.697012	-0.165717
O112	O	-1.182254	0.421271	0.294636
C113	C	-1.156902	0.512299	0.323620
H114	H	-1.082083	0.482373	0.356154
H115	H	-1.167204	0.573704	0.245815
H116	H	-1.200918	0.554428	0.392323
O117	O	-1.228325	0.496486	0.472226
C118	C	-1.273311	0.570111	0.549812
H119	H	-1.231148	0.549504	0.634182
H120	H	-1.281937	0.658541	0.515615
H121	H	-1.343223	0.561823	0.562377
H122	H	-1.260025	1.039995	-0.000045
