data_functionalizedCrystal
_audit_creation_method	'MofGen! by Chris Wilmer'
_symmetry_space_group_name_H-M	'P1'
_symmetry_Int_Tables_number	1
_symmetry_cell_setting	triclinic
loop_
_symmetry_equiv_pos_as_xyz
  x,y,z
_cell_length_a	19.188930
_cell_length_b	19.188933
_cell_length_c	14.185569
_cell_angle_alpha	76.889451
_cell_angle_beta	76.885558
_cell_angle_gamma	96.854825
loop_
_atom_site_label
_atom_site_type_symbol
_atom_site_fract_x
_atom_site_fract_y
_atom_site_fract_z
O1	O	0.103049	-0.910261	-0.083399
O2	O	0.114784	-0.706948	-0.083410
O3	O	0.007257	-0.814476	-0.083384
O4	O	0.210575	-0.802734	-0.083424
O5	O	-0.024504	-0.846240	0.083458
O6	O	0.083023	-0.738713	0.083432
O7	O	0.071288	-0.942026	0.083443
Cu8	Cu	0.074255	-0.843270	0.098672
Cu9	Cu	0.111816	-0.805704	-0.098638
O10	O	0.178815	-0.834498	0.083418
C11	C	-0.034635	-0.829978	0.000040
C12	C	-0.112142	-0.828839	0.000048
C13	C	0.098523	-0.696819	0.000010
C14	C	0.097382	-0.619314	0.000007
C15	C	0.087549	-0.952154	0.000021
C16	C	0.088690	-1.029658	0.000018
C17	C	-0.157067	-0.891932	0.000056
C18	C	-0.229887	-0.890857	0.000040
C19	C	-0.257784	-0.826690	0.000036
C20	C	-0.212848	-0.763588	0.000022
C21	C	-0.140027	-0.764663	0.000028
N22	N	-0.376597	-0.788452	0.056813
N23	N	-0.445775	-0.787436	0.056809
C24	C	-0.477188	-0.823448	0.000016
N25	N	-0.436814	-0.860527	-0.056762
N26	N	-0.367631	-0.861547	-0.056754
C27	C	-0.336745	-0.825518	0.000029
C28	C	-0.601074	-0.885379	0.000005
C29	C	-0.673895	-0.884301	-0.000017
C30	C	-0.656855	-0.757032	-0.000025
C31	C	-0.584034	-0.758111	-0.000013
C32	C	-0.556149	-0.822287	0.000007
C33	C	0.220707	-0.818995	-0.000008
C34	C	0.298214	-0.820133	-0.000023
C35	C	0.106548	-0.048746	-0.090926
C36	C	0.107617	-0.121570	-0.090930
C37	C	0.090841	-0.175301	0.000015
C38	C	0.072977	-0.156207	0.090971
C39	C	0.071902	-0.083386	0.090972
N40	N	0.119375	-0.297208	0.067702
N41	N	0.120399	-0.366384	0.067694
C42	C	0.094079	-0.394710	0.000016
N43	N	0.066708	-0.351243	-0.067669
N44	N	0.065687	-0.282059	-0.067665
C45	C	0.092005	-0.254266	0.000023
C46	C	0.113095	-0.492761	-0.090939
C47	C	0.114159	-0.565587	-0.090939
C48	C	0.079527	-0.600223	0.090965
C49	C	0.078456	-0.527399	0.090962
C50	C	0.095245	-0.473671	0.000008
N51	N	0.047836	-0.869696	0.237449
N52	N	0.138229	-0.779283	-0.237415
C53	C	0.215818	-0.701642	0.605059
C54	C	0.195810	-0.721665	0.710086
C55	C	0.100631	-0.816900	0.710069
C56	C	0.120628	-0.796883	0.605041
C57	C	0.178222	-0.739254	0.552544
C58	C	0.083032	-0.834495	0.552525
C59	C	0.103030	-0.814482	0.447506
C60	C	0.160624	-0.756857	0.395002
C61	C	0.198220	-0.719241	0.447525
C62	C	0.025441	-0.892126	0.605024
C63	C	-0.012154	-0.929738	0.552509
C64	C	0.007840	-0.909722	0.447488
C65	C	0.065434	-0.852097	0.394984
C66	C	-0.029756	-0.947338	0.394965
C67	C	-0.009758	-0.927325	0.289946
C68	C	0.085432	-0.832084	0.289964
H69	H	-0.134367	-0.944188	0.000069
N70	N	0.052640	-0.062794	0.189066
H71	H	0.041689	-0.107944	0.246680
H72	H	0.094902	-0.027927	0.193324
H73	H	0.009163	-0.908421	0.690537
N74	N	-0.278350	-0.958916	0.000062
H75	H	-0.320722	-0.973073	0.061912
H76	H	-0.297112	-0.949493	-0.061826
N77	N	-0.722353	-0.952353	-0.000013
H78	H	-0.693636	-0.993169	0.000004
H79	H	-0.764721	-0.966448	0.061834
N80	N	-0.242929	-0.694378	0.000012
H81	H	-0.295879	-0.703271	0.000013
H82	H	-0.238261	-0.678552	0.061860
N83	N	-0.686930	-0.687820	-0.000041
H84	H	-0.739879	-0.696711	-0.000047
H85	H	-0.682265	-0.671994	0.061808
N86	N	-0.091566	-0.696611	0.000019
H87	H	-0.120284	-0.655796	0.000010
H88	H	-0.072766	-0.706060	0.061874
H89	H	-0.076646	-0.994264	0.437721
N90	N	0.236368	-0.681100	0.766730
H91	H	0.275888	-0.641559	0.717534
H92	H	0.201419	-0.658622	0.810319
N93	N	0.133413	-0.586171	-0.189039
H94	H	0.184071	-0.560135	-0.228803
H95	H	0.131501	-0.640463	-0.175165
N96	N	0.124642	0.009201	-0.189021
H97	H	0.175672	0.009895	-0.228793
H98	H	0.089081	-0.001735	-0.228692
H99	H	-0.547456	-0.706735	-0.000014
H100	H	0.132326	-0.785152	0.247220
H101	H	-0.578368	-0.937634	0.000016
H102	H	-0.059047	-0.976662	0.595263
H103	H	0.053738	-0.863823	0.752824
H104	H	0.176908	-0.740565	0.309489
N105	N	0.131193	-0.434803	-0.189028
H106	H	0.182222	-0.434112	-0.228800
H107	H	0.095632	-0.445729	-0.228703
N108	N	0.126877	-0.142169	-0.189023
H109	H	0.137348	-0.097083	-0.246641
H110	H	0.171351	-0.165835	-0.192981
H111	H	0.059318	-0.199961	0.165019
N112	N	0.061425	-0.658167	0.189059
H113	H	0.064813	-0.707197	0.175259
H114	H	0.096948	-0.647209	0.228771
H115	H	-0.040372	-0.957953	0.247187
N116	N	0.059199	-0.506805	0.189053
H117	H	0.048249	-0.551954	0.246666
H118	H	0.101461	-0.471937	0.193310
N119	N	0.260334	-0.657078	0.390892
H120	H	0.281116	-0.636282	0.440094
H121	H	0.299435	-0.675404	0.347306
H122	H	0.262712	-0.654711	0.562315
