data_functionalizedCrystal
_audit_creation_method	'MofGen! by Chris Wilmer'
_symmetry_space_group_name_H-M	'P1'
_symmetry_Int_Tables_number	1
_symmetry_cell_setting	triclinic
loop_
_symmetry_equiv_pos_as_xyz
  x,y,z
_cell_length_a	29.839134
_cell_length_b	18.215405
_cell_length_c	29.839126
_cell_angle_alpha	90.023830
_cell_angle_beta	90.029638
_cell_angle_gamma	90.019746
loop_
_atom_site_label
_atom_site_type_symbol
_atom_site_fract_x
_atom_site_fract_y
_atom_site_fract_z
Zn1	Zn	0.686805	-0.293141	0.254126
Zn2	Zn	0.686749	-0.416198	0.178996
Zn3	Zn	0.611678	-0.293139	0.178996
Zn4	Zn	0.611657	-0.416160	0.254085
O5	O	0.649222	-0.354660	0.216551
O6	O	0.749665	-0.309482	0.244178
O7	O	0.676776	-0.399889	0.116129
O8	O	0.621676	-0.190155	0.188979
O9	O	0.749624	-0.399892	0.188980
O10	O	0.676872	-0.190157	0.244177
O11	O	0.621621	-0.309478	0.116129
O12	O	0.548808	-0.309441	0.188939
O13	O	0.621641	-0.399826	0.316957
O14	O	0.548793	-0.399824	0.244107
O15	O	0.676852	-0.309445	0.316988
O16	O	0.676756	-0.519177	0.188940
O17	O	0.621586	-0.519149	0.244107
C18	C	0.649175	-0.545866	0.216529
C19	C	0.649196	-0.627665	0.216535
C20	C	0.532500	-0.354628	0.216518
C21	C	0.482565	-0.354633	0.216515
C22	C	0.677990	-0.815849	0.187862
C23	C	0.678010	-0.892708	0.187873
C24	C	0.620512	-0.892718	0.245272
C25	C	0.620495	-0.815861	0.245263
C26	C	0.649233	-0.777428	0.216555
C27	C	0.649271	-0.931144	0.216575
C28	C	0.649292	-1.014478	0.216587
C29	C	0.649212	-0.694089	0.216544
C30	C	0.172924	-0.401792	0.245241
C31	C	-0.014749	-0.401812	0.245261
O32	O	-0.039013	-0.441874	0.269666
N33	N	-0.038220	-0.354687	0.216585
C34	C	-0.014769	-0.307549	0.187903
O35	O	-0.039038	-0.267461	0.163515
C36	C	0.172903	-0.307525	0.187885
C37	C	0.196371	-0.354659	0.216561
C38	C	0.196392	-0.448921	0.273915
C39	C	0.243307	-0.448918	0.273908
C40	C	0.266755	-0.401786	0.245227
C41	C	0.243287	-0.354656	0.216554
C42	C	0.196353	-0.260384	0.159206
C43	C	0.243274	-0.260381	0.159205
C44	C	0.266742	-0.307515	0.187881
C45	C	0.313650	-0.307521	0.187866
N46	N	0.337120	-0.354647	0.216543
C47	C	0.313672	-0.401779	0.245224
C48	C	-0.113299	-0.307566	0.187913
C49	C	-0.160217	-0.307573	0.187917
C50	C	-0.160195	-0.401835	0.245276
C51	C	-0.113276	-0.401832	0.245270
C52	C	-0.089829	-0.354692	0.216590
C53	C	0.412198	-0.401770	0.245206
C54	C	0.459118	-0.401765	0.245196
C55	C	0.459091	-0.307500	0.187838
C56	C	0.412176	-0.307508	0.187847
C57	C	0.388730	-0.354645	0.216535
O58	O	0.337942	-0.267475	0.163478
O59	O	0.337950	-0.441850	0.269615
C60	C	0.126008	-0.401794	0.245248
C61	C	0.102540	-0.354665	0.216575
C62	C	0.125988	-0.307532	0.187894
C63	C	0.055622	-0.354672	0.216579
C64	C	0.032175	-0.401804	0.245259
C65	C	0.055645	-0.448930	0.273936
C66	C	0.102561	-0.448927	0.273929
C67	C	0.102518	-0.260407	0.159218
C68	C	0.055602	-0.260414	0.159227
C69	C	0.032155	-0.307546	0.187907
C70	C	0.766401	-0.354692	0.216584
C71	C	0.816335	-0.354705	0.216598
C72	C	0.649250	-0.354631	0.333729
C73	C	0.649262	-0.354619	0.383664
C74	C	0.649282	-0.162707	0.216582
C75	C	0.649308	-0.080908	0.216596
C76	C	0.649221	-0.354635	0.099828
C77	C	0.649296	-0.354439	0.049894
C78	C	0.620552	-0.307469	0.693310
C79	C	0.620565	-0.307418	0.880983
O80	O	0.596132	-0.267402	0.905250
N81	N	0.649283	-0.354481	0.904449
C82	C	0.677999	-0.401565	0.880994
O83	O	0.702422	-0.441599	0.905259
C84	C	0.677983	-0.401619	0.693322
C85	C	0.649266	-0.354547	0.669858
C86	C	0.591837	-0.260401	0.669846
C87	C	0.591836	-0.260412	0.622930
C88	C	0.620550	-0.307490	0.599479
C89	C	0.649265	-0.354557	0.622942
C90	C	0.706696	-0.448705	0.669867
C91	C	0.706689	-0.448716	0.622946
C92	C	0.677972	-0.401644	0.599483
C93	C	0.677978	-0.401646	0.552575
N94	N	0.649259	-0.354582	0.529109
C95	C	0.620545	-0.307504	0.552561
C96	C	0.678005	-0.401532	0.979524
C97	C	0.678010	-0.401517	1.026442
C98	C	0.620575	-0.307371	1.026428
C99	C	0.620573	-0.307383	0.979509
C100	C	0.649287	-0.354468	0.956058
C101	C	0.620545	-0.307529	0.454035
C102	C	0.620548	-0.307541	0.407115
C103	C	0.677981	-0.401690	0.407134
C104	C	0.677980	-0.401675	0.454049
C105	C	0.649259	-0.354592	0.477499
O106	O	0.702394	-0.441646	0.528279
O107	O	0.596118	-0.267487	0.528287
C108	C	0.620553	-0.307458	0.740225
C109	C	0.649268	-0.354526	0.763689
C110	C	0.677982	-0.401604	0.740237
C111	C	0.649273	-0.354512	0.810607
C112	C	0.620559	-0.307434	0.834058
C113	C	0.591840	-0.260370	0.810592
C114	C	0.591839	-0.260380	0.763677
C115	C	0.706701	-0.448668	0.763703
C116	C	0.706700	-0.448653	0.810619
C117	C	0.677986	-0.401575	0.834070
H118	H	0.701428	-0.923987	0.164509
H119	H	0.597077	-0.784577	0.268630
C120	C	0.709605	-0.773572	0.156289
C121	C	0.709588	-0.689032	0.156277
C122	C	0.741206	-0.646758	0.124704
C123	C	0.772840	-0.689024	0.093145
C124	C	0.772858	-0.773569	0.093157
C125	C	0.741241	-0.815843	0.124729
H126	H	0.686169	-0.657740	0.179640
H127	H	0.741192	-0.584172	0.124696
H128	H	0.796245	-0.657730	0.069773
H129	H	0.796277	-0.804861	0.069793
H130	H	0.741254	-0.878429	0.124737
H131	H	0.597114	-0.924019	0.268643
C132	C	0.709604	-0.453318	0.953737
C133	C	0.744886	-0.421438	0.921510
C134	C	0.776491	-0.473217	0.895727
C135	C	0.772814	-0.556876	0.902171
C136	C	0.737530	-0.588760	0.934399
C137	C	0.705925	-0.536981	0.960182
H138	H	0.747610	-0.359504	0.916739
H139	H	0.802611	-0.449614	0.871869
H140	H	0.796209	-0.595206	0.883084
H141	H	0.734806	-0.650694	0.939170
H142	H	0.679806	-0.560584	0.984039
C143	C	0.588956	-0.255761	0.381306
C144	C	0.553674	-0.287646	0.349028
C145	C	0.522083	-0.235869	0.323220
C146	C	0.525774	-0.152207	0.329690
C147	C	0.561058	-0.120318	0.361969
C148	C	0.592649	-0.172095	0.387777
H149	H	0.550940	-0.349581	0.344237
H150	H	0.495964	-0.259475	0.299325
H151	H	0.502389	-0.113878	0.310585
H152	H	0.563792	-0.058383	0.366760
H153	H	0.618768	-0.148489	0.411672
C154	C	0.484931	-0.453613	0.276742
C155	C	0.478459	-0.537266	0.272986
C156	C	0.504271	-0.589112	0.304532
C157	C	0.536555	-0.557303	0.339834
C158	C	0.543028	-0.473646	0.343592
C159	C	0.517217	-0.421801	0.312046
H160	H	0.454559	-0.560817	0.246851
H161	H	0.499478	-0.651040	0.301750
H162	H	0.555662	-0.595682	0.363186
H163	H	0.566928	-0.450096	0.369726
H164	H	0.522009	-0.359872	0.314828
H165	H	0.393115	-0.440152	0.268568
C166	C	0.269116	-0.500760	0.305457
C167	C	0.262643	-0.584413	0.301704
C168	C	0.288448	-0.636255	0.333258
C169	C	0.320726	-0.604443	0.368564
C170	C	0.327201	-0.520786	0.372319
C171	C	0.301396	-0.468944	0.340765
H172	H	0.238747	-0.607966	0.275567
H173	H	0.283654	-0.698184	0.330478
H174	H	0.339828	-0.642820	0.391922
H175	H	0.351097	-0.497233	0.398456
H176	H	0.306189	-0.407015	0.343545
C177	C	0.170551	-0.208536	0.127659
C178	C	0.177027	-0.124884	0.131419
C179	C	0.151227	-0.073032	0.099867
C180	C	0.118951	-0.104833	0.064556
C181	C	0.112473	-0.188489	0.060794
C182	C	0.138273	-0.240340	0.092346
H183	H	0.200921	-0.101339	0.157560
H184	H	0.156023	-0.011104	0.102652
H185	H	0.099852	-0.066449	0.041199
H186	H	0.088579	-0.212033	0.034653
H187	H	0.133477	-0.302268	0.089561
C188	C	0.170605	-0.500776	0.305465
C189	C	0.177050	-0.584425	0.301699
C190	C	0.151268	-0.636289	0.333249
C191	C	0.119040	-0.604503	0.368565
C192	C	0.112594	-0.520849	0.372332
C193	C	0.138376	-0.468985	0.340783
H194	H	0.200908	-0.607959	0.275555
H195	H	0.156040	-0.698215	0.330460
H196	H	0.099955	-0.642895	0.391920
H197	H	0.088736	-0.497315	0.398477
H198	H	0.133604	-0.407059	0.343572
H199	H	0.393067	-0.269129	0.164496
H200	H	-0.094172	-0.440211	0.268621
C201	C	-0.185992	-0.453679	0.276827
C202	C	-0.237600	-0.453677	0.276830
C203	C	-0.263400	-0.505513	0.308382
C204	C	-0.237593	-0.557352	0.339931
C205	C	-0.185982	-0.557356	0.339930
C206	C	-0.160182	-0.505520	0.308378
H207	H	-0.256707	-0.415301	0.253474
H208	H	-0.301606	-0.505510	0.308382
H209	H	-0.256691	-0.595724	0.363288
H210	H	-0.166875	-0.595732	0.363286
H211	H	-0.121976	-0.505523	0.308377
C212	C	0.560242	-0.208636	0.597126
C213	C	0.579717	-0.150861	0.564891
C214	C	0.548120	-0.099083	0.539091
C215	C	0.497048	-0.105080	0.545526
C216	C	0.477571	-0.162857	0.577762
C217	C	0.509168	-0.214635	0.603562
H218	H	0.617526	-0.146420	0.560126
H219	H	0.562539	-0.056313	0.515227
H220	H	0.473658	-0.066751	0.526427
H221	H	0.439762	-0.167298	0.582527
H222	H	0.494749	-0.257405	0.627426
H223	H	-0.179321	-0.269199	0.164562
C224	C	0.484887	-0.255647	0.156295
C225	C	0.478409	-0.261517	0.105215
C226	C	0.504205	-0.209655	0.073675
C227	C	0.536478	-0.151924	0.093215
C228	C	0.542957	-0.146052	0.144296
C229	C	0.517162	-0.197913	0.175836
H230	H	0.454517	-0.304255	0.090749
H231	H	0.499409	-0.214003	0.035861
H232	H	0.555574	-0.113533	0.069867
H233	H	0.566849	-0.103313	0.158763
H234	H	0.521958	-0.193566	0.213651
H235	H	-0.094213	-0.269178	0.164557
C236	C	0.029789	-0.208564	0.127681
C237	C	-0.002495	-0.240362	0.092376
C238	C	-0.028307	-0.188509	0.060835
C239	C	-0.021833	-0.104857	0.064599
C240	C	0.010453	-0.073054	0.099905
C241	C	0.036264	-0.124907	0.131446
H242	H	-0.007289	-0.302290	0.089589
H243	H	-0.052207	-0.212052	0.034699
H244	H	-0.040940	-0.066472	0.041250
H245	H	0.015246	-0.011126	0.102693
H246	H	0.060165	-0.101364	0.157582
C247	C	0.269066	-0.208526	0.127656
C248	C	0.262630	-0.124874	0.131420
C249	C	0.288421	-0.073020	0.099871
C250	C	0.320648	-0.104818	0.064559
C251	C	0.327085	-0.188474	0.060794
C252	C	0.301294	-0.240328	0.092343
H253	H	0.238772	-0.101331	0.157561
H254	H	0.283655	-0.011092	0.102658
H255	H	0.339740	-0.066433	0.041204
H256	H	0.350943	-0.212017	0.034652
H257	H	0.306060	-0.302256	0.089555
C258	C	0.560250	-0.208605	0.695637
C259	C	0.509177	-0.214589	0.689157
C260	C	0.477591	-0.162784	0.714944
C261	C	0.497079	-0.104995	0.747211
C262	C	0.548155	-0.099008	0.753692
C263	C	0.579741	-0.150814	0.727905
H264	H	0.494748	-0.257371	0.665270
H265	H	0.439781	-0.167216	0.710146
H266	H	0.473697	-0.066646	0.766300
H267	H	0.562584	-0.056227	0.777579
H268	H	0.617551	-0.146382	0.732703
C269	C	0.588981	-0.255608	0.953701
C270	C	0.592674	-0.171946	0.960168
C271	C	0.561080	-0.120170	0.934363
C272	C	0.525793	-0.152057	0.902091
C273	C	0.522099	-0.235723	0.895623
C274	C	0.553693	-0.287499	0.921428
H275	H	0.618797	-0.148337	0.984059
H276	H	0.563814	-0.058235	0.939152
H277	H	0.502405	-0.113730	0.882989
H278	H	0.495976	-0.259332	0.871732
H279	H	0.550959	-0.349435	0.916639
C280	C	0.709606	-0.453289	1.052248
C281	C	0.705914	-0.536951	1.045779
C282	C	0.737511	-0.588726	1.071582
C283	C	0.772799	-0.556840	1.103853
C284	C	0.776492	-0.473173	1.110322
C285	C	0.744895	-0.421398	1.084520
H286	H	0.679791	-0.560559	1.021889
H287	H	0.734777	-0.650662	1.066792
H288	H	0.796188	-0.595167	1.122953
H289	H	0.802615	-0.449565	1.134212
H290	H	0.747629	-0.359462	1.089309
H291	H	0.121664	-0.487308	0.297280
H292	H	0.036546	-0.487309	0.297287
C293	C	0.738295	-0.500480	0.695662
C294	C	0.734608	-0.584142	0.689188
C295	C	0.766214	-0.635917	0.714979
C296	C	0.801508	-0.604031	0.747244
C297	C	0.805196	-0.520365	0.753720
C298	C	0.773590	-0.468590	0.727929
H299	H	0.708480	-0.607749	0.665302
H300	H	0.763483	-0.697852	0.710185
H301	H	0.824904	-0.642358	0.766336
H302	H	0.831324	-0.496757	0.777605
H303	H	0.776321	-0.406655	0.732723
C304	C	0.738275	-0.500510	0.597149
C305	C	0.789349	-0.494522	0.603625
C306	C	0.820935	-0.546314	0.577829
C307	C	0.801447	-0.604095	0.545556
C308	C	0.750370	-0.610085	0.539079
C309	C	0.718784	-0.558293	0.564875
H310	H	0.803778	-0.451747	0.627517
H311	H	0.858745	-0.541879	0.582624
H312	H	0.824828	-0.642434	0.526460
H313	H	0.735941	-0.652860	0.515187
H314	H	0.680974	-0.562728	0.560080
H315	H	0.121604	-0.222025	0.135862
H316	H	0.597158	-0.269189	0.473122
H317	H	0.597196	-0.269037	1.045530
H318	H	0.701369	-0.439997	0.473154
H319	H	0.701360	-0.440017	0.388031
H320	H	0.568455	-0.222049	0.744577
H321	H	0.568462	-0.222034	0.829695
H322	H	0.730089	-0.486983	0.829719
H323	H	0.730082	-0.487008	0.744613
