data_functionalizedCrystal
_audit_creation_method	'MofGen! by Chris Wilmer'
_symmetry_space_group_name_H-M	'P1'
_symmetry_Int_Tables_number	1
_symmetry_cell_setting	triclinic
loop_
_symmetry_equiv_pos_as_xyz
  x,y,z
_cell_length_a	14.519709
_cell_length_b	27.731996
_cell_length_c	13.596369
_cell_angle_alpha	89.988048
_cell_angle_beta	90.000291
_cell_angle_gamma	83.150767
loop_
_atom_site_label
_atom_site_type_symbol
_atom_site_fract_x
_atom_site_fract_y
_atom_site_fract_z
O1	O	1.222743	0.063364	-0.081677
O2	O	0.954134	0.070825	-0.081708
O3	O	1.096806	-0.003264	-0.081670
O4	O	1.080071	0.137453	-0.081715
O5	O	1.096792	-0.003268	0.081913
O6	O	0.954120	0.070822	0.081874
O7	O	1.222729	0.063360	0.081906
Zn8	Zn	1.088422	0.067090	0.107863
Zn9	Zn	1.088441	0.067095	-0.107665
O10	O	1.080057	0.137449	0.081868
C11	C	0.919773	0.070476	0.000079
C12	C	0.817411	0.069434	0.000068
C13	C	0.442583	0.065597	0.000114
C14	C	0.546872	0.066663	0.000101
C15	C	0.629994	0.067515	0.000090
C16	C	0.734289	0.068581	0.000079
C17	C	1.096455	-0.021275	0.000124
C18	C	1.095420	-0.074936	0.000134
C19	C	1.088913	-0.407681	-0.089084
C20	C	1.084981	-0.609358	-0.089101
O21	O	1.084439	-0.635430	-0.164937
N22	N	1.084485	-0.634580	0.000067
C23	C	1.084966	-0.609379	0.089246
O24	O	1.084444	-0.635458	0.165088
C25	C	1.088891	-0.407702	0.089262
C26	C	1.089397	-0.382484	0.000088
C27	C	1.089417	-0.382463	-0.178250
C28	C	1.090405	-0.332047	-0.178245
C29	C	1.090889	-0.306850	-0.089073
C30	C	1.090385	-0.332068	0.000094
C31	C	1.089366	-0.382502	0.178440
C32	C	1.090345	-0.332079	0.178437
C33	C	1.090850	-0.306861	0.089263
C34	C	1.091856	-0.256455	0.089271
N35	N	1.092352	-0.231233	0.000103
C36	C	1.091869	-0.256431	-0.089069
C37	C	1.082907	-0.715262	0.089231
C38	C	1.081927	-0.765681	0.089227
C39	C	1.081941	-0.765657	-0.089121
C40	C	1.082927	-0.715238	-0.089116
C41	C	1.083403	-0.690041	0.000063
C42	C	1.093944	-0.150554	-0.089051
C43	C	1.094936	-0.100134	-0.089038
C44	C	1.094918	-0.100162	0.089309
C45	C	1.093931	-0.150578	0.089296
C46	C	1.093441	-0.175772	0.000108
O47	O	1.092388	-0.230352	0.165067
O48	O	1.092370	-0.230341	-0.164900
C49	C	1.087925	-0.458097	-0.089089
C50	C	1.087421	-0.483316	0.000078
C51	C	1.087904	-0.458118	0.089250
C52	C	1.086441	-0.533735	0.000074
C53	C	1.085957	-0.558932	-0.089098
C54	C	1.086453	-0.533711	-0.178266
C55	C	1.087441	-0.483295	-0.178261
C56	C	1.087408	-0.483340	0.178418
C57	C	1.086421	-0.533756	0.178405
C58	C	1.085938	-0.558953	0.089233
C59	C	1.257090	0.063709	0.000116
C60	C	1.359453	0.064752	0.000121
C61	C	1.080408	0.155460	0.000071
C62	C	1.081443	0.209121	0.000055
N63	N	1.088417	0.067086	0.254954
N64	N	1.088454	0.067095	-0.254757
C65	C	1.088440	0.067096	0.656245
C66	C	1.088431	0.067095	0.544594
C67	C	1.088429	0.067091	0.455603
C68	C	1.088419	0.067090	0.343945
H69	H	1.095350	-0.079603	-0.161657
H70	H	1.087852	-0.462766	-0.250876
C71	C	1.081344	-0.792968	0.186148
C72	C	1.081951	-0.760102	0.264235
C73	C	1.081396	-0.785218	0.353536
H74	H	1.134744	-0.816280	0.190007
H75	H	1.027140	-0.808983	0.189903
H76	H	1.136149	-0.744095	0.260482
H77	H	1.028555	-0.736789	0.260409
H78	H	1.027192	-0.801232	0.357291
H79	H	1.134797	-0.808529	0.357385
H80	H	1.081800	-0.762921	0.406529
C81	C	1.088633	-0.409914	0.275198
C82	C	1.008692	-0.433483	0.280367
C83	C	1.007975	-0.458740	0.369489
H84	H	1.088997	-0.387724	0.328368
H85	H	1.142007	-0.433257	0.278968
H86	H	0.955332	-0.410143	0.276607
H87	H	1.008310	-0.455681	0.227217
H88	H	1.061349	-0.482083	0.373259
H89	H	1.008342	-0.436546	0.422653
H90	H	0.953740	-0.474738	0.373004
C91	C	1.081454	-0.792935	-0.186041
C92	C	1.082114	-0.760064	-0.264141
C93	C	1.081670	-0.785178	-0.353432
H94	H	1.027286	-0.808963	-0.189880
H95	H	1.134890	-0.816238	-0.189801
H96	H	1.028684	-0.736771	-0.260383
H97	H	1.136279	-0.744035	-0.260335
H98	H	1.135106	-0.808480	-0.357192
H99	H	1.027501	-0.801205	-0.357261
H100	H	1.082126	-0.762879	-0.406433
H101	H	1.090813	-0.311519	-0.250860
H102	H	1.093541	-0.171061	-0.161676
C103	C	1.083244	-0.687873	0.186033
C104	C	1.004426	-0.653564	0.191268
C105	C	1.004704	-0.628333	0.280434
H106	H	1.137363	-0.671804	0.189848
H107	H	1.082761	-0.710102	0.239156
H108	H	1.004917	-0.631338	0.138159
H109	H	0.950294	-0.669620	0.187470
H110	H	1.004222	-0.650562	0.333557
H111	H	1.058827	-0.612267	0.284241
H112	H	0.951223	-0.605054	0.284002
C113	C	1.088946	-0.409731	-0.275179
C114	C	1.089620	-0.376846	-0.353253
C115	C	1.089207	-0.401945	-0.442563
H116	H	1.034782	-0.425762	-0.279049
H117	H	1.142387	-0.433030	-0.278937
H118	H	1.036184	-0.353556	-0.349497
H119	H	1.143779	-0.360814	-0.349415
H120	H	1.142648	-0.425244	-0.446322
H121	H	1.035043	-0.417975	-0.446424
H122	H	1.089673	-0.379637	-0.495547
C123	C	1.090896	-0.304813	0.275366
C124	C	1.090260	-0.337695	0.353450
C125	C	1.090776	-0.312597	0.442753
H126	H	1.037492	-0.281503	0.279198
H127	H	1.145096	-0.288797	0.279150
H128	H	1.036065	-0.353702	0.349667
H129	H	1.143660	-0.361005	0.349650
H130	H	1.144977	-0.296581	0.446538
H131	H	1.037372	-0.289288	0.446576
H132	H	1.090354	-0.334904	0.495743
C133	C	1.083301	-0.687792	-0.185868
C134	C	1.004493	-0.653474	-0.191070
C135	C	1.004800	-0.628183	-0.280184
H136	H	1.082821	-0.709970	-0.239046
H137	H	1.137446	-0.671729	-0.189603
H138	H	0.950361	-0.669536	-0.187344
H139	H	1.004956	-0.631286	-0.137913
H140	H	1.058945	-0.612120	-0.283919
H141	H	1.004322	-0.650364	-0.333355
H142	H	0.951334	-0.604892	-0.283721
H143	H	1.093528	-0.171112	0.161909
H144	H	1.086064	-0.554236	-0.250873
C145	C	1.095243	-0.072755	0.186086
C146	C	1.016420	-0.038447	0.191266
C147	C	1.016671	-0.013191	0.280405
H148	H	1.149359	-0.056683	0.189897
H149	H	1.094749	-0.094970	0.239232
H150	H	1.016922	-0.016235	0.138134
H151	H	0.962291	-0.054506	0.187472
H152	H	1.016177	-0.035406	0.333552
H153	H	1.070791	0.002878	0.284209
H154	H	0.963187	0.010087	0.283936
C155	C	1.086047	-0.561174	0.275197
C156	C	1.164850	-0.595493	0.280452
C157	C	1.164527	-0.620754	0.369601
H158	H	1.031917	-0.577237	0.278973
H159	H	1.086519	-0.538963	0.328335
H160	H	1.164370	-0.617701	0.227329
H161	H	1.218992	-0.579443	0.276693
H162	H	1.164999	-0.598543	0.422739
H163	H	1.110394	-0.636814	0.373370
H164	H	1.217997	-0.644039	0.373183
H165	H	1.087804	-0.462829	0.251034
