data_functionalizedCrystal
_audit_creation_method	'MofGen! by Chris Wilmer'
_symmetry_space_group_name_H-M	'P1'
_symmetry_Int_Tables_number	1
_symmetry_cell_setting	triclinic
loop_
_symmetry_equiv_pos_as_xyz
  x,y,z
_cell_length_a	15.995350
_cell_length_b	17.699083
_cell_length_c	16.176319
_cell_angle_alpha	89.998504
_cell_angle_beta	89.996236
_cell_angle_gamma	83.387695
loop_
_atom_site_label
_atom_site_type_symbol
_atom_site_fract_x
_atom_site_fract_y
_atom_site_fract_z
O1	O	-1.110791	-0.097553	0.068678
O2	O	-0.866991	-0.109600	0.068695
O3	O	-0.995779	0.006601	0.068679
O4	O	-0.982003	-0.213754	0.068695
O5	O	-0.995760	0.006595	-0.068814
O6	O	-0.866972	-0.109606	-0.068798
O7	O	-1.110772	-0.097559	-0.068815
Cu8	Cu	-0.988870	-0.103583	-0.081361
Cu9	Cu	-0.988893	-0.103576	0.081241
O10	O	-0.981984	-0.213761	-0.068799
C11	C	-0.995276	0.034796	-0.000068
C12	C	-0.993795	0.118816	-0.000068
C13	C	-0.835788	-0.109105	-0.000049
C14	C	-0.742841	-0.107612	-0.000043
C15	C	-1.141975	-0.098054	-0.000069
C16	C	-1.234923	-0.099547	-0.000070
C17	C	-0.405104	-0.102250	-0.000060
C18	C	-0.452706	-0.019493	-0.000373
C19	C	-0.549394	-0.020987	-0.000057
C20	C	-0.572659	-0.104910	-0.000052
C21	C	-0.531500	-0.145724	0.078463
C22	C	-0.434869	-0.143645	0.078523
C23	C	-0.434504	-0.145362	-0.077833
C24	C	-0.531449	-0.145343	-0.078865
C25	C	-0.667354	-0.106417	-0.000045
C26	C	-0.310409	-0.100745	-0.000062
C27	C	-0.982487	-0.241955	-0.000050
C28	C	-0.983968	-0.325976	-0.000044
N29	N	-0.988860	-0.103588	-0.195726
C30	C	-1.069391	0.167312	-0.000074
C31	C	-1.067994	0.246257	-0.000067
C32	C	-0.991001	0.276706	-0.000059
C33	C	-0.915400	0.228205	-0.000050
C34	C	-0.916797	0.149261	-0.000051
C35	C	-0.909763	0.546577	-0.000043
C36	C	-0.908372	0.625527	-0.000044
C37	C	-1.060960	0.643574	-0.000058
C38	C	-1.062358	0.564630	-0.000060
C39	C	-0.986757	0.516135	-0.000047
C40	C	-0.988272	0.430533	-0.000053
C41	C	-0.989485	0.362306	-0.000058
C42	C	-1.045944	-0.052130	-0.761116
C43	C	-1.045940	-0.052135	-0.674569
C44	C	-0.988898	-0.103573	-0.631301
C45	C	-0.931861	-0.155013	-0.674585
C46	C	-0.931869	-0.155011	-0.761131
C47	C	-0.931827	-0.155024	-0.325557
C48	C	-0.931821	-0.155021	-0.239006
C49	C	-1.045898	-0.052148	-0.238995
C50	C	-1.045906	-0.052146	-0.325540
C51	C	-0.988873	-0.103589	-0.368817
C52	C	-0.988878	-0.103583	-0.462661
C53	C	-0.988887	-0.103575	-0.537459
N54	N	-0.988910	-0.103565	0.195606
H55	H	-0.577880	0.011096	-0.056340
Cl56	Cl	-0.384886	-0.237448	0.084032
Cl57	Cl	-0.553139	-0.240909	0.082997
H58	H	-0.852711	0.253002	-0.000038
H59	H	-0.885418	-0.196899	-0.639352
H60	H	-1.122518	0.683068	-0.000065
H61	H	-1.125053	0.539843	-0.000070
H62	H	-1.132087	0.142527	-0.000086
Cl63	Cl	-1.117617	0.012523	-0.379930
H64	H	-1.092341	-0.010262	-0.203750
H65	H	-0.855239	0.109776	-0.000046
Cl66	Cl	-0.402878	-0.103593	-0.169716
H67	H	-0.885368	-0.196910	-0.203779
Cl68	Cl	-0.811573	0.663804	-0.000032
Cl69	Cl	-1.117643	0.012527	-0.620160
H70	H	-1.092391	-0.010240	-0.796338
Cl71	Cl	-1.163034	0.307220	-0.000078
Cl72	Cl	-0.814721	0.485623	-0.000024
Cl73	Cl	-0.860126	-0.219690	-0.379956
H74	H	-0.416629	-0.113876	0.137211
H75	H	-0.558818	-0.115548	-0.136950
Cl76	Cl	-0.385276	-0.239565	-0.078648
Cl77	Cl	-0.554970	-0.239834	-0.086180
Cl78	Cl	-0.424196	0.031577	-0.087306
Cl79	Cl	-0.422568	0.031354	0.086068
Cl80	Cl	-0.592492	0.028671	0.087133
Cl81	Cl	-0.860168	-0.219679	-0.815537
Cl82	Cl	-0.575405	-0.101950	0.168675
