data_functionalizedCrystal
_audit_creation_method	'MofGen! by Chris Wilmer'
_symmetry_space_group_name_H-M	'P1'
_symmetry_Int_Tables_number	1
_symmetry_cell_setting	triclinic
loop_
_symmetry_equiv_pos_as_xyz
  x,y,z
_cell_length_a	15.538191
_cell_length_b	17.766277
_cell_length_c	19.288865
_cell_angle_alpha	90.011603
_cell_angle_beta	114.795829
_cell_angle_gamma	89.989018
loop_
_atom_site_label
_atom_site_type_symbol
_atom_site_fract_x
_atom_site_fract_y
_atom_site_fract_z
O1	O	1.250877	-0.062580	0.225834
O2	O	1.750877	0.437420	0.725834
O3	O	0.976277	-0.062588	0.145548
O4	O	1.476277	0.437412	0.645548
O5	O	1.121512	-0.062569	0.288804
O6	O	1.621512	0.437431	0.788804
O7	O	1.105642	-0.062599	0.082579
O8	O	1.605642	0.437401	0.582579
O9	O	1.121486	0.062620	0.288803
O10	O	1.621486	0.562620	0.788803
O11	O	0.976252	0.062601	0.145547
O12	O	1.476252	0.562601	0.645547
O13	O	1.250851	0.062609	0.225834
O14	O	1.750851	0.562609	0.725834
Cu15	Cu	1.113549	0.074035	0.185690
Cu16	Cu	1.613549	0.574035	0.685690
Cu17	Cu	1.113579	-0.074014	0.185691
Cu18	Cu	1.613579	0.425986	0.685691
O19	O	1.105617	0.062590	0.082578
O20	O	1.605617	0.562590	0.582578
C21	C	0.941133	0.000006	0.137147
C22	C	1.441133	0.500006	0.637147
C23	C	0.836453	0.000004	0.112126
C24	C	1.336453	0.500004	0.612126
N25	N	1.113535	0.178166	0.185691
N26	N	1.613535	0.678166	0.685691
C27	C	1.120988	0.000028	0.314552
C28	C	1.620988	0.500028	0.814552
C29	C	1.119455	0.000034	0.391273
C30	C	1.619455	0.500034	0.891273
C31	C	0.549718	0.000028	0.360705
C32	C	1.049718	0.500028	0.860705
C33	C	0.451352	0.000024	0.337176
C34	C	0.951352	0.500024	0.837176
C35	C	0.428348	0.000005	0.204832
C36	C	0.928348	0.500005	0.704832
C37	C	0.526713	0.000013	0.228350
C38	C	1.026713	0.500013	0.728350
C39	C	0.587391	0.000024	0.306287
C40	C	1.087391	0.500024	0.806287
C41	C	0.564386	0.000008	0.173932
C42	C	1.064386	0.500008	0.673932
C43	C	0.662744	0.000012	0.197448
C44	C	1.162744	0.500012	0.697448
C45	C	0.723427	0.000020	0.275382
C46	C	1.223427	0.500020	0.775382
C47	C	0.685748	0.000027	0.329803
C48	C	1.185748	0.500027	0.829803
C49	C	0.503707	-0.000008	0.095996
C50	C	1.003707	0.499992	0.595996
C51	C	0.541380	-0.000013	0.041578
C52	C	1.041380	0.499987	0.541578
C53	C	0.639739	-0.000004	0.065094
C54	C	1.139739	0.499996	0.565094
C55	C	0.700423	0.000005	0.143027
C56	C	1.200423	0.500005	0.643027
C57	C	0.677418	-0.000011	0.010673
C58	C	1.177418	0.499989	0.510673
C59	C	0.775776	-0.000007	0.034189
C60	C	1.275776	0.499993	0.534189
C61	C	0.798780	0.000008	0.166543
C62	C	1.298780	0.500008	0.666543
C63	C	1.285995	0.000013	0.234234
C64	C	1.785995	0.500013	0.734234
C65	C	1.390675	0.000011	0.259255
C66	C	1.890675	0.500011	0.759255
N67	N	1.113601	-0.178145	0.185697
N68	N	1.613601	0.321855	0.685697
C69	C	1.177865	0.217561	0.249107
C70	C	1.677865	0.717561	0.749107
C71	C	1.177871	0.296363	0.249112
C72	C	1.677871	0.796363	0.749112
C73	C	1.113555	0.335766	0.185691
C74	C	1.613555	0.835766	0.685691
C75	C	1.049212	0.296362	0.122268
C76	C	1.549212	0.796362	0.622268
C77	C	1.049202	0.217561	0.122269
C78	C	1.549202	0.717561	0.622269
C79	C	1.100930	0.460595	0.119249
C80	C	1.600930	0.960595	0.619249
C81	C	1.100947	0.539394	0.119250
C82	C	1.600947	1.039394	0.619250
C83	C	1.113580	0.578813	0.185689
C84	C	1.613580	1.078813	0.685689
C85	C	1.126217	0.539423	0.252135
C86	C	1.626217	1.039423	0.752135
C87	C	1.126207	0.460623	0.252135
C88	C	1.626207	0.960623	0.752135
C89	C	1.113558	0.421212	0.185684
C90	C	1.613558	0.921212	0.685684
C91	C	1.177920	0.703654	0.249114
C92	C	1.677920	1.203654	0.749114
C93	C	1.177919	0.782457	0.249118
C94	C	1.677919	1.282457	0.749118
C95	C	1.049265	0.782454	0.122270
C96	C	1.549265	1.282454	0.622270
C97	C	1.049261	0.703653	0.122271
C98	C	1.549261	1.203653	0.622271
C99	C	1.113594	0.664257	0.185694
C100	C	1.613594	1.164257	0.685694
C101	C	1.106140	-0.000009	0.056829
C102	C	1.606140	0.499991	0.556829
C103	C	1.107673	-0.000020	-0.019891
C104	C	1.607673	0.499980	0.480109
C105	C	1.204672	0.000040	0.457257
C106	C	1.704672	0.500040	0.957257
C107	C	1.203232	0.000029	0.529344
C108	C	1.703232	0.500029	1.029344
C109	C	1.116570	0.000026	0.535443
C110	C	1.616570	0.500026	1.035443
C111	C	1.031342	0.000015	0.469446
C112	C	1.531342	0.500015	0.969446
C113	C	1.032785	0.000020	0.397361
C114	C	1.532785	0.500020	0.897361
C115	C	1.048435	0.043875	0.626711
C116	C	1.548435	0.543875	1.126711
C117	C	1.046996	0.043875	0.698796
C118	C	1.546996	0.543875	1.198796
C119	C	1.112118	0.000009	0.757776
C120	C	1.612118	0.500009	1.257776
C121	C	1.178694	-0.043848	0.744668
C122	C	1.678694	0.456152	1.244668
C123	C	1.180137	-0.043844	0.672583
C124	C	1.680137	0.456156	1.172583
C125	C	1.114997	0.000020	0.613604
C126	C	1.614997	0.500020	1.113604
C127	C	1.195779	0.000001	0.901928
C128	C	1.695779	0.500001	1.401928
C129	C	1.194336	-0.000016	0.974015
C130	C	1.694336	0.499984	1.474015
C131	C	1.022443	-0.000022	0.914114
C132	C	1.522443	0.499978	1.414114
C133	C	1.023889	-0.000013	0.842029
C134	C	1.523889	0.499987	1.342029
C135	C	1.110560	0.000002	0.835941
C136	C	1.610560	0.500002	1.335941
H137	H	0.848188	0.000022	0.230008
H138	H	1.348188	0.500022	0.730008
H139	H	1.263733	-0.000015	1.027743
H140	H	1.763733	0.499985	1.527743
H141	H	1.272628	0.000030	0.583079
H142	H	1.772628	0.500030	1.083079
Br143	Br	0.768106	0.000055	0.435576
Br144	Br	1.268106	0.500055	0.935576
H145	H	0.491964	-0.000025	-0.021879
H146	H	0.991964	0.499975	0.478121
Br147	Br	0.961918	0.349834	0.036199
Br148	Br	1.461918	0.849834	0.536199
H149	H	1.234344	-0.079555	0.661913
H150	H	1.734344	0.420445	1.161913
H151	H	1.275246	0.000050	0.452307
H152	H	1.775246	0.500050	0.952307
H153	H	0.806449	-0.000004	-0.010124
H154	H	1.306449	0.499996	0.489876
H155	H	0.963389	0.000015	0.343632
H156	H	1.463389	0.500015	0.843632
Br157	Br	1.265183	0.349838	0.335184
Br158	Br	1.765183	0.849838	0.835184
H159	H	1.231722	-0.079568	0.792690
H160	H	1.731722	0.420432	1.292690
H161	H	0.960782	0.000011	0.474415
H162	H	1.460782	0.500011	0.974415
Br163	Br	0.345992	-0.000017	0.099064
Br164	Br	0.845992	0.499983	0.599064
H165	H	0.992782	0.079581	0.709461
H166	H	1.492782	0.579581	1.209461
H167	H	0.951881	-0.000028	0.919078
H168	H	1.451881	0.499972	1.419078
H169	H	0.996816	0.185485	0.070627
H170	H	1.496816	0.685485	0.570627
H171	H	1.090626	0.428506	0.065139
H172	H	1.590626	0.928506	0.565139
Br173	Br	0.856915	0.000018	0.307300
Br174	Br	1.356915	0.500018	0.807300
Br175	Br	1.265223	0.835927	0.335193
Br176	Br	1.765223	1.335927	0.835193
H177	H	0.996894	0.814536	0.070633
H178	H	1.496894	1.314536	0.570633
H179	H	1.266352	0.000009	0.896971
H180	H	1.766352	0.500009	1.396971
Br181	Br	0.632075	0.000056	0.466478
Br182	Br	1.132075	0.500056	0.966478
Br183	Br	0.908231	-0.000020	0.752473
Br184	Br	1.408231	0.499980	1.252473
Br185	Br	1.265168	0.164095	0.335179
Br186	Br	1.765168	0.664095	0.835179
H187	H	0.995403	0.079600	0.578692
H188	H	1.495403	0.579600	1.078692
H189	H	0.420684	0.000027	0.381495
H190	H	0.920684	0.500027	0.881495
H191	H	0.628000	-0.000027	-0.052784
H192	H	1.128000	0.499973	0.447216
Br193	Br	1.143374	0.592910	0.342312
Br194	Br	1.643374	1.092910	0.842312
Br195	Br	1.143347	0.407168	0.342305
Br196	Br	1.643347	0.907168	0.842305
H197	H	0.423619	-0.000014	0.076851
H198	H	0.923619	0.499986	0.576851
H199	H	1.230301	0.671577	0.300758
H200	H	1.730301	1.171577	0.800758
H201	H	0.996881	0.671575	0.070630
H202	H	1.496881	1.171575	0.570630
H203	H	1.090663	0.571458	0.065147
H204	H	1.590663	1.071458	0.565147
