data_functionalizedCrystal
_audit_creation_method	'MofGen! by Chris Wilmer'
_symmetry_space_group_name_H-M	'P1'
_symmetry_Int_Tables_number	1
_symmetry_cell_setting	triclinic
loop_
_symmetry_equiv_pos_as_xyz
  x,y,z
_cell_length_a	23.532361
_cell_length_b	27.732048
_cell_length_c	22.010155
_cell_angle_alpha	89.999275
_cell_angle_beta	89.995873
_cell_angle_gamma	82.736162
loop_
_atom_site_label
_atom_site_type_symbol
_atom_site_fract_x
_atom_site_fract_y
_atom_site_fract_z
O1	O	0.755156	0.058565	-0.050471
O2	O	1.088489	0.391898	0.282863
O3	O	1.421823	0.725231	0.616196
O4	O	0.589271	0.067079	-0.050486
O5	O	0.922604	0.400412	0.282847
O6	O	1.255937	0.733745	0.616180
O7	O	0.677365	-0.007568	-0.050466
O8	O	1.010699	0.325765	0.282867
O9	O	1.344032	0.659099	0.616200
O10	O	0.667061	0.133211	-0.050491
O11	O	1.000394	0.466545	0.282843
O12	O	1.333728	0.799878	0.616176
O13	O	0.677349	-0.007557	0.050584
O14	O	1.010683	0.325777	0.383917
O15	O	1.344016	0.659110	0.717251
O16	O	0.589255	0.067090	0.050564
O17	O	0.922588	0.400423	0.383897
O18	O	1.255921	0.733756	0.717231
O19	O	0.755140	0.058576	0.050580
O20	O	1.088473	0.391909	0.383913
O21	O	1.421807	0.725243	0.717246
Cu22	Cu	0.672196	0.062834	0.059799
Cu23	Cu	1.005529	0.396167	0.393132
Cu24	Cu	1.338862	0.729501	0.726465
Cu25	Cu	0.672215	0.062821	-0.059705
Cu26	Cu	1.005548	0.396154	0.273628
Cu27	Cu	1.338881	0.729487	0.606962
O28	O	0.667045	0.133222	0.050560
O29	O	1.000379	0.466556	0.383893
O30	O	1.333712	0.799889	0.717227
C31	C	0.568046	0.066871	0.000037
C32	C	0.901380	0.400204	0.333370
C33	C	1.234713	0.733538	0.666704
C34	C	0.504829	0.066230	0.000032
C35	C	0.838163	0.399563	0.333365
C36	C	1.171496	0.732897	0.666698
C37	C	0.231600	0.063420	-0.055047
C38	C	0.564934	0.396753	0.278287
C39	C	0.898267	0.730087	0.611620
C40	C	0.290999	0.064027	-0.055048
C41	C	0.624332	0.397360	0.278285
C42	C	0.957665	0.730693	0.611618
O43	O	0.321731	0.064319	-0.101893
O44	O	0.655065	0.397652	0.231440
O45	O	0.988398	0.730985	0.564774
N46	N	0.320695	0.064339	0.000034
N47	N	0.654028	0.397673	0.333368
N48	N	0.987362	0.731006	0.666701
C49	C	0.290991	0.064040	0.055122
C50	C	0.624324	0.397374	0.388456
C51	C	0.957657	0.730707	0.721789
O52	O	0.321704	0.064361	0.101974
O53	O	0.655037	0.397695	0.435308
O54	O	0.988371	0.731028	0.768641
C55	C	0.231594	0.063430	0.055123
C56	C	0.564927	0.396763	0.388457
C57	C	0.898261	0.730097	0.721790
C58	C	0.201900	0.063122	0.000037
C59	C	0.535233	0.396456	0.333370
C60	C	0.868566	0.729789	0.666704
C61	C	0.201906	0.063112	-0.110128
C62	C	0.535240	0.396445	0.223205
C63	C	0.868573	0.729778	0.556538
C64	C	0.142512	0.062506	-0.110127
C65	C	0.475845	0.395839	0.223207
C66	C	0.809178	0.729173	0.556540
C67	C	0.112811	0.062208	-0.055043
C68	C	0.446145	0.395542	0.278290
C69	C	0.779478	0.728875	0.611624
C70	C	0.142505	0.062516	0.000039
C71	C	0.475839	0.395850	0.333372
C72	C	0.809172	0.729183	0.666706
C73	C	0.201891	0.063127	0.110211
C74	C	0.535224	0.396461	0.443544
C75	C	0.868558	0.729794	0.776877
C76	C	0.142490	0.062517	0.110207
C77	C	0.475824	0.395850	0.443540
C78	C	0.809157	0.729183	0.776874
C79	C	0.112796	0.062209	0.055121
C80	C	0.446130	0.395542	0.388454
C81	C	0.779463	0.728876	0.721787
C82	C	0.053410	0.061613	0.055124
C83	C	0.386744	0.394946	0.388458
C84	C	0.720077	0.728280	0.721791
N85	N	0.023714	0.061300	0.000042
N86	N	0.357047	0.394634	0.333375
N87	N	0.690381	0.727967	0.666708
C88	C	0.053414	0.061598	-0.055042
C89	C	0.386748	0.394931	0.278291
C90	C	0.720081	0.728265	0.611625
C91	C	0.415728	0.065321	0.055116
C92	C	0.749061	0.398654	0.388449
C93	C	1.082395	0.731988	0.721783
C94	C	0.475123	0.065935	0.055116
C95	C	0.808457	0.399268	0.388449
C96	C	1.141790	0.732601	0.721783
C97	C	0.475127	0.065920	-0.055055
C98	C	0.808461	0.399254	0.278278
C99	C	1.141794	0.732587	0.611612
C100	C	0.415731	0.065310	-0.055054
C101	C	0.749064	0.398643	0.278279
C102	C	1.082397	0.731977	0.611613
C103	C	0.386032	0.065008	0.000033
C104	C	0.719365	0.398342	0.333367
C105	C	1.052698	0.731675	0.666700
C106	C	-0.071318	0.060326	-0.055034
C107	C	0.262015	0.393659	0.278299
C108	C	0.595348	0.726993	0.611633
C109	C	-0.130718	0.059722	-0.055027
C110	C	0.202615	0.393056	0.278306
C111	C	0.535948	0.726389	0.611639
C112	C	-0.130717	0.059734	0.055143
C113	C	0.202616	0.393067	0.388476
C114	C	0.535950	0.726401	0.721810
C115	C	-0.071323	0.060341	0.055137
C116	C	0.262011	0.393674	0.388470
C117	C	0.595344	0.727007	0.721803
C118	C	-0.041624	0.060635	0.000043
C119	C	0.291709	0.393968	0.333377
C120	C	0.625042	0.727302	0.666710
O121	O	0.022640	0.061319	0.101945
O122	O	0.355974	0.394652	0.435278
O123	O	0.689307	0.727985	0.768612
O124	O	0.022695	0.061270	-0.101886
O125	O	0.356028	0.394604	0.231447
O126	O	0.689362	0.727937	0.564780
C127	C	0.677141	-0.025570	0.000060
C128	C	1.010474	0.307764	0.333394
C129	C	1.343808	0.641097	0.666727
C130	C	0.676490	-0.079225	0.000065
C131	C	1.009823	0.254108	0.333399
C132	C	1.343156	0.587441	0.666732
C133	C	0.724448	-0.417973	0.000039
C134	C	1.057781	-0.084640	0.333372
C135	C	1.391114	0.248693	0.666705
C136	C	0.722031	-0.619636	0.000030
C137	C	1.055364	-0.286303	0.333363
C138	C	1.388698	0.047030	0.666697
O139	O	0.765885	-0.650831	0.000007
O140	O	1.099218	-0.317497	0.333341
O141	O	1.432552	0.015836	0.666674
N142	N	0.669795	-0.638833	0.000026
N143	N	1.003128	-0.305500	0.333359
N144	N	1.336461	0.027834	0.666692
C145	C	0.618158	-0.607611	0.000020
C146	C	0.951492	-0.274277	0.333353
C147	C	1.284825	0.059056	0.666686
O148	O	0.573673	-0.628566	0.000009
O149	O	0.907006	-0.295232	0.333343
O150	O	1.240339	0.038101	0.666676
C151	C	0.620576	-0.405949	0.000024
C152	C	0.953909	-0.072615	0.333357
C153	C	1.287242	0.260718	0.666691
C154	C	0.672815	-0.386755	0.000034
C155	C	1.006149	-0.053422	0.333368
C156	C	1.339482	0.279912	0.666701
C157	C	0.776683	-0.398779	0.000048
C158	C	1.110017	-0.065446	0.333382
C159	C	1.443350	0.267887	0.666715
C160	C	0.777287	-0.348366	0.000054
C161	C	1.110620	-0.015033	0.333387
C162	C	1.443953	0.318300	0.666721
C163	C	0.725655	-0.317148	0.000050
C164	C	1.058988	0.016185	0.333383
C165	C	1.392321	0.349519	0.666716
C166	C	0.673419	-0.336342	0.000040
C167	C	1.006752	-0.003009	0.333373
C168	C	1.340086	0.330325	0.666706
C169	C	0.568940	-0.374727	0.000013
C170	C	0.902273	-0.041394	0.333347
C171	C	1.235607	0.291940	0.666680
C172	C	0.569549	-0.324309	0.000013
C173	C	0.902882	0.009025	0.333346
C174	C	1.236216	0.342358	0.666680
C175	C	0.621789	-0.305115	0.000023
C176	C	0.955122	0.028218	0.333357
C177	C	1.288456	0.361552	0.666690
C178	C	0.622391	-0.254711	0.000041
C179	C	0.955724	0.078623	0.333374
C180	C	1.289057	0.411956	0.666708
N181	N	0.674627	-0.235514	0.000045
N182	N	1.007960	0.097819	0.333379
N183	N	1.341294	0.431153	0.666712
C184	C	0.726259	-0.266733	0.000050
C185	C	1.059592	0.066601	0.333383
C186	C	1.392926	0.399934	0.666716
C187	C	0.616893	-0.713486	0.000018
C188	C	0.950226	-0.380153	0.333352
C189	C	1.283560	-0.046820	0.666685
C190	C	0.616289	-0.763902	0.000018
C191	C	0.949622	-0.430568	0.333352
C192	C	1.282955	-0.097235	0.666685
C193	C	0.720162	-0.775924	0.000028
C194	C	1.053495	-0.442591	0.333361
C195	C	1.386828	-0.109257	0.666694
C196	C	0.720765	-0.725508	0.000032
C197	C	1.054099	-0.392175	0.333365
C198	C	1.387432	-0.058841	0.666699
C199	C	0.669130	-0.694290	0.000023
C200	C	1.002463	-0.360956	0.333356
C201	C	1.335796	-0.027623	0.666689
C202	C	0.727523	-0.160862	0.000062
C203	C	1.060856	0.172472	0.333395
C204	C	1.394189	0.505805	0.666728
C205	C	0.728122	-0.110444	0.000070
C206	C	1.061455	0.222889	0.333403
C207	C	1.394788	0.556223	0.666736
C208	C	0.624249	-0.098426	0.000057
C209	C	0.957583	0.234907	0.333391
C210	C	1.290916	0.568241	0.666724
C211	C	0.623650	-0.148839	0.000052
C212	C	0.956983	0.184494	0.333386
C213	C	1.290317	0.517827	0.666719
C214	C	0.675291	-0.180056	0.000053
C215	C	1.008625	0.153277	0.333386
C216	C	1.341958	0.486610	0.666719
O217	O	0.578560	-0.223488	0.000057
O218	O	0.911893	0.109845	0.333390
O219	O	1.245227	0.443179	0.666723
O220	O	0.770738	-0.245768	0.000046
O221	O	1.104072	0.087565	0.333380
O222	O	1.437405	0.420899	0.666713
C223	C	0.723844	-0.468386	0.000033
C224	C	1.057177	-0.135053	0.333366
C225	C	1.390511	0.198280	0.666700
C226	C	0.671608	-0.487580	0.000023
C227	C	1.004942	-0.154247	0.333357
C228	C	1.338275	0.179086	0.666690
C229	C	0.619976	-0.456362	0.000019
C230	C	0.953310	-0.123029	0.333352
C231	C	1.286643	0.210305	0.666686
C232	C	0.671004	-0.537996	0.000023
C233	C	1.004337	-0.204662	0.333357
C234	C	1.337671	0.128671	0.666690
C235	C	0.722636	-0.569214	0.000028
C236	C	1.055969	-0.235881	0.333361
C237	C	1.389303	0.097452	0.666694
C238	C	0.774873	-0.550018	0.000032
C239	C	1.108206	-0.216684	0.333365
C240	C	1.441539	0.116649	0.666699
C241	C	0.775476	-0.499605	0.000037
C242	C	1.108809	-0.166271	0.333371
C243	C	1.442143	0.167062	0.666704
C244	C	0.567740	-0.475559	0.000015
C245	C	0.901073	-0.142225	0.333348
C246	C	1.234406	0.191108	0.666681
C247	C	0.567140	-0.525972	0.000010
C248	C	0.900474	-0.192639	0.333343
C249	C	1.233807	0.140695	0.666677
C250	C	0.618772	-0.557190	0.000014
C251	C	0.952106	-0.223857	0.333348
C252	C	1.285439	0.109476	0.666681
C253	C	0.776364	0.058784	0.000055
C254	C	1.109697	0.392117	0.333388
C255	C	1.443031	0.725450	0.666722
C256	C	0.839581	0.059425	0.000056
C257	C	1.172914	0.392758	0.333390
C258	C	1.506248	0.726091	0.666723
C259	C	0.667269	0.151224	0.000032
C260	C	1.000603	0.484557	0.333365
C261	C	1.333936	0.817891	0.666698
C262	C	0.667921	0.204880	0.000023
C263	C	1.001254	0.538213	0.333356
C264	C	1.334587	0.871546	0.666689
N265	N	0.672187	0.062843	0.143851
N266	N	1.005520	0.396176	0.477184
N267	N	1.338853	0.729510	0.810518
N268	N	0.672228	0.062808	-0.143758
N269	N	1.005562	0.396141	0.189576
N270	N	1.338895	0.729474	0.522909
C271	C	0.711225	0.029772	0.563639
C272	C	1.044559	0.363105	0.896973
C273	C	1.377892	0.696438	1.230306
C274	C	0.711228	0.029768	0.627247
C275	C	1.044561	0.363102	0.960580
C276	C	1.377895	0.696435	1.293913
O277	O	0.744397	0.001657	0.660146
O278	O	1.077730	0.334990	0.993479
O279	O	1.411064	0.668323	1.326812
N280	N	0.672214	0.062811	0.659058
N281	N	1.005548	0.396144	0.992392
N282	N	1.338881	0.729477	1.325725
C283	C	0.633192	0.095855	0.627259
C284	C	0.966525	0.429188	0.960592
C285	C	1.299859	0.762521	1.293925
O286	O	0.600008	0.123959	0.660157
O287	O	0.933341	0.457292	0.993491
O288	O	1.266674	0.790626	1.326824
C289	C	0.633187	0.095855	0.563652
C290	C	0.966520	0.429189	0.896986
C291	C	1.299854	0.762522	1.230319
C292	C	0.672207	0.062814	0.531844
C293	C	1.005540	0.396148	0.865177
C294	C	1.338874	0.729481	1.198511
C295	C	0.750241	-0.003267	0.531831
C296	C	1.083575	0.330067	0.865164
C297	C	1.416908	0.663400	1.198498
C298	C	0.750239	-0.003263	0.468228
C299	C	1.083573	0.330071	0.801561
C300	C	1.416906	0.663404	1.134895
C301	C	0.711221	0.029780	0.436433
C302	C	1.044554	0.363113	0.769766
C303	C	1.377888	0.696447	1.103099
C304	C	0.672205	0.062819	0.468241
C305	C	1.005538	0.396152	0.801574
C306	C	1.338871	0.729485	1.134908
C307	C	0.594162	0.128897	0.531854
C308	C	0.927496	0.462230	0.865187
C309	C	1.260829	0.795564	1.198520
C310	C	0.594160	0.128894	0.468243
C311	C	0.927494	0.462228	0.801576
C312	C	1.260827	0.795561	1.134910
C313	C	0.633180	0.095854	0.436435
C314	C	0.966514	0.429187	0.769768
C315	C	1.299847	0.762520	1.103102
C316	C	0.633184	0.095865	0.372843
C317	C	0.966518	0.429199	0.706176
C318	C	1.299851	0.762532	1.039509
N319	N	0.672198	0.062823	0.341031
N320	N	1.005531	0.396157	0.674365
N321	N	1.338864	0.729490	1.007698
C322	C	0.711216	0.029781	0.372826
C323	C	1.044549	0.363114	0.706160
C324	C	1.377883	0.696447	1.039493
C325	C	0.633205	0.095850	0.760836
C326	C	0.966538	0.429184	1.094170
C327	C	1.299871	0.762517	1.427503
C328	C	0.633212	0.095852	0.824442
C329	C	0.966545	0.429186	1.157775
C330	C	1.299878	0.762519	1.491108
C331	C	0.711247	0.029765	0.824426
C332	C	1.044580	0.363099	1.157759
C333	C	1.377914	0.696432	1.491092
C334	C	0.711242	0.029766	0.760819
C335	C	1.044576	0.363099	1.094152
C336	C	1.377909	0.696433	1.427486
C337	C	0.672218	0.062808	0.729025
C338	C	1.005551	0.396142	1.062358
C339	C	1.338885	0.729475	1.395692
C340	C	0.711209	0.029792	0.239255
C341	C	1.044542	0.363125	0.572588
C342	C	1.377876	0.696459	0.905922
C343	C	0.711205	0.029800	0.175646
C344	C	1.044538	0.363134	0.508979
C345	C	1.377872	0.696467	0.842313
C346	C	0.633168	0.095885	0.175668
C347	C	0.966501	0.429219	0.509001
C348	C	1.299835	0.762552	0.842335
C349	C	0.633174	0.095879	0.239271
C350	C	0.966507	0.429212	0.572605
C351	C	1.299840	0.762546	0.905938
C352	C	0.672196	0.062828	0.271063
C353	C	1.005530	0.396161	0.604397
C354	C	1.338863	0.729495	0.937730
O355	O	0.600031	0.123961	0.339903
O356	O	0.933364	0.457295	0.673237
O357	O	1.266697	0.790628	1.006570
O358	O	0.744390	0.001677	0.339920
O359	O	1.077723	0.335010	0.673253
O360	O	1.411056	0.668344	1.006587
H361	H	0.118341	0.062253	-0.154984
H362	H	0.451674	0.395587	0.178350
H363	H	0.785007	0.728920	0.511683
Br364	Br	0.515446	0.066327	-0.129812
Br365	Br	0.848780	0.399660	0.203521
Br366	Br	1.182113	0.732994	0.536854
H367	H	0.574843	-0.688072	0.000011
H368	H	0.908176	-0.354739	0.333344
H369	H	1.241509	-0.021406	0.666678
Br370	Br	-0.171014	0.059307	-0.129792
Br371	Br	0.162319	0.392641	0.203541
Br372	Br	0.495652	0.725974	0.536874
H373	H	0.818731	-0.424193	0.000050
H374	H	1.152064	-0.090860	0.333383
H375	H	1.485397	0.242474	0.666716
H376	H	0.118312	0.062275	0.155067
H377	H	0.451645	0.395609	0.488400
H378	H	0.784979	0.728942	0.821733
H379	H	0.226058	0.063376	0.155068
H380	H	0.559391	0.396710	0.488401
H381	H	0.892725	0.730043	0.821735
Br382	Br	0.764201	-0.015078	0.867590
Br383	Br	1.097534	0.318255	1.200923
Br384	Br	1.430867	0.651588	1.534256
Br385	Br	0.242203	0.063514	-0.184895
Br386	Br	0.575537	0.396847	0.148438
Br387	Br	0.908870	0.730181	0.481771
H388	H	-0.047146	0.060601	0.099993
H389	H	0.286187	0.393934	0.433326
H390	H	0.619521	0.727267	0.766659
Br391	Br	0.541204	0.173740	0.575009
Br392	Br	0.874537	0.507073	0.908342
Br393	Br	1.207871	0.840407	1.241676
Br394	Br	-0.171037	0.059333	0.129896
Br395	Br	0.162297	0.392666	0.463229
Br396	Br	0.495630	0.725999	0.796563
Br397	Br	0.764199	-0.015077	0.717658
Br398	Br	1.097533	0.318257	1.050991
Br399	Br	1.430866	0.651590	1.384325
H400	H	0.763304	-0.709884	0.000040
H401	H	1.096637	-0.376551	0.333373
H402	H	1.429970	-0.043218	0.666707
Br403	Br	0.799023	-0.084399	0.000085
Br404	Br	1.132357	0.248935	0.333418
Br405	Br	1.465690	0.582268	0.666751
Br406	Br	0.541193	0.173739	0.425098
Br407	Br	0.874526	0.507072	0.758432
Br408	Br	1.207860	0.840405	1.091765
H409	H	0.391558	0.065060	-0.099910
H410	H	0.724891	0.398393	0.233423
H411	H	1.058224	0.731726	0.566756
Br412	Br	0.580224	0.140728	0.282438
Br413	Br	0.913557	0.474061	0.615771
Br414	Br	1.246891	0.807394	0.949104
H415	H	0.601401	0.122790	0.149770
H416	H	0.934734	0.456123	0.483104
H417	H	1.268068	0.789456	0.816437
Br418	Br	0.580264	0.140703	0.867603
Br419	Br	0.913597	0.474036	1.200936
Br420	Br	1.246930	0.807370	1.534269
Br421	Br	0.803201	-0.048117	0.574971
Br422	Br	1.136534	0.285216	0.908304
Br423	Br	1.469868	0.618550	1.241637
Br424	Br	0.797608	-0.203220	0.000061
Br425	Br	1.130941	0.130113	0.333395
Br426	Br	1.464275	0.463447	0.666728
H427	H	0.499294	0.066193	0.099973
H428	H	0.832627	0.399526	0.433306
H429	H	1.165960	0.732860	0.766639
H430	H	0.573750	-0.779524	0.000020
H431	H	0.907083	-0.446191	0.333354
H432	H	1.240416	-0.112858	0.666687
H433	H	0.525694	-0.450145	0.000010
H434	H	0.859027	-0.116811	0.333343
H435	H	1.192360	0.216522	0.666677
H436	H	-0.047145	0.060566	-0.099896
H437	H	0.286188	0.393900	0.233437
H438	H	0.619521	0.727233	0.566770
Br439	Br	0.764166	-0.015042	0.132481
Br440	Br	1.097499	0.318291	0.465814
Br441	Br	1.430833	0.651625	0.799148
H442	H	0.601428	0.122761	0.734953
H443	H	0.934761	0.456095	1.068286
H444	H	1.268094	0.789428	1.401620
Br445	Br	0.790233	-0.818302	0.000032
Br446	Br	1.123567	-0.484968	0.333365
Br447	Br	1.456900	-0.151635	0.666699
Br448	Br	0.375428	0.064918	0.129885
Br449	Br	0.708761	0.398251	0.463218
Br450	Br	1.042094	0.731584	0.796552
Br451	Br	0.848188	-0.322326	0.000051
Br452	Br	1.181521	0.011007	0.333384
Br453	Br	1.514854	0.344341	0.666718
H454	H	0.526401	-0.390345	0.000001
H455	H	0.859734	-0.057012	0.333335
H456	H	1.193068	0.276321	0.666668
H457	H	0.582212	-0.072999	0.000056
H458	H	0.915545	0.260335	0.333389
H459	H	1.248878	0.593668	0.666722
Br460	Br	0.552753	-0.174889	0.000052
Br461	Br	0.886086	0.158444	0.333386
Br462	Br	1.219419	0.491778	0.666719
Br463	Br	0.499468	-0.281944	-0.000002
Br464	Br	0.832801	0.051390	0.333331
Br465	Br	1.166134	0.384723	0.666664
Br466	Br	0.764169	-0.015063	0.282391
Br467	Br	1.097502	0.318270	0.615724
Br468	Br	1.430836	0.651603	0.949057
Br469	Br	0.496236	-0.552013	0.000001
Br470	Br	0.829570	-0.218680	0.333334
Br471	Br	1.162903	0.114653	0.666667
H472	H	0.818015	-0.483982	0.000046
H473	H	1.151348	-0.150649	0.333379
H474	H	1.484682	0.182684	0.666712
Br475	Br	0.844944	-0.592396	0.000043
Br476	Br	1.178277	-0.259062	0.333376
Br477	Br	1.511611	0.074271	0.666709
H478	H	0.782011	-0.030169	0.442333
H479	H	1.115344	0.303165	0.775667
H480	H	1.448678	0.636498	1.109000
