data_functionalizedCrystal
_audit_creation_method	'MofGen! by Chris Wilmer'
_symmetry_space_group_name_H-M	'P1'
_symmetry_Int_Tables_number	1
_symmetry_cell_setting	triclinic
loop_
_symmetry_equiv_pos_as_xyz
  x,y,z
_cell_length_a	16.625548
_cell_length_b	16.625546
_cell_length_c	16.625539
_cell_angle_alpha	90.030397
_cell_angle_beta	90.022345
_cell_angle_gamma	90.022327
loop_
_atom_site_label
_atom_site_type_symbol
_atom_site_fract_x
_atom_site_fract_y
_atom_site_fract_z
Zn1	Zn	-1.232680	0.321003	-0.455936
Zn2	Zn	-0.732680	0.821003	0.044064
Zn3	Zn	-1.232584	0.455846	-0.321098
Zn4	Zn	-0.732584	0.955846	0.178902
Zn5	Zn	-1.097842	0.321031	-0.321112
Zn6	Zn	-0.597842	0.821031	0.178888
Zn7	Zn	-1.097813	0.455797	-0.455884
Zn8	Zn	-0.597813	0.955797	0.044116
O9	O	-1.165230	0.388419	-0.388507
O10	O	-0.665230	0.888419	0.111493
O11	O	-1.345500	0.338899	-0.438065
O12	O	-0.845500	0.838899	0.061935
O13	O	-1.214682	0.437995	-0.208268
O14	O	-0.714682	0.937995	0.291732
O15	O	-1.115782	0.208195	-0.339024
O16	O	-0.615782	0.708195	0.160976
O17	O	-1.345429	0.437968	-0.339001
O18	O	-0.845429	0.937968	0.160999
O19	O	-1.214847	0.208174	-0.438079
O20	O	-0.714847	0.708174	0.061921
O21	O	-1.115688	0.338947	-0.208278
O22	O	-0.615688	0.838947	0.291722
O23	O	-0.985006	0.338899	-0.338974
O24	O	-0.485006	0.838899	0.161026
O25	O	-1.115731	0.437884	-0.568723
O26	O	-0.615731	0.937884	-0.068723
O27	O	-0.984984	0.437911	-0.437990
O28	O	-0.484984	0.937911	0.062010
O29	O	-1.214818	0.338852	-0.568761
O30	O	-0.714818	0.838852	-0.068761
O31	O	-1.214653	0.568672	-0.338950
O32	O	-0.714653	1.068672	0.161050
O33	O	-1.115637	0.568636	-0.437977
O34	O	-0.615637	1.068636	0.062023
C35	C	-0.955739	0.388404	-0.388478
C36	C	-0.455739	0.888404	0.111522
C37	C	-0.866118	0.388416	-0.388485
C38	C	-0.366118	0.888416	0.111515
C39	C	-1.165153	0.597910	-0.388474
C40	C	-0.665153	1.097910	0.111526
C41	C	-1.165195	0.687531	-0.388486
C42	C	-0.665195	1.187531	0.111514
C43	C	-0.537942	0.388414	-0.388509
C44	C	-0.037942	0.888414	0.111491
C45	C	-0.629251	0.388413	-0.388500
C46	C	-0.129251	0.888413	0.111500
C47	C	-0.702027	0.388416	-0.388497
C48	C	-0.202027	0.888416	0.111503
C49	C	-0.793341	0.388413	-0.388489
C50	C	-0.293341	0.888413	0.111511
C51	C	-1.165282	0.388359	-0.598816
C52	C	-0.665282	0.888359	-0.098816
C53	C	-1.165305	0.388334	-0.688438
C54	C	-0.665305	0.888334	-0.188438
C55	C	-0.375539	0.388431	-0.388529
C56	C	0.124461	0.888431	0.111471
C57	C	-0.465160	0.388422	-0.388519
C58	C	0.034840	0.888422	0.111481
C59	C	-1.165328	0.178111	-0.388559
C60	C	-0.665328	0.678111	0.111441
C61	C	-1.165370	0.088489	-0.388581
C62	C	-0.665370	0.588489	0.111419
C63	C	-1.165335	1.015707	-0.388570
C64	C	-0.665335	1.515707	0.111430
C65	C	-1.165294	0.924399	-0.388549
C66	C	-0.665294	1.424399	0.111451
C67	C	-1.165264	0.851622	-0.388528
C68	C	-0.665264	1.351622	0.111472
C69	C	-1.165224	0.760308	-0.388508
C70	C	-0.665224	1.260308	0.111492
C71	C	-1.165342	0.388243	-1.016614
C72	C	-0.665342	0.888243	-0.516614
C73	C	-1.165329	0.388271	-0.925305
C74	C	-0.665329	0.888271	-0.425305
C75	C	-1.165324	0.388289	-0.852529
C76	C	-0.665324	0.888289	-0.352529
C77	C	-1.165310	0.388316	-0.761214
C78	C	-0.665310	0.888316	-0.261214
C79	C	-1.165224	0.388421	-0.179017
C80	C	-0.665224	0.888421	0.320983
C81	C	-1.165358	0.388220	-0.089396
C82	C	-0.665358	0.888220	0.410604
