data_functionalizedCrystal
_audit_creation_method	'MofGen! by Chris Wilmer'
_symmetry_space_group_name_H-M	'P1'
_symmetry_Int_Tables_number	1
_symmetry_cell_setting	triclinic
loop_
_symmetry_equiv_pos_as_xyz
  x,y,z
_cell_length_a	12.837943
_cell_length_b	15.072220
_cell_length_c	12.837942
_cell_angle_alpha	89.992585
_cell_angle_beta	85.171060
_cell_angle_gamma	90.003370
loop_
_atom_site_label
_atom_site_type_symbol
_atom_site_fract_x
_atom_site_fract_y
_atom_site_fract_z
O1	O	1.402336	0.073766	-0.272145
O2	O	1.902336	0.573766	0.227855
O3	O	1.099203	0.073771	-0.258702
O4	O	1.599203	0.573771	0.241298
O5	O	1.244048	0.073763	-0.113857
O6	O	1.744048	0.573763	0.386143
O7	O	1.257491	0.073774	-0.416991
O8	O	1.757491	0.573774	0.083009
O9	O	1.244032	-0.073802	-0.113841
O10	O	1.744032	0.426198	0.386159
O11	O	1.099187	-0.073794	-0.258686
O12	O	1.599187	0.426206	0.241314
O13	O	1.402321	-0.073799	-0.272129
O14	O	1.902321	0.426201	0.227871
Zn15	Zn	1.250752	-0.097226	-0.265405
Zn16	Zn	1.750752	0.402774	0.234595
Zn17	Zn	1.250772	0.097198	-0.265426
Zn18	Zn	1.750772	0.597198	0.234574
O19	O	1.257476	-0.073791	-0.416974
O20	O	1.757476	0.426209	0.083026
C21	C	1.060126	-0.000011	-0.254153
C22	C	1.560126	0.499989	0.245847
C23	C	0.943711	-0.000009	-0.240608
C24	C	1.443711	0.499991	0.259392
N25	N	1.250745	-0.229915	-0.265390
N26	N	1.750745	0.270085	0.234610
C27	C	0.718837	-0.000016	-0.403437
C28	C	1.218837	0.499984	0.096563
C29	C	0.609454	-0.000015	-0.390716
C30	C	1.109454	0.499985	0.109284
C31	C	0.615562	-0.000012	-0.202445
C32	C	1.115562	0.499988	0.297555
C33	C	0.724944	-0.000013	-0.215166
C34	C	1.224944	0.499987	0.284834
C35	C	0.776578	-0.000014	-0.315666
C36	C	1.276578	0.499986	0.184334
C37	C	0.885962	-0.000008	-0.328386
C38	C	1.385962	0.499992	0.171614
C39	C	0.892067	-0.000012	-0.140116
C40	C	1.392067	0.499988	0.359884
C41	C	0.782685	-0.000011	-0.127395
C42	C	1.282685	0.499989	0.372605
C43	C	1.250759	-0.410912	-0.265405
C44	C	1.750759	0.089088	0.234595
C45	C	1.328286	-0.448558	-0.187933
C46	C	1.828286	0.051442	0.312067
C47	C	1.328621	-0.551383	-0.188193
C48	C	1.828621	-0.051383	0.311807
C49	C	1.250772	-0.589116	-0.265418
C50	C	1.750772	-0.089116	0.234582
C51	C	1.284980	-0.551767	-0.377093
C52	C	1.784980	-0.051767	0.122907
C53	C	1.285540	-0.448910	-0.376642
C54	C	1.785540	0.051090	0.123358
C55	C	1.138864	-0.448830	-0.232162
C56	C	1.638864	0.051170	0.267838
C57	C	1.139362	-0.551695	-0.229761
C58	C	1.639362	-0.051695	0.270239
C59	C	1.250778	-0.689829	-0.265432
C60	C	1.750778	-0.189829	0.234568
C61	C	1.250756	-0.310199	-0.265399
C62	C	1.750756	0.189801	0.234601
C63	C	1.441398	-0.000015	-0.276679
C64	C	1.941398	0.499985	0.223321
C65	C	1.557813	-0.000011	-0.290223
C66	C	2.057813	0.499989	0.209777
C67	C	1.239499	-0.000019	-0.074780
C68	C	1.739499	0.499981	0.425220
C69	C	1.225954	-0.000017	0.041635
C70	C	1.725954	0.499983	0.541635
N71	N	1.250786	0.229886	-0.265434
N72	N	1.750786	0.729886	0.234566
C73	C	1.262025	-0.000007	-0.456051
C74	C	1.762025	0.499993	0.043949
C75	C	1.275569	-0.000003	-0.572467
C76	C	1.775569	0.499997	-0.072467
C77	C	1.388784	-0.000001	0.266510
C78	C	1.888784	0.499999	0.766510
C79	C	1.376062	0.000000	0.375892
C80	C	1.876062	0.500000	0.875892
C81	C	1.187791	-0.000006	0.369785
C82	C	1.687791	0.499994	0.869785
C83	C	1.200513	-0.000007	0.260402
C84	C	1.700513	0.499993	0.760402
C85	C	1.301012	-0.000007	0.208769
C86	C	1.801012	0.499993	0.708769
C87	C	1.313732	-0.000015	0.099384
C88	C	1.813732	0.499985	0.599384
C89	C	1.125462	-0.000014	0.093279
C90	C	1.625462	0.499986	0.593279
C91	C	1.112741	-0.000013	0.202661
C92	C	1.612741	0.499987	0.702661
H93	H	0.928000	-0.000010	-0.410218
H94	H	1.428000	0.499990	0.089782
H95	H	1.078168	-0.577377	-0.281675
H96	H	1.578168	-0.077377	0.218325
F97	F	0.548006	-0.000020	-0.484135
F98	F	1.048006	0.499980	0.015865
H99	H	0.760878	-0.000015	-0.485268
H100	H	1.260878	0.499985	0.014732
H101	H	0.740630	-0.000020	-0.045571
H102	H	1.240630	0.499980	0.454429
F103	F	0.953527	0.000001	-0.046697
F104	F	1.453527	0.500001	0.453303
F105	F	1.213705	-0.583707	-0.454877
F106	F	1.713705	-0.083707	0.045123
H107	H	0.573502	-0.000085	-0.120623
H108	H	1.073502	0.499915	0.379377
H109	H	1.470614	-0.000009	0.224469
H110	H	1.970614	0.499991	0.724469
F111	F	1.392614	-0.417541	-0.412695
F112	F	1.892614	0.082459	0.087305
F113	F	1.299989	-0.584394	-0.080165
F114	F	1.799989	-0.084394	0.419835
F115	F	1.005788	-0.000006	0.257625
F116	F	1.505788	0.499994	0.757625
F117	F	1.032043	-0.000029	0.031819
F118	F	1.532043	0.499971	0.531819
H119	H	1.447536	0.000007	0.422901
H120	H	1.947536	0.500007	0.922901
H121	H	1.306606	-0.423815	-0.105038
H122	H	1.806606	0.076185	0.394962
H123	H	1.410625	-0.422693	-0.210075
H124	H	1.910625	0.077307	0.289925
F125	F	1.436874	-0.583543	-0.217485
F126	F	1.936874	-0.083543	0.282515
F127	F	1.215908	-0.416356	-0.455613
F128	F	1.715908	0.083644	0.044387
H129	H	1.366032	-0.577522	-0.405058
H130	H	1.866032	-0.077522	0.094942
F131	F	1.099243	-0.414942	-0.127202
F132	F	1.599243	0.085058	0.372798
H133	H	1.113645	-0.576107	-0.147553
H134	H	1.613645	-0.076107	0.352447
F135	F	1.063295	-0.417008	-0.305836
F136	F	1.563295	0.082992	0.194164
H137	H	1.395564	-0.000017	0.057346
H138	H	1.895564	0.499983	0.557346
F139	F	1.080841	0.000015	0.424755
F140	F	1.580841	0.500015	0.924755
