data_functionalizedCrystal
_audit_creation_method	'MofGen! by Chris Wilmer'
_symmetry_space_group_name_H-M	'P1'
_symmetry_Int_Tables_number	1
_symmetry_cell_setting	triclinic
loop_
_symmetry_equiv_pos_as_xyz
  x,y,z
_cell_length_a	18.050591
_cell_length_b	29.839131
_cell_length_c	18.050582
_cell_angle_alpha	89.974523
_cell_angle_beta	89.979078
_cell_angle_gamma	90.037426
loop_
_atom_site_label
_atom_site_type_symbol
_atom_site_fract_x
_atom_site_fract_y
_atom_site_fract_z
Zn1	Zn	1.135224	-0.178930	-0.420016
Zn2	Zn	1.468558	0.154404	-0.086683
Zn3	Zn	1.801891	0.487737	0.246650
Zn4	Zn	1.135106	-0.254052	-0.295820
Zn5	Zn	1.468440	0.079281	0.037513
Zn6	Zn	1.801773	0.412615	0.370847
Zn7	Zn	1.011044	-0.178932	-0.295827
Zn8	Zn	1.344377	0.154402	0.037506
Zn9	Zn	1.677710	0.487735	0.370839
Zn10	Zn	1.010963	-0.254028	-0.419956
Zn11	Zn	1.344296	0.079305	-0.086622
Zn12	Zn	1.677630	0.412638	0.246711
O13	O	1.073084	-0.216485	-0.357905
O14	O	1.406418	0.116848	-0.024572
O15	O	1.739751	0.450181	0.308762
O16	O	1.239133	-0.188904	-0.403564
O17	O	1.572467	0.144429	-0.070230
O18	O	1.905800	0.477763	0.263103
O19	O	1.118634	-0.244098	-0.191896
O20	O	1.451967	0.089236	0.141437
O21	O	1.785300	0.422569	0.474770
O22	O	1.027600	-0.116064	-0.312330
O23	O	1.360933	0.217269	0.021003
O24	O	1.694266	0.550603	0.354337
O25	O	1.239047	-0.244096	-0.312317
O26	O	1.572380	0.089237	0.021016
O27	O	1.905713	0.422571	0.354349
O28	O	1.118835	-0.116063	-0.403571
O29	O	1.452168	0.217270	-0.070238
O30	O	1.785501	0.550604	0.263096
O31	O	1.027485	-0.188907	-0.191902
O32	O	1.360819	0.144426	0.141431
O33	O	1.694152	0.477760	0.474765
O34	O	0.907108	-0.188884	-0.312271
O35	O	1.240442	0.144449	0.021062
O36	O	1.573775	0.477783	0.354396
O37	O	1.027462	-0.244056	-0.523888
O38	O	1.360795	0.089278	-0.190555
O39	O	1.694129	0.422611	0.142778
O40	O	0.907049	-0.244057	-0.403467
O41	O	1.240382	0.089276	-0.070134
O42	O	1.573716	0.422609	0.263199
O43	O	1.118756	-0.188881	-0.523933
O44	O	1.452090	0.144452	-0.190600
O45	O	1.785423	0.477786	0.142734
O46	O	1.118555	-0.316916	-0.312258
O47	O	1.451889	0.016417	0.021075
O48	O	1.785222	0.349751	0.354408
O49	O	1.027348	-0.316898	-0.403460
O50	O	1.360681	0.016435	-0.070127
O51	O	1.694014	0.349768	0.263207
C52	C	0.880132	-0.216469	-0.357864
C53	C	1.213466	0.116865	-0.024530
C54	C	1.546799	0.450198	0.308803
C55	C	0.797586	-0.216472	-0.357864
C56	C	1.130920	0.116861	-0.024531
C57	C	1.464253	0.450194	0.308803
C58	C	0.598146	-0.186434	-0.308386
C59	C	0.931480	0.146899	0.024948
C60	C	1.264813	0.480232	0.358281
C61	C	0.548711	-0.227410	-0.290106
C62	C	0.882045	0.105924	0.043227
C63	C	1.215378	0.439257	0.376561
C64	C	0.646456	-0.216486	-0.357897
C65	C	0.979789	0.116847	-0.024564
C66	C	1.313123	0.450181	0.308769
C67	C	0.548810	-0.175525	-0.376175
C68	C	0.882143	0.157809	-0.042842
C69	C	1.215476	0.491142	0.290492
C70	C	0.500471	-0.216495	-0.357928
C71	C	0.833804	0.116838	-0.024595
C72	C	1.167138	0.450171	0.308738
C73	C	0.598108	-0.257483	-0.339583
C74	C	0.931441	0.075850	-0.006249
C75	C	1.264775	0.409184	0.327084
C76	C	0.598211	-0.205570	-0.425683
C77	C	0.931544	0.127763	-0.092350
C78	C	1.264878	0.461096	0.240984
C79	C	0.548798	-0.246574	-0.407429
C80	C	0.882131	0.086759	-0.074096
C81	C	1.215465	0.420093	0.259237
C82	C	0.730554	-0.216480	-0.357878
C83	C	1.063888	0.116854	-0.024544
C84	C	1.397221	0.450187	0.308789
C85	C	0.416374	-0.216506	-0.357948
C86	C	0.749708	0.116827	-0.024615
C87	C	1.083041	0.450160	0.308718
C88	C	1.072950	-0.333208	-0.357868
C89	C	1.406284	0.000125	-0.024535
C90	C	1.739617	0.333459	0.308799
C91	C	1.072961	-0.383142	-0.357877
C92	C	1.406294	-0.049809	-0.024544
C93	C	1.739627	0.283524	0.308790
C94	C	1.120663	-0.692782	-0.310485
C95	C	1.453996	-0.359449	0.022848
C96	C	1.787329	-0.026115	0.356181
C97	C	1.120754	-0.880455	-0.310514
C98	C	1.454088	-0.547122	0.022819
C99	C	1.787421	-0.213789	0.356152
O100	O	1.161206	-0.904717	-0.270192
O101	O	1.494539	-0.571384	0.063141
O102	O	1.827872	-0.238050	0.396475
N103	N	1.073238	-0.903927	-0.357961
N104	N	1.406572	-0.570594	-0.024628
N105	N	1.739905	-0.237261	0.308706
C106	C	1.025700	-0.880478	-0.405407
C107	C	1.359033	-0.547145	-0.072074
C108	C	1.692366	-0.213812	0.261260
O109	O	0.985292	-0.904749	-0.445769
O110	O	1.318625	-0.571416	-0.112436
O111	O	1.651959	-0.238083	0.220897
C112	C	1.025612	-0.692806	-0.405381
C113	C	1.358946	-0.359473	-0.072048
C114	C	1.692279	-0.026140	0.261285
C115	C	1.073126	-0.669337	-0.357926
C116	C	1.406459	-0.336003	-0.024593
C117	C	1.739793	-0.002670	0.308740
C118	C	1.168173	-0.669312	-0.263035
C119	C	1.501506	-0.335979	0.070298
C120	C	1.834840	-0.002646	0.403632
C121	C	1.168147	-0.622397	-0.263025
C122	C	1.501480	-0.289064	0.070308
C123	C	1.834813	0.044270	0.403641
C124	C	1.120610	-0.598951	-0.310466
C125	C	1.453943	-0.265618	0.022867
C126	C	1.787277	0.067715	0.356200
C127	C	1.073100	-0.622421	-0.357917
C128	C	1.406433	-0.289088	-0.024584
C129	C	1.739766	0.044246	0.308750
C130	C	0.978078	-0.669358	-0.452831
C131	C	1.311411	-0.336025	-0.119498
C132	C	1.644744	-0.002692	0.213836
C133	C	0.978062	-0.622437	-0.452822
C134	C	1.311395	-0.289104	-0.119488
C135	C	1.644728	0.044230	0.213845
C136	C	1.025575	-0.598967	-0.405367
C137	C	1.358909	-0.265634	-0.072033
C138	C	1.692242	0.067699	0.261300
C139	C	1.025537	-0.552060	-0.405348
C140	C	1.358870	-0.218727	-0.072015
C141	C	1.692203	0.114607	0.261318
N142	N	1.073053	-0.528588	-0.357902
N143	N	1.406386	-0.195254	-0.024568
N144	N	1.739719	0.138079	0.308765
C145	C	1.120589	-0.552033	-0.310461
C146	C	1.453923	-0.218700	0.022873
C147	C	1.787256	0.114633	0.356206
C148	C	1.025748	-0.979009	-0.405416
C149	C	1.359081	-0.645676	-0.072083
C150	C	1.692414	-0.312342	0.261251
C151	C	1.025769	-1.025927	-0.405422
C152	C	1.359102	-0.692594	-0.072088
C153	C	1.692435	-0.359260	0.261245
C154	C	1.120824	-1.025900	-0.310530
C155	C	1.454158	-0.692567	0.022804
C156	C	1.787491	-0.359234	0.356137
C157	C	1.120799	-0.978982	-0.310521
C158	C	1.454133	-0.645648	0.022812
C159	C	1.787466	-0.312315	0.356146
C160	C	1.073264	-0.955537	-0.357970
C161	C	1.406597	-0.622204	-0.024636
C162	C	1.739930	-0.288870	0.308697
C163	C	1.120530	-0.453508	-0.310444
C164	C	1.453863	-0.120174	0.022890
C165	C	1.787197	0.213159	0.356223
C166	C	1.120497	-0.406588	-0.310436
C167	C	1.453831	-0.073255	0.022897
C168	C	1.787164	0.260079	0.356231
C169	C	1.025445	-0.406619	-0.405331
C170	C	1.358778	-0.073285	-0.071997
C171	C	1.692111	0.260048	0.261336
C172	C	1.025474	-0.453534	-0.405336
C173	C	1.358808	-0.120201	-0.072002
C174	C	1.692141	0.213133	0.261331
C175	C	1.073023	-0.476977	-0.357890
C176	C	1.406356	-0.143644	-0.024556
C177	C	1.739690	0.189689	0.308777
O178	O	0.985113	-0.527769	-0.445655
O179	O	1.318446	-0.194436	-0.112322
O180	O	1.651779	0.138897	0.221011
O181	O	1.161002	-0.527755	-0.270116
O182	O	1.494336	-0.194421	0.063217
O183	O	1.827669	0.138912	0.396551
C184	C	1.120689	-0.739698	-0.310495
C185	C	1.454022	-0.406364	0.022838
C186	C	1.787355	-0.073031	0.356172
C187	C	1.073178	-0.763167	-0.357946
C188	C	1.406512	-0.429834	-0.024612
C189	C	1.739845	-0.096501	0.308721
C190	C	1.025642	-0.739722	-0.405387
C191	C	1.358975	-0.406388	-0.072053
C192	C	1.692308	-0.073055	0.261280
C193	C	1.073199	-0.810085	-0.357951
C194	C	1.406533	-0.476752	-0.024618
C195	C	1.739866	-0.143419	0.308715
C196	C	1.120736	-0.833531	-0.310510
C197	C	1.454069	-0.500198	0.022823
C198	C	1.787402	-0.166864	0.356156
C199	C	1.168252	-0.810059	-0.263064
C200	C	1.501585	-0.476725	0.070270
C201	C	1.834918	-0.143392	0.403603
C202	C	1.168225	-0.763143	-0.263054
C203	C	1.501559	-0.429810	0.070279
C204	C	1.834892	-0.096477	0.403613
C205	C	0.978126	-0.763194	-0.452833
C206	C	1.311459	-0.429861	-0.119500
C207	C	1.644793	-0.096527	0.213834
C208	C	0.978155	-0.810109	-0.452838
C209	C	1.311489	-0.476776	-0.119505
C210	C	1.644822	-0.143443	0.213828
C211	C	1.025692	-0.833555	-0.405397
C212	C	1.359025	-0.500222	-0.072064
C213	C	1.692359	-0.166888	0.261269
C214	C	1.266790	-0.216502	-0.357947
C215	C	1.600123	0.116831	-0.024613
C216	C	1.933457	0.450164	0.308720
C217	C	1.349336	-0.216510	-0.357964
C218	C	1.682669	0.116824	-0.024631
C219	C	2.016002	0.450157	0.308702
C220	C	1.073113	-0.216465	-0.551611
C221	C	1.406447	0.116868	-0.218277
C222	C	1.739780	0.450201	0.115056
C223	C	1.073126	-0.216457	-0.634156
C224	C	1.406459	0.116876	-0.300823
C225	C	1.739793	0.450210	0.032510
C226	C	1.073239	-0.099307	-0.357958
C227	C	1.406573	0.234026	-0.024625
C228	C	1.739906	0.567360	0.308709
C229	C	1.073305	-0.049373	-0.357981
C230	C	1.406639	0.283961	-0.024647
C231	C	1.739972	0.617294	0.308686
C232	C	1.023518	-0.246420	-0.833583
C233	C	1.356851	0.086913	-0.500250
C234	C	1.690185	0.420247	-0.166916
C235	C	1.091269	-0.257404	-0.882980
C236	C	1.424602	0.075929	-0.549647
C237	C	1.757936	0.409262	-0.216314
C238	C	1.073162	-0.216423	-0.785287
C239	C	1.406496	0.116911	-0.451954
C240	C	1.739829	0.450244	-0.118620
C241	C	1.005449	-0.205426	-0.882971
C242	C	1.338782	0.127908	-0.549638
C243	C	1.672115	0.461241	-0.216304
C244	C	1.073192	-0.216390	-0.931272
C245	C	1.406525	0.116943	-0.597939
C246	C	1.739859	0.450276	-0.264605
C247	C	1.140949	-0.227429	-0.833597
C248	C	1.474282	0.105905	-0.500264
C249	C	1.807616	0.439238	-0.166930
C250	C	1.055083	-0.175431	-0.833584
C251	C	1.388416	0.157902	-0.500250
C252	C	1.721750	0.491236	-0.166917
C253	C	1.122881	-0.186400	-0.882959
C254	C	1.456214	0.146933	-0.549625
C255	C	1.789548	0.480267	-0.216292
C256	C	1.073145	-0.216442	-0.701189
C257	C	1.406478	0.116891	-0.367855
C258	C	1.739811	0.450224	-0.034522
C259	C	1.073218	-0.216371	-1.015369
C260	C	1.406551	0.116963	-0.682035
C261	C	1.739884	0.450296	-0.348702
C262	C	1.073098	-0.216473	-0.164953
C263	C	1.406431	0.116861	0.168381
C264	C	1.739765	0.450194	0.501714
C265	C	1.073230	-0.216355	-0.082407
C266	C	1.406563	0.116979	0.250926
C267	C	1.739896	0.450312	0.584259
H268	H	1.159189	-0.387480	-0.271790
H269	H	1.492522	-0.054147	0.061543
H270	H	1.825855	0.279186	0.394877
O271	O	0.626864	-0.152809	-0.252870
O272	O	0.960198	0.180524	0.080464
O273	O	1.293531	0.513858	0.413797
H274	H	0.607039	-0.161985	-0.196656
H275	H	0.940373	0.171349	0.136677
H276	H	1.273706	0.504682	0.470011
O277	O	1.219454	-0.694591	-0.211859
O278	O	1.552787	-0.361257	0.121474
O279	O	1.886121	-0.027924	0.454807
H280	H	1.257238	-0.715931	-0.245133
H281	H	1.590572	-0.382597	0.088200
H282	H	1.923905	-0.049264	0.421534
O283	O	0.967961	-0.280064	-0.804861
O284	O	1.301294	0.053269	-0.471527
O285	O	1.634627	0.386602	-0.138194
H286	H	0.925596	-0.262527	-0.771031
H287	H	1.258930	0.070807	-0.437698
H288	H	1.592263	0.404140	-0.104365
H289	H	0.619970	-0.196318	-0.482978
H290	H	0.953303	0.137015	-0.149644
H291	H	1.286637	0.470349	0.183689
O292	O	1.178566	-0.152776	-0.911498
O293	O	1.511899	0.180557	-0.578164
O294	O	1.845233	0.513890	-0.244831
H295	H	1.177848	-0.152793	-0.972984
H296	H	1.511181	0.180541	-0.639651
H297	H	1.844515	0.513874	-0.306317
O298	O	0.626663	-0.303387	-0.319022
O299	O	0.959996	0.029947	0.014311
O300	O	1.293329	0.363280	0.347645
H301	H	0.688151	-0.303017	-0.319139
H302	H	1.021484	0.030316	0.014194
H303	H	1.354817	0.363650	0.347527
H304	H	0.948172	-0.196138	-0.904660
H305	H	1.281505	0.137195	-0.571327
H306	H	1.614838	0.470529	-0.237993
H307	H	1.106579	-0.292056	-0.904678
H308	H	1.439912	0.041277	-0.571345
H309	H	1.773245	0.374610	-0.238011
O310	O	1.216944	-0.239558	-0.805000
O311	O	1.550277	0.093775	-0.471667
O312	O	1.883610	0.427108	-0.138334
H313	H	1.216364	-0.239408	-0.743513
H314	H	1.549698	0.093925	-0.410179
H315	H	1.883031	0.427258	-0.076846
H316	H	0.527267	-0.272021	-0.449313
H317	H	0.860600	0.061312	-0.115980
H318	H	1.193933	0.394646	0.217354
H319	H	0.987071	-1.045032	-0.444057
H320	H	1.320405	-0.711699	-0.110724
H321	H	1.653738	-0.378365	0.222609
O322	O	1.034763	-0.129550	-0.804800
O323	O	1.368097	0.203783	-0.471467
O324	O	1.701430	0.537117	-0.138134
H325	H	1.024116	-0.106748	-0.852209
H326	H	1.357449	0.226586	-0.518876
H327	H	1.690783	0.559919	-0.185543
O328	O	0.519901	-0.239651	-0.214196
O329	O	0.853235	0.093682	0.119138
O330	O	1.186568	0.427016	0.452471
H331	H	0.539659	-0.214654	-0.173181
H332	H	0.872992	0.118679	0.160153
H333	H	1.206325	0.452013	0.493486
H334	H	0.527115	-0.140885	-0.391596
H335	H	0.860448	0.192449	-0.058262
H336	H	1.193782	0.525782	0.275071
O337	O	1.219399	-0.597086	-0.211846
O338	O	1.552733	-0.263753	0.121487
O339	O	1.886066	0.069580	0.454821
H340	H	1.257148	-0.575677	-0.245122
H341	H	1.590482	-0.242344	0.088212
H342	H	1.923815	0.090990	0.421545
O343	O	1.171807	-0.478790	-0.259266
O344	O	1.505140	-0.145457	0.074068
O345	O	1.838473	0.187876	0.407401
H346	H	1.204829	-0.454582	-0.226267
H347	H	1.538163	-0.121248	0.107066
H348	H	1.871496	0.212085	0.440399
H349	H	0.939458	-0.829214	-0.491481
H350	H	1.272791	-0.495881	-0.158148
H351	H	1.606124	-0.162548	0.175185
O352	O	1.172056	-0.953667	-0.259351
O353	O	1.505389	-0.620334	0.073982
O354	O	1.838722	-0.287000	0.407315
H355	H	1.159370	-0.962697	-0.201051
H356	H	1.492704	-0.629364	0.132282
H357	H	1.826037	-0.296031	0.465616
O358	O	1.172112	-1.051192	-0.259372
O359	O	1.505445	-0.717858	0.073961
O360	O	1.838779	-0.384525	0.407294
H361	H	1.164147	-1.087759	-0.267362
H362	H	1.497480	-0.754425	0.065972
H363	H	1.830813	-0.421092	0.399305
O364	O	0.974457	-0.953724	-0.456578
O365	O	1.307790	-0.620391	-0.123245
O366	O	1.641123	-0.287057	0.210089
H367	H	0.941414	-0.977932	-0.489557
H368	H	1.274747	-0.644599	-0.156223
H369	H	1.608081	-0.311266	0.177110
O370	O	0.926835	-0.694666	-0.504020
O371	O	1.260169	-0.361332	-0.170686
O372	O	1.593502	-0.027999	0.162647
H373	H	0.893790	-0.670473	-0.537009
H374	H	1.227123	-0.337139	-0.203676
H375	H	1.560456	-0.003806	0.129657
H376	H	0.939353	-0.603351	-0.491462
H377	H	1.272686	-0.270017	-0.158129
H378	H	1.606020	0.063316	0.175204
H379	H	0.986787	-0.472644	-0.443980
H380	H	1.320121	-0.139311	-0.110646
H381	H	1.653454	0.194023	0.222687
H382	H	0.986739	-0.387522	-0.443954
H383	H	1.320072	-0.054188	-0.110621
H384	H	1.653405	0.279145	0.222712
H385	H	1.206956	-0.829156	-0.224433
H386	H	1.540289	-0.495823	0.108900
H387	H	1.873622	-0.162490	0.442233
O388	O	1.219480	-0.737831	-0.211878
O389	O	1.552813	-0.404498	0.121455
O390	O	1.886146	-0.071165	0.454788
H391	H	1.252540	-0.762023	-0.178902
H392	H	1.585874	-0.428690	0.154432
H393	H	1.919207	-0.095357	0.487765
H394	H	0.939417	-0.744108	-0.491466
H395	H	1.272750	-0.410775	-0.158133
H396	H	1.606083	-0.077441	0.175200
