data_functionalizedCrystal
_audit_creation_method	'MofGen! by Chris Wilmer'
_symmetry_space_group_name_H-M	'P1'
_symmetry_Int_Tables_number	1
_symmetry_cell_setting	triclinic
loop_
_symmetry_equiv_pos_as_xyz
  x,y,z
_cell_length_a	23.532407
_cell_length_b	23.532407
_cell_length_c	9.130307
_cell_angle_alpha	89.990275
_cell_angle_beta	89.998129
_cell_angle_gamma	82.848712
loop_
_atom_site_label
_atom_site_type_symbol
_atom_site_fract_x
_atom_site_fract_y
_atom_site_fract_z
O1	O	0.755259	0.069136	-0.121722
O2	O	0.589396	0.079139	-0.121747
O3	O	0.677329	-0.008795	-0.121707
O4	O	0.667326	0.157069	-0.121762
O5	O	0.677322	-0.008798	0.121892
O6	O	0.589389	0.079135	0.121852
O7	O	0.755252	0.069132	0.121877
Cu8	Cu	0.672320	0.074134	0.144107
Cu9	Cu	0.672328	0.074137	-0.143977
O10	O	0.667319	0.157066	0.121837
C11	C	0.568176	0.078882	0.000050
C12	C	0.504959	0.078116	0.000041
C13	C	0.238792	0.022921	0.000099
C14	C	0.298192	0.023632	0.000099
O15	O	0.334937	-0.020153	0.000164
N16	N	0.320818	0.075909	0.000071
C17	C	0.284041	0.127477	0.000060
O18	O	0.308740	0.172007	0.000038
C19	C	0.224642	0.126765	0.000071
C20	C	0.202019	0.074485	0.000083
C21	C	0.216169	-0.029354	0.000114
C22	C	0.156772	-0.030066	0.000111
C23	C	0.119999	0.021499	0.000095
C24	C	0.142623	0.073774	0.000081
C25	C	0.187865	0.178333	0.000069
C26	C	0.128463	0.177616	0.000082
C27	C	0.105840	0.125336	0.000094
C28	C	0.046454	0.124627	0.000063
N29	N	0.023828	0.072351	0.000090
C30	C	0.060600	0.020787	0.000106
C31	C	0.408783	0.128968	0.000039
C32	C	0.468181	0.129681	0.000017
C33	C	0.482328	0.025836	0.000059
C34	C	0.422929	0.025124	0.000070
C35	C	0.386157	0.076692	0.000066
C36	C	-0.064136	0.019297	0.000101
C37	C	-0.123538	0.018590	0.000092
C38	C	-0.137680	0.122435	0.000058
C39	C	-0.078284	0.123142	0.000059
C40	C	-0.041512	0.071568	0.000085
O41	O	0.009675	0.168390	0.000003
O42	O	0.035892	-0.023737	0.000148
C43	C	0.677071	-0.030012	0.000096
C44	C	0.676305	-0.093229	0.000108
C45	C	0.723538	-0.492332	0.000034
C46	C	0.722827	-0.551733	0.000023
O47	O	0.766613	-0.588477	-0.000024
N48	N	0.670551	-0.574359	0.000016
C49	C	0.618982	-0.537581	0.000006
O50	O	0.574452	-0.562281	-0.000002
C51	C	0.619695	-0.478182	0.000007
C52	C	0.671974	-0.455559	0.000028
C53	C	0.775814	-0.469709	0.000055
C54	C	0.776525	-0.410313	0.000069
C55	C	0.724961	-0.373540	0.000062
C56	C	0.672685	-0.396163	0.000042
C57	C	0.568127	-0.441406	-0.000014
C58	C	0.568843	-0.382003	-0.000015
C59	C	0.621123	-0.359381	0.000007
C60	C	0.621832	-0.299994	0.000050
N61	N	0.674109	-0.277368	0.000057
C62	C	0.725673	-0.314141	0.000063
C63	C	0.617491	-0.662324	0.000002
C64	C	0.616778	-0.721722	0.000011
C65	C	0.720623	-0.735869	0.000026
C66	C	0.721335	-0.676470	0.000027
C67	C	0.669767	-0.639698	0.000009
C68	C	0.727163	-0.189404	0.000094
C69	C	0.727869	-0.130002	0.000114
C70	C	0.624025	-0.115860	0.000091
C71	C	0.623318	-0.175257	0.000079
C72	C	0.674891	-0.212028	0.000075
O73	O	0.578069	-0.263215	0.000091
O74	O	0.770196	-0.289433	0.000052
C75	C	0.776472	0.069389	0.000077
C76	C	0.839689	0.070155	0.000076
C77	C	0.667577	0.178283	0.000031
C78	C	0.668343	0.241500	0.000010
N79	N	0.672317	0.074131	0.346730
C80	C	0.603638	0.005390	0.346803
C81	C	0.569303	-0.028981	0.423506
C82	C	0.569311	-0.028981	0.576840
C83	C	0.603655	0.005395	0.653473
C84	C	0.637989	0.039766	0.576770
C85	C	0.637979	0.039761	0.423433
C86	C	0.706665	0.108509	0.576697
C87	C	0.706662	0.108507	0.423364
C88	C	0.741009	0.142885	0.653331
C89	C	0.775347	0.177254	0.576628
C90	C	0.775339	0.177252	0.423285
C91	C	0.740996	0.142878	0.346661
N92	N	0.672331	0.074138	0.653400
H93	H	0.206274	0.220904	0.000053
H94	H	-0.059864	0.165712	0.000047
Br95	Br	0.845804	-0.519605	0.000062
Br96	Br	0.547499	-0.612423	-0.000011
H97	H	0.246104	-0.071347	0.000132
Br98	Br	0.603634	0.005379	0.138706
Br99	Br	-0.014242	-0.050696	0.000136
H100	H	0.580747	-0.193677	0.000102
H101	H	0.819097	-0.391900	0.000080
H102	H	0.740987	0.142872	0.221808
Br103	Br	0.522710	-0.075623	0.680943
H104	H	-0.167631	0.164417	0.000038
H105	H	0.138359	-0.072637	0.000128
Br106	Br	0.603653	0.005406	0.861570
Br107	Br	0.741014	0.142892	0.861428
Br108	Br	0.790604	-0.785787	0.000028
Br109	Br	0.798825	-0.099304	0.000145
Br110	Br	0.821945	0.223910	0.680635
H111	H	0.803295	0.205245	0.360842
H112	H	0.098525	0.219610	0.000085
Br113	Br	-0.154236	-0.052365	0.000094
H114	H	0.404515	-0.017447	0.000082
Br115	Br	0.532246	-0.044145	0.000075
H116	H	0.486595	0.172252	-0.000013
H117	H	0.769159	-0.219337	0.000085
Br118	Br	0.792288	-0.645774	0.000059
Br119	Br	0.358883	0.198960	0.000018
Br120	Br	0.545825	-0.752416	0.000017
H121	H	0.525555	-0.459814	-0.000041
Br122	Br	0.498854	-0.332101	-0.000046
H123	H	0.582043	-0.085909	0.000091
Br124	Br	0.522692	-0.075628	0.319499
