data_functionalizedCrystal
_audit_creation_method	'MofGen! by Chris Wilmer'
_symmetry_space_group_name_H-M	'P1'
_symmetry_Int_Tables_number	1
_symmetry_cell_setting	triclinic
loop_
_symmetry_equiv_pos_as_xyz
  x,y,z
_cell_length_a	12.759401
_cell_length_b	16.120444
_cell_length_c	12.759393
_cell_angle_alpha	87.136376
_cell_angle_beta	90.018496
_cell_angle_gamma	92.926596
loop_
_atom_site_label
_atom_site_type_symbol
_atom_site_fract_x
_atom_site_fract_y
_atom_site_fract_z
Zn1	Zn	1.584964	-0.331854	0.615151
Zn2	Zn	2.084964	0.168146	1.115151
Zn3	Zn	1.575912	-0.471293	0.448366
Zn4	Zn	2.075912	0.028707	0.948366
Zn5	Zn	1.409263	-0.331898	0.439493
Zn6	Zn	1.909263	0.168102	0.939493
Zn7	Zn	1.400313	-0.471228	0.624004
Zn8	Zn	1.900313	0.028772	1.124004
O9	O	1.492613	-0.401568	0.531754
O10	O	1.992613	0.098432	1.031754
O11	O	1.730784	-0.350360	0.593035
O12	O	2.230784	0.149640	1.093035
O13	O	1.553764	-0.452847	0.300171
O14	O	2.053764	0.047153	0.800171
O15	O	1.440104	-0.215227	0.455376
O16	O	1.940104	0.284773	0.955376
O17	O	1.724134	-0.452804	0.470499
O18	O	2.224134	0.047196	0.970499
O19	O	1.569191	-0.215194	0.584432
O20	O	2.069191	0.284806	1.084432
O21	O	1.431327	-0.350434	0.293652
O22	O	1.931327	0.149566	0.793652
O23	O	1.261056	-0.350372	0.463960
O24	O	1.761056	0.149628	0.963960
O25	O	1.424850	-0.452695	0.769848
O26	O	1.924850	0.047305	1.269848
O27	O	1.254480	-0.452737	0.599519
O28	O	1.754480	0.047263	1.099519
O29	O	1.560512	-0.350298	0.763344
O30	O	2.060512	0.149702	1.263344
O31	O	1.545085	-0.587950	0.479083
O32	O	2.045085	-0.087950	0.979083
O33	O	1.416072	-0.587903	0.608123
O34	O	1.916072	-0.087903	1.108123
C35	C	1.219647	-0.401553	0.531738
C36	C	1.719647	0.098447	1.031738
C37	C	1.102869	-0.401567	0.531758
C38	C	1.602869	0.098433	1.031758
C39	C	1.478654	-0.618176	0.545550
C40	C	1.978654	-0.118176	1.045550
C41	C	1.472778	-0.710842	0.551487
C42	C	1.972778	-0.210842	1.051487
C43	C	1.044605	-0.454954	0.602238
C44	C	1.544605	0.045046	1.102238
C45	C	0.934880	-0.454964	0.602250
C46	C	1.434880	0.045036	1.102250
C47	C	0.941694	-0.348198	0.461293
C48	C	1.441694	0.151802	0.961293
C49	C	1.051417	-0.348184	0.461287
C50	C	1.551417	0.151816	0.961287
C51	C	1.096058	-0.508336	0.672709
C52	C	1.596058	-0.008336	1.172709
C53	C	1.037793	-0.561728	0.743194
C54	C	1.537793	-0.061728	1.243194
C55	C	0.928069	-0.561739	0.743206
C56	C	1.428069	-0.061739	1.243206
C57	C	0.876608	-0.508357	0.672733
C58	C	1.376608	-0.008357	1.172733
C59	C	1.523352	-0.921787	0.501181
C60	C	2.023352	-0.421787	1.001181
C61	C	1.462069	-0.880498	0.562338
C62	C	1.962069	-0.380498	1.062338
C63	C	1.468029	-0.786093	0.556298
C64	C	1.968029	-0.286093	1.056298
C65	C	1.517393	-1.016201	0.507218
C66	C	2.017393	-0.516201	1.007218
C67	C	1.766645	-0.401584	0.531770
C68	C	2.266645	0.098416	1.031770
C69	C	1.883422	-0.401591	0.531776
C70	C	2.383422	0.098409	1.031776
C71	C	1.492692	-0.401484	0.805782
C72	C	1.992692	0.098516	1.305782
C73	C	1.492726	-0.401448	0.922556
C74	C	1.992726	0.098552	1.422556
C75	C	1.506656	-0.184115	0.517927
C76	C	2.006656	0.315885	1.017927
C77	C	1.512640	-0.091449	0.512035
C78	C	2.012640	0.408551	1.012035
C79	C	1.492599	-0.401592	0.258788
C80	C	1.992599	0.098408	0.758788
C81	C	1.492784	-0.401393	0.141999
C82	C	1.992784	0.098607	0.641999
C83	C	1.563375	-0.348125	0.974033
C84	C	2.063375	0.151875	1.474033
C85	C	1.563402	-0.348095	1.083755
C86	C	2.063402	0.151905	1.583755
C87	C	1.422127	-0.454719	1.090515
C88	C	1.922127	0.045281	1.590515
C89	C	1.422096	-0.454744	0.980794
C90	C	1.922096	0.045256	1.480794
C91	C	1.634005	-0.294829	0.915795
C92	C	2.134005	0.205171	1.415795
C93	C	1.704660	-0.241502	0.967272
C94	C	2.204660	0.258498	1.467272
C95	C	1.704687	-0.241472	1.076994
C96	C	2.204687	0.258528	1.576994
C97	C	1.634058	-0.294769	1.135240
C98	C	2.134058	0.205231	1.635240
H99	H	1.185401	-0.508335	0.672705
H100	H	1.685401	-0.008335	1.172705
H101	H	1.580289	-0.886239	0.444290
H102	H	2.080289	-0.386239	0.944290
N103	N	1.780880	-0.183944	1.132505
N104	N	2.280880	0.316056	1.632505
H105	H	1.855105	-0.196902	1.114240
H106	H	2.355105	0.303098	1.614240
H107	H	1.770096	-0.192030	1.210834
H108	H	2.270096	0.307970	1.710834
N109	N	1.634075	-0.294730	1.253583
N110	N	2.134075	0.205270	1.753583
H111	H	1.689545	-0.252859	1.277358
H112	H	2.189545	0.247141	1.777358
H113	H	1.649664	-0.351944	1.283568
H114	H	2.149664	0.148056	1.783568
N115	N	1.633979	-0.294866	0.797454
N116	N	2.133979	0.205134	1.297454
H117	H	1.689442	-0.253014	0.768369
H118	H	2.189442	0.246986	1.268369
H119	H	1.562856	-0.279565	0.770127
H120	H	2.062856	0.220435	1.270127
N121	N	1.386632	-0.927576	0.637699
N122	N	1.886632	-0.427576	1.137699
H123	H	1.427060	-0.963645	0.688691
H124	H	1.927060	-0.463645	1.188691
H125	H	1.335746	-0.963718	0.597148
H126	H	1.835746	-0.463718	1.097148
H127	H	1.079700	-0.605184	0.800576
H128	H	1.579700	-0.105184	1.300576
N129	N	0.758263	-0.508358	0.672743
N130	N	1.258263	-0.008358	1.172743
H131	H	0.732845	-0.493102	0.743877
H132	H	1.232845	0.006898	1.243877
H133	H	0.728227	-0.565545	0.656911
H134	H	1.228227	-0.065545	1.156911
N135	N	1.780845	-0.184028	0.904459
N136	N	2.280845	0.315972	1.404459
H137	H	1.770116	-0.192142	0.827140
H138	H	2.270116	0.307858	1.327140
H139	H	1.855037	-0.197020	0.924481
H140	H	2.355037	0.302980	1.424481
H141	H	0.880633	-0.605207	0.800605
H142	H	1.380633	-0.105207	1.300605
N143	N	0.886195	-0.290641	0.385270
N144	N	1.386195	0.209359	0.885270
H145	H	0.807844	-0.298757	0.395961
H146	H	1.307844	0.201243	0.895961
H147	H	0.904526	-0.303559	0.311037
H148	H	1.404526	0.196441	0.811037
H149	H	1.098857	-0.304705	0.403903
H150	H	1.598857	0.195295	0.903903
H151	H	1.364624	-0.498110	1.137947
H152	H	1.864624	0.001890	1.637947
N153	N	1.345897	-0.512255	0.925263
N154	N	1.845897	-0.012255	1.425263
H155	H	1.301164	-0.546018	0.978804
H156	H	1.801164	-0.046018	1.478804
H157	H	1.386159	-0.550848	0.882189
H158	H	1.886159	-0.050848	1.382189
