data_functionalizedCrystal
_audit_creation_method	'MofGen! by Chris Wilmer'
_symmetry_space_group_name_H-M	'P1'
_symmetry_Int_Tables_number	1
_symmetry_cell_setting	triclinic
loop_
_symmetry_equiv_pos_as_xyz
  x,y,z
_cell_length_a	10.723024
_cell_length_b	10.723024
_cell_length_c	13.448316
_cell_angle_alpha	89.987944
_cell_angle_beta	90.000186
_cell_angle_gamma	95.532131
loop_
_atom_site_label
_atom_site_type_symbol
_atom_site_fract_x
_atom_site_fract_y
_atom_site_fract_z
O1	O	1.657180	-0.175042	0.082684
O2	O	1.294027	-0.191796	0.082687
O3	O	1.483980	-0.001843	0.082681
O4	O	1.467227	-0.364995	0.082691
O5	O	1.483981	-0.001807	-0.082703
O6	O	1.294028	-0.191759	-0.082696
O7	O	1.657181	-0.175006	-0.082700
Cu8	Cu	1.475604	-0.183379	-0.097799
Cu9	Cu	1.475604	-0.183422	0.097787
O10	O	1.467228	-0.364959	-0.082693
C11	C	1.247528	-0.190558	-0.000004
C12	C	1.108974	-0.186911	-0.000003
C13	C	1.482762	0.044675	-0.000011
C14	C	1.479114	0.183229	-0.000008
C15	C	0.917217	-0.073603	-0.000004
C16	C	1.060420	-0.077371	-0.000006
C17	C	1.585401	0.258212	-0.000008
C18	C	1.581634	0.401415	-0.000006
C19	C	1.703680	-0.176243	-0.000006
C20	C	1.842234	-0.179891	-0.000001
N21	N	1.475614	-0.183349	-0.235363
C22	C	1.468447	0.588523	-0.000002
C23	C	1.472094	0.449969	-0.000004
N24	N	1.475604	-0.183443	0.235351
C25	C	1.559884	-0.099419	0.712566
C26	C	1.559878	-0.099432	0.608463
C27	C	1.475607	-0.183381	0.556432
C28	C	1.391328	-0.267315	0.608510
C29	C	1.391329	-0.267295	0.712611
C30	C	1.391334	-0.267351	0.391530
C31	C	1.391334	-0.267373	0.287422
C32	C	1.559882	-0.099488	0.287382
C33	C	1.559884	-0.099468	0.391483
C34	C	1.475606	-0.183404	0.443554
H35	H	0.875395	0.020182	-0.000022
H36	H	1.044549	-0.277906	0.000004
H37	H	1.322702	-0.335697	0.433923
H38	H	1.628504	-0.031145	0.244980
H39	H	1.385328	0.225051	-0.000001
H40	H	1.628496	-0.031089	0.566068
H41	H	0.884056	-0.273677	-0.000004
C42	C	1.298638	-0.359622	0.769889
H43	H	1.248456	-0.409631	0.723994
H44	H	1.246405	-0.314145	0.810487
H45	H	1.343873	-0.412070	0.810513
C46	C	1.712103	0.201726	-0.000013
H47	H	1.698013	0.112887	-0.000021
H48	H	1.758233	0.228701	0.057658
H49	H	1.758224	0.228732	-0.057695
H50	H	1.628509	-0.031117	0.433846
H51	H	1.628512	-0.031063	0.754923
H52	H	1.124853	0.013619	-0.000003
C53	C	1.349160	0.362948	-0.000004
H54	H	1.279948	0.411988	-0.000009
H55	H	1.345840	0.311567	0.057666
H56	H	1.345842	0.311609	-0.057687
C57	C	1.704559	0.488449	-0.000001
H58	H	1.685901	0.573279	0.000009
H59	H	1.751813	0.472906	-0.057671
H60	H	1.751797	0.472868	0.057682
H61	H	1.322710	-0.335732	0.245063
H62	H	1.322707	-0.335663	0.566141
