data_functionalizedCrystal
_audit_creation_method	'MofGen! by Chris Wilmer'
_symmetry_space_group_name_H-M	'P1'
_symmetry_Int_Tables_number	1
_symmetry_cell_setting	triclinic
loop_
_symmetry_equiv_pos_as_xyz
  x,y,z
_cell_length_a	10.489741
_cell_length_b	10.489741
_cell_length_c	8.965430
_cell_angle_alpha	90.001157
_cell_angle_beta	90.000707
_cell_angle_gamma	95.460826
loop_
_atom_site_label
_atom_site_type_symbol
_atom_site_fract_x
_atom_site_fract_y
_atom_site_fract_z
O1	O	0.179958	-1.694053	-0.123946
O2	O	0.196851	-1.322858	-0.123969
O3	O	0.002807	-1.516902	-0.123948
O4	O	0.374003	-1.500009	-0.123967
O5	O	0.002820	-1.516886	0.124130
O6	O	0.196864	-1.322841	0.124110
O7	O	0.179971	-1.694037	0.124133
Cu8	Cu	0.188419	-1.508438	0.146773
Cu9	Cu	0.188404	-1.508457	-0.146609
O10	O	0.374016	-1.499993	0.124112
C11	C	-0.044718	-1.515618	0.000090
C12	C	-0.186348	-1.511801	0.000087
C13	C	0.195582	-1.275318	0.000067
C14	C	0.191765	-1.133688	0.000059
C15	C	-0.254488	-1.388336	0.000069
C16	C	-0.346604	-1.446652	0.122388
C17	C	-0.346591	-1.446697	-0.122198
C18	C	-0.276599	-1.570167	0.122508
C19	C	-0.276576	-1.570195	-0.122189
C20	C	-0.368665	-1.628600	0.000161
C21	C	0.181241	-1.741577	0.000093
C22	C	0.185058	-1.883206	0.000092
C23	C	0.421541	-1.501277	0.000070
C24	C	0.563170	-1.505094	0.000063
N25	N	0.188429	-1.508433	0.353122
C26	C	0.068300	-1.065548	0.000079
C27	C	0.126617	-0.973430	-0.122237
C28	C	0.126659	-0.973447	0.122349
C29	C	0.250133	-1.043435	-0.122358
C30	C	0.250158	-1.043462	0.122338
C31	C	0.308564	-0.951371	-0.000007
N32	N	0.188384	-1.508471	-0.352958
C33	C	0.278138	-1.418666	0.450418
C34	C	0.303949	-1.534163	0.549838
C35	C	0.162629	-1.392986	0.549830
C36	C	0.214298	-1.623988	0.450352
C37	C	0.072927	-1.482735	0.450336
C38	C	0.098690	-1.598314	0.549711
H39	H	-0.204837	-1.286824	0.000185
C40	C	-0.069677	-0.989810	0.261701
C41	C	0.056123	-0.931618	0.261953
H42	H	-0.113224	-0.963993	0.347886
H43	H	-0.112702	-0.964665	0.174855
H44	H	-0.068417	-1.080240	0.262217
H45	H	0.054863	-0.841188	0.261426
H46	H	0.099159	-0.956755	0.348822
C47	C	0.321939	-1.226951	0.305607
C48	C	0.380637	-1.316283	0.391544
H49	H	0.385220	-1.163747	0.269268
H50	H	0.278558	-1.269264	0.223905
H51	H	0.262244	-1.187245	0.365379
H52	H	0.440325	-1.355997	0.331768
H53	H	0.424039	-1.273966	0.473258
C54	C	0.262028	-1.837030	0.512191
C55	C	0.243890	-1.755843	0.391629
H56	H	0.280292	-1.918430	0.475932
H57	H	0.331605	-1.801179	0.571245
H58	H	0.186475	-1.846555	0.571146
H59	H	0.319447	-1.746310	0.332679
H60	H	0.174307	-1.791702	0.332549
C61	C	-0.065973	-1.764650	0.487515
C62	C	-0.003752	-1.700925	0.608210
H63	H	-0.129205	-1.828004	0.523636
H64	H	-0.105623	-1.704844	0.427873
H65	H	-0.005286	-1.804340	0.429196
H66	H	-0.064437	-1.661227	0.666524
H67	H	0.035898	-1.760741	0.667877
H68	H	0.410168	-0.901947	-0.000079
C69	C	0.529603	-1.469405	0.558748
C70	C	0.435776	-1.563542	0.608856
H71	H	0.610987	-1.487534	0.595189
H72	H	0.530802	-1.468837	0.452816
H73	H	0.510661	-1.388001	0.594281
H74	H	0.454713	-1.644945	0.573314
H75	H	0.434580	-1.564123	0.714810
C76	C	-0.271161	-1.576378	0.390127
C77	C	-0.234986	-1.640618	0.262274
H78	H	-0.245475	-1.619875	0.476410
H79	H	-0.231038	-1.491298	0.389768
H80	H	-0.361510	-1.574415	0.390923
H81	H	-0.144635	-1.642573	0.261473
H82	H	-0.275104	-1.725721	0.262634
H83	H	-0.377610	-1.394404	0.225794
H84	H	-0.377561	-1.394447	-0.225620
C85	C	-0.069715	-0.989729	-0.261602
C86	C	0.056091	-0.931554	-0.261825
H87	H	-0.113260	-0.963872	-0.347770
H88	H	-0.068471	-1.080148	-0.262160
H89	H	-0.112741	-0.964599	-0.174732
H90	H	0.099120	-0.956692	-0.348690
H91	H	0.054854	-0.841115	-0.261282
H92	H	-0.418089	-1.730204	0.000235
C93	C	-0.149262	-1.558300	-0.345179
C94	C	-0.234656	-1.640668	-0.261784
H95	H	-0.123375	-1.601804	-0.431362
H96	H	-0.190229	-1.485348	-0.374543
H97	H	-0.076259	-1.531903	-0.286192
H98	H	-0.307664	-1.667057	-0.320767
H99	H	-0.193690	-1.713643	-0.232422
C100	C	0.323470	-1.218227	-0.260908
C101	C	0.320583	-1.085050	-0.262125
H102	H	0.366953	-1.243918	-0.347199
H103	H	0.367042	-1.242749	-0.174170
H104	H	0.238369	-1.258331	-0.260553
H105	H	0.405684	-1.044945	-0.262469
H106	H	0.277014	-1.060515	-0.348885
C107	C	-0.085663	-1.332282	0.441394
C108	C	-0.058861	-1.453310	0.391269
H109	H	-0.167020	-1.314105	0.404917
H110	H	-0.086416	-1.331308	0.547326
H111	H	-0.021737	-1.269351	0.405911
H112	H	-0.122782	-1.516242	0.426762
H113	H	-0.058119	-1.454294	0.285315
H114	H	0.302361	-1.074502	0.225749
H115	H	-0.033196	-1.115238	-0.000069
H116	H	0.140828	-1.295338	0.593530
