data_functionalizedCrystal
_audit_creation_method	'MofGen! by Chris Wilmer'
_symmetry_space_group_name_H-M	'P1'
_symmetry_Int_Tables_number	1
_symmetry_cell_setting	triclinic
loop_
_symmetry_equiv_pos_as_xyz
  x,y,z
_cell_length_a	14.044191
_cell_length_b	14.044220
_cell_length_c	13.101018
_cell_angle_alpha	86.333450
_cell_angle_beta	93.666878
_cell_angle_gamma	93.190327
loop_
_atom_site_label
_atom_site_type_symbol
_atom_site_fract_x
_atom_site_fract_y
_atom_site_fract_z
O1	O	1.281982	0.225382	0.085160
O2	O	1.615316	0.558716	0.418494
O3	O	1.948649	0.892049	0.751827
O4	O	1.005311	0.217069	0.085174
O5	O	1.338644	0.550402	0.418507
O6	O	1.671977	0.883736	0.751840
O7	O	1.139493	0.082890	0.085163
O8	O	1.472827	0.416223	0.418496
O9	O	1.806160	0.749557	0.751829
O10	O	1.147800	0.359561	0.085171
O11	O	1.481133	0.692895	0.418505
O12	O	1.814466	1.026228	0.751838
O13	O	1.129855	0.092526	-0.085267
O14	O	1.463188	0.425859	0.248066
O15	O	1.796521	0.759192	0.581400
O16	O	0.995672	0.226704	-0.085256
O17	O	1.329005	0.560038	0.248077
O18	O	1.662338	0.893371	0.581411
O19	O	1.272343	0.235018	-0.085269
O20	O	1.605677	0.568351	0.248064
O21	O	1.939010	0.901684	0.581398
Zn22	Zn	1.132477	0.232391	-0.112322
Zn23	Zn	1.465811	0.565724	0.221011
Zn24	Zn	1.799144	0.899058	0.554345
Zn25	Zn	1.145177	0.219696	0.112226
Zn26	Zn	1.478510	0.553029	0.445560
Zn27	Zn	1.811843	0.886363	0.778893
O28	O	1.138161	0.369197	-0.085258
O29	O	1.471494	0.702530	0.248075
O30	O	1.804827	1.035863	0.581408
C31	C	0.964869	0.218250	-0.000040
C32	C	1.298203	0.551583	0.333294
C33	C	1.631536	0.884917	0.666627
C34	C	0.858726	0.207402	-0.000035
C35	C	1.192060	0.540736	0.333299
C36	C	1.525393	0.874069	0.666632
C37	C	0.613268	0.264503	-0.000043
C38	C	0.946601	0.597837	0.333290
C39	C	1.279934	0.931170	0.666624
C40	C	0.664393	0.187587	-0.000044
C41	C	0.997726	0.520921	0.333290
C42	C	1.331060	0.854254	0.666623
C43	C	0.772530	0.198615	-0.000039
C44	C	1.105863	0.531948	0.333295
C45	C	1.439197	0.865282	0.666628
C46	C	0.505121	0.253477	-0.000048
C47	C	0.838454	0.586810	0.333285
C48	C	1.171787	0.920144	0.666619
C49	C	1.131038	0.052086	-0.000051
C50	C	1.464372	0.385419	0.333282
C51	C	1.797705	0.718753	0.666616
C52	C	1.120194	-0.054057	-0.000047
C53	C	1.453527	0.279276	0.333286
C54	C	1.786861	0.612609	0.666619
C55	C	1.312785	0.233837	-0.000054
C56	C	1.646118	0.567170	0.333280
C57	C	1.979452	0.900503	0.666613
C58	C	1.418928	0.244684	-0.000052
C59	C	1.752261	0.578017	0.333281
C60	C	2.085595	0.911351	0.666615
N61	N	1.123817	0.241055	-0.265570
N62	N	1.457150	0.574388	0.067763
N63	N	1.790484	0.907722	0.401096
C64	C	1.146616	0.400001	-0.000042
C65	C	1.479949	0.733334	0.333291
C66	C	1.813283	1.066668	0.666624
C67	C	1.157461	0.506144	-0.000039
C68	C	1.490794	0.839477	0.333294
C69	C	1.824127	1.172810	0.666627
C70	C	1.177287	0.700482	-0.000045
C71	C	1.510620	1.033816	0.333289
C72	C	1.843953	1.367149	0.666622
C73	C	1.100372	0.751610	-0.000042
C74	C	1.433706	1.084943	0.333291
C75	C	1.767039	1.418277	0.666625
C76	C	1.111404	0.859747	-0.000045
C77	C	1.444737	1.193080	0.333288
C78	C	1.778070	1.526413	0.666622
C79	C	1.166257	0.592336	-0.000042
C80	C	1.499590	0.925669	0.333292
C81	C	1.832923	1.259002	0.666625
C82	C	1.165621	0.199233	-0.525483
C83	C	1.498954	0.532566	-0.192150
C84	C	1.832288	0.865900	0.141184
C85	C	1.112043	0.252844	-0.474606
C86	C	1.445376	0.586177	-0.141273
C87	C	1.778709	0.919511	0.192061
C88	C	1.118596	0.246283	-0.358288
C89	C	1.451929	0.579616	-0.024954
C90	C	1.785262	0.912949	0.308379
C91	C	1.159069	0.205793	-0.641812
C92	C	1.492403	0.539126	-0.308479
C93	C	1.825736	0.872460	0.024855
N94	N	1.153844	0.211025	0.265475
N95	N	1.487177	0.544358	0.598808
N96	N	1.820511	0.877692	0.932141
H97	H	0.650709	0.338630	-0.000038
H98	H	0.984042	0.671963	0.333296
H99	H	1.317376	1.005296	0.666629
H100	H	1.026239	0.714169	-0.000039
H101	H	1.359572	1.047502	0.333294
H102	H	1.692905	1.380835	0.666628
O103	O	1.265680	0.745243	0.000079
O104	O	1.599013	1.078576	0.333412
O105	O	1.932347	1.411910	0.666745
C106	C	1.281636	0.797702	0.088353
C107	C	1.614970	1.131035	0.421687
C108	C	1.948303	1.464368	0.755020
H109	H	1.210115	0.814348	0.117793
H110	H	1.543449	1.147681	0.451126
H111	H	1.876782	1.481015	0.784460
H112	H	1.323967	0.867318	0.068490
H113	H	1.657300	1.200652	0.401824
H114	H	1.990633	1.533985	0.735157
H115	H	1.323729	0.753860	0.150157
H116	H	1.657063	1.087194	0.483490
H117	H	1.990396	1.420527	0.816823
H118	H	1.061252	0.303670	-0.518407
H119	H	1.394586	0.637003	-0.185073
H120	H	1.727919	0.970336	0.148260
H121	H	1.216410	0.148412	-0.481687
H122	H	1.549743	0.481745	-0.148354
H123	H	1.883076	0.815079	0.184979
H124	H	0.626953	0.113451	0.000026
H125	H	0.960287	0.446784	0.333360
H126	H	1.293620	0.780117	0.666693
