data_functionalizedCrystal
_audit_creation_method	'MofGen! by Chris Wilmer'
_symmetry_space_group_name_H-M	'P1'
_symmetry_Int_Tables_number	1
_symmetry_cell_setting	triclinic
loop_
_symmetry_equiv_pos_as_xyz
  x,y,z
_cell_length_a	14.971486
_cell_length_b	10.654550
_cell_length_c	13.448316
_cell_angle_alpha	90.002477
_cell_angle_beta	90.000121
_cell_angle_gamma	84.049516
loop_
_atom_site_label
_atom_site_type_symbol
_atom_site_fract_x
_atom_site_fract_y
_atom_site_fract_z
O1	O	1.187836	0.163654	0.082575
O2	O	0.927543	0.183253	0.082602
O3	O	1.063674	-0.009350	0.082584
O4	O	1.051705	0.356257	0.082593
O5	O	1.063660	-0.009352	-0.082800
O6	O	0.927529	0.183251	-0.082782
O7	O	1.187822	0.163652	-0.082809
Cu8	Cu	1.057674	0.173451	-0.097896
Cu9	Cu	1.057691	0.173454	0.097689
O10	O	1.051691	0.356255	-0.082791
C11	C	0.894206	0.182375	-0.000087
C12	C	0.794895	0.179749	-0.000077
C13	C	1.062788	-0.056139	-0.000107
C14	C	1.060159	-0.195555	-0.000103
C15	C	0.738285	0.292898	-0.000075
C16	C	0.644972	0.290422	-0.000090
C17	C	0.608271	0.174797	-0.000099
C18	C	0.664888	0.061639	-0.000104
C19	C	0.758199	0.064116	-0.000096
C20	C	0.470397	0.056485	-0.000117
C21	C	0.377080	0.054007	-0.000123
C22	C	0.357171	0.282791	-0.000112
C23	C	0.450482	0.285268	-0.000104
C24	C	0.507092	0.172110	-0.000106
C25	C	1.140311	-0.275900	-0.000114
C26	C	1.137835	-0.406894	-0.000107
C27	C	0.975048	-0.377185	-0.000081
C28	C	0.977525	-0.246193	-0.000082
C29	C	1.222945	-0.225262	-0.000136
C30	C	1.303104	-0.305609	-0.000148
C31	C	1.300628	-0.436603	-0.000141
C32	C	1.217993	-0.487250	-0.000121
C33	C	1.221159	0.164530	-0.000118
C34	C	1.320470	0.167156	-0.000122
C35	C	1.052577	0.403044	-0.000098
C36	C	1.055206	0.542460	-0.000096
N37	N	1.057670	0.173449	-0.235461
C38	C	1.112387	0.249745	-0.287501
C39	C	1.112398	0.249740	-0.391604
C40	C	1.057686	0.173444	-0.443665
C41	C	1.002967	0.097139	-0.391618
C42	C	1.002961	0.097139	-0.287517
C43	C	1.002981	0.097148	-0.608598
C44	C	1.002985	0.097150	-0.712707
C45	C	1.112418	0.249749	-0.712685
C46	C	1.112412	0.249748	-0.608584
C47	C	1.057691	0.173445	-0.556544
N48	N	1.057703	0.173446	0.235253
H49	H	0.768160	0.387053	-0.000067
H50	H	1.224970	-0.118601	-0.000145
H51	H	0.480361	0.379420	-0.000087
O52	O	1.165423	0.323923	-0.442269
C53	C	1.111416	0.409503	-0.502474
H54	H	1.044812	0.370263	-0.518074
H55	H	1.098302	0.503878	-0.462357
C56	C	1.241911	0.476704	-0.582195
C57	C	1.160110	0.428503	-0.601363
H58	H	1.271949	0.488429	-0.643192
H59	H	1.278298	0.419051	-0.541631
H60	H	1.230971	0.555344	-0.548762
H61	H	1.171052	0.349857	-0.634783
H62	H	1.123727	0.486144	-0.641934
O63	O	0.525354	-0.053468	0.000061
C64	C	0.508588	-0.123669	0.085702
H65	H	0.477102	-0.057414	0.145563
H66	H	0.460638	-0.196437	0.066332
C67	C	0.636249	-0.272929	0.051030
C68	C	0.597584	-0.191552	0.124556
H69	H	0.691144	-0.314808	0.074996
H70	H	0.647543	-0.225637	-0.006670
H71	H	0.596282	-0.333558	0.034896
H72	H	0.637546	-0.130916	0.140681
H73	H	0.586298	-0.238836	0.182260
O74	O	0.894727	-0.426231	-0.000202
C75	C	0.845818	-0.385214	-0.085861
H76	H	0.870755	-0.294329	-0.114420
H77	H	0.855702	-0.460999	-0.145841
C78	C	0.714724	-0.472434	-0.024754
C79	C	0.745348	-0.360801	-0.059825
H80	H	0.652750	-0.457379	-0.008696
H81	H	0.747676	-0.500072	0.032955
H82	H	0.722969	-0.535576	-0.074743
H83	H	0.737114	-0.297666	-0.009832
H84	H	0.712392	-0.333151	-0.117525
H85	H	1.215983	-0.593916	-0.000105
H86	H	1.156934	0.311882	-0.245120
O87	O	1.165602	0.323687	-0.557897
C88	C	1.226170	0.247253	-0.497693
H89	H	1.197764	0.153999	-0.482114
H90	H	1.293292	0.228197	-0.537800
C91	C	1.274917	0.430008	-0.417932
C92	C	1.240026	0.315476	-0.398790
H93	H	1.283468	0.472092	-0.356926
H94	H	1.234114	0.481504	-0.458495
H95	H	1.330849	0.414111	-0.451357
H96	H	1.184090	0.331375	-0.365378
H97	H	1.280820	0.263984	-0.358220
O98	O	1.165476	0.324052	-0.763190
C99	C	1.141488	0.451465	-0.737735
H100	H	1.069432	0.463435	-0.709124
H101	H	1.188551	0.480732	-0.677305
C102	C	1.237547	0.520237	-0.865351
C103	C	1.149043	0.534941	-0.830219
H104	H	1.242211	0.571732	-0.922397
H105	H	1.253711	0.434397	-0.882498
H106	H	1.276756	0.544625	-0.814983
H107	H	1.109838	0.510539	-0.880581
H108	H	1.132873	0.620780	-0.813082
H109	H	1.370382	-0.264362	-0.000139
H110	H	0.912258	-0.180773	-0.000074
O111	O	0.949819	0.022912	-0.763123
C112	C	0.901511	-0.044417	-0.694867
H113	H	0.938488	-0.051656	-0.620657
H114	H	0.831619	0.007144	-0.683797
C115	C	0.847790	-0.168944	-0.826650
C116	C	0.893210	-0.177845	-0.735507
H117	H	0.842666	-0.251247	-0.851719
H118	H	0.880333	-0.123581	-0.872637
H119	H	0.789551	-0.125972	-0.817413
H120	H	0.951451	-0.220802	-0.744747
H121	H	0.860677	-0.223219	-0.689522
H122	H	0.958422	0.035012	-0.566230
H123	H	0.598884	0.382560	-0.000088
H124	H	0.634998	-0.032505	-0.000125
O125	O	0.949723	0.022994	-0.237116
C126	C	0.901449	-0.044370	-0.305386
H127	H	0.896551	0.007608	-0.379591
H128	H	0.937691	-0.142860	-0.316461
C129	C	0.812393	-0.118965	-0.173623
C130	C	0.806371	-0.055118	-0.264761
H131	H	0.753745	-0.125601	-0.148563
H132	H	0.844918	-0.073585	-0.127627
H133	H	0.842598	-0.201033	-0.182865
H134	H	0.776176	0.026953	-0.255516
H135	H	0.773838	-0.100485	-0.310755
H136	H	0.311074	0.374929	-0.000114
H137	H	0.347201	-0.040145	-0.000132
H138	H	0.804290	-0.028022	-0.000096
H139	H	0.958424	0.035012	-0.434015
H140	H	1.365897	-0.502018	-0.000141
