data_functionalizedCrystal
_audit_creation_method	'MofGen! by Chris Wilmer'
_symmetry_space_group_name_H-M	'P1'
_symmetry_Int_Tables_number	1
_symmetry_cell_setting	triclinic
loop_
_symmetry_equiv_pos_as_xyz
  x,y,z
_cell_length_a	15.995350
_cell_length_b	15.072220
_cell_length_c	15.995350
_cell_angle_alpha	90.001101
_cell_angle_beta	96.507625
_cell_angle_gamma	90.008851
loop_
_atom_site_label
_atom_site_type_symbol
_atom_site_fract_x
_atom_site_fract_y
_atom_site_fract_z
O1	O	1.110996	0.073703	-0.107921
O2	O	1.610996	0.573703	0.392079
O3	O	0.867221	0.073721	-0.121249
O4	O	1.367221	0.573721	0.378751
O5	O	0.995772	0.073710	0.007303
O6	O	1.495772	0.573710	0.507303
O7	O	0.982444	0.073713	-0.236472
O8	O	1.482444	0.573713	0.263528
O9	O	0.995740	-0.073855	0.007296
O10	O	1.495740	0.426145	0.507296
O11	O	0.867189	-0.073844	-0.121256
O12	O	1.367189	0.426156	0.378744
O13	O	1.110964	-0.073862	-0.107928
O14	O	1.610964	0.426138	0.392072
Zn15	Zn	0.989071	-0.097283	-0.114593
Zn16	Zn	1.489071	0.402717	0.385407
Zn17	Zn	0.989113	0.097141	-0.114584
Zn18	Zn	1.489113	0.597141	0.385416
O19	O	0.982413	-0.073852	-0.236480
O20	O	1.482413	0.426148	0.263520
C21	C	0.836010	-0.000060	-0.120701
C22	C	1.336010	0.499940	0.379299
C23	C	0.743060	-0.000053	-0.119049
C24	C	1.243060	0.499947	0.380951
N25	N	0.989049	-0.229971	-0.114599
N26	N	1.489049	0.270029	0.385401
C27	C	0.405312	-0.000071	-0.113117
C28	C	0.905312	0.499929	0.386883
C29	C	0.452746	-0.000401	-0.021565
C30	C	0.952746	0.499599	0.478435
C31	C	0.549436	-0.000063	-0.023217
C32	C	1.049436	0.499937	0.476783
C33	C	0.572873	-0.000063	-0.116060
C34	C	1.072873	0.499937	0.383940
C35	C	0.531804	0.084201	-0.161212
C36	C	1.031804	0.584201	0.338788
C37	C	0.435168	0.084266	-0.158912
C38	C	0.935168	0.584266	0.341088
C39	C	0.434793	-0.083543	-0.160812
C40	C	0.934793	0.416457	0.339188
C41	C	0.531738	-0.084651	-0.160790
C42	C	1.031738	0.415349	0.339210
C43	C	0.667570	-0.000055	-0.117727
C44	C	1.167570	0.499945	0.382273
C45	C	0.310614	-0.000073	-0.111452
C46	C	0.810614	0.499927	0.388548
C47	C	0.989112	-0.589173	-0.114580
C48	C	1.489112	-0.089173	0.385420
C49	C	0.920095	-0.551560	-0.183135
C50	C	1.420095	-0.051560	0.316865
C51	C	0.920254	-0.448735	-0.183385
C52	C	1.420254	0.051265	0.316615
C53	C	0.989080	-0.410969	-0.114590
C54	C	1.489080	0.089031	0.385410
C55	C	1.076445	-0.448266	-0.133671
C56	C	1.576445	0.051734	0.366329
C57	C	1.076058	-0.551124	-0.134159
C58	C	1.576058	-0.051124	0.365841
C59	C	0.971542	-0.551272	-0.026741
C60	C	1.471542	-0.051272	0.473259
C61	C	0.969537	-0.448409	-0.027327
C62	C	1.469537	0.051591	0.472673
C63	C	0.989067	-0.310255	-0.114593
C64	C	1.489067	0.189745	0.385407
C65	C	0.989130	-0.689886	-0.114579
C66	C	1.489130	-0.189886	0.385421
C67	C	1.142175	-0.000080	-0.108476
C68	C	1.642175	0.499920	0.391524
C69	C	1.235125	-0.000081	-0.110127
C70	C	1.735125	0.499919	0.389873
C71	C	0.995205	-0.000070	0.038494
C72	C	1.495205	0.499930	0.538494
C73	C	0.993553	-0.000065	0.131444
C74	C	1.493553	0.499935	0.631444
N75	N	0.989142	0.229830	-0.114571
N76	N	1.489142	0.729830	0.385429
C77	C	0.982980	-0.000069	-0.267671
C78	C	1.482980	0.499931	0.232329
C79	C	0.984631	-0.000069	-0.360621
C80	C	1.484631	0.499931	0.139379
C81	C	0.987621	-0.000068	0.469192
C82	C	1.487621	0.499932	0.969192
C83	C	0.896069	0.000270	0.421758
C84	C	1.396069	0.500270	0.921758
C85	C	0.897721	-0.000063	0.325068
C86	C	1.397721	0.499937	0.825068
C87	C	0.990564	-0.000066	0.301631
C88	C	1.490564	0.499934	0.801631
C89	C	1.035702	-0.084335	0.342705
C90	C	1.535702	0.415665	0.842705
C91	C	1.033402	-0.084405	0.439341
C92	C	1.533402	0.415595	0.939341
C93	C	1.035330	0.083404	0.439707
C94	C	1.535330	0.583404	0.939707
C95	C	1.035308	0.084518	0.342761
C96	C	1.535308	0.584518	0.842761
C97	C	0.992231	-0.000068	0.206934
C98	C	1.492231	0.499932	0.706934
C99	C	0.985956	-0.000072	0.563890
C100	C	1.485956	0.499928	1.063890
H101	H	0.577852	-0.060467	0.012275
H102	H	1.077852	0.439533	0.512275
H103	H	0.905271	-0.424032	-0.012846
H104	H	1.405271	0.075968	0.487154
Cl105	Cl	0.937187	-0.591433	-0.283213
Cl106	Cl	1.437187	-0.091433	0.216787
H107	H	1.092297	-0.422498	-0.197002
H108	H	1.592297	0.077502	0.302998
H109	H	0.854945	-0.576317	-0.171953
H110	H	1.354945	-0.076317	0.328047
H111	H	0.861974	-0.060568	0.297200
H112	H	1.361974	0.439432	0.797200
Cl113	Cl	0.842937	0.093200	0.281187
Cl114	Cl	1.342937	0.593200	0.781187
Cl115	Cl	0.403073	-0.182155	-0.114603
Cl116	Cl	0.903073	0.317845	0.385397
H117	H	0.931473	-0.424121	-0.248570
H118	H	1.431473	0.075879	0.251430
Cl119	Cl	0.555450	-0.092508	-0.265324
Cl120	Cl	1.055450	0.407492	0.234676
H121	H	0.433165	0.059694	0.014865
H122	H	0.933165	0.559694	0.514865
H123	H	1.091540	-0.575106	-0.198219
H124	H	1.591540	-0.075106	0.301781
Cl125	Cl	1.042115	-0.408737	0.055129
Cl126	Cl	1.542115	0.091263	0.555129
Cl127	Cl	0.987259	-0.181153	0.298886
Cl128	Cl	1.487259	0.318847	0.798886
H129	H	0.434211	-0.060830	0.015027
H130	H	0.934211	0.439170	0.515027
H131	H	0.559041	-0.146989	-0.127829
H132	H	1.059041	0.353011	0.372171
H133	H	1.129019	-0.576003	-0.086195
H134	H	1.629019	-0.076003	0.413805
H135	H	1.103014	0.089603	0.327400
H136	H	1.603014	0.589603	0.827400
H137	H	0.909219	-0.577258	-0.008392
H138	H	1.409219	-0.077258	0.491608
H139	H	1.102831	0.083968	0.471468
H140	H	1.602831	0.583968	0.971468
Cl141	Cl	1.157634	-0.410500	-0.058632
Cl142	Cl	1.657634	0.089500	0.441368
H143	H	1.021872	-0.575595	0.024275
H144	H	1.521872	-0.075595	0.524275
H145	H	0.859490	0.060701	0.440293
H146	H	1.359490	0.560701	0.940293
H147	H	0.859626	-0.059819	0.441349
H148	H	1.359626	0.440181	0.941349
H149	H	0.577307	0.060446	0.012521
H150	H	1.077307	0.560446	0.512521
H151	H	1.000460	-0.147395	0.457639
H152	H	1.500460	0.352605	0.957639
H153	H	1.103910	-0.087471	0.328579
H154	H	1.603910	0.412529	0.828579
Cl155	Cl	0.406918	0.181515	-0.108065
Cl156	Cl	0.906918	0.681515	0.391935
Cl157	Cl	0.989129	0.182016	0.471410
Cl158	Cl	1.489129	0.682016	0.971410
H159	H	1.100617	-0.088231	0.471588
H160	H	1.600617	0.411769	0.971588
H161	H	0.402920	0.088090	-0.226128
H162	H	0.902920	0.588090	0.273872
H163	H	0.545929	0.087335	-0.229421
H164	H	1.045929	0.587335	0.270579
H165	H	1.002306	0.146857	0.315516
H166	H	1.502306	0.646857	0.815516
H167	H	0.560191	0.146912	-0.129845
H168	H	1.060191	0.646912	0.370155
H169	H	0.403031	-0.084113	-0.228312
H170	H	0.903031	0.415887	0.271688
H171	H	0.855314	-0.423519	-0.172016
H172	H	1.355314	0.076481	0.327984
