data_functionalizedCrystal
_audit_creation_method	'MofGen! by Chris Wilmer'
_symmetry_space_group_name_H-M	'P1'
_symmetry_Int_Tables_number	1
_symmetry_cell_setting	triclinic
loop_
_symmetry_equiv_pos_as_xyz
  x,y,z
_cell_length_a	11.792241
_cell_length_b	15.944551
_cell_length_c	10.868271
_cell_angle_alpha	89.993912
_cell_angle_beta	89.999893
_cell_angle_gamma	83.846077
loop_
_atom_site_label
_atom_site_type_symbol
_atom_site_fract_x
_atom_site_fract_y
_atom_site_fract_z
O1	O	1.505960	0.115128	-0.102206
O2	O	1.175521	0.126993	-0.102235
O3	O	1.349764	-0.001173	-0.102208
O4	O	1.331717	0.243295	-0.102232
O5	O	1.349750	-0.001178	0.102436
O6	O	1.175507	0.126988	0.102410
O7	O	1.505946	0.115123	0.102439
Zn8	Zn	1.340724	0.121055	0.134916
Zn9	Zn	1.340743	0.121062	-0.134712
O10	O	1.331703	0.243290	0.102413
C11	C	1.133229	0.126245	0.000084
C12	C	1.007234	0.124015	0.000073
C13	C	0.776555	0.119913	0.000109
C14	C	0.904922	0.122192	0.000090
C15	C	1.349008	-0.032473	0.000114
C16	C	1.346761	-0.125729	0.000115
C17	C	1.233389	-0.341098	0.000088
C18	C	1.286028	-0.401880	0.100995
C19	C	1.342698	-0.296474	0.000105
C20	C	1.286068	-0.401858	-0.100769
C21	C	1.338765	-0.461404	0.000090
C22	C	1.395368	-0.356028	0.101095
C23	C	1.395392	-0.356000	-0.100759
C24	C	1.448111	-0.416764	0.000172
C25	C	1.344961	-0.201461	0.000114
C26	C	1.336511	-0.556415	0.000089
C27	C	1.548237	0.115871	0.000118
C28	C	1.674233	0.118102	0.000120
C29	C	1.332459	0.274590	0.000087
C30	C	1.334705	0.367846	0.000079
N31	N	1.340719	0.121050	0.318930
N32	N	1.340756	0.121060	-0.318726
C33	C	1.340737	0.121060	0.569936
C34	C	1.340723	0.121057	0.430259
H35	H	1.239789	-0.422199	0.186295
H36	H	1.142657	-0.308200	0.000181
O37	O	1.230751	-0.425955	-0.202506
C38	C	1.055014	-0.414513	-0.317419
C39	C	1.117540	-0.387146	-0.202174
H40	H	0.963465	-0.383163	-0.317176
H41	H	1.100646	-0.394715	-0.403445
H42	H	1.054628	-0.485980	-0.316911
H43	H	1.117944	-0.315683	-0.202563
H44	H	1.071888	-0.407007	-0.116200
O45	O	1.450675	-0.331700	-0.202394
C46	C	1.608941	-0.264330	-0.281543
C47	C	1.546473	-0.291826	-0.166328
H48	H	1.686392	-0.232071	-0.252424
H49	H	1.637940	-0.322065	-0.339932
H50	H	1.548676	-0.218444	-0.337579
H51	H	1.606672	-0.337693	-0.110196
H52	H	1.517455	-0.234051	-0.108030
O53	O	1.556376	-0.455963	0.000155
C54	C	1.675886	-0.588389	-0.000767
C55	C	1.553218	-0.544110	-0.000763
H56	H	1.673373	-0.659663	-0.001483
H57	H	1.722827	-0.568752	-0.086002
H58	H	1.722277	-0.569524	0.085280
H59	H	1.506730	-0.562953	-0.086752
H60	H	1.506362	-0.563749	0.084529
O61	O	1.450394	-0.331793	0.202946
C62	C	1.514299	-0.216166	0.317177
C63	C	1.451941	-0.243496	0.201796
H64	H	1.515592	-0.144778	0.316274
H65	H	1.468012	-0.235388	0.403099
H66	H	1.605540	-0.248116	0.317536
H67	H	1.360698	-0.211559	0.201319
H68	H	1.498317	-0.224289	0.115927
