data_functionalizedCrystal
_audit_creation_method	'MofGen! by Chris Wilmer'
_symmetry_space_group_name_H-M	'P1'
_symmetry_Int_Tables_number	1
_symmetry_cell_setting	triclinic
loop_
_symmetry_equiv_pos_as_xyz
  x,y,z
_cell_length_a	19.077105
_cell_length_b	12.827892
_cell_length_c	12.827893
_cell_angle_alpha	90.007453
_cell_angle_beta	92.302424
_cell_angle_gamma	87.711903
loop_
_atom_site_label
_atom_site_type_symbol
_atom_site_fract_x
_atom_site_fract_y
_atom_site_fract_z
Zn1	Zn	1.075931	-0.480516	0.655011
Zn2	Zn	1.409265	-0.147182	0.988344
Zn3	Zn	1.742598	0.186151	1.321677
Zn4	Zn	1.075891	-0.655222	0.480269
Zn5	Zn	1.409225	-0.321889	0.813602
Zn6	Zn	1.742558	0.011444	1.146935
Zn7	Zn	0.958262	-0.473466	0.473267
Zn8	Zn	1.291595	-0.140133	0.806601
Zn9	Zn	1.624929	0.193201	1.139934
Zn10	Zn	0.958221	-0.648180	0.647951
Zn11	Zn	1.291554	-0.314847	0.981285
Zn12	Zn	1.624887	0.018486	1.314618
O13	O	1.017076	-0.564346	0.564125
O14	O	1.350410	-0.231013	0.897458
O15	O	1.683743	0.102321	1.230791
O16	O	1.174417	-0.509588	0.637715
O17	O	1.507750	-0.176255	0.971049
O18	O	1.841083	0.157078	1.304382
O19	O	1.060288	-0.631109	0.333104
O20	O	1.393622	-0.297776	0.666437
O21	O	1.726955	0.035558	0.999771
O22	O	0.973905	-0.328167	0.497400
O23	O	1.307238	0.005166	0.830734
O24	O	1.640572	0.338500	1.164067
O25	O	1.174387	-0.637945	0.509333
O26	O	1.507721	-0.304611	0.842666
O27	O	1.841054	0.028722	1.176000
O28	O	1.060356	-0.333346	0.630926
O29	O	1.393690	-0.000013	0.964260
O30	O	1.727023	0.333320	1.297593
O31	O	0.973866	-0.497573	0.327960
O32	O	1.307200	-0.164240	0.661293
O33	O	1.640533	0.169094	0.994627
O34	O	0.859766	-0.490745	0.490555
O35	O	1.193099	-0.157411	0.823888
O36	O	1.526433	0.175922	1.157222
O37	O	0.973835	-0.625942	0.795124
O38	O	1.307168	-0.292609	1.128457
O39	O	1.640501	0.040724	1.461790
O40	O	0.859736	-0.619107	0.618895
O41	O	1.193069	-0.285773	0.952228
O42	O	1.526402	0.047560	1.285561
O43	O	1.060316	-0.502760	0.800310
O44	O	1.393649	-0.169426	1.133644
O45	O	1.726983	0.163907	1.466977
O46	O	1.060248	-0.800522	0.502488
O47	O	1.393581	-0.467189	0.835821
O48	O	1.726915	-0.133856	1.169155
O49	O	0.973796	-0.795348	0.625684
O50	O	1.307129	-0.462015	0.959017
O51	O	1.640463	-0.128682	1.292350
C52	C	0.834213	-0.553397	0.553200
C53	C	1.167547	-0.220064	0.886533
C54	C	1.500880	0.113269	1.219866
C55	C	0.755984	-0.548738	0.548551
C56	C	1.089317	-0.215405	0.881884
C57	C	1.422650	0.117928	1.215217
C58	C	0.719234	-0.613482	0.613081
C59	C	1.052567	-0.280148	0.946415
C60	C	1.385900	0.053185	1.279748
C61	C	0.645729	-0.609091	0.608718
C62	C	0.979062	-0.275757	0.942051
C63	C	1.312395	0.057576	1.275385
C64	C	0.608975	-0.539961	0.539819
C65	C	0.942308	-0.206627	0.873152
C66	C	1.275641	0.126706	1.206485
C67	C	0.645730	-0.475210	0.475286
C68	C	0.979063	-0.141877	0.808619
C69	C	1.312396	0.191456	1.141952
C70	C	0.719233	-0.479597	0.479655
C71	C	1.052567	-0.146264	0.812988
C72	C	1.385900	0.187070	1.146321
C73	C	0.389142	-0.519659	0.519603
C74	C	0.722475	-0.186326	0.852936
C75	C	1.055809	0.147008	1.186269
C76	C	0.315633	-0.515279	0.515236
C77	C	0.648966	-0.181946	0.848569
C78	C	0.982300	0.151387	1.181903
C79	C	0.315637	-0.649159	0.648671
C80	C	0.648970	-0.315825	0.982004
C81	C	0.982304	0.017508	1.315337
C82	C	0.389142	-0.653544	0.653029
C83	C	0.722475	-0.320210	0.986363
C84	C	1.055809	0.013123	1.319696
C85	C	0.425891	-0.588790	0.588500
C86	C	0.759224	-0.255456	0.921833
C87	C	1.092557	0.077877	1.255167
N88	N	0.533841	-0.535473	0.535355
N89	N	0.867174	-0.202140	0.868688
N90	N	1.200507	0.131194	1.202021
N91	N	0.501023	-0.593273	0.592970
N92	N	0.834357	-0.259939	0.926303
N93	N	1.167690	0.073394	1.259637
C94	C	1.017032	-0.835853	0.564103
C95	C	1.350366	-0.502520	0.897437
C96	C	1.683699	-0.169187	1.230770
C97	C	1.017078	-0.952009	0.564133
C98	C	1.350411	-0.618676	0.897467
C99	C	1.683745	-0.285342	1.230800
C100	C	1.059908	-1.006322	0.503246
C101	C	1.393241	-0.672989	0.836579
C102	C	1.726575	-0.339656	1.169912
C103	C	1.059956	-1.126376	0.503275
C104	C	1.393289	-0.793042	0.836608
C105	C	1.726623	-0.459709	1.169942
C106	C	1.200654	-0.575338	0.575093
C107	C	1.533987	-0.242005	0.908426
C108	C	1.867320	0.091328	1.241759
C109	C	1.278883	-0.580023	0.579767
C110	C	1.612216	-0.246689	0.913100
C111	C	1.945550	0.086644	1.246433
C112	C	1.017075	-0.564352	0.836695
C113	C	1.350409	-0.231019	1.170028
C114	C	1.683742	0.102315	1.503361
C115	C	1.017075	-0.564354	0.952848
C116	C	1.350408	-0.231021	1.286181
C117	C	1.683741	0.102312	1.619514
C118	C	1.017140	-0.291780	0.564170
C119	C	1.350473	0.041554	0.897503
C120	C	1.683806	0.374887	1.230836
C121	C	1.017167	-0.175628	0.564189
C122	C	1.350500	0.157705	0.897522
C123	C	1.683833	0.491039	1.230856
C124	C	0.974285	-0.625304	1.002066
C125	C	1.307619	-0.291970	1.335400
C126	C	1.640952	0.041363	1.668733
C127	C	0.974284	-0.625308	1.122116
C128	C	1.307617	-0.291974	1.455450
C129	C	1.640950	0.041359	1.788783
C130	C	1.017072	-0.564363	1.292614
C131	C	1.350406	-0.231030	1.625948
C132	C	1.683739	0.102303	1.959281
C133	C	1.017073	-0.564361	1.176461
C134	C	1.350406	-0.231027	1.509795
C135	C	1.683739	0.102306	1.843128
H136	H	0.615810	-0.661812	0.661265
H137	H	0.949144	-0.328479	0.994598
H138	H	1.282477	0.004854	1.327931
H139	H	1.096622	-1.173074	0.451144
H140	H	1.429956	-0.839741	0.784477
H141	H	1.763289	-0.506407	1.117811
H142	H	0.937655	-0.677486	0.955327
H143	H	1.270989	-0.344153	1.288661
H144	H	1.604322	-0.010819	1.621994
F145	F	0.926395	-0.693509	1.177449
F146	F	1.259729	-0.360176	1.510783
F147	F	1.593062	-0.026843	1.844116
H148	H	0.285710	-0.458973	0.459136
H149	H	0.619043	-0.125640	0.792469
H150	H	0.952377	0.207693	1.125803
H151	H	0.419054	-0.466939	0.467050
H152	H	0.752387	-0.133606	0.800384
H153	H	1.085720	0.199727	1.133717
F154	F	1.064956	-0.496146	1.121135
F155	F	1.398289	-0.162813	1.454468
F156	F	1.731623	0.170521	1.787802
F157	F	1.064962	-0.496157	1.013934
F158	F	1.398295	-0.162823	1.347267
F159	F	1.731628	0.170510	1.680600
H160	H	0.749153	-0.669778	0.669183
H161	H	1.082487	-0.336445	1.002517
H162	H	1.415820	-0.003112	1.335850
H163	H	0.419062	-0.709839	0.709132
H164	H	0.752395	-0.376505	1.042466
H165	H	1.085729	-0.043172	1.375799
H166	H	0.285708	-0.701876	0.701208
H167	H	0.619042	-0.368543	1.034541
H168	H	0.952375	-0.035210	1.367875
H169	H	0.615799	-0.418919	0.419191
H170	H	0.949132	-0.085586	0.752524
H171	H	1.282466	0.247748	1.085857
H172	H	1.096544	-0.963946	0.451099
H173	H	1.429877	-0.630613	0.784432
H174	H	1.763211	-0.297279	1.117766
H175	H	0.980448	-0.994388	0.616287
H176	H	1.313781	-0.661055	0.949621
H177	H	1.647115	-0.327722	1.282954
F178	F	0.758345	-0.410686	0.410974
F179	F	1.091678	-0.077353	0.744308
F180	F	1.425012	0.255980	1.077641
F181	F	0.969231	-1.114600	0.632324
F182	F	1.302564	-0.781267	0.965657
F183	F	1.635898	-0.447933	1.298991
