data_functionalizedCrystal
_audit_creation_method	'MofGen! by Chris Wilmer'
_symmetry_space_group_name_H-M	'P1'
_symmetry_Int_Tables_number	1
_symmetry_cell_setting	triclinic
loop_
_symmetry_equiv_pos_as_xyz
  x,y,z
_cell_length_a	12.594517
_cell_length_b	12.594516
_cell_length_c	13.033109
_cell_angle_alpha	97.157122
_cell_angle_beta	82.803562
_cell_angle_gamma	90.016010
loop_
_atom_site_label
_atom_site_type_symbol
_atom_site_fract_x
_atom_site_fract_y
_atom_site_fract_z
Zn1	Zn	1.703672	-0.500126	-0.590718
Zn2	Zn	2.203672	-0.000126	-0.090718
Zn3	Zn	1.680963	-0.655533	-0.415987
Zn4	Zn	2.180963	-0.155533	0.084013
Zn5	Zn	1.503079	-0.477572	-0.416009
Zn6	Zn	2.003079	0.022428	0.083991
Zn7	Zn	1.525656	-0.678060	-0.590698
Zn8	Zn	2.025656	-0.178060	-0.090698
O9	O	1.603343	-0.577823	-0.503353
O10	O	2.103343	-0.077823	-0.003353
O11	O	1.849606	-0.520753	-0.567538
O12	O	2.349606	-0.020753	-0.067538
O13	O	1.638414	-0.613060	-0.269757
O14	O	2.138414	-0.113060	0.230243
O15	O	1.529743	-0.331620	-0.439203
O16	O	2.029743	0.168380	0.060797
O17	O	1.832921	-0.634930	-0.439164
O18	O	2.332921	-0.134930	0.060836
O19	O	1.677119	-0.348191	-0.567560
O20	O	2.177119	0.151809	-0.067560
O21	O	1.507723	-0.482312	-0.269773
O22	O	2.007723	0.017688	0.230227
O23	O	1.357128	-0.504156	-0.439183
O24	O	1.857128	-0.004156	0.060817
O25	O	1.568223	-0.673323	-0.736934
O26	O	2.068223	-0.173323	-0.236934
O27	O	1.373715	-0.651454	-0.567526
O28	O	1.873715	-0.151454	-0.067526
O29	O	1.699011	-0.542596	-0.736948
O30	O	2.199011	-0.042596	-0.236948
O31	O	1.660306	-0.807465	-0.439145
O32	O	2.160306	-0.307465	0.060855
O33	O	1.546202	-0.824015	-0.567504
O34	O	2.046202	-0.324015	-0.067504
C35	C	1.326802	-0.577803	-0.503356
C36	C	1.826802	-0.077803	-0.003356
C37	C	1.208500	-0.577823	-0.503381
C38	C	1.708500	-0.077823	-0.003381
C39	C	1.077519	-0.658050	-0.573058
C40	C	1.577519	-0.158050	-0.073058
C41	C	1.135954	-0.671621	-0.477686
C42	C	1.635954	-0.171621	0.022314
C43	C	1.151635	-0.564298	-0.598742
C44	C	1.651635	-0.064298	-0.098742
C45	C	1.056139	-0.591467	-0.407928
C46	C	1.556139	-0.091467	0.092072
C47	C	1.071822	-0.484108	-0.529049
C48	C	1.571822	0.015892	-0.029049
C49	C	1.130216	-0.497633	-0.433611
C50	C	1.630216	0.002367	0.066389
C51	C	1.603271	-0.854363	-0.503343
C52	C	2.103271	-0.354363	-0.003343
C53	C	1.603343	-0.972672	-0.503373
C54	C	2.103343	-0.472672	-0.003373
C55	C	1.541269	-1.050959	-0.573139
C56	C	2.041269	-0.550959	-0.073139
C57	C	1.503002	-1.109490	-0.477788
C58	C	2.003002	-0.609490	0.022212
C59	C	1.641709	-1.124942	-0.598741
C60	C	2.141709	-0.624942	-0.098741
C61	C	1.565019	-1.029638	-0.407972
C62	C	2.065019	-0.529638	0.092028
C63	C	1.703778	-1.045092	-0.528989
C64	C	2.203778	-0.545092	-0.028989
C65	C	1.665540	-1.103583	-0.433572
C66	C	2.165540	-0.603583	0.066428
C67	C	1.880963	-0.577844	-0.503351
C68	C	2.380963	-0.077844	-0.003351
C69	C	1.999268	-0.577853	-0.503350
C70	C	2.499268	-0.077853	-0.003350
C71	C	1.638668	-0.612988	-0.775918
C72	C	2.138668	-0.112988	-0.275918
C73	C	1.653722	-0.627974	-0.892069
C74	C	2.153722	-0.127974	-0.392069
C75	C	1.603446	-0.300206	-0.503386
C76	C	2.103446	0.199794	-0.003386
C77	C	1.603490	-0.181903	-0.503400
C78	C	2.103490	0.318097	-0.003400
C79	C	1.595770	-0.569964	-0.943861
C80	C	2.095770	-0.069964	-0.443861
C81	C	1.611328	-0.585450	-1.063909
C82	C	2.111328	-0.085450	-0.563909
C83	C	1.568215	-0.542717	-0.231848
C84	C	2.068215	-0.042717	0.268152
C85	C	1.553368	-0.527432	-0.115698
C86	C	2.053368	-0.027432	0.384302
H87	H	1.153446	-0.429791	-0.374607
H88	H	1.653446	0.070209	0.125393
H89	H	1.164231	-0.750885	-0.455956
H90	H	1.664231	-0.250885	0.044044
H91	H	1.014727	-0.603018	-0.327247
H92	H	1.514727	-0.103018	0.172753
F93	F	1.691233	-0.665363	-1.122109
F94	F	2.191233	-0.165363	-0.622109
F95	F	1.473435	-0.447545	-1.057500
F96	F	1.973435	0.052455	-0.557500
F97	F	1.046872	-0.746757	-0.649995
F98	F	1.546872	-0.246757	-0.149995
H99	H	1.674097	-1.166398	-0.679381
H100	H	2.174097	-0.666398	-0.179381
F101	F	1.814690	-1.007955	-0.557338
F102	F	2.314690	-0.507955	-0.057338
H103	H	1.714853	-0.689105	-0.936603
H104	H	2.214853	-0.189105	-0.436603
H105	H	1.534634	-0.508838	-0.899327
H106	H	2.034634	-0.008838	-0.399327
H107	H	1.193174	-0.552845	-0.679401
H108	H	1.693174	-0.052845	-0.179401
F109	F	1.034831	-0.380540	-0.557487
F110	F	1.534831	0.119460	-0.057487
F111	F	1.734228	-1.133906	-0.356386
F112	F	2.234228	-0.633906	0.143614
H113	H	1.418135	-1.137909	-0.456144
H114	H	1.918135	-0.637909	0.043856
H115	H	1.488656	-1.027545	-0.632052
H116	H	1.988656	-0.527545	-0.132052
F117	F	1.522559	-0.975621	-0.302538
F118	F	2.022559	-0.475621	0.197462
