data_functionalizedCrystal
_audit_creation_method	'MofGen! by Chris Wilmer'
_symmetry_space_group_name_H-M	'P1'
_symmetry_Int_Tables_number	1
_symmetry_cell_setting	triclinic
loop_
_symmetry_equiv_pos_as_xyz
  x,y,z
_cell_length_a	6.817900
_cell_length_b	14.125465
_cell_length_c	12.200722
_cell_angle_alpha	94.993976
_cell_angle_beta	107.140920
_cell_angle_gamma	100.398878
loop_
_atom_site_label
_atom_site_type_symbol
_atom_site_fract_x
_atom_site_fract_y
_atom_site_fract_z
V1	V	-4.009703	-0.300078	-0.157727
V2	V	-3.676369	0.033255	0.175606
V3	V	-3.343036	0.366589	0.508939
O4	O	-3.978506	-0.294261	0.008593
O5	O	-3.645173	0.039073	0.341927
O6	O	-3.311840	0.372406	0.675260
O7	O	-3.979643	-0.298127	-0.313722
O8	O	-3.646310	0.035207	0.019612
O9	O	-3.312976	0.368540	0.352945
O10	O	-3.945510	-0.430906	-0.154856
O11	O	-3.612177	-0.097573	0.178477
O12	O	-3.278844	0.235761	0.511811
O13	O	-4.012876	-0.160562	-0.151372
O14	O	-3.679542	0.172771	0.181961
O15	O	-3.346209	0.506105	0.515295
V16	V	-4.493001	-0.283378	-0.137886
V17	V	-4.159667	0.049955	0.195447
V18	V	-3.826334	0.383288	0.528781
O19	O	-4.271455	-0.336710	-0.201251
O20	O	-3.938122	-0.003376	0.132083
O21	O	-3.604788	0.329957	0.465416
O22	O	-4.681446	-0.246747	-0.094362
O23	O	-4.348112	0.086587	0.238971
O24	O	-4.014779	0.419920	0.572304
O25	O	-4.299854	-0.285330	0.018109
O26	O	-3.966521	0.048004	0.351442
O27	O	-3.633187	0.381337	0.684775
O28	O	-4.641594	-0.289196	-0.304206
O29	O	-4.308260	0.044137	0.029127
O30	O	-3.974927	0.377471	0.362460
O31	O	-4.607225	-0.422894	-0.144241
O32	O	-4.273891	-0.089561	0.189092
O33	O	-3.940558	0.243772	0.522426
O34	O	-4.333987	-0.152550	-0.140757
O35	O	-4.000653	0.180783	0.192576
O36	O	-3.667320	0.514116	0.525910
C37	C	-3.829616	-0.293419	-0.351764
C38	C	-3.496283	0.039914	-0.018430
C39	C	-3.162950	0.373248	0.314903
C40	C	-3.886221	-0.292696	-0.479288
C41	C	-3.552887	0.040638	-0.145955
C42	C	-3.219554	0.373971	0.187378
C43	C	-3.932184	-0.292099	-0.582851
C44	C	-3.598851	0.041234	-0.249518
C45	C	-3.265517	0.374567	0.083816
C46	C	-3.989867	-0.291356	-0.712776
C47	C	-3.656533	0.041977	-0.379443
C48	C	-3.323200	0.375311	-0.046109
C49	C	-3.786076	-0.462791	-0.149113
C50	C	-3.452742	-0.129458	0.184220
C51	C	-3.119409	0.203876	0.517553
C52	C	-3.814996	-0.569744	-0.147798
C53	C	-3.481663	-0.236411	0.185535
C54	C	-3.148329	0.096922	0.518869
C55	C	-3.868005	-0.765566	-0.145386
C56	C	-3.534672	-0.432233	0.187947
C57	C	-3.201339	-0.098899	0.521281
C58	C	-4.054067	-0.817890	-0.150225
C59	C	-3.720733	-0.484557	0.183109
C60	C	-3.387400	-0.151224	0.516442
C61	C	-4.083564	-0.926852	-0.148882
C62	C	-3.750230	-0.593519	0.184451
C63	C	-3.416897	-0.260186	0.517784
C64	C	-3.838500	-0.656594	-0.146728
C65	C	-3.505167	-0.323261	0.186605
C66	C	-3.171834	0.010073	0.519938
C67	C	-4.113223	-0.290035	0.056145
C68	C	-3.779890	0.043299	0.389478
C69	C	-3.446557	0.376632	0.722811
C70	C	-4.035857	-0.290764	0.183668
C71	C	-3.702524	0.042569	0.517002
C72	C	-3.369190	0.375902	0.850335
C73	C	-4.156764	-0.120660	-0.146503
C74	C	-3.823431	0.212673	0.186830
C75	C	-3.490098	0.546006	0.520163
C76	C	-4.107082	-0.013706	-0.147813
C77	C	-3.773749	0.319627	0.185520
C78	C	-3.440415	0.652961	0.518854
H79	H	-3.730878	-0.802600	-0.140238
H80	H	-3.397544	-0.469267	0.193096
H81	H	-3.064211	-0.135934	0.526429
H82	H	-4.191212	-0.780855	-0.155386
H83	H	-3.857879	-0.447522	0.177947
H84	H	-3.524545	-0.114189	0.511280
