data_functionalizedCrystal
_audit_creation_method	'MofGen! by Chris Wilmer'
_symmetry_space_group_name_H-M	'P1'
_symmetry_Int_Tables_number	1
_symmetry_cell_setting	triclinic
loop_
_symmetry_equiv_pos_as_xyz
  x,y,z
_cell_length_a	13.897449
_cell_length_b	12.594516
_cell_length_c	13.897441
_cell_angle_alpha	89.974595
_cell_angle_beta	89.981404
_cell_angle_gamma	90.017332
loop_
_atom_site_label
_atom_site_type_symbol
_atom_site_fract_x
_atom_site_fract_y
_atom_site_fract_z
Zn1	Zn	1.474693	-0.423682	-0.545409
Zn2	Zn	1.808027	-0.090349	-0.212076
Zn3	Zn	2.141360	0.242985	0.121257
Zn4	Zn	1.474598	-0.601690	-0.384123
Zn5	Zn	1.807931	-0.268356	-0.050789
Zn6	Zn	2.141265	0.064977	0.282544
Zn7	Zn	1.313388	-0.423730	-0.384128
Zn8	Zn	1.646722	-0.090396	-0.050795
Zn9	Zn	1.980055	0.242937	0.282539
Zn10	Zn	1.313369	-0.601623	-0.545375
Zn11	Zn	1.646702	-0.268290	-0.212042
Zn12	Zn	1.980035	0.065044	0.121291
O13	O	1.394012	-0.512681	-0.464759
O14	O	1.727345	-0.179348	-0.131426
O15	O	2.060679	0.153986	0.201908
O16	O	1.609662	-0.447303	-0.524027
O17	O	1.942996	-0.113970	-0.190693
O18	O	2.276329	0.219363	0.142640
O19	O	1.453181	-0.578131	-0.249142
O20	O	1.786515	-0.244798	0.084192
O21	O	2.119848	0.088536	0.417525
O22	O	1.334834	-0.274778	-0.405539
O23	O	1.668167	0.058556	-0.072205
O24	O	2.001501	0.391889	0.261128
O25	O	1.609592	-0.578085	-0.405530
O26	O	1.942925	-0.244751	-0.072197
O27	O	2.276259	0.088582	0.261137
O28	O	1.453344	-0.274743	-0.524032
O29	O	1.786677	0.058591	-0.190698
O30	O	2.120011	0.391924	0.142635
O31	O	1.334742	-0.447384	-0.249145
O32	O	1.668075	-0.114051	0.084188
O33	O	2.001408	0.219282	0.417521
O34	O	1.178404	-0.447320	-0.405506
O35	O	1.511738	-0.113986	-0.072172
O36	O	1.845071	0.219347	0.261161
O37	O	1.334800	-0.577971	-0.680362
O38	O	1.668134	-0.244637	-0.347028
O39	O	2.001467	0.088696	-0.013695
O40	O	1.178390	-0.578017	-0.523973
O41	O	1.511723	-0.244684	-0.190640
O42	O	1.845056	0.088650	0.142693
O43	O	1.453325	-0.447238	-0.680387
O44	O	1.786658	-0.113905	-0.347053
O45	O	2.119992	0.219428	-0.013720
O46	O	1.453162	-0.750627	-0.405497
O47	O	1.786496	-0.417293	-0.072164
O48	O	2.119829	-0.083960	0.261170
O49	O	1.334708	-0.750578	-0.523968
O50	O	1.668041	-0.417244	-0.190635
O51	O	2.001375	-0.083911	0.142698
C52	C	1.143398	-0.512667	-0.464737
C53	C	1.476731	-0.179334	-0.131404
C54	C	1.810064	0.154000	0.201930
C55	C	1.036184	-0.512686	-0.464750
C56	C	1.369517	-0.179353	-0.131417
C57	C	1.702850	0.153980	0.201916
C58	C	1.393949	-0.789222	-0.464749
C59	C	1.727282	-0.455889	-0.131416
C60	C	2.060616	-0.122555	0.201917
C61	C	1.394010	-0.907528	-0.464778
C62	C	1.727343	-0.574194	-0.131444
C63	C	2.060677	-0.240861	0.201889
C64	C	0.839889	-0.512690	-0.464776
C65	C	1.173222	-0.179357	-0.131442
C66	C	1.506555	0.153976	0.201891
C67	C	0.949121	-0.512685	-0.464759
C68	C	1.282455	-0.179352	-0.131426
C69	C	1.615788	0.153982	0.201908
C70	C	1.329576	-0.976793	-0.529169
C71	C	1.662910	-0.643459	-0.195836
C72	C	1.996243	-0.310126	0.137498
C73	C	1.306076	-1.047657	-0.441152
C74	C	1.639410	-0.714324	-0.107819
C75	C	1.972743	-0.380990	0.225515
C76	C	1.417598	-1.047462	-0.552810
C77	C	1.750931	-0.714129	-0.219476
C78	C	2.084265	-0.380795	0.113857
C79	C	1.370463	-0.976834	-0.376714
C80	C	1.703797	-0.643501	-0.043381
C81	C	2.037130	-0.310167	0.289953
C82	C	1.482026	-0.976632	-0.488431
C83	C	1.815359	-0.643299	-0.155098
C84	C	2.148693	-0.309966	0.178236
C85	C	1.458559	-1.047465	-0.400353
C86	C	1.791893	-0.714132	-0.067020
C87	C	2.125226	-0.380798	0.266313
C88	C	1.645605	-0.512696	-0.464781
C89	C	1.978938	-0.179363	-0.131448
C90	C	2.312272	0.153971	0.201885
C91	C	1.752819	-0.512703	-0.464791
C92	C	2.086152	-0.179369	-0.131458
C93	C	2.419486	0.153964	0.201876
C94	C	1.394071	-0.512592	-0.716352
C95	C	1.727404	-0.179258	-0.383019
C96	C	2.060738	0.154075	-0.049685
C97	C	1.394096	-0.512554	-0.823566
C98	C	1.727430	-0.179220	-0.490233
C99	C	2.060763	0.154113	-0.156899
C100	C	1.394102	-0.235060	-0.464789
C101	C	1.727435	0.098273	-0.131456
C102	C	2.060768	0.431606	0.201877
C103	C	1.394140	-0.116755	-0.464802
C104	C	1.727473	0.216579	-0.131469
C105	C	2.060807	0.549912	0.201864
C106	C	1.394116	-0.512524	-0.910636
C107	C	1.727449	-0.179190	-0.577302
C108	C	2.060783	0.154143	-0.243969
C109	C	1.394144	-0.512476	-1.019868
C110	C	1.727477	-0.179142	-0.686535
C111	C	2.060810	0.154191	-0.353202
C112	C	1.394009	-0.512693	-0.214145
C113	C	1.727342	-0.179360	0.119189
C114	C	2.060675	0.153973	0.452522
C115	C	1.394170	-0.512432	-0.106931
C116	C	1.727504	-0.179098	0.226402
C117	C	2.060837	0.154235	0.559736
H118	H	1.231703	-1.078878	-0.421166
H119	H	1.565037	-0.745545	-0.087833
H120	H	1.898370	-0.412211	0.245500
C121	C	1.343781	-0.935440	-0.277510
C122	C	1.677114	-0.602106	0.055823
C123	C	2.010448	-0.268773	0.389156
C124	C	1.343960	-0.824277	-0.278672
C125	C	1.677293	-0.490944	0.054661
C126	C	2.010626	-0.157611	0.387995
C127	C	1.319369	-0.786107	-0.187310
C128	C	1.652702	-0.452773	0.146023
C129	C	1.986035	-0.119440	0.479356
H130	H	1.389271	-0.960089	-0.231660
H131	H	1.722605	-0.626756	0.101674
H132	H	2.055938	-0.293423	0.435007
H133	H	1.281474	-0.960291	-0.260605
H134	H	1.614807	-0.626958	0.072728
H135	H	1.948140	-0.293625	0.406062
H136	H	1.406258	-0.799436	-0.295565
H137	H	1.739591	-0.466103	0.037768
H138	H	2.072925	-0.132769	0.371102
H139	H	1.298468	-0.799600	-0.324503
H140	H	1.631802	-0.466266	0.008830
H141	H	1.965135	-0.132933	0.342163
H142	H	1.257061	-0.810958	-0.170405
H143	H	1.590394	-0.477625	0.162928
H144	H	1.923728	-0.144292	0.496261
H145	H	1.364862	-0.810763	-0.141467
H146	H	1.698195	-0.477430	0.191866
H147	H	2.031528	-0.144097	0.525200
H148	H	1.319478	-0.710680	-0.188089
H149	H	1.652811	-0.377347	0.145245
H150	H	1.986144	-0.044013	0.478578
H151	H	1.513104	-1.078301	-0.345847
H152	H	1.846438	-0.744967	-0.012514
H153	H	2.179771	-0.411634	0.320819
H154	H	1.556382	-0.945415	-0.508459
H155	H	1.889715	-0.612081	-0.175126
H156	H	2.223049	-0.278748	0.158208
C157	C	1.444005	-1.088684	-0.652146
C158	C	1.777338	-0.755351	-0.318813
C159	C	2.110671	-0.422018	0.014520
C160	C	1.376251	-1.052852	-0.719248
C161	C	1.709585	-0.719519	-0.385915
C162	C	2.042918	-0.386186	-0.052581
C163	C	1.400544	-1.090789	-0.810769
C164	C	1.733878	-0.757455	-0.477436
C165	C	2.067211	-0.424122	-0.144103
H166	H	1.444421	-1.164100	-0.651432
H167	H	1.777755	-0.830767	-0.318099
H168	H	2.111088	-0.497433	0.015234
H169	H	1.506027	-1.063289	-0.669434
H170	H	1.839360	-0.729956	-0.336100
H171	H	2.172694	-0.396622	-0.002767
H172	H	1.314245	-1.078253	-0.701965
H173	H	1.647579	-0.744920	-0.368632
H174	H	1.980912	-0.411586	-0.035299
H175	H	1.375825	-0.977441	-0.719992
H176	H	1.709158	-0.644108	-0.386659
H177	H	2.042491	-0.310775	-0.053326
H178	H	1.462567	-1.065393	-0.828057
H179	H	1.795900	-0.732060	-0.494723
H180	H	2.129233	-0.398727	-0.161390
H181	H	1.400961	-1.166203	-0.810045
H182	H	1.734295	-0.832870	-0.476712
H183	H	2.067628	-0.499537	-0.143379
H184	H	1.354583	-1.066474	-0.856310
H185	H	1.687917	-0.733141	-0.522977
H186	H	2.021250	-0.399808	-0.189644
H187	H	1.274990	-0.945760	-0.583543
H188	H	1.608323	-0.612427	-0.250210
H189	H	1.941656	-0.279094	0.083123
