data_functionalizedCrystal
_audit_creation_method	'MofGen! by Chris Wilmer'
_symmetry_space_group_name_H-M	'P1'
_symmetry_Int_Tables_number	1
_symmetry_cell_setting	triclinic
loop_
_symmetry_equiv_pos_as_xyz
  x,y,z
_cell_length_a	14.853567
_cell_length_b	15.995350
_cell_length_c	13.930277
_cell_angle_alpha	89.997676
_cell_angle_beta	89.995755
_cell_angle_gamma	83.563653
loop_
_atom_site_label
_atom_site_type_symbol
_atom_site_fract_x
_atom_site_fract_y
_atom_site_fract_z
O1	O	1.196221	0.109317	-0.079760
O2	O	0.933744	0.122339	-0.079776
O3	O	1.072157	-0.006051	-0.079766
O4	O	1.057808	0.237707	-0.079769
O5	O	1.072138	-0.006054	0.079895
O6	O	0.933725	0.122336	0.079886
O7	O	1.196202	0.109314	0.079902
Zn8	Zn	1.064960	0.115825	0.105244
Zn9	Zn	1.064986	0.115828	-0.105117
O10	O	1.057788	0.237705	0.079893
C11	C	0.900146	0.121748	0.000053
C12	C	0.800065	0.119980	0.000047
C13	C	1.071555	-0.037248	0.000063
C14	C	1.069776	-0.130201	0.000057
C15	C	0.387644	0.036238	0.000069
C16	C	0.366158	0.188769	0.000067
C17	C	0.460189	0.190432	0.000064
C18	C	0.517953	0.114996	0.000062
C19	C	0.481685	0.037899	0.000063
C20	C	0.496464	0.267528	0.000053
C21	C	0.590501	0.269194	0.000048
C22	C	0.648266	0.193758	0.000054
C23	C	0.611993	0.116657	0.000056
C24	C	0.669757	0.041221	0.000054
C25	C	0.633485	-0.035880	0.000064
C26	C	0.539450	-0.037538	0.000069
C27	C	0.742302	0.195415	0.000049
C28	C	0.763797	0.042882	0.000048
C29	C	1.063389	-0.467956	0.000060
C30	C	0.964813	-0.420636	-0.000304
C31	C	0.966592	-0.323944	0.000056
C32	C	1.066557	-0.300391	0.000058
C33	C	1.115167	-0.341414	0.091234
C34	C	1.112691	-0.438052	0.091310
C35	C	1.114749	-0.438405	-0.090255
C36	C	1.114726	-0.341460	-0.091460
C37	C	1.068353	-0.205692	0.000060
C38	C	1.061596	-0.562655	0.000064
C39	C	1.229799	0.109906	0.000071
C40	C	1.329881	0.111674	0.000071
C41	C	1.058391	0.268901	0.000062
C42	C	1.060170	0.361854	0.000061
N43	N	1.064950	0.115822	0.248810
N44	N	1.065003	0.115825	-0.248684
C45	C	1.003694	0.172657	0.701075
C46	C	1.126302	0.058993	0.701053
C47	C	1.126292	0.058990	0.600557
C48	C	1.064982	0.115823	0.550316
C49	C	1.003683	0.172658	0.600570
C50	C	1.187595	0.002162	0.550295
C51	C	1.187588	0.002158	0.449793
C52	C	1.126273	0.058987	0.399550
C53	C	1.064971	0.115824	0.449811
C54	C	1.003661	0.172656	0.399569
C55	C	0.942354	0.229490	0.449828
C56	C	0.942368	0.229487	0.550327
C57	C	1.126259	0.058989	0.299051
C58	C	1.003651	0.172657	0.299064
H59	H	0.810823	-0.018548	0.000051
C60	C	0.782202	0.280213	0.000035
H61	H	0.846479	0.270399	0.000027
H62	H	0.762374	0.311282	0.055708
H63	H	0.762380	0.311271	-0.055654
C64	C	0.499554	-0.122341	0.000067
H65	H	0.547421	-0.167032	0.000073
H66	H	0.463320	-0.126154	-0.055611
H67	H	0.463314	-0.126161	0.055751
C68	C	0.630397	0.353998	0.000042
H69	H	0.694674	0.344186	0.000034
H70	H	0.610567	0.385063	0.055718
H71	H	0.610574	0.385059	-0.055644
C72	C	0.914960	-0.285600	-0.088227
H73	H	0.892703	-0.329114	-0.124633
H74	H	0.954688	-0.257263	-0.126804
H75	H	0.865615	-0.246780	-0.067702
H76	H	0.925421	-0.439212	-0.065688
C77	C	0.347751	-0.048567	0.000075
H78	H	0.283474	-0.038756	0.000074
H79	H	0.367580	-0.079633	0.055750
H80	H	0.367577	-0.079626	-0.055612
C81	C	0.697030	-0.118854	0.000062
H82	H	0.758227	-0.106817	0.000060
H83	H	0.686037	-0.150466	-0.055610
H84	H	0.686042	-0.150460	0.055752
H85	H	1.077228	-0.456396	0.159464
C86	C	0.302626	0.271743	0.000059
H87	H	0.337695	0.317897	0.000049
H88	H	0.265488	0.274268	0.055733
H89	H	0.265504	0.274261	-0.055629
C90	C	0.911813	-0.447156	0.087529
H91	H	0.949499	-0.486939	0.124423
H92	H	0.859919	-0.471761	0.066566
H93	H	0.893338	-0.399126	0.125800
C94	C	1.193687	-0.003519	0.243771
H95	H	1.230201	-0.037368	0.288086
H96	H	1.231204	0.026666	0.204553
H97	H	1.161252	-0.038436	0.204579
H98	H	0.449427	0.328943	0.000044
C99	C	1.066796	-0.304627	-0.182587
H100	H	1.096247	-0.329718	-0.237704
H101	H	1.069223	-0.245552	-0.184261
H102	H	1.005349	-0.315898	-0.182019
H103	H	0.928108	-0.296125	0.065521
C104	C	1.210453	-0.481507	0.096919
H105	H	1.251504	-0.440076	0.099149
H106	H	1.222897	-0.516010	0.041944
H107	H	1.217273	-0.515234	0.153147
H108	H	1.188608	-0.327203	0.094626
H109	H	1.081389	-0.313073	0.159082
C110	C	1.071220	-0.466193	-0.183612
H111	H	1.021310	-0.496080	-0.168378
H112	H	1.114721	-0.501617	-0.219212
H113	H	1.050752	-0.418018	-0.220831
H114	H	1.187625	-0.326013	-0.096963
C115	C	1.212927	-0.481202	-0.091091
H116	H	1.222608	-0.516911	-0.036700
H117	H	1.253657	-0.439493	-0.089090
H118	H	1.223077	-0.513625	-0.147994
C119	C	0.936210	0.235176	0.243806
H120	H	0.899708	0.269024	0.288134
H121	H	0.898683	0.204994	0.204605
H122	H	0.968640	0.270092	0.204600
H123	H	1.237517	-0.044106	0.591205
H124	H	0.892439	0.275767	0.408910
H125	H	0.892455	0.275760	0.591254
C126	C	0.936237	0.235150	0.756349
H127	H	0.899713	0.268985	0.712030
H128	H	0.968639	0.270070	0.795564
H129	H	0.898720	0.204937	0.795543
C130	C	1.193737	-0.003517	0.756315
H131	H	1.184961	0.004620	0.823367
H132	H	1.253901	0.005675	0.739831
H133	H	1.183939	-0.059419	0.739853
C134	C	1.255014	-0.060363	0.394517
H135	H	1.291523	-0.094213	0.438834
H136	H	1.292534	-0.030184	0.355297
H137	H	1.222572	-0.095277	0.355328
