data_functionalizedCrystal
_audit_creation_method	'MofGen! by Chris Wilmer'
_symmetry_space_group_name_H-M	'P1'
_symmetry_Int_Tables_number	1
_symmetry_cell_setting	triclinic
loop_
_symmetry_equiv_pos_as_xyz
  x,y,z
_cell_length_a	17.699077
_cell_length_b	27.731996
_cell_length_c	16.776229
_cell_angle_alpha	89.987372
_cell_angle_beta	89.993415
_cell_angle_gamma	82.950982
loop_
_atom_site_label
_atom_site_type_symbol
_atom_site_fract_x
_atom_site_fract_y
_atom_site_fract_z
O1	O	1.003525	0.061115	-0.066288
O2	O	0.783073	0.069071	-0.066293
O3	O	0.900166	-0.005281	-0.066273
O4	O	0.886432	0.135467	-0.066308
O5	O	0.900151	-0.005286	0.066303
O6	O	0.783058	0.069066	0.066283
O7	O	1.003509	0.061110	0.066288
Zn8	Zn	0.893281	0.065087	0.087335
Zn9	Zn	0.893301	0.065093	-0.087340
O10	O	0.886416	0.135462	0.066268
C11	C	0.754871	0.068784	-0.000006
C12	C	0.670860	0.067930	-0.000007
C13	C	0.631388	0.067525	0.072262
C14	C	0.552453	0.066715	0.072263
C15	C	0.512991	0.066314	-0.000006
C16	C	0.552469	0.066717	-0.072280
C17	C	0.631403	0.067523	-0.072280
C18	C	0.234135	0.063464	-0.072280
C19	C	0.155195	0.062659	-0.072274
C20	C	0.155185	0.062656	0.072262
C21	C	0.234120	0.063462	0.072262
C22	C	0.273591	0.063863	-0.000011
C23	C	0.359182	0.064740	-0.000012
C24	C	0.427401	0.065440	-0.000006
C25	C	0.899876	-0.023292	0.000018
C26	C	0.899027	-0.076951	0.000026
C27	C	0.893688	-0.409684	-0.072281
C28	C	0.890461	-0.611354	-0.072295
O29	O	0.890019	-0.637424	-0.133756
N30	N	0.890052	-0.636575	-0.000028
C31	C	0.890445	-0.611375	0.072247
O32	O	0.890015	-0.637454	0.133714
C33	C	0.893666	-0.409706	0.072261
C34	C	0.894083	-0.384488	-0.000011
C35	C	0.894104	-0.384466	-0.144546
C36	C	0.894915	-0.334052	-0.144542
C37	C	0.895310	-0.308856	-0.072272
C38	C	0.894894	-0.334074	-0.000007
C39	C	0.894053	-0.384506	0.144535
C40	C	0.894857	-0.334086	0.144532
C41	C	0.895274	-0.308868	0.072261
C42	C	0.896100	-0.258464	0.072267
N43	N	0.896509	-0.233243	0.000001
C44	C	0.896114	-0.258439	-0.072269
C45	C	0.888755	-0.717255	0.072235
C46	C	0.887951	-0.767672	0.072232
C47	C	0.887966	-0.767647	-0.072310
C48	C	0.888775	-0.717229	-0.072306
C49	C	0.889164	-0.692034	-0.000032
C50	C	0.897818	-0.152566	-0.072255
C51	C	0.898632	-0.102147	-0.072244
C52	C	0.898612	-0.102176	0.072298
C53	C	0.897802	-0.152590	0.072288
C54	C	0.897402	-0.177784	0.000005
O55	O	0.896534	-0.232362	0.133696
O56	O	0.896527	-0.232350	-0.133727
C57	C	0.892877	-0.460098	-0.072285
C58	C	0.892461	-0.485316	-0.000019
C59	C	0.892856	-0.460120	0.072250
C60	C	0.891657	-0.535733	-0.000023
C61	C	0.891262	-0.560930	-0.072292
C62	C	0.891672	-0.535709	-0.144559
C63	C	0.892483	-0.485294	-0.144555
C64	C	0.892447	-0.485341	0.144517
C65	C	0.891637	-0.535755	0.144507
C66	C	0.891242	-0.560951	0.072237
C67	C	1.031711	0.061397	-0.000001
C68	C	1.115722	0.062251	-0.000005
C69	C	0.886706	0.153473	-0.000024
C70	C	0.887556	0.207132	-0.000038
N71	N	0.893273	0.065083	0.206546
N72	N	0.893316	0.065094	-0.206551
C73	C	0.945137	0.032173	0.248272
C74	C	0.945141	0.032173	0.331725
C75	C	0.893284	0.065085	0.373449
C76	C	0.841414	0.097996	0.331717
C77	C	0.841407	0.097994	0.248267
C78	C	0.841442	0.098005	0.668265
C79	C	0.841454	0.098006	0.751721
C80	C	0.945176	0.032185	0.751722
C81	C	0.945169	0.032183	0.668272
C82	C	0.893296	0.065092	0.626547
C83	C	0.893292	0.065091	0.536059
C84	C	0.893292	0.065088	0.463936
H85	H	0.123038	0.062327	0.131111
H86	H	0.892822	-0.464767	-0.203406
C87	C	1.002178	-0.004042	0.377619
N88	N	1.045134	-0.031325	0.412187
H89	H	0.663540	0.067854	-0.131128
C90	C	0.887500	-0.795406	0.151736
N91	N	0.887154	-0.816294	0.211622
C92	C	0.277524	0.063903	0.151762
N93	N	0.310216	0.064232	0.211644
C94	C	1.002214	-0.004024	0.622379
N95	N	1.045179	-0.031297	0.587814
H96	H	0.799173	0.124791	0.214294
H97	H	0.520333	0.066387	-0.131122
C98	C	0.784364	0.134195	0.377618
N99	N	0.741392	0.161461	0.412189
C100	C	0.509035	0.066281	0.151764
N101	N	0.476332	0.065958	0.211648
C102	C	0.897351	-0.180331	0.151789
N103	N	0.897004	-0.201222	0.211672
H104	H	0.799223	0.124808	0.785692
H105	H	0.123067	0.062332	-0.131127
C106	C	0.895287	-0.306374	0.224042
N107	N	0.895615	-0.285502	0.283929
C108	C	0.674790	0.067967	0.151764
N109	N	0.707478	0.068297	0.211647
C110	C	0.277544	0.063901	-0.151783
N111	N	0.310243	0.064228	-0.211669
C112	C	0.897391	-0.180272	-0.151770
N113	N	0.897078	-0.201141	-0.211660
C114	C	0.899088	-0.074411	-0.151752
N115	N	0.899429	-0.053521	-0.211635
H116	H	0.895252	-0.313524	-0.203393
C117	C	0.893703	-0.412177	-0.224056
N118	N	0.893417	-0.433047	-0.283948
C119	C	0.889227	-0.689494	-0.151810
N120	N	0.889564	-0.668606	-0.211695
C121	C	0.893585	-0.412234	0.224041
N122	N	0.893228	-0.433117	0.283930
C123	C	1.002185	-0.004033	0.202383
N124	N	1.045152	-0.031307	0.167821
C125	C	0.887525	-0.795372	-0.151808
N126	N	0.887187	-0.816256	-0.211682
C127	C	0.889187	-0.689546	0.151749
N128	N	0.889517	-0.668678	0.211639
C129	C	1.002230	-0.004021	0.797627
N130	N	1.045203	-0.031289	0.832201
C131	C	0.784478	0.134269	0.622379
N132	N	0.741605	0.161607	0.587814
H133	H	0.898937	-0.081653	0.131138
C134	C	0.891177	-0.563489	0.224017
N135	N	0.890822	-0.584376	0.283903
C136	C	0.891235	-0.563434	-0.224056
N137	N	0.890901	-0.584319	-0.283930
H138	H	0.892770	-0.464832	0.203369
