data_functionalizedCrystal
_audit_creation_method	'MofGen! by Chris Wilmer'
_symmetry_space_group_name_H-M	'P1'
_symmetry_Int_Tables_number	1
_symmetry_cell_setting	triclinic
loop_
_symmetry_equiv_pos_as_xyz
  x,y,z
_cell_length_a	17.699077
_cell_length_b	14.853567
_cell_length_c	16.776229
_cell_angle_alpha	89.997147
_cell_angle_beta	89.993415
_cell_angle_gamma	83.457753
loop_
_atom_site_label
_atom_site_type_symbol
_atom_site_fract_x
_atom_site_fract_y
_atom_site_fract_z
O1	O	1.004377	0.113983	-0.066271
O2	O	1.504377	0.613983	0.433729
O3	O	0.784037	0.128821	-0.066274
O4	O	1.284037	0.628821	0.433726
O5	O	0.900093	-0.009850	-0.066275
O6	O	1.400093	0.490150	0.433725
O7	O	0.888321	0.252653	-0.066270
O8	O	1.388321	0.752653	0.433730
O9	O	0.900077	-0.009858	0.066302
O10	O	1.400077	0.490142	0.566302
O11	O	0.784021	0.128812	0.066302
O12	O	1.284021	0.628812	0.566302
O13	O	1.004362	0.113974	0.066306
O14	O	1.504362	0.613974	0.566306
Zn15	Zn	0.894189	0.121392	0.087353
Zn16	Zn	1.394189	0.621392	0.587353
Zn17	Zn	0.894209	0.121403	-0.087322
Zn18	Zn	1.394209	0.621403	0.412678
O19	O	0.888306	0.252645	0.066306
O20	O	1.388306	0.752645	0.566306
C21	C	0.755830	0.128286	0.000014
C22	C	1.255830	0.628286	0.500014
C23	C	0.671808	0.126694	0.000012
C24	C	1.171808	0.626694	0.500012
C25	C	0.632330	0.125939	0.072281
C26	C	1.132330	0.625939	0.572281
C27	C	0.553384	0.124428	0.072281
C28	C	1.053384	0.624428	0.572281
C29	C	0.513916	0.123679	0.000013
C30	C	1.013916	0.623679	0.500013
C31	C	0.553399	0.124431	-0.072261
C32	C	1.053399	0.624431	0.427739
C33	C	0.632345	0.125935	-0.072261
C34	C	1.132345	0.625935	0.427739
C35	C	0.235020	0.118364	-0.072262
C36	C	0.735020	0.618364	0.427738
C37	C	0.156069	0.116863	-0.072257
C38	C	0.656069	0.616863	0.427743
C39	C	0.156059	0.116857	0.072280
C40	C	0.656059	0.616857	0.572280
C41	C	0.235005	0.118361	0.072280
C42	C	0.735005	0.618361	0.572280
C43	C	0.274482	0.119108	0.000006
C44	C	0.774482	0.619108	0.500006
C45	C	0.360085	0.120745	0.000006
C46	C	0.860085	0.620745	0.500006
C47	C	0.428314	0.122049	0.000012
C48	C	0.928314	0.622049	0.500012
C49	C	0.899551	-0.043441	0.000011
C50	C	1.399551	0.456559	0.500011
C51	C	0.897953	-0.143519	0.000004
C52	C	1.397953	0.356481	0.500004
C53	C	0.822257	-0.555772	0.000018
C54	C	1.322257	-0.055772	0.500018
C55	C	0.960134	-0.577564	0.000020
C56	C	1.460134	-0.077564	0.500020
C57	C	0.961637	-0.483536	0.000015
C58	C	1.461637	0.016464	0.500015
C59	C	0.893449	-0.425621	0.000013
C60	C	1.393449	0.074379	0.500013
C61	C	0.823758	-0.461735	0.000016
C62	C	1.323758	0.038265	0.500016
C63	C	1.031327	-0.447415	0.000021
C64	C	1.531327	0.052585	0.500021
C65	C	1.032832	-0.353382	0.000017
C66	C	1.532832	0.146618	0.500017
C67	C	0.964643	-0.295465	0.000009
C68	C	1.464643	0.204535	0.500009
C69	C	0.894950	-0.331584	0.000011
C70	C	1.394950	0.168416	0.500011
C71	C	0.826761	-0.273669	0.000009
C72	C	1.326761	0.226331	0.500009
C73	C	0.757067	-0.309786	0.000005
C74	C	1.257067	0.190214	0.500005
C75	C	0.755569	-0.403818	0.000008
C76	C	1.255569	0.096182	0.500008
C77	C	0.966141	-0.201433	0.000006
C78	C	1.466141	0.298567	0.500006
C79	C	0.828262	-0.179632	0.000007
C80	C	1.328262	0.320368	0.500007
C81	C	1.032568	0.114509	0.000016
C82	C	1.532568	0.614509	0.500016
C83	C	1.116590	0.116101	0.000012
C84	C	1.616590	0.616101	0.500012
C85	C	0.888847	0.286236	0.000019
C86	C	1.388847	0.786236	0.500019
C87	C	0.890445	0.386313	0.000020
C88	C	1.390445	0.886313	0.500020
N89	N	0.894181	0.121384	0.206565
N90	N	1.394181	0.621384	0.706565
N91	N	0.894224	0.121404	-0.206533
N92	N	1.394224	0.621404	0.293467
C93	C	0.945586	0.060005	0.248281
C94	C	1.445586	0.560005	0.748281
C95	C	0.945590	0.060005	0.331734
C96	C	1.445590	0.560005	0.831734
C97	C	0.894192	0.121387	0.373468
C98	C	1.394192	0.621387	0.873468
C99	C	0.842781	0.182768	0.331745
C100	C	1.342781	0.682768	0.831745
C101	C	0.842774	0.182764	0.248294
C102	C	1.342774	0.682764	0.748294
C103	C	0.842809	0.182786	0.668292
C104	C	1.342809	0.682786	1.168292
C105	C	0.842821	0.182787	0.751749
C106	C	1.342821	0.682787	1.251749
C107	C	0.945625	0.060027	0.751731
C108	C	1.445625	0.560027	1.251731
C109	C	0.945618	0.060022	0.668281
C110	C	1.445618	0.560022	1.168281
C111	C	0.894204	0.121400	0.626565
C112	C	1.394204	0.621400	1.126565
C113	C	0.894200	0.121399	0.536077
C114	C	1.394200	0.621399	1.036077
C115	C	0.894200	0.121393	0.463954
C116	C	1.394200	0.621393	0.963954
H117	H	0.664487	0.126552	-0.131109
H118	H	1.164487	0.626552	0.368891
H119	H	0.800928	0.232744	0.365730
H120	H	1.300928	0.732744	0.865730
Cl121	Cl	0.503786	0.123456	-0.163113
Cl122	Cl	1.003786	0.623456	0.336887
Cl123	Cl	0.778201	0.259959	0.804214
Cl124	Cl	1.278201	0.759959	1.304214
Cl125	Cl	1.010236	-0.017144	0.615818
Cl126	Cl	1.510236	0.482856	1.115818
Cl127	Cl	1.010214	-0.017159	0.384179
Cl128	Cl	1.510214	0.482841	0.884179
Cl129	Cl	0.778180	0.259948	0.615856
Cl130	Cl	1.278180	0.759948	1.115856
H131	H	0.800914	0.232743	0.214329
H132	H	1.300914	0.732743	0.714329
H133	H	1.089582	-0.323984	0.000019
H134	H	1.589582	0.176016	0.500019
Cl135	Cl	0.681939	0.126886	0.163138
Cl136	Cl	1.181939	0.626886	0.663138
Cl137	Cl	1.045851	-0.650371	0.000036
Cl138	Cl	1.545851	-0.150371	0.500036
Cl139	Cl	0.503756	0.123495	0.163137
Cl140	Cl	1.003756	0.623495	0.663137
Cl141	Cl	1.010208	-0.017162	0.195825
Cl142	Cl	1.510208	0.482838	0.695825
Cl143	Cl	0.284617	0.119308	0.163135
Cl144	Cl	0.784617	0.619308	0.663135
Cl145	Cl	0.106426	0.115913	0.163139
Cl146	Cl	0.606426	0.615913	0.663139
H147	H	0.123936	0.116252	-0.131110
H148	H	0.623936	0.616252	0.368890
H149	H	0.267153	0.118970	-0.131112
H150	H	0.767153	0.618970	0.368888
H151	H	0.987486	0.010047	0.785705
H152	H	1.487486	0.510047	1.285705
H153	H	1.086842	-0.494576	0.000030
H154	H	1.586842	0.005424	0.500030
Cl155	Cl	0.742534	-0.106832	-0.000002
Cl156	Cl	1.242534	0.393168	0.499998
Cl157	Cl	1.053750	-0.156032	0.000026
Cl158	Cl	1.553750	0.343968	0.500026
Cl159	Cl	0.671348	-0.236969	0.000009
Cl160	Cl	1.171348	0.263031	0.500009
Cl161	Cl	0.667961	-0.449229	0.000001
Cl162	Cl	1.167961	0.050771	0.500001
H163	H	0.765513	-0.585183	0.000012
H164	H	1.265513	-0.085183	0.500012
