data_functionalizedCrystal
_audit_creation_method	'MofGen! by Chris Wilmer'
_symmetry_space_group_name_H-M	'P1'
_symmetry_Int_Tables_number	1
_symmetry_cell_setting	triclinic
loop_
_symmetry_equiv_pos_as_xyz
  x,y,z
_cell_length_a	14.519731
_cell_length_b	10.967870
_cell_length_c	13.596369
_cell_angle_alpha	102.133670
_cell_angle_beta	90.006374
_cell_angle_gamma	95.788657
loop_
_atom_site_label
_atom_site_type_symbol
_atom_site_fract_x
_atom_site_fract_y
_atom_site_fract_z
O1	O	1.224674	-0.163706	-0.109540
O2	O	0.956298	-0.182942	-0.112802
O3	O	1.096679	0.008313	-0.080379
O4	O	1.084293	-0.354961	-0.141964
O5	O	1.096697	0.008323	0.083206
O6	O	0.956315	-0.182931	0.050783
O7	O	1.224692	-0.163696	0.054044
Zn8	Zn	1.090506	-0.173312	0.078386
Zn9	Zn	1.090483	-0.173326	-0.137144
O10	O	1.084310	-0.354950	0.021621
C11	C	0.921943	-0.182035	-0.030857
C12	C	0.819549	-0.179335	-0.030400
C13	C	1.095788	0.054810	0.009293
C14	C	1.093094	0.193342	0.032772
C15	C	0.736393	-0.177140	-0.030032
C16	C	0.632071	-0.174398	-0.029567
C17	C	0.548921	-0.172221	-0.029198
C18	C	0.444591	-0.169480	-0.028736
C19	C	1.091884	0.255092	-0.041503
C20	C	1.089100	0.398272	-0.017239
C21	C	1.259047	-0.164602	-0.027903
C22	C	1.361441	-0.167303	-0.028367
C23	C	1.085201	0.598552	-0.068050
C24	C	1.087890	0.460019	-0.091525
N25	N	1.090468	-0.173326	-0.284236
C26	C	1.090472	-0.173327	-0.373234
C27	C	1.090485	-0.173324	-0.484885
C28	C	1.090501	-0.173315	-0.573874
C29	C	1.090513	-0.173311	-0.685531
N30	N	1.090529	-0.173302	0.225480
H31	H	1.092905	0.201958	-0.123057
H32	H	1.088905	0.406890	-0.173084
H33	H	1.088069	0.451400	0.064320
H34	H	1.092063	0.246474	0.114325
