data_functionalizedCrystal
_audit_creation_method	'MofGen! by Chris Wilmer'
_symmetry_space_group_name_H-M	'P1'
_symmetry_Int_Tables_number	1
_symmetry_cell_setting	triclinic
loop_
_symmetry_equiv_pos_as_xyz
  x,y,z
_cell_length_a	17.640112
_cell_length_b	18.050589
_cell_length_c	17.639306
_cell_angle_alpha	101.190077
_cell_angle_beta	87.804122
_cell_angle_gamma	101.252307
loop_
_atom_site_label
_atom_site_type_symbol
_atom_site_fract_x
_atom_site_fract_y
_atom_site_fract_z
Zn1	Zn	1.247732	-0.095461	-0.195075
Zn2	Zn	1.221978	-0.200438	-0.068110
Zn3	Zn	1.095083	-0.105261	-0.093729
Zn4	Zn	1.120685	-0.248636	-0.220686
O5	O	1.171370	-0.162449	-0.144400
O6	O	1.350592	-0.085113	-0.156793
O7	O	1.183652	-0.171742	0.034759
O8	O	1.115396	-0.000025	-0.107176
O9	O	1.331670	-0.162239	-0.063512
O10	O	1.227547	0.007175	-0.181635
O11	O	1.090423	-0.101817	0.015937
O12	O	0.992204	-0.148553	-0.132010
O13	O	1.159031	-0.244387	-0.323556
O14	O	1.011014	-0.253890	-0.225284
O15	O	1.252372	-0.131849	-0.304740
O16	O	1.208478	-0.310767	-0.088346
O17	O	1.134058	-0.346178	-0.200443
C18	C	0.974053	-0.207515	-0.184207
C19	C	0.889643	-0.226816	-0.201254
C20	C	0.563035	-0.015814	-0.014898
C21	C	0.483721	-0.033967	-0.030927
C22	C	0.503329	-0.143759	-0.127887
C23	C	0.582646	-0.125614	-0.111869
C24	C	0.612492	-0.061641	-0.055373
C25	C	0.632103	-0.171441	-0.152344
C26	C	0.711413	-0.153299	-0.136324
C27	C	0.741265	-0.089331	-0.079829
C28	C	0.691802	-0.043500	-0.039353
C29	C	0.602254	-0.235417	-0.208835
C30	C	0.651712	-0.281243	-0.249310
C31	C	0.731024	-0.263099	-0.233294
C32	C	0.760876	-0.199131	-0.176799
C33	C	0.780487	-0.308930	-0.273770
C34	C	0.859797	-0.290789	-0.257750
C35	C	0.840186	-0.180989	-0.160779
C36	C	1.171275	-0.355420	-0.144406
C37	C	1.171310	-0.437962	-0.144420
C38	C	1.130887	-0.656682	-0.205350
C39	C	1.098375	-0.699852	-0.139789
C40	C	1.171386	-0.589077	-0.144415
C41	C	1.203937	-0.692981	-0.209976
C42	C	1.171460	-0.735048	-0.144416
C43	C	1.138831	-0.631162	-0.078824
C44	C	1.244434	-0.624287	-0.149052
C45	C	1.211939	-0.667421	-0.083437
C46	C	1.171342	-0.504987	-0.144415
C47	C	1.171503	-0.819135	-0.144408
C48	C	1.369457	-0.117207	-0.104438
C49	C	1.453870	-0.097927	-0.087409
C50	C	1.211430	-0.192401	-0.342472
C51	C	1.228502	-0.205165	-0.426879
C52	C	1.171488	0.031278	-0.144406
C53	C	1.171539	0.113833	-0.144409
C54	C	1.041975	-0.065138	-0.753500
C55	C	1.058033	-0.077144	-0.832809
C56	C	1.155103	-0.149950	-0.813192
C57	C	1.139055	-0.137947	-0.733878
C58	C	1.082490	-0.095542	-0.704039
C59	C	1.179570	-0.168351	-0.684418
C60	C	1.163520	-0.156353	-0.605112
C61	C	1.106956	-0.113951	-0.575267
C62	C	1.066440	-0.083544	-0.624733
C63	C	1.236131	-0.210761	-0.714259
C64	C	1.276646	-0.241164	-0.664799
C65	C	1.260601	-0.229162	-0.585491
C66	C	1.204036	-0.186760	-0.555646
C67	C	1.301117	-0.259569	-0.536024
C68	C	1.285067	-0.247571	-0.456719
C69	C	1.187987	-0.174762	-0.476340
C70	C	1.131509	-0.132549	0.052911
C71	C	1.114584	-0.119543	0.137347
H72	H	0.627399	-0.333332	-0.295306
Cl73	Cl	0.421546	0.023648	0.019967
Cl74	Cl	1.264854	-0.675452	-0.003804
H75	H	0.995922	-0.030598	-0.729202
H76	H	1.306166	-0.591519	-0.153004
Cl77	Cl	1.347751	-0.294475	-0.702320
Cl78	Cl	0.742953	-0.389362	-0.344775
H79	H	1.093885	-0.104189	-0.510692
Cl80	Cl	1.372215	-0.312887	-0.573549
Cl81	Cl	1.096264	-0.589713	0.006783
H82	H	0.900067	-0.328105	-0.290709
H83	H	1.096562	-0.651337	-0.256834
H84	H	1.231437	-0.719933	-0.265420
Cl85	Cl	1.116883	-0.121441	-0.438820
Cl86	Cl	1.335997	-0.285797	-0.394536
H87	H	1.036637	-0.732629	-0.135872
H88	H	1.020387	-0.049003	-0.600435
H89	H	0.864490	-0.128887	-0.114786
H90	H	1.201155	-0.184479	-0.837499
H91	H	1.025040	-0.052379	-0.873078
Cl92	Cl	1.256310	-0.225841	-0.813959
H93	H	0.805844	-0.074562	-0.066785
H94	H	0.716106	0.008603	0.006640
H95	H	0.479016	-0.195848	-0.173884
Cl96	Cl	0.600563	0.064614	0.056121
H97	H	0.537675	-0.250185	-0.221876
