data_functionalizedCrystal
_audit_creation_method	'MofGen! by Chris Wilmer'
_symmetry_space_group_name_H-M	'P1'
_symmetry_Int_Tables_number	1
_symmetry_cell_setting	triclinic
loop_
_symmetry_equiv_pos_as_xyz
  x,y,z
_cell_length_a	6.817900
_cell_length_b	16.255661
_cell_length_c	9.582889
_cell_angle_alpha	93.082830
_cell_angle_beta	111.207298
_cell_angle_gamma	103.488922
loop_
_atom_site_label
_atom_site_type_symbol
_atom_site_fract_x
_atom_site_fract_y
_atom_site_fract_z
V1	V	-4.066853	-0.263715	-0.208264
O2	O	-4.012501	-0.258855	0.008764
O3	O	-4.057627	-0.261758	-0.411756
O4	O	-4.017903	-0.378800	-0.205606
O5	O	-4.052500	-0.141002	-0.198813
V6	V	-4.545477	-0.249056	-0.182240
O7	O	-4.338860	-0.295871	-0.265349
O8	O	-4.723668	-0.216901	-0.125156
O9	O	-4.331497	-0.251013	0.021252
O10	O	-4.717226	-0.253917	-0.399268
O11	O	-4.677227	-0.371769	-0.191691
O12	O	-4.371220	-0.133971	-0.184898
C13	C	-3.912175	-0.257558	-0.461346
C14	C	-3.985914	-0.256725	-0.627707
C15	C	-3.861502	-0.406856	-0.198380
C16	C	-3.903023	-0.500938	-0.197553
C17	C	-3.811676	-0.723764	-0.187680
C18	C	-3.992652	-0.793145	-0.315101
C19	C	-3.979109	-0.673188	-0.196004
C20	C	-3.872143	-0.771446	-0.067125
C21	C	-4.052587	-0.839573	-0.194500
C22	C	-4.159588	-0.741339	-0.323537
C23	C	-4.038995	-0.719624	-0.075449
C24	C	-4.220114	-0.788985	-0.202905
C25	C	-3.936775	-0.577338	-0.196871
C26	C	-4.094940	-0.935422	-0.193644
C27	C	-4.140292	-0.255211	0.070834
C28	C	-4.045791	-0.256049	0.237193
C29	C	-4.190964	-0.105911	-0.192130
C30	C	-4.128681	-0.011828	-0.192949
H31	H	-3.638714	-0.695289	-0.181409
O32	O	-4.426730	-0.822670	-0.210693
C33	C	-4.532174	-0.757070	-0.218085
H34	H	-4.450450	-0.701507	-0.263574
H35	H	-4.711618	-0.782781	-0.296670
H36	H	-4.519722	-0.733877	-0.099992
O37	O	-3.970046	-0.831261	-0.436135
C38	C	-4.119721	-0.815111	-0.571003
H39	H	-4.167641	-0.754952	-0.546240
H40	H	-4.040753	-0.805486	-0.657535
H41	H	-4.271795	-0.871833	-0.618293
O42	O	-4.062077	-0.681503	0.045365
C43	C	-4.275829	-0.715988	0.038496
H44	H	-4.347709	-0.782211	-0.032940
H45	H	-4.270761	-0.721331	0.157814
H46	H	-4.381859	-0.672308	-0.014936
H47	H	-4.280713	-0.727791	-0.432019
O48	O	-3.727556	-0.787589	0.062273
C49	C	-3.585376	-0.709623	0.151527
H50	H	-3.666732	-0.655783	0.119659
H51	H	-3.547227	-0.714624	0.276317
H52	H	-3.427204	-0.695416	0.130780
