data_functionalizedCrystal
_audit_creation_method	'MofGen! by Chris Wilmer'
_symmetry_space_group_name_H-M	'P1'
_symmetry_Int_Tables_number	1
_symmetry_cell_setting	triclinic
loop_
_symmetry_equiv_pos_as_xyz
  x,y,z
_cell_length_a	14.750779
_cell_length_b	9.065218
_cell_length_c	9.065218
_cell_angle_alpha	85.015885
_cell_angle_beta	77.168743
_cell_angle_gamma	102.832359
loop_
_atom_site_label
_atom_site_type_symbol
_atom_site_fract_x
_atom_site_fract_y
_atom_site_fract_z
O1	O	0.079824	-1.928800	-0.247942
O2	O	0.079825	-1.499514	-0.265689
O3	O	0.079822	-1.723031	-0.042172
O4	O	0.079826	-1.705283	-0.471458
O5	O	-0.079829	-1.786217	0.021007
O6	O	-0.079826	-1.562700	-0.202510
O7	O	-0.079827	-1.991985	-0.184763
Zn8	Zn	-0.105175	-1.787375	-0.183606
Zn9	Zn	0.105172	-1.704125	-0.266846
O10	O	-0.079825	-1.768469	-0.408280
C11	C	-0.000001	-1.476121	-0.232394
C12	C	-0.000000	-1.312277	-0.227294
C13	C	-0.000002	-1.752918	0.044403
C14	C	0.000003	-1.747816	0.208244
N15	N	-0.248731	-1.844201	-0.126796
C16	C	-0.600545	-1.488601	-0.482242
C17	C	-0.701045	-1.528432	-0.442443
C18	C	-0.701010	-1.726399	-0.244593
C19	C	-0.600508	-1.686579	-0.284371
C20	C	-0.550284	-1.567680	-0.403197
C21	C	-0.550247	-1.765658	-0.205326
C22	C	-0.449754	-1.725846	-0.245106
C23	C	-0.399523	-1.606956	-0.363931
C24	C	-0.449791	-1.527869	-0.442977
C25	C	-0.600473	-1.884564	-0.086507
C26	C	-0.550212	-1.963643	-0.007463
C27	C	-0.449717	-1.923824	-0.047235
C28	C	-0.399486	-1.804933	-0.166060
C29	C	-0.399448	-2.002911	0.031811
C30	C	-0.298956	-1.963100	-0.007969
C31	C	-0.298993	-1.765122	-0.205840
N32	N	0.248729	-1.647310	-0.323645
C33	C	0.000000	-2.015378	-0.218059
C34	C	0.000006	-2.179219	-0.223161
C35	C	0.000001	-1.738581	-0.494856
C36	C	0.000003	-1.743680	-0.658700
H37	H	-0.258098	-1.668292	-0.302590
H38	H	-0.682301	-1.916978	-0.054128
F39	F	-0.754530	-1.444255	-0.526590
H40	H	-0.741914	-1.823211	-0.147847
H41	H	-0.591116	-2.060455	0.089283
H42	H	-0.440354	-2.099730	0.128551
H43	H	-0.258032	-2.027496	0.056397
H44	H	-0.317695	-1.574547	-0.396323
H45	H	-0.408897	-1.431039	-0.539727
F46	F	-0.547091	-1.362040	-0.608698
