data_functionalizedCrystal
_audit_creation_method	'MofGen! by Chris Wilmer'
_symmetry_space_group_name_H-M	'P1'
_symmetry_Int_Tables_number	1
_symmetry_cell_setting	triclinic
loop_
_symmetry_equiv_pos_as_xyz
  x,y,z
_cell_length_a	10.686220
_cell_length_b	10.685194
_cell_length_c	12.759393
_cell_angle_alpha	94.402269
_cell_angle_beta	85.651479
_cell_angle_gamma	99.069756
loop_
_atom_site_label
_atom_site_type_symbol
_atom_site_fract_x
_atom_site_fract_y
_atom_site_fract_z
Zn1	Zn	1.901865	-0.356253	0.449981
Zn2	Zn	1.885485	-0.568578	0.261787
Zn3	Zn	1.689595	-0.372621	0.286808
Zn4	Zn	1.673348	-0.584780	0.449918
O5	O	1.787573	-0.470558	0.362123
O6	O	2.077308	-0.370788	0.414571
O7	O	1.859443	-0.542653	0.118084
O8	O	1.731407	-0.192802	0.318951
O9	O	2.065273	-0.526782	0.276306
O10	O	1.887362	-0.180777	0.438834
O11	O	1.715524	-0.398684	0.136467
O12	O	1.509824	-0.414395	0.318890
O13	O	1.703717	-0.554396	0.596948
O14	O	1.497887	-0.570267	0.438726
O15	O	1.871608	-0.386499	0.596995
O16	O	1.843690	-0.748374	0.276245
O17	O	1.687834	-0.760278	0.414464
C18	C	1.457802	-0.495866	0.381517
C19	C	1.316722	-0.506724	0.389837
C20	C	1.762256	-0.800386	0.342653
C21	C	1.751541	-0.941478	0.334352
C22	C	2.118632	-0.445152	0.342655
C23	C	2.259710	-0.434325	0.334358
C24	C	1.787677	-0.470429	0.636158
C25	C	1.787722	-0.470374	0.752936
C26	C	1.813024	-0.139440	0.381691
C27	C	1.823870	0.001663	0.390029
C28	C	1.787549	-0.470589	0.089155
C29	C	1.787778	-0.470268	-0.027615
C30	C	1.875149	-0.382936	0.807824
C31	C	1.875175	-0.382880	0.917550
C32	C	1.700341	-0.557710	0.917490
C33	C	1.700311	-0.557759	0.807766
H34	H	1.318830	-0.364036	0.280495
Cl35	Cl	1.985033	-0.273076	0.738899
Cl36	Cl	1.225442	-0.615268	0.472993
H37	H	1.893993	-0.939076	0.444053
H38	H	1.629177	-0.628859	0.962146
H39	H	1.681403	-1.000748	0.280335
Cl40	Cl	1.985100	-0.272963	0.986547
Cl41	Cl	1.590386	-0.667684	0.738759
