data_functionalizedCrystal
_audit_creation_method	'MofGen! by Chris Wilmer'
_symmetry_space_group_name_H-M	'P1'
_symmetry_Int_Tables_number	1
_symmetry_cell_setting	triclinic
loop_
_symmetry_equiv_pos_as_xyz
  x,y,z
_cell_length_a	14.044220
_cell_length_b	17.699083
_cell_length_c	16.776229
_cell_angle_alpha	90.007545
_cell_angle_beta	90.002022
_cell_angle_gamma	88.235946
loop_
_atom_site_label
_atom_site_type_symbol
_atom_site_fract_x
_atom_site_fract_y
_atom_site_fract_z
O1	O	-1.257290	-0.182444	-0.066207
O2	O	-0.981336	-0.175860	-0.066227
O3	O	-1.127109	-0.069500	-0.066209
O4	O	-1.111516	-0.288803	-0.066224
O5	O	-1.127090	-0.069492	0.066367
O6	O	-0.981317	-0.175852	0.066350
O7	O	-1.257271	-0.182435	0.066370
Zn8	Zn	-1.119290	-0.179142	0.087409
Zn9	Zn	-1.119316	-0.179153	-0.087266
O10	O	-1.111497	-0.288795	0.066352
C11	C	-0.946018	-0.172974	0.000059
C12	C	-0.840812	-0.164378	0.000052
C13	C	-1.126541	-0.041261	0.000079
C14	C	-1.124865	0.042873	0.000079
C15	C	-1.292588	-0.185321	0.000082
C16	C	-1.397794	-0.193917	0.000085
C17	C	-0.648187	-0.148663	0.000069
C18	C	-0.590414	-0.209629	0.000068
C19	C	-0.483230	-0.200885	0.000077
C20	C	-0.755381	-0.157406	0.000059
C21	C	-1.112066	-0.317035	0.000062
C22	C	-1.113742	-0.401168	0.000057
N23	N	-1.119280	-0.179134	0.206620
C24	C	-1.210431	0.085591	0.000087
C25	C	-1.208850	0.164644	0.000080
C26	C	-1.121702	0.200976	0.000071
C27	C	-1.036130	0.158252	0.000061
C28	C	-1.037712	0.079201	0.000063
C29	C	-1.029750	0.477055	0.000054
C30	C	-1.028175	0.556112	0.000055
C31	C	-1.200888	0.562498	0.000071
C32	C	-1.202470	0.483447	0.000073
C33	C	-1.116898	0.440730	0.000059
C34	C	-1.118613	0.355012	0.000065
C35	C	-1.119987	0.286692	0.000070
N36	N	-1.119334	-0.179155	-0.206477
C37	C	-1.183848	-0.132061	0.248345
C38	C	-1.183853	-0.132061	0.331798
C39	C	-1.119294	-0.179138	0.373523
C40	C	-1.054719	-0.226214	0.331793
C41	C	-1.054710	-0.226210	0.248342
C42	C	-1.054754	-0.226231	0.668340
C43	C	-1.054770	-0.226233	0.751796
C44	C	-1.183897	-0.132082	0.751795
C45	C	-1.183888	-0.132078	0.668345
C46	C	-1.119310	-0.179150	0.626621
C47	C	-1.119304	-0.179149	0.536133
C48	C	-1.119304	-0.179144	0.464010
H49	H	-0.621449	-0.268391	0.000060
C50	C	-0.680501	-0.014655	0.000066
C51	C	-0.606299	-0.069340	0.000071
H52	H	-0.654630	0.034314	0.000069
H53	H	-0.718590	-0.020599	-0.046165
H54	H	-0.718597	-0.020588	0.046300
H55	H	-0.568207	-0.063410	-0.046167
H56	H	-0.568194	-0.063393	0.046306
H57	H	-1.281396	0.056016	0.000099
H58	H	-1.236429	-0.093729	0.365770
H59	H	-1.278527	0.199422	0.000087
C60	C	-0.927124	-0.319304	0.676735
C61	C	-0.983778	-0.277979	0.622485
H62	H	-0.883309	-0.351256	0.648421
H63	H	-0.893116	-0.285488	0.709293
H64	H	-0.966525	-0.349205	0.709274
H65	H	-0.944377	-0.248073	0.589949
H66	H	-1.017788	-0.311800	0.589913
H67	H	-0.965173	0.187840	0.000049
C68	C	-1.373038	0.497702	0.000079
C69	C	-1.298265	0.443511	0.000078
H70	H	-1.432177	0.473046	0.000075
H71	H	-1.368826	0.528405	0.046308
H72	H	-1.368826	0.528398	-0.046157
H73	H	-1.302472	0.412819	0.046317
H74	H	-1.302478	0.412795	-0.046156
C75	C	-1.275170	0.686514	0.000063
C76	C	-1.294954	0.609455	0.000074
H77	H	-1.333241	0.715500	0.000062
H78	H	-1.239427	0.698162	0.046289
H79	H	-1.239435	0.698141	-0.046176
H80	H	-1.330682	0.597827	0.046317
H81	H	-1.330711	0.597803	-0.046156
H82	H	-0.957205	0.585691	0.000050
H83	H	-0.968035	0.044420	0.000056
C84	C	-0.858868	0.478694	0.000056
C85	C	-0.935690	0.430107	0.000054
H86	H	-0.800798	0.449706	0.000063
H87	H	-0.861847	0.509650	-0.046175
H88	H	-0.861853	0.509669	0.046290
H89	H	-0.932709	0.399136	-0.046183
H90	H	-0.932710	0.399138	0.046290
H91	H	-1.236423	-0.093728	0.214378
H92	H	-1.236461	-0.093745	0.634374
C93	C	-1.204721	-0.030483	0.845652
C94	C	-1.254873	-0.080329	0.797661
H95	H	-1.248540	0.001467	0.873962
H96	H	-1.166283	-0.058520	0.882442
H97	H	-1.165339	-0.000582	0.813096
H98	H	-1.294250	-0.110233	0.830218
H99	H	-1.293328	-0.052289	0.760867
C100	C	-0.925774	-0.233880	0.845668
C101	C	-0.983796	-0.277979	0.797666
H102	H	-0.881966	-0.265826	0.873990
H103	H	-0.891759	-0.200067	0.813124
H104	H	-0.964248	-0.205850	0.882455
H105	H	-0.945322	-0.306005	0.760875
H106	H	-1.017813	-0.311806	0.830213
H107	H	-1.002149	-0.264543	0.365771
C108	C	-0.927079	-0.319285	0.256720
C109	C	-0.983739	-0.277958	0.202475
H110	H	-0.883266	-0.351234	0.228402
H111	H	-0.893070	-0.285469	0.289277
H112	H	-0.966476	-0.349188	0.289260
H113	H	-0.944343	-0.248051	0.169938
H114	H	-1.017751	-0.311778	0.169904
