data_functionalizedCrystal
_audit_creation_method	'MofGen! by Chris Wilmer'
_symmetry_space_group_name_H-M	'P1'
_symmetry_Int_Tables_number	1
_symmetry_cell_setting	triclinic
loop_
_symmetry_equiv_pos_as_xyz
  x,y,z
_cell_length_a	10.723022
_cell_length_b	15.995350
_cell_length_c	15.072220
_cell_angle_alpha	89.994453
_cell_angle_beta	90.005562
_cell_angle_gamma	83.979800
loop_
_atom_site_label
_atom_site_type_symbol
_atom_site_fract_x
_atom_site_fract_y
_atom_site_fract_z
O1	O	1.655696	0.117420	0.073772
O2	O	1.292400	0.128662	0.073775
O3	O	1.483978	0.001211	0.073772
O4	O	1.464117	0.244872	0.073774
O5	O	1.483954	0.001227	-0.073793
O6	O	1.292375	0.128678	-0.073791
O7	O	1.655671	0.117436	-0.073793
Zn8	Zn	1.474019	0.123060	-0.097221
Zn9	Zn	1.474051	0.123039	0.097202
O10	O	1.464092	0.244888	-0.073791
C11	C	1.245898	0.127853	-0.000008
C12	C	1.107375	0.125406	-0.000007
C13	C	1.059751	0.051909	-0.000007
C14	C	0.916581	0.049378	-0.000005
C15	C	1.483145	-0.029981	-0.000009
C16	C	1.480683	-0.122945	-0.000004
C17	C	1.471843	-0.460744	-0.000006
C18	C	1.335404	-0.414093	0.000326
C19	C	1.337866	-0.317388	-0.000007
C20	C	1.476228	-0.293158	-0.000004
C21	C	1.543510	-0.333840	-0.084270
C22	C	1.540083	-0.430495	-0.084341
C23	C	1.542929	-0.430855	0.083468
C24	C	1.542897	-0.333910	0.084582
C25	C	1.478713	-0.198446	-0.000006
C26	C	1.469361	-0.555456	-0.000011
C27	C	1.702172	0.118246	-0.000009
C28	C	1.840696	0.120693	-0.000004
C29	C	1.464925	0.276079	-0.000008
C30	C	1.467387	0.369044	-0.000007
N31	N	1.474006	0.123074	-0.229910
C32	C	1.474029	0.123055	-0.410907
C33	C	1.371503	0.191226	-0.448575
C34	C	1.371152	0.191037	-0.551401
C35	C	1.474051	0.123037	-0.589111
C36	C	1.446146	0.035406	-0.551769
C37	C	1.445396	0.035815	-0.448912
C38	C	1.604776	0.141727	-0.448796
C39	C	1.603913	0.143697	-0.551661
C40	C	1.474067	0.123022	-0.689825
C41	C	1.474011	0.123064	-0.310194
N42	N	1.474074	0.123018	0.229891
H43	H	1.284976	-0.289277	0.060398
H44	H	1.284601	-0.289823	-0.060514
H45	H	1.681069	0.092027	-0.424429
H46	H	0.875572	-0.013550	0.000017
H47	H	1.275012	0.179349	-0.422744
H48	H	1.042154	0.186455	-0.000002
H49	H	1.387695	0.256141	-0.576650
O50	O	1.255428	0.176535	-0.580724
C51	C	1.226252	0.097984	-0.548973
H52	H	1.316646	0.056753	-0.532824
H53	H	1.171953	0.066036	-0.601928
H54	H	1.166566	0.107645	-0.486494
H55	H	0.881696	0.183624	-0.000009
O56	O	1.137499	-0.020950	0.000152
C57	C	1.114827	-0.067907	0.076566
H58	H	1.070269	-0.023996	0.129982
H59	H	1.207225	-0.100879	0.102222
H60	H	1.048657	-0.116815	0.059287
O61	O	1.487557	-0.300383	-0.159060
C62	C	1.360565	-0.315971	-0.160025
H63	H	1.347823	-0.372657	-0.116374
H64	H	1.331221	-0.329315	-0.230895
H65	H	1.299962	-0.258545	-0.133589
O66	O	1.331646	0.016515	-0.420200
C67	C	1.274086	0.083523	-0.368951
H68	H	1.348930	0.122089	-0.341507
H69	H	1.220601	0.057396	-0.311657
H70	H	1.206183	0.125269	-0.412247
O71	O	1.662993	-0.467957	0.084269
C72	C	1.725844	-0.440724	0.159404
H73	H	1.677281	-0.377800	0.182881
H74	H	1.827297	-0.433183	0.141357
H75	H	1.723778	-0.489167	0.214728
H76	H	1.281102	-0.433992	-0.059766
H77	H	1.643797	-0.317970	0.089672
H78	H	1.280880	-0.432944	0.060754
O79	O	1.481386	-0.452751	-0.159393
C80	C	1.374448	-0.492314	-0.136385
H81	H	1.386215	-0.519145	-0.066455
H82	H	1.362740	-0.545349	-0.185219
H83	H	1.287915	-0.444441	-0.138875
H84	H	1.640254	-0.462168	-0.088162
H85	H	1.645161	-0.319130	-0.087402
O86	O	1.489543	-0.455700	0.159582
C87	C	1.387087	-0.500562	0.138533
H88	H	1.351177	-0.482013	0.069348
H89	H	1.308920	-0.485043	0.189014
H90	H	1.418313	-0.570905	0.140217
H91	H	1.517260	-0.016494	-0.423991
H92	H	1.493705	-0.306951	0.146920
O93	O	1.391031	0.269097	-0.418966
C94	C	1.497763	0.263114	-0.363771
H95	H	1.515104	0.196692	-0.335798
H96	H	1.481683	0.309974	-0.306889
H97	H	1.582807	0.277838	-0.403991
O98	O	1.532963	-0.026540	-0.581018
C99	C	1.620504	0.008539	-0.635785
H100	H	1.576364	0.070894	-0.663927
H101	H	1.649007	-0.036540	-0.692563
H102	H	1.706928	0.019628	-0.595154
O103	O	1.333771	0.015378	-0.582458
C104	C	1.310123	-0.063482	-0.548272
H105	H	1.402601	-0.100824	-0.529067
H106	H	1.261153	-0.099485	-0.600884
H107	H	1.247493	-0.053909	-0.487224
H108	H	1.631710	0.204326	-0.422863
H109	H	1.625089	0.208174	-0.576054
H110	H	1.683754	0.097342	-0.577330
