data_functionalizedCrystal
_audit_creation_method	'MofGen! by Chris Wilmer'
_symmetry_space_group_name_H-M	'P1'
_symmetry_Int_Tables_number	1
_symmetry_cell_setting	triclinic
loop_
_symmetry_equiv_pos_as_xyz
  x,y,z
_cell_length_a	14.519709
_cell_length_b	8.559649
_cell_length_c	7.681481
_cell_angle_alpha	85.069100
_cell_angle_beta	95.739713
_cell_angle_gamma	76.729405
loop_
_atom_site_label
_atom_site_type_symbol
_atom_site_fract_x
_atom_site_fract_y
_atom_site_fract_z
O1	O	1.199063	0.224489	-0.146196
O2	O	1.699063	0.724489	0.353804
O3	O	0.928812	0.249156	-0.146249
O4	O	1.428812	0.749156	0.353751
O5	O	1.087747	0.004288	-0.146216
O6	O	1.587747	0.504288	0.353784
O7	O	1.040128	0.469357	-0.146229
O8	O	1.540128	0.969357	0.353771
O9	O	1.107314	-0.025920	0.146646
O10	O	1.607314	0.474080	0.646646
O11	O	0.948379	0.218948	0.146613
O12	O	1.448379	0.718948	0.646613
O13	O	1.218630	0.194281	0.146666
O14	O	1.718630	0.694281	0.646666
Zn15	Zn	1.086611	0.201819	0.193138
Zn16	Zn	1.586611	0.701819	0.693138
Zn17	Zn	1.060831	0.241618	-0.192720
Zn18	Zn	1.560831	0.741618	0.307280
O19	O	1.059695	0.439149	0.146633
O20	O	1.559695	0.939149	0.646633
C21	C	1.101139	-0.070335	0.000213
C22	C	1.601139	0.429665	0.500213
C23	C	1.111880	-0.247684	0.000205
C24	C	1.611880	0.252316	0.500205
C25	C	0.904318	0.232903	0.000175
C26	C	1.404318	0.732903	0.500175
C27	C	0.802183	0.229461	0.000155
C28	C	1.302183	0.729461	0.500155
C29	C	0.428202	0.216774	0.000235
C30	C	0.928202	0.716774	0.500235
C31	C	0.532256	0.220297	0.000212
C32	C	1.032256	0.720297	0.500212
C33	C	0.615189	0.223117	0.000193
C34	C	1.115189	0.723117	0.500193
C35	C	0.719249	0.226641	0.000174
C36	C	1.219249	0.726641	0.500174
C37	C	1.243124	0.210534	0.000238
C38	C	1.743124	0.710534	0.500238
C39	C	1.345258	0.213977	0.000247
C40	C	1.845258	0.713977	0.500247
C41	C	1.046303	0.513773	0.000201
C42	C	1.546303	1.013773	0.500201
C43	C	1.035561	0.691123	0.000197
C44	C	1.535561	1.191123	0.500197
N45	N	1.104212	0.174655	0.456476
N46	N	1.604212	0.674655	0.956476
N47	N	1.043238	0.268769	-0.456058
N48	N	1.543238	0.768769	0.043942
H49	H	0.962003	-0.225590	0.000188
H50	H	1.462003	0.274410	0.500188
O51	O	1.199602	-0.347077	-0.000085
O52	O	1.699602	0.152923	0.499915
C53	C	1.299783	-0.541651	-0.151718
C54	C	1.799783	-0.041651	0.348282
C55	C	1.200406	-0.429133	-0.151628
C56	C	1.700406	0.070867	0.348372
H57	H	1.300460	-0.608048	-0.274209
H58	H	1.800460	-0.108048	0.225791
H59	H	1.355547	-0.467124	-0.151831
H60	H	1.855547	0.032876	0.348169
H61	H	1.316897	-0.633168	-0.029090
H62	H	1.816897	-0.133168	0.470910
H63	H	1.183202	-0.337595	-0.274235
H64	H	1.683202	0.162405	0.225765
H65	H	1.144698	-0.503764	-0.151424
H66	H	1.644698	-0.003764	0.348576
H67	H	0.980995	0.364830	0.468732
H68	H	1.480995	0.864830	0.968732
H69	H	1.166465	0.078599	0.531694
H70	H	1.666465	0.578599	1.031694
