data_functionalizedCrystal
_audit_creation_method	'MofGen! by Chris Wilmer'
_symmetry_space_group_name_H-M	'P1'
_symmetry_Int_Tables_number	1
_symmetry_cell_setting	triclinic
loop_
_symmetry_equiv_pos_as_xyz
  x,y,z
_cell_length_a	10.654554
_cell_length_b	10.654552
_cell_length_c	9.130313
_cell_angle_alpha	90.002087
_cell_angle_beta	89.999100
_cell_angle_gamma	95.513746
loop_
_atom_site_label
_atom_site_type_symbol
_atom_site_fract_x
_atom_site_fract_y
_atom_site_fract_z
O1	O	1.667832	-0.176429	-0.121794
O2	O	1.302354	-0.193229	-0.121794
O3	O	1.493495	-0.002090	-0.121797
O4	O	1.476691	-0.367568	-0.121791
O5	O	1.493492	-0.002080	0.121802
O6	O	1.302352	-0.193219	0.121805
O7	O	1.667829	-0.176419	0.121805
Cu8	Cu	1.485090	-0.184818	0.144048
Cu9	Cu	1.485093	-0.184830	-0.144036
O10	O	1.476689	-0.367558	0.121808
C11	C	1.255555	-0.191989	0.000005
C12	C	1.116112	-0.188295	0.000005
C13	C	0.933549	-0.068808	-0.000010
C14	C	1.064571	-0.072279	0.000001
C15	C	1.036624	-0.300848	0.000012
C16	C	0.905605	-0.297376	0.000012
C17	C	0.882016	0.047215	-0.000028
C18	C	0.961495	0.159769	-0.000033
C19	C	1.092517	0.156299	-0.000023
C20	C	1.144059	0.040274	-0.000007
C21	C	1.492259	0.044713	-0.000001
C22	C	1.488566	0.184156	-0.000013
C23	C	1.714628	-0.177659	0.000003
C24	C	1.854071	-0.181353	-0.000006
N25	N	1.485096	-0.184829	-0.346659
C26	C	1.486836	0.249663	-0.132796
C27	C	1.483355	0.380683	-0.132791
C28	C	1.483342	0.380680	0.132794
C29	C	1.486813	0.249661	0.132787
C30	C	1.488589	0.184159	-0.265596
C31	C	1.486859	0.249665	-0.398391
C32	C	1.483379	0.380686	-0.398385
C33	C	1.481628	0.446199	-0.265585
C34	C	1.477924	0.585639	0.000006
C35	C	1.481614	0.446196	-0.000001
C36	C	1.569892	-0.100359	-0.423312
C37	C	1.569896	-0.100352	-0.576649
C38	C	1.400297	-0.269287	-0.576666
C39	C	1.400300	-0.269300	-0.423332
C40	C	1.654689	-0.015888	-0.346639
C41	C	1.739491	0.068589	-0.423292
C42	C	1.739495	0.068597	-0.576629
C43	C	1.654697	-0.015873	-0.653313
N44	N	1.485097	-0.184809	0.346670
H45	H	0.840891	-0.389020	0.000021
H46	H	1.331252	-0.338084	-0.360920
H47	H	1.488273	0.196314	-0.506511
F48	F	0.742573	0.050918	-0.000049
F49	F	1.492299	0.044716	-0.265612
F50	F	1.091484	-0.424320	0.000022
H51	H	1.481917	0.434031	0.240913
H52	H	1.808552	0.137373	-0.639039
H53	H	1.331256	-0.338058	-0.639112
H54	H	0.919521	0.254231	-0.000058
F55	F	1.654717	-0.015868	-0.816509
F56	F	1.829743	0.158473	-0.341680
F57	F	1.481525	0.450398	-0.539714
F58	F	1.488661	0.179941	0.274111
F59	F	1.654686	-0.015886	-0.183445
F60	F	1.283506	0.036587	0.000088
F61	F	1.477911	0.585643	-0.265587
H62	H	1.157226	0.247945	-0.000013
