data_functionalizedCrystal
_audit_creation_method	'MofGen! by Chris Wilmer'
_symmetry_space_group_name_H-M	'P1'
_symmetry_Int_Tables_number	1
_symmetry_cell_setting	triclinic
loop_
_symmetry_equiv_pos_as_xyz
  x,y,z
_cell_length_a	19.288864
_cell_length_b	13.330367
_cell_length_c	19.288857
_cell_angle_alpha	89.993197
_cell_angle_beta	96.865323
_cell_angle_gamma	90.021397
loop_
_atom_site_label
_atom_site_type_symbol
_atom_site_fract_x
_atom_site_fract_y
_atom_site_fract_z
O1	O	0.921349	0.083750	-0.086648
O2	O	1.421349	0.583750	0.413352
O3	O	0.719088	0.083682	-0.098336
O4	O	1.219088	0.583682	0.401664
O5	O	0.826066	0.083706	0.008639
O6	O	1.326066	0.583706	0.508639
O7	O	0.814371	0.083726	-0.193623
O8	O	1.314371	0.583726	0.306377
O9	O	0.826050	-0.083141	0.008641
O10	O	1.326050	0.416859	0.508641
O11	O	0.719073	-0.083165	-0.098334
O12	O	1.219073	0.416835	0.401666
O13	O	0.921334	-0.083097	-0.086645
O14	O	1.421334	0.416903	0.413355
Cu15	Cu	0.820202	-0.098366	-0.092489
Cu16	Cu	1.320202	0.401634	0.407511
Cu17	Cu	0.820220	0.098950	-0.092492
Cu18	Cu	1.320220	0.598950	0.407508
O19	O	0.814356	-0.083121	-0.193620
O20	O	1.314356	0.416879	0.306380
C21	C	0.693204	0.000250	-0.097959
C22	C	1.193204	0.500250	0.402041
C23	C	0.616100	0.000223	-0.096830
C24	C	1.116100	0.500223	0.403170
N25	N	0.820194	-0.237147	-0.092487
N26	N	1.320194	0.262853	0.407513
C27	C	0.571402	0.000245	-0.159598
C28	C	1.071402	0.500245	0.340402
C29	C	0.498955	0.000256	-0.158537
C30	C	0.998955	0.500256	0.341463
C31	C	0.471210	0.000265	-0.094705
C32	C	0.971210	0.500265	0.405295
C33	C	0.515917	0.000238	-0.031929
C34	C	1.015917	0.500238	0.468071
C35	C	0.588363	0.000217	-0.032991
C36	C	1.088363	0.500217	0.467009
C37	C	0.362954	0.058748	-0.044527
C38	C	0.862954	0.558748	0.455473
C39	C	0.290510	0.058775	-0.043467
C40	C	0.790510	0.558775	0.456533
C41	C	0.247764	0.000326	-0.091425
C42	C	0.747764	0.500326	0.408575
C43	C	0.277470	-0.058138	-0.140456
C44	C	0.777470	0.441862	0.359544
C45	C	0.349915	-0.058159	-0.141518
C46	C	0.849915	0.441841	0.358482
C47	C	0.392656	0.000287	-0.093546
C48	C	0.892656	0.500287	0.406454
C49	C	0.124510	0.000358	-0.153048
C50	C	0.624510	0.500358	0.346952
C51	C	0.052062	0.000363	-0.151984
C52	C	0.552062	0.500363	0.348016
C53	C	0.069026	0.000354	-0.025374
C54	C	0.569026	0.500354	0.474626
C55	C	0.141472	0.000340	-0.026439
C56	C	0.641472	0.500340	0.473561
C57	C	0.169210	0.000346	-0.090278
C58	C	0.669210	0.500346	0.409722
C59	C	0.772848	-0.709781	-0.139842
C60	C	1.272848	-0.209781	0.360158
C61	C	0.867610	-0.709727	-0.045137
C62	C	1.367610	-0.209727	0.454863
C63	C	0.867603	-0.604709	-0.045134
C64	C	1.367603	-0.104709	0.454866
C65	C	0.820218	-0.552222	-0.092488
C66	C	1.320218	-0.052222	0.407512
C67	C	0.772840	-0.604753	-0.139843
C68	C	1.272840	-0.104753	0.360157
C69	C	0.914984	-0.552170	0.002215
C70	C	1.414984	-0.052170	0.502215
C71	C	0.914978	-0.447146	0.002219
C72	C	1.414978	0.052854	0.502219
C73	C	0.867589	-0.394656	-0.045132
C74	C	1.367589	0.105344	0.454868
C75	C	0.820210	-0.447194	-0.092488
C76	C	1.320210	0.052806	0.407512
C77	C	0.772825	-0.394706	-0.139842
C78	C	1.272825	0.105294	0.360158
C79	C	0.725441	-0.447242	-0.187195
C80	C	1.225441	0.052758	0.312805
C81	C	0.725451	-0.552263	-0.187193
C82	C	1.225451	-0.052263	0.312807
C83	C	0.867579	-0.289635	-0.045134
C84	C	1.367579	0.210365	0.454866
C85	C	0.772817	-0.289678	-0.139842
C86	C	1.272817	0.210322	0.360158
C87	C	0.947218	0.000337	-0.087022
C88	C	1.447218	0.500337	0.412978
C89	C	1.024321	0.000370	-0.088151
C90	C	1.524321	0.500370	0.411849
C91	C	0.825683	0.000281	0.034516
C92	C	1.325683	0.500281	0.534516
C93	C	0.824556	0.000278	0.111620
C94	C	1.324556	0.500278	0.611620
N95	N	0.820233	0.237732	-0.092489
N96	N	1.320233	0.737732	0.407511
C97	C	0.814739	0.000306	-0.219498
C98	C	1.314739	0.500306	0.280502
C99	C	0.815866	0.000316	-0.296602
C100	C	1.315866	0.500316	0.203398
C101	C	0.824038	0.091226	0.147830
C102	C	1.324038	0.591226	0.647830
C103	C	0.822970	0.091233	0.220276
C104	C	1.322970	0.591233	0.720276
C105	C	0.822432	0.000287	0.256511
C106	C	1.322432	0.500287	0.756511
C107	C	0.822946	-0.090673	0.220293
C108	C	1.322946	0.409327	0.720293
C109	C	0.824008	-0.090678	0.147847
C110	C	1.324008	0.409322	0.647847
C111	C	0.861427	-0.069370	0.376744
C112	C	1.361427	0.430630	0.876744
C113	C	0.860370	-0.069362	0.449189
C114	C	1.360370	0.430638	0.949189
C115	C	0.819155	0.000297	0.479957
C116	C	1.319155	0.500297	0.979957
C117	C	0.779006	0.069965	0.438273
C118	C	1.279006	0.569965	0.938273
C119	C	0.780067	0.069960	0.365828
C120	C	1.280067	0.569960	0.865828
C121	C	0.821281	0.000282	0.335066
C122	C	1.321281	0.500282	0.835066
C123	C	0.817477	0.091260	0.594721
C124	C	1.317477	0.591260	1.094721
C125	C	0.816404	0.091263	0.667168
C126	C	1.316404	0.591263	1.167168
C127	C	0.816388	-0.090647	0.667184
C128	C	1.316388	0.409353	1.167184
C129	C	0.817454	-0.090647	0.594738
C130	C	1.317454	0.409353	1.094738
C131	C	0.818002	0.000309	0.558511
C132	C	1.318002	0.500309	1.058511
H133	H	0.593981	0.000252	-0.211581
H134	H	1.093981	0.500252	0.288419
H135	H	0.462555	0.000271	-0.209652
H136	H	0.962555	0.500271	0.290348
H137	H	0.493322	0.000259	0.020044
H138	H	0.993322	0.500259	0.520044
H139	H	0.397753	0.106351	-0.005471
H140	H	0.897753	0.606351	0.494529
C141	C	0.818031	-0.190699	0.554907
C142	C	1.318031	0.309301	1.054907
N143	N	0.818464	-0.266063	0.524907
N144	N	1.318464	0.233937	1.024907
C145	C	0.967103	-0.609912	0.054300
C146	C	1.467103	-0.109912	0.554300
N147	N	1.006360	-0.653409	0.093534
N148	N	1.506360	-0.153409	0.593534
C149	C	0.637533	0.000199	0.036062
C150	C	1.137533	0.500199	0.536062
N151	N	0.674569	0.000189	0.088074
N152	N	1.174569	0.500189	0.588074
H153	H	0.953559	-0.404378	0.040777
H154	H	1.453559	0.095622	0.540777
H155	H	0.734227	-0.246949	-0.178401
H156	H	1.234227	0.253051	0.321599
C157	C	0.906774	-0.146002	0.342907
C158	C	1.406774	0.353998	0.842907
N159	N	0.940928	-0.203719	0.317422
N160	N	1.440928	0.296281	0.817422
C161	C	0.919698	-0.231851	0.006952
C162	C	1.419698	0.268149	0.506952
N163	N	0.958955	-0.188329	0.046187
N164	N	1.458955	0.311671	0.546187
C165	C	0.824635	0.191281	0.107983
C166	C	1.324635	0.691281	0.607983
N167	N	0.825082	0.266643	0.077970
N168	N	1.325082	0.766643	0.577970
H169	H	0.893064	-0.126086	0.483123
H170	H	1.393064	0.373914	0.983123
H171	H	0.822544	0.165297	0.249763
H172	H	1.322544	0.665297	0.749763
H173	H	0.747375	0.126684	0.331891
H174	H	1.247375	0.626684	0.831891
C175	C	0.720724	-0.767570	-0.191924
C176	C	1.220724	-0.267570	0.308076
N177	N	0.681463	-0.811098	-0.231152
N178	N	1.181463	-0.311098	0.268848
H179	H	0.745444	0.126688	0.463323
H180	H	1.245444	0.626688	0.963323
H181	H	0.906193	-0.752466	-0.006586
H182	H	1.406193	-0.252466	0.493414
H183	H	0.686863	-0.404494	-0.225754
H184	H	1.186863	0.095506	0.274246
C185	C	0.815797	-0.190689	0.707039
C186	C	1.315797	0.309311	1.207039
N187	N	0.815351	-0.266044	0.737062
N188	N	1.315351	0.233956	1.237062
C189	C	0.822354	-0.190715	0.260153
C190	C	1.322354	0.309285	0.760153
N191	N	0.821905	-0.266069	0.290176
N192	N	1.321905	0.233931	0.790176
H193	H	0.374099	-0.105766	-0.181438
H194	H	0.874099	0.394234	0.318562
H195	H	0.686874	-0.595044	-0.225748
H196	H	1.186874	-0.095044	0.274252
C197	C	0.230455	-0.122442	-0.193213
C198	C	0.730455	0.377558	0.306787
N199	N	0.195040	-0.170873	-0.232948
N200	N	0.695040	0.329127	0.267052
H201	H	0.817919	0.165321	0.565223
H202	H	1.317919	0.665321	1.065223
C203	C	0.824581	-0.190733	0.108016
C204	C	1.324581	0.309267	0.608016
N205	N	0.825015	-0.266096	0.078015
N206	N	1.325015	0.233904	0.578015
C207	C	0.815870	0.191319	0.707002
C208	C	1.315870	0.691319	1.207002
N209	N	0.815482	0.266683	0.737008
N210	N	1.315482	0.766683	1.237008
H211	H	0.147095	0.000349	-0.205029
H212	H	0.647095	0.500349	0.294971
H213	H	0.046436	0.000424	0.026600
H214	H	0.546436	0.500424	0.526600
C215	C	0.002893	0.000372	-0.221038
C216	C	0.502893	0.500372	0.278962
N217	N	-0.034142	0.000377	-0.273051
N218	N	0.465858	0.500377	0.226949
H219	H	0.177867	0.000327	0.024674
H220	H	0.677867	0.500327	0.524674
H221	H	0.266329	0.106384	-0.003546
H222	H	0.766329	0.606384	0.496454
