data_functionalizedCrystal
_audit_creation_method	'MofGen! by Chris Wilmer'
_symmetry_space_group_name_H-M	'P1'
_symmetry_Int_Tables_number	1
_symmetry_cell_setting	triclinic
loop_
_symmetry_equiv_pos_as_xyz
  x,y,z
_cell_length_a	19.077105
_cell_length_b	12.827892
_cell_length_c	19.076919
_cell_angle_alpha	92.275535
_cell_angle_beta	90.076224
_cell_angle_gamma	87.711903
loop_
_atom_site_label
_atom_site_type_symbol
_atom_site_fract_x
_atom_site_fract_y
_atom_site_fract_z
Zn1	Zn	1.058323	-0.505562	-0.440440
Zn2	Zn	1.062981	-0.673587	-0.322941
Zn3	Zn	0.945540	-0.491563	-0.318233
Zn4	Zn	0.940802	-0.672957	-0.435693
O5	O	1.001912	-0.585917	-0.379327
O6	O	1.157274	-0.533973	-0.428810
O7	O	1.051334	-0.643846	-0.223985
O8	O	0.960534	-0.347187	-0.334460
O9	O	1.160695	-0.657421	-0.342484
O10	O	1.043396	-0.357472	-0.424245
O11	O	0.965050	-0.510114	-0.220526
O12	O	0.846579	-0.509503	-0.329857
O13	O	0.952460	-0.656347	-0.534655
O14	O	0.843098	-0.642772	-0.416155
O15	O	1.038802	-0.533362	-0.538142
O16	O	1.046740	-0.819737	-0.337881
O17	O	0.956976	-0.819274	-0.420720
C18	C	0.819342	-0.574551	-0.371981
C19	C	0.741237	-0.569714	-0.368855
C20	C	0.702753	-0.636925	-0.412246
C21	C	0.629365	-0.632367	-0.409312
C22	C	0.594463	-0.560602	-0.362983
C23	C	0.632953	-0.493385	-0.319590
C24	C	0.706339	-0.497938	-0.322528
C25	C	0.375174	-0.539528	-0.349389
C26	C	0.301782	-0.534981	-0.346453
C27	C	0.298199	-0.673963	-0.436177
C28	C	0.371587	-0.678514	-0.439108
C29	C	0.410071	-0.611293	-0.395717
N30	N	0.519449	-0.555944	-0.359982
N31	N	0.485083	-0.615947	-0.398723
C32	C	1.001868	-0.857424	-0.379313
C33	C	1.001913	-0.973581	-0.379333
C34	C	1.046380	-1.025566	-0.338391
C35	C	1.046427	-1.145620	-0.338411
C36	C	1.185194	-0.597329	-0.386702
C37	C	1.263298	-0.602192	-0.389845
C38	C	0.994583	-0.596346	-0.562607
C39	C	0.991460	-0.600790	-0.640711
C40	C	1.001974	-0.313353	-0.379357
C41	C	1.002000	-0.197202	-0.379370
C42	C	1.034945	-0.538849	-0.679221
C43	C	1.032002	-0.543020	-0.752607
C44	C	0.985578	-0.609138	-0.787481
C45	C	0.942089	-0.671081	-0.748966
C46	C	0.945028	-0.666904	-0.675581
C47	C	0.971962	-0.628492	-1.006763
C48	C	0.969027	-0.632667	-1.080153
C49	C	1.058939	-0.504604	-1.083789
C50	C	1.061878	-0.500438	-1.010402
C51	C	1.018386	-0.562376	-0.971894
N52	N	0.982570	-0.613406	-0.862494
N53	N	1.021391	-0.558103	-0.896882
C54	C	1.009252	-0.575456	-0.196761
C55	C	1.012511	-0.570727	-0.118663
H56	H	1.084418	-0.981195	-0.303327
H57	H	0.931220	-0.686511	-1.108546
O58	O	0.956632	-1.026630	-0.421208
C59	C	0.994852	-1.094739	-0.468220
H60	H	1.049130	-1.112832	-0.445617
H61	H	1.000404	-1.056137	-0.520626
C62	C	0.889114	-1.174621	-0.507074
C63	C	0.955778	-1.196849	-0.479310
H64	H	0.865010	-1.237606	-0.513918
H65	H	0.863364	-1.128732	-0.475403
H66	H	0.893750	-1.142450	-0.550743
H67	H	0.951141	-1.229007	-0.435639
H68	H	0.981526	-1.242746	-0.510974
O69	O	0.956482	-1.143922	-0.421114
C70	C	0.887070	-1.165409	-0.402917
H71	H	0.885802	-1.192104	-0.346660
H72	H	0.867153	-1.229688	-0.439883
C73	C	0.841420	-1.033201	-0.478197
C74	C	0.839863	-1.065980	-0.409098
H75	H	0.812299	-0.971870	-0.482012
H76	H	0.888185	-1.018727	-0.490459
H77	H	0.824824	-1.086775	-0.508994
H78	H	0.856466	-1.012411	-0.378304
H79	H	0.793100	-1.080442	-0.396832
O80	O	1.074214	-0.482697	-0.789931
C81	C	1.059589	-0.376571	-0.771396
H82	H	1.034708	-0.369700	-0.717027
H83	H	1.021819	-0.341464	-0.811245
C84	C	1.158804	-0.325788	-0.837541
C85	C	1.128250	-0.317349	-0.770761
H86	H	1.201156	-0.289254	-0.837152
H87	H	1.168656	-0.397286	-0.850031
H88	H	1.127323	-0.296533	-0.870741
H89	H	1.159728	-0.346615	-0.737564
H90	H	1.118405	-0.245853	-0.758265
H91	H	1.072750	-0.485012	-0.650831
H92	H	0.904287	-0.724912	-0.777367
H93	H	1.099683	-0.446600	-0.982013
O94	O	0.736618	-0.706530	-0.457351
C95	C	0.715888	-0.686740	-0.526691
H96	H	0.695581	-0.602220	-0.529526
H97	H	0.672553	-0.741206	-0.543290
C98	C	0.804151	-0.809530	-0.572705
C99	C	0.779216	-0.705719	-0.576187
H100	H	0.843214	-0.821241	-0.603237
H101	H	0.818117	-0.822866	-0.525989
H102	H	0.768033	-0.854906	-0.586535
H103	H	0.815331	-0.660345	-0.562348
H104	H	0.765259	-0.692375	-0.622902
O105	O	1.091776	-1.198904	-0.296498
C106	C	1.079310	-1.167435	-0.225811
H107	H	1.023331	-1.133730	-0.219922
H108	H	1.117756	-1.105436	-0.208939
C109	C	1.158127	-1.303735	-0.186575
C110	C	1.089371	-1.262347	-0.179341
H111	H	1.164336	-1.362279	-0.157909
H112	H	1.166528	-1.324935	-0.234198
H113	H	1.190158	-1.252060	-0.172516
H114	H	1.057342	-1.314017	-0.193408
H115	H	1.080965	-1.241158	-0.131718
O116	O	0.929681	-0.688747	-0.969470
C117	C	0.888061	-0.747972	-1.015990
H118	H	0.914757	-0.756382	-1.069455
H119	H	0.834398	-0.706802	-1.021662
C120	C	0.846236	-0.846587	-0.921253
C121	C	0.879027	-0.856925	-0.986919
H122	H	0.840660	-0.913793	-0.903321
H123	H	0.874274	-0.806685	-0.889911
H124	H	0.801521	-0.812276	-0.925989
H125	H	0.923745	-0.891224	-0.982181
H126	H	0.850997	-0.896836	-1.018260
H127	H	0.598034	-0.687098	-0.444645
O128	O	0.405600	-0.748185	-0.484058
C129	C	0.478624	-0.737771	-0.477361
H130	H	0.490808	-0.700968	-0.423570
H131	H	0.497793	-0.685874	-0.519934
C132	C	0.501076	-0.891414	-0.551264
C133	C	0.516040	-0.846220	-0.485195
H134	H	0.524157	-0.958309	-0.556100
H135	H	0.451878	-0.898429	-0.555779
H136	H	0.517050	-0.848156	-0.586735
H137	H	0.500058	-0.889470	-0.449726
H138	H	0.565237	-0.839215	-0.480675
H139	H	1.094347	-0.454176	-1.115150
H140	H	0.737673	-0.443203	-0.287198
H141	H	0.909612	-0.717331	-0.644227
H142	H	0.266859	-0.728689	-0.471504
H143	H	0.273368	-0.476530	-0.308731
H144	H	0.406498	-0.484799	-0.314053
H145	H	0.604530	-0.434948	-0.281871
