data_functionalizedCrystal
_audit_creation_method	'MofGen! by Chris Wilmer'
_symmetry_space_group_name_H-M	'P1'
_symmetry_Int_Tables_number	1
_symmetry_cell_setting	triclinic
loop_
_symmetry_equiv_pos_as_xyz
  x,y,z
_cell_length_a	19.188930
_cell_length_b	19.188930
_cell_length_c	17.666332
_cell_angle_alpha	89.988397
_cell_angle_beta	89.976766
_cell_angle_gamma	83.144779
loop_
_atom_site_label
_atom_site_type_symbol
_atom_site_fract_x
_atom_site_fract_y
_atom_site_fract_z
O1	O	0.926150	0.087169	-0.063200
O2	O	1.426150	0.587169	0.436800
O3	O	0.722838	0.098903	-0.063149
O4	O	1.222838	0.598903	0.436851
O5	O	0.830361	-0.008620	-0.063161
O6	O	1.330361	0.491380	0.436839
O7	O	0.818627	0.194692	-0.063188
O8	O	1.318627	0.694692	0.436812
O9	O	0.830342	-0.008625	0.062735
O10	O	1.330342	0.491375	0.562735
O11	O	0.722820	0.098897	0.062747
O12	O	1.222820	0.598897	0.562747
O13	O	0.926131	0.087163	0.062697
O14	O	1.426131	0.587163	0.562697
Cu15	Cu	0.824473	0.093030	0.074217
Cu16	Cu	1.324473	0.593030	0.574217
Cu17	Cu	0.824496	0.093036	-0.074670
Cu18	Cu	1.324496	0.593036	0.425330
O19	O	0.818608	0.194686	0.062709
O20	O	1.318608	0.694686	0.562709
C21	C	0.696818	0.098520	-0.000194
C22	C	1.196818	0.598520	0.499806
C23	C	0.619313	0.097380	-0.000174
C24	C	1.119313	0.597380	0.499826
C25	C	0.574389	0.160470	-0.000194
C26	C	1.074389	0.660470	0.499806
C27	C	0.501566	0.159399	-0.000203
C28	C	1.001566	0.659399	0.499797
C29	C	0.473669	0.095233	-0.000206
C30	C	0.973669	0.595233	0.499794
C31	C	0.518603	0.032133	-0.000181
C32	C	1.018603	0.532133	0.499819
C33	C	0.591425	0.033207	-0.000166
C34	C	1.091425	0.533207	0.499834
N35	N	0.365695	0.046188	-0.043078
N36	N	0.865695	0.546188	0.456922
N37	N	0.296517	0.045172	-0.043095
N38	N	0.796517	0.545172	0.456905
C39	C	0.254260	0.091994	-0.000252
C40	C	0.754260	0.591994	0.499748
N41	N	0.283795	0.139881	0.042599
N42	N	0.783795	0.639881	0.542599
N43	N	0.352979	0.140899	0.042612
N44	N	0.852979	0.640899	0.542612
C45	C	0.394707	0.094062	-0.000222
C46	C	0.894707	0.594062	0.499778
C47	C	0.130372	0.153928	-0.000280
C48	C	0.630372	0.653928	0.499720
C49	C	0.057547	0.152853	-0.000283
C50	C	0.557547	0.652853	0.499717
C51	C	0.074586	0.025586	-0.000270
C52	C	0.574586	0.525586	0.499730
C53	C	0.147409	0.026662	-0.000258
C54	C	0.647409	0.526662	0.499742
C55	C	0.175298	0.090835	-0.000267
C56	C	0.675298	0.590835	0.499733
C57	C	0.829972	-0.034634	-0.000211
C58	C	1.329972	0.465366	0.499789
C59	C	0.828831	-0.112138	-0.000204
C60	C	1.328831	0.387862	0.499796
C61	C	0.891922	-0.157062	-0.000216
C62	C	1.391922	0.342938	0.499784
C63	C	0.890850	-0.229886	-0.000228
C64	C	1.390850	0.270114	0.499772
C65	C	0.826684	-0.257782	-0.000212
C66	C	1.326684	0.242218	0.499788
C67	C	0.763585	-0.212849	-0.000205
C68	C	1.263585	0.287151	0.499795
C69	C	0.764658	-0.140026	-0.000200
C70	C	1.264658	0.359974	0.499800
N71	N	0.777630	-0.365789	0.042645
N72	N	1.277630	0.134211	0.542645
N73	N	0.776615	-0.434968	0.042642
N74	N	1.276615	0.065032	0.542642
C75	C	0.823446	-0.477191	-0.000227
C76	C	1.323446	0.022809	0.499773
N77	N	0.871341	-0.447624	-0.043084
N78	N	1.371341	0.052376	0.456916
N79	N	0.872359	-0.378439	-0.043079
N80	N	1.372359	0.121561	0.456921
C81	C	0.825513	-0.336745	-0.000218
C82	C	1.325513	0.163255	0.499782
C83	C	0.885379	-0.601079	-0.000253
C84	C	1.385379	-0.101079	0.499747
C85	C	0.884305	-0.673904	-0.000270
C86	C	1.384305	-0.173904	0.499730
C87	C	0.757038	-0.656865	-0.000239
C88	C	1.257038	-0.156865	0.499761
C89	C	0.758114	-0.584042	-0.000230
C90	C	1.258114	-0.084042	0.499770
C91	C	0.822287	-0.556154	-0.000233
C92	C	1.322287	-0.056154	0.499767
C93	C	0.952151	0.087546	-0.000260
C94	C	1.452151	0.587546	0.499740
C95	C	1.029656	0.088687	-0.000285
C96	C	1.529656	0.588687	0.499715
C97	C	0.818997	0.220700	-0.000244
C98	C	1.318997	0.720700	0.499756
C99	C	0.820138	0.298204	-0.000255
C100	C	1.320138	0.798204	0.499745
N101	N	0.824463	0.093025	0.178937
N102	N	1.324463	0.593025	0.678937
N103	N	0.824512	0.093036	-0.179390
N104	N	1.324512	0.593036	0.320610
C105	C	0.872089	0.045437	0.218541
C106	C	1.372089	0.545437	0.718541
C107	C	0.872093	0.045433	0.297789
C108	C	1.372093	0.545433	0.797789
C109	C	0.824478	0.093030	0.337429
C110	C	1.324478	0.593030	0.837429
C111	C	0.776842	0.140621	0.297815
C112	C	1.276842	0.640621	0.797815
C113	C	0.776835	0.140619	0.218569
C114	C	1.276835	0.640619	0.718569
N115	N	0.815401	0.154837	0.461841
N116	N	1.315401	0.654837	0.961841
N117	N	0.815413	0.154837	0.537121
N118	N	1.315413	0.654837	1.037121
C119	C	0.824496	0.093040	0.576193
C120	C	1.324496	0.593040	1.076193
N121	N	0.833582	0.031239	0.537140
N122	N	1.333582	0.531239	1.037140
N123	N	0.833574	0.031240	0.461853
N124	N	1.333574	0.531240	0.961853
C125	C	0.824480	0.093038	0.423358
C126	C	1.324480	0.593038	0.923358
C127	C	0.872130	0.045444	0.701727
C128	C	1.372130	0.545444	1.201727
C129	C	0.872129	0.045440	0.780976
C130	C	1.372129	0.545440	1.280976
C131	C	0.776881	0.140634	0.781000
C132	C	1.276881	0.640634	1.281000
C133	C	0.776878	0.140632	0.701753
C134	C	1.276878	0.640632	1.201753
C135	C	0.824506	0.093038	0.662121
C136	C	1.324506	0.593038	1.162121
H137	H	0.628003	-0.018171	-0.000150
H138	H	1.128003	0.481829	0.499850
N139	N	0.696606	-0.091570	-0.000170
N140	N	1.196606	0.408430	0.499830
H141	H	0.707024	-0.041205	-0.000164
H142	H	1.207024	0.458795	0.499836
H143	H	0.668634	-0.100562	-0.046834
H144	H	1.168634	0.399438	0.453166
H145	H	0.910878	0.006680	0.330041
H146	H	1.410878	0.506680	0.830041
N147	N	0.488517	-0.037074	-0.000193
N148	N	0.988517	0.462926	0.499807
H149	H	0.528030	-0.076881	-0.000178
H150	H	1.028030	0.423119	0.499822
H151	H	0.458646	-0.040293	0.046471
H152	H	0.958646	0.459707	0.546471
H153	H	0.738109	0.179385	0.813275
H154	H	1.238109	0.679385	1.313275
N155	N	0.195862	-0.041390	-0.000240
N156	N	0.695862	0.458610	0.499760
H157	H	0.186939	-0.069394	-0.046909
H158	H	0.686939	0.430606	0.453091
H159	H	0.246208	-0.030920	-0.000199
H160	H	0.746208	0.469080	0.499801
H161	H	0.711340	-0.235567	-0.000194
H162	H	1.211340	0.264433	0.499806
N163	N	0.725461	0.191949	0.175854
N164	N	1.225461	0.691949	0.675854
H165	H	0.733346	0.241485	0.189628
H166	H	1.233346	0.741485	0.689628
H167	H	0.732707	0.184667	0.119651
H168	H	1.232707	0.684667	0.619651
N169	N	0.009092	0.220906	-0.000311
N170	N	0.509092	0.720906	0.499689
H171	H	-0.041274	0.210491	-0.000317
H172	H	0.458726	0.710491	0.499683
H173	H	0.018076	0.248884	0.046355
H174	H	0.518076	0.748884	0.546355
H175	H	0.910909	0.006688	0.669457
H176	H	1.410909	0.506688	1.169457
N177	N	0.961133	-0.126982	-0.000221
N178	N	1.461133	0.373018	0.499779
H179	H	1.000939	-0.166496	-0.000231
H180	H	1.500939	0.333504	0.499769
H181	H	0.964361	-0.097129	-0.046892
H182	H	1.464361	0.402871	0.453108
N183	N	0.958897	-0.278357	-0.000237
N184	N	1.458897	0.221643	0.499763
H185	H	0.986918	-0.269403	-0.046909
H186	H	1.486918	0.230597	0.453091
H187	H	0.986835	-0.269397	0.046462
H188	H	1.486835	0.230603	0.546462
H189	H	0.738099	0.179386	0.669505
H190	H	1.238099	0.679386	1.169505
H191	H	0.051874	-0.026659	-0.000319
H192	H	0.551874	0.473341	0.499681
N193	N	0.954589	-0.570993	-0.000260
N194	N	1.454589	-0.070993	0.499740
H195	H	0.994396	-0.610505	-0.000276
H196	H	1.494396	-0.110505	0.499724
H197	H	0.957813	-0.541136	-0.046928
H198	H	1.457813	-0.041136	0.453072
N199	N	0.952355	-0.722363	-0.000278
N200	N	1.452355	-0.222363	0.499722
H201	H	0.954760	-0.752945	-0.046951
H202	H	1.454760	-0.252945	0.453049
H203	H	0.993129	-0.693594	-0.000248
H204	H	1.493129	-0.193594	0.499752
N205	N	0.604469	0.229682	-0.000209
N206	N	1.104469	0.729682	0.499791
H207	H	0.564955	0.269487	-0.000225
H208	H	1.064955	0.769487	0.499775
H209	H	0.634288	0.232904	0.046466
H210	H	1.134288	0.732904	0.546466
N211	N	0.923511	-0.005878	0.823696
N212	N	1.423511	0.494122	1.323696
H213	H	0.953686	-0.036021	0.786561
H214	H	1.453686	0.463979	1.286561
H215	H	0.954285	0.020797	0.856545
H216	H	1.454285	0.520797	1.356545
N217	N	0.687824	-0.686936	-0.000224
N218	N	1.187824	-0.186936	0.499776
H219	H	0.684547	-0.716758	-0.046895
H220	H	1.184547	-0.216758	0.453105
H221	H	0.684574	-0.716746	0.046475
H222	H	1.184574	-0.216746	0.546475
H223	H	0.738072	0.179374	0.330094
H224	H	1.238072	0.679374	0.830094
H225	H	0.910869	0.006681	0.186275
H226	H	1.410869	0.506681	0.686275
N227	N	0.453100	0.227449	-0.000226
N228	N	0.953100	0.727449	0.499774
H229	H	0.481817	0.268264	-0.000229
H230	H	0.981817	0.768264	0.499771
H231	H	0.422543	0.229769	-0.046907
H232	H	0.922543	0.729769	0.453093
N233	N	0.160459	0.223138	-0.000285
N234	N	0.660459	0.723138	0.499715
H235	H	0.120946	0.262945	-0.000293
H236	H	0.620946	0.762945	0.499707
H237	H	0.190280	0.226352	0.046390
H238	H	0.690280	0.726352	0.546390
N239	N	0.690066	-0.535583	-0.000212
N240	N	1.190066	-0.035583	0.499788
H241	H	0.649253	-0.564303	-0.000204
H242	H	1.149253	-0.064303	0.499796
H243	H	0.687732	-0.505008	0.046462
H244	H	1.187732	-0.005008	0.546462
