data_functionalizedCrystal
_audit_creation_method	'MofGen! by Chris Wilmer'
_symmetry_space_group_name_H-M	'P1'
_symmetry_Int_Tables_number	1
_symmetry_cell_setting	triclinic
loop_
_symmetry_equiv_pos_as_xyz
  x,y,z
_cell_length_a	9.065215
_cell_length_b	10.723024
_cell_length_c	9.798715
_cell_angle_alpha	90.002215
_cell_angle_beta	90.002922
_cell_angle_gamma	84.741283
loop_
_atom_site_label
_atom_site_type_symbol
_atom_site_fract_x
_atom_site_fract_y
_atom_site_fract_z
O1	O	1.959363	0.182966	0.113471
O2	O	1.529992	0.197979	0.113477
O3	O	1.754582	0.008937	0.113469
O4	O	1.734774	0.372009	0.113479
O5	O	1.754566	0.008935	-0.113513
O6	O	1.529977	0.197978	-0.113505
O7	O	1.959347	0.182965	-0.113511
Zn8	Zn	1.744660	0.190471	-0.149546
Zn9	Zn	1.744680	0.190473	0.149513
O10	O	1.734758	0.372007	-0.113503
C11	C	1.475006	0.196537	-0.000013
C12	C	1.311187	0.192225	-0.000011
C13	C	1.753132	-0.037569	-0.000020
C14	C	1.748820	-0.176141	-0.000015
C15	C	1.874488	-0.250614	-0.000015
C16	C	1.870033	-0.393836	-0.000010
C17	C	2.014334	0.184408	-0.000017
C18	C	2.178152	0.188719	-0.000011
C19	C	1.736207	0.418514	-0.000010
C20	C	1.740520	0.557085	-0.000006
N21	N	1.744656	0.190469	-0.353646
C22	C	1.839189	0.110924	-0.578581
C23	C	1.839169	0.110925	-0.421418
N24	N	1.744695	0.190465	0.353612
H25	H	1.985375	-0.208343	-0.000025
C26	C	2.015378	-0.480289	-0.000011
N27	N	2.124856	-0.545409	-0.000010
C28	C	1.595170	-0.356469	-0.000005
N29	N	1.485692	-0.291349	-0.000001
H30	H	1.637933	-0.218413	-0.000005
C31	C	1.635379	0.282468	-0.567633
N32	N	1.553037	0.351766	-0.508317
H33	H	1.920110	0.042827	-0.636878
H34	H	1.663747	0.258567	-0.411948
H35	H	1.920063	0.042821	-0.363108
