data_functionalizedCrystal
_audit_creation_method	'MofGen! by Chris Wilmer'
_symmetry_space_group_name_H-M	'P1'
_symmetry_Int_Tables_number	1
_symmetry_cell_setting	triclinic
loop_
_symmetry_equiv_pos_as_xyz
  x,y,z
_cell_length_a	10.654550
_cell_length_b	10.868271
_cell_length_c	10.654543
_cell_angle_alpha	90.001425
_cell_angle_beta	95.516448
_cell_angle_gamma	89.998292
loop_
_atom_site_label
_atom_site_type_symbol
_atom_site_fract_x
_atom_site_fract_y
_atom_site_fract_z
O1	O	1.667838	-0.102220	-0.176400
O2	O	2.167838	0.397780	0.323600
O3	O	1.302359	-0.102242	-0.193206
O4	O	1.802359	0.397758	0.306794
O5	O	1.493506	-0.102233	-0.002063
O6	O	1.993506	0.397767	0.497937
O7	O	1.476691	-0.102229	-0.367543
O8	O	1.976691	0.397771	0.132457
O9	O	1.493487	0.102412	-0.002056
O10	O	1.993487	0.602412	0.497944
O11	O	1.302341	0.102403	-0.193199
O12	O	1.802341	0.602403	0.306801
O13	O	1.667819	0.102425	-0.176393
O14	O	2.167819	0.602425	0.323607
Zn15	Zn	1.485077	0.134906	-0.184795
Zn16	Zn	1.985077	0.634906	0.315205
Zn17	Zn	1.485101	-0.134722	-0.184804
Zn18	Zn	1.985101	0.365278	0.315196
O19	O	1.476673	0.102416	-0.367536
O20	O	1.976673	0.602416	0.132464
C21	C	1.255552	0.000078	-0.191969
C22	C	1.755552	0.500078	0.308031
C23	C	1.116109	0.000069	-0.188277
C24	C	1.616109	0.500069	0.311723
N25	N	1.485070	0.318920	-0.184789
N26	N	1.985070	0.818920	0.315211
C27	C	1.036620	0.000074	-0.300819
C28	C	1.536620	0.500074	0.199181
C29	C	0.905600	0.000096	-0.297342
C30	C	1.405600	0.500096	0.202658
C31	C	0.933568	0.000102	-0.068772
C32	C	1.433568	0.500102	0.431228
C33	C	1.064586	0.000089	-0.072250
C34	C	1.564586	0.500089	0.427750
C35	C	1.485086	0.569926	-0.184805
C36	C	1.985086	1.069926	0.315195
C37	C	1.485073	0.430248	-0.184799
C38	C	1.985073	0.930248	0.315201
C39	C	1.714627	0.000103	-0.177630
C40	C	2.214627	0.500103	0.322370
C41	C	1.854070	0.000103	-0.181322
C42	C	2.354070	0.500103	0.318678
C43	C	1.492264	0.000086	0.044738
C44	C	1.992264	0.500086	0.544738
C45	C	1.488575	0.000076	0.184182
C46	C	1.988575	0.500076	0.684182
N47	N	1.485106	0.681263	-0.184805
N48	N	1.985106	1.181263	0.315195
C49	C	1.601119	0.000078	0.263668
C50	C	2.101119	0.500078	0.763668
C51	C	1.597645	0.000055	0.394689
C52	C	2.097645	0.500055	0.894689
C53	C	1.369075	0.000034	0.366726
C54	C	1.869075	0.500034	0.866726
C55	C	1.372550	0.000047	0.235707
C56	C	1.872550	0.500047	0.735707
C57	C	1.477921	0.000080	0.585663
C58	C	1.977921	0.500080	1.085663
C59	C	1.481627	0.000039	0.446222
C60	C	1.981627	0.500039	0.946222
H61	H	1.078565	0.000067	-0.395295
H62	H	1.578565	0.500067	0.104705
C63	C	1.693812	0.000024	0.607944
C64	C	2.193812	0.500024	1.107944
C65	C	1.721356	0.000054	0.482062
C66	C	2.221356	0.500054	0.982062
H67	H	1.770191	0.000013	0.661882
H68	H	2.270191	0.500013	1.161882
H69	H	1.646289	0.071377	0.623681
H70	H	2.146289	0.571377	1.123681
H71	H	1.646293	-0.071352	0.623645
H72	H	2.146293	0.428648	1.123645
H73	H	1.768868	0.071435	0.466359
H74	H	2.268868	0.571435	0.966359
H75	H	1.768900	-0.071306	0.466319
H76	H	2.268900	0.428694	0.966319
H77	H	1.274611	0.000013	0.408694
H78	H	1.774611	0.500013	0.908694
H79	H	1.280898	0.000042	0.170986
H80	H	1.780898	0.500042	0.670986
H81	H	0.891602	0.000126	0.025693
H82	H	1.391602	0.500126	0.525693
C83	C	1.228160	0.105279	0.056443
C84	C	1.728160	0.605279	0.556443
C85	C	1.151971	0.000083	0.051466
C86	C	1.651971	0.500083	0.551466
H87	H	1.282101	0.105279	0.132821
H88	H	1.782101	0.605279	0.632821
H89	H	1.277588	0.105263	-0.013146
H90	H	1.777588	0.605263	0.486854
H91	H	1.176457	0.176638	0.053052
H92	H	1.676457	0.676638	0.553052
H93	H	1.203674	-0.071277	0.054849
H94	H	1.703674	0.428723	0.554849
H95	H	1.102538	0.000087	0.121075
H96	H	1.602538	0.500087	0.621075
C97	C	1.797009	-0.105116	0.247143
C98	C	2.297009	0.394884	0.747143
C99	C	1.728649	0.000088	0.207025
C100	C	2.228649	0.500088	0.707025
H101	H	1.875739	-0.105115	0.212169
H102	H	2.375739	0.394885	0.712169
H103	H	1.811045	-0.105114	0.336538
H104	H	2.311045	0.394886	0.836538
H105	H	1.750610	-0.176469	0.219910
H106	H	2.250610	0.323531	0.719910
H107	H	1.775044	0.071442	0.234266
H108	H	2.275044	0.571442	0.734266
H109	H	1.714617	0.000098	0.117611
H110	H	2.214617	0.500098	0.617611
C111	C	0.891123	0.000069	-0.523619
C112	C	1.391123	0.500069	-0.023619
C113	C	0.818226	0.000092	-0.421052
C114	C	1.318226	0.500092	0.078948
H115	H	0.837179	0.000060	-0.599995
H116	H	1.337179	0.500060	-0.099995
H117	H	0.942810	0.071423	-0.520226
H118	H	1.442810	0.571423	-0.020226
H119	H	0.942804	-0.071306	-0.520206
H120	H	1.442804	0.428694	-0.020206
H121	H	0.766551	0.071472	-0.424460
H122	H	1.266551	0.571472	0.075540
H123	H	0.766517	-0.071269	-0.424447
H124	H	1.266517	0.428731	0.075553
