data_functionalizedCrystal
_audit_creation_method	'MofGen! by Chris Wilmer'
_symmetry_space_group_name_H-M	'P1'
_symmetry_Int_Tables_number	1
_symmetry_cell_setting	triclinic
loop_
_symmetry_equiv_pos_as_xyz
  x,y,z
_cell_length_a	27.440280
_cell_length_b	23.096457
_cell_length_c	23.096457
_cell_angle_alpha	60.005235
_cell_angle_beta	59.998890
_cell_angle_gamma	90.009022
loop_
_atom_site_label
_atom_site_type_symbol
_atom_site_fract_x
_atom_site_fract_y
_atom_site_fract_z
Zr1	Zr	0.469510	-0.075884	0.633663
O2	O	0.391687	-0.168339	0.754458
O3	O	0.493365	-0.047545	0.512874
O4	O	0.493359	-0.168329	0.633658
O5	O	0.391699	0.047725	0.633675
O6	O	0.573562	-0.168317	0.633646
O7	O	0.391693	-0.047555	0.633674
O8	O	0.573572	0.047743	0.417586
O9	O	0.391689	-0.168335	0.849736
O10	O	0.563395	-0.035446	0.562545
O11	O	0.503546	0.035652	0.562555
O12	O	0.503539	-0.106555	0.704762
O13	O	0.443689	-0.035458	0.704772
Zr14	Zr	0.597434	0.076096	0.633647
Zr15	Zr	0.597424	-0.075865	0.633645
Zr16	Zr	0.469520	0.076077	0.633665
Zr17	Zr	0.469513	-0.075878	0.785620
Zr18	Zr	0.597431	0.076090	0.481690
O19	O	0.573579	0.047757	0.754436
O20	O	0.573564	-0.168312	0.754432
O21	O	0.391702	0.047730	0.754461
O22	O	0.675257	0.168551	0.512852
O23	O	0.675242	-0.047518	0.512849
O24	O	0.493380	0.168524	0.512877
O25	O	0.675245	-0.047513	0.633634
O26	O	0.573585	0.168541	0.633652
O27	O	0.493382	0.168529	0.633663
O28	O	0.675251	0.047767	0.633636
O29	O	0.493364	-0.168320	0.849721
O30	O	0.573581	0.168532	0.417588
O31	O	0.675255	0.168547	0.417574
O32	O	0.675247	0.047758	0.417572
O33	O	0.391697	-0.047546	0.849738
O34	O	0.493372	-0.047531	0.849723
O35	O	0.563405	0.106768	0.562548
O36	O	0.623255	0.035670	0.562538
O37	O	0.563398	-0.035440	0.704755
O38	O	0.503549	0.035658	0.704765
C39	C	0.373471	0.000082	0.633677
C40	C	0.319168	0.000074	0.633685
C41	C	0.533468	0.000098	0.443579
C42	C	0.533467	0.000095	0.379070
C43	C	0.533485	0.190186	0.633658
C44	C	0.533490	0.254698	0.633659
C45	C	0.013715	0.037244	0.559406
C46	C	-0.037304	0.037250	0.559401
O47	O	-0.037120	0.068840	0.496266
N48	N	-0.094065	0.000131	0.633636
C49	C	-0.099807	-0.036991	0.707880
O50	O	-0.152771	-0.068562	0.771023
C51	C	-0.048789	-0.036992	0.707884
C52	C	0.007971	0.000123	0.633644
C53	C	0.070473	0.074358	0.485172
C54	C	0.121487	0.074350	0.485177
C55	C	0.115744	0.037229	0.559415
C56	C	0.058986	0.000116	0.633649
C57	C	-0.054532	-0.074110	0.782127
C58	C	-0.003507	-0.074108	0.782125
C59	C	0.053253	-0.036992	0.707885
C60	C	0.104258	-0.037013	0.707892
N61	N	0.161019	0.000107	0.633658
C62	C	0.166762	0.037227	0.559419
C63	C	-0.206945	-0.036983	0.707867
C64	C	-0.257963	-0.036986	0.707864
C65	C	-0.195456	0.037256	0.559385
C66	C	-0.144438	0.037255	0.559388
C67	C	-0.150184	0.000136	0.633632
C68	C	0.273895	0.037208	0.559435
C69	C	0.324911	0.037195	0.559446
C70	C	0.262400	-0.037044	0.707925
C71	C	0.211388	-0.037034	0.707914
C72	C	0.217139	0.000097	0.633662
O73	O	0.104120	-0.068584	0.770995
O74	O	0.219728	0.068801	0.496287
C75	C	0.693473	0.000130	0.633633
C76	C	0.747776	0.000138	0.633625
C77	C	0.533459	-0.189974	0.633652
C78	C	0.533454	-0.254486	0.633651
C79	C	0.502248	0.247885	0.707893
C80	C	0.502239	0.308501	0.707894
C81	C	0.533484	0.375929	0.633657
C82	C	0.564727	0.382739	0.559414
C83	C	0.564730	0.322124	0.559415
N84	N	0.584326	0.498737	0.578395
N85	N	0.584322	0.556317	0.578399
C86	C	0.533475	0.558561	0.633650
N87	N	0.482633	0.501045	0.688909
N88	N	0.482639	0.443459	0.688907
C89	C	0.533483	0.441660	0.633648
C90	C	0.502221	0.617472	0.707890
C91	C	0.502210	0.678090	0.707888
C92	C	0.564704	0.752328	0.559406
C93	C	0.564709	0.691710	0.559410
C94	C	0.533469	0.624285	0.633654
C95	C	0.564703	-0.037019	0.348764
C96	C	0.564709	-0.037014	0.288141
C97	C	0.533467	0.000097	0.257839
C98	C	0.502229	0.037220	0.288149
C99	C	0.502229	0.037219	0.348764
N100	N	0.482621	-0.005057	0.195450
N101	N	0.482622	-0.005060	0.137869
C102	C	0.533466	0.000104	0.075207
N103	N	0.584308	0.005257	0.072308
N104	N	0.584306	0.005256	0.129896
C105	C	0.533464	0.000103	0.192111
C106	C	0.564712	-0.037006	-0.020834
C107	C	0.564720	-0.036996	-0.081461
C108	C	0.502233	0.037234	-0.081446
C109	C	0.502231	0.037228	-0.020826
C110	C	0.533469	0.000104	0.009479
C111	C	0.533476	0.000114	0.823730
C112	C	0.533477	0.000117	0.888240
C113	C	0.693469	0.000122	0.443557
C114	C	0.747771	0.000127	0.379040
C115	C	0.533481	0.190178	0.443583
C116	C	0.533484	0.254687	0.379074
C117	C	0.693482	0.190202	0.443560
C118	C	0.747788	0.254719	0.379044
C119	C	0.373462	-0.189990	0.823749
C120	C	0.319156	-0.254507	0.888266
C121	C	0.373475	0.000090	0.823753
C122	C	0.319173	0.000085	0.888270
C123	C	0.533463	-0.189966	0.823727
C124	C	0.533460	-0.254475	0.888236
C125	C	0.742025	-0.036998	0.348745
C126	C	0.793042	-0.037007	0.288133
C127	C	0.849804	0.000114	0.257811
C128	C	0.855549	0.037240	0.288112
C129	C	0.804532	0.037245	0.348727
C130	C	0.564732	0.322109	0.348776
C131	C	0.564732	0.382728	0.288172
C132	C	0.533489	0.375923	0.257862
C133	C	0.502237	0.308494	0.288166
C134	C	0.502234	0.247877	0.348773
C135	C	0.804537	0.247905	0.348741
C136	C	0.855568	0.308519	0.288130
C137	C	0.849849	0.375948	0.257818
C138	C	0.793094	0.382761	0.288126
C139	C	0.742065	0.322147	0.348741
C140	C	0.262407	-0.247692	0.918576
C141	C	0.211376	-0.308307	0.979206
C142	C	0.217095	-0.375735	1.009521
C143	C	0.273850	-0.382549	0.979209
C144	C	0.324879	-0.321935	0.918584
C145	C	0.324919	0.037204	0.918571
C146	C	0.273902	0.037197	0.979200
C147	C	0.217140	0.000074	1.009524
C148	C	0.211395	-0.037050	0.979220
C149	C	0.262412	-0.037046	0.918596
C150	C	0.564710	-0.247647	0.918526
C151	C	0.564718	-0.308254	0.979131
C152	C	0.533474	-0.375688	1.009449
C153	C	0.502223	-0.382515	0.979152
C154	C	0.502218	-0.321908	0.918544
H155	H	0.371128	0.067421	0.498989
Br156	Br	0.459834	0.087596	0.389895
H157	H	0.901771	0.067462	0.263415
Br158	Br	0.459833	0.087602	-0.122566
H159	H	0.476796	0.302953	0.768346
H160	H	0.476792	0.067448	0.003852
Br161	Br	0.607132	0.331370	0.458661
Br162	Br	0.607125	0.474247	0.458663
H163	H	0.476780	0.562571	0.768344
Br164	Br	0.664997	-0.087385	0.389884
Br165	Br	0.607142	0.331364	0.389893
Br166	Br	0.785233	-0.087395	0.247022
Br167	Br	-0.131553	-0.124479	0.882888
H168	H	0.590153	-0.192745	0.893851
H169	H	0.257739	-0.192794	0.893896
H170	H	-0.008193	-0.104326	0.842584
H171	H	0.476800	0.302964	0.263479
Br172	Br	0.607109	-0.087383	0.020294
H173	H	0.590183	0.437626	0.263506
Br174	Br	0.078282	0.124746	0.384406
Br175	Br	0.607098	-0.087401	0.389889
H176	H	0.257734	-0.067269	0.768368
H177	H	0.533497	0.425287	0.208512
Br178	Br	0.607114	-0.087377	0.246992
H179	H	0.891341	0.000105	0.208454
H180	H	0.165169	-0.302746	1.003876
Br181	Br	0.281708	0.087601	0.458664
Br182	Br	0.459835	0.087595	0.247017
Br183	Br	0.812340	0.087639	0.389830
Br184	Br	0.459824	0.156378	0.389881
Br185	Br	0.812315	0.156402	0.389870
Br186	Br	0.932585	0.299256	0.247008
Br187	Br	0.919111	0.458204	0.175554
H188	H	0.590160	-0.067216	-0.106140
H189	H	0.476766	0.672537	0.768340
H190	H	0.476768	-0.327477	0.893889
H191	H	0.788447	0.437669	0.263437
H192	H	0.695859	0.327705	0.373405
H193	H	0.175604	0.000076	1.058888
H194	H	0.167701	0.104570	0.424723
H195	H	0.257726	-0.067271	0.893927
Br196	Br	0.459847	0.156382	0.808652
Br197	Br	0.607130	-0.298974	1.020238
H198	H	0.590140	0.807228	0.498961
Br199	Br	0.147833	-0.457991	1.091800
Br200	Br	0.281601	-0.474064	1.020358
H201	H	0.371086	-0.327492	0.893906
H202	H	0.371133	0.067439	0.893886
Br203	Br	0.607112	0.700956	0.458659
H204	H	0.278590	0.067430	1.003863
H205	H	0.165173	-0.067275	1.003919
Br206	Br	0.533485	-0.457934	1.091704
H207	H	-0.098224	0.067484	0.498936
Br208	Br	-0.187671	0.087634	0.458631
H209	H	0.165170	-0.067266	0.768366
Br210	Br	0.459816	-0.474038	1.020313
H211	H	-0.304176	-0.067219	0.768318
H212	H	-0.211633	-0.067213	0.768329
