data_functionalizedCrystal
_audit_creation_method	'MofGen! by Chris Wilmer'
_symmetry_space_group_name_H-M	'P1'
_symmetry_Int_Tables_number	1
_symmetry_cell_setting	triclinic
loop_
_symmetry_equiv_pos_as_xyz
  x,y,z
_cell_length_a	19.121414
_cell_length_b	19.120785
_cell_length_c	19.805407
_cell_angle_alpha	92.456682
_cell_angle_beta	87.572606
_cell_angle_gamma	95.004960
loop_
_atom_site_label
_atom_site_type_symbol
_atom_site_fract_x
_atom_site_fract_y
_atom_site_fract_z
Zn1	Zn	1.063652	-0.234355	0.329424
Zn2	Zn	1.313652	0.015645	0.579424
Zn3	Zn	1.563652	0.265645	0.829424
Zn4	Zn	1.813652	0.515645	1.079424
Zn5	Zn	1.058572	-0.352000	0.211601
Zn6	Zn	1.308572	-0.102000	0.461601
Zn7	Zn	1.558572	0.148000	0.711601
Zn8	Zn	1.808572	0.398000	0.961601
Zn9	Zn	0.946011	-0.239365	0.220870
Zn10	Zn	1.196011	0.010635	0.470870
Zn11	Zn	1.446011	0.260635	0.720870
Zn12	Zn	1.696011	0.510635	0.970870
Zn13	Zn	0.940939	-0.357012	0.329369
Zn14	Zn	1.190939	-0.107012	0.579369
Zn15	Zn	1.440939	0.142988	0.829369
Zn16	Zn	1.690939	0.392988	1.079369
O17	O	1.002293	-0.295683	0.272816
O18	O	1.252293	-0.045683	0.522816
O19	O	1.502293	0.204317	0.772816
O20	O	1.752293	0.454317	1.022816
O21	O	1.161441	-0.245767	0.309939
O22	O	1.411441	0.004233	0.559939
O23	O	1.661441	0.254233	0.809939
O24	O	1.911441	0.504233	1.059939
O25	O	1.043637	-0.337058	0.118114
O26	O	1.293637	-0.087058	0.368114
O27	O	1.543637	0.162942	0.618114
O28	O	1.793637	0.412942	0.868114
O29	O	0.965865	-0.140230	0.239172
O30	O	1.215865	0.109770	0.489172
O31	O	1.465865	0.359770	0.739172
O32	O	1.715865	0.609770	0.989172
O33	O	1.157709	-0.332200	0.223375
O34	O	1.407709	-0.082200	0.473375
O35	O	1.657709	0.167800	0.723375
O36	O	1.907709	0.417800	0.973375
O37	O	1.052295	-0.136549	0.318926
O38	O	1.302295	0.113451	0.568926
O39	O	1.552295	0.363451	0.818926
O40	O	1.802295	0.613451	1.068926
O41	O	0.960939	-0.254306	0.124924
O42	O	1.210939	-0.004306	0.374924
O43	O	1.460939	0.245694	0.624924
O44	O	1.710939	0.495694	0.874924
O45	O	0.846875	-0.259165	0.239118
O46	O	1.096875	-0.009165	0.489118
O47	O	1.346875	0.240835	0.739118
O48	O	1.596875	0.490835	0.989118
O49	O	0.957221	-0.340742	0.424093
O50	O	1.207221	-0.090742	0.674093
O51	O	1.457221	0.159258	0.924093
O52	O	1.707221	0.409258	1.174093
O53	O	0.843149	-0.345600	0.318832
O54	O	1.093149	-0.095600	0.568832
O55	O	1.343149	0.154400	0.818832
O56	O	1.593149	0.404400	1.068832
O57	O	1.047377	-0.250626	0.424133
O58	O	1.297377	-0.000626	0.674133
O59	O	1.547377	0.249374	0.924133
O60	O	1.797377	0.499374	1.174133
O61	O	1.038719	-0.451136	0.223322
O62	O	1.288719	-0.201136	0.473322
O63	O	1.538719	0.048864	0.723322
O64	O	1.788719	0.298864	0.973322
O65	O	0.952295	-0.454817	0.309845
O66	O	1.202295	-0.204817	0.559845
O67	O	1.452295	0.045183	0.809845
O68	O	1.702295	0.295183	1.059845
C69	C	0.819482	-0.303470	0.279976
C70	C	1.069482	-0.053470	0.529976
C71	C	1.319482	0.196530	0.779976
C72	C	1.569482	0.446530	1.029976
C73	C	0.741274	-0.306819	0.283054
C74	C	0.991274	-0.056819	0.533054
C75	C	1.241274	0.193181	0.783054
C76	C	1.491274	0.443181	1.033054
C77	C	0.706454	-0.263322	0.243071
C78	C	0.956454	-0.013322	0.493071
C79	C	1.206454	0.236678	0.743071
C80	C	1.456454	0.486678	0.993071
C81	C	0.632968	-0.266475	0.245963
C82	C	0.882968	-0.016475	0.495963
C83	C	1.132968	0.233525	0.745963
C84	C	1.382968	0.483525	0.995963
C85	C	0.594305	-0.313120	0.288842
C86	C	0.844305	-0.063120	0.538842
C87	C	1.094305	0.186880	0.788842
C88	C	1.344305	0.436880	1.038842
C89	C	0.629130	-0.356622	0.328826
C90	C	0.879130	-0.106622	0.578826
C91	C	1.129130	0.143378	0.828826
C92	C	1.379130	0.393378	1.078826
C93	C	0.702614	-0.353472	0.325930
C94	C	0.952614	-0.103472	0.575930
C95	C	1.202614	0.146528	0.825930
C96	C	1.452614	0.396528	1.075930
C97	C	0.372335	-0.324887	0.299655
C98	C	0.622335	-0.074887	0.549655
C99	C	0.872335	0.175113	0.799655
C100	C	1.122335	0.425113	1.049655
C101	C	0.298846	-0.328031	0.302549
C102	C	0.548846	-0.078031	0.552549
C103	C	0.798846	0.171969	0.802549
C104	C	1.048846	0.421969	1.052549
C105	C	0.302690	-0.237885	0.219685
C106	C	0.552690	0.012115	0.469685
C107	C	0.802690	0.262115	0.719685
C108	C	1.052690	0.512115	0.969685
C109	C	0.376175	-0.234737	0.216796
C110	C	0.626175	0.015263	0.466796
C111	C	0.876175	0.265263	0.716796
C112	C	1.126175	0.515263	0.966796
C113	C	0.410994	-0.278241	0.256777
C114	C	0.660994	-0.028241	0.506777
C115	C	0.910994	0.221759	0.756777
C116	C	1.160994	0.471759	1.006777
C117	C	0.519191	-0.316342	0.291800
C118	C	0.769191	-0.066342	0.541800
C119	C	1.019191	0.183658	0.791800
C120	C	1.269191	0.433658	1.041800
C121	C	0.486106	-0.275022	0.253815
C122	C	0.736106	-0.025022	0.503815
C123	C	0.986106	0.224978	0.753815
C124	C	1.236106	0.474978	1.003815
C125	C	0.994425	-0.478508	0.265586
C126	C	1.244425	-0.228508	0.515586
C127	C	1.494425	0.021492	0.765586
C128	C	1.744425	0.271492	1.015586
C129	C	0.991123	-0.556719	0.262512
C130	C	1.241123	-0.306719	0.512512
C131	C	1.491123	-0.056719	0.762512
C132	C	1.741123	0.193281	1.012512
C133	C	0.970174	-0.999162	0.243070
C134	C	1.220174	-0.749162	0.493070
C135	C	1.470174	-0.499162	0.743070
C136	C	1.720174	-0.249162	0.993070
C137	C	0.973278	-0.925675	0.245957
C138	C	1.223278	-0.675675	0.495957
C139	C	1.473278	-0.425675	0.745957
C140	C	1.723278	-0.175675	0.995957
C141	C	1.019799	-0.886957	0.288960
C142	C	1.269799	-0.636957	0.538960
C143	C	1.519799	-0.386957	0.788960
C144	C	1.769799	-0.136957	1.038960
C145	C	1.063213	-0.921730	0.329083
C146	C	1.313213	-0.671730	0.579083
C147	C	1.563213	-0.421730	0.829083
C148	C	1.813213	-0.171730	1.079083
C149	C	1.060105	-0.995216	0.326198
C150	C	1.310105	-0.745216	0.576198
C151	C	1.560105	-0.495216	0.826198
C152	C	1.810105	-0.245216	1.076198
C153	C	1.031429	-0.664978	0.299751
C154	C	1.281429	-0.414978	0.549751
C155	C	1.531429	-0.164978	0.799751
C156	C	1.781429	0.085022	1.049751
C157	C	1.034536	-0.591487	0.302631
C158	C	1.284536	-0.341487	0.552631
C159	C	1.534536	-0.091487	0.802631
C160	C	1.784536	0.158513	1.052631
C161	C	0.944599	-0.595437	0.219506
C162	C	1.194599	-0.345437	0.469506
C163	C	1.444599	-0.095437	0.719506
C164	C	1.694599	0.154563	0.969506
C165	C	0.941498	-0.668924	0.216622
C166	C	1.191498	-0.418924	0.466622
C167	C	1.441498	-0.168924	0.716622
C168	C	1.691498	0.081076	0.966622
C169	C	0.984910	-0.703691	0.256748
C170	C	1.234910	-0.453691	0.506748
C171	C	1.484910	-0.203691	0.756748
C172	C	1.734910	0.046309	1.006748
C173	C	1.022974	-0.811841	0.291911
C174	C	1.272974	-0.561841	0.541911
C175	C	1.522974	-0.311841	0.791911
C176	C	1.772974	-0.061841	1.041911
C177	C	0.981730	-0.778805	0.253800
C178	C	1.231730	-0.528805	0.503800
C179	C	1.481730	-0.278805	0.753800
C180	C	1.731730	-0.028805	1.003800
C181	C	1.185819	-0.287866	0.265629
C182	C	1.435819	-0.037866	0.515629
C183	C	1.685819	0.212134	0.765629
C184	C	1.935819	0.462134	1.015629
C185	C	1.264026	-0.284535	0.262566
C186	C	1.514026	-0.034535	0.512566
C187	C	1.764026	0.215465	0.762566
C188	C	2.014026	0.465465	1.012566
C189	C	1.002300	-0.295684	0.449358
C190	C	1.252300	-0.045684	0.699358
C191	C	1.502300	0.204316	0.949358
C192	C	1.752300	0.454316	1.199358
C193	C	1.002302	-0.295685	0.524590
C194	C	1.252302	-0.045685	0.774590
C195	C	1.502302	0.204315	1.024590
C196	C	1.752302	0.454315	1.274590
C197	C	1.010212	-0.112143	0.280089
C198	C	1.260212	0.137857	0.530089
C199	C	1.510212	0.387857	0.780089
C200	C	1.760212	0.637857	1.030089
C201	C	1.013587	-0.033930	0.283188
C202	C	1.263587	0.216070	0.533188
C203	C	1.513587	0.466070	0.783188
C204	C	1.763587	0.716070	1.033188
C205	C	1.049241	-0.248769	0.559957
C206	C	1.299241	0.001231	0.809957
C207	C	1.549241	0.251231	1.059957
C208	C	1.799241	0.501231	1.309957
C209	C	1.049235	-0.248767	0.630645
C210	C	1.299235	0.001233	0.880645
C211	C	1.549235	0.251233	1.130645
C212	C	1.799235	0.501233	1.380645
C213	C	1.002293	-0.295685	0.665966
C214	C	1.252293	-0.045685	0.915966
C215	C	1.502293	0.204315	1.165966
C216	C	1.752293	0.454315	1.415966
C217	C	0.955350	-0.342603	0.630595
C218	C	1.205350	-0.092603	0.880595
C219	C	1.455350	0.157397	1.130595
C220	C	1.705350	0.407397	1.380595
C221	C	0.955353	-0.342601	0.559908
C222	C	1.205353	-0.092601	0.809908
C223	C	1.455353	0.157399	1.059908
C224	C	1.705353	0.407399	1.309908
C225	C	0.955336	-0.342612	0.915669
C226	C	1.205336	-0.092612	1.165669
C227	C	1.455336	0.157388	1.415669
C228	C	1.705336	0.407388	1.665669
C229	C	0.955337	-0.342612	0.986361
C230	C	1.205337	-0.092612	1.236361
C231	C	1.455337	0.157388	1.486361
C232	C	1.705337	0.407388	1.736361
C233	C	1.049218	-0.248778	0.986406
C234	C	1.299218	0.001222	1.236406
C235	C	1.549218	0.251222	1.486406
C236	C	1.799218	0.501222	1.736406
C237	C	1.049221	-0.248776	0.915719
C238	C	1.299221	0.001224	1.165719
C239	C	1.549221	0.251224	1.415719
C240	C	1.799221	0.501224	1.665719
C241	C	1.002275	-0.295691	0.880354
C242	C	1.252275	-0.045691	1.130354
C243	C	1.502275	0.204309	1.380354
C244	C	1.752275	0.454309	1.630354
C245	C	1.002281	-0.295692	0.803705
C246	C	1.252281	-0.045692	1.053705
C247	C	1.502281	0.204308	1.303705
C248	C	1.752281	0.454308	1.553705
C249	C	1.002290	-0.295688	0.742613
C250	C	1.252290	-0.045688	0.992613
C251	C	1.502290	0.204312	1.242613
C252	C	1.752290	0.454312	1.492613
C253	C	1.002280	-0.295697	1.096960
C254	C	1.252280	-0.045697	1.346960
C255	C	1.502280	0.204303	1.596960
C256	C	1.752280	0.454303	1.846960
C257	C	1.002273	-0.295692	1.021729
C258	C	1.252273	-0.045692	1.271729
C259	C	1.502273	0.204308	1.521729
C260	C	1.752273	0.454308	1.771729
H261	H	0.604621	-0.231059	0.213401
H262	H	0.854621	0.018941	0.463401
H263	H	1.104621	0.268941	0.713401
H264	H	1.354621	0.518941	0.963401
Cl265	Cl	0.424776	-0.176087	0.162896
Cl266	Cl	0.674776	0.073913	0.412896
Cl267	Cl	0.924776	0.323913	0.662896
Cl268	Cl	1.174776	0.573913	0.912896
H269	H	0.597644	-0.394605	0.363735
H270	H	0.847644	-0.144605	0.613735
H271	H	1.097644	0.105395	0.863735
H272	H	1.347644	0.355395	1.113735
Cl273	Cl	1.108234	-0.189795	1.030869
Cl274	Cl	1.358234	0.060205	1.280869
Cl275	Cl	1.608234	0.310205	1.530869
Cl276	Cl	1.858234	0.560205	1.780869
H277	H	1.060854	-0.780310	0.326923
H278	H	1.310854	-0.530310	0.576923
H279	H	1.560854	-0.280310	0.826923
H280	H	1.810854	-0.030310	1.076923
H281	H	0.267368	-0.366015	0.337470
H282	H	0.517368	-0.116015	0.587470
H283	H	0.767368	0.133985	0.837470
H284	H	1.017368	0.383985	1.087470
H285	H	1.101089	-0.890201	0.364100
H286	H	1.351089	-0.640201	0.614100
H287	H	1.601089	-0.390201	0.864100
H288	H	1.851089	-0.140201	1.114100
H289	H	0.487703	-0.354320	0.326713
H290	H	0.737703	-0.104320	0.576713
H291	H	0.987703	0.145680	0.826713
H292	H	1.237703	0.395680	1.076713
H293	H	1.087448	-0.210573	0.886964
H294	H	1.337448	0.039427	1.136964
H295	H	1.587448	0.289427	1.386964
H296	H	1.837448	0.539427	1.636964
Cl297	Cl	0.896320	-0.401598	1.030764
Cl298	Cl	1.146320	-0.151598	1.280764
Cl299	Cl	1.396320	0.098402	1.530764
Cl300	Cl	1.646320	0.348402	1.780764
Cl301	Cl	1.108260	-0.189786	0.515560
Cl302	Cl	1.358260	0.060214	0.765560
Cl303	Cl	1.608260	0.310214	1.015560
Cl304	Cl	1.858260	0.560214	1.265560
H305	H	0.737929	-0.225333	0.208160
H306	H	0.987929	0.024667	0.458160
H307	H	1.237929	0.274667	0.708160
H308	H	1.487929	0.524667	0.958160
H309	H	0.937927	-0.897367	0.213290
H310	H	1.187927	-0.647367	0.463290
H311	H	1.437927	-0.397367	0.713290
H312	H	1.687927	-0.147367	0.963290
H313	H	0.274333	-0.202467	0.187134
H314	H	0.524333	0.047533	0.437134
H315	H	0.774333	0.297533	0.687134
H316	H	1.024333	0.547533	0.937134
H317	H	0.917124	-0.380798	0.531114
H318	H	1.167124	-0.130798	0.781114
H319	H	1.417124	0.119202	1.031114
H320	H	1.667124	0.369202	1.281114
Cl321	Cl	1.093026	-0.542813	0.356693
Cl322	Cl	1.343026	-0.292813	0.606693
Cl323	Cl	1.593026	-0.042813	0.856693
Cl324	Cl	1.843026	0.207187	1.106693
Cl325	Cl	0.890024	-0.551726	0.169069
Cl326	Cl	1.140024	-0.301726	0.419069
Cl327	Cl	1.390024	-0.051726	0.669069
Cl328	Cl	1.640024	0.198274	0.919069
H329	H	0.400675	-0.360311	0.332211
H330	H	0.650675	-0.110311	0.582211
H331	H	0.900675	0.139689	0.832211
H332	H	1.150675	0.389689	1.082211
Cl333	Cl	0.896318	-0.401592	0.871219
Cl334	Cl	1.146318	-0.151592	1.121219
Cl335	Cl	1.396318	0.098408	1.371219
Cl336	Cl	1.646318	0.348408	1.621219
Cl337	Cl	0.911691	-1.047829	0.189003
Cl338	Cl	1.161691	-0.797829	0.439003
Cl339	Cl	1.411691	-0.547829	0.689003
Cl340	Cl	1.661691	-0.297829	0.939003
H341	H	0.730963	-0.388892	0.358488
H342	H	0.980963	-0.138892	0.608488
H343	H	1.230963	0.111108	0.858488
H344	H	1.480963	0.361108	1.108488
Cl345	Cl	1.085999	-0.708675	0.350201
Cl346	Cl	1.335999	-0.458675	0.600201
Cl347	Cl	1.585999	-0.208675	0.850201
Cl348	Cl	1.835999	0.041325	1.100201
Cl349	Cl	1.114683	-1.038924	0.376636
Cl350	Cl	1.364683	-0.788924	0.626636
Cl351	Cl	1.614683	-0.538924	0.876636
Cl352	Cl	1.864683	-0.288924	1.126636
H353	H	0.903617	-0.700443	0.181604
H354	H	1.153617	-0.450443	0.431604
H355	H	1.403617	-0.200443	0.681604
H356	H	1.653617	0.049557	0.931604
Cl357	Cl	0.923245	-0.827480	0.199745
Cl358	Cl	1.173245	-0.577480	0.449745
Cl359	Cl	1.423245	-0.327480	0.699745
Cl360	Cl	1.673245	-0.077480	0.949745
Cl361	Cl	0.534712	-0.216386	0.199910
Cl362	Cl	0.784712	0.033614	0.449910
Cl363	Cl	1.034712	0.283614	0.699910
Cl364	Cl	1.284712	0.533614	0.949910
H365	H	1.087458	-0.210565	0.659437
H366	H	1.337458	0.039435	0.909437
H367	H	1.587458	0.289435	1.159437
H368	H	1.837458	0.539435	1.409437
H369	H	0.917127	-0.380802	0.659359
H370	H	1.167127	-0.130802	0.909359
H371	H	1.417127	0.119198	1.159359
H372	H	1.667127	0.369198	1.409359
