data_functionalizedCrystal
_audit_creation_method	'MofGen! by Chris Wilmer'
_symmetry_space_group_name_H-M	'P1'
_symmetry_Int_Tables_number	1
_symmetry_cell_setting	triclinic
loop_
_symmetry_equiv_pos_as_xyz
  x,y,z
_cell_length_a	14.519709
_cell_length_b	14.519731
_cell_length_c	13.596369
_cell_angle_alpha	90.005365
_cell_angle_beta	89.999340
_cell_angle_gamma	96.315500
loop_
_atom_site_label
_atom_site_type_symbol
_atom_site_fract_x
_atom_site_fract_y
_atom_site_fract_z
O1	O	1.223880	-0.120883	-0.081675
O2	O	0.955404	-0.135120	-0.081707
O3	O	1.096750	0.006236	-0.081670
O4	O	1.082534	-0.262239	-0.081712
O5	O	1.096731	0.006227	0.081912
O6	O	0.955386	-0.135129	0.081876
O7	O	1.223861	-0.120892	0.081908
Zn8	Zn	1.089621	-0.128012	0.107864
Zn9	Zn	1.089645	-0.128000	-0.107663
O10	O	1.082515	-0.262248	0.081871
C11	C	0.921035	-0.134461	0.000081
C12	C	0.818654	-0.132473	0.000070
C13	C	1.096075	0.040591	0.000124
C14	C	1.094079	0.142971	0.000133
C15	C	0.443757	-0.125153	0.000116
C16	C	0.548065	-0.127186	0.000102
C17	C	0.631202	-0.128813	0.000092
C18	C	0.735517	-0.130846	0.000080
C19	C	1.258230	-0.121551	0.000118
C20	C	1.360612	-0.123539	0.000122
C21	C	1.092457	0.226115	0.000137
C22	C	1.090430	0.330424	0.000138
C23	C	1.088822	0.413563	0.000138
C24	C	1.086795	0.517878	0.000141
C25	C	1.083191	0.703397	0.000095
C26	C	1.085187	0.601017	0.000141
N27	N	1.089611	-0.128019	0.254956
C28	C	1.089615	-0.128022	0.343954
C29	C	1.089623	-0.128017	0.455605
C30	C	1.089634	-0.128007	0.544596
C31	C	1.089644	-0.128002	0.656254
N32	N	1.089656	-0.127992	0.745245
