data_functionalizedCrystal
_audit_creation_method	'MofGen! by Chris Wilmer'
_symmetry_space_group_name_H-M	'P1'
_symmetry_Int_Tables_number	1
_symmetry_cell_setting	triclinic
loop_
_symmetry_equiv_pos_as_xyz
  x,y,z
_cell_length_a	16.992694
_cell_length_b	13.339070
_cell_length_c	12.377047
_cell_angle_alpha	80.970034
_cell_angle_beta	78.099323
_cell_angle_gamma	103.148759
loop_
_atom_site_label
_atom_site_type_symbol
_atom_site_fract_x
_atom_site_fract_y
_atom_site_fract_z
O1	O	1.070456	0.199623	0.093845
O2	O	0.841643	0.197221	0.093878
O3	O	0.929790	0.049035	0.093862
O4	O	0.982309	0.347808	0.093861
O5	O	0.964711	0.086537	-0.094136
O6	O	0.876564	0.234722	-0.094120
O7	O	1.105377	0.237124	-0.094154
Zn8	Zn	0.996515	0.241877	-0.123986
Zn9	Zn	0.950505	0.192468	0.123711
O10	O	1.017231	0.385310	-0.094137
C11	C	0.829220	0.212889	-0.000116
C12	C	0.740173	0.203692	-0.000103
C13	C	0.938379	0.029379	-0.000134
C14	C	0.911933	-0.085062	-0.000126
C15	C	0.709233	0.292406	-0.000105
C16	C	0.625569	0.283764	-0.000120
C17	C	0.572844	0.186405	-0.000126
C18	C	0.603790	0.097685	-0.000129
C19	C	0.687454	0.106330	-0.000121
C20	C	0.321456	0.150576	-0.000157
C21	C	0.237786	0.141937	-0.000161
C22	C	0.259571	0.328017	-0.000154
C23	C	0.343235	0.336652	-0.000140
C24	C	0.374174	0.247933	-0.000148
N25	N	0.487325	0.177569	-0.000139
N26	N	0.459694	0.256772	-0.000144
C27	C	1.117552	-0.433226	-0.000156
C28	C	1.142403	-0.325702	-0.000171
C29	C	1.084787	-0.265537	-0.000159
C30	C	1.002318	-0.312907	-0.000134
C31	C	0.977466	-0.420440	-0.000129
C32	C	0.944701	-0.252750	-0.000131
C33	C	0.862231	-0.300120	-0.000106
C34	C	0.837384	-0.407643	-0.000100
C35	C	0.894999	-0.467808	-0.000112
C36	C	0.969553	-0.145217	-0.000137
C37	C	0.829466	-0.132430	-0.000109
C38	C	0.804616	-0.239955	-0.000094
C39	C	1.117800	0.221456	-0.000156
C40	C	1.206845	0.230651	-0.000162
C41	C	1.008642	0.404966	-0.000138
C42	C	1.035086	0.519405	-0.000139
N43	N	1.027922	0.275598	-0.293032
N44	N	0.919103	0.158739	0.292757
C45	C	1.100839	0.353940	0.647812
C46	C	1.122828	0.377568	0.529481
C47	C	1.071899	0.322863	0.470294
C48	C	0.998977	0.244525	0.529450
C49	C	0.976989	0.220889	0.647793
C50	C	0.948048	0.189812	0.470275
C51	C	0.875126	0.111474	0.529431
C52	C	0.853142	0.087842	0.647762
C53	C	0.904071	0.142547	0.706949
C54	C	0.970036	0.213449	0.351932
C55	C	0.846186	0.080397	0.351912
C56	C	0.824197	0.056769	0.470244
H57	H	0.752157	0.371685	-0.000099
O58	O	1.222533	-0.279601	-0.000388
C59	C	1.259174	-0.198349	-0.097744
H60	H	1.224581	-0.213554	-0.165789
H61	H	1.327475	-0.196263	-0.130436
H62	H	1.255098	-0.119529	-0.075732
H63	H	1.105026	-0.177986	-0.000171
H64	H	0.234370	0.400247	-0.000150
O65	O	1.040856	0.289482	0.294301
C66	C	1.049336	0.298637	0.177162
H67	H	1.012725	0.221959	0.160974
H68	H	1.118100	0.315240	0.132186
H69	H	1.024041	0.366114	0.143606
H70	H	1.036700	-0.106659	-0.000157
H71	H	0.782552	-0.083443	-0.000105
H72	H	0.770233	-0.446206	-0.000088
H73	H	0.194857	0.062652	-0.000165
H74	H	1.164456	-0.482220	-0.000175
H75	H	0.874769	-0.555364	-0.000096
H76	H	0.764822	-0.007016	0.518425
H77	H	0.600382	0.356004	-0.000120
O78	O	0.796780	0.027384	0.294257
C79	C	0.831840	0.065014	0.177126
H80	H	0.874464	0.148147	0.160981
H81	H	0.779794	0.066381	0.132148
H82	H	0.869611	0.010944	0.143533
H83	H	1.089807	0.342106	0.373943
O84	O	0.724503	-0.286123	0.000073
C85	C	0.687853	-0.367339	0.097459
H86	H	0.738917	-0.395466	0.129910
H87	H	0.644806	-0.435884	0.075573
H88	H	0.650199	-0.336344	0.165642
O89	O	0.351581	0.064468	-0.000350
C90	C	0.417434	0.083326	-0.097697
H91	H	0.411051	0.147090	-0.165757
H92	H	0.414824	0.007653	-0.130373
H93	H	0.479677	0.110483	-0.075680
O94	O	0.394346	0.431317	-0.000191
C95	C	0.349091	0.507762	-0.000167
H96	H	0.292875	0.481427	-0.035765
H97	H	0.391028	0.586217	-0.054746
H98	H	0.326779	0.517458	0.090025
O99	O	0.552454	0.003180	-0.000087
C100	C	0.471978	0.014575	-0.000119
H101	H	0.463295	0.086252	0.035475
H102	H	0.423082	-0.059018	0.054459
H103	H	0.464482	0.025706	-0.090313
O104	O	1.193665	0.453727	0.472196
C105	C	1.233912	0.496928	0.549806
H106	H	1.186483	0.483313	0.634166
H107	H	1.262712	0.585150	0.515638
H108	H	1.285086	0.457256	0.562372
O109	O	1.150195	0.407000	0.705480
C110	C	1.115163	0.369314	0.822610
H111	H	1.045339	0.331656	0.838767
H112	H	1.125497	0.437676	0.867616
H113	H	1.146326	0.308138	0.856162
H114	H	0.886170	0.123314	0.803304
H115	H	0.793769	0.024045	0.695923
O116	O	0.717367	0.020038	-0.000064
C117	C	0.652897	-0.067743	-0.000096
H118	H	0.589835	-0.053731	0.035491
H119	H	0.659310	-0.141204	0.054486
H120	H	0.657415	-0.079277	-0.090290
