data_functionalizedCrystal
_audit_creation_method	'MofGen! by Chris Wilmer'
_symmetry_space_group_name_H-M	'P1'
_symmetry_Int_Tables_number	1
_symmetry_cell_setting	triclinic
loop_
_symmetry_equiv_pos_as_xyz
  x,y,z
_cell_length_a	16.109302
_cell_length_b	15.538191
_cell_length_c	14.586319
_cell_angle_alpha	89.999456
_cell_angle_beta	89.994552
_cell_angle_gamma	65.366938
loop_
_atom_site_label
_atom_site_type_symbol
_atom_site_fract_x
_atom_site_fract_y
_atom_site_fract_z
O1	O	1.066615	0.121097	-0.076271
O2	O	0.820009	0.136166	-0.076263
O3	O	0.991316	-0.008513	-0.076273
O4	O	0.895308	0.265775	-0.076261
O5	O	0.991308	-0.008515	0.076208
O6	O	0.820001	0.136164	0.076218
O7	O	1.066607	0.121095	0.076210
Cu8	Cu	0.943303	0.128629	0.090137
Cu9	Cu	0.943313	0.128631	-0.090190
O10	O	0.895300	0.265773	0.076220
C11	C	0.789214	0.135554	-0.000021
C12	C	0.697471	0.133724	-0.000019
C13	C	0.486402	0.129490	0.083089
C14	C	0.400204	0.127760	0.083086
C15	C	0.400221	0.127767	-0.083157
C16	C	0.486421	0.129491	-0.083153
C17	C	0.529507	0.130357	-0.000027
C18	C	0.357109	0.126904	-0.000034
C19	C	0.263649	0.125028	-0.000038
C20	C	0.622974	0.132231	-0.000022
C21	C	1.001357	-0.043612	-0.000036
C22	C	1.031277	-0.148195	-0.000046
C23	C	0.734025	-0.435895	-0.000016
C24	C	0.762160	-0.534170	-0.000015
C25	C	0.920418	-0.556661	-0.000021
C26	C	0.892296	-0.458386	-0.000026
C27	C	0.799098	-0.398011	-0.000023
C28	C	0.957369	-0.420502	-0.000033
C29	C	0.929248	-0.322236	-0.000034
C30	C	0.836054	-0.261855	-0.000028
C31	C	0.770977	-0.299745	-0.000024
C32	C	1.050566	-0.480879	-0.000030
C33	C	1.115639	-0.442995	-0.000037
C34	C	1.087519	-0.344727	-0.000044
C35	C	0.994325	-0.284346	-0.000038
C36	C	1.152596	-0.306837	-0.000049
C37	C	1.124475	-0.208571	-0.000049
C38	C	0.966204	-0.186080	-0.000039
C39	C	1.097402	0.121706	-0.000034
C40	C	1.189145	0.123537	-0.000042
C41	C	0.885259	0.300873	-0.000019
C42	C	0.855339	0.405456	-0.000015
N43	N	0.943303	0.128627	0.216968
N44	N	0.943322	0.128626	-0.217021
C45	C	1.019169	0.064584	0.451970
C46	C	1.019173	0.064582	0.547952
C47	C	0.867449	0.192672	0.547970
C48	C	0.867444	0.192669	0.451991
C49	C	0.943309	0.128626	0.403993
C50	C	0.943316	0.128627	0.595954
C51	C	0.943319	0.128625	0.700021
C52	C	0.943305	0.128627	0.299919
H53	H	0.890313	-0.136918	-0.000043
H54	H	0.709163	-0.565010	0.000004
H55	H	1.080942	0.012436	0.412893
Cl56	Cl	1.114543	-0.015933	0.608263
H57	H	0.805682	0.244815	0.587059
Cl58	Cl	1.037577	-0.632569	-0.000018
H59	H	1.073459	-0.560893	-0.000038
Cl60	Cl	1.269754	-0.382748	-0.000035
H61	H	1.177465	-0.177725	-0.000054
Cl62	Cl	0.772066	0.273180	0.391670
H63	H	0.521519	0.130194	-0.150840
Cl64	Cl	0.800700	-0.138318	-0.000020
Cl65	Cl	0.540567	0.130573	0.187590
Cl66	Cl	0.346017	0.126673	0.187580
H67	H	1.191521	-0.492165	-0.000036
H68	H	0.695086	-0.250583	-0.000028
H69	H	0.365130	0.127063	-0.150835
H70	H	0.658133	-0.386734	-0.000020
