data_functionalizedCrystal
_audit_creation_method	'MofGen! by Chris Wilmer'
_symmetry_space_group_name_H-M	'P1'
_symmetry_Int_Tables_number	1
_symmetry_cell_setting	triclinic
loop_
_symmetry_equiv_pos_as_xyz
  x,y,z
_cell_length_a	21.606444
_cell_length_b	15.698487
_cell_length_c	21.606444
_cell_angle_alpha	59.998264
_cell_angle_beta	59.999398
_cell_angle_gamma	59.997833
loop_
_atom_site_label
_atom_site_type_symbol
_atom_site_fract_x
_atom_site_fract_y
_atom_site_fract_z
Zr1	Zr	0.596255	0.111750	0.596226
O2	O	0.626550	0.247768	0.497399
O3	O	0.497429	0.070057	0.626523
O4	O	0.497429	0.247771	0.626520
O5	O	0.728404	-0.070135	0.497403
O6	O	0.497430	0.247769	0.728372
O7	O	0.626550	0.070054	0.497402
O8	O	0.497430	-0.070130	0.728377
O9	O	0.728404	0.247764	0.497397
O10	O	0.563461	0.052269	0.715454
O11	O	0.639472	-0.052351	0.639444
O12	O	0.639472	0.156885	0.639440
O13	O	0.715484	0.052265	0.563430
Zr14	Zr	0.758703	-0.111839	0.758670
Zr15	Zr	0.596258	0.111746	0.758668
Zr16	Zr	0.758701	-0.111836	0.596228
Zr17	Zr	0.758701	0.111742	0.596224
Zr18	Zr	0.596258	-0.111832	0.758672
O19	O	0.857530	-0.070146	0.728374
O20	O	0.626553	0.247764	0.728370
O21	O	0.857526	-0.070141	0.497402
O22	O	0.728409	-0.247858	0.857498
O23	O	0.497432	0.070052	0.857495
O24	O	0.728406	-0.247853	0.626526
O25	O	0.626555	0.070046	0.857493
O26	O	0.857530	-0.247861	0.728377
O27	O	0.857528	-0.247859	0.626525
O28	O	0.728409	-0.070143	0.857495
O29	O	0.728406	0.247761	0.626517
O30	O	0.626553	-0.247850	0.728379
O31	O	0.626555	-0.247853	0.857499
O32	O	0.497432	-0.070133	0.857497
O33	O	0.857526	0.070043	0.497399
O34	O	0.857528	0.070041	0.626519
O35	O	0.715486	-0.156974	0.715456
O36	O	0.639475	-0.052354	0.791466
O37	O	0.715486	0.052262	0.715452
O38	O	0.791498	-0.052358	0.639442
C39	C	0.474285	-0.000036	0.677450
C40	C	0.405322	-0.000033	0.677451
C41	C	0.677479	-0.279707	0.677453
C42	C	0.677479	-0.374621	0.677455
C43	C	0.333246	0.054579	0.717126
C44	C	0.268452	0.054572	0.717128
C45	C	0.275734	-0.000041	0.677452
C46	C	0.347818	-0.054660	0.637776
C47	C	0.412611	-0.054658	0.637778
C48	C	0.086515	-0.054669	0.637767
C49	C	0.021714	-0.054663	0.637766
C50	C	-0.057645	0.054562	0.717117
C51	C	0.007149	0.054564	0.717120
C52	C	0.079226	-0.000059	0.677447
C53	C	0.149484	-0.000052	0.677446
C54	C	0.205478	-0.000042	0.677448
C55	C	0.677478	-0.548386	0.677441
C56	C	0.677477	-0.451689	0.677447
C57	C	0.880674	-0.000054	0.677446
C58	C	0.949636	-0.000057	0.677445
C59	C	0.677476	-0.000040	0.474258
C60	C	0.677475	-0.000039	0.405297
C61	C	0.677479	0.279617	0.677443
C62	C	0.677479	0.374532	0.677442
C63	C	0.621364	0.077195	0.372898
C64	C	0.621362	0.077191	0.308104
C65	C	0.677476	-0.000043	0.275707
C66	C	0.733591	-0.077285	0.308112
C67	C	0.733588	-0.077284	0.372908
C68	C	0.733600	-0.077289	0.046798
C69	C	0.733599	-0.077281	-0.018003
C70	C	0.621373	0.077187	-0.018006
C71	C	0.621371	0.077188	0.046790
C72	C	0.677483	-0.000057	0.079192
C73	C	0.677483	-0.000053	0.149449
C74	C	0.677479	-0.000043	0.205447
C75	C	0.677482	-0.000049	0.880639
C76	C	0.677483	-0.000050	0.949599
C77	C	0.474285	0.279626	0.677445
C78	C	0.405322	0.374544	0.677444
C79	C	0.474288	-0.000040	0.880641
C80	C	0.405326	-0.000038	0.949602
C81	C	0.677482	-0.279711	0.880644
C82	C	0.677483	-0.374627	0.949606
C83	C	0.677476	0.279622	0.474253
C84	C	0.677475	0.374538	0.405290
C85	C	0.880671	-0.000049	0.474256
C86	C	0.949632	-0.000051	0.405294
C87	C	0.880674	-0.279716	0.677451
C88	C	0.949636	-0.374634	0.677452
C89	C	0.412614	0.473737	0.637766
C90	C	0.347823	0.562931	0.637768
C91	C	0.275741	0.552930	0.677445
C92	C	0.268450	0.453727	0.717128
C93	C	0.333241	0.364535	0.717130
C94	C	0.333256	0.054584	0.942310
C95	C	0.268453	0.054606	1.007101
C96	C	0.275722	-0.000000	1.079183
C97	C	0.347800	-0.054624	1.086474
C98	C	0.412601	-0.054640	1.021684
C99	C	0.637806	-0.364590	1.021675
C100	C	0.637810	-0.453766	1.086479
C101	C	0.677487	-0.552977	1.079212
C102	C	0.717168	-0.563012	1.007136
C103	C	0.717168	-0.473837	0.942334
C104	C	0.717160	0.364501	0.333221
C105	C	0.717177	0.453676	0.268418
C106	C	0.677503	0.552888	0.275684
C107	C	0.637818	0.562922	0.347760
C108	C	0.637806	0.473748	0.412563
C109	C	1.021703	-0.054664	0.412586
C110	C	1.086505	-0.054662	0.347796
C111	C	1.079236	-0.000052	0.275714
C112	C	1.007158	0.054568	0.268423
C113	C	0.942357	0.054571	0.333213
C114	C	1.021706	-0.364599	0.637767
C115	C	1.086509	-0.453776	0.637753
C116	C	1.079242	-0.552986	0.677428
C117	C	1.007165	-0.563019	0.717114
C118	C	0.942363	-0.473843	0.717124
H119	H	0.327308	0.099057	0.749431
H120	H	0.605517	0.643711	0.353668
H121	H	0.779279	-0.140177	0.399288
O122	O	0.355012	0.659232	0.599266
C123	C	0.403014	0.779863	0.584776
C124	C	0.394940	0.670769	0.628428
H125	H	0.435281	0.789234	0.608347
H126	H	0.435359	0.789271	0.522130
H127	H	0.344322	0.841884	0.591568
H128	H	0.453600	0.608682	0.621698
H129	H	0.362556	0.661451	0.691057
H130	H	0.353743	-0.099133	0.605474
O131	O	0.599188	-0.268302	1.028879
C132	C	0.520301	-0.169385	1.114435
C133	C	0.564060	-0.278489	1.106376
H134	H	0.491876	-0.177585	1.177087
H135	H	0.561308	-0.124780	1.086133
H136	H	0.475279	-0.125013	1.086041
H137	H	0.609082	-0.322949	1.134775
H138	H	0.523006	-0.323016	1.134657
O139	O	0.755712	0.444101	0.198352
C140	C	0.790869	0.533040	0.063354
C141	C	0.747212	0.544037	0.142653
H142	H	0.783999	0.613825	0.018300
H143	H	0.853529	0.488607	0.056486
H144	H	0.767353	0.488531	0.056574
H145	H	0.770663	0.588567	0.149488
H146	H	0.684557	0.588427	0.149485
H147	H	0.605494	-0.445577	1.145161
H148	H	0.471282	-0.099126	1.027632
O149	O	0.198494	0.107721	0.755676
C150	C	0.126616	0.216025	0.834411
C151	C	0.205889	0.155896	0.790772
H152	H	0.132568	0.254973	0.862811
H153	H	0.094286	0.278100	0.793330
H154	H	0.094302	0.159448	0.879445
H155	H	0.238267	0.212393	0.745738
H156	H	0.238162	0.093807	0.831899
H157	H	0.677519	0.625491	0.222912
H158	H	0.327323	0.099064	0.883623
O159	O	-0.000062	0.107631	0.755729
C160	C	-0.085618	0.216015	0.834406
C161	C	-0.077559	0.155944	0.790723
H162	H	-0.148270	0.255111	0.862697
H163	H	-0.057313	0.159478	0.879511
H164	H	-0.057226	0.277993	0.793297
H165	H	-0.105954	0.093966	0.831774
H166	H	-0.105843	0.212547	0.745609
H167	H	0.222990	0.625564	0.677438
H168	H	0.209752	0.445600	0.749433
H169	H	1.027638	-0.283826	0.605458
O170	O	0.354897	-0.107545	1.156479
C171	C	0.402921	-0.127590	1.244147
C172	C	0.394923	-0.067545	1.164850
H173	H	0.435295	-0.095288	1.250935
H174	H	0.344242	-0.118181	1.289231
H175	H	0.435194	-0.213818	1.250961
H176	H	0.362680	0.018703	1.157962
H177	H	0.453624	-0.077041	1.119806
H178	H	-0.116339	0.099035	0.749424
H179	H	0.677480	-0.625580	1.131985
H180	H	0.027652	-0.099140	0.605455
H181	H	0.145195	-0.099150	0.605466
O182	O	1.142246	-0.000030	0.212838
C183	C	1.256991	0.043430	0.141634
C184	C	1.185669	0.043455	0.212874
H185	H	1.292110	0.078604	0.141632
H186	H	1.292221	-0.040064	0.141630
H187	H	1.239409	0.091802	0.088866
H188	H	1.203183	-0.004866	0.265680
H189	H	1.150456	0.126978	0.212811
O190	O	0.755758	-0.659446	1.000184
C191	C	0.855154	-0.823518	1.027284
C192	C	0.811507	-0.714344	1.035222
H193	H	0.900247	-0.867926	1.055593
H194	H	0.814081	-0.868052	1.055685
H195	H	0.883479	-0.815368	0.964641
H196	H	0.783178	-0.722399	1.097846
H197	H	0.852614	-0.669851	1.006773
O198	O	0.198403	0.107508	1.000103
C199	C	0.079215	0.097491	1.027141
C200	C	0.158512	0.037461	1.035138
H201	H	0.046946	0.040880	1.055447
H202	H	0.046838	0.159503	1.055511
H203	H	0.085178	0.136532	0.964487
H204	H	0.152618	-0.001644	1.097773
H205	H	0.190860	-0.024493	1.006720
H206	H	0.327293	0.283772	0.749439
H207	H	0.575672	0.140092	0.399268
H208	H	1.145188	-0.099144	0.353747
O209	O	0.872406	0.107631	0.325988
C210	C	0.800563	0.216004	0.240405
C211	C	0.879826	0.155934	0.248486
H212	H	0.806535	0.255091	0.177749
H213	H	0.768235	0.159468	0.268702
H214	H	0.768236	0.277989	0.268793
H215	H	0.912216	0.093950	0.220095
H216	H	0.912096	0.212535	0.220210
H217	H	0.749476	-0.482024	0.883654
H218	H	0.222951	0.000020	1.131933
H219	H	0.749463	0.283726	0.327290
O220	O	0.872339	-0.483544	0.755564
C221	C	0.753098	-0.446225	0.748339
C222	C	0.832381	-0.435175	0.704707
H223	H	0.720763	-0.407108	0.707243
H224	H	0.758998	-0.532439	0.776671
H225	H	0.720819	-0.407245	0.793422
H226	H	0.864704	-0.474098	0.659588
H227	H	0.826427	-0.348944	0.676428
H228	H	0.471298	-0.099126	0.605468
H229	H	0.605486	0.481933	0.471243
O230	O	1.028909	-0.107734	0.482545
C231	C	1.114469	-0.216120	0.554414
C232	C	1.106407	-0.156041	0.475144
H233	H	1.177122	-0.255210	0.548456
H234	H	1.086161	-0.159588	0.586749
H235	H	1.086082	-0.278102	0.586726
H236	H	1.134798	-0.094059	0.442769
H237	H	1.134695	-0.212637	0.442866
H238	H	1.001251	0.099029	0.209725
O239	O	1.156478	-0.443883	0.599095
C240	C	1.244124	-0.377815	0.477931
C241	C	1.164860	-0.388928	0.521620
H242	H	1.250932	-0.333404	0.415283
H243	H	1.250959	-0.333297	0.501396
H244	H	1.289185	-0.458596	0.484771
H245	H	1.119751	-0.308190	0.514799
H246	H	1.158090	-0.433499	0.498146
H247	H	0.575671	0.140081	0.281725
H248	H	1.132014	-0.625591	0.677413
O249	O	0.566787	0.152262	0.078183
C250	C	0.455493	0.305511	0.071318
C251	C	0.517257	0.220539	0.035698
H252	H	0.415441	0.360747	0.036975
H253	H	0.422176	0.267492	0.132106
H254	H	0.483174	0.351242	0.071217
H255	H	0.489638	0.174779	0.035745
H256	H	0.550568	0.258621	-0.025071
H257	H	1.001259	-0.643807	0.749416
O258	O	0.788206	-0.152290	-0.049461
C259	C	0.921834	-0.232389	-0.107033
C260	C	0.860074	-0.147422	-0.071407
H261	H	0.979953	-0.228467	-0.124800
H262	H	0.919102	-0.312430	-0.063840
H263	H	0.912160	-0.219123	-0.158888
H264	H	0.869708	-0.160589	-0.019560
H265	H	0.862823	-0.067410	-0.114649
O266	O	0.566797	0.152089	-0.049427
C267	C	0.463979	0.189841	-0.084913
C268	C	0.525738	0.104912	-0.049297
H269	H	0.430776	0.151729	-0.084834
H270	H	0.423823	0.245038	-0.050628
H271	H	0.491658	0.235634	-0.145698
H272	H	0.498124	0.059043	0.011484
H273	H	0.565887	0.049786	-0.083637
O274	O	0.788129	-0.152189	0.078270
C275	C	0.891017	-0.189978	0.113669
C276	C	0.829279	-0.105039	0.078028
H277	H	0.924314	-0.151891	0.113471
H278	H	0.863394	-0.235760	0.174486
H279	H	0.931084	-0.245181	0.079383
H280	H	0.789192	-0.049766	0.112254
H281	H	0.856953	-0.059335	0.017204
O282	O	0.788198	-0.152284	0.276652
C283	C	0.921829	-0.232364	0.219078
C284	C	0.860062	-0.147401	0.254707
H285	H	0.979944	-0.228431	0.201311
H286	H	0.919104	-0.312408	0.262270
H287	H	0.912158	-0.219103	0.167224
H288	H	0.869692	-0.160563	0.306554
H289	H	0.862804	-0.067386	0.211466
H290	H	0.471301	0.481900	0.605452
