data_functionalizedCrystal
_audit_creation_method	'MofGen! by Chris Wilmer'
_symmetry_space_group_name_H-M	'P1'
_symmetry_Int_Tables_number	1
_symmetry_cell_setting	triclinic
loop_
_symmetry_equiv_pos_as_xyz
  x,y,z
_cell_length_a	14.519709
_cell_length_b	15.072220
_cell_length_c	14.519709
_cell_angle_alpha	89.989674
_cell_angle_beta	96.319855
_cell_angle_gamma	89.998331
loop_
_atom_site_label
_atom_site_type_symbol
_atom_site_fract_x
_atom_site_fract_y
_atom_site_fract_z
O1	O	1.223866	0.073669	-0.120898
O2	O	1.473866	0.323669	0.129102
O3	O	1.723866	0.573669	0.379102
O4	O	1.973866	0.823669	0.629102
O5	O	0.955389	0.073696	-0.135134
O6	O	1.205389	0.323696	0.114866
O7	O	1.455389	0.573696	0.364866
O8	O	1.705389	0.823696	0.614866
O9	O	1.096746	0.073674	0.006223
O10	O	1.346746	0.323674	0.256223
O11	O	1.596746	0.573674	0.506223
O12	O	1.846746	0.823674	0.756223
O13	O	1.082509	0.073691	-0.262254
O14	O	1.332509	0.323691	-0.012254
O15	O	1.582509	0.573691	0.237746
O16	O	1.832509	0.823691	0.487746
O17	O	1.096737	-0.073891	0.006240
O18	O	1.346737	0.176109	0.256240
O19	O	1.596737	0.426109	0.506240
O20	O	1.846737	0.676109	0.756240
O21	O	0.955380	-0.073869	-0.135117
O22	O	1.205380	0.176131	0.114883
O23	O	1.455380	0.426131	0.364883
O24	O	1.705380	0.676131	0.614883
O25	O	1.223857	-0.073896	-0.120880
O26	O	1.473857	0.176104	0.129120
O27	O	1.723857	0.426104	0.379120
O28	O	1.973857	0.676104	0.629120
Zn29	Zn	1.089617	-0.097312	-0.127996
Zn30	Zn	1.339617	0.152688	0.122004
Zn31	Zn	1.589617	0.402688	0.372004
Zn32	Zn	1.839617	0.652688	0.622004
Zn33	Zn	1.089629	0.097112	-0.128019
Zn34	Zn	1.339629	0.347112	0.121981
Zn35	Zn	1.589629	0.597112	0.371981
Zn36	Zn	1.839629	0.847112	0.621981
O37	O	1.082500	-0.073874	-0.262237
O38	O	1.332500	0.176126	-0.012237
O39	O	1.582500	0.426126	0.237763
O40	O	1.832500	0.676126	0.487763
C41	C	0.921025	-0.000083	-0.134462
C42	C	1.171025	0.249917	0.115538
C43	C	1.421025	0.499917	0.365538
C44	C	1.671025	0.749917	0.615538
C45	C	0.818643	-0.000073	-0.132474
C46	C	1.068643	0.249927	0.117526
C47	C	1.318643	0.499927	0.367526
C48	C	1.568643	0.749927	0.617526
N49	N	1.089615	-0.230000	-0.127980
N50	N	1.339615	0.020000	0.122020
N51	N	1.589615	0.270000	0.372020
N52	N	1.839615	0.520000	0.622020
C53	C	0.443748	-0.000114	-0.125154
C54	C	0.693748	0.249886	0.124846
C55	C	0.943748	0.499886	0.374846
C56	C	1.193748	0.749886	0.624846
C57	C	0.548056	-0.000102	-0.127187
C58	C	0.798056	0.249898	0.122813
C59	C	1.048056	0.499898	0.372813
C60	C	1.298056	0.749898	0.622813
C61	C	0.631192	-0.000092	-0.128814
C62	C	0.881192	0.249908	0.121186
C63	C	1.131192	0.499908	0.371186
C64	C	1.381192	0.749908	0.621186
C65	C	0.735507	-0.000082	-0.130847
C66	C	0.985507	0.249918	0.119153
C67	C	1.235507	0.499918	0.369153
C68	C	1.485507	0.749918	0.619153
C69	C	1.089630	-0.589202	-0.128011
C70	C	1.339630	-0.339202	0.121989
C71	C	1.589630	-0.089202	0.371989
C72	C	1.839630	0.160798	0.621989
C73	C	1.165513	-0.551579	-0.052628
C74	C	1.415513	-0.301579	0.197372
C75	C	1.665513	-0.051579	0.447372
C76	C	1.915513	0.198421	0.697372
C77	C	1.165314	-0.448754	-0.052348
C78	C	1.415314	-0.198754	0.197652
C79	C	1.665314	0.051246	0.447652
C80	C	1.915314	0.301246	0.697652
C81	C	1.089623	-0.410998	-0.127996
C82	C	1.339623	-0.160998	0.122004
C83	C	1.589623	0.089002	0.372004
C84	C	1.839623	0.339002	0.622004
C85	C	0.993371	-0.448333	-0.106821
C86	C	1.243371	-0.198333	0.143179
C87	C	1.493371	0.051667	0.393179
C88	C	1.743371	0.301667	0.643179
C89	C	0.993820	-0.551190	-0.106288
C90	C	1.243820	-0.301190	0.143712
C91	C	1.493820	-0.051190	0.393712
C92	C	1.743820	0.198810	0.643712
C93	C	1.109132	-0.551275	-0.224791
C94	C	1.359132	-0.301275	0.025209
C95	C	1.609132	-0.051275	0.275209
C96	C	1.859132	0.198725	0.525209
C97	C	1.111315	-0.448411	-0.224146
C98	C	1.361315	-0.198411	0.025854
C99	C	1.611315	0.051589	0.275854
C100	C	1.861315	0.301589	0.525854
C101	C	1.089614	-0.310285	-0.127989
C102	C	1.339614	-0.060285	0.122011
C103	C	1.589614	0.189715	0.372011
C104	C	1.839614	0.439715	0.622011
C105	C	1.089633	-0.689915	-0.128016
C106	C	1.339633	-0.439915	0.121984
C107	C	1.589633	-0.189915	0.371984
C108	C	1.839633	0.060085	0.621984
C109	C	1.258221	-0.000115	-0.121553
C110	C	1.508221	0.249885	0.128447
C111	C	1.758221	0.499885	0.378447
C112	C	2.008221	0.749885	0.628447
C113	C	1.360602	-0.000119	-0.123541
C114	C	1.610602	0.249881	0.126459
C115	C	1.860602	0.499881	0.376459
C116	C	2.110602	0.749881	0.626459
C117	C	1.096078	-0.000109	0.040591
C118	C	1.346078	0.249891	0.290591
C119	C	1.596078	0.499891	0.540591
C120	C	1.846078	0.749891	0.790591
C121	C	1.094090	-0.000109	0.142972
C122	C	1.344090	0.249891	0.392972
C123	C	1.594090	0.499891	0.642972
C124	C	1.844090	0.749891	0.892972
N125	N	1.089638	0.229801	-0.128027
N126	N	1.339638	0.479801	0.121973
N127	N	1.589638	0.729801	0.371973
N128	N	1.839638	0.979801	0.621973
C129	C	1.083168	-0.000089	-0.296605
C130	C	1.333168	0.249911	-0.046605
C131	C	1.583168	0.499911	0.203395
C132	C	1.833168	0.749911	0.453395
C133	C	1.085156	-0.000083	-0.398987
C134	C	1.335156	0.249917	-0.148987
C135	C	1.585156	0.499917	0.101013
C136	C	1.835156	0.749917	0.351013
C137	C	1.086770	-0.000085	0.517868
C138	C	1.336770	0.249915	0.767868
C139	C	1.586770	0.499915	1.017868
C140	C	1.836770	0.749915	1.267868
C141	C	1.088803	-0.000092	0.413560
C142	C	1.338803	0.249908	0.663560
C143	C	1.588803	0.499908	0.913560
C144	C	1.838803	0.749908	1.163560
C145	C	1.090430	-0.000098	0.330423
C146	C	1.340430	0.249902	0.580423
C147	C	1.590430	0.499902	0.830423
C148	C	1.840430	0.749902	1.080423
C149	C	1.092463	-0.000103	0.226109
C150	C	1.342463	0.249897	0.476109
C151	C	1.592463	0.499897	0.726109
C152	C	1.842463	0.749897	0.976109
H153	H	1.236858	-0.423511	-0.064981
H154	H	1.486858	-0.173511	0.185019
H155	H	1.736858	0.076489	0.435019
H156	H	1.986858	0.326489	0.685019
F157	F	1.149441	-0.585376	0.040713
F158	F	1.399441	-0.335376	0.290713
F159	F	1.649441	-0.085376	0.540713
F160	F	1.899441	0.164624	0.790713
F161	F	1.259343	-0.583904	-0.068877
F162	F	1.509343	-0.333904	0.181123
F163	F	1.759343	-0.083904	0.431123
F164	F	2.009343	0.166096	0.681123
F165	F	1.198927	-0.585171	-0.251337
F166	F	1.448927	-0.335171	-0.001337
F167	F	1.698927	-0.085171	0.248663
F168	F	1.948927	0.164829	0.498663
H169	H	1.059639	-0.422708	-0.282883
H170	H	1.309639	-0.172708	-0.032883
H171	H	1.559639	0.077292	0.217117
H172	H	1.809639	0.327292	0.467117
H173	H	0.975789	-0.422583	-0.037038
H174	H	1.225789	-0.172583	0.212962
H175	H	1.475789	0.077417	0.462962
H176	H	1.725789	0.327417	0.712962
F177	F	1.036807	-0.583079	-0.298119
F178	F	1.286807	-0.333079	-0.048119
F179	F	1.536807	-0.083079	0.201881
F180	F	1.786807	0.166921	0.451881
H181	H	1.152837	-0.424159	0.019470
H182	H	1.402837	-0.174159	0.269470
H183	H	1.652837	0.075841	0.519470
H184	H	1.902837	0.325841	0.769470
H185	H	0.935649	-0.576078	-0.159098
H186	H	1.185649	-0.326078	0.090902
H187	H	1.435649	-0.076078	0.340902
H188	H	1.685649	0.173922	0.590902
H189	H	0.976656	-0.575193	-0.035703
H190	H	1.226656	-0.325193	0.214297
H191	H	1.476656	-0.075193	0.464297
H192	H	1.726656	0.174807	0.714297
F193	F	1.203861	-0.416511	-0.245150
F194	F	1.453861	-0.166511	0.004850
F195	F	1.703861	0.083489	0.254850
F196	F	1.953861	0.333489	0.504850
H197	H	0.935536	-0.423877	-0.160258
H198	H	1.185536	-0.173877	0.089742
H199	H	1.435536	0.076123	0.339742
H200	H	1.685536	0.326123	0.589742
