data_functionalizedCrystal
_audit_creation_method	'MofGen! by Chris Wilmer'
_symmetry_space_group_name_H-M	'P1'
_symmetry_Int_Tables_number	1
_symmetry_cell_setting	triclinic
loop_
_symmetry_equiv_pos_as_xyz
  x,y,z
_cell_length_a	14.044191
_cell_length_b	16.109301
_cell_length_c	14.586319
_cell_angle_alpha	89.998390
_cell_angle_beta	89.996225
_cell_angle_gamma	88.326629
loop_
_atom_site_label
_atom_site_type_symbol
_atom_site_fract_x
_atom_site_fract_y
_atom_site_fract_z
O1	O	-1.257649	-0.200459	0.076201
O2	O	-0.757649	0.299541	0.576201
O3	O	-0.981682	-0.193220	0.076213
O4	O	-0.481682	0.306780	0.576213
O5	O	-1.127246	-0.076373	0.076197
O6	O	-0.627246	0.423627	0.576197
O7	O	-1.112084	-0.317306	0.076217
O8	O	-0.612084	0.182694	0.576217
O9	O	-1.127229	-0.076379	-0.076283
O10	O	-0.627229	0.423621	0.423717
O11	O	-0.981664	-0.193226	-0.076268
O12	O	-0.481664	0.306774	0.423732
O13	O	-1.257631	-0.200465	-0.076279
O14	O	-0.757631	0.299535	0.423721
Cu15	Cu	-1.119646	-0.196846	-0.090196
Cu16	Cu	-0.619646	0.303154	0.409804
Cu17	Cu	-1.119667	-0.196839	0.090130
Cu18	Cu	-0.619667	0.303161	0.590130
O19	O	-1.112067	-0.317313	-0.076264
O20	O	-0.612067	0.182687	0.423736
C21	C	-0.946359	-0.190056	-0.000026
C22	C	-0.446359	0.309944	0.499974
C23	C	-0.841136	-0.180610	-0.000022
C24	C	-0.341136	0.319390	0.499978
C25	C	-1.292954	-0.203629	-0.000038
C26	C	-0.792954	0.296371	0.499962
C27	C	-1.398177	-0.213075	-0.000036
C28	C	-0.898177	0.286925	0.499964
C29	C	-1.126623	-0.045355	-0.000043
C30	C	-0.626623	0.454645	0.499957
C31	C	-1.124782	0.047077	-0.000045
C32	C	-0.624782	0.547077	0.499955
C33	C	-0.590834	-0.230335	-0.000027
C34	C	-0.090834	0.269665	0.499973
C35	C	-0.648484	-0.163354	-0.000031
C36	C	-0.148484	0.336646	0.499969
C37	C	-0.755686	-0.172958	-0.000026
C38	C	-0.255686	0.327042	0.499974
C39	C	-0.483623	-0.220733	-0.000032
C40	C	0.016377	0.279267	0.499968
N41	N	-1.119638	-0.196852	-0.217028
N42	N	-0.619638	0.303148	0.282972
C43	C	-1.112690	-0.348330	-0.000021
C44	C	-0.612690	0.151670	0.499979
C45	C	-1.114531	-0.440762	-0.000014
C46	C	-0.614531	0.059238	0.499986
C47	C	-1.206876	0.263240	-0.000034
C48	C	-0.706876	0.763240	0.499966
C49	C	-1.205138	0.350089	-0.000026
C50	C	-0.705138	0.850089	0.499974
C51	C	-1.032431	0.343068	-0.000022
C52	C	-0.532431	0.843068	0.499978
C53	C	-1.034169	0.256220	-0.000023
C54	C	-0.534169	0.756220	0.499977
C55	C	-1.121395	0.216308	-0.000034
C56	C	-0.621395	0.716308	0.499966
C57	C	-1.117918	0.390006	-0.000025
C58	C	-0.617918	0.890006	0.499975
C59	C	-1.116034	0.484173	-0.000017
C60	C	-0.616034	0.984173	0.499983
C61	C	-1.123280	0.122136	-0.000040
C62	C	-0.623280	0.622136	0.499960
C63	C	-1.177124	-0.251558	-0.452033
C64	C	-0.677124	0.248442	0.047967
C65	C	-1.177134	-0.251553	-0.548014
C66	C	-0.677134	0.248447	-0.048014
C67	C	-1.062195	-0.142115	-0.548027
C68	C	-0.562195	0.357885	-0.048027
C69	C	-1.062190	-0.142117	-0.452048
C70	C	-0.562190	0.357883	0.047952
C71	C	-1.119653	-0.196843	-0.404053
C72	C	-0.619653	0.303157	0.095947
C73	C	-1.119667	-0.196836	-0.596014
C74	C	-0.619667	0.303164	-0.096014
C75	C	-1.119678	-0.196831	-0.700081
C76	C	-0.619678	0.303169	-0.200081
C77	C	-1.119645	-0.196848	-0.299979
C78	C	-0.619645	0.303152	0.200021
N79	N	-1.119682	-0.196828	0.216962
N80	N	-0.619682	0.303172	0.716962
H81	H	-0.617329	-0.098797	0.000028
H82	H	-0.117329	0.401203	0.500028
C83	C	-0.632922	-0.317543	-0.000011
C84	C	-0.132922	0.182457	0.499989
N85	N	-0.664634	-0.383227	0.000005
N86	N	-0.164634	0.116773	0.500005
C87	C	-0.998964	-0.081923	-0.399267
C88	C	-0.498964	0.418077	0.100733
N89	N	-0.951345	-0.036586	-0.359512
N90	N	-0.451345	0.463414	0.140488
H91	H	-1.277900	0.230746	-0.000040
H92	H	-0.777900	0.730746	0.499960
C93	C	-0.936488	0.386980	-0.000029
C94	C	-0.436488	0.886980	0.499971
N95	N	-0.864221	0.420053	-0.000041
N96	N	-0.364221	0.920053	0.499959
C97	C	-0.940128	0.204593	-0.000019
C98	C	-0.440128	0.704593	0.499981
N99	N	-0.869299	0.165707	-0.000012
N100	N	-0.369299	0.665707	0.499988
C101	C	-1.299175	0.401710	-0.000034
C102	C	-0.799175	0.901710	0.499966
N103	N	-1.370007	0.440591	-0.000042
N104	N	-0.870007	0.940591	0.499958
H105	H	-1.223914	-0.296120	-0.412958
H106	H	-0.723914	0.203880	0.087042
C107	C	-1.240339	-0.311758	-0.600788
C108	C	-0.740339	0.188242	-0.100788
N109	N	-1.287943	-0.357111	-0.640536
N110	N	-0.787943	0.142889	-0.140536
C111	C	-0.998979	-0.081927	-0.600830
C112	C	-0.498979	0.418073	-0.100830
N113	N	-0.951359	-0.036596	-0.640601
N114	N	-0.451359	0.463404	-0.140601
