data_functionalizedCrystal
_audit_creation_method	'MofGen! by Chris Wilmer'
_symmetry_space_group_name_H-M	'P1'
_symmetry_Int_Tables_number	1
_symmetry_cell_setting	triclinic
loop_
_symmetry_equiv_pos_as_xyz
  x,y,z
_cell_length_a	19.805407
_cell_length_b	16.625545
_cell_length_c	19.805399
_cell_angle_alpha	90.025578
_cell_angle_beta	90.019573
_cell_angle_gamma	90.025558
loop_
_atom_site_label
_atom_site_type_symbol
_atom_site_fract_x
_atom_site_fract_y
_atom_site_fract_z
Zn1	Zn	1.034740	-0.321020	0.382729
Zn2	Zn	1.034656	-0.455857	0.269545
Zn3	Zn	0.921554	-0.321043	0.269554
Zn4	Zn	0.921520	-0.455815	0.382692
O5	O	0.978117	-0.388434	0.326130
O6	O	1.129445	-0.338915	0.367727
O7	O	1.019633	-0.438001	0.174829
O8	O	0.936618	-0.208207	0.284586
O9	O	1.129384	-0.437980	0.284571
O10	O	1.019775	-0.208191	0.367736
O11	O	0.936537	-0.338953	0.174836
O12	O	0.826833	-0.338912	0.284550
O13	O	0.936559	-0.437907	0.477413
O14	O	0.826808	-0.437928	0.367672
O15	O	1.019741	-0.338874	0.477441
O16	O	1.019599	-0.568684	0.284535
O17	O	0.936478	-0.568653	0.367663
C18	C	0.802261	-0.388418	0.326108
C19	C	0.727029	-0.388431	0.326115
C20	C	0.691690	-0.440067	0.369326
C21	C	0.621001	-0.440068	0.369336
C22	C	0.585654	-0.388437	0.326130
C23	C	0.620999	-0.336796	0.282916
C24	C	0.691686	-0.336791	0.282911
C25	C	0.335925	-0.336814	0.282939
C26	C	0.265233	-0.336825	0.282946
C27	C	0.265241	-0.440091	0.369364
C28	C	0.335928	-0.440086	0.369358
C29	C	0.371266	-0.388442	0.326147
C30	C	0.447915	-0.388440	0.326138
C31	C	0.509007	-0.388443	0.326135
C32	C	0.978044	-0.597925	0.326108
C33	C	0.978074	-0.687546	0.326122
C34	C	0.978101	-0.760328	0.326135
C35	C	0.978140	-0.851637	0.326150
C36	C	0.978175	-0.924413	0.326159
C37	C	0.978214	-1.015727	0.326173
C38	C	1.154660	-0.388450	0.326152
C39	C	1.229892	-0.388457	0.326162
C40	C	0.978155	-0.388383	0.502673
C41	C	0.978172	-0.388361	0.577905
C42	C	0.978210	-0.178125	0.326166
C43	C	0.978249	-0.088504	0.326181
C44	C	0.978119	-0.388426	0.150274
C45	C	0.978234	-0.388221	0.075042
C46	C	1.021486	-0.336792	0.613264
C47	C	1.021493	-0.336769	0.683953
C48	C	0.978188	-0.388319	0.719280
C49	C	0.934870	-0.439890	0.683916
C50	C	0.934860	-0.439909	0.613228
C51	C	0.934908	-0.439815	0.968989
C52	C	0.934922	-0.439794	1.039681
C53	C	1.021541	-0.336675	1.039713
C54	C	1.021531	-0.336694	0.969026
C55	C	0.978210	-0.388262	0.933668
C56	C	0.978202	-0.388285	0.857019
C57	C	0.978199	-0.388300	0.795927
H58	H	0.236455	-0.294776	0.247763
H59	H	0.720464	-0.482113	0.404507
C60	C	0.730091	-0.280631	0.236105
C61	C	0.770692	-0.228993	0.274502
C62	C	0.806072	-0.177236	0.231409
H63	H	0.757700	-0.311332	0.206552
H64	H	0.698937	-0.249837	0.210385
H65	H	0.801842	-0.259784	0.300210
H66	H	0.743100	-0.198275	0.304053
H67	H	0.774917	-0.146442	0.205689
H68	H	0.833676	-0.207944	0.201858
H69	H	0.833618	-0.142189	0.257455
H70	H	0.364689	-0.294769	0.247749
C71	C	0.582502	-0.280822	0.236035
C72	C	0.513032	-0.291891	0.245275
C73	C	0.477550	-0.240348	0.202093
H74	H	0.594027	-0.226630	0.245981
H75	H	0.594024	-0.292554	0.190524
H76	H	0.501515	-0.280153	0.290776
H77	H	0.501487	-0.346073	0.235325
H78	H	0.489072	-0.252081	0.156582
H79	H	0.489081	-0.186159	0.212042
H80	H	0.430411	-0.247857	0.208352
C81	C	1.068474	-0.280906	0.574790
C82	C	1.059209	-0.291971	0.505316
C83	C	1.102487	-0.240505	0.469855
H84	H	1.058633	-0.226695	0.586303
H85	H	1.113964	-0.292712	0.586341
H86	H	1.013730	-0.280160	0.493769
H87	H	1.069055	-0.346171	0.493783
H88	H	1.147977	-0.252311	0.481406
H89	H	1.092643	-0.186298	0.481373
H90	H	1.096211	-0.248011	0.422713
H91	H	1.056765	-0.294778	0.712739
C92	C	1.068572	-0.280635	0.930793
C93	C	1.106494	-0.235451	0.976890
C94	C	1.149828	-0.183790	0.941696
H95	H	1.098106	-0.311398	0.903215
H96	H	1.042704	-0.245466	0.903235
H97	H	1.132360	-0.270615	1.004437
H98	H	1.076978	-0.204672	1.004470
H99	H	1.123960	-0.148621	0.914138
H100	H	1.179357	-0.214559	0.914119
H101	H	1.175558	-0.153121	0.972967
H102	H	1.056812	-0.294683	1.068511
C103	C	0.887739	-0.495761	0.722232
C104	C	0.820775	-0.478188	0.705042
C105	C	0.777341	-0.529636	0.740331
H106	H	0.897530	-0.549969	0.710667
H107	H	0.893903	-0.488361	0.769402
H108	H	0.814615	-0.485595	0.657883
H109	H	0.810964	-0.423990	0.716610
H110	H	0.783504	-0.522236	0.787501
H111	H	0.787137	-0.583841	0.728762
H112	H	0.731901	-0.517715	0.728677
H113	H	0.364704	-0.482132	0.404538
H114	H	0.899656	-0.481774	1.068443
C115	C	0.887840	-0.495878	0.930728
C116	C	0.849928	-0.541027	0.976799
C117	C	0.806561	-0.592684	0.941574
H118	H	0.858300	-0.465115	0.903159
H119	H	0.913682	-0.531070	0.903158
H120	H	0.824088	-0.505840	1.004357
H121	H	0.879450	-0.571807	1.004369
H122	H	0.832403	-0.627875	0.914004
H123	H	0.777026	-0.561914	0.914006
H124	H	0.780838	-0.623329	0.972828
C125	C	0.887926	-0.496041	0.574866
C126	C	0.902650	-0.575814	0.592035
C127	C	0.859435	-0.627546	0.556701
H128	H	0.842429	-0.484348	0.586409
H129	H	0.894132	-0.488721	0.527703
H130	H	0.896438	-0.583131	0.639188
H131	H	0.948139	-0.587532	0.580490
H132	H	0.865640	-0.620226	0.509537
H133	H	0.813940	-0.615846	0.568247
H134	H	0.869423	-0.681678	0.568340
C135	C	0.226750	-0.496069	0.416260
C136	C	0.157279	-0.485009	0.407036
C137	C	0.121803	-0.536555	0.450229
H138	H	0.238231	-0.550260	0.406314
H139	H	0.238321	-0.484332	0.461768
H140	H	0.145712	-0.496752	0.361538
H141	H	0.145778	-0.430829	0.416987
H142	H	0.133374	-0.524818	0.495737
H143	H	0.133289	-0.590743	0.440279
H144	H	0.074664	-0.529053	0.443981
H145	H	0.592231	-0.482116	0.404522
