data_functionalizedCrystal
_audit_creation_method	'MofGen! by Chris Wilmer'
_symmetry_space_group_name_H-M	'P1'
_symmetry_Int_Tables_number	1
_symmetry_cell_setting	triclinic
loop_
_symmetry_equiv_pos_as_xyz
  x,y,z
_cell_length_a	10.540539
_cell_length_b	9.065218
_cell_length_c	7.540329
_cell_angle_alpha	90.003038
_cell_angle_beta	89.998539
_cell_angle_gamma	95.229312
loop_
_atom_site_label
_atom_site_type_symbol
_atom_site_fract_x
_atom_site_fract_y
_atom_site_fract_z
O1	O	0.186143	-1.959469	-0.147478
O2	O	0.686143	-1.459469	0.352522
O3	O	0.201412	-1.530108	-0.147479
O4	O	0.701412	-1.030108	0.352521
O5	O	0.009107	-1.754584	-0.147476
O6	O	0.509107	-1.254584	0.352524
O7	O	0.378448	-1.734993	-0.147481
O8	O	0.878448	-1.234993	0.352519
O9	O	0.009105	-1.754570	0.147489
O10	O	0.509105	-1.254570	0.647489
O11	O	0.201409	-1.530094	0.147486
O12	O	0.701409	-1.030094	0.647486
O13	O	0.186141	-1.959455	0.147487
O14	O	0.686141	-1.459455	0.647487
Cu15	Cu	0.193775	-1.744773	0.174419
Cu16	Cu	0.693775	-1.244773	0.674419
Cu17	Cu	0.193778	-1.744789	-0.174411
Cu18	Cu	0.693778	-1.244789	0.325589
O19	O	0.378445	-1.734979	0.147484
O20	O	0.878445	-1.234979	0.647484
C21	C	0.199943	-1.475122	0.000003
C22	C	0.699943	-0.975122	0.500003
C23	C	0.195556	-1.311301	0.000002
C24	C	0.695556	-0.811301	0.500002
C25	C	0.187610	-2.014441	0.000001
C26	C	0.687610	-1.514441	0.500001
C27	C	0.191997	-2.178262	-0.000009
C28	C	0.691997	-1.678262	0.499991
C29	C	-0.038202	-1.753108	0.000003
C30	C	0.461798	-1.253108	0.500003
C31	C	-0.179167	-1.748712	-0.000007
C32	C	0.320833	-1.248712	0.499993
C33	C	-0.363216	-1.580278	-0.000669
C34	C	0.136784	-1.080278	0.499331
C35	C	-0.216582	-1.584734	-0.000005
C36	C	0.283418	-1.084734	0.499995
C37	C	-0.240534	-1.827618	0.168433
C38	C	0.259466	-1.327618	0.668433
C39	C	-0.387099	-1.822022	0.168575
C40	C	0.112901	-1.322022	0.668575
C41	C	-0.387602	-1.825372	-0.166855
C42	C	0.112398	-1.325372	0.333145
C43	C	-0.240615	-1.826883	-0.169082
C44	C	0.259385	-1.326883	0.330918
C45	C	0.425755	-1.736455	0.000001
C46	C	0.925755	-1.236455	0.500001
C47	C	0.566719	-1.740851	-0.000001
C48	C	1.066719	-1.240851	0.499999
N49	N	0.193772	-1.744773	0.419768
N50	N	0.693772	-1.244773	0.919768
N51	N	0.193771	-1.744801	-0.419760
N52	N	0.693771	-1.244801	0.080240
H53	H	-0.392055	-1.515508	-0.121460
H54	H	0.107945	-1.015508	0.378540
O55	O	-0.449581	-1.982257	-0.168384
O56	O	0.050419	-1.482257	0.331616
H57	H	-0.512620	-2.000019	-0.050953
H58	H	-0.012620	-1.500019	0.449047
H59	H	-0.393663	-1.515761	0.119445
H60	H	0.106337	-1.015761	0.619445
O61	O	-0.186675	-1.750517	-0.334151
O62	O	0.313325	-1.250517	0.165849
H63	H	-0.139071	-1.830874	-0.416226
H64	H	0.360929	-1.330874	0.083774
H65	H	-0.415515	-1.763695	0.294487
H66	H	0.084485	-1.263695	0.794487
H67	H	-0.434632	-1.939952	0.176217
H68	H	0.065368	-1.439952	0.676217
O69	O	-0.207961	-1.985252	-0.182554
O70	O	0.292039	-1.485252	0.317446
H71	H	-0.155803	-2.000304	-0.308192
H72	H	0.344197	-1.500304	0.191808
O73	O	-0.184385	-1.755015	0.334484
O74	O	0.315615	-1.255015	0.834484
H75	H	-0.112791	-1.662745	0.297471
H76	H	0.387209	-1.162745	0.797471
H77	H	-0.175058	-1.522200	0.120940
H78	H	0.324942	-1.022200	0.620940
H79	H	-0.217735	-1.948039	0.174697
H80	H	0.282265	-1.448039	0.674697
H81	H	-0.419350	-1.772306	-0.294522
H82	H	0.080650	-1.272306	0.205478
H83	H	-0.174207	-1.522646	-0.120750
H84	H	0.325793	-1.022646	0.379250
