data_functionalizedCrystal
_audit_creation_method	'MofGen! by Chris Wilmer'
_symmetry_space_group_name_H-M	'P1'
_symmetry_Int_Tables_number	1
_symmetry_cell_setting	triclinic
loop_
_symmetry_equiv_pos_as_xyz
  x,y,z
_cell_length_a	10.723023
_cell_length_b	15.625429
_cell_length_c	9.198806
_cell_angle_alpha	71.919667
_cell_angle_beta	89.996191
_cell_angle_gamma	84.344138
loop_
_atom_site_label
_atom_site_type_symbol
_atom_site_fract_x
_atom_site_fract_y
_atom_site_fract_z
O1	O	1.655907	0.126439	-0.187533
O2	O	1.292632	0.138543	-0.193916
O3	O	1.483975	0.001315	-0.121574
O4	O	1.464564	0.263667	-0.259874
O5	O	1.483960	0.001315	0.120211
O6	O	1.292617	0.138543	0.047869
O7	O	1.655892	0.126439	0.054253
Cu8	Cu	1.474253	0.132491	0.073138
Cu9	Cu	1.474271	0.132491	-0.212801
O10	O	1.464549	0.263667	-0.018089
C11	C	1.246134	0.137662	-0.072560
C12	C	1.107606	0.135027	-0.071172
C13	C	0.902670	0.131129	0.056129
C14	C	1.045845	0.133853	0.054698
C15	C	1.483089	-0.032277	0.017024
C16	C	1.480456	-0.132373	0.069781
C17	C	1.471800	-0.461575	-0.415641
C18	C	1.469320	-0.555630	-0.366023
C19	C	1.469304	-0.555616	-0.102446
C20	C	1.471790	-0.461561	-0.152041
C21	C	1.473037	-0.414547	-0.308641
C22	C	1.473027	-0.414533	-0.045041
C23	C	1.475506	-0.320484	-0.094634
C24	C	1.476749	-0.273464	-0.251227
C25	C	1.475516	-0.320499	-0.358233
C26	C	1.471771	-0.461547	0.111557
C27	C	1.473008	-0.414519	0.218557
C28	C	1.475496	-0.320470	0.168966
C29	C	1.476739	-0.273449	0.012373
C30	C	1.476729	-0.273435	0.275973
C31	C	1.479209	-0.179386	0.226380
C32	C	1.479219	-0.179401	-0.037220
C33	C	1.702390	0.127320	-0.067107
C34	C	1.840918	0.129955	-0.068504
C35	C	1.465435	0.297260	-0.156691
C36	C	1.468069	0.397355	-0.209457
N37	N	1.474250	0.132490	0.274252
N38	N	1.474284	0.132485	-0.413912
C39	C	1.554592	0.074618	0.376958
C40	C	1.554611	0.074615	0.544371
H41	H	0.894046	0.130971	-0.176269
F42	F	1.644526	0.009856	0.659658
H43	H	1.471988	-0.452810	0.346061
H44	H	1.405501	0.182038	0.497889
H45	H	1.480245	-0.141121	-0.164738
H46	H	1.476543	-0.282219	-0.485752
F47	F	1.644259	0.009697	0.329982
H48	H	1.478755	-0.196883	-0.291603
F49	F	1.115254	0.135166	0.194173
H50	H	1.405475	0.182031	0.310264
F51	F	1.473144	-0.411536	-0.582312
F52	F	1.467998	-0.605677	-0.479921
H53	H	1.475702	-0.311726	0.403476
H54	H	1.054509	0.134015	-0.177877
H55	H	1.469739	-0.538126	0.151930
F56	F	1.467967	-0.605660	0.064213
F57	F	0.833232	0.129816	0.196984
F58	F	1.480531	-0.129333	0.340262
