data_functionalizedCrystal
_audit_creation_method	'MofGen! by Chris Wilmer'
_symmetry_space_group_name_H-M	'P1'
_symmetry_Int_Tables_number	1
_symmetry_cell_setting	triclinic
loop_
_symmetry_equiv_pos_as_xyz
  x,y,z
_cell_length_a	16.109301
_cell_length_b	19.188930
_cell_length_c	14.586319
_cell_angle_alpha	89.991095
_cell_angle_beta	89.999213
_cell_angle_gamma	83.303131
loop_
_atom_site_label
_atom_site_type_symbol
_atom_site_fract_x
_atom_site_fract_y
_atom_site_fract_z
O1	O	1.102833	0.089744	-0.076193
O2	O	0.860734	0.100912	-0.076209
O3	O	0.988770	-0.006311	-0.076182
O4	O	0.974797	0.196968	-0.076219
O5	O	0.988762	-0.006313	0.076298
O6	O	0.860726	0.100911	0.076272
O7	O	1.102825	0.089742	0.076288
Cu8	Cu	0.981774	0.095326	0.090203
Cu9	Cu	0.981785	0.095328	-0.090124
O10	O	0.974789	0.196966	0.076262
C11	C	0.829757	0.100459	0.000030
C12	C	0.737466	0.099103	0.000025
C13	C	0.988313	-0.032324	0.000061
C14	C	0.986955	-0.109832	0.000068
C15	C	0.514993	0.159573	0.000024
C16	C	0.428277	0.158294	0.000030
C17	C	0.448573	0.031076	0.000050
C18	C	0.535287	0.032357	0.000050
C19	C	0.568495	0.096608	0.000033
C20	C	0.395064	0.094047	0.000038
C21	C	0.301043	0.092659	0.000045
C22	C	0.662522	0.097996	0.000028
C23	C	1.062082	-0.154580	0.000078
C24	C	1.060806	-0.227407	0.000063
C25	C	0.984399	-0.255482	0.000057
C26	C	0.909261	-0.210724	0.000043
C27	C	0.910540	-0.137899	0.000048
N28	N	0.925991	-0.363624	0.051945
N29	N	0.924782	-0.432805	0.051942
C30	C	0.980543	-0.474900	0.000038
N31	N	1.037571	-0.445200	-0.051850
N32	N	1.038783	-0.376013	-0.051843
C33	C	0.983004	-0.334448	0.000051
C34	C	1.054292	-0.598616	0.000030
C35	C	1.053012	-0.671443	0.000010
C36	C	0.901465	-0.654759	-0.000001
C37	C	0.902747	-0.581933	0.000010
C38	C	0.979162	-0.553866	0.000030
C39	C	1.133802	0.090196	0.000047
C40	C	1.226093	0.091552	0.000046
C41	C	0.975246	0.222979	0.000017
C42	C	0.976604	0.300486	0.000003
N43	N	0.981773	0.095325	0.217034
N44	N	0.981793	0.095325	-0.216955
C45	C	1.038486	0.047862	0.452052
C46	C	1.038488	0.047860	0.548034
C47	C	0.925074	0.142790	0.548020
C48	C	0.925068	0.142787	0.452040
C49	C	0.981779	0.095324	0.404059
C50	C	0.981787	0.095325	0.596020
C51	C	0.981789	0.095323	0.700087
C52	C	0.981776	0.095325	0.299985
H53	H	0.542027	0.211890	0.000017
H54	H	0.421524	-0.021234	0.000069
H55	H	1.084663	0.009211	0.587107
O56	O	1.093616	0.001836	0.405381
C57	C	1.144759	0.039209	0.349802
H58	H	1.146020	0.094267	0.378710
H59	H	1.210925	0.010704	0.348677
H60	H	1.118689	0.042878	0.277077
H61	H	1.114193	-0.707878	0.000012
H62	H	0.578851	-0.018920	0.000059
H63	H	0.878902	0.181434	0.587096
O64	O	0.869948	0.188963	0.405556
C65	C	0.819886	0.230848	0.468484
H66	H	0.853970	0.231650	0.536899
H67	H	0.806996	0.286602	0.440735
H68	H	0.758211	0.208162	0.478703
O69	O	0.376341	0.219478	-0.000144
C70	C	0.391372	0.258494	-0.079113
H71	H	0.421144	0.221627	-0.134302
H72	H	0.329743	0.286506	-0.105624
H73	H	0.435381	0.298896	-0.061268
O74	O	1.136383	-0.127433	0.000051
C75	C	1.202419	-0.182552	0.000080
H76	H	1.179296	-0.232014	-0.028795
H77	H	1.255788	-0.167339	-0.044180
H78	H	1.225572	-0.192873	0.073235
O79	O	1.133734	-0.270956	0.000200
C80	C	1.137522	-0.313576	0.079183
H81	H	1.071538	-0.317244	0.105496
H82	H	1.168692	-0.368316	0.061429
H83	H	1.175397	-0.289633	0.134491
O84	O	0.835091	-0.238076	-0.000083
C85	C	0.829816	-0.279677	-0.079068
H86	H	0.895414	-0.297825	-0.105389
H87	H	0.796848	-0.327361	-0.061312
H88	H	0.792921	-0.247488	-0.134370
H89	H	0.849360	-0.101464	0.000041
H90	H	1.116514	-0.575763	0.000042
H91	H	0.839253	-0.677617	-0.000010
H92	H	0.841570	-0.545497	0.000008
