data_functionalizedCrystal
_audit_creation_method	'MofGen! by Chris Wilmer'
_symmetry_space_group_name_H-M	'P1'
_symmetry_Int_Tables_number	1
_symmetry_cell_setting	triclinic
loop_
_symmetry_equiv_pos_as_xyz
  x,y,z
_cell_length_a	12.759401
_cell_length_b	18.050589
_cell_length_c	12.759393
_cell_angle_alpha	89.969175
_cell_angle_beta	89.982620
_cell_angle_gamma	90.028382
loop_
_atom_site_label
_atom_site_type_symbol
_atom_site_fract_x
_atom_site_fract_y
_atom_site_fract_z
Zn1	Zn	1.606145	-0.295611	-0.593988
Zn2	Zn	1.606001	-0.419822	-0.418311
Zn3	Zn	1.430450	-0.295650	-0.418328
Zn4	Zn	1.430394	-0.419764	-0.593953
O5	O	1.518248	-0.357712	-0.506145
O6	O	1.753147	-0.312095	-0.570692
O7	O	1.582678	-0.403391	-0.271292
O8	O	1.453840	-0.191720	-0.441651
O9	O	1.753041	-0.403352	-0.441623
O10	O	1.582923	-0.191692	-0.570708
O11	O	1.453701	-0.312162	-0.271304
O12	O	1.283422	-0.312107	-0.441617
O13	O	1.453745	-0.403254	-0.740979
O14	O	1.283381	-0.403292	-0.570648
O15	O	1.582868	-0.312040	-0.741005
O16	O	1.582623	-0.523739	-0.441589
O17	O	1.453605	-0.523696	-0.570632
C18	C	1.245280	-0.357698	-0.506131
C19	C	1.128504	-0.357710	-0.506149
C20	C	1.073648	-0.405267	-0.573225
C21	C	0.963924	-0.405276	-0.573236
C22	C	0.963921	-0.310170	-0.439088
C23	C	1.073644	-0.310158	-0.439083
C24	C	1.073648	-0.460177	-0.650671
C25	C	0.963924	-0.460187	-0.650683
C26	C	1.518121	-0.550664	-0.506127
C27	C	1.518163	-0.633210	-0.506155
C28	C	1.448072	-0.832664	-0.576304
C29	C	1.422460	-0.882113	-0.480436
C30	C	1.518266	-0.784340	-0.506169
C31	C	1.543930	-0.881973	-0.602048
C32	C	1.518364	-0.930325	-0.506191
C33	C	1.492603	-0.832702	-0.410250
C34	C	1.614118	-0.832557	-0.531927
C35	C	1.588542	-0.881984	-0.435992
C36	C	1.518207	-0.700242	-0.506158
C37	C	1.518423	-1.014422	-0.506191
C38	C	1.792281	-0.357726	-0.506160
C39	C	1.909058	-0.357732	-0.506166
C40	C	1.518316	-0.357636	-0.780178
C41	C	1.518345	-0.357604	-0.896955
C42	C	1.518404	-0.164006	-0.506185
C43	C	1.518470	-0.081460	-0.506203
C44	C	1.451216	-0.310093	-0.951829
C45	C	1.451247	-0.310071	-1.061554
C46	C	1.585547	-0.405073	-1.061519
C47	C	1.585510	-0.405098	-0.951797
C48	C	1.373682	-0.255241	-0.951850
C49	C	1.373713	-0.255219	-1.061574
C50	C	1.518240	-0.357733	-0.233178
C51	C	1.518415	-0.357556	-0.116401
H52	H	1.107645	-0.514785	-0.621388
O53	O	0.928169	-0.528748	-0.624570
C54	C	0.777314	-0.606348	-0.594908
C55	C	0.817664	-0.528679	-0.624519
H56	H	0.687967	-0.606314	-0.594835
H57	H	0.807013	-0.648531	-0.654368
H58	H	0.807104	-0.621688	-0.513517
H59	H	0.787891	-0.513269	-0.705885
H60	H	0.787974	-0.486541	-0.564991
H61	H	1.640231	-0.443741	-1.106185
H62	H	1.292287	-0.270643	-0.922073
H63	H	1.695113	-0.810775	-0.553739
O64	O	0.923535	-0.435706	-0.743039
C65	C	0.960036	-0.389588	-0.916520
C66	C	1.005919	-0.417318	-0.811997
H67	H	1.026621	-0.374699	-0.972293
H68	H	0.909773	-0.434996	-0.952986
H69	H	0.909734	-0.338485	-0.901628
H70	H	1.056268	-0.468408	-0.826800
H71	H	1.056122	-0.371865	-0.775564
O72	O	1.399848	-0.186565	-1.096954
C73	C	1.447296	-0.061471	-1.051178
C74	C	1.417737	-0.139187	-1.010970
H75	H	1.461746	-0.023141	-0.981681
H76	H	1.521441	-0.065173	-1.100776
H77	H	1.380504	-0.038553	-1.100859
H78	H	1.484461	-0.162151	-0.961246
H79	H	1.343560	-0.135439	-0.961429
O80	O	1.377014	-0.806857	-0.646844
C81	C	1.195723	-0.802870	-0.699392
C82	C	1.276082	-0.832133	-0.619425
H83	H	1.114104	-0.823307	-0.677265
H84	H	1.196782	-0.739717	-0.699254
H85	H	1.216812	-0.823967	-0.780910
H86	H	1.255048	-0.811091	-0.537868
H87	H	1.275007	-0.895286	-0.619655
H88	H	1.341446	-0.903897	-0.458669
O89	O	1.408648	-0.190134	-0.911204
C90	C	1.537464	-0.129546	-0.802953
C91	C	1.497992	-0.203327	-0.848938
H92	H	1.609691	-0.140188	-0.752583
H93	H	1.558641	-0.090070	-0.869452
H94	H	1.473225	-0.103760	-0.752721
H95	H	1.562184	-0.229177	-0.899158
H96	H	1.476784	-0.242752	-0.782390
H97	H	1.296409	-0.275807	-1.095601
H98	H	0.919241	-0.271454	-0.384485
O99	O	1.126769	-0.263930	-0.373838
C100	C	1.115183	-0.169553	-0.240848
C101	C	1.054889	-0.221885	-0.314666
H102	H	1.057095	-0.135534	-0.193005
H103	H	1.166492	-0.203553	-0.185749
H104	H	1.166612	-0.130792	-0.289205
H105	H	1.003403	-0.260656	-0.266395
H106	H	1.003647	-0.187839	-0.369769
O107	O	1.109271	-0.442009	-0.747815
C108	C	1.210995	-0.479803	-0.897665
C109	C	1.170705	-0.500477	-0.787673
H110	H	1.260690	-0.527056	-0.929914
H111	H	1.141568	-0.469621	-0.952008
H112	H	1.260615	-0.427395	-0.892468
H113	H	1.121102	-0.552895	-0.792770
H114	H	1.240179	-0.510611	-0.733373
O115	O	1.466609	-0.806871	-0.313574
C116	C	1.437458	-0.699607	-0.205086
C117	C	1.466890	-0.728761	-0.314622
H118	H	1.437697	-0.636452	-0.205891
H119	H	1.356016	-0.720408	-0.182978
H120	H	1.496948	-0.720385	-0.145272
H121	H	1.407470	-0.707995	-0.374509
H122	H	1.548357	-0.707966	-0.336641
H123	H	1.565598	-0.903616	-0.683124
O124	O	1.659291	-0.907628	-0.365027
C125	C	1.712228	-0.911446	-0.183837
C126	C	1.632024	-0.882367	-0.264093
H127	H	1.690224	-0.891022	-0.102217
H128	H	1.712238	-0.974600	-0.184757
H129	H	1.793651	-0.890201	-0.205143
H130	H	1.550561	-0.903558	-0.242842
H131	H	1.632106	-0.819213	-0.263158
O132	O	1.650814	-0.451277	-0.898654
C133	C	1.783974	-0.545540	-0.910204
C134	C	1.710084	-0.493267	-0.970518
H135	H	1.831897	-0.579513	-0.968279
H136	H	1.838995	-0.511498	-0.858873
H137	H	1.735668	-0.584346	-0.858795
H138	H	1.758305	-0.454450	-1.021984
H139	H	1.655060	-0.527355	-1.021783
