data_functionalizedCrystal
_audit_creation_method	'MofGen! by Chris Wilmer'
_symmetry_space_group_name_H-M	'P1'
_symmetry_Int_Tables_number	1
_symmetry_cell_setting	triclinic
loop_
_symmetry_equiv_pos_as_xyz
  x,y,z
_cell_length_a	16.625546
_cell_length_b	12.759395
_cell_length_c	12.759387
_cell_angle_alpha	90.020674
_cell_angle_beta	89.964440
_cell_angle_gamma	89.980055
loop_
_atom_site_label
_atom_site_type_symbol
_atom_site_fract_x
_atom_site_fract_y
_atom_site_fract_z
Zn1	Zn	-0.321013	-1.606212	-0.593975
Zn2	Zn	-0.455869	-1.606079	-0.418281
Zn3	Zn	-0.321048	-1.430510	-0.418311
Zn4	Zn	-0.455802	-1.430479	-0.593919
O5	O	-0.388433	-1.518320	-0.506122
O6	O	-0.338916	-1.753215	-0.570679
O7	O	-0.438027	-1.582747	-0.271264
O8	O	-0.208211	-1.453886	-0.441649
O9	O	-0.437993	-1.753117	-0.441597
O10	O	-0.208186	-1.582974	-0.570709
O11	O	-0.338974	-1.453757	-0.271286
O12	O	-0.338910	-1.283485	-0.441596
O13	O	-0.437879	-1.453833	-0.740948
O14	O	-0.437913	-1.283462	-0.570614
O15	O	-0.338851	-1.582943	-0.740989
O16	O	-0.568692	-1.582716	-0.441544
O17	O	-0.568643	-1.453703	-0.570584
C18	C	-0.388408	-1.245352	-0.506103
C19	C	-0.388417	-1.128576	-0.506120
C20	C	-0.285414	-1.128658	-0.640750
C21	C	-0.233921	-1.073839	-0.708072
C22	C	-0.233932	-0.964117	-0.708082
C23	C	-0.285440	-0.909213	-0.640761
C24	C	-0.336933	-0.964032	-0.573439
C25	C	-0.336918	-1.073756	-0.573438
C26	C	-0.439931	-0.963949	-0.438806
C27	C	-0.439925	-1.073671	-0.438799
C28	C	-0.491439	-0.909045	-0.371485
C29	C	-0.542937	-0.963864	-0.304166
C30	C	-0.542925	-1.073593	-0.304159
C31	C	-0.491418	-1.128491	-0.371476
C32	C	-0.597924	-1.518220	-0.506078
C33	C	-0.687545	-1.518274	-0.506094
C34	C	-1.015720	-1.518457	-0.506203
C35	C	-0.924412	-1.518403	-0.506176
C36	C	-0.851636	-1.518365	-0.506148
C37	C	-0.760321	-1.518312	-0.506122
C38	C	-0.178124	-1.518448	-0.506189
C39	C	-0.088503	-1.518503	-0.506217
C40	C	-0.388354	-1.518399	-0.780155
C41	C	-0.388320	-1.518433	-0.896932
C42	C	-0.388450	-0.792353	-0.506136
C43	C	-0.388437	-0.909130	-0.506128
C44	C	-0.285209	-1.652885	-0.896994
C45	C	-0.233641	-1.720125	-0.951886
C46	C	-0.233611	-1.720151	-1.061608
C47	C	-0.285154	-1.652927	-1.116440
C48	C	-0.336722	-1.585686	-1.061548
C49	C	-0.336747	-1.585670	-0.951824
C50	C	-0.439828	-1.451230	-1.061486
C51	C	-0.439863	-1.451209	-0.951764
C52	C	-0.491370	-1.384006	-1.116318
C53	C	-0.542943	-1.316769	-1.061426
C54	C	-0.542971	-1.316747	-0.951698
C55	C	-0.491430	-1.383968	-0.896872
C56	C	-0.388453	-1.518301	-0.233154
C57	C	-0.388260	-1.518471	-0.116378
H58	H	-0.491399	-1.217832	-0.371472
C59	C	-0.491617	-1.383841	-0.777745
C60	C	-0.547825	-1.310592	-0.741403
C61	C	-0.548028	-1.310463	-0.631670
H62	H	-0.439638	-1.365676	-0.752798
H63	H	-0.505622	-1.451611	-0.752906
H64	H	-0.533816	-1.242837	-0.766232
H65	H	-0.599813	-1.328740	-0.766322
H66	H	-0.562033	-1.378232	-0.606831
H67	H	-0.496046	-1.292300	-0.606733
H68	H	-0.586169	-1.260771	-0.606998
C69	C	-0.178089	-1.133639	-0.781122
C70	C	-0.189113	-1.241463	-0.766729
C71	C	-0.137701	-1.296578	-0.834012
H72	H	-0.123867	-1.115792	-0.765950
H73	H	-0.189970	-1.115744	-0.851707
H74	H	-0.177226	-1.259351	-0.696161
H75	H	-0.243323	-1.259341	-0.781909
H76	H	-0.149582	-1.278683	-0.904597
H77	H	-0.083483	-1.278723	-0.818834
H78	H	-0.145178	-1.369742	-0.824263
H79	H	-0.191997	-0.919483	-0.762896
C80	C	-0.599028	-1.243850	-1.120823
C81	C	-0.678817	-1.266649	-1.094098
C82	C	-0.730506	-1.199488	-1.148787
H83	H	-0.591731	-1.253423	-1.194046
H84	H	-0.587272	-1.173247	-1.102808
H85	H	-0.690569	-1.337235	-1.112120
H86	H	-0.686140	-1.257069	-1.020884
H87	H	-0.718749	-1.128885	-1.130772
H88	H	-0.723201	-1.209067	-1.222007
H89	H	-0.784647	-1.214941	-1.130654
C90	C	-0.285098	-1.652983	-0.777867
C91	C	-0.228914	-1.726228	-0.741597
C92	C	-0.228781	-1.726339	-0.631863
H93	H	-0.337094	-1.671143	-0.752903
H94	H	-0.271108	-1.585210	-0.752998
H95	H	-0.242908	-1.793986	-0.766456
H96	H	-0.176910	-1.708084	-0.766532
H97	H	-0.214792	-1.658566	-0.606993
H98	H	-0.280780	-1.744498	-0.606909
H99	H	-0.190656	-1.776028	-0.607239
H100	H	-0.285397	-1.217999	-0.640743
H101	H	-0.584855	-1.118220	-0.249333
H102	H	-0.491339	-1.384028	-1.205659
H103	H	-0.285438	-0.819871	-0.640768
C104	C	-0.491545	-0.789918	-0.371304
C105	C	-0.547659	-0.753572	-0.297924
C106	C	-0.547776	-0.643838	-0.297719
H107	H	-0.505589	-0.764994	-0.439007
H108	H	-0.439512	-0.765058	-0.353217
H109	H	-0.599680	-0.778421	-0.316016
H110	H	-0.533627	-0.778467	-0.230210
H111	H	-0.495743	-0.618978	-0.279633
H112	H	-0.561819	-0.618925	-0.365426
H113	H	-0.585843	-0.619163	-0.247926
H114	H	-0.584868	-0.919152	-0.249354
C115	C	-0.177551	-1.792981	-0.892406
C116	C	-0.097761	-1.770156	-0.919098
C117	C	-0.046069	-1.837237	-0.864318
H118	H	-0.189254	-1.863604	-0.910350
H119	H	-0.184900	-1.783330	-0.819188
H120	H	-0.090415	-1.779816	-0.992299
H121	H	-0.086033	-1.699545	-0.901151
H122	H	-0.053418	-1.827586	-0.791101
H123	H	-0.057778	-1.907856	-0.882266
H124	H	0.008075	-1.821753	-0.882414
C125	C	-0.177655	-1.793039	-1.121401
C126	C	-0.188652	-1.778649	-1.229225
C127	C	-0.137112	-1.845763	-1.284338
H128	H	-0.189418	-1.863661	-1.103555
H129	H	-0.123463	-1.777688	-1.103502
H130	H	-0.242831	-1.794007	-1.247116
H131	H	-0.176883	-1.708040	-1.247102
H132	H	-0.082920	-1.830413	-1.266440
H133	H	-0.148879	-1.916381	-1.266484
H134	H	-0.144561	-1.836002	-1.357502
H135	H	-0.285118	-1.652944	-1.205781
H136	H	-0.584955	-1.261980	-0.907011
