data_functionalizedCrystal
_audit_creation_method	'MofGen! by Chris Wilmer'
_symmetry_space_group_name_H-M	'P1'
_symmetry_Int_Tables_number	1
_symmetry_cell_setting	triclinic
loop_
_symmetry_equiv_pos_as_xyz
  x,y,z
_cell_length_a	16.120297
_cell_length_b	12.759401
_cell_length_c	12.759400
_cell_angle_alpha	89.995550
_cell_angle_beta	92.882165
_cell_angle_gamma	87.120011
loop_
_atom_site_label
_atom_site_type_symbol
_atom_site_fract_x
_atom_site_fract_y
_atom_site_fract_z
Zn1	Zn	-0.471402	-1.576209	-0.448374
Zn2	Zn	-0.332012	-1.585049	-0.615159
Zn3	Zn	-0.332008	-1.409421	-0.439499
Zn4	Zn	-0.471383	-1.400537	-0.624015
O5	O	-0.401701	-1.492804	-0.531762
O6	O	-0.452920	-1.724402	-0.470506
O7	O	-0.215347	-1.569170	-0.584437
O8	O	-0.350506	-1.431564	-0.293656
O9	O	-0.350511	-1.730897	-0.593042
O10	O	-0.452917	-1.554102	-0.300176
O11	O	-0.215345	-1.440136	-0.455381
O12	O	-0.350488	-1.261222	-0.463968
O13	O	-0.588049	-1.416422	-0.608136
O14	O	-0.452885	-1.254695	-0.599530
O15	O	-0.588063	-1.545488	-0.479093
O16	O	-0.350493	-1.560555	-0.763354
O17	O	-0.452888	-1.424994	-0.769860
C18	C	-0.401685	-1.219838	-0.531748
C19	C	-0.401697	-1.103060	-0.531768
C20	C	-0.619152	-1.478978	-0.545592
C21	C	-0.711816	-1.473086	-0.551486
C22	C	-0.401707	-1.492797	-0.804729
C23	C	-0.401738	-1.492889	-0.921508
C24	C	-0.881475	-1.462290	-0.562223
C25	C	-0.922779	-1.523525	-0.500986
C26	C	-1.017183	-1.517518	-0.506960
C27	C	-0.787063	-1.468296	-0.556250
C28	C	-0.185097	-1.506637	-0.517909
C29	C	-0.092433	-1.512732	-0.511720
C30	C	-0.401718	-1.766836	-0.531776
C31	C	-0.401726	-1.883612	-0.531783
C32	C	-0.454932	-1.044833	-0.602453
C33	C	-0.454948	-0.935107	-0.602458
C34	C	-0.348489	-0.941848	-0.461091
C35	C	-0.348477	-1.051571	-0.461081
C36	C	-0.401713	-1.492838	-0.257729
C37	C	-0.401719	-1.492853	-0.140953
C38	C	-0.348414	-1.429081	0.027036
C39	C	-0.348402	-1.429065	-0.082688
C40	C	-0.455045	-1.556668	-0.089489
C41	C	-0.455052	-1.556688	0.020233
H42	H	-0.917012	-1.405361	-0.619132
C43	C	-0.289749	-1.358871	-0.139286
H44	H	-0.258005	-1.320875	-0.088871
H45	H	-0.253421	-1.401358	-0.179781
H46	H	-0.321641	-1.311057	-0.184112
C47	C	-0.874779	-1.600448	-0.424105
H48	H	-0.913110	-1.638075	-0.386466
H49	H	-0.840821	-1.648334	-0.462196
H50	H	-0.840799	-1.562383	-0.376211
H51	H	-0.498270	-1.086752	-0.660008
H52	H	-0.498299	-0.887703	-0.660015
H53	H	-0.498475	-1.608653	0.062131
H54	H	-0.305157	-0.899912	-0.403542
H55	H	-0.498453	-1.608610	-0.136937
C56	C	-0.289915	-1.115626	-0.383326
H57	H	-0.258212	-1.069248	-0.341239
H58	H	-0.321862	-1.156406	-0.339644
H59	H	-0.253531	-1.160731	-0.421134
C60	C	-0.289764	-1.358913	0.091118
H61	H	-0.258000	-1.320917	0.044754
H62	H	-0.321652	-1.311115	0.131897
H63	H	-0.253442	-1.401429	0.136225
