data_functionalizedCrystal
_audit_creation_method	'MofGen! by Chris Wilmer'
_symmetry_space_group_name_H-M	'P1'
_symmetry_Int_Tables_number	1
_symmetry_cell_setting	triclinic
loop_
_symmetry_equiv_pos_as_xyz
  x,y,z
_cell_length_a	21.395362
_cell_length_b	25.639240
_cell_length_c	21.395355
_cell_angle_alpha	90.026516
_cell_angle_beta	90.043940
_cell_angle_gamma	90.048633
loop_
_atom_site_label
_atom_site_type_symbol
_atom_site_fract_x
_atom_site_fract_y
_atom_site_fract_z
Zn1	Zn	0.957851	-0.207990	0.354551
Zn2	Zn	1.457851	0.292010	0.854551
Zn3	Zn	0.957749	-0.295409	0.249759
Zn4	Zn	1.457749	0.204591	0.749759
Zn5	Zn	0.853066	-0.208014	0.249752
Zn6	Zn	1.353066	0.291986	0.749752
Zn7	Zn	0.853031	-0.295420	0.354463
Zn8	Zn	1.353031	0.204580	0.854463
O9	O	0.905424	-0.251708	0.302131
O10	O	1.405424	0.248292	0.802131
O11	O	1.045515	-0.219571	0.340689
O12	O	1.545515	0.280429	0.840689
O13	O	0.943835	-0.283822	0.162080
O14	O	1.443835	0.216178	0.662080
O15	O	0.867022	-0.134846	0.263688
O16	O	1.367022	0.365154	0.763688
O17	O	1.045441	-0.283798	0.263699
O18	O	1.545441	0.216202	0.763699
O19	O	0.944007	-0.134828	0.340683
O20	O	1.444007	0.365172	0.840683
O21	O	0.866924	-0.219613	0.162075
O22	O	1.366924	0.280387	0.662075
O23	O	0.765383	-0.219623	0.263603
O24	O	1.265383	0.280377	0.763603
O25	O	0.866963	-0.283817	0.442153
O26	O	1.366963	0.216183	0.942153
O27	O	0.765358	-0.283840	0.340534
O28	O	1.265358	0.216160	0.840534
O29	O	0.943974	-0.219582	0.442217
O30	O	1.443974	0.280418	0.942217
O31	O	0.943801	-0.368576	0.263614
O32	O	1.443801	0.131424	0.763614
O33	O	0.866865	-0.368584	0.340540
O34	O	1.366865	0.131416	0.840540
C35	C	0.742636	-0.251736	0.302059
C36	C	1.242636	0.248264	0.802059
C37	C	0.672995	-0.251760	0.302042
C38	C	1.172995	0.248240	0.802042
C39	C	0.640285	-0.285243	0.342040
C40	C	1.140285	0.214757	0.842040
C41	C	0.574850	-0.285230	0.342068
C42	C	1.074850	0.214770	0.842068
C43	C	0.542127	-0.251740	0.302087
C44	C	1.042127	0.248260	0.802087
C45	C	0.574845	-0.218252	0.262086
C46	C	1.074845	0.281748	0.762086
C47	C	0.640279	-0.218262	0.262064
C48	C	1.140279	0.281738	0.762064
C49	C	0.438402	-0.247528	0.245682
C50	C	0.938402	0.252472	0.745682
C51	C	0.372969	-0.247522	0.245704
C52	C	0.872969	0.252478	0.745704
C53	C	0.340306	-0.251706	0.302156
C54	C	0.840306	0.248294	0.802156
C55	C	0.373084	-0.255908	0.358589
C56	C	0.873084	0.244092	0.858589
C57	C	0.438518	-0.255918	0.358567
C58	C	0.938518	0.244082	0.858567
C59	C	0.471174	-0.251725	0.302107
C60	C	0.971174	0.248275	0.802107
C61	C	0.236644	-0.285176	0.342188
C62	C	0.736644	0.214824	0.842188
C63	C	0.171207	-0.285160	0.342217
C64	C	0.671207	0.214840	0.842217
C65	C	0.171203	-0.218184	0.262229
C66	C	0.671203	0.281816	0.762229
C67	C	0.236639	-0.218198	0.262206
C68	C	0.736639	0.281802	0.762206
C69	C	0.269355	-0.251697	0.302184
C70	C	0.769355	0.248303	0.802184
C71	C	0.905336	-0.387551	0.302082
C72	C	1.405336	0.112449	0.802082
C73	C	0.905355	-0.445665	0.302082
C74	C	1.405355	0.054335	0.802082
C75	C	0.945530	-0.805980	0.342295
C76	C	1.445530	-0.305980	0.842295
C77	C	0.945549	-0.860585	0.342308
C78	C	1.445549	-0.360585	0.842308
O79	O	0.979602	-0.888781	0.376448
O80	O	1.479602	-0.388781	0.876448
N81	N	0.905511	-0.887947	0.302192
N82	N	1.405511	-0.387947	0.802192
C83	C	0.865448	-0.860703	0.262065
C84	C	1.365448	-0.360703	0.762065
O85	O	0.831394	-0.888991	0.227945
O86	O	1.331394	-0.388991	0.727945
C87	C	0.865427	-0.806100	0.262056
C88	C	1.365427	-0.306100	0.762056
C89	C	0.905471	-0.778740	0.302170
C90	C	1.405471	-0.278740	0.802170
C91	C	0.985571	-0.778620	0.382406
C92	C	1.485571	-0.278620	0.882406
C93	C	0.985553	-0.724020	0.382392
C94	C	1.485553	-0.224020	0.882392
C95	C	0.945495	-0.696779	0.342267
C96	C	1.445495	-0.196779	0.842267
C97	C	0.905454	-0.724139	0.302156
C98	C	1.405454	-0.224139	0.802156
C99	C	0.825361	-0.778857	0.221933
C100	C	1.325361	-0.278857	0.721933
C101	C	0.825343	-0.724250	0.221928
C102	C	1.325343	-0.224250	0.721928
C103	C	0.865387	-0.696890	0.262042
C104	C	1.365387	-0.196890	0.762042
C105	C	0.865377	-0.642298	0.262018
C106	C	1.365377	-0.142298	0.762018
N107	N	0.905415	-0.614935	0.302133
N108	N	1.405415	-0.114935	0.802133
C109	C	0.945473	-0.642176	0.342258
C110	C	1.445473	-0.142176	0.842258
C111	C	0.865495	-0.975374	0.262088
C112	C	1.365495	-0.475374	0.762088
C113	C	0.865518	-1.029976	0.262094
C114	C	1.365518	-0.529976	0.762094
C115	C	0.945619	-1.029854	0.342337
C116	C	1.445619	-0.529854	0.842337
C117	C	0.945597	-0.975250	0.342328
C118	C	1.445597	-0.475250	0.842328
C119	C	0.905532	-0.948011	0.302204
C120	C	1.405532	-0.448011	0.802204
C121	C	0.945433	-0.527511	0.342226
C122	C	1.445433	-0.027511	0.842226
C123	C	0.945414	-0.472905	0.342207
C124	C	1.445414	0.027095	0.842207
C125	C	0.865312	-0.473033	0.261966
C126	C	1.365312	0.026967	0.761966
C127	C	0.865333	-0.527633	0.261983
C128	C	1.365333	-0.027633	0.761983
C129	C	0.905396	-0.554871	0.302118
C130	C	1.405396	-0.054871	0.802118
O131	O	0.831340	-0.614067	0.227897
O132	O	1.331340	-0.114067	0.727897
O133	O	0.979516	-0.613881	0.376378
O134	O	1.479516	-0.113881	0.876378
C135	C	1.068847	-0.251681	0.302205
C136	C	1.568847	0.248319	0.802205
C137	C	1.138489	-0.251669	0.302236
C138	C	1.638489	0.248331	0.802236
C139	C	0.905476	-0.251698	0.465555
C140	C	1.405476	0.248302	0.965555
C141	C	0.905498	-0.251693	0.535196
C142	C	1.405498	0.248307	1.035196
C143	C	0.905530	-0.115335	0.302194
C144	C	1.405530	0.384665	0.802194
C145	C	0.905575	-0.057221	0.302221
C146	C	1.405575	0.442779	0.802221
C147	C	0.905408	-0.251681	0.139344
C148	C	1.405408	0.248319	0.639344
C149	C	0.905508	-0.251538	0.069703
C150	C	1.405508	0.248462	0.569703
C151	C	0.945596	-0.218245	0.567943
C152	C	1.445596	0.281755	1.067943
C153	C	0.945595	-0.218222	0.633379
C154	C	1.445595	0.281778	1.133379
C155	C	0.905503	-0.251658	0.666064
C156	C	1.405503	0.248342	1.166064
C157	C	0.865398	-0.285108	0.633309
C158	C	1.365398	0.214892	1.133309
C159	C	0.865395	-0.285126	0.567875
C160	C	1.365395	0.214874	1.067875
C161	C	0.900525	-0.298736	0.769720
C162	C	1.400525	0.201264	1.269720
C163	C	0.900532	-0.298719	0.835153
C164	C	1.400532	0.201281	1.335153
C165	C	0.905507	-0.251602	0.867885
C166	C	1.405507	0.248398	1.367885
C167	C	0.910488	-0.204501	0.835176
C168	C	1.410488	0.295499	1.335176
C169	C	0.910486	-0.204519	0.769742
C170	C	1.410486	0.295481	1.269742
C171	C	0.905501	-0.251642	0.737017
C172	C	1.405501	0.248358	1.237017
C173	C	0.945606	-0.218127	0.971585
C174	C	1.445606	0.281873	1.471585
C175	C	0.945601	-0.218103	1.037022
C176	C	1.445601	0.281897	1.537022
C177	C	0.865407	-0.284994	1.036951
C178	C	1.365407	0.215006	1.536951
C179	C	0.865409	-0.285013	0.971515
C180	C	1.365409	0.214987	1.471515
C181	C	0.905512	-0.251580	0.938836
C182	C	1.405512	0.248420	1.438836
H183	H	0.666911	-0.190995	0.229493
H184	H	1.166911	0.309005	0.729493
C185	C	0.336920	-0.242899	0.183631
C186	C	0.836920	0.257101	0.683631
H187	H	0.365743	-0.240399	0.150008
H188	H	0.865743	0.259601	0.650008
H189	H	0.311351	-0.272852	0.178058
H190	H	0.811351	0.227148	0.678058
H191	H	0.311433	-0.212586	0.184530
H192	H	0.811433	0.287414	0.684530
H193	H	0.978052	-0.549681	0.374912
H194	H	1.478052	-0.049681	0.874912
C195	C	0.474326	-0.242897	0.183584
C196	C	0.974326	0.257103	0.683584
H197	H	0.445435	-0.240392	0.149980
H198	H	0.945435	0.259608	0.649980
H199	H	0.499878	-0.212588	0.184481
H200	H	0.999878	0.287412	0.684481
H201	H	0.499820	-0.272852	0.177979
H202	H	0.999820	0.227148	0.677979
C203	C	1.029596	-0.693928	0.426523
C204	C	1.529596	-0.193928	0.926523
H205	H	1.023855	-0.657505	0.420773
H206	H	1.523855	-0.157505	0.920773
H207	H	1.020405	-0.702868	0.468608
H208	H	1.520405	-0.202868	0.968608
H209	H	1.071703	-0.702843	0.417406
H210	H	1.571703	-0.202843	0.917406
C211	C	0.895051	-0.350527	0.871127
C212	C	1.395051	0.149473	1.371127
H213	H	0.892075	-0.378590	0.842263
H214	H	1.392075	0.121410	1.342263
H215	H	0.930954	-0.355115	0.896679
H216	H	1.430954	0.144885	1.396679
H217	H	0.858729	-0.349842	0.896626
H218	H	1.358729	0.150158	1.396626
H219	H	0.978252	-0.190863	1.063684
H220	H	1.478252	0.309137	1.563684
C221	C	0.989635	-0.945159	0.386464
C222	C	1.489635	-0.445159	0.886464
H223	H	1.013489	-0.969208	0.410364
H224	H	1.513489	-0.469208	0.910364
H225	H	1.016942	-0.923839	0.362538
H226	H	1.516942	-0.423839	0.862538
H227	H	0.965636	-0.923874	0.413733
H228	H	1.465636	-0.423874	0.913733
H229	H	1.018192	-0.800794	0.415084
H230	H	1.518192	-0.300794	0.915084
C231	C	0.821290	-0.321922	0.531848
C232	C	1.321290	0.178078	1.031848
H233	H	0.827029	-0.317143	0.488197
H234	H	1.327029	0.182857	0.988197
H235	H	0.830429	-0.357047	0.542574
H236	H	1.330429	0.142953	1.042574
H237	H	0.779196	-0.314270	0.542540
H238	H	1.279196	0.185730	1.042540
H239	H	0.978257	-0.190901	0.944977
H240	H	1.478257	0.309099	1.444977
C241	C	0.272624	-0.181372	0.218204
C242	C	0.772624	0.318628	0.718204
H243	H	0.316281	-0.186172	0.223920
H244	H	0.816281	0.313828	0.723920
H245	H	0.261845	-0.188969	0.176092
H246	H	0.761845	0.311031	0.676092
H247	H	0.261954	-0.146251	0.227464
H248	H	0.761954	0.353749	0.727464
C249	C	0.989704	-0.181429	0.669412
C250	C	1.489704	0.318571	1.169412
H251	H	0.983958	-0.186206	0.713062
H252	H	1.483958	0.313794	1.213062
H253	H	1.031795	-0.189078	0.658719
H254	H	1.531795	0.310922	1.158719
H255	H	0.980560	-0.146301	0.658689
H256	H	1.480560	0.353699	1.158689
H257	H	0.978236	-1.052043	0.375010
H258	H	1.478236	-0.552043	0.875010
H259	H	0.914540	-0.166167	0.743113
H260	H	1.414540	0.333833	1.243113
C261	C	0.821473	-1.060066	0.217964
C262	C	1.321473	-0.560066	0.717964
H263	H	0.797612	-1.036018	0.194071
H264	H	1.297612	-0.536018	0.694071
H265	H	0.845457	-1.081361	0.190698
H266	H	1.345457	-0.581361	0.690698
H267	H	0.794164	-1.081377	0.241906
H268	H	1.294164	-0.581377	0.741906
C269	C	0.538861	-0.322031	0.386104
C270	C	1.038861	0.177969	0.886104
H271	H	0.567718	-0.341975	0.409919
H272	H	1.067718	0.158025	0.909919
H273	H	0.513409	-0.302032	0.413446
H274	H	1.013409	0.197968	0.913446
H275	H	0.513263	-0.344789	0.362120
H276	H	1.013263	0.155211	0.862120
H277	H	0.792752	-0.801124	0.189267
H278	H	1.292752	-0.301124	0.689267
H279	H	0.465203	-0.259338	0.404516
H280	H	0.965203	0.240662	0.904516
H281	H	0.832760	-0.312253	0.944852
H282	H	1.332760	0.187747	1.444852
H283	H	0.978025	-0.450631	0.374873
H284	H	1.478025	0.049369	0.874873
H285	H	0.666919	-0.312519	0.374595
H286	H	1.166919	0.187481	0.874595
C287	C	0.337164	-0.260509	0.420690
C288	C	0.837164	0.239491	0.920690
H289	H	0.293499	-0.259895	0.412624
H290	H	0.793499	0.240105	0.912624
H291	H	0.347868	-0.292365	0.440648
H292	H	0.847868	0.207635	0.940648
H293	H	0.347955	-0.232097	0.447106
H294	H	0.847955	0.267903	0.947106
C295	C	0.989702	-0.181466	0.532000
C296	C	1.489702	0.318534	1.032000
H297	H	1.013579	-0.161539	0.560879
H298	H	1.513579	0.338461	1.060879
H299	H	1.016985	-0.201467	0.506489
H300	H	1.516985	0.298533	1.006489
H301	H	0.965748	-0.158692	0.506463
H302	H	1.465748	0.341308	1.006463
C303	C	0.821428	-0.945415	0.217941
C304	C	1.321428	-0.445415	0.717941
H305	H	0.797593	-0.969535	0.194049
H306	H	1.297593	-0.469535	0.694049
H307	H	0.794105	-0.924127	0.241863
H308	H	1.294105	-0.424127	0.741863
H309	H	0.845406	-0.924107	0.190663
H310	H	1.345406	-0.424107	0.690663
C311	C	0.781271	-0.694289	0.177789
C312	C	1.281271	-0.194289	0.677789
H313	H	0.757431	-0.718408	0.153899
H314	H	1.257431	-0.218408	0.653899
H315	H	0.753953	-0.673000	0.201716
H316	H	1.253953	-0.173000	0.701716
H317	H	0.805246	-0.672982	0.150509
H318	H	1.305246	-0.172982	0.650509
C319	C	0.821310	-0.321776	1.072897
C320	C	1.321310	0.178224	1.572897
H321	H	0.827057	-0.316978	1.116558
H322	H	1.327057	0.183022	1.616558
H323	H	0.779217	-0.314139	1.062145
H324	H	1.279217	0.185861	1.562145
H325	H	0.830461	-0.356908	1.062172
H326	H	1.330461	0.143092	1.562172
C327	C	0.135216	-0.181340	0.218258
C328	C	0.635216	0.318660	0.718258
H329	H	0.091560	-0.186129	0.224000
H330	H	0.591560	0.313871	0.724000
H331	H	0.145999	-0.146226	0.227511
H332	H	0.645999	0.353774	0.727511
H333	H	0.145879	-0.188940	0.176134
H334	H	0.645879	0.311060	0.676134
H335	H	0.832730	-0.549911	0.229314
H336	H	1.332730	-0.049911	0.729314
C337	C	0.894916	-0.350558	0.733721
C338	C	1.394916	0.149442	1.233721
H339	H	0.891917	-0.378603	0.762572
H340	H	1.391917	0.121397	1.262572
H341	H	0.858564	-0.349817	0.708219
H342	H	1.358564	0.150183	1.208219
H343	H	0.930775	-0.355224	0.708171
H344	H	1.430775	0.144776	1.208171
H345	H	0.144576	-0.312424	0.374792
H346	H	0.644576	0.187576	0.874792
H347	H	0.832698	-0.450845	0.229295
H348	H	1.332698	0.049155	0.729295
H349	H	0.914540	-0.166134	0.861825
H350	H	1.414540	0.333866	1.361825
C351	C	0.821301	-0.321889	0.669260
C352	C	1.321301	0.178111	1.169260
H353	H	0.827050	-0.317092	0.712921
H354	H	1.327050	0.182908	1.212921
H355	H	0.779208	-0.314249	0.658509
H356	H	1.279208	0.185751	1.158509
H357	H	0.830448	-0.357021	0.658535
H358	H	1.330448	0.142979	1.158535
C359	C	0.272637	-0.322015	0.386168
C360	C	0.772637	0.177985	0.886168
H361	H	0.316293	-0.317230	0.380421
H362	H	0.816293	0.182770	0.880421
H363	H	0.261971	-0.314411	0.428286
H364	H	0.761971	0.185589	0.928286
H365	H	0.261859	-0.357134	0.376920
H366	H	0.761859	0.142866	0.876920
C367	C	0.538852	-0.181415	0.218108
C368	C	1.038852	0.318585	0.718108
H369	H	0.495197	-0.186207	0.223845
H370	H	0.995197	0.313793	0.723845
H371	H	0.549629	-0.146298	0.227356
H372	H	1.049629	0.353702	0.727356
H373	H	0.549521	-0.189018	0.175987
H374	H	1.049521	0.310982	0.675987
