data_functionalizedCrystal
_audit_creation_method	'MofGen! by Chris Wilmer'
_symmetry_space_group_name_H-M	'P1'
_symmetry_Int_Tables_number	1
_symmetry_cell_setting	triclinic
loop_
_symmetry_equiv_pos_as_xyz
  x,y,z
_cell_length_a	16.625546
_cell_length_b	12.759401
_cell_length_c	12.759393
_cell_angle_alpha	89.981433
_cell_angle_beta	89.963806
_cell_angle_gamma	90.021512
loop_
_atom_site_label
_atom_site_type_symbol
_atom_site_fract_x
_atom_site_fract_y
_atom_site_fract_z
Zn1	Zn	-0.320975	1.606199	-0.593950
Zn2	Zn	-0.455831	1.606069	-0.418255
Zn3	Zn	-0.321014	1.430501	-0.418289
Zn4	Zn	-0.455767	1.430465	-0.593897
O5	O	-0.388397	1.518308	-0.506098
O6	O	-0.338874	1.753202	-0.570651
O7	O	-0.437991	1.582740	-0.271239
O8	O	-0.208177	1.453876	-0.441627
O9	O	-0.437953	1.753107	-0.441570
O10	O	-0.208147	1.582961	-0.570684
O11	O	-0.338942	1.453751	-0.271263
O12	O	-0.338879	1.283475	-0.441575
O13	O	-0.437843	1.453816	-0.740925
O14	O	-0.437881	1.283449	-0.570594
O15	O	-0.338811	1.582927	-0.740964
O16	O	-0.568655	1.582706	-0.441519
O17	O	-0.568608	1.453691	-0.570561
C18	C	-0.388378	1.245341	-0.506083
C19	C	-0.388389	1.128564	-0.506102
C20	C	-0.336896	1.073745	-0.573419
C21	C	-0.336912	0.964021	-0.573425
C22	C	-0.439920	0.963945	-0.438795
C23	C	-0.439900	1.073668	-0.438784
C24	C	-0.277428	1.073788	-0.651150
C25	C	-0.277443	0.964064	-0.651156
C26	C	-0.597888	1.518209	-0.506054
C27	C	-0.687509	1.518263	-0.506070
C28	C	-1.015684	1.518446	-0.506179
C29	C	-0.924376	1.518392	-0.506152
C30	C	-0.851599	1.518353	-0.506124
C31	C	-0.760285	1.518301	-0.506098
C32	C	-0.178088	1.518437	-0.506165
C33	C	-0.088467	1.518492	-0.506193
C34	C	-0.388315	1.518382	-0.780131
C35	C	-0.388281	1.518413	-0.896908
C36	C	-0.388416	1.792342	-0.506113
C37	C	-0.388425	1.909118	-0.506119
C38	C	-0.336710	1.585650	-0.951792
C39	C	-0.336681	1.585675	-1.061516
C40	C	-0.439800	1.451223	-1.061462
C41	C	-0.439824	1.451194	-0.951740
C42	C	-0.277178	1.663279	-0.951823
C43	C	-0.277149	1.663304	-1.061548
C44	C	-0.388420	1.518296	-0.233130
C45	C	-0.388227	1.518468	-0.116354
H46	H	-0.481858	0.919235	-0.383987
H47	H	-0.299565	1.740546	-0.917785
H48	H	-0.481823	1.118297	-0.383958
C49	C	-0.197962	1.624536	-1.106765
C50	C	-0.145533	1.598817	-1.024875
C51	C	-0.072579	1.563112	-1.066491
H52	H	-0.207414	1.564245	-1.148644
H53	H	-0.174578	1.678067	-1.148652
H54	H	-0.168912	1.545290	-0.983005
H55	H	-0.136058	1.659091	-0.982989
H56	H	-0.049195	1.616643	-1.108379
H57	H	-0.082039	1.502825	-1.108370
H58	H	-0.036994	1.545667	-1.010936
H59	H	-0.293875	1.744671	-1.091324
H60	H	-0.214954	1.103566	-0.629502
H61	H	-0.299862	1.107849	-0.728385
H62	H	-0.294247	0.934316	-0.732490
H63	H	-0.218097	0.930033	-0.622163
C64	C	-0.495889	1.378134	-0.892340
C65	C	-0.541033	1.319292	-0.963848
C66	C	-0.592693	1.251980	-0.909167
H67	H	-0.465129	1.332281	-0.849551
H68	H	-0.531084	1.418251	-0.849541
H69	H	-0.505842	1.279178	-1.006630
H70	H	-0.571810	1.365118	-1.006639
H71	H	-0.627888	1.292096	-0.866368
H72	H	-0.561926	1.206133	-0.866380
H73	H	-0.623334	1.212054	-0.957677
H74	H	-0.481763	1.396493	-1.106120
H75	H	-0.214734	1.641521	-0.922074
