data_functionalizedCrystal
_audit_creation_method	'MofGen! by Chris Wilmer'
_symmetry_space_group_name_H-M	'P1'
_symmetry_Int_Tables_number	1
_symmetry_cell_setting	triclinic
loop_
_symmetry_equiv_pos_as_xyz
  x,y,z
_cell_length_a	10.540510
_cell_length_b	10.540510
_cell_length_c	7.540329
_cell_angle_alpha	89.998880
_cell_angle_beta	89.996792
_cell_angle_gamma	84.513311
loop_
_atom_site_label
_atom_site_type_symbol
_atom_site_fract_x
_atom_site_fract_y
_atom_site_fract_z
O1	O	1.685888	0.178721	-0.147483
O2	O	1.316468	0.195616	-0.147483
O3	O	1.509625	0.002459	-0.147482
O4	O	1.492730	0.371878	-0.147484
O5	O	1.509614	0.002456	0.147483
O6	O	1.316456	0.195614	0.147482
O7	O	1.685876	0.178718	0.147482
Cu8	Cu	1.501165	0.187166	0.174415
Cu9	Cu	1.501179	0.187169	-0.174416
O10	O	1.492718	0.371876	0.147481
C11	C	1.269159	0.194356	-0.000001
C12	C	1.128209	0.190589	-0.000001
C13	C	1.508361	-0.044846	-0.000003
C14	C	1.504594	-0.185795	-0.000014
C15	C	0.910739	0.324775	-0.000679
C16	C	1.057334	0.328793	-0.000004
C17	C	1.083450	0.119841	0.168435
C18	C	0.936690	0.116802	0.168565
C19	C	0.936897	0.113926	-0.166866
C20	C	1.083237	0.120482	-0.169081
C21	C	1.638780	-0.403265	0.000661
C22	C	1.642798	-0.256670	-0.000012
C23	C	1.433853	-0.230545	-0.168450
C24	C	1.430814	-0.377306	-0.168582
C25	C	1.427923	-0.377117	0.166848
C26	C	1.434478	-0.230776	0.169066
C27	C	1.733185	0.179979	-0.000004
C28	C	1.874135	0.183746	-0.000015
C29	C	1.493983	0.419181	-0.000001
C30	C	1.497750	0.560130	-0.000002
N31	N	1.501165	0.187163	0.419763
N32	N	1.501189	0.187162	-0.419764
H33	H	1.086679	0.384141	-0.120749
Cl34	Cl	0.874576	0.191453	0.362951
H35	H	0.868785	0.378619	-0.121475
H36	H	1.130851	0.018098	0.174700
Cl37	Cl	1.271227	-0.412798	-0.180399
Cl38	Cl	0.902718	-0.046277	-0.168620
H39	H	0.913705	0.013434	0.176217
H40	H	1.482990	-0.199693	-0.293800
H41	H	1.332110	-0.183145	-0.174713
H42	H	0.867222	0.378307	0.119430
H43	H	1.698148	-0.227333	0.120726
Cl44	Cl	1.101182	0.414752	0.186734
H45	H	1.471837	-0.419304	0.294524
Cl46	Cl	1.158999	-0.035307	-0.184782
Cl47	Cl	1.728759	-0.212812	-0.186755
H48	H	1.692317	-0.446776	-0.119449
Cl49	Cl	1.513936	-0.186600	0.361457
H50	H	1.479168	-0.417525	-0.294490
H51	H	1.114294	0.168972	0.293784
Cl52	Cl	0.871226	0.181233	-0.363975
Cl53	Cl	1.127479	0.199913	-0.361474
Cl54	Cl	1.721910	-0.468049	0.187160
Cl55	Cl	1.278690	-0.155011	0.184772
Cl56	Cl	1.267721	-0.411300	0.168607
