data_functionalizedCrystal
_audit_creation_method	'MofGen! by Chris Wilmer'
_symmetry_space_group_name_H-M	'P1'
_symmetry_Int_Tables_number	1
_symmetry_cell_setting	triclinic
loop_
_symmetry_equiv_pos_as_xyz
  x,y,z
_cell_length_a	14.044220
_cell_length_b	16.992695
_cell_length_c	16.053802
_cell_angle_alpha	87.245349
_cell_angle_beta	92.799619
_cell_angle_gamma	91.928550
loop_
_atom_site_label
_atom_site_type_symbol
_atom_site_fract_x
_atom_site_fract_y
_atom_site_fract_z
O1	O	0.198302	1.057568	-0.069399
O2	O	0.196084	0.829128	-0.069408
O3	O	0.058949	0.939918	-0.069396
O4	O	0.335437	0.946777	-0.069412
O5	O	0.066464	0.933818	0.069462
O6	O	0.203599	0.823027	0.069450
O7	O	0.205817	1.051467	0.069459
Zn8	Zn	0.205901	0.936278	0.091501
Zn9	Zn	0.196000	0.944316	-0.091451
O10	O	0.342952	0.940676	0.069446
C11	C	0.027165	0.933866	0.000034
C12	C	-0.078739	0.924912	0.000034
C13	C	0.204911	1.083929	0.000029
C14	C	0.213419	1.171569	0.000026
C15	C	0.196990	0.796665	0.000020
C16	C	0.188481	0.709026	0.000017
C17	C	-0.272641	0.908543	0.000022
C18	C	-0.325464	0.972049	0.000021
C19	C	-0.433358	0.962941	0.000014
C20	C	-0.164738	0.917650	0.000029
C21	C	0.374736	0.946729	0.000015
C22	C	0.480640	0.955683	0.000009
N23	N	0.212659	0.930799	0.216361
C24	C	0.131323	1.216067	0.000029
C25	C	0.139323	1.298413	0.000031
C26	C	0.229421	1.336260	0.000026
C27	C	0.311524	1.291755	0.000026
C28	C	0.303523	1.209410	0.000030
C29	C	0.262583	1.582177	0.000020
C30	C	0.270578	1.664528	0.000014
C31	C	0.098376	1.671180	0.000021
C32	C	0.090383	1.588834	0.000019
C33	C	0.172486	1.544336	0.000024
N34	N	0.237601	1.420431	0.000026
N35	N	0.164306	1.460167	0.000030
N36	N	0.189235	0.949802	-0.216310
C37	C	0.154331	0.977961	0.260060
C38	C	0.159067	0.974135	0.347466
C39	C	0.222137	0.923152	0.391172
C40	C	0.280467	0.875985	0.347466
C41	C	0.275725	0.879806	0.260062
C42	C	0.242823	0.906456	0.652580
C43	C	0.247563	0.902640	0.739990
C44	C	0.126161	1.000790	0.739984
C45	C	0.121429	1.004611	0.652578
C46	C	0.179756	0.957440	0.608880
N47	N	0.226982	0.919242	0.480515
N48	N	0.174905	0.961346	0.519538
H49	H	-0.308447	0.847338	0.000017
O50	O	0.367762	1.705348	0.000012
H51	H	0.378576	1.740231	0.056602
H52	H	0.057955	1.185259	0.000028
O53	O	-0.278044	1.053132	0.000026
H54	H	-0.296873	1.083114	0.056620
H55	H	0.017016	1.558025	0.000024
H56	H	0.331816	0.834468	0.383056
H57	H	0.072471	1.334640	0.000036
O58	O	0.086302	1.032947	0.212921
H59	H	0.046531	1.065092	0.257996
H60	H	0.031533	1.707419	0.000018
H61	H	0.329437	1.545957	0.000020
H62	H	0.384884	1.322576	0.000027
H63	H	0.370375	1.173181	0.000031
O64	O	0.096176	1.025018	0.394603
H65	H	0.051538	1.061124	0.349527
O66	O	0.053396	1.059593	0.605437
H67	H	0.013624	1.091740	0.650510
O68	O	0.063245	1.051658	0.787113
H69	H	0.077129	1.040433	0.855233
O70	O	0.315579	0.847638	0.787135
H71	H	0.355332	0.815471	0.742066
O72	O	0.305738	0.855590	0.605452
H73	H	0.350398	0.819506	0.650530
O74	O	0.338639	0.828944	0.212922
H75	H	0.383300	0.792855	0.257995
