data_functionalizedCrystal
_audit_creation_method	'MofGen! by Chris Wilmer'
_symmetry_space_group_name_H-M	'P1'
_symmetry_Int_Tables_number	1
_symmetry_cell_setting	triclinic
loop_
_symmetry_equiv_pos_as_xyz
  x,y,z
_cell_length_a	12.827893
_cell_length_b	12.645330
_cell_length_c	12.827885
_cell_angle_alpha	89.971022
_cell_angle_beta	89.980728
_cell_angle_gamma	90.017662
loop_
_atom_site_label
_atom_site_type_symbol
_atom_site_fract_x
_atom_site_fract_y
_atom_site_fract_z
Zn1	Zn	1.597653	-0.421989	-0.590855
Zn2	Zn	1.597540	-0.599290	-0.416117
Zn3	Zn	1.422894	-0.422040	-0.416128
Zn4	Zn	1.422873	-0.599211	-0.590817
O5	O	1.510240	-0.510632	-0.503479
O6	O	1.743874	-0.445520	-0.567686
O7	O	1.574335	-0.575832	-0.269883
O8	O	1.446133	-0.273686	-0.439326
O9	O	1.743791	-0.575782	-0.439308
O10	O	1.574527	-0.273648	-0.567697
O11	O	1.446023	-0.445608	-0.269891
O12	O	1.276655	-0.445531	-0.439290
O13	O	1.446096	-0.575647	-0.737058
O14	O	1.276639	-0.575697	-0.567633
O15	O	1.574506	-0.445443	-0.737086
O16	O	1.574314	-0.747626	-0.439271
O17	O	1.445986	-0.747568	-0.567623
C18	C	1.238730	-0.510612	-0.503459
C19	C	1.122577	-0.510629	-0.503476
C20	C	1.070812	-0.575140	-0.566886
C21	C	0.950762	-0.575159	-0.566904
C22	C	1.510164	-0.786062	-0.503465
C23	C	1.510227	-0.903892	-0.503493
C24	C	1.429829	-1.071464	-0.584488
C25	C	1.429418	-0.948904	-0.584228
C26	C	1.480414	-0.948494	-0.393362
C27	C	1.479923	-1.071093	-0.393854
C28	C	1.620929	-1.070979	-0.531736
C29	C	1.620251	-0.948372	-0.534144
C30	C	1.782810	-0.510654	-0.503500
C31	C	1.898963	-0.510663	-0.503509
C32	C	1.510311	-0.510531	-0.776050
C33	C	1.510341	-0.510487	-0.892203
C34	C	1.510345	-0.234127	-0.503517
C35	C	1.510390	-0.116297	-0.503533
C36	C	1.573890	-0.446045	-0.944001
C37	C	1.573923	-0.445999	-1.064052
C38	C	1.510229	-0.510657	-0.231969
C39	C	1.510401	-0.510402	-0.115817
H40	H	1.448070	-0.918744	-0.665889
O41	O	1.650048	-0.909754	-0.641502
H42	H	1.723273	-0.863249	-0.636528
H43	H	0.943473	-0.455433	-0.449214
O44	O	1.438301	-0.583471	-1.056836
H45	H	1.456164	-0.666691	-1.077705
O46	O	1.645996	-0.372919	-1.123052
H47	H	1.692527	-0.325756	-1.066864
H48	H	1.078018	-0.455408	-0.449206
H49	H	1.448310	-1.100870	-0.666417
O50	O	1.438293	-0.583522	-0.951174
H51	H	1.485099	-0.637402	-1.000895
H52	H	1.628268	-0.390905	-0.899471
H53	H	1.348392	-1.102366	-0.566042
O54	O	1.129819	-0.648261	-0.638811
H55	H	1.214852	-0.636762	-0.627519
H56	H	0.906245	-0.630392	-0.621189
H57	H	1.347469	-0.919671	-0.565543
O58	O	1.372894	-1.109112	-0.362202
H59	H	1.338977	-1.157256	-0.426081
H60	H	1.536054	-1.100754	-0.331479
O61	O	1.703946	-0.907828	-0.461702
H62	H	1.668272	-0.855106	-0.402455
H63	H	1.537231	-0.919340	-0.331396
O64	O	1.374494	-0.907959	-0.361131
H65	H	1.315327	-0.933845	-0.418855
H66	H	1.648124	-1.101818	-0.610678
O67	O	1.700434	-1.109383	-0.453636
H68	H	1.778257	-1.077047	-0.474069
