data_functionalizedCrystal
_audit_creation_method	'MofGen! by Chris Wilmer'
_symmetry_space_group_name_H-M	'P1'
_symmetry_Int_Tables_number	1
_symmetry_cell_setting	triclinic
loop_
_symmetry_equiv_pos_as_xyz
  x,y,z
_cell_length_a	8.559649
_cell_length_b	11.295483
_cell_length_c	8.559649
_cell_angle_alpha	93.518058
_cell_angle_beta	110.221336
_cell_angle_gamma	93.526526
loop_
_atom_site_label
_atom_site_type_symbol
_atom_site_fract_x
_atom_site_fract_y
_atom_site_fract_z
O1	O	2.139147	0.099006	0.067299
O2	O	1.663663	0.099011	-0.016482
O3	O	1.943295	0.099007	0.263151
O4	O	1.859515	0.099010	-0.212334
O5	O	1.918739	-0.099043	0.238624
O6	O	1.639106	-0.099039	-0.041009
O7	O	2.114591	-0.099044	0.042772
Cu8	Cu	1.874606	-0.117125	-0.001358
Cu9	Cu	1.903647	0.117092	0.027648
O10	O	1.834958	-0.099040	-0.236861
C11	C	1.591076	-0.000014	-0.035094
C12	C	1.411377	-0.000012	-0.053993
N13	N	1.854192	-0.281861	-0.021757
C14	C	2.071038	-0.531154	0.194994
C15	C	2.055621	-0.655817	0.179569
C16	C	1.807936	-0.655854	-0.068026
C17	C	1.823353	-0.531190	-0.052600
C18	C	1.954909	-0.468845	0.078913
C19	C	1.970332	-0.344179	0.094330
C20	C	1.722642	-0.344218	-0.153256
C21	C	1.707225	-0.468881	-0.168682
C22	C	2.187178	-0.000017	0.061385
C23	C	2.366878	-0.000011	0.080285
C24	C	1.937367	-0.000016	0.311196
C25	C	1.956266	-0.000009	0.490896
N26	N	1.924076	0.281828	0.048061
C27	C	1.840887	-0.000014	-0.284906
C28	C	1.821988	-0.000013	-0.464605
H29	H	1.311989	-0.000004	-0.183420
H30	H	2.077455	-0.293418	0.201411
O31	O	2.212921	-0.463896	0.336829
H32	H	2.291082	-0.528169	0.414962
H33	H	2.150182	-0.706546	0.274095
H34	H	1.466257	-0.000006	0.209705
H35	H	1.700816	-0.706632	-0.175091
O36	O	1.597380	-0.277015	-0.278476
H37	H	1.470500	-0.300967	-0.276231
H38	H	1.600110	-0.519658	-0.275754
O39	O	2.127710	-0.000026	0.622537
H40	H	2.223091	-0.000032	0.561676
H41	H	1.692568	-0.000016	0.436016
