data_functionalizedCrystal
_audit_creation_method	'MofGen! by Chris Wilmer'
_symmetry_space_group_name_H-M	'P1'
_symmetry_Int_Tables_number	1
_symmetry_cell_setting	triclinic
loop_
_symmetry_equiv_pos_as_xyz
  x,y,z
_cell_length_a	21.395362
_cell_length_b	19.077068
_cell_length_c	21.395356
_cell_angle_alpha	92.271626
_cell_angle_beta	89.964230
_cell_angle_gamma	92.343691
loop_
_atom_site_label
_atom_site_type_symbol
_atom_site_fract_x
_atom_site_fract_y
_atom_site_fract_z
Zn1	Zn	0.947810	-0.279939	-0.364584
Zn2	Zn	0.943524	-0.397635	-0.264011
Zn3	Zn	0.843039	-0.279987	-0.259787
Zn4	Zn	0.838791	-0.397635	-0.368715
O5	O	0.893291	-0.338799	-0.314274
O6	O	1.034921	-0.295532	-0.351282
O7	O	0.930178	-0.382049	-0.175773
O8	O	0.860508	-0.181488	-0.270193
O9	O	1.031771	-0.382003	-0.277391
O10	O	0.937484	-0.181453	-0.347186
O11	O	0.856352	-0.295613	-0.172670
O12	O	0.754797	-0.295613	-0.274198
O13	O	0.853269	-0.382003	-0.455845
O14	O	0.751676	-0.382048	-0.354227
O15	O	0.933365	-0.295532	-0.452810
O16	O	0.926060	-0.496128	-0.281396
O17	O	0.849113	-0.496128	-0.358323
C18	C	0.730502	-0.338836	-0.314203
C19	C	0.660860	-0.338869	-0.314188
C20	C	0.626536	-0.383936	-0.355801
C21	C	0.561101	-0.383919	-0.355829
C22	C	0.529992	-0.338842	-0.314232
C23	C	0.564324	-0.293766	-0.272615
C24	C	0.629758	-0.293780	-0.272594
C25	C	0.426478	-0.333180	-0.257624
C26	C	0.361045	-0.333171	-0.257645
C27	C	0.328173	-0.338796	-0.314299
C28	C	0.360741	-0.344444	-0.370935
C29	C	0.426175	-0.344458	-0.370913
C30	C	0.459041	-0.338822	-0.314251
C31	C	0.222897	-0.383847	-0.355946
C32	C	0.157462	-0.383824	-0.355974
C33	C	0.160686	-0.293676	-0.272755
C34	C	0.226121	-0.293694	-0.272732
C35	C	0.257222	-0.338783	-0.314327
C36	C	0.886677	-0.521666	-0.320780
C37	C	0.883905	-0.599897	-0.323584
C38	C	0.922696	-0.636626	-0.284883
C39	C	0.920092	-0.710133	-0.287524
C40	C	0.878694	-0.746908	-0.328863
C41	C	0.839901	-0.710173	-0.367568
C42	C	0.842509	-0.636668	-0.364930
C43	C	0.866600	-0.966747	-0.341047
C44	C	0.863994	-1.040257	-0.343681
C45	C	0.944186	-1.040212	-0.263638
C46	C	0.946787	-0.966706	-0.261001
C47	C	0.907997	-0.929977	-0.299708
N48	N	0.876030	-0.822043	-0.331562
N49	N	0.910664	-0.854843	-0.297012
C50	C	1.056716	-0.338762	-0.314347
C51	C	1.126358	-0.338746	-0.314377
C52	C	0.893321	-0.338762	-0.477697
C53	C	0.893334	-0.338746	-0.547337
C54	C	0.899948	-0.155218	-0.307758
C55	C	0.902785	-0.076987	-0.304980
C56	C	0.931851	-0.383606	-1.050745
C57	C	0.931839	-0.383628	-0.985310
C58	C	0.893398	-0.338635	-0.950972
C59	C	0.854954	-0.293628	-0.982074
C60	C	0.854962	-0.293612	-1.047508
C61	C	0.890736	-0.275249	-0.845051
C62	C	0.890732	-0.275264	-0.779618
C63	C	0.893368	-0.338685	-0.749153
C64	C	0.896021	-0.402092	-0.784128
C65	C	0.896029	-0.402076	-0.849561
C66	C	0.893384	-0.338647	-0.880020
C67	C	0.931793	-0.383716	-0.647107
C68	C	0.931776	-0.383739	-0.581671
C69	C	0.854895	-0.293733	-0.578436
C70	C	0.854908	-0.293716	-0.643871
C71	C	0.893360	-0.338706	-0.678202
C72	C	0.893299	-0.338785	-0.151486
C73	C	0.893415	-0.338602	-0.081839
H74	H	0.452690	-0.349055	-0.417027
H75	H	0.806197	-0.740121	-0.401230
H76	H	0.951679	-0.740035	-0.256009
F77	F	0.972685	-0.431644	-0.548578
F78	F	0.801224	-0.597578	-0.406122
F79	F	0.966754	-0.597494	-0.240880
F80	F	0.898828	-0.469594	-0.751709
H81	H	0.963101	-0.420351	-0.675061
F82	F	0.888178	-0.207720	-0.877467
F83	F	0.531216	-0.245790	-0.228347
H84	H	0.823594	-0.257100	-0.550479
H85	H	0.963160	-0.420243	-1.078693
F86	F	0.659633	-0.431922	-0.400072
F87	F	0.972749	-0.431530	-0.952210
H88	H	0.453237	-0.328596	-0.211487
H89	H	0.898188	-0.453705	-0.878035
F90	F	0.990855	-0.927572	-0.217009
F91	F	0.985469	-1.079306	-0.222449
H92	H	0.823611	-0.257067	-0.669188
H93	H	0.823654	-0.256995	-0.954112
F94	F	0.666289	-0.245811	-0.228301
F95	F	0.819924	-1.079395	-0.387675
F96	F	0.524564	-0.431887	-0.400121
H97	H	0.888575	-0.223634	-0.751147
F98	F	0.825315	-0.927667	-0.382243
F99	F	0.814048	-0.245715	-1.080602
H100	H	0.333979	-0.349023	-0.417068
F101	F	0.256000	-0.431830	-0.400216
H102	H	0.129516	-0.420522	-0.389864
H103	H	0.254068	-0.257000	-0.238843
F104	F	0.127583	-0.245698	-0.228487
H105	H	0.334533	-0.328576	-0.211529
