data_functionalizedCrystal
_audit_creation_method	'MofGen! by Chris Wilmer'
_symmetry_space_group_name_H-M	'P1'
_symmetry_Int_Tables_number	1
_symmetry_cell_setting	triclinic
loop_
_symmetry_equiv_pos_as_xyz
  x,y,z
_cell_length_a	27.731994
_cell_length_b	16.109301
_cell_length_c	15.186229
_cell_angle_alpha	90.005167
_cell_angle_beta	90.002739
_cell_angle_gamma	96.958992
loop_
_atom_site_label
_atom_site_type_symbol
_atom_site_fract_x
_atom_site_fract_y
_atom_site_fract_z
O1	O	0.641357	-0.098711	-0.073106
O2	O	0.500623	-0.113799	-0.073136
O3	O	0.574856	0.014825	-0.073111
O4	O	0.567124	-0.227335	-0.073131
O5	O	0.574851	0.014827	0.073346
O6	O	0.500618	-0.113798	0.073322
O7	O	0.641352	-0.098709	0.073351
Zn8	Zn	0.570984	-0.106253	0.096590
Zn9	Zn	0.570991	-0.106255	-0.096374
O10	O	0.567119	-0.227333	0.073327
C11	C	0.482612	-0.113489	0.000089
C12	C	0.428951	-0.112556	0.000078
C13	C	0.096206	-0.106680	0.079947
C14	C	-0.105467	-0.103134	0.079957
O15	O	-0.131544	-0.102639	0.147852
N16	N	-0.130681	-0.102695	0.000123
C17	C	-0.105474	-0.103137	-0.079719
O18	O	-0.131546	-0.102673	-0.147622
C19	C	0.096199	-0.106676	-0.079728
C20	C	0.121410	-0.107124	0.000111
C21	C	0.121416	-0.107127	0.159779
C22	C	0.171831	-0.108018	0.159776
C23	C	0.197035	-0.108462	0.079940
C24	C	0.171825	-0.108015	0.000107
C25	C	0.121406	-0.107112	-0.159569
C26	C	0.171828	-0.107995	-0.159565
C27	C	0.197038	-0.108443	-0.079726
C28	C	0.247443	-0.109350	-0.079732
N29	N	0.272657	-0.109790	0.000102
C30	C	0.247453	-0.109346	0.079938
C31	C	-0.211355	-0.101280	-0.079708
C32	C	-0.261773	-0.100396	-0.079706
C33	C	-0.261763	-0.100393	0.079970
C34	C	-0.211344	-0.101282	0.079967
C35	C	-0.186141	-0.101719	0.000125
C36	C	0.353328	-0.111218	0.079925
C37	C	0.403747	-0.112112	0.079914
C38	C	0.403733	-0.112111	-0.079761
C39	C	0.353318	-0.111221	-0.079751
C40	C	0.328117	-0.110772	0.000099
O41	O	0.273552	-0.109836	-0.147592
O42	O	0.273536	-0.109791	0.147831
C43	C	0.045791	-0.105789	0.079950
C44	C	0.020580	-0.105342	0.000118
C45	C	0.045784	-0.105786	-0.079718
C46	C	-0.029838	-0.104459	0.000120
C47	C	-0.055042	-0.104015	0.079956
C48	C	-0.029828	-0.104454	0.159789
C49	C	0.020587	-0.105345	0.159786
C50	C	0.020570	-0.105347	-0.159552
C51	C	-0.029845	-0.104457	-0.159542
C52	C	-0.055049	-0.104013	-0.079706
C53	C	0.574540	0.045797	0.000118
C54	C	0.573601	0.138080	0.000119
C55	C	0.659363	-0.099019	0.000124
C56	C	0.713023	-0.099952	0.000130
C57	C	0.567434	-0.258305	0.000096
C58	C	0.568373	-0.350589	0.000089
N59	N	0.570983	-0.106251	0.228282
C60	C	0.615466	0.360885	0.000114
C61	C	0.614580	0.447594	0.000107
C62	C	0.526505	0.426600	0.000091
C63	C	0.527392	0.339892	0.000093
C64	C	0.571874	0.307038	0.000108
C65	C	0.570101	0.480454	0.000100
C66	C	0.569140	0.574468	0.000092
C67	C	0.572835	0.213018	0.000115
N68	N	0.570995	-0.106251	-0.228067
C69	C	0.603865	-0.049315	0.454016
C70	C	0.603866	-0.049313	0.546206
C71	C	0.538110	-0.163190	0.546193
C72	C	0.538107	-0.163187	0.454005
C73	C	0.570987	-0.106250	0.407919
C74	C	0.570992	-0.106251	0.592297
C75	C	0.570993	-0.106249	0.692253
C76	C	0.570985	-0.106251	0.307957
H77	H	0.192354	-0.108378	0.224789
H78	H	0.100888	-0.106746	-0.224583
H79	H	0.630637	-0.002953	0.416495
H80	H	-0.282296	-0.100045	-0.144719
O81	O	0.663443	0.325453	0.000116
H82	H	0.665959	0.286463	0.059813
H83	H	-0.050368	-0.104099	-0.224562
O84	O	0.502639	-0.224600	0.404288
H85	H	0.479150	-0.189881	0.362304
O86	O	0.478531	0.462042	0.000082
H87	H	0.448367	0.410029	0.000070
H88	H	0.491891	0.296047	0.000085
H89	H	0.630638	-0.002950	0.583736
H90	H	0.511341	-0.209547	0.583726
O91	O	0.661598	0.505673	0.000114
H92	H	0.663296	0.545691	0.059803
O93	O	0.430939	-0.112609	0.166029
H94	H	0.404940	-0.112148	0.221542
H95	H	0.100901	-0.106764	0.224795
O96	O	0.326059	-0.110842	0.165958
H97	H	0.339979	-0.054367	0.204381
O98	O	-0.184156	-0.101771	0.166080
H99	H	-0.189511	-0.044914	0.204371
O100	O	-0.288968	-0.100134	0.166082
H101	H	-0.328267	-0.099520	0.152662
H102	H	0.041086	-0.105706	-0.224565
H103	H	-0.190838	-0.101635	-0.144728
H104	H	0.192346	-0.108351	-0.224583
H105	H	0.332790	-0.110870	-0.144763
O106	O	0.430923	-0.112571	-0.165869
H107	H	0.470217	-0.113249	-0.152450
H108	H	-0.050359	-0.104097	0.224795
O109	O	0.047775	-0.105840	0.245898
H110	H	0.021772	-0.105382	0.301405
