data_functionalizedCrystal
_audit_creation_method	'MofGen! by Chris Wilmer'
_symmetry_space_group_name_H-M	'P1'
_symmetry_Int_Tables_number	1
_symmetry_cell_setting	triclinic
loop_
_symmetry_equiv_pos_as_xyz
  x,y,z
_cell_length_a	27.732048
_cell_length_b	19.288859
_cell_length_c	17.766277
_cell_angle_alpha	89.989768
_cell_angle_beta	89.998625
_cell_angle_gamma	97.111810
loop_
_atom_site_label
_atom_site_type_symbol
_atom_site_fract_x
_atom_site_fract_y
_atom_site_fract_z
O1	O	-0.060286	0.920980	-0.062596
O2	O	-0.068423	0.718668	-0.062593
O3	O	0.006023	0.826107	-0.062605
O4	O	-0.134732	0.813540	-0.062584
O5	O	0.006027	0.826088	0.062584
O6	O	-0.068419	0.718649	0.062596
O7	O	-0.060282	0.920961	0.062592
Cu8	Cu	-0.064350	0.819803	0.074025
Cu9	Cu	-0.064355	0.819825	-0.074025
O10	O	-0.134728	0.813522	0.062604
C11	C	-0.068160	0.692783	0.000002
C12	C	-0.067375	0.615685	0.000002
C13	C	-0.105750	0.051404	0.000007
C14	C	-0.106492	0.123846	0.000003
C15	C	-0.062810	0.168826	-0.000002
C16	C	-0.018383	0.141358	-0.000022
C17	C	-0.017643	0.068917	-0.000026
C18	C	-0.030231	0.290293	0.043855
C19	C	-0.030973	0.362732	0.043864
C20	C	-0.065091	0.392257	0.000006
C21	C	-0.098475	0.349333	-0.043850
C22	C	-0.097735	0.276893	-0.043854
C23	C	-0.063607	0.247376	0.000002
C24	C	-0.110318	0.498267	0.000017
C25	C	-0.111058	0.570710	0.000008
C26	C	-0.022948	0.588220	-0.000009
C27	C	-0.022210	0.515778	-0.000008
C28	C	-0.065896	0.470805	0.000008
C29	C	-0.152738	0.813795	0.000012
C30	C	-0.206395	0.814589	0.000020
C31	C	-0.545035	0.756100	-0.000016
C32	C	-0.746703	0.759047	-0.000025
O33	O	-0.777798	0.705563	-0.000057
N34	N	-0.766018	0.822754	-0.000025
C35	C	-0.734913	0.885729	-0.000027
O36	O	-0.755969	0.939984	-0.000035
C37	C	-0.533245	0.882781	-0.000024
C38	C	-0.513933	0.819070	-0.000016
C39	C	-0.525722	0.692394	-0.000009
C40	C	-0.475308	0.691658	-0.000002
C41	C	-0.444206	0.754628	-0.000003
C42	C	-0.463519	0.818334	-0.000010
C43	C	-0.502141	0.945755	-0.000032
C44	C	-0.451721	0.945013	-0.000033
C45	C	-0.432409	0.881302	-0.000025
C46	C	-0.382003	0.880568	-0.000004
N47	N	-0.362688	0.816861	-0.000004
C48	C	-0.393790	0.753891	-0.000003
C49	C	-0.840792	0.887272	-0.000028
C50	C	-0.891208	0.888010	-0.000027
C51	C	-0.902995	0.761327	-0.000026
C52	C	-0.852577	0.760591	-0.000021
C53	C	-0.821476	0.823565	-0.000028
C54	C	-0.287916	0.752350	0.000011
C55	C	-0.237497	0.751619	0.000020
C56	C	-0.225714	0.878301	0.000015
C57	C	-0.276129	0.879032	0.000009
C58	C	-0.307229	0.816051	0.000005
O59	O	-0.350880	0.934023	0.000020
O60	O	-0.372724	0.699644	-0.000012
C61	C	-0.595449	0.756836	-0.000022
C62	C	-0.614762	0.820542	-0.000029
C63	C	-0.583660	0.883512	-0.000029
C64	C	-0.665178	0.821279	-0.000028
C65	C	-0.696280	0.758310	-0.000028
C66	C	-0.676964	0.694602	-0.000028
C67	C	-0.626550	0.693866	-0.000022
C68	C	-0.602975	0.947219	-0.000029
C69	C	-0.653390	0.947950	-0.000035
C70	C	-0.684491	0.884980	-0.000034
C71	C	0.024033	0.825834	-0.000014
C72	C	0.077690	0.825040	-0.000027
C73	C	-0.060545	0.946845	-0.000004
C74	C	-0.061330	1.023944	-0.000009
N75	N	-0.064347	0.819793	0.178155
N76	N	-0.064354	0.819841	-0.178156
C77	C	-0.031398	0.867382	0.217537
C78	C	-0.031396	0.867386	0.296339
C79	C	-0.064351	0.819807	0.335756
C80	C	-0.097302	0.772209	0.296364
C81	C	-0.097300	0.772202	0.217564
C82	C	-0.108393	0.810234	0.460600
C83	C	-0.108396	0.810246	0.539399
C84	C	-0.064356	0.819826	0.578802
C85	C	-0.020312	0.829408	0.539397
C86	C	-0.020311	0.829401	0.460596
C87	C	-0.064356	0.819810	0.421201
C88	C	-0.031402	0.867422	0.703630
C89	C	-0.031400	0.867421	0.782433
C90	C	-0.097310	0.772248	0.782457
C91	C	-0.097309	0.772245	0.703655
C92	C	-0.064355	0.819836	0.664246
H93	H	-0.142665	0.146209	0.000023
Cl94	Cl	-0.526406	1.025855	-0.000059
Cl95	Cl	0.012689	0.253188	0.098952
H96	H	-0.004568	0.906172	0.671541
Cl97	Cl	-0.141374	0.386441	-0.098981
Cl98	Cl	-0.166906	0.605231	0.000020
Cl99	Cl	-0.138736	0.712429	0.832005
H100	H	-0.003792	0.397674	0.079578
Cl101	Cl	-0.165237	0.441726	0.000035
Cl102	Cl	0.031967	0.644759	-0.000027
H103	H	-0.221776	0.699736	0.000030
H104	H	-0.669109	0.999835	-0.000035
H105	H	-0.313232	0.701064	0.000007
Cl106	Cl	-0.451037	0.611559	-0.000002
H107	H	0.017183	0.177984	-0.000028
Cl108	Cl	0.010029	0.927219	0.345855
H109	H	-0.124916	0.241947	-0.079564
H110	H	0.015549	0.837209	0.571477
H111	H	0.013962	0.493420	-0.000017
H112	H	-0.004566	0.906172	0.814498
H113	H	-0.124141	0.733496	0.671589
H114	H	0.018531	0.046560	-0.000039
H115	H	-0.124134	0.733469	0.328462
H116	H	-0.928327	0.710055	-0.000022
H117	H	-0.551040	0.641113	-0.000011
H118	H	0.015551	0.837202	0.428516
H119	H	-0.144258	0.802421	0.428524
H120	H	-0.836857	0.708712	-0.000012
H121	H	-0.906927	0.939890	-0.000022
Cl122	Cl	-0.563883	1.026390	-0.000027
H123	H	-0.815473	0.938557	-0.000032
Cl124	Cl	-0.160670	-0.005129	0.000017
H125	H	-0.426401	0.996295	-0.000042
H126	H	-0.144259	0.802448	0.571477
H127	H	-0.291854	0.930911	0.000014
Cl128	Cl	0.010030	0.927206	0.167994
H129	H	-0.200383	0.929569	0.000018
H130	H	-0.610831	0.641986	-0.000015
Cl131	Cl	-0.138725	0.712371	0.168052
H132	H	-0.702296	0.643330	-0.000023
