data_functionalizedCrystal
_audit_creation_method	'MofGen! by Chris Wilmer'
_symmetry_space_group_name_H-M	'P1'
_symmetry_Int_Tables_number	1
_symmetry_cell_setting	triclinic
loop_
_symmetry_equiv_pos_as_xyz
  x,y,z
_cell_length_a	13.897449
_cell_length_b	12.759399
_cell_length_c	12.759393
_cell_angle_alpha	90.031532
_cell_angle_beta	90.023713
_cell_angle_gamma	90.024260
loop_
_atom_site_label
_atom_site_type_symbol
_atom_site_fract_x
_atom_site_fract_y
_atom_site_fract_z
Zn1	Zn	-1.474666	0.418220	-0.594090
Zn2	Zn	-1.474538	0.593936	-0.418407
Zn3	Zn	-1.313352	0.418271	-0.418417
Zn4	Zn	-1.313318	0.593857	-0.594036
O5	O	-1.393968	0.506071	-0.506238
O6	O	-1.609630	0.441541	-0.570804
O7	O	-1.453118	0.570687	-0.271387
O8	O	-1.334819	0.271243	-0.441747
O9	O	-1.609537	0.570638	-0.441731
O10	O	-1.453335	0.271206	-0.570814
O11	O	-1.334695	0.441627	-0.271395
O12	O	-1.178366	0.441551	-0.441695
O13	O	-1.334759	0.570504	-0.741064
O14	O	-1.178341	0.570554	-0.570721
O15	O	-1.453301	0.441465	-0.741104
O16	O	-1.453084	0.740946	-0.441678
O17	O	-1.334636	0.740889	-0.570712
C18	C	-1.143354	0.506050	-0.506204
C19	C	-1.036140	0.506066	-0.506214
C20	C	-1.393869	0.779038	-0.506211
C21	C	-1.393914	0.895815	-0.506234
C22	C	-1.394041	0.505970	-0.780271
C23	C	-1.394071	0.505927	-0.897048
C24	C	-0.839845	0.506065	-0.506233
C25	C	-0.949078	0.506062	-0.506220
C26	C	-0.645561	0.506086	-0.506262
C27	C	-0.752775	0.506074	-0.506247
C28	C	-1.332221	0.950685	-0.573371
C29	C	-1.332266	1.060409	-0.573387
C30	C	-1.455705	1.060383	-0.439126
C31	C	-1.455655	0.950661	-0.439106
C32	C	-1.218559	1.210446	-0.610838
C33	C	-1.156874	1.265320	-0.677992
C34	C	-1.142001	1.229649	-0.780485
C35	C	-1.188825	1.139106	-0.815845
C36	C	-1.250517	1.084238	-0.748697
C37	C	-1.265372	1.119907	-0.646190
C38	C	-1.569363	0.800622	-0.401665
C39	C	-1.631061	0.745752	-0.334522
C40	C	-1.645944	0.781421	-0.232027
C41	C	-1.599137	0.871968	-0.196671
C42	C	-1.537440	0.926838	-0.263814
C43	C	-1.522554	0.891161	-0.366308
C44	C	-1.394060	1.232038	-0.506278
C45	C	-1.394010	1.115261	-0.506270
C46	C	-1.455801	0.438725	-0.951932
C47	C	-1.455817	0.438680	-1.061656
C48	C	-1.332372	0.573047	-1.061602
C49	C	-1.332352	0.573087	-0.951880
C50	C	-1.490368	0.314725	-1.211639
C51	C	-1.552113	0.247532	-1.266527
C52	C	-1.646233	0.231425	-1.230941
C53	C	-1.678629	0.282525	-1.140468
C54	C	-1.616890	0.349725	-1.085586
C55	C	-1.522756	0.365813	-1.121170
C56	C	-1.297810	0.697043	-0.801896
C57	C	-1.236075	0.764250	-0.747011
C58	C	-1.141953	0.780368	-0.782595
C59	C	-1.109561	0.729286	-0.873071
C60	C	-1.171296	0.662080	-0.927956
C61	C	-1.265417	0.645960	-0.892364
C62	C	-1.393952	0.506096	-0.233270
C63	C	-1.394108	0.505843	-0.116494
H64	H	-1.281947	0.906032	-0.628030
Cl65	Cl	-1.170137	1.094278	-0.944708
H66	H	-1.499328	1.000567	-0.235019
H67	H	-1.091775	1.274335	-0.835161
H68	H	-1.032920	0.742414	-0.902048
H69	H	-1.091692	0.835103	-0.737903
H70	H	-1.611260	0.901014	-0.113213
H71	H	-1.669176	0.672025	-0.363319
Cl72	Cl	-1.416129	0.676751	-0.757131
H73	H	-1.262461	0.805853	-0.673348
H74	H	-1.144914	0.620487	-1.001627
Cl75	Cl	-1.723518	0.712445	-0.147623
H76	H	-1.557234	0.771559	-0.485119
H77	H	-1.288641	1.010520	-0.777487
H78	H	-1.755275	0.269412	-1.111507
Cl79	Cl	-1.533387	0.354292	-0.883004
Cl80	Cl	-1.511387	0.183295	-1.380259
Cl81	Cl	-1.657606	0.413963	-0.971857
H82	H	-1.696506	0.176714	-1.275638
H83	H	-1.230653	1.239491	-0.527377
Cl84	Cl	-1.254791	0.657477	-1.130541
Cl85	Cl	-1.098008	1.379138	-0.633537
H86	H	-1.505973	1.105052	-0.384474
Cl87	Cl	-1.372035	0.334955	-1.256373
