data_functionalizedCrystal
_audit_creation_method	'MofGen! by Chris Wilmer'
_symmetry_space_group_name_H-M	'P1'
_symmetry_Int_Tables_number	1
_symmetry_cell_setting	triclinic
loop_
_symmetry_equiv_pos_as_xyz
  x,y,z
_cell_length_a	14.971507
_cell_length_b	8.140239
_cell_length_c	14.971494
_cell_angle_alpha	90.001802
_cell_angle_beta	96.379890
_cell_angle_gamma	89.996167
loop_
_atom_site_label
_atom_site_type_symbol
_atom_site_fract_x
_atom_site_fract_y
_atom_site_fract_z
O1	O	-1.186935	0.136649	0.116650
O2	O	-0.926537	0.136643	0.130589
O3	O	-1.063711	0.136642	-0.006580
O4	O	-1.049760	0.136649	0.253818
O5	O	-1.063704	-0.136585	-0.006581
O6	O	-0.926530	-0.136585	0.130587
O7	O	-1.186927	-0.136578	0.116648
Zn8	Zn	-1.056727	-0.179962	0.123618
Zn9	Zn	-1.056737	0.180027	0.123620
O10	O	-1.049753	-0.136578	0.253817
C11	C	-0.893209	0.000028	0.129962
C12	C	-0.793913	0.000026	0.128083
C13	C	-0.355633	0.000033	0.201500
C14	C	-0.448933	0.000043	0.203258
C15	C	-0.506150	0.000035	0.122666
C16	C	-0.470064	0.000034	0.040311
C17	C	-0.376765	0.000036	0.038554
C18	C	-0.664527	0.000025	0.043978
C19	C	-0.757832	0.000020	0.045735
C20	C	-0.736695	0.000032	0.208682
C21	C	-0.643396	0.000034	0.206925
C22	C	-0.607316	0.000030	0.124570
N23	N	-1.056727	-0.425644	0.123616
C24	C	-0.220255	0.000034	0.117275
C25	C	-0.319552	0.000028	0.119152
C26	C	-1.063082	0.000031	-0.039905
C27	C	-1.061209	0.000039	-0.139202
N28	N	-1.056744	0.425709	0.123615
C29	C	-1.060335	0.148977	-0.185846
C30	C	-1.058568	0.148979	-0.279145
C31	C	-1.057682	0.000041	-0.325799
C32	C	-1.058554	-0.148908	-0.279149
C33	C	-1.060314	-0.148909	-0.185850
C34	C	-1.054888	-0.148897	-0.473612
C35	C	-1.053130	-0.148898	-0.566917
C36	C	-1.053142	0.148990	-0.566907
C37	C	-1.054902	0.148990	-0.473608
C38	C	-1.055775	0.000040	-0.426964
C39	C	-1.050382	0.000037	0.287142
C40	C	-1.052256	0.000040	0.386439
H41	H	-0.766076	0.000034	0.275739
C42	C	-1.058836	0.443422	-0.269774
C43	C	-1.057657	0.312697	-0.330422
H44	H	-1.058291	0.544497	-0.301434
H45	H	-1.007394	0.437285	-0.226639
H46	H	-1.111633	0.437154	-0.240127
H47	H	-1.004857	0.318959	-0.360064
H48	H	-1.109105	0.318838	-0.373573
C49	C	-0.769359	0.000077	-0.115509
C50	C	-0.820728	0.000049	-0.042852
H51	H	-0.808190	0.000112	-0.170198
H52	H	-0.732533	-0.095201	-0.112821
H53	H	-0.732526	0.095360	-0.112789
H54	H	-0.857555	-0.095240	-0.045568
H55	H	-0.857569	0.095338	-0.045541
H56	H	-1.061013	-0.270189	-0.147872
C57	C	-0.284114	0.140493	-0.057952
C58	C	-0.337101	0.000030	-0.051966
H59	H	-0.259633	0.140497	-0.113841
H60	H	-0.236691	0.140486	-0.010212
H61	H	-0.320087	0.235758	-0.053879
H62	H	-0.301126	-0.095236	-0.056033
H63	H	-0.384530	0.000022	-0.099720
C64	C	-0.203230	0.000033	0.271163
C65	C	-0.292742	0.000040	0.290090
H66	H	-0.164407	0.000031	0.325857
H67	H	-0.192288	0.095303	0.237403
H68	H	-0.192285	-0.095259	0.237402
H69	H	-0.303689	0.095339	0.323845
H70	H	-0.303688	-0.095239	0.323864
H71	H	-1.055579	-0.270188	-0.435635
C72	C	-0.985467	0.321778	-0.070968
C73	C	-1.061291	0.312703	-0.134571
H74	H	-0.986055	0.422858	-0.039314
H75	H	-0.932676	0.315561	-0.100612
H76	H	-0.986257	0.233079	-0.029832
H77	H	-1.060498	0.401396	-0.175711
H78	H	-1.114096	0.318936	-0.104925
C79	C	-1.050434	0.281277	-0.709915
C80	C	-1.052175	0.312721	-0.618173
H81	H	-1.049834	0.382356	-0.741565
H82	H	-1.102258	0.220091	-0.731965
H83	H	-0.998019	0.220082	-0.718433
H84	H	-1.104593	0.373906	-0.609655
H85	H	-1.000346	0.373934	-0.596117
H86	H	-1.057827	-0.270176	-0.317141
C87	C	-0.974342	-0.321682	-0.661919
C88	C	-1.052172	-0.312595	-0.618219
H89	H	-0.973762	-0.422735	-0.693599
H90	H	-0.922912	-0.315537	-0.618770
H91	H	-0.973579	-0.232948	-0.703035
H92	H	-1.052931	-0.401322	-0.577097
H93	H	-1.103616	-0.318756	-0.661372
H94	H	-0.478305	0.000063	0.270314
H95	H	-0.596811	0.000030	0.272550
H96	H	-0.635154	0.000030	-0.023084
H97	H	-0.516658	0.000037	-0.025308
H98	H	-1.055630	0.270268	-0.435626
