data_functionalizedCrystal
_audit_creation_method	'MofGen! by Chris Wilmer'
_symmetry_space_group_name_H-M	'P1'
_symmetry_Int_Tables_number	1
_symmetry_cell_setting	triclinic
loop_
_symmetry_equiv_pos_as_xyz
  x,y,z
_cell_length_a	19.188930
_cell_length_b	19.188930
_cell_length_c	17.666332
_cell_angle_alpha	90.023234
_cell_angle_beta	89.988397
_cell_angle_gamma	96.855221
loop_
_atom_site_label
_atom_site_type_symbol
_atom_site_fract_x
_atom_site_fract_y
_atom_site_fract_z
O1	O	0.087169	-0.926150	-0.063200
O2	O	0.420502	-0.592816	0.270133
O3	O	0.753835	-0.259483	0.603467
O4	O	0.098903	-0.722838	-0.063149
O5	O	0.432236	-0.389505	0.270184
O6	O	0.765570	-0.056172	0.603517
O7	O	-0.008620	-0.830361	-0.063161
O8	O	0.324714	-0.497028	0.270172
O9	O	0.658047	-0.163694	0.603505
O10	O	0.194692	-0.818627	-0.063188
O11	O	0.528025	-0.485294	0.270145
O12	O	0.861358	-0.151960	0.603479
O13	O	-0.008625	-0.830342	0.062735
O14	O	0.324708	-0.497009	0.396069
O15	O	0.658041	-0.163676	0.729402
O16	O	0.098897	-0.722820	0.062747
O17	O	0.432231	-0.389486	0.396081
O18	O	0.765564	-0.056153	0.729414
O19	O	0.087163	-0.926131	0.062697
O20	O	0.420496	-0.592797	0.396030
O21	O	0.753830	-0.259464	0.729363
Cu22	Cu	0.093030	-0.824473	0.074217
Cu23	Cu	0.426363	-0.491140	0.407551
Cu24	Cu	0.759696	-0.157807	0.740884
Cu25	Cu	0.093036	-0.824496	-0.074670
Cu26	Cu	0.426370	-0.491162	0.258663
Cu27	Cu	0.759703	-0.157829	0.591997
O28	O	0.194686	-0.818608	0.062709
O29	O	0.528019	-0.485275	0.396042
O30	O	0.861353	-0.151941	0.729375
C31	C	0.098520	-0.696818	-0.000194
C32	C	0.431854	-0.363485	0.333139
C33	C	0.765187	-0.030151	0.666472
C34	C	0.097380	-0.619313	-0.000174
C35	C	0.430713	-0.285980	0.333159
C36	C	0.764046	0.047353	0.666492
C37	C	-0.034634	-0.829972	-0.000211
C38	C	0.298700	-0.496638	0.333123
C39	C	0.632033	-0.163305	0.666456
C40	C	-0.112138	-0.828831	-0.000204
C41	C	0.221195	-0.495498	0.333129
C42	C	0.554529	-0.162164	0.666463
C43	C	0.087546	-0.952151	-0.000260
C44	C	0.420879	-0.618818	0.333073
C45	C	0.754213	-0.285485	0.666407
C46	C	0.088687	-1.029656	-0.000285
C47	C	0.422020	-0.696322	0.333048
C48	C	0.755353	-0.362989	0.666382
C49	C	-0.157062	-0.891922	-0.000216
C50	C	0.176271	-0.558589	0.333117
C51	C	0.509605	-0.225255	0.666451
C52	C	-0.229886	-0.890850	-0.000228
C53	C	0.103448	-0.557517	0.333105
C54	C	0.436781	-0.224184	0.666439
C55	C	-0.257782	-0.826684	-0.000212
C56	C	0.075551	-0.493351	0.333121
C57	C	0.408884	-0.160017	0.666454
C58	C	-0.212849	-0.763585	-0.000205
C59	C	0.120485	-0.430252	0.333129
C60	C	0.453818	-0.096918	0.666462
C61	C	-0.140026	-0.764658	-0.000200
C62	C	0.193307	-0.431325	0.333133
C63	C	0.526640	-0.097992	0.666466
N64	N	-0.365789	-0.777630	0.042645
N65	N	-0.032456	-0.444297	0.375978
N66	N	0.300877	-0.110964	0.709311
N67	N	-0.434968	-0.776615	0.042642
N68	N	-0.101635	-0.443282	0.375976
N69	N	0.231699	-0.109948	0.709309
C70	C	-0.477191	-0.823446	-0.000227
C71	C	-0.143858	-0.490113	0.333106
C72	C	0.189476	-0.156779	0.666440
N73	N	-0.447624	-0.871341	-0.043084
N74	N	-0.114290	-0.538008	0.290249
N75	N	0.219043	-0.204675	0.623582
N76	N	-0.378439	-0.872359	-0.043079
N77	N	-0.045106	-0.539026	0.290255
N78	N	0.288228	-0.205692	0.623588
C79	C	-0.336745	-0.825513	-0.000218
C80	C	-0.003412	-0.492180	0.333116
C81	C	0.329922	-0.158846	0.666449
C82	C	-0.601079	-0.885379	-0.000253
C83	C	-0.267746	-0.552046	0.333080
C84	C	0.065587	-0.218712	0.666414
C85	C	-0.673904	-0.884305	-0.000270
C86	C	-0.340571	-0.550971	0.333064
C87	C	-0.007238	-0.217638	0.666397
C88	C	-0.656865	-0.757038	-0.000239
C89	C	-0.323532	-0.423704	0.333095
C90	C	0.009801	-0.090371	0.666428
C91	C	-0.584042	-0.758114	-0.000230
C92	C	-0.250709	-0.424781	0.333104
C93	C	0.082624	-0.091447	0.666437
C94	C	-0.556154	-0.822287	-0.000233
C95	C	-0.222821	-0.488953	0.333100
C96	C	0.110513	-0.155620	0.666433
C97	C	0.220700	-0.818997	-0.000244
C98	C	0.554033	-0.485664	0.333090
C99	C	0.887366	-0.152331	0.666423
C100	C	0.298204	-0.820138	-0.000255
C101	C	0.631538	-0.486805	0.333078
C102	C	0.964871	-0.153471	0.666411
N103	N	0.093025	-0.824463	0.178937
N104	N	0.426358	-0.491130	0.512270
N105	N	0.759691	-0.157796	0.845603
C106	C	0.160470	-0.574389	-0.000194
C107	C	0.493804	-0.241056	0.333139
C108	C	0.827137	0.092277	0.666472
C109	C	0.159399	-0.501566	-0.000203
C110	C	0.492732	-0.168232	0.333131
C111	C	0.826065	0.165101	0.666464
C112	C	0.095233	-0.473669	-0.000206
C113	C	0.428566	-0.140336	0.333128
C114	C	0.761899	0.192998	0.666461
C115	C	0.032133	-0.518603	-0.000181
C116	C	0.365467	-0.185270	0.333152
C117	C	0.698800	0.148064	0.666485
C118	C	0.033207	-0.591425	-0.000166
C119	C	0.366540	-0.258092	0.333168
C120	C	0.699874	0.075242	0.666501
N121	N	0.046188	-0.365695	-0.043078
N122	N	0.379521	-0.032362	0.290255
N123	N	0.712854	0.300971	0.623589
N124	N	0.045172	-0.296517	-0.043095
N125	N	0.378505	0.036817	0.290239
N126	N	0.711839	0.370150	0.623572
C127	C	0.091994	-0.254260	-0.000252
C128	C	0.425328	0.079073	0.333082
C129	C	0.758661	0.412406	0.666415
N130	N	0.139881	-0.283795	0.042599
N131	N	0.473215	0.049539	0.375932
N132	N	0.806548	0.382872	0.709266
N133	N	0.140899	-0.352979	0.042612
N134	N	0.474232	-0.019646	0.375946
N135	N	0.807565	0.313687	0.709279
C136	C	0.094062	-0.394707	-0.000222
C137	C	0.427395	-0.061373	0.333111
C138	C	0.760728	0.271960	0.666444
C139	C	0.153928	-0.130372	-0.000280
C140	C	0.487261	0.202961	0.333054
C141	C	0.820594	0.536295	0.666387
C142	C	0.152853	-0.057547	-0.000283
C143	C	0.486187	0.275786	0.333050
C144	C	0.819520	0.609119	0.666384
C145	C	0.025586	-0.074586	-0.000270
C146	C	0.358920	0.258747	0.333064
C147	C	0.692253	0.592081	0.666397
C148	C	0.026662	-0.147409	-0.000258
C149	C	0.359996	0.185924	0.333075
C150	C	0.693329	0.519257	0.666408
C151	C	0.090835	-0.175298	-0.000267
C152	C	0.424168	0.158036	0.333066
C153	C	0.757502	0.491369	0.666400
N154	N	0.093036	-0.824512	-0.179390
N155	N	0.426369	-0.491178	0.153944
N156	N	0.759703	-0.157845	0.487277
C157	C	0.045437	-0.872089	0.218541
C158	C	0.378770	-0.538756	0.551875
C159	C	0.712103	-0.205423	0.885208
C160	C	0.045433	-0.872093	0.297789
C161	C	0.378767	-0.538760	0.631122
C162	C	0.712100	-0.205427	0.964455
C163	C	0.093030	-0.824478	0.337429
C164	C	0.426363	-0.491144	0.670762
C165	C	0.759697	-0.157811	1.004096
C166	C	0.140621	-0.776842	0.297815
C167	C	0.473955	-0.443509	0.631148
C168	C	0.807288	-0.110176	0.964482
C169	C	0.140619	-0.776835	0.218569
C170	C	0.473952	-0.443502	0.551902
C171	C	0.807285	-0.110168	0.885236
N172	N	0.154837	-0.815401	0.461841
N173	N	0.488171	-0.482068	0.795174
N174	N	0.821504	-0.148735	1.128508
N175	N	0.154837	-0.815413	0.537121
N176	N	0.488171	-0.482079	0.870455
N177	N	0.821504	-0.148746	1.203788
C178	C	0.093040	-0.824496	0.576193
C179	C	0.426373	-0.491163	0.909526
C180	C	0.759706	-0.157829	1.242860
N181	N	0.031239	-0.833582	0.537140
N182	N	0.364573	-0.500248	0.870474
N183	N	0.697906	-0.166915	1.203807
N184	N	0.031240	-0.833574	0.461853
N185	N	0.364573	-0.500241	0.795186
N186	N	0.697906	-0.166907	1.128520
C187	C	0.093038	-0.824480	0.423358
C188	C	0.426371	-0.491147	0.756691
C189	C	0.759704	-0.157813	1.090025
C190	C	0.045444	-0.872130	0.701727
C191	C	0.378777	-0.538796	1.035060
C192	C	0.712111	-0.205463	1.368393
C193	C	0.045440	-0.872129	0.780976
C194	C	0.378773	-0.538795	1.114309
C195	C	0.712106	-0.205462	1.447642
C196	C	0.140634	-0.776881	0.781000
C197	C	0.473967	-0.443548	1.114334
C198	C	0.807301	-0.110214	1.447667
C199	C	0.140632	-0.776878	0.701753
C200	C	0.473966	-0.443545	1.035086
C201	C	0.807299	-0.110212	1.368420
C202	C	0.093038	-0.824506	0.662121
C203	C	0.426371	-0.491173	0.995454
C204	C	0.759705	-0.157840	1.328787
H205	H	-0.134360	-0.944176	-0.000222
H206	H	0.198973	-0.610843	0.333112
H207	H	0.532306	-0.277509	0.666445
O208	O	0.191968	-0.725490	0.340560
O209	O	0.525302	-0.392156	0.673893
O210	O	0.858635	-0.058823	1.007226
H211	H	0.162670	-0.691653	0.376701
H212	H	0.496004	-0.358319	0.710034
H213	H	0.829337	-0.024986	1.043367
O214	O	-0.686947	-0.687830	-0.000217
O215	O	-0.353614	-0.354496	0.333116
O216	O	-0.020280	-0.021163	0.666449
H217	H	-0.668879	-0.657532	-0.051524
H218	H	-0.335545	-0.324198	0.281809
H219	H	-0.002212	0.009135	0.615142
H220	H	-0.266470	-0.942228	-0.000241
H221	H	0.066863	-0.608895	0.333092
H222	H	0.400197	-0.275561	0.666426
H223	H	0.179371	-0.738051	0.186322
H224	H	0.512705	-0.404718	0.519656
H225	H	0.846038	-0.071384	0.852989
O226	O	0.191960	-0.725510	0.659029
O227	O	0.525293	-0.392177	0.992362
O228	O	0.858627	-0.058844	1.325695
H229	H	0.225817	-0.754789	0.622892
H230	H	0.559151	-0.421456	0.956225
H231	H	0.892484	-0.088122	1.289559
O232	O	-0.242930	-0.694375	-0.000179
O233	O	0.090403	-0.361041	0.333154
O234	O	0.423736	-0.027708	0.666487
H235	H	-0.301116	-0.704227	-0.000174
H236	H	0.032217	-0.370894	0.333160
H237	H	0.365551	-0.037560	0.666493
H238	H	-0.103448	-0.713281	-0.000190
H239	H	0.229885	-0.379947	0.333143
H240	H	0.563218	-0.046614	0.666476
H241	H	-0.018171	-0.628003	-0.000150
H242	H	0.315162	-0.294670	0.333184
H243	H	0.648496	0.038664	0.666517
H244	H	-0.578372	-0.937632	-0.000259
H245	H	-0.245038	-0.604299	0.333074
H246	H	0.088295	-0.270966	0.666407
O247	O	-0.005891	-0.923497	0.823700
O248	O	0.327442	-0.590164	1.157033
O249	O	0.660776	-0.256830	1.490366
H250	H	0.023424	-0.957330	0.859785
H251	H	0.356757	-0.623997	1.193118
H252	H	0.690091	-0.290663	1.526452
H253	H	0.212725	-0.597091	-0.000203
H254	H	0.546058	-0.263758	0.333130
H255	H	0.879391	0.069576	0.666464
H256	H	-0.710481	-0.935683	-0.000284
H257	H	-0.377148	-0.602350	0.333050
H258	H	-0.043815	-0.269017	0.666383
O259	O	-0.535581	-0.690066	-0.000198
O260	O	-0.202248	-0.356733	0.333136
O261	O	0.131086	-0.023399	0.666469
H262	H	-0.567211	-0.645266	-0.000180
H263	H	-0.233878	-0.311932	0.333153
H264	H	0.099456	0.021401	0.666487
O265	O	0.227448	-0.453098	-0.000232
O266	O	0.560782	-0.119764	0.333101
O267	O	0.894115	0.213569	0.666434
H268	H	0.272251	-0.484725	-0.000241
H269	H	0.605584	-0.151392	0.333092
H270	H	0.938918	0.181942	0.666426
H271	H	0.204232	-0.020970	-0.000295
H272	H	0.537565	0.312363	0.333038
H273	H	0.870898	0.645697	0.666372
H274	H	-0.020111	-0.495885	-0.000194
H275	H	0.313222	-0.162552	0.333139
H276	H	0.646556	0.170782	0.666472
O277	O	-0.041386	-0.195871	-0.000243
O278	O	0.291948	0.137463	0.333090
O279	O	0.625281	0.470796	0.666423
H280	H	-0.086186	-0.164240	-0.000251
H281	H	0.247147	0.169093	0.333082
H282	H	0.580481	0.502426	0.666415
O283	O	0.223137	-0.160461	-0.000274
O284	O	0.556471	0.172872	0.333060
O285	O	0.889804	0.506206	0.666393
H286	H	0.266830	-0.116984	-0.000274
H287	H	0.600164	0.216349	0.333059
H288	H	0.933497	0.549682	0.666392
H289	H	-0.026659	-0.051874	-0.000319
H290	H	0.306674	0.281460	0.333014
H291	H	0.640008	0.614793	0.666348
H292	H	0.006681	-0.910869	0.186275
H293	H	0.340015	-0.577536	0.519608
H294	H	0.673348	-0.244202	0.852942
O295	O	-0.005888	-0.923470	0.340520
O296	O	0.327445	-0.590137	0.673854
O297	O	0.660779	-0.256804	1.007187
H298	H	-0.038979	-0.956591	0.299648
H299	H	0.294355	-0.623258	0.632981
H300	H	0.627688	-0.289924	0.966314
H301	H	0.006688	-0.910909	0.669457
H302	H	0.340021	-0.577576	1.002790
H303	H	0.673355	-0.244242	1.336124
O304	O	0.191974	-0.725523	0.823742
O305	O	0.525308	-0.392190	1.157075
O306	O	0.858641	-0.058856	1.490409
H307	H	0.183985	-0.733531	0.885501
H308	H	0.517319	-0.400198	1.218835
H309	H	0.850652	-0.066864	1.552168
