data_functionalizedCrystal
_audit_creation_method	'MofGen! by Chris Wilmer'
_symmetry_space_group_name_H-M	'P1'
_symmetry_Int_Tables_number	1
_symmetry_cell_setting	triclinic
loop_
_symmetry_equiv_pos_as_xyz
  x,y,z
_cell_length_a	23.532355
_cell_length_b	22.610064
_cell_length_c	17.699083
_cell_angle_alpha	90.003173
_cell_angle_beta	96.944743
_cell_angle_gamma	90.002356
loop_
_atom_site_label
_atom_site_type_symbol
_atom_site_fract_x
_atom_site_fract_y
_atom_site_fract_z
O1	O	0.755546	0.049105	-0.091680
O2	O	0.589717	0.049124	-0.105015
O3	O	0.677317	0.049109	0.011867
O4	O	0.667946	0.049121	-0.208562
O5	O	0.677301	-0.049260	0.011849
O6	O	0.589701	-0.049245	-0.105032
O7	O	0.755531	-0.049264	-0.091697
Zn8	Zn	0.672614	-0.064873	-0.098367
Zn9	Zn	0.672634	0.064733	-0.098345
O10	O	0.667931	-0.049249	-0.208579
C11	C	0.568492	-0.000058	-0.104690
C12	C	0.505270	-0.000051	-0.103688
C13	C	0.113230	-0.053697	-0.097401
C14	C	0.053828	-0.053699	-0.096447
O15	O	0.023100	-0.099301	-0.095936
N16	N	0.024126	-0.000078	-0.095965
C17	C	0.053831	0.053548	-0.096429
O18	O	0.023113	0.099157	-0.095931
C19	C	0.113232	0.053550	-0.097377
C20	C	0.142930	-0.000074	-0.097867
C21	C	0.142927	-0.107317	-0.097890
C22	C	0.202325	-0.107314	-0.098844
C23	C	0.232026	-0.053692	-0.099310
C24	C	0.202328	-0.000072	-0.098821
C25	C	0.142936	0.107176	-0.097835
C26	C	0.202342	0.107173	-0.098783
C27	C	0.232040	0.053549	-0.099272
C28	C	0.291426	0.053553	-0.100242
N29	N	0.321127	-0.000068	-0.100724
C30	C	0.291427	-0.053690	-0.100258
C31	C	-0.070917	0.053541	-0.094437
C32	C	-0.130318	0.053539	-0.093494
C33	C	-0.130317	-0.053708	-0.093511
C34	C	-0.070915	-0.053707	-0.094459
C35	C	-0.041215	-0.000080	-0.094919
C36	C	0.416167	-0.053681	-0.102264
C37	C	0.475570	-0.053673	-0.103222
C38	C	0.475564	0.053574	-0.103201
C39	C	0.416166	0.053567	-0.102247
C40	C	0.386469	-0.000065	-0.101776
O41	O	0.322191	0.099132	-0.100751
O42	O	0.322153	-0.099291	-0.100747
N43	N	0.672604	-0.153325	-0.098382
C44	C	0.711425	-0.561973	-0.046598
C45	C	0.711428	-0.623893	-0.046592
O46	O	0.744410	-0.655918	-0.002574
N47	N	0.672633	-0.654862	-0.098329
C48	C	0.633830	-0.623908	-0.150070
O49	O	0.600832	-0.655936	-0.194076
C50	C	0.633825	-0.561989	-0.150071
C51	C	0.672625	-0.531023	-0.098336
C52	C	0.750222	-0.531007	0.005134
C53	C	0.750220	-0.469092	0.005128
C54	C	0.711420	-0.438142	-0.046611
C55	C	0.672623	-0.469108	-0.098343
C56	C	0.595019	-0.531036	-0.201808
C57	C	0.595017	-0.469113	-0.201804
C58	C	0.633817	-0.438148	-0.150069
C59	C	0.633821	-0.376243	-0.150088
N60	N	0.672616	-0.345273	-0.098351
C61	C	0.711415	-0.376223	-0.046612
C62	C	0.633843	-0.753942	-0.150062
C63	C	0.633851	-0.815859	-0.150065
C64	C	0.711448	-0.815840	-0.046586
C65	C	0.711443	-0.753921	-0.046588
C66	C	0.672637	-0.722973	-0.098325
C67	C	0.711407	-0.246196	-0.046630
C68	C	0.711403	-0.184275	-0.046644
C69	C	0.633804	-0.184299	-0.150120
C70	C	0.633810	-0.246215	-0.150110
C71	C	0.672614	-0.277162	-0.098359
O72	O	0.600854	-0.344179	-0.194081
O73	O	0.744402	-0.344188	-0.002607
C74	C	0.776756	-0.000080	-0.092022
C75	C	0.839977	-0.000084	-0.093024
C76	C	0.676973	-0.000076	0.040053
C77	C	0.675966	-0.000076	0.124066
N78	N	0.672648	0.153185	-0.098324
C79	C	0.668274	-0.000063	-0.236765
C80	C	0.669282	-0.000059	-0.320778
C81	C	0.727385	-0.000082	0.172961
C82	C	0.726435	-0.000077	0.251899
C83	C	0.674066	-0.000069	0.281941
C84	C	0.622642	-0.000061	0.233040
C85	C	0.623593	-0.000062	0.154103
C86	C	0.618808	-0.000055	0.551383
C87	C	0.617862	-0.000056	0.630326
C88	C	0.721651	-0.000071	0.649178
C89	C	0.722601	-0.000072	0.570241
C90	C	0.671178	-0.000060	0.521348
C91	C	0.672209	-0.000065	0.435754
C92	C	0.673034	-0.000069	0.367533
H93	H	0.499756	0.097232	-0.103584
H94	H	0.768306	-0.000084	0.291706
H95	H	0.575214	-0.000051	0.654782
Cl96	Cl	0.378843	-0.121105	-0.101672
Cl97	Cl	0.239675	0.174593	-0.099359
Cl98	Cl	0.585059	-0.715041	-0.215117
H99	H	0.391984	0.097232	-0.101861
Cl100	Cl	0.760223	-0.854761	0.018458
Cl101	Cl	0.760185	-0.145349	0.018398
H102	H	0.118767	0.150843	-0.097435
Cl103	Cl	0.554162	-0.000039	0.489926
H104	H	0.226500	-0.150981	-0.099239
H105	H	0.602261	-0.841068	-0.192201
Cl106	Cl	0.788440	-0.000080	0.532479
H107	H	0.602221	-0.271428	-0.192244
H108	H	0.580002	-0.000051	0.257506
H109	H	0.581722	-0.000056	0.114293
H110	H	0.743004	-0.271386	-0.004489
Cl111	Cl	0.786298	-0.000083	0.710650
Cl112	Cl	0.512900	-0.121092	-0.103840
Cl113	Cl	0.793225	-0.000098	0.135202
Cl114	Cl	0.798995	-0.430170	0.070174
Cl115	Cl	0.546237	-0.569953	-0.266848
Cl116	Cl	0.546229	-0.430211	-0.266850
H117	H	0.118752	-0.150985	-0.097509
Cl118	Cl	-0.033587	-0.121122	-0.095072
Cl119	Cl	-0.167665	-0.121120	-0.092922
Cl120	Cl	-0.167646	0.120956	-0.092894
H121	H	0.781817	-0.556201	0.047269
Cl122	Cl	0.760221	-0.715000	0.018455
Cl123	Cl	0.585030	-0.145381	-0.215161
H124	H	-0.046739	0.097212	-0.094818
