data_functionalizedCrystal
_audit_creation_method	'MofGen! by Chris Wilmer'
_symmetry_space_group_name_H-M	'P1'
_symmetry_Int_Tables_number	1
_symmetry_cell_setting	triclinic
loop_
_symmetry_equiv_pos_as_xyz
  x,y,z
_cell_length_a	27.732048
_cell_length_b	14.421503
_cell_length_c	15.944493
_cell_angle_alpha	90.010165
_cell_angle_beta	83.058849
_cell_angle_gamma	89.997938
loop_
_atom_site_label
_atom_site_type_symbol
_atom_site_fract_x
_atom_site_fract_y
_atom_site_fract_z
O1	O	0.641351	-0.076981	0.099936
O2	O	1.141351	0.423019	0.599936
O3	O	0.500621	-0.077007	0.115133
O4	O	1.000621	0.422993	0.615133
O5	O	0.574844	-0.077001	-0.014794
O6	O	1.074844	0.422999	0.485206
O7	O	0.567129	-0.076987	0.229863
O8	O	1.067129	0.423013	0.729863
O9	O	0.574832	0.077222	-0.014775
O10	O	1.074832	0.577222	0.485225
O11	O	0.500609	0.077216	0.115152
O12	O	1.000609	0.577216	0.615152
O13	O	0.641339	0.077242	0.099955
O14	O	1.141339	0.577242	0.599955
Cu15	Cu	0.570973	0.091311	0.107555
Cu16	Cu	1.070973	0.591311	0.607555
Cu17	Cu	0.570987	-0.091076	0.107533
Cu18	Cu	1.070987	0.408924	0.607533
O19	O	0.567116	0.077236	0.229882
O20	O	1.067116	0.577236	0.729882
C21	C	0.482607	0.000101	0.114824
C22	C	0.982607	0.500101	0.614824
C23	C	0.428948	0.000090	0.113863
C24	C	0.928948	0.500090	0.613863
N25	N	0.570966	0.219592	0.107571
N26	N	1.070966	0.719592	0.607571
N27	N	0.570998	-0.219357	0.107510
N28	N	1.070998	0.280643	0.607510
C29	C	0.090431	0.000134	0.184594
C30	C	0.590431	0.500134	0.684594
C31	C	-0.111244	0.000142	0.181030
C32	C	0.388756	0.500142	0.681030
O33	O	-0.142227	0.000186	0.245709
O34	O	0.357773	0.500186	0.745709
N35	N	-0.130692	0.000136	0.103989
N36	N	0.369308	0.500136	0.603989
C37	C	-0.099718	0.000134	0.027833
C38	C	0.400282	0.500134	0.527833
O39	O	-0.120887	0.000139	-0.037777
O40	O	0.379113	0.500139	0.462223
C41	C	0.101956	0.000133	0.031398
C42	C	0.601956	0.500133	0.531398
C43	C	0.121401	0.000129	0.108444
C44	C	0.621401	0.500129	0.608444
C45	C	0.109877	0.000132	0.261634
C46	C	0.609877	0.500132	0.761634
C47	C	0.160292	0.000125	0.262524
C48	C	0.660292	0.500125	0.762524
C49	C	0.191262	0.000120	0.186374
C50	C	0.691262	0.500120	0.686374
C51	C	0.171817	0.000122	0.109334
C52	C	0.671817	0.500122	0.609334
C53	C	0.132929	0.000137	-0.044757
C54	C	0.632929	0.500137	0.455243
C55	C	0.183350	0.000139	-0.043859
C56	C	0.683350	0.500139	0.456141
C57	C	0.202795	0.000136	0.033187
C58	C	0.702795	0.500136	0.533187
C59	C	0.253202	0.000111	0.034074
C60	C	0.753202	0.500111	0.534074
N61	N	0.272650	0.000117	0.111116
N62	N	0.772650	0.500117	0.611116
C63	C	0.241680	0.000121	0.187266
C64	C	0.741680	0.500121	0.687266
C65	C	-0.205600	0.000133	0.025967
C66	C	0.294400	0.500133	0.525967
C67	C	-0.256018	0.000132	0.025075
C68	C	0.243982	0.500132	0.525075
C69	C	-0.267540	0.000142	0.178273
C70	C	0.232460	0.500142	0.678273
C71	C	-0.217121	0.000136	0.179163
C72	C	0.282879	0.500136	0.679163
C73	C	-0.186152	0.000139	0.103008
C74	C	0.313848	0.500139	0.603008
C75	C	0.347558	0.000106	0.189129
C76	C	0.847558	0.500106	0.689129
C77	C	0.397978	0.000095	0.190013
C78	C	0.897978	0.500095	0.690013
C79	C	0.409496	0.000090	0.036816
C80	C	0.909496	0.500090	0.536816
C81	C	0.359080	0.000096	0.035932
C82	C	0.859080	0.500096	0.535932
C83	C	0.328111	0.000107	0.112096
C84	C	0.828111	0.500107	0.612096
O85	O	0.284214	0.000077	-0.030569
O86	O	0.784214	0.500077	0.469431
O87	O	0.262859	0.000137	0.252866
O88	O	0.762859	0.500137	0.752866
C89	C	0.040015	0.000141	0.183704
C90	C	0.540015	0.500141	0.683704
C91	C	0.020570	0.000144	0.106664
C92	C	0.520570	0.500144	0.606664
C93	C	0.051540	0.000139	0.030514
C94	C	0.551540	0.500139	0.530514
C95	C	-0.029849	0.000142	0.105772
C96	C	0.470151	0.500142	0.605772
C97	C	-0.060819	0.000147	0.181922
C98	C	0.439181	0.500147	0.681922
C99	C	-0.041370	0.000153	0.258964
C100	C	0.458630	0.500153	0.758964
C101	C	0.009045	0.000146	0.259854
C102	C	0.509045	0.500146	0.759854
C103	C	0.032091	0.000133	-0.046528
C104	C	0.532091	0.500133	0.453472
C105	C	-0.018325	0.000139	-0.047412
C106	C	0.481675	0.500139	0.452588
C107	C	-0.049295	0.000144	0.028738
C108	C	0.450705	0.500144	0.528738
C109	C	0.659353	0.000132	0.100264
C110	C	1.159353	0.500132	0.600264
C111	C	0.713012	0.000137	0.101225
C112	C	1.213012	0.500137	0.601225
C113	C	0.574522	0.000106	-0.046075
C114	C	1.074522	0.500106	0.453925
C115	C	0.573577	0.000094	-0.139311
C116	C	1.073577	0.500094	0.360689
C117	C	0.536640	0.469243	0.167623
C118	C	1.036640	0.969243	0.667623
C119	C	0.580315	0.531055	0.183359
C120	C	1.080315	1.031055	0.683359
C121	C	0.570978	0.408754	0.107551
C122	C	1.070978	0.908754	0.607551
C123	C	0.527314	0.531035	0.091834
C124	C	1.027314	1.031035	0.591834
C125	C	0.570985	0.591475	0.107533
C126	C	1.070985	1.091475	0.607533
C127	C	0.614675	0.469205	0.123325
C128	C	1.114675	0.969205	0.623325
C129	C	0.561645	0.469180	0.031767
C130	C	1.061645	0.969180	0.531767
C131	C	0.605352	0.530964	0.047471
C132	C	1.105352	1.030964	0.547471
C133	C	0.570973	0.303492	0.107563
C134	C	1.070973	0.803492	0.607563
C135	C	0.570995	0.696734	0.107520
C136	C	1.070995	1.196734	0.607520
C137	C	0.617266	0.000120	-0.375643
C138	C	1.117266	0.500120	0.124357
C139	C	0.593712	-0.075924	-0.425912
C140	C	1.093712	0.424076	0.074088
C141	C	0.571825	0.000105	-0.310010
C142	C	1.071825	0.500105	0.189990
C143	C	0.593689	0.076128	-0.425869
C144	C	1.093689	0.576128	0.074131
C145	C	0.570137	0.000120	-0.474897
C146	C	1.070137	0.500120	0.025103
C147	C	0.548284	-0.076001	-0.359051
C148	C	1.048284	0.423999	0.140949
C149	C	0.548268	0.076119	-0.359005
C150	C	1.048268	0.576119	0.140995
C151	C	0.524681	0.000056	-0.409241
C152	C	1.024681	0.500056	0.090759
C153	C	0.572799	0.000096	-0.215022
C154	C	1.072799	0.500096	0.284978
C155	C	0.569159	0.000123	-0.569881
C156	C	1.069159	0.500123	-0.069881
C157	C	0.567438	0.000126	0.261163
C158	C	1.067438	0.500126	0.761163
C159	C	0.568383	0.000132	0.354400
C160	C	1.068383	0.500132	0.854400
H161	H	0.413807	0.000092	0.252756
H162	H	0.913807	0.500092	0.752756
Cl163	Cl	0.448439	0.000088	-0.058910
Cl164	Cl	0.948439	0.500088	0.441090
H165	H	0.084665	0.000139	0.323648
H166	H	0.584665	0.500139	0.823648
H167	H	0.529110	-0.140359	-0.329989
H168	H	1.029110	0.359641	0.170011
H169	H	0.588215	0.558233	0.247440
H170	H	1.088215	1.058233	0.747440
H171	H	0.024872	0.000145	0.322593
H172	H	0.524872	0.500145	0.822593
H173	H	0.485509	0.000007	-0.424194
H174	H	0.985509	0.500007	0.075806
Cl175	Cl	-0.192681	0.000135	0.276025
Cl176	Cl	0.307319	0.500135	0.776025
Cl177	Cl	0.518667	0.175373	-0.313869
Cl178	Cl	1.018667	0.675373	0.186131
H179	H	-0.271845	0.000120	-0.037664
H180	H	0.228155	0.500120	0.462336
Cl181	Cl	-0.166673	0.000134	-0.069782
Cl182	Cl	0.333327	0.500134	0.430218
H183	H	0.490385	0.558197	0.078548
H184	H	0.990385	1.058197	0.578548
H185	H	0.651612	0.442160	0.136688
H186	H	1.151612	0.942160	0.636688
H187	H	0.656407	0.000051	-0.360526
H188	H	1.156407	0.500051	0.139474
Cl189	Cl	0.108496	0.000126	-0.141622
Cl190	Cl	0.608496	0.500126	0.358378
Cl191	Cl	0.623347	-0.175171	-0.471006
Cl192	Cl	1.123347	0.324829	0.028994
Cl193	Cl	-0.306483	0.000151	0.274003
Cl194	Cl	0.193517	0.500151	0.774003
Cl195	Cl	0.623323	0.175381	-0.470910
Cl196	Cl	1.123323	0.675381	0.029090
Cl197	Cl	-0.080314	0.000155	0.354694
Cl198	Cl	0.419686	0.500155	0.854694
Cl199	Cl	0.549427	0.427181	-0.067138
Cl200	Cl	1.049427	0.927181	0.432862
Cl201	Cl	-0.042763	0.000131	-0.144280
Cl202	Cl	0.457237	0.500131	0.355720
H203	H	0.507630	0.442143	0.218463
H204	H	1.007630	0.942143	0.718463
Cl205	Cl	0.650238	0.572551	-0.030977
Cl206	Cl	1.150238	1.072551	0.469023
Cl207	Cl	0.184730	0.000127	0.359388
Cl208	Cl	0.684730	0.500127	0.859388
Cl209	Cl	0.308633	0.000118	0.284880
Cl210	Cl	0.808633	0.500118	0.784880
H211	H	0.208563	0.000143	-0.105876
H212	H	0.708563	0.500143	0.394124
H213	H	0.343247	0.000085	-0.026806
H214	H	0.843247	0.500085	0.473194
H215	H	0.057303	0.000131	-0.108540
H216	H	0.557303	0.500131	0.391460
