data_functionalizedCrystal
_audit_creation_method	'MofGen! by Chris Wilmer'
_symmetry_space_group_name_H-M	'P1'
_symmetry_Int_Tables_number	1
_symmetry_cell_setting	triclinic
loop_
_symmetry_equiv_pos_as_xyz
  x,y,z
_cell_length_a	14.853567
_cell_length_b	15.995350
_cell_length_c	13.330367
_cell_angle_alpha	89.997588
_cell_angle_beta	89.995418
_cell_angle_gamma	83.563653
loop_
_atom_site_label
_atom_site_type_symbol
_atom_site_fract_x
_atom_site_fract_y
_atom_site_fract_z
O1	O	1.196221	0.109317	-0.083349
O2	O	0.933744	0.122339	-0.083366
O3	O	1.072158	-0.006051	-0.083356
O4	O	1.057808	0.237707	-0.083359
O5	O	1.072138	-0.006054	0.083491
O6	O	0.933724	0.122336	0.083481
O7	O	1.196201	0.109314	0.083498
Cu8	Cu	1.064961	0.115825	0.098724
Cu9	Cu	1.064985	0.115828	-0.098592
O10	O	1.057788	0.237704	0.083488
C11	C	0.900146	0.121748	0.000056
C12	C	0.800065	0.119980	0.000049
C13	C	0.387644	0.036238	0.000072
C14	C	0.366158	0.188769	0.000070
C15	C	0.460189	0.190432	0.000067
C16	C	0.517953	0.114996	0.000065
C17	C	0.481685	0.037899	0.000066
C18	C	0.496464	0.267528	0.000055
C19	C	0.590501	0.269194	0.000051
C20	C	0.648266	0.193758	0.000056
C21	C	0.611993	0.116657	0.000059
C22	C	0.669757	0.041221	0.000057
C23	C	0.633485	-0.035880	0.000067
C24	C	0.539450	-0.037538	0.000072
C25	C	0.742302	0.195415	0.000051
C26	C	0.763797	0.042882	0.000051
C27	C	1.071555	-0.037248	0.000065
C28	C	1.069776	-0.130201	0.000060
C29	C	1.063389	-0.467956	0.000063
C30	C	0.964813	-0.420636	-0.000318
C31	C	0.966592	-0.323944	0.000058
C32	C	1.066557	-0.300391	0.000061
C33	C	1.115167	-0.341414	0.095340
C34	C	1.112690	-0.438053	0.095419
C35	C	1.114749	-0.438405	-0.094317
C36	C	1.114726	-0.341460	-0.095576
C37	C	1.068353	-0.205692	0.000063
C38	C	1.061596	-0.562655	0.000067
C39	C	1.229799	0.109906	0.000074
C40	C	1.329881	0.111674	0.000074
C41	C	1.058391	0.268901	0.000064
C42	C	1.060170	0.361854	0.000064
N43	N	1.064951	0.115822	0.237506
N44	N	1.065002	0.115825	-0.237374
C45	C	1.003693	0.172657	0.710124
C46	C	1.126301	0.058993	0.710101
C47	C	1.126291	0.058990	0.605082
C48	C	1.064982	0.115823	0.552580
C49	C	1.003682	0.172658	0.605096
C50	C	1.187595	0.002162	0.552559
C51	C	1.187588	0.002158	0.447534
C52	C	1.126274	0.058987	0.395030
C53	C	1.064971	0.115824	0.447552
C54	C	1.003662	0.172656	0.395050
C55	C	0.942354	0.229490	0.447570
C56	C	0.942368	0.229487	0.552592
C57	C	1.126260	0.058989	0.290008
C58	C	1.003652	0.172657	0.290022
H59	H	0.928381	-0.295565	-0.068242
H60	H	1.176180	0.012720	0.247250
C61	C	0.786304	0.278383	0.584976
C62	C	0.874986	0.291953	0.610329
H63	H	0.744709	0.316944	0.620630
H64	H	0.777522	0.286525	0.514925
H65	H	0.776535	0.222480	0.602195
H66	H	0.884758	0.347855	0.593103
H67	H	0.883772	0.283819	0.680395
H68	H	0.449427	0.328943	0.000046
C69	C	1.247479	-0.053373	0.699531
C70	C	1.193682	-0.003483	0.767807
H71	H	1.289078	-0.091944	0.735162
H72	H	1.209946	-0.083545	0.658578
H73	H	1.279909	-0.018461	0.658561
H74	H	1.161247	-0.038395	0.808773
H75	H	1.231220	0.026692	0.808778
C76	C	0.680768	-0.165377	-0.085709
C77	C	0.696987	-0.118797	0.000058
H78	H	0.719979	-0.216561	-0.085716
H79	H	0.619584	-0.177407	-0.085689
H80	H	0.691758	-0.133756	-0.143888
H81	H	0.685991	-0.150415	0.058237
H82	H	0.758186	-0.106769	0.000048
C83	C	0.847626	0.221550	0.742482
C84	C	0.936304	0.235123	0.767852
H85	H	0.806024	0.260110	0.778128
H86	H	0.838855	0.229689	0.672429
H87	H	0.837856	0.165646	0.759699
H88	H	0.946076	0.291025	0.750628
H89	H	0.945078	0.226990	0.837920
H90	H	0.358108	-0.026536	0.000084
C91	C	0.404843	-0.107806	0.000067
C92	C	0.499578	-0.122282	0.000071
H93	H	0.380227	-0.160124	0.000059
H94	H	0.385021	-0.076750	0.058248
H95	H	0.385032	-0.076737	-0.058119
H96	H	0.519389	-0.153345	0.058262
H97	H	0.519408	-0.153351	-0.058115
H98	H	1.237516	-0.044106	0.595309
H99	H	1.187625	-0.326013	-0.101327
C100	C	0.917488	-0.022306	0.000040
C101	C	0.827289	-0.040041	0.000050
H102	H	0.956683	-0.073500	0.000046
H103	H	0.928478	0.009295	-0.058143
H104	H	0.928476	0.009304	0.058224
H105	H	0.816299	-0.071645	-0.058138
H106	H	0.816295	-0.071655	0.058240
H107	H	0.925580	-0.440277	0.067623
C108	C	0.559806	0.419801	0.000058
C109	C	0.630366	0.353941	0.000053
H110	H	0.584421	0.472119	0.000069
H111	H	0.523584	0.415985	-0.058123
H112	H	0.523570	0.415970	0.058244
H113	H	0.666599	0.357769	-0.058137
H114	H	0.666604	0.357759	0.058241
C115	C	0.881820	-0.350996	0.147637
C116	C	0.914657	-0.286383	0.092422
H117	H	0.849765	-0.327806	0.204666
H118	H	0.842268	-0.379087	0.106834
H119	H	0.931163	-0.389906	0.168872
H120	H	0.865314	-0.247476	0.071181
H121	H	0.954212	-0.258278	0.133233
H122	H	0.319121	0.250185	0.000063
C123	C	1.308780	-0.110203	0.458071
C124	C	1.254967	-0.060319	0.389808
H125	H	1.350370	-0.148778	0.422431
H126	H	1.341211	-0.075294	0.499017
H127	H	1.271250	-0.140379	0.499051
H128	H	1.292496	-0.030138	0.348833
H129	H	1.222533	-0.095233	0.348845
C130	C	0.966775	-0.504031	-0.150216
C131	C	0.911624	-0.445719	-0.092547
H132	H	0.933934	-0.519523	-0.207151
H133	H	1.018889	-0.479538	-0.171638
H134	H	0.984894	-0.552584	-0.110970
H135	H	0.893511	-0.397163	-0.131791
H136	H	0.859494	-0.470211	-0.071126
C137	C	1.220419	-0.531192	0.187884
C138	C	1.210385	-0.481478	0.101281
H139	H	1.280730	-0.558000	0.191504
H140	H	1.207977	-0.496687	0.245322
H141	H	1.179364	-0.572613	0.185549
H142	H	1.251436	-0.440053	0.103620
H143	H	1.222837	-0.515985	0.043828
C144	C	1.260544	-0.354530	0.014548
C145	C	1.214308	-0.322228	0.100135
H146	H	1.321748	-0.342679	0.017506
H147	H	1.258827	-0.413664	0.011701
H148	H	1.232420	-0.329143	-0.043608
H149	H	1.242428	-0.347620	0.158291
H150	H	1.216031	-0.263083	0.102992
H151	H	1.081388	-0.313073	0.166242
H152	H	1.077227	-0.456396	0.166640
C153	C	1.070398	-0.217579	-0.193306
C154	C	1.066819	-0.304658	-0.190735
H155	H	1.040825	-0.194857	-0.252055
H156	H	1.040954	-0.192505	-0.135714
H157	H	1.131845	-0.206319	-0.193910
H158	H	1.005371	-0.315917	-0.190124
H159	H	1.096261	-0.329739	-0.248342
C160	C	0.835588	0.285766	-0.085734
C161	C	0.782172	0.280156	0.000038
H162	H	0.860196	0.338087	-0.085741
H163	H	0.883442	0.241083	-0.085722
H164	H	0.799344	0.281945	-0.143909
H165	H	0.818418	0.283971	0.058214
H166	H	0.734312	0.324851	0.000036
H167	H	1.082529	-0.458981	-0.166533
H168	H	1.187429	-0.470081	-0.094956
H169	H	0.953723	0.218935	0.247280
C170	C	0.887911	0.279955	0.286582
C171	C	0.874964	0.291960	0.389852
H172	H	0.846304	0.318518	0.250949
H173	H	0.948068	0.289155	0.269373
H174	H	0.878125	0.224052	0.269386
H175	H	0.884756	0.347861	0.407049
H176	H	0.814792	0.282766	0.407068
