data_functionalizedCrystal
_audit_creation_method	'MofGen! by Chris Wilmer'
_symmetry_space_group_name_H-M	'P1'
_symmetry_Int_Tables_number	1
_symmetry_cell_setting	triclinic
loop_
_symmetry_equiv_pos_as_xyz
  x,y,z
_cell_length_a	14.044191
_cell_length_b	13.101039
_cell_length_c	11.026607
_cell_angle_alpha	94.101887
_cell_angle_beta	79.111103
_cell_angle_gamma	93.662449
loop_
_atom_site_label
_atom_site_type_symbol
_atom_site_fract_x
_atom_site_fract_y
_atom_site_fract_z
O1	O	1.312721	0.085157	-0.291867
O2	O	1.034916	0.085171	-0.281101
O3	O	1.150794	0.085161	-0.107338
O4	O	1.196843	0.085167	-0.465629
O5	O	1.142484	-0.085268	-0.119827
O6	O	1.026605	-0.085259	-0.293590
O7	O	1.304411	-0.085272	-0.304356
Zn8	Zn	1.164189	-0.112324	-0.300956
Zn9	Zn	1.175138	0.112223	-0.284501
O10	O	1.188533	-0.085263	-0.478119
C11	C	0.994642	-0.000042	-0.282636
C12	C	0.887020	-0.000037	-0.268588
N13	N	1.156723	-0.265572	-0.312187
C14	C	0.649350	-0.000046	-0.342534
C15	C	0.689983	-0.000046	-0.242927
C16	C	0.799625	-0.000041	-0.257208
C17	C	0.539699	-0.000051	-0.328255
C18	C	1.146568	-0.474614	-0.327478
C19	C	1.192762	-0.525494	-0.257973
C20	C	1.187112	-0.641812	-0.266482
C21	C	1.152217	-0.358286	-0.318971
C22	C	1.344684	-0.000057	-0.302821
C23	C	1.452307	-0.000055	-0.316868
C24	C	1.138144	-0.000052	-0.067452
C25	C	1.112820	-0.000047	0.070005
N26	N	1.182609	0.265471	-0.273261
C27	C	1.201183	-0.000047	-0.518005
C28	C	1.226507	-0.000045	-0.655461
C29	C	1.182744	-0.000049	0.136239
C30	C	1.156572	-0.000044	0.278307
H31	H	0.696904	-0.000042	-0.438529
C32	C	0.626417	0.000016	-0.115016
C33	C	0.528733	0.000044	-0.126089
C34	C	0.470146	0.000122	-0.008288
H35	H	0.636741	-0.059394	-0.075606
H36	H	0.642605	0.059479	-0.067010
H37	H	0.512551	-0.059412	-0.174076
H38	H	0.518379	0.059450	-0.165478
H39	H	0.486334	0.059584	0.039718
H40	H	0.480478	-0.059289	0.031113
H41	H	0.403862	0.000150	-0.015784
C42	C	1.050849	0.000017	0.342696
C43	C	0.991412	0.000043	0.254059
C44	C	0.894018	0.000113	0.313329
H45	H	1.035029	-0.059396	0.388520
H46	H	1.040918	0.059477	0.397192
H47	H	1.001338	-0.059411	0.199585
H48	H	1.007201	0.059451	0.208230
H49	H	0.884087	0.059573	0.367825
H50	H	0.878208	-0.059300	0.359152
H51	H	0.853679	0.000141	0.253200
H52	H	1.236555	-0.481695	-0.192080
H53	H	1.102779	-0.518408	-0.393369
H54	H	1.261985	-0.000059	0.087766
H55	H	1.305758	0.000028	0.296079
H56	H	1.033579	-0.000036	0.118477
