data_functionalizedCrystal
_audit_creation_method	'MofGen! by Chris Wilmer'
_symmetry_space_group_name_H-M	'P1'
_symmetry_Int_Tables_number	1
_symmetry_cell_setting	triclinic
loop_
_symmetry_equiv_pos_as_xyz
  x,y,z
_cell_length_a	27.354012
_cell_length_b	27.353283
_cell_length_c	27.349551
_cell_angle_alpha	60.005606
_cell_angle_beta	60.011434
_cell_angle_gamma	59.993282
loop_
_atom_site_label
_atom_site_type_symbol
_atom_site_fract_x
_atom_site_fract_y
_atom_site_fract_z
O1	O	0.067635	-0.714267	0.597330
O2	O	0.567635	-0.214267	1.097330
O3	O	0.025429	-0.556105	0.481282
O4	O	0.525429	-0.056105	0.981282
O5	O	0.125575	-0.656186	0.481214
O6	O	0.625575	-0.156186	0.981214
O7	O	-0.032512	-0.614186	0.597397
O8	O	0.467488	-0.114186	1.097397
O9	O	0.158797	-0.622968	0.514367
O10	O	0.658797	-0.122968	1.014367
O11	O	0.058650	-0.522887	0.514434
O12	O	0.558650	-0.022887	1.014434
O13	O	0.100856	-0.681048	0.630482
O14	O	0.600856	-0.181048	1.130482
Zn15	Zn	0.085028	-0.596693	0.577722
Zn16	Zn	0.585028	-0.096693	1.077722
Zn17	Zn	0.041257	-0.640460	0.534042
Zn18	Zn	0.541257	-0.140460	1.034042
O19	O	0.000709	-0.580967	0.630549
O20	O	0.500709	-0.080967	1.130549
N21	N	0.114901	-0.566828	0.607534
N22	N	0.614901	-0.066828	1.107534
N23	N	0.011389	-0.670331	0.504229
N24	N	0.511389	-0.170331	1.004229
C25	C	0.179404	-0.338196	0.672015
C26	C	0.679404	0.161804	1.172015
C27	C	0.179501	-0.502386	0.836160
C28	C	0.679501	-0.002386	1.336160
C29	C	0.179415	-0.502363	0.671996
C30	C	0.679415	-0.002363	1.171996
C31	C	0.343611	-0.502373	0.671960
C32	C	0.843611	-0.002373	1.171960
C33	C	0.197478	-0.392371	0.690061
C34	C	0.697478	0.107629	1.190061
C35	C	0.197534	-0.484321	0.781984
C36	C	0.697534	0.015679	1.281984
C37	C	0.289434	-0.484312	0.690032
C38	C	0.789434	0.015688	1.190032
C39	C	0.197486	-0.484308	0.690051
C40	C	0.697486	0.015692	1.190051
C41	C	0.156398	-0.269238	0.649045
C42	C	0.656398	0.230762	1.149045
C43	C	0.156418	-0.525342	0.649015
C44	C	0.656418	-0.025342	1.149015
C45	C	0.220484	-0.461329	0.713032
C46	C	0.720484	0.038671	1.213032
C47	C	0.443889	-0.485097	0.619172
C48	C	0.943889	0.014903	1.119172
C49	C	0.506571	-0.505993	0.598266
C50	C	1.006571	-0.005993	1.098266
C51	C	0.506589	-0.607412	0.636940
C52	C	1.006589	-0.107412	1.136940
C53	C	0.443909	-0.586515	0.657848
C54	C	0.943909	-0.086515	1.157848
C55	C	0.171510	-0.237888	0.587422
C56	C	0.671510	0.262112	1.087422
C57	C	0.150593	-0.175201	0.566543
C58	C	0.650593	0.324799	1.066543
C59	C	0.099458	-0.175218	0.668913
C60	C	0.599458	0.324782	1.168913
C61	C	0.120375	-0.237905	0.689792
C62	C	0.620375	0.262095	1.189792
C63	C	0.094789	-0.510201	0.664176
C64	C	0.594789	-0.010201	1.164176
C65	C	0.073888	-0.531091	0.643278
C66	C	0.573888	-0.031091	1.143278
C67	C	0.176239	-0.582263	0.592072
C68	C	0.676239	-0.082263	1.092072
C69	C	0.197142	-0.561373	0.612963
C70	C	0.697142	-0.061373	1.112963
C71	C	0.094933	-0.510244	0.936476
C72	C	0.594933	-0.010244	1.436476
C73	C	0.074073	-0.531151	0.999161
C74	C	0.574073	-0.031151	1.499161
C75	C	0.176453	-0.582335	0.999126
C76	C	0.676453	-0.082335	1.499126
C77	C	0.197312	-0.561429	0.936439
C78	C	0.697312	-0.061429	1.436439
C79	C	0.156551	-0.525382	0.905116
C80	C	0.656551	-0.025382	1.405116
C81	C	0.412561	-0.525357	0.648961
C82	C	0.912561	-0.025357	1.148961
C83	C	-0.098513	-0.688235	0.485867
C84	C	0.401487	-0.188235	0.985867
C85	C	-0.006461	-0.688368	0.394066
C86	C	0.493539	-0.188368	0.894066
C87	C	-0.006645	-0.780264	0.486040
C88	C	0.493355	-0.280264	0.986040
C89	C	-0.006630	-0.688361	0.486097
C90	C	0.493370	-0.188361	0.986097
C91	C	-0.029562	-0.711308	0.463018
C92	C	0.470438	-0.211308	0.963018
N93	N	0.537030	-0.566846	0.607436
N94	N	1.037030	-0.066846	1.107436
O95	O	0.741877	-0.576849	0.459995
O96	O	1.241877	-0.076849	0.959995
O97	O	0.742050	-0.693241	0.618010
O98	O	1.242050	-0.193241	1.118010
O99	O	0.741986	-0.692977	0.517791
O100	O	1.241986	-0.192977	1.017791
O101	O	0.741941	-0.577114	0.560214
O102	O	1.241941	-0.077114	1.060214
O103	O	0.642405	-0.659839	0.551046
O104	O	1.142405	-0.159839	1.051046
O105	O	0.642469	-0.660104	0.651265
O106	O	1.142469	-0.160104	1.151265
O107	O	0.642296	-0.543712	0.493251
O108	O	1.142296	-0.043712	0.993251
Zn109	Zn	0.626572	-0.596646	0.577538
Zn110	Zn	1.126572	-0.096646	1.077538
Zn111	Zn	0.757774	-0.640307	0.533723
Zn112	Zn	1.257774	-0.140307	1.033723
O113	O	0.642360	-0.543976	0.593469
O114	O	1.142360	-0.043976	1.093469
N115	N	0.847316	-0.670107	0.503818
N116	N	1.347316	-0.170107	1.003818
N117	N	0.114877	-0.144758	0.607577
N118	N	0.614877	0.355242	1.107577
O119	O	-0.032498	0.060193	0.597441
O120	O	0.467502	0.560193	1.097441
O121	O	0.125523	0.060193	0.481067
O122	O	0.625523	0.560193	0.981067
O123	O	0.025289	0.060179	0.481345
O124	O	0.525289	0.560179	0.981345
O125	O	0.067736	0.060207	0.597163
O126	O	0.567736	0.560207	1.097163
O127	O	0.058511	-0.039410	0.514543
O128	O	0.558511	0.460590	1.014543
O129	O	0.158745	-0.039397	0.514265
O130	O	0.658745	0.460603	1.014265
O131	O	0.000724	-0.039396	0.630638
O132	O	0.500724	0.460604	1.130638
Zn133	Zn	0.085009	-0.055208	0.577722
Zn134	Zn	0.585009	0.444792	1.077722
Zn135	Zn	0.041238	0.076005	0.533983
Zn136	Zn	0.541238	0.576005	1.033983
O137	O	0.100958	-0.039382	0.630360
O138	O	0.600958	0.460618	1.130360
N139	N	0.011362	0.165555	0.504130
N140	N	0.511362	0.665555	1.004130
N141	N	0.115121	-0.566884	1.029592
N142	N	0.615121	-0.066884	1.529592
O143	O	0.104990	-0.714248	1.234528
O144	O	0.604990	-0.214248	1.734528
O145	O	-0.011371	-0.556177	1.234539
O146	O	0.488629	-0.056177	1.734539
O147	O	-0.011103	-0.656395	1.234497
O148	O	0.488897	-0.156395	1.734497
O149	O	0.104722	-0.614030	1.234569
O150	O	0.604722	-0.114030	1.734569
O151	O	0.022090	-0.623190	1.134913
O152	O	0.522090	-0.123190	1.634913
O153	O	0.021822	-0.522972	1.134954
O154	O	0.521822	-0.022972	1.634954
O155	O	0.138182	-0.681044	1.134943
O156	O	0.638182	-0.181044	1.634943
Zn157	Zn	0.085272	-0.596736	1.119137
Zn158	Zn	0.585272	-0.096736	1.619137
Zn159	Zn	0.041539	-0.640484	1.250344
Zn160	Zn	0.541539	-0.140484	1.750344
O161	O	0.137914	-0.580826	1.134984
O162	O	0.637914	-0.080826	1.634984
N163	N	0.011689	-0.670343	1.339890
N164	N	0.511689	-0.170343	1.839890
C165	C	0.038085	-0.519567	0.481870
C166	C	0.538085	-0.019567	0.981870
C167	C	0.162104	-0.643505	0.481786
C168	C	0.662104	-0.143505	0.981786
C169	C	0.088200	-0.717587	0.629893
C170	C	0.588200	-0.217587	1.129893
C171	C	-0.035819	-0.593649	0.629977
C172	C	0.464181	-0.093649	1.129977
C173	C	0.692280	-0.692701	0.654545
C174	C	1.192280	-0.192701	1.154545
C175	C	0.692203	-0.692374	0.530435
C176	C	1.192203	-0.192374	1.030435
C177	C	0.692063	-0.544251	0.456717
C178	C	1.192063	-0.044251	0.956717
C179	C	0.692144	-0.544580	0.580825
C180	C	1.192144	-0.044580	1.080825
C181	C	0.162000	0.010521	0.481600
C182	C	0.662000	0.510521	0.981600
C183	C	0.037914	0.010381	0.481984
C184	C	0.537914	0.510381	0.981984
C185	C	-0.035795	0.010399	0.630065
C186	C	0.464205	0.510399	1.130065
C187	C	0.088333	0.010415	0.629722
C188	C	0.588333	0.510415	1.129722
C189	C	-0.010799	-0.519660	1.184747
C190	C	0.489201	-0.019660	1.684747
C191	C	-0.010461	-0.643761	1.184677
C192	C	0.489539	-0.143761	1.684677
C193	C	0.137610	-0.717561	1.184734
C194	C	0.637610	-0.217561	1.684734
C195	C	0.137280	-0.593452	1.184783
C196	C	0.637280	-0.093452	1.684783
H197	H	0.061737	-0.480889	0.910978
H198	H	0.561737	0.019111	1.410978
O199	O	0.180677	-0.582708	1.184905
O200	O	0.680677	-0.082708	1.684905
C201	C	0.196805	-0.623770	1.236475
C202	C	0.696805	-0.123770	1.736475
H203	H	0.158448	-0.641315	1.272514
H204	H	0.658448	-0.141315	1.772514
H205	H	0.206508	-0.600441	1.253800
H206	H	0.706508	-0.100441	1.753800
H207	H	0.238499	-0.662757	1.224811
H208	H	0.738499	-0.162757	1.724811
O209	O	0.692362	-0.736238	0.708708
O210	O	1.192362	-0.236238	1.208708
C211	C	0.692354	-0.714673	0.745980
C212	C	1.192354	-0.214673	1.245980
H213	H	0.711167	-0.676217	0.717193
H214	H	1.211167	-0.176217	1.217193
H215	H	0.721302	-0.752295	0.774646
H216	H	1.221302	-0.252295	1.274646
H217	H	0.644587	-0.698069	0.776239
H218	H	1.144587	-0.198069	1.276239
O219	O	0.692141	-0.735819	0.519707
O220	O	1.192141	-0.235819	1.019707
C221	C	0.640594	-0.751953	0.560760
C222	C	1.140594	-0.251953	1.060760
H223	H	0.623419	-0.740028	0.602267
H224	H	1.123419	-0.240028	1.102267
H225	H	0.652231	-0.802188	0.574135
H226	H	1.152231	-0.302188	1.074135
H227	H	0.604451	-0.726691	0.539077
H228	H	1.104451	-0.226691	1.039077
O229	O	0.216267	-0.654279	0.438277
O230	O	0.716267	-0.154279	0.938277
C231	C	0.226968	-0.702728	0.424439
C232	C	0.726968	-0.202728	0.924439
H233	H	0.198982	-0.731492	0.464031
H234	H	0.698982	-0.231492	0.964031
H235	H	0.276466	-0.730934	0.414732
H236	H	0.776466	-0.230934	0.914732
H237	H	0.214109	-0.684936	0.383364
H238	H	0.714109	-0.184936	0.883364
H239	H	0.692005	-0.507708	0.411338
H240	H	1.192005	-0.007708	0.911338
O241	O	-0.090011	-0.582864	0.673449
O242	O	0.409989	-0.082864	1.173449
C243	C	-0.127220	-0.524030	0.651793
C244	C	0.372780	-0.024030	1.151793
H245	H	-0.098383	-0.495600	0.613340
H246	H	0.401617	0.004400	1.113340
H247	H	-0.155906	-0.503978	0.689367
H248	H	0.344094	-0.003978	1.189367
H249	H	-0.157459	-0.524938	0.635160
H250	H	0.342541	-0.024938	1.135160
O251	O	0.099038	-0.771830	0.673302
O252	O	0.599038	-0.271830	1.173302
C253	C	0.157887	-0.808971	0.651590
C254	C	0.657887	-0.308971	1.151590
H255	H	0.173687	-0.792656	0.600587
H256	H	0.673687	-0.292656	1.100587
H257	H	0.158697	-0.856967	0.669880
H258	H	0.658697	-0.356967	1.169880
H259	H	0.188862	-0.807325	0.666747
H260	H	0.688862	-0.307325	1.166747
H261	H	0.692134	-0.508185	0.589902
H262	H	1.192134	-0.008185	1.089902
O263	O	0.216052	0.010880	0.437957
O264	O	0.716052	0.510880	0.937957
C265	C	0.253293	0.010987	0.459471
C266	C	0.753293	0.510987	0.959471
H267	H	0.224490	0.029648	0.498046
H268	H	0.724490	0.529648	0.998046
H269	H	0.281749	0.040130	0.421874
H270	H	0.781749	0.540130	0.921874
H271	H	0.283755	-0.036727	0.475890
H272	H	0.783755	0.463273	0.975890
H273	H	-0.081177	0.010398	0.666600
H274	H	0.418823	0.510398	1.166600
O275	O	0.014196	-0.516358	1.029526
O276	O	0.514196	-0.016358	1.529526
C277	C	-0.017302	-0.480069	0.988433
C278	C	0.482698	0.019931	1.488433
H279	H	0.012578	-0.457280	0.943748
H280	H	0.512578	0.042720	1.443748
H281	H	-0.059129	-0.444602	1.006558
H282	H	0.440871	0.055398	1.506558
H283	H	-0.030825	-0.508980	0.981765
H284	H	0.469175	-0.008980	1.481765
O285	O	0.026994	0.010328	0.438656
O286	O	0.526994	0.510328	0.938656
C287	C	-0.031865	0.010331	0.460467
C288	C	0.468135	0.510331	0.960467
H289	H	-0.047610	-0.008501	0.511471
H290	H	0.452390	0.491499	1.011471
H291	H	-0.032727	-0.018607	0.442259
H292	H	0.467273	0.481393	0.942259
H293	H	-0.062854	0.058103	0.445308
H294	H	0.437146	0.558103	0.945308
H295	H	0.097420	0.010424	0.666105
H296	H	0.597420	0.510424	1.166105
H297	H	-0.047330	-0.474261	1.184750
H298	H	0.452670	0.025739	1.684750
H299	H	-0.046832	-0.652809	1.184615
H300	H	0.453168	-0.152809	1.684615
O301	O	0.027379	-0.465418	0.438312
O302	O	0.527379	0.034582	0.938312
C303	C	0.034034	-0.473233	0.387856
C304	C	0.534034	0.026767	0.887856
H305	H	0.064027	-0.520972	0.388411
H306	H	0.564027	-0.020972	0.888411
H307	H	0.055213	-0.440330	0.345336
H308	H	0.555213	0.059670	0.845336
H309	H	-0.011754	-0.464718	0.389023
H310	H	0.488246	0.035282	0.889023
H311	H	0.174144	-0.762957	1.184724
H312	H	0.674144	-0.262957	1.684724
H313	H	0.209648	-0.611676	1.024626
H314	H	0.709648	-0.111676	1.524626
O315	O	0.536949	-0.666842	0.645641
O316	O	1.036949	-0.166842	1.145641
C317	C	0.495856	-0.697895	0.676403
C318	C	0.995856	-0.197895	1.176403
H319	H	0.451179	-0.670549	0.702097
H320	H	0.951179	-0.170549	1.202097
H321	H	0.513988	-0.743100	0.709120
H322	H	1.013988	-0.243100	1.209120
H323	H	0.489172	-0.705148	0.642870
H324	H	0.989172	-0.205148	1.142870
O325	O	0.257185	-0.576240	0.906044
O326	O	0.757185	-0.076240	1.406044
C327	C	0.283232	-0.639026	0.921335
C328	C	0.783232	-0.139026	1.421335
H329	H	0.253531	-0.660968	0.966850
H330	H	0.753531	-0.160968	1.466850
H331	H	0.329345	-0.653680	0.923468
H332	H	0.829345	-0.153680	1.423468
H333	H	0.287882	-0.653202	0.886054
H334	H	0.787882	-0.153202	1.386054
O335	O	0.055148	-0.475181	0.699163
O336	O	0.555148	0.024819	1.199163
C337	C	-0.003728	-0.466306	0.708068
C338	C	0.496272	0.033694	1.208068
H339	H	-0.003634	-0.473303	0.670277
H340	H	0.496366	0.026697	1.170277
H341	H	-0.033492	-0.418763	0.708407
H342	H	0.466508	0.081237	1.208407
H343	H	-0.021668	-0.499673	0.752721
H344	H	0.478332	0.000327	1.252721
H345	H	0.023705	-0.518748	0.655609
H346	H	0.523705	-0.018748	1.155609
H347	H	0.209407	-0.611608	0.562721
H348	H	0.709407	-0.111608	1.062721
H349	H	0.247325	-0.573698	0.600612
H350	H	0.747325	-0.073698	1.100612
H351	H	0.418403	-0.619300	0.682106
H352	H	0.918403	-0.119300	1.182106
H353	H	0.532080	-0.473208	0.574011
H354	H	1.032080	0.026792	1.074011
H355	H	0.200842	-0.263395	0.554238
H356	H	0.700842	0.236605	1.054238
O357	O	0.413502	-0.425663	0.610438
O358	O	0.913502	0.074337	1.110438
C359	C	0.428783	-0.393322	0.548546
C360	C	0.928783	0.106678	1.048546
H361	H	0.474289	-0.420714	0.523858
H362	H	0.974289	0.079286	1.023858
H363	H	0.430925	-0.349133	0.540266
H364	H	0.930925	0.150867	1.040266
H365	H	0.393492	-0.383967	0.531468
H366	H	0.893492	0.116033	1.031468
O367	O	0.165243	-0.144808	0.506666
O368	O	0.665243	0.355192	1.006666
C369	C	0.143779	-0.160111	0.480643
C370	C	0.643779	0.339889	0.980643
H371	H	0.137658	-0.205630	0.510359
H372	H	0.637658	0.294370	1.010359
H373	H	0.177353	-0.162243	0.434528
H374	H	0.677353	0.337757	0.934528
H375	H	0.098970	-0.124834	0.475998
H376	H	0.598970	0.375166	0.975998
O377	O	0.064454	-0.144871	0.708574
O378	O	0.564454	0.355129	1.208574
C379	C	0.055623	-0.185986	0.767443
C380	C	0.555623	0.314014	1.267443
H381	H	0.062631	-0.230670	0.767329
H382	H	0.562631	0.269330	1.267329
H383	H	0.008092	-0.167881	0.797219
H384	H	0.508092	0.332119	1.297219
H385	H	0.089003	-0.192652	0.785386
H386	H	0.589003	0.307348	1.285386
H387	H	0.108067	-0.263426	0.739970
H388	H	0.608067	0.236574	1.239970
