data_functionalizedCrystal
_audit_creation_method	'MofGen! by Chris Wilmer'
_symmetry_space_group_name_H-M	'P1'
_symmetry_Int_Tables_number	1
_symmetry_cell_setting	triclinic
loop_
_symmetry_equiv_pos_as_xyz
  x,y,z
_cell_length_a	11.792241
_cell_length_b	19.188930
_cell_length_c	10.268362
_cell_angle_alpha	89.989600
_cell_angle_beta	89.999626
_cell_angle_gamma	83.669099
loop_
_atom_site_label
_atom_site_type_symbol
_atom_site_fract_x
_atom_site_fract_y
_atom_site_fract_z
O1	O	1.505476	0.095695	-0.108190
O2	O	1.174988	0.105558	-0.108222
O3	O	1.349769	-0.000975	-0.108179
O4	O	1.330695	0.202228	-0.108232
O5	O	1.349754	-0.000980	0.108421
O6	O	1.174973	0.105553	0.108379
O7	O	1.505461	0.095691	0.108411
Cu8	Cu	1.340216	0.100622	0.128172
Cu9	Cu	1.340233	0.100627	-0.127983
O10	O	1.330680	0.202224	0.108368
C11	C	1.132699	0.104936	0.000075
C12	C	1.006713	0.103082	0.000064
C13	C	0.776051	0.099672	0.000102
C14	C	0.904408	0.101566	0.000081
C15	C	1.349144	-0.026992	0.000125
C16	C	1.347290	-0.104507	0.000136
C17	C	1.449846	-0.148850	0.000152
C18	C	1.448104	-0.221684	0.000131
C19	C	1.343800	-0.250171	0.000120
C20	C	1.241230	-0.205818	0.000096
C21	C	1.242975	-0.132986	0.000104
N22	N	1.264067	-0.358629	0.073825
N23	N	1.262416	-0.427817	0.073820
C24	C	1.338536	-0.469609	0.000093
N25	N	1.416387	-0.439602	-0.073614
N26	N	1.418041	-0.370407	-0.073603
C27	C	1.341896	-0.329144	0.000110
C28	C	1.439211	-0.592928	0.000084
C29	C	1.437464	-0.665762	0.000055
C30	C	1.230588	-0.649895	0.000034
C31	C	1.232337	-0.577062	0.000050
C32	C	1.336652	-0.548583	0.000081
C33	C	1.547751	0.096313	0.000111
C34	C	1.673737	0.098167	0.000114
C35	C	1.331305	0.228240	0.000062
C36	C	1.333159	0.305755	0.000042
N37	N	1.340211	0.100617	0.308338
N38	N	1.340247	0.100625	-0.308149
C39	C	1.340228	0.100625	0.574009
C40	C	1.340215	0.100623	0.426171
H41	H	1.531620	-0.257795	0.000139
O42	O	1.143452	-0.089808	0.000038
C43	C	1.167360	-0.019417	0.000089
H44	H	1.256496	-0.016282	-0.040904
H45	H	1.162943	0.001612	0.104007
C46	C	0.969555	0.020983	-0.034511
C47	C	1.079030	0.024834	-0.084869
H48	H	0.915067	0.048281	-0.086911
H49	H	0.953446	-0.026440	-0.034540
H50	H	0.965891	0.038506	0.052086
H51	H	1.082697	0.007304	-0.171458
H52	H	1.095137	0.072256	-0.084856
O53	O	1.139981	-0.233570	-0.000086
C54	C	1.132781	-0.275199	-0.112284
H55	H	1.222329	-0.292992	-0.149672
H56	H	1.082417	-0.243208	-0.190843
C57	C	0.962002	-0.317997	-0.032300
C58	C	1.071987	-0.339856	-0.078213
H59	H	0.924496	-0.357879	-0.011286
H60	H	0.966849	-0.289949	0.043289
H61	H	0.920046	-0.291337	-0.097773
H62	H	1.113944	-0.366508	-0.012735
H63	H	1.067145	-0.367910	-0.153790
H64	H	1.534787	-0.125667	0.000173
O65	O	1.540635	-0.565373	0.000034
C66	C	1.630784	-0.620134	0.000058
H67	H	1.599216	-0.669721	-0.040955
H68	H	1.662406	-0.630333	0.103970
C69	C	1.767958	-0.538289	-0.034513
C70	C	1.729188	-0.599191	-0.084895
H71	H	1.828660	-0.525370	-0.086910
H72	H	1.707224	-0.501395	-0.034524
H73	H	1.794301	-0.546796	0.052080
H74	H	1.702832	-0.590680	-0.171480
H75	H	1.789920	-0.636083	-0.084901
O76	O	1.132637	-0.534055	-0.000123
C77	C	1.069305	-0.547000	-0.112326
H78	H	1.097452	-0.602131	-0.149731
H79	H	1.084629	-0.507098	-0.190871
C80	C	0.906831	-0.472856	-0.032319
C81	C	0.941395	-0.540571	-0.078255
H82	H	0.827930	-0.468887	-0.011306
H83	H	0.949500	-0.464132	0.043272
H84	H	0.919610	-0.439612	-0.097782
H85	H	0.928629	-0.573813	-0.012787
H86	H	0.898721	-0.549300	-0.153835
O87	O	1.537064	-0.708867	-0.000165
C88	C	1.542249	-0.751465	-0.112338
H89	H	1.484088	-0.725004	-0.190750
H90	H	1.513138	-0.804537	-0.086996
C91	C	1.737239	-0.794550	-0.066876
C92	C	1.665811	-0.762046	-0.163187
H93	H	1.813458	-0.801080	-0.098239
H94	H	1.733746	-0.765853	0.008700
H95	H	1.712966	-0.838773	-0.045765
H96	H	1.690076	-0.717821	-0.184283
H97	H	1.669312	-0.790736	-0.238768
H98	H	1.145661	-0.673089	0.000018
