data_functionalizedCrystal
_audit_creation_method	'MofGen! by Chris Wilmer'
_symmetry_space_group_name_H-M	'P1'
_symmetry_Int_Tables_number	1
_symmetry_cell_setting	triclinic
loop_
_symmetry_equiv_pos_as_xyz
  x,y,z
_cell_length_a	29.839131
_cell_length_b	29.839134
_cell_length_c	11.169409
_cell_angle_alpha	90.037706
_cell_angle_beta	89.959939
_cell_angle_gamma	89.966214
loop_
_atom_site_label
_atom_site_type_symbol
_atom_site_fract_x
_atom_site_fract_y
_atom_site_fract_z
Zn1	Zn	-0.178909	-0.686771	-0.679027
Zn2	Zn	-0.254050	-0.686688	-0.478316
Zn3	Zn	-0.178925	-0.611639	-0.478301
Zn4	Zn	-0.254002	-0.611602	-0.678901
O5	O	-0.216471	-0.649175	-0.578636
O6	O	-0.188889	-0.749627	-0.652461
O7	O	-0.244111	-0.676713	-0.310364
O8	O	-0.116055	-0.621656	-0.504974
O9	O	-0.244095	-0.749566	-0.505000
O10	O	-0.116044	-0.676855	-0.652446
O11	O	-0.188917	-0.621575	-0.310353
O12	O	-0.188871	-0.548767	-0.504852
O13	O	-0.244014	-0.621593	-0.846867
O14	O	-0.244030	-0.548740	-0.652232
O15	O	-0.188843	-0.676819	-0.846960
O16	O	-0.316911	-0.676678	-0.504878
O17	O	-0.316876	-0.621512	-0.652247
C18	C	-0.216447	-0.532453	-0.578527
C19	C	-0.216448	-0.482518	-0.578509
C20	C	-0.187704	-0.125933	-0.502010
C21	C	-0.187693	-0.313606	-0.501952
O22	O	-0.163218	-0.337872	-0.436824
N23	N	-0.216454	-0.337073	-0.578558
C24	C	-0.245218	-0.313619	-0.655189
O25	O	-0.269678	-0.337886	-0.720355
C26	C	-0.245227	-0.125947	-0.655252
C27	C	-0.216467	-0.102482	-0.578633
C28	C	-0.158946	-0.102468	-0.425397
C29	C	-0.158951	-0.055552	-0.425408
C30	C	-0.187714	-0.032102	-0.502031
C31	C	-0.216472	-0.055567	-0.578643
C32	C	-0.273989	-0.102494	-0.731889
C33	C	-0.273988	-0.055573	-0.731900
C34	C	-0.245228	-0.032108	-0.655280
C35	C	-0.245240	0.014799	-0.655277
N36	N	-0.216478	0.038267	-0.578671
C37	C	-0.187715	0.014816	-0.502048
C38	C	-0.245212	-0.412150	-0.655149
C39	C	-0.245211	-0.459068	-0.655132
C40	C	-0.187684	-0.459051	-0.501896
C41	C	-0.187689	-0.412132	-0.501908
C42	C	-0.216451	-0.388682	-0.578543
C43	C	-0.187728	0.113342	-0.502075
C44	C	-0.187737	0.160262	-0.502089
C45	C	-0.245261	0.160241	-0.655329
C46	C	-0.245254	0.113325	-0.655311
C47	C	-0.216484	0.089877	-0.578680
O48	O	-0.269698	0.039094	-0.720380
O49	O	-0.163252	0.039091	-0.436911
C50	C	-0.187699	-0.172848	-0.501999
C51	C	-0.216457	-0.196313	-0.578612
C52	C	-0.245220	-0.172862	-0.655234
C53	C	-0.216456	-0.243231	-0.578595
C54	C	-0.187693	-0.266681	-0.501972
C55	C	-0.158931	-0.243214	-0.425366
C56	C	-0.158936	-0.196299	-0.425376
C57	C	-0.273982	-0.196330	-0.731840
C58	C	-0.273975	-0.243245	-0.731823
C59	C	-0.245212	-0.266696	-0.655200
C60	C	-0.333194	-0.649094	-0.578577
C61	C	-0.383128	-0.649100	-0.578591
C62	C	-0.692777	-0.677952	-0.502013
C63	C	-0.880450	-0.678008	-0.502060
O64	O	-0.904720	-0.702474	-0.436905
N65	N	-0.903913	-0.649268	-0.578727
C66	C	-0.880455	-0.620515	-0.655393
O67	O	-0.904718	-0.596075	-0.720612
C68	C	-0.692783	-0.620462	-0.655351
C69	C	-0.669323	-0.649200	-0.578671
C70	C	-0.669317	-0.706688	-0.425340
C71	C	-0.622401	-0.706672	-0.425325
C72	C	-0.598946	-0.677920	-0.501982
C73	C	-0.622407	-0.649184	-0.578655
C74	C	-0.669326	-0.591712	-0.732023
C75	C	-0.622405	-0.591702	-0.732008
C76	C	-0.598944	-0.620440	-0.655327
C77	C	-0.552037	-0.620417	-0.655298
N78	N	-0.528574	-0.649156	-0.578631
C79	C	-0.552029	-0.677908	-0.501973
C80	C	-0.978986	-0.620544	-0.655407
C81	C	-1.025904	-0.620557	-0.655416
C82	C	-1.025896	-0.678050	-0.502085
C83	C	-0.978977	-0.678035	-0.502071
C84	C	-0.955523	-0.649284	-0.578741
C85	C	-0.453503	-0.677872	-0.501946
C86	C	-0.406583	-0.677852	-0.501934
C87	C	-0.406596	-0.620361	-0.655269
C88	C	-0.453511	-0.620379	-0.655277
C89	C	-0.476963	-0.649138	-0.578612
O90	O	-0.527738	-0.595967	-0.720428
O91	O	-0.527757	-0.702351	-0.436782
C92	C	-0.739693	-0.677968	-0.502029
C93	C	-0.763153	-0.649232	-0.578702
C94	C	-0.739699	-0.620480	-0.655360
C95	C	-0.810071	-0.649245	-0.578711
C96	C	-0.833526	-0.677996	-0.502053
C97	C	-0.810063	-0.706736	-0.425387
C98	C	-0.763148	-0.706720	-0.425371
C99	C	-0.763162	-0.591741	-0.732026
C100	C	-0.810077	-0.591759	-0.732035
C101	C	-0.833532	-0.620511	-0.655377
C102	C	-0.099293	-0.649269	-0.578722
C103	C	-0.049359	-0.649309	-0.578759
C104	C	-0.216422	-0.649211	-0.891679
C105	C	-0.216400	-0.649226	-1.025079
C106	C	-0.216494	0.233647	-0.578726
C107	C	-0.216500	0.183712	-0.578712
C108	C	-0.216489	-0.649165	-0.266811
C109	C	-0.216383	-0.649237	-0.133412
H110	H	-0.268677	0.094219	-0.717692
Cl111	Cl	-0.310148	-0.026096	-0.828250
Cl112	Cl	-0.592915	-0.742809	-0.328939
Cl113	Cl	-1.055391	-0.584422	-0.751805
Cl114	Cl	-0.151525	-0.488540	-0.405572
H115	H	-0.268635	-0.478169	-0.717511
Cl116	Cl	-0.698794	-0.742838	-0.328957
H117	H	-0.135513	-0.262316	-0.362972
H118	H	-0.959878	-0.701436	-0.439632
H119	H	-0.744068	-0.568328	-0.794452
Cl120	Cl	-1.055390	-0.714194	-0.405714
H121	H	-0.268636	-0.393061	-0.717557
Cl122	Cl	-0.310146	-0.131981	-0.828219
Cl123	Cl	-0.281424	0.189730	-0.751635
Cl124	Cl	-0.310146	-0.166856	-0.828175
Cl125	Cl	-0.122777	-0.166807	-0.329053
H126	H	-0.744049	-0.730121	-0.362931
Cl127	Cl	-0.122788	-0.026061	-0.329094
H128	H	-0.297399	-0.262346	-0.794214
H129	H	-0.688420	-0.568308	-0.794458
H130	H	-0.135521	-0.121556	-0.363002
Cl131	Cl	-0.839565	-0.555627	-0.828442
H132	H	-0.829168	-0.730145	-0.362966
Cl133	Cl	-0.592923	-0.555556	-0.828401
Cl134	Cl	-0.151579	0.189757	-0.405759
Cl135	Cl	-0.377093	-0.713983	-0.405528
Cl136	Cl	-0.483005	-0.584242	-0.751652
Cl137	Cl	-0.377101	-0.584220	-0.751640
Cl138	Cl	-0.949508	-0.584395	-0.751800
Cl139	Cl	-0.151560	0.083871	-0.405735
Cl140	Cl	-0.151531	-0.382638	-0.405585
Cl141	Cl	-0.482979	-0.714026	-0.405563
