data_functionalizedCrystal
_audit_creation_method	'MofGen! by Chris Wilmer'
_symmetry_space_group_name_H-M	'P1'
_symmetry_Int_Tables_number	1
_symmetry_cell_setting	triclinic
loop_
_symmetry_equiv_pos_as_xyz
  x,y,z
_cell_length_a	19.805407
_cell_length_b	25.639239
_cell_length_c	19.805399
_cell_angle_alpha	89.971274
_cell_angle_beta	89.980427
_cell_angle_gamma	90.038686
loop_
_atom_site_label
_atom_site_type_symbol
_atom_site_fract_x
_atom_site_fract_y
_atom_site_fract_z
Zn1	Zn	1.034678	-0.208163	-0.382714
Zn2	Zn	1.034569	-0.295597	-0.269524
Zn3	Zn	0.921493	-0.208177	-0.269539
Zn4	Zn	0.921432	-0.295569	-0.382670
O5	O	0.978043	-0.251877	-0.326112
O6	O	1.129380	-0.219767	-0.367711
O7	O	1.019548	-0.284018	-0.174809
O8	O	0.936578	-0.135010	-0.284576
O9	O	1.129300	-0.284004	-0.284551
O10	O	1.019735	-0.135000	-0.367726
O11	O	0.936472	-0.219791	-0.174820
O12	O	0.826768	-0.219764	-0.284534
O13	O	0.936475	-0.283957	-0.477393
O14	O	0.826723	-0.283971	-0.367651
O15	O	1.019676	-0.219740	-0.477425
O16	O	1.019489	-0.368758	-0.284508
O17	O	0.936368	-0.368738	-0.367637
C18	C	0.802187	-0.251867	-0.326090
C19	C	0.726955	-0.251875	-0.326097
C20	C	0.691605	-0.285357	-0.369306
C21	C	0.620917	-0.285358	-0.369315
C22	C	0.585579	-0.251879	-0.326112
C23	C	0.620934	-0.218393	-0.282901
C24	C	0.691621	-0.218390	-0.282895
C25	C	0.335860	-0.218404	-0.282923
C26	C	0.265168	-0.218411	-0.282931
C27	C	0.265156	-0.285373	-0.369343
C28	C	0.335843	-0.285370	-0.369338
C29	C	0.371192	-0.251882	-0.326129
C30	C	0.447840	-0.251881	-0.326121
C31	C	0.508932	-0.251883	-0.326117
C32	C	0.977929	-0.387719	-0.326081
C33	C	0.977942	-0.445833	-0.326090
C34	C	1.021437	-0.806194	-0.282901
C35	C	1.021463	-0.860799	-0.282910
O36	O	1.058326	-0.889034	-0.246154
N37	N	0.978162	-0.888116	-0.326157
C38	C	0.934836	-0.860825	-0.369402
O39	O	0.898008	-0.889075	-0.406189
C40	C	0.934814	-0.806222	-0.369396
C41	C	0.978113	-0.778908	-0.326141
C42	C	1.064733	-0.778880	-0.239650
C43	C	1.064706	-0.724279	-0.239640
C44	C	1.021382	-0.696993	-0.282881
C45	C	0.978086	-0.724307	-0.326132
C46	C	0.891492	-0.778933	-0.412645
C47	C	0.891474	-0.724326	-0.412635
C48	C	0.934773	-0.697012	-0.369381
C49	C	0.934735	-0.642421	-0.369363
N50	N	0.978036	-0.615104	-0.326116
C51	C	1.021360	-0.642390	-0.282875
C52	C	0.934887	-0.975496	-0.369413
C53	C	0.934906	-1.030098	-0.369416
C54	C	1.021533	-1.030068	-0.282924
C55	C	1.021511	-0.975464	-0.282918
C56	C	0.978188	-0.948179	-0.326166
C57	C	1.021299	-0.527725	-0.282857
C58	C	1.021266	-0.473119	-0.282849
C59	C	0.934641	-0.473155	-0.369343
C60	C	0.934671	-0.527756	-0.369349
C61	C	0.978006	-0.555039	-0.326104
O62	O	0.897893	-0.614151	-0.406101
O63	O	1.058188	-0.614134	-0.246101
C64	C	1.154585	-0.251887	-0.326134
C65	C	1.229817	-0.251891	-0.326144
C66	C	0.978081	-0.251844	-0.502655
C67	C	0.978097	-0.251830	-0.577887
C68	C	0.978175	-0.115504	-0.326158
C69	C	0.978232	-0.057389	-0.326177
C70	C	1.021421	-0.218390	-0.613249
C71	C	1.021428	-0.218375	-0.683937
C72	C	0.978114	-0.251802	-0.719262
C73	C	0.934785	-0.285243	-0.683895
C74	C	0.934775	-0.285255	-0.613208
C75	C	0.934823	-0.285194	-0.968969
C76	C	0.934838	-0.285181	-1.039661
C77	C	1.021476	-0.218314	-1.039698
C78	C	1.021466	-0.218326	-0.969011
C79	C	0.978135	-0.251765	-0.933650
C80	C	0.978127	-0.251780	-0.857001
C81	C	0.978125	-0.251790	-0.795909
C82	C	0.978044	-0.251872	-0.150256
C83	C	0.978159	-0.251738	-0.075024
H84	H	0.236367	-0.312639	-0.404528
H85	H	0.364633	-0.191140	-0.247735
O86	O	1.063579	-0.185877	-0.718183
C87	C	1.101799	-0.156370	-0.671846
H88	H	1.104112	-0.177796	-0.621452
H89	H	1.077055	-0.116660	-0.664336
C90	C	1.171007	-0.122523	-0.761346
C91	C	1.173853	-0.148841	-0.699452
H92	H	1.215452	-0.117876	-0.778376
H93	H	1.145256	-0.142400	-0.792565
H94	H	1.150384	-0.089433	-0.755079
H95	H	1.194467	-0.181932	-0.705722
H96	H	1.199608	-0.128968	-0.668235
O97	O	0.586504	-0.185917	-0.240958
C98	C	0.516533	-0.193089	-0.250239
H99	H	0.506855	-0.233463	-0.272308
H100	H	0.496515	-0.162116	-0.286362
C101	C	0.492103	-0.138637	-0.154665
C102	C	0.480216	-0.188226	-0.181765
H103	H	0.469699	-0.135635	-0.112429
H104	H	0.539244	-0.133803	-0.148413
H105	H	0.475421	-0.112831	-0.184774
H106	H	0.496905	-0.214030	-0.151661
H107	H	0.433077	-0.193064	-0.188011
H108	H	0.236399	-0.191145	-0.247749
H109	H	0.899489	-0.312480	-0.584417
O110	O	0.892658	-0.446618	-0.411419
C111	C	0.931167	-0.414974	-0.455145
H112	H	0.984477	-0.431392	-0.459374
H113	H	0.933499	-0.373601	-0.434207
C114	C	0.832591	-0.393951	-0.520289
C115	C	0.898066	-0.414119	-0.525487
H116	H	0.812172	-0.393422	-0.563678
H117	H	0.806646	-0.415269	-0.490829
H118	H	0.834543	-0.359476	-0.502838
H119	H	0.896112	-0.448596	-0.542929
H120	H	0.924010	-0.392807	-0.554952
O121	O	1.063402	-0.185891	-0.578864
C122	C	1.024891	-0.152118	-0.537994
H123	H	0.973579	-0.170559	-0.527385
H124	H	1.017491	-0.113368	-0.565252
C125	C	1.125153	-0.120010	-0.483892
C126	C	1.062134	-0.142661	-0.470856
H127	H	1.148127	-0.114174	-0.442479
H128	H	1.151100	-0.142761	-0.511428
H129	H	1.118978	-0.087721	-0.506608
H130	H	1.068310	-0.174952	-0.448148
H131	H	1.036189	-0.119914	-0.443315
O132	O	0.892823	-0.317637	-1.074082
C133	C	0.902117	-0.310447	-1.144054
H134	H	0.954372	-0.293326	-1.153719
H135	H	0.862003	-0.282597	-1.164120
C136	C	0.831690	-0.384369	-1.168456
C137	C	0.895872	-0.363345	-1.180327
H138	H	0.827835	-0.416999	-1.190832
H139	H	0.825425	-0.389212	-1.121314
H140	H	0.798268	-0.361156	-1.185178
H141	H	0.929291	-0.386555	-1.163598
H142	H	0.902142	-0.358507	-1.227467
H143	H	0.856196	-0.702113	-0.447855
O144	O	0.586683	-0.317939	-0.411302
C145	C	0.633030	-0.347484	-0.449438
H146	H	0.683406	-0.349256	-0.421707
H147	H	0.640582	-0.328398	-0.500894
C148	C	0.543534	-0.400967	-0.493107
C149	C	0.605405	-0.403148	-0.459045
H150	H	0.526492	-0.435302	-0.499036
H151	H	0.512308	-0.381061	-0.467417
H152	H	0.549835	-0.385060	-0.535984
H153	H	0.599101	-0.419048	-0.416166
H154	H	0.636629	-0.423058	-0.484729
H155	H	1.099966	-0.702043	-0.204421
O156	O	0.370065	-0.317908	-0.411370
C157	C	0.323705	-0.347471	-0.449499
H158	H	0.273334	-0.326061	-0.451897
H159	H	0.316147	-0.387156	-0.424622
C160	C	0.413185	-0.381371	-0.518572
C161	C	0.351320	-0.355073	-0.521521
H162	H	0.430219	-0.386063	-0.562998
H163	H	0.444419	-0.361456	-0.492882
H164	H	0.406878	-0.414439	-0.497838
H165	H	0.357629	-0.322004	-0.542247
H166	H	0.320087	-0.374983	-0.547217
H167	H	0.899515	-0.312458	-0.712663
O168	O	1.063627	-0.185809	-1.073944
C169	C	1.101844	-0.156302	-1.027606
H170	H	1.104158	-0.177729	-0.977212
H171	H	1.077097	-0.116592	-1.020094
C172	C	1.171050	-0.122448	-1.117104
C173	C	1.173897	-0.148768	-1.055211
H174	H	1.215495	-0.117799	-1.134132
H175	H	1.145301	-0.142327	-1.148323
H176	H	1.150424	-0.089360	-1.110835
H177	H	1.194515	-0.181858	-1.061481
H178	H	1.199651	-0.128895	-1.023993
H179	H	0.720402	-0.191122	-0.247713
H180	H	1.056587	-0.549933	-0.247644
H181	H	1.056739	-0.191108	-0.940252
O182	O	1.063394	-0.446668	-0.240809
C183	C	1.101626	-0.482465	-0.202637
H184	H	1.103970	-0.521371	-0.230372
H185	H	1.076873	-0.488319	-0.151209
C186	C	1.170781	-0.413318	-0.158879
C187	C	1.173664	-0.461102	-0.192947
H188	H	1.215217	-0.400140	-0.152898
H189	H	1.145022	-0.389200	-0.184594
H190	H	1.150151	-0.418203	-0.116026
H191	H	1.194287	-0.456216	-0.235802
H192	H	1.199429	-0.485219	-0.167239
O193	O	1.106841	-0.805300	-0.197577
C194	C	1.145057	-0.769472	-0.159421
H195	H	1.117313	-0.730573	-0.157059
H196	H	1.196447	-0.763613	-0.184251
C197	C	1.188937	-0.838572	-0.090289
C198	C	1.154858	-0.790797	-0.087384
H199	H	1.194986	-0.851726	-0.045854
H200	H	1.163193	-0.862710	-0.115997
H201	H	1.231758	-0.833683	-0.110984
H202	H	1.112035	-0.795688	-0.066697
H203	H	1.180596	-0.766660	-0.061671
H204	H	0.899550	-0.312430	-0.940187
H205	H	0.720372	-0.312622	-0.404485
H206	H	1.056769	-0.953228	-0.247697
H207	H	1.056812	-1.052294	-0.247717
O208	O	0.892818	-1.056547	-0.411492
C209	C	0.854564	-1.020748	-0.449639
H210	H	0.882271	-0.981803	-0.451997
H211	H	0.803171	-1.014993	-0.424802
C212	C	0.810742	-1.089858	-0.518776
C213	C	0.844775	-1.042026	-0.521678
H214	H	0.804701	-1.102984	-0.563213
H215	H	0.836512	-1.113978	-0.493075
H216	H	0.767918	-1.085056	-0.498076
H217	H	0.887601	-1.046830	-0.542370
H218	H	0.819012	-1.017908	-0.547385
O219	O	0.849411	-0.805377	-0.454729
C220	C	0.811166	-0.769573	-0.492878
H221	H	0.838877	-0.730629	-0.495230
H222	H	0.759770	-0.763817	-0.468048
C223	C	0.767347	-0.838678	-0.562027
C224	C	0.801385	-0.790848	-0.564920
H225	H	0.761311	-0.851802	-0.606465
H226	H	0.793112	-0.862800	-0.536324
H227	H	0.724521	-0.833875	-0.541332
H228	H	0.844213	-0.795653	-0.585607
H229	H	0.775628	-0.766727	-0.590629
O230	O	0.892587	-0.554211	-0.411427
C231	C	0.854329	-0.518415	-0.449576
H232	H	0.882029	-0.479467	-0.451931
H233	H	0.802934	-0.512667	-0.424743
C234	C	0.810527	-0.587530	-0.518719
C235	C	0.844551	-0.539693	-0.521616
H236	H	0.804492	-0.600655	-0.563156
H237	H	0.836300	-0.611646	-0.493016
H238	H	0.767700	-0.582733	-0.498022
H239	H	0.887379	-0.544492	-0.542305
H240	H	0.818785	-0.515578	-0.547324
H241	H	0.899603	-0.953283	-0.404628
