data_functionalizedCrystal
_audit_creation_method	'MofGen! by Chris Wilmer'
_symmetry_space_group_name_H-M	'P1'
_symmetry_Int_Tables_number	1
_symmetry_cell_setting	triclinic
loop_
_symmetry_equiv_pos_as_xyz
  x,y,z
_cell_length_a	18.101398
_cell_length_b	18.101395
_cell_length_c	17.077396
_cell_angle_alpha	89.972533
_cell_angle_beta	89.975078
_cell_angle_gamma	90.026371
loop_
_atom_site_label
_atom_site_type_symbol
_atom_site_fract_x
_atom_site_fract_y
_atom_site_fract_z
Zn1	Zn	1.132125	-0.294923	-0.443962
Zn2	Zn	1.132020	-0.418772	-0.312698
Zn3	Zn	1.008283	-0.294938	-0.312697
Zn4	Zn	1.008235	-0.418717	-0.443909
O5	O	1.070166	-0.356838	-0.378317
O6	O	1.235744	-0.311368	-0.426572
O7	O	1.115582	-0.402374	-0.202851
O8	O	1.024775	-0.191303	-0.330131
O9	O	1.235667	-0.402359	-0.330133
O10	O	1.115762	-0.191292	-0.426571
O11	O	1.024673	-0.311394	-0.202850
O12	O	0.904644	-0.311341	-0.330080
O13	O	1.024693	-0.402266	-0.553763
O14	O	0.904609	-0.402281	-0.426481
O15	O	1.115715	-0.311315	-0.553802
O16	O	1.115535	-0.522397	-0.330082
O17	O	1.024591	-0.522357	-0.426482
C18	C	0.877755	-0.356808	-0.378276
C19	C	0.795441	-0.356812	-0.378277
C20	C	0.496350	-0.356859	-0.378343
C21	C	0.527673	-0.299356	-0.317986
C22	C	0.613291	-0.299510	-0.317728
C23	C	0.644733	-0.356835	-0.378310
C24	C	0.613614	-0.434847	-0.355709
C25	C	0.527969	-0.434528	-0.355289
C26	C	0.527966	-0.337028	-0.461442
C27	C	0.613616	-0.335291	-0.460989
C28	C	0.728592	-0.356827	-0.378293
C29	C	0.412491	-0.356872	-0.378358
C30	C	1.070067	-0.549248	-0.378293
C31	C	1.070092	-0.631562	-0.378310
C32	C	1.070255	-0.930653	-0.378352
C33	C	1.013168	-0.899334	-0.439155
C34	C	1.012896	-0.813716	-0.438965
C35	C	1.070174	-0.782271	-0.378332
C36	C	1.049044	-0.813420	-0.295600
C37	C	1.048676	-0.899066	-0.295964
C38	C	1.148597	-0.899003	-0.399553
C39	C	1.148136	-0.813352	-0.401367
C40	C	1.070130	-0.698411	-0.378315
C41	C	1.070297	-1.014513	-0.378363
C42	C	1.263328	-0.356868	-0.378358
C43	C	1.345642	-0.356881	-0.378376
C44	C	1.070211	-0.356783	-0.583061
C45	C	1.070230	-0.356760	-0.670311
C46	C	1.070286	-0.163676	-0.378357
C47	C	1.070336	-0.081362	-0.378374
C48	C	1.117626	-0.309398	-0.711322
C49	C	1.117635	-0.309373	-0.793303
C50	C	1.070251	-0.356715	-0.834270
C51	C	1.022849	-0.404079	-0.793253
C52	C	1.022837	-0.404099	-0.711274
C53	C	1.022879	-0.404034	-0.964123
C54	C	1.022892	-0.404015	-1.046108
C55	C	1.117677	-0.309308	-1.046152
C56	C	1.117665	-0.309329	-0.964173
C57	C	1.070264	-0.356694	-0.923161
C58	C	1.070164	-0.356838	-0.174369
C59	C	1.070288	-0.356653	-0.087119
H60	H	0.507103	-0.241330	-0.331996
H61	H	1.156272	-0.270740	-1.079548
N62	N	0.502541	-0.389561	-0.517859
N63	N	0.464952	-0.368581	-0.575078
H64	H	0.446991	-0.405685	-0.614915
N65	N	1.098547	-0.925074	-0.237176
N66	N	1.075233	-0.964677	-0.182505
H67	H	1.110447	-0.983046	-0.140982
N68	N	0.500631	-0.315591	-0.241186
N69	N	0.463116	-0.268757	-0.204998
H70	H	0.444014	-0.280223	-0.150759
N71	N	1.166079	-0.260974	-0.922336
N72	N	1.208398	-0.218689	-0.958960
H73	H	1.242591	-0.184538	-0.929414
N74	N	0.638944	-0.315957	-0.240479
N75	N	0.593594	-0.327363	-0.186590
H76	H	0.611710	-0.338982	-0.132029
N77	N	0.974459	-0.452337	-1.087962
N78	N	0.906128	-0.447373	-1.078790
H79	H	0.871914	-0.481489	-1.108355
H80	H	0.633979	-0.478839	-0.398294
H81	H	0.984268	-0.442593	-0.930734
N82	N	1.166030	-0.261048	-0.669467
N83	N	1.213198	-0.287121	-0.623729
H84	H	1.247383	-0.252972	-0.594169
H85	H	0.984265	-0.442623	-0.826615
N86	N	1.166044	-0.260986	-0.835192
N87	N	1.161178	-0.192652	-0.826047
H88	H	1.195369	-0.158476	-0.855630
N89	N	0.639680	-0.226932	-0.335476
N90	N	0.594844	-0.175809	-0.348139
H91	H	0.613477	-0.124545	-0.360663
N92	N	0.502870	-0.455628	-0.279078
N93	N	0.548606	-0.470486	-0.226569
H94	H	0.530884	-0.485388	-0.172742
H95	H	0.984234	-0.442659	-0.677883
H96	H	0.635029	-0.451956	-0.295615
H97	H	0.506394	-0.281132	-0.481992
N98	N	0.501980	-0.490099	-0.408029
N99	N	0.547097	-0.528999	-0.445025
H100	H	0.528746	-0.568250	-0.482269
H101	H	0.633961	-0.277883	-0.478031
H102	H	0.955452	-0.920915	-0.425288
N103	N	1.029492	-0.787291	-0.515918
N104	N	1.089526	-0.803772	-0.547592
H105	H	1.101246	-0.785114	-0.601944
N106	N	0.640421	-0.384045	-0.520412
N107	N	0.683084	-0.435696	-0.502714
H108	H	0.701995	-0.470151	-0.544676
N109	N	1.029634	-0.925102	-0.516354
N110	N	1.029840	-0.992835	-0.530566
H111	H	1.041488	-1.011031	-0.585088
N112	N	0.940047	-0.788094	-0.421350
N113	N	0.889247	-0.833466	-0.409152
H114	H	0.837793	-0.815372	-0.396709
H115	H	0.991408	-0.919104	-0.278006
N116	N	1.099560	-0.787857	-0.237222
N117	N	1.106697	-0.720153	-0.224985
H118	H	1.142376	-0.702096	-0.183757
N119	N	0.977964	-0.786583	-0.272674
N120	N	0.942746	-0.744526	-0.317121
H121	H	0.892545	-0.725571	-0.300933
H122	H	1.167861	-0.920553	-0.458853
H123	H	1.164070	-0.792990	-0.462253
H124	H	1.192919	-0.791943	-0.360309
H125	H	1.191128	-0.919257	-0.355267
