data_functionalizedCrystal
_audit_creation_method	'MofGen! by Chris Wilmer'
_symmetry_space_group_name_H-M	'P1'
_symmetry_Int_Tables_number	1
_symmetry_cell_setting	triclinic
loop_
_symmetry_equiv_pos_as_xyz
  x,y,z
_cell_length_a	14.971486
_cell_length_b	17.038272
_cell_length_c	14.048226
_cell_angle_alpha	89.993466
_cell_angle_beta	89.998499
_cell_angle_gamma	87.362843
loop_
_atom_site_label
_atom_site_type_symbol
_atom_site_fract_x
_atom_site_fract_y
_atom_site_fract_z
O1	O	1.194576	0.101897	-0.079052
O2	O	0.935090	0.114100	-0.079077
O3	O	1.063291	-0.005819	-0.079057
O4	O	1.066375	0.221816	-0.079072
O5	O	1.063274	-0.005826	0.079264
O6	O	0.935073	0.114093	0.079244
O7	O	1.194559	0.101890	0.079270
Zn8	Zn	1.064813	0.107990	0.104394
Zn9	Zn	1.064836	0.108000	-0.104201
O10	O	1.066358	0.221809	0.079249
C11	C	0.901716	0.113551	0.000080
C12	C	0.802296	0.111915	0.000070
C13	C	0.750345	0.182364	0.000067
C14	C	0.656930	0.180823	0.000081
C15	C	0.615468	0.108832	0.000092
C16	C	0.667426	0.038378	0.000098
C17	C	0.760839	0.039920	0.000091
C18	C	0.472723	0.035169	0.000111
C19	C	0.379303	0.033626	0.000117
C20	C	0.368815	0.176072	0.000102
C21	C	0.462228	0.177614	0.000095
C22	C	0.514179	0.107159	0.000099
C23	C	1.060477	-0.034954	0.000103
C24	C	1.052107	-0.121756	0.000102
C25	C	1.128951	-0.171781	0.000111
C26	C	1.121081	-0.253341	0.000101
C27	C	1.036367	-0.284874	0.000089
C28	C	0.959518	-0.234843	0.000078
C29	C	0.967388	-0.153285	0.000081
C30	C	1.008563	-0.530664	0.000073
C31	C	1.000698	-0.612229	0.000073
C32	C	1.162262	-0.630721	0.000095
C33	C	1.170125	-0.549161	0.000103
C34	C	1.093276	-0.499137	0.000087
C35	C	1.028321	-0.368241	0.000082
C36	C	1.101323	-0.415771	0.000087
C37	C	1.227933	0.102440	0.000110
C38	C	1.327353	0.104075	0.000114
C39	C	1.069172	0.250944	0.000087
C40	C	1.077542	0.337746	0.000082
N41	N	1.064804	0.107984	0.246754
N42	N	1.064851	0.108000	-0.246562
C43	C	1.121592	0.054906	0.296581
C44	C	1.121599	0.054905	0.396239
C45	C	1.064820	0.107987	0.446068
C46	C	1.008026	0.161067	0.396234
C47	C	1.008016	0.161064	0.296578
C48	C	1.008052	0.161073	0.603948
C49	C	1.008063	0.161078	0.703611
C50	C	1.121635	0.054915	0.703609
C51	C	1.121625	0.054911	0.603953
C52	C	1.064831	0.107993	0.554126
H53	H	0.614636	0.238189	0.000078
O54	O	0.952857	0.212713	0.555692
C55	C	0.902732	0.259556	0.621039
H56	H	0.939478	0.260492	0.692073
H57	H	0.893835	0.321980	0.592235
H58	H	0.834351	0.234074	0.631650
O59	O	1.236936	-0.679282	0.000269
C60	C	1.288008	-0.664974	0.082256
H61	H	1.242901	-0.637152	0.139567
H62	H	1.319476	-0.722808	0.109777
H63	H	1.342944	-0.623395	0.063723
H64	H	1.239108	-0.523493	0.000113
H65	H	0.515019	-0.022203	0.000116
H66	H	0.633660	-0.020239	0.000120
O67	O	0.892833	-0.104577	0.000033
C68	C	0.917944	-0.025830	0.000060
H69	H	0.988447	-0.022637	-0.029904
H70	H	0.869351	0.011077	-0.045912
H71	H	0.916338	-0.002253	0.076014
H72	H	0.961827	0.204302	0.744176
O73	O	1.176858	0.003325	0.444493
C74	C	1.226962	-0.043533	0.379144
H75	H	1.230389	-0.011476	0.308097
H76	H	1.297498	-0.055341	0.407925
H77	H	1.193516	-0.101669	0.368565
O78	O	0.811174	-0.028587	0.000046
C79	C	0.754550	-0.092459	0.000079
H80	H	0.686422	-0.072678	-0.029891
H81	H	0.785208	-0.141823	-0.045885
H82	H	0.746232	-0.114526	0.076036
H83	H	1.167862	0.011692	0.563383
H84	H	0.945986	-0.489944	0.000060
O85	O	0.952826	0.212523	0.444742
C86	C	0.894451	0.170568	0.502388
H87	H	0.925429	0.109435	0.517323
H88	H	0.882791	0.203187	0.572462
H89	H	0.827931	0.165158	0.463995
H90	H	0.961772	0.204284	0.256010
O91	O	0.318262	0.244462	-0.000027
C92	C	0.263925	0.247841	-0.082030
H93	H	0.254480	0.185773	-0.109353
H94	H	0.196019	0.276905	-0.063588
H95	H	0.297336	0.283577	-0.139458
H96	H	1.197934	-0.146113	0.000126
H97	H	0.784097	0.240987	0.000058
H98	H	0.495983	0.236235	0.000077
O99	O	1.183563	-0.385050	-0.000028
C100	C	1.192966	-0.338435	-0.082034
H101	H	1.124011	-0.318192	-0.109385
H102	H	1.232676	-0.284993	-0.063585
H103	H	1.229813	-0.374421	-0.139444
O104	O	0.339169	-0.036372	0.000172
C105	C	0.405050	-0.098227	0.000157
H106	H	0.470102	-0.076253	0.030127
H107	H	0.381724	-0.148482	0.046129
H108	H	0.416598	-0.119963	-0.075795
H109	H	1.183656	-0.294068	0.000110
O110	O	0.918333	-0.642731	0.000009
C111	C	0.852190	-0.581091	0.000015
H112	H	0.881485	-0.525660	-0.029951
H113	H	0.793433	-0.598188	-0.045966
H114	H	0.828168	-0.569582	0.075963
O115	O	0.877275	-0.265566	-0.000061
C116	C	0.867890	-0.312167	-0.082069
H117	H	0.936851	-0.332411	-0.109399
H118	H	0.828166	-0.365606	-0.063631
H119	H	0.831065	-0.276167	-0.139491
O120	O	0.945982	-0.398780	0.000203
C121	C	0.898760	-0.373255	0.082209
H122	H	0.927436	-0.316671	0.109553
H123	H	0.825131	-0.362006	0.063761
H124	H	0.905527	-0.420448	0.139622
O125	O	1.176603	0.003277	0.248099
C126	C	1.124991	-0.045043	0.190519
H127	H	1.057382	-0.013974	0.175571
H128	H	1.161375	-0.057413	0.120448
H129	H	1.114481	-0.102815	0.228978
O130	O	1.176717	0.003376	0.752153
C131	C	1.164565	0.014769	0.850797
H132	H	1.095670	0.043887	0.864412
H133	H	1.170022	-0.044432	0.888679
H134	H	1.218177	0.054062	0.879066
