data_functionalizedCrystal
_audit_creation_method	'MofGen! by Chris Wilmer'
_symmetry_space_group_name_H-M	'P1'
_symmetry_Int_Tables_number	1
_symmetry_cell_setting	triclinic
loop_
_symmetry_equiv_pos_as_xyz
  x,y,z
_cell_length_a	16.109317
_cell_length_b	11.892095
_cell_length_c	16.109298
_cell_angle_alpha	93.893369
_cell_angle_beta	83.464201
_cell_angle_gamma	86.106418
loop_
_atom_site_label
_atom_site_type_symbol
_atom_site_fract_x
_atom_site_fract_y
_atom_site_fract_z
O1	O	-1.108432	0.093869	-0.101624
O2	O	-0.866373	0.093896	-0.114907
O3	O	-0.994054	0.093890	0.012766
O4	O	-0.980751	0.093875	-0.229297
O5	O	-0.983408	-0.094117	0.002137
O6	O	-0.855727	-0.094111	-0.125536
O7	O	-1.097786	-0.094138	-0.112253
Zn8	Zn	-0.975067	-0.123974	-0.120582
Zn9	Zn	-0.989093	0.123733	-0.106578
O10	O	-0.970105	-0.094132	-0.239925
C11	C	-0.830076	-0.000104	-0.119681
C12	C	-0.737782	-0.000093	-0.118060
N13	N	-0.965500	-0.293028	-0.130139
C14	C	-0.444510	0.102378	-0.107033
C15	C	-0.531232	0.102382	-0.108549
C16	C	-0.519644	-0.102593	-0.120126
C17	C	-0.432925	-0.102597	-0.118603
C18	C	-0.395360	-0.000108	-0.112061
C19	C	-0.568801	-0.000100	-0.115100
C20	C	-0.662828	-0.000095	-0.116745
C21	C	-0.301327	-0.000112	-0.110414
C22	C	-1.065234	-0.529681	-0.030467
C23	C	-1.058553	-0.648022	-0.037153
C24	C	-0.945454	-0.648055	-0.150192
C25	C	-0.952135	-0.529713	-0.143506
C26	C	-1.012028	-0.470530	-0.083642
C27	C	-1.018712	-0.352187	-0.076961
C28	C	-0.905609	-0.352221	-0.189996
C29	C	-0.898929	-0.470563	-0.196682
C30	C	-0.134084	-0.000129	-0.107479
C31	C	-0.226379	-0.000115	-0.109101
C32	C	-0.988193	-0.000109	0.038426
C33	C	-0.986580	-0.000095	0.130723
N34	N	-0.998666	0.292786	-0.097015
C35	C	-0.975966	-0.000130	-0.265586
C36	C	-0.977580	-0.000136	-0.357882
C37	C	-0.987114	0.102364	0.435584
C38	C	-0.988642	0.102372	0.348865
C39	C	-0.977048	-0.102604	0.337262
C40	C	-0.975525	-0.102610	0.423981
C41	C	-0.980555	-0.000123	0.473140
C42	C	-0.983605	-0.000109	0.299701
C43	C	-0.985262	-0.000101	0.205676
C44	C	-0.978899	-0.000130	0.567171
H45	H	-0.413928	0.185831	-0.101704
H46	H	-0.850163	-0.518763	-0.245420
H47	H	-0.972952	-0.186045	0.297227
F48	F	-0.992469	0.211440	0.487900
H49	H	-0.862288	-0.304048	-0.233297
H50	H	-0.571247	0.185836	-0.104454
H51	H	-1.067481	-0.304001	-0.028219
F52	F	-0.881708	-0.711054	-0.213893
F53	F	-0.968548	-0.211697	0.463953
F54	F	-0.559630	-0.211663	-0.127096
F55	F	-0.380612	-0.211682	-0.123953
H56	H	-0.993985	0.185827	0.318292
H57	H	-1.114006	-0.481493	0.018271
H58	H	-1.101878	-0.696179	0.006149
