data_functionalizedCrystal
_audit_creation_method	'MofGen! by Chris Wilmer'
_symmetry_space_group_name_H-M	'P1'
_symmetry_Int_Tables_number	1
_symmetry_cell_setting	triclinic
loop_
_symmetry_equiv_pos_as_xyz
  x,y,z
_cell_length_a	11.169417
_cell_length_b	16.625545
_cell_length_c	11.169417
_cell_angle_alpha	90.011410
_cell_angle_beta	90.000551
_cell_angle_gamma	90.026807
loop_
_atom_site_label
_atom_site_type_symbol
_atom_site_fract_x
_atom_site_fract_y
_atom_site_fract_z
Zn1	Zn	1.834611	-0.321106	0.678500
Zn2	Zn	1.834513	-0.455910	0.477804
Zn3	Zn	1.633963	-0.321098	0.477836
Zn4	Zn	1.633851	-0.455903	0.678450
O5	O	1.734234	-0.388504	0.578148
O6	O	2.002547	-0.338994	0.651885
O7	O	1.807916	-0.438026	0.309859
O8	O	1.660667	-0.208267	0.504489
O9	O	2.002476	-0.438034	0.504435
O10	O	1.808082	-0.208273	0.651916
O11	O	1.660573	-0.338981	0.309882
O12	O	1.465998	-0.338974	0.504440
O13	O	1.660476	-0.438023	0.846406
O14	O	1.465916	-0.438015	0.651830
O15	O	1.807973	-0.338988	0.846443
O16	O	1.807807	-0.568742	0.504386
O17	O	1.660381	-0.568737	0.651799
C18	C	1.422410	-0.388494	0.578134
C19	C	1.289010	-0.388508	0.578157
C20	C	1.734104	-0.597995	0.578110
C21	C	1.734158	-0.687616	0.578134
C22	C	1.734205	-0.760399	0.578158
C23	C	1.734275	-0.851707	0.578184
C24	C	1.734337	-0.924484	0.578199
C25	C	1.734405	-1.015798	0.578224
C26	C	2.047277	-0.388516	0.578162
C27	C	2.180677	-0.388521	0.578168
C28	C	1.734223	-0.388506	0.891190
C29	C	1.734218	-0.388506	1.024590
C30	C	1.734398	-0.178196	0.578212
C31	C	1.734468	-0.088574	0.578239
C32	C	1.734232	-0.388518	1.266323
C33	C	1.734221	-0.388507	1.132923
