data_functionalizedCrystal
_audit_creation_method	'MofGen! by Chris Wilmer'
_symmetry_space_group_name_H-M	'P1'
_symmetry_Int_Tables_number	1
_symmetry_cell_setting	triclinic
loop_
_symmetry_equiv_pos_as_xyz
  x,y,z
_cell_length_a	18.101395
_cell_length_b	21.395364
_cell_length_c	21.395356
_cell_angle_alpha	90.024718
_cell_angle_beta	89.975103
_cell_angle_gamma	89.974863
loop_
_atom_site_label
_atom_site_type_symbol
_atom_site_fract_x
_atom_site_fract_y
_atom_site_fract_z
Zn1	Zn	-0.294966	-0.957851	-0.354292
Zn2	Zn	0.038367	-0.624518	-0.020959
Zn3	Zn	0.371700	-0.291185	0.312374
Zn4	Zn	-0.418809	-0.957755	-0.249520
Zn5	Zn	-0.085476	-0.624422	0.083813
Zn6	Zn	0.247857	-0.291088	0.417147
Zn7	Zn	-0.294973	-0.853068	-0.249527
Zn8	Zn	0.038360	-0.519735	0.083806
Zn9	Zn	0.371693	-0.186401	0.417140
Zn10	Zn	-0.418758	-0.853035	-0.354258
Zn11	Zn	-0.085424	-0.519701	-0.020925
Zn12	Zn	0.247909	-0.186368	0.312409
O13	O	-0.356877	-0.905427	-0.301899
O14	O	-0.023543	-0.572094	0.031434
O15	O	0.309790	-0.238761	0.364767
O16	O	-0.311413	-1.045516	-0.340405
O17	O	0.021920	-0.712183	-0.007072
O18	O	0.355254	-0.378850	0.326261
O19	O	-0.402407	-0.943842	-0.161843
O20	O	-0.069074	-0.610508	0.171490
O21	O	0.264260	-0.277175	0.504824
O22	O	-0.191339	-0.867022	-0.263442
O23	O	0.141994	-0.533689	0.069892
O24	O	0.475327	-0.200355	0.403225
O25	O	-0.402400	-1.045446	-0.263430
O26	O	-0.069067	-0.712112	0.069904
O27	O	0.264267	-0.378779	0.403237
O28	O	-0.191334	-0.944006	-0.340412
O29	O	0.141999	-0.610673	-0.007079
O30	O	0.475332	-0.277339	0.326254
O31	O	-0.311425	-0.866929	-0.161848
O32	O	0.021908	-0.533595	0.171485
O33	O	0.355242	-0.200262	0.504819
O34	O	-0.311375	-0.765386	-0.263408
O35	O	0.021958	-0.432052	0.069925
O36	O	0.355292	-0.098719	0.403258
O37	O	-0.402312	-0.866965	-0.441941
O38	O	-0.068978	-0.533632	-0.108607
O39	O	0.264355	-0.200299	0.224726
O40	O	-0.402319	-0.765361	-0.340354
O41	O	-0.068985	-0.432028	-0.007021
O42	O	0.264348	-0.098695	0.326313
O43	O	-0.311363	-0.943974	-0.441966
O44	O	0.021970	-0.610640	-0.108632
O45	O	0.355304	-0.277307	0.224701
O46	O	-0.522435	-0.943809	-0.263396
O47	O	-0.189102	-0.610476	0.069937
O48	O	0.144231	-0.277143	0.403270
O49	O	-0.522397	-0.866872	-0.340347
O50	O	-0.189064	-0.533539	-0.007014
O51	O	0.144269	-0.200205	0.326320
C52	C	-0.356842	-0.742640	-0.301879
C53	C	-0.023509	-0.409306	0.031455
C54	C	0.309824	-0.075973	0.364788
C55	C	-0.356846	-0.672998	-0.301885
C56	C	-0.023512	-0.339665	0.031449
C57	C	0.309821	-0.006332	0.364782
C58	C	-0.309585	-0.171239	-0.342040
C59	C	0.023748	0.162095	-0.008707
C60	C	0.357081	0.495428	0.324627
C61	C	-0.309582	-0.236674	-0.342041
C62	C	0.023751	0.096659	-0.008708
C63	C	0.357085	0.429993	0.324626
C64	C	-0.356877	-0.269360	-0.301901
C65	C	-0.023543	0.063973	0.031433
C66	C	0.309790	0.397307	0.364766
C67	C	-0.404191	-0.236605	-0.261767
C68	C	-0.070858	0.096728	0.071566
C69	C	0.262475	0.430061	0.404900
C70	C	-0.404198	-0.171171	-0.261772
C71	C	-0.070865	0.162162	0.071562
C72	C	0.262468	0.495495	0.404895
C73	C	-0.362626	-0.372998	-0.245436
C74	C	-0.029292	-0.039664	0.087898
C75	C	0.304041	0.293669	0.421231
C76	C	-0.362613	-0.438430	-0.245430
C77	C	-0.029280	-0.105097	0.087903
C78	C	0.304053	0.228236	0.421236
C79	C	-0.356859	-0.471181	-0.301887
C80	C	-0.023526	-0.137848	0.031446
C81	C	0.309808	0.195486	0.364779
C82	C	-0.351102	-0.438490	-0.358352
C83	C	-0.017768	-0.105157	-0.025018
C84	C	0.315565	0.228176	0.308315
C85	C	-0.351109	-0.373056	-0.358356
C86	C	-0.017775	-0.039723	-0.025023
C87	C	0.315558	0.293611	0.308311
C88	C	-0.356875	-0.340312	-0.301892
C89	C	-0.023541	-0.006979	0.031442
C90	C	0.309792	0.326354	0.364775
C91	C	-0.309548	-0.574880	-0.342023
C92	C	0.023786	-0.241547	-0.008689
C93	C	0.357119	0.091786	0.324644
C94	C	-0.309550	-0.640317	-0.342025
C95	C	0.023784	-0.306983	-0.008691
C96	C	0.357117	0.026350	0.324642
C97	C	-0.404155	-0.640247	-0.261745
C98	C	-0.070822	-0.306914	0.071588
C99	C	0.262512	0.026420	0.404921
C100	C	-0.404157	-0.574812	-0.261749
C101	C	-0.070824	-0.241478	0.071585
C102	C	0.262510	0.091855	0.404918
C103	C	-0.356849	-0.542132	-0.301886
C104	C	-0.023516	-0.208799	0.031447
C105	C	0.309817	0.124534	0.364780
C106	C	-0.549287	-0.905343	-0.301881
C107	C	-0.215954	-0.572010	0.031452
C108	C	0.117379	-0.238677	0.364786
C109	C	-0.631601	-0.905365	-0.301894
C110	C	-0.298268	-0.572032	0.031439
C111	C	0.035065	-0.238698	0.364773
C112	C	-0.930692	-0.905502	-0.301928
C113	C	-0.597359	-0.572169	0.031406
C114	C	-0.264026	-0.238836	0.364739
C115	C	-0.899374	-0.857208	-0.350463
C116	C	-0.566041	-0.523874	-0.017130
C117	C	-0.232707	-0.190541	0.316203
C118	C	-0.813756	-0.856978	-0.350311
C119	C	-0.480423	-0.523645	-0.016978
C120	C	-0.147089	-0.190312	0.316355
C121	C	-0.782310	-0.905434	-0.301912
C122	C	-0.448976	-0.572101	0.031422
C123	C	-0.115643	-0.238768	0.364755
C124	C	-0.813456	-0.887553	-0.235878
C125	C	-0.480122	-0.554219	0.097455
C126	C	-0.146789	-0.220886	0.430789
C127	C	-0.899101	-0.887241	-0.236168
C128	C	-0.565767	-0.553908	0.097165
C129	C	-0.232434	-0.220575	0.430498
C130	C	-0.899045	-0.971784	-0.318845
C131	C	-0.565712	-0.638451	0.014489
C132	C	-0.232378	-0.305118	0.347822
C133	C	-0.813394	-0.971395	-0.320293
C134	C	-0.480061	-0.638061	0.013041
C135	C	-0.146727	-0.304728	0.346374
C136	C	-0.698450	-0.905397	-0.301898
C137	C	-0.365117	-0.572063	0.031435
C138	C	-0.031784	-0.238730	0.364768
C139	C	-1.014552	-0.905538	-0.301937
C140	C	-0.681218	-0.572205	0.031397
C141	C	-0.347885	-0.238872	0.364730
C142	C	-0.163715	-0.905529	-0.301932
C143	C	0.169619	-0.572195	0.031402
C144	C	0.502952	-0.238862	0.364735
C145	C	-0.081401	-0.905572	-0.301945
C146	C	0.251933	-0.572238	0.031388
C147	C	0.585266	-0.238905	0.364721
C148	C	-0.356831	-0.905477	-0.465323
C149	C	-0.023497	-0.572143	-0.131989
C150	C	0.309836	-0.238810	0.201344
C151	C	-0.356811	-0.905498	-0.534964
C152	C	-0.023478	-0.572164	-0.201631
C153	C	0.309855	-0.238831	0.131703
C154	C	-0.356903	-0.068851	-0.301915
C155	C	-0.023569	0.264483	0.031418
C156	C	0.309764	0.597816	0.364751
C157	C	-0.356891	-0.138492	-0.301909
C158	C	-0.023557	0.194842	0.031424
C159	C	0.309776	0.528175	0.364757
C160	C	-0.309432	-0.865460	-0.567670
C161	C	0.023902	-0.532126	-0.234337
C162	C	0.357235	-0.198793	0.098997
C163	C	-0.309418	-0.865458	-0.633105
C164	C	0.023915	-0.532124	-0.299772
C165	C	0.357249	-0.198791	0.033561
C166	C	-0.356776	-0.905505	-0.665832
C167	C	-0.023443	-0.572171	-0.332499
C168	C	0.309891	-0.238838	0.000834
C169	C	-0.404165	-0.945545	-0.633118
C170	C	-0.070831	-0.612212	-0.299785
C171	C	0.262502	-0.278878	0.033548
C172	C	-0.404182	-0.945542	-0.567684
C173	C	-0.070849	-0.612208	-0.234351
C174	C	0.262484	-0.278875	0.098982
C175	C	-0.362605	-0.961956	-0.769520
C176	C	-0.029272	-0.628623	-0.436187
C177	C	0.304061	-0.295290	-0.102853
C178	C	-0.362582	-0.961961	-0.834953
C179	C	-0.029249	-0.628628	-0.501620
C180	C	0.304084	-0.295294	-0.168286
C181	C	-0.356726	-0.905515	-0.867653
C182	C	-0.023393	-0.572182	-0.534320
C183	C	0.309941	-0.238848	-0.200987
C184	C	-0.350877	-0.849062	-0.834912
C185	C	-0.017543	-0.515729	-0.501579
C186	C	0.315790	-0.182396	-0.168246
C187	C	-0.350894	-0.849059	-0.769478
C188	C	-0.017561	-0.515726	-0.436145
C189	C	0.315772	-0.182392	-0.102812
C190	C	-0.356762	-0.905512	-0.736785
C191	C	-0.023429	-0.572179	-0.403451
C192	C	0.309904	-0.238846	-0.070118
C193	C	-0.309329	-0.865471	-0.971312
C194	C	0.024004	-0.532138	-0.637978
C195	C	0.357338	-0.198805	-0.304645
C196	C	-0.309320	-0.865468	-1.036748
C197	C	0.024013	-0.532135	-0.703415
C198	C	0.357346	-0.198801	-0.370082
C199	C	-0.404063	-0.945561	-1.036760
C200	C	-0.070730	-0.612228	-0.703427
C201	C	0.262603	-0.278895	-0.370094
C202	C	-0.404076	-0.945559	-0.971325
C203	C	-0.070742	-0.612226	-0.637992
C204	C	0.262591	-0.278892	-0.304658
C205	C	-0.356705	-0.905515	-0.938605
C206	C	-0.023371	-0.572181	-0.605271
C207	C	0.309962	-0.238848	-0.271938
C208	C	-0.356869	-0.905414	-0.139112
C209	C	-0.023536	-0.572081	0.194222
C210	C	0.309798	-0.238748	0.527555
C211	C	-0.356680	-0.905515	-0.069471
C212	C	-0.023347	-0.572181	0.263862
C213	C	0.309987	-0.238848	0.597196
H214	H	-0.346422	-0.346442	-0.404331
H215	H	-0.013089	-0.013109	-0.070998
H216	H	0.320244	0.320225	0.262336
H217	H	-0.271067	-0.144635	-0.374726
H218	H	0.062267	0.188698	-0.041393
H219	H	0.395600	0.522032	0.291941
H220	H	-0.270741	-0.832860	-1.063376
H221	H	0.062593	-0.499527	-0.730043
H222	H	0.395926	-0.166193	-0.396710
H223	H	-0.367297	-0.465042	-0.199454
H224	H	-0.033964	-0.131709	0.133880
H225	H	0.299370	0.201625	0.467213
H226	H	-0.442669	-0.666859	-0.229067
H227	H	-0.109336	-0.333526	0.104266
H228	H	0.223998	-0.000193	0.437600
N229	N	-0.455167	-0.988749	-0.936040
N230	N	-0.121833	-0.655416	-0.602706
N231	N	0.211500	-0.322082	-0.269373
H232	H	-0.489486	-0.963266	-0.908875
H233	H	-0.156153	-0.629933	-0.575542
H234	H	0.177181	-0.296599	-0.242208
H235	H	-0.485119	-1.014113	-0.966735
H236	H	-0.151785	-0.680780	-0.633402
H237	H	0.181548	-0.347447	-0.300068
H238	H	-0.793326	-0.807849	-0.339106
H239	H	-0.459993	-0.474515	-0.005772
H240	H	-0.126660	-0.141182	0.327561
N241	N	-0.344885	-0.473803	-0.419250
N242	N	-0.011552	-0.140470	-0.085917
N243	N	0.321781	0.192864	0.247417
H244	H	-0.345756	-0.520215	-0.410682
H245	H	-0.012423	-0.186882	-0.077349
H246	H	0.320911	0.146451	0.255984
H247	H	-0.387751	-0.462365	-0.447203
H248	H	-0.054418	-0.129032	-0.113870
H249	H	0.278915	0.204301	0.219463
N250	N	-0.786418	-0.989275	-0.384657
N251	N	-0.453084	-0.655942	-0.051324
N252	N	-0.119751	-0.322609	0.282010
H253	H	-0.830136	-0.995781	-0.413242
H254	H	-0.496803	-0.662448	-0.079908
H255	H	-0.163469	-0.329114	0.253425
H256	H	-0.754183	-0.954780	-0.401794
H257	H	-0.420849	-0.621447	-0.068461
H258	H	-0.087516	-0.288114	0.264873
N259	N	-0.344577	-0.788178	-0.734164
N260	N	-0.011244	-0.454845	-0.400830
N261	N	0.322089	-0.121511	-0.067497
H262	H	-0.340860	-0.752418	-0.764803
H263	H	-0.007527	-0.419084	-0.431470
H264	H	0.325807	-0.085751	-0.098137
H265	H	-0.389702	-0.782331	-0.707001
H266	H	-0.056369	-0.448998	-0.373668
H267	H	0.276965	-0.115665	-0.040334
H268	H	-0.442701	-0.263223	-0.229086
H269	H	-0.109367	0.070111	0.104247
H270	H	0.223966	0.403444	0.437581
N271	N	-0.785034	-1.021584	-0.276887
N272	N	-0.451701	-0.688251	0.056447
N273	N	-0.118368	-0.354918	0.389780
H274	H	-0.751488	-1.002189	-0.244545
H275	H	-0.418154	-0.668855	0.088788
H276	H	-0.084821	-0.335522	0.422122
H277	H	-0.828117	-1.042457	-0.255353
H278	H	-0.494783	-0.709123	0.077980
H279	H	-0.161450	-0.375790	0.411313
N280	N	-0.258520	-0.675633	-0.385312
N281	N	0.074814	-0.342300	-0.051978
N282	N	0.408147	-0.008966	0.281355
H283	H	-0.224164	-0.702781	-0.359895
H284	H	0.109169	-0.369448	-0.026561
H285	H	0.442502	-0.036114	0.306772
H286	H	-0.288703	-0.702749	-0.414300
H287	H	0.044630	-0.369416	-0.080966
H288	H	0.377963	-0.036083	0.252367
H289	H	-0.792064	-0.839614	-0.221291
H290	H	-0.458731	-0.506281	0.112042
H291	H	-0.125397	-0.172947	0.445376
N292	N	-0.455243	-0.988744	-0.668409
N293	N	-0.121909	-0.655410	-0.335075
N294	N	0.211424	-0.322077	-0.001742
H295	H	-0.508157	-0.978982	-0.657009
H296	H	-0.174823	-0.645649	-0.323676
H297	H	0.158510	-0.312315	0.009658
H298	H	-0.447980	-0.982655	-0.714814
H299	H	-0.114647	-0.649322	-0.381480
H300	H	0.218686	-0.315988	-0.048147
H301	H	-0.270832	-0.832855	-0.659740
H302	H	0.062501	-0.499522	-0.326406
H303	H	0.395835	-0.166188	0.006927
H304	H	-0.919297	-1.007765	-0.283494
H305	H	-0.585964	-0.674432	0.049839
H306	H	-0.252631	-0.341099	0.383172
H307	H	-0.919137	-0.838790	-0.221838
H308	H	-0.585804	-0.505456	0.111495
H309	H	-0.252470	-0.172123	0.444828
N310	N	-0.785851	-0.871793	-0.415167
N311	N	-0.452518	-0.538460	-0.081834
N312	N	-0.119185	-0.205126	0.251499
H313	H	-0.829186	-0.878532	-0.444113
H314	H	-0.495853	-0.545198	-0.110780
H315	H	-0.162520	-0.211865	0.222554
H316	H	-0.754964	-0.835808	-0.430965
H317	H	-0.421631	-0.502475	-0.097631
H318	H	-0.088298	-0.169142	0.235702
H319	H	-0.271027	-0.548271	-0.374705
H320	H	0.062306	-0.214938	-0.041372
H321	H	0.395640	0.118396	0.291962
H322	H	-0.442675	-0.548149	-0.229067
H323	H	-0.109342	-0.214816	0.104266
H324	H	0.223992	0.118518	0.437600
H325	H	-0.367342	-1.007928	-0.861606
H326	H	-0.034008	-0.674595	-0.528272
H327	H	0.299325	-0.341261	-0.194939
N328	N	-0.926554	-0.931809	-0.186634
N329	N	-0.593221	-0.598476	0.146699
N330	N	-0.259888	-0.265142	0.480033
H331	H	-0.883018	-0.951568	-0.164704
H332	H	-0.549685	-0.618235	0.168629
H333	H	-0.216352	-0.284901	0.501962
H334	H	-0.957534	-0.908167	-0.155261
H335	H	-0.624200	-0.574834	0.178073
H336	H	-0.290867	-0.241501	0.511406
H337	H	-0.346103	-0.803099	-0.861535
H338	H	-0.012769	-0.469766	-0.528202
H339	H	0.320564	-0.136432	-0.194869
H340	H	-0.442764	-0.978148	-0.541055
H341	H	-0.109430	-0.644815	-0.207722
H342	H	0.223903	-0.311481	0.125611
H343	H	-0.367314	-0.346338	-0.199458
H344	H	-0.033981	-0.013004	0.133875
H345	H	0.299352	0.320329	0.467208
H346	H	-0.442622	-0.978170	-1.063406
H347	H	-0.109288	-0.644836	-0.730073
H348	H	0.224045	-0.311503	-0.396739
H349	H	-0.442721	-0.144509	-0.229092
H350	H	-0.109388	0.188824	0.104242
H351	H	0.223945	0.522157	0.437575
H352	H	-0.270757	-0.832865	-0.944669
H353	H	0.062576	-0.499531	-0.611336
H354	H	0.395909	-0.166198	-0.278003
N355	N	-0.927591	-0.993392	-0.381535
N356	N	-0.594258	-0.660059	-0.048202
N357	N	-0.260925	-0.326726	0.285132
H358	H	-0.912016	-0.962741	-0.414918
H359	H	-0.578683	-0.629407	-0.081585
H360	H	-0.245350	-0.296074	0.251749
H361	H	-0.906587	-1.036011	-0.391400
H362	H	-0.573254	-0.702677	-0.058067
H363	H	-0.239920	-0.369344	0.275266
H364	H	-0.793088	-0.921621	-0.198729
H365	H	-0.459754	-0.588288	0.134604
H366	H	-0.126421	-0.254955	0.467937
N367	N	-0.258333	-0.822278	-0.532379
N368	N	0.075001	-0.488945	-0.199045
N369	N	0.408334	-0.155612	0.134288
H370	H	-0.228313	-0.796916	-0.563031
H371	H	0.105021	-0.463583	-0.229698
H372	H	0.438354	-0.130250	0.103635
H373	H	-0.288467	-0.793261	-0.505209
H374	H	0.044866	-0.459927	-0.171876
H375	H	0.378200	-0.126594	0.161457
H376	H	-0.919925	-0.868285	-0.399585
H377	H	-0.586592	-0.534952	-0.066252
H378	H	-0.253259	-0.201618	0.267082
N379	N	-0.368936	-1.022840	-0.734253
N380	N	-0.035602	-0.689507	-0.400920
N381	N	0.297731	-0.356174	-0.067587
H382	H	-0.372635	-1.058602	-0.764922
H383	H	-0.039302	-0.725268	-0.431588
H384	H	0.294032	-0.391935	-0.098255
H385	H	-0.323826	-1.028685	-0.707111
H386	H	0.009508	-0.695352	-0.373778
H387	H	0.342841	-0.362018	-0.040444
H388	H	-0.271057	-0.263342	-0.374719
H389	H	0.062276	0.069992	-0.041386
H390	H	0.395610	0.403325	0.291947
H391	H	-0.920954	-0.808377	-0.339398
H392	H	-0.587621	-0.475044	-0.006065
H393	H	-0.254287	-0.141710	0.327268
