data_functionalizedCrystal
_audit_creation_method	'MofGen! by Chris Wilmer'
_symmetry_space_group_name_H-M	'P1'
_symmetry_Int_Tables_number	1
_symmetry_cell_setting	triclinic
loop_
_symmetry_equiv_pos_as_xyz
  x,y,z
_cell_length_a	28.938199
_cell_length_b	28.937346
_cell_length_c	28.934044
_cell_angle_alpha	60.005004
_cell_angle_beta	60.009897
_cell_angle_gamma	59.994060
loop_
_atom_site_label
_atom_site_type_symbol
_atom_site_fract_x
_atom_site_fract_y
_atom_site_fract_z
O1	O	0.064043	-0.675186	0.564597
O2	O	0.024124	-0.525682	0.454913
O3	O	0.118795	-0.620275	0.454833
O4	O	-0.030629	-0.580593	0.564678
O5	O	0.150204	-0.588870	0.486157
O6	O	0.055533	-0.494276	0.486238
O7	O	0.095452	-0.643780	0.595921
Cu8	Cu	0.078360	-0.566161	0.543940
Cu9	Cu	0.041215	-0.603301	0.506895
O10	O	0.000780	-0.549187	0.596002
N11	N	0.104487	-0.540042	0.569998
N12	N	0.015094	-0.629425	0.480837
C13	C	0.165467	-0.323909	0.630915
C14	C	0.165587	-0.479117	0.786068
C15	C	0.165481	-0.479095	0.630906
C16	C	0.320696	-0.479083	0.630835
C17	C	0.182557	-0.375118	0.647971
C18	C	0.182626	-0.462038	0.734858
C19	C	0.269485	-0.462018	0.647928
C20	C	0.182566	-0.462025	0.647966
C21	C	0.143714	-0.258726	0.609206
C22	C	0.143738	-0.500820	0.609192
C23	C	0.204309	-0.440300	0.669680
C24	C	0.415481	-0.462740	0.580919
C25	C	0.474732	-0.482485	0.561145
C26	C	0.474757	-0.578356	0.597704
C27	C	0.415508	-0.558609	0.617479
C28	C	0.157989	-0.229089	0.550957
C29	C	0.138212	-0.169834	0.531225
C30	C	0.089890	-0.169857	0.627992
C31	C	0.109667	-0.229112	0.647725
C32	C	0.085482	-0.486515	0.623535
C33	C	0.065722	-0.506265	0.603789
C34	C	0.162467	-0.554625	0.555370
C35	C	0.182230	-0.534875	0.575110
C36	C	0.085661	-0.486557	0.880902
C37	C	0.065952	-0.506323	0.940155
C38	C	0.162734	-0.554693	0.940102
C39	C	0.182441	-0.534928	0.880847
C40	C	0.143904	-0.500859	0.851249
C41	C	0.385871	-0.500801	0.609083
C42	C	-0.110907	-0.668480	0.441278
C43	C	-0.024049	-0.668588	0.441475
C44	C	-0.045729	-0.690282	0.419668
C45	C	-0.062146	-0.785032	0.469507
C46	C	-0.042446	-0.844287	0.489286
C47	C	0.053426	-0.844399	0.452899
C48	C	0.033725	-0.785144	0.433120
C49	C	-0.140617	-0.682751	0.499509
C50	C	-0.199867	-0.662928	0.519152
C51	C	-0.199694	-0.614571	0.422330
C52	C	-0.140443	-0.634393	0.402687
C53	C	-0.038320	-0.610337	0.427144
C54	C	-0.018610	-0.590621	0.446974
C55	C	0.029642	-0.687402	0.495454
C56	C	0.009933	-0.707121	0.475630
C57	C	-0.038148	-0.610347	0.324832
C58	C	-0.018301	-0.590634	0.265579
C59	C	0.030035	-0.687421	0.265643
C60	C	0.010190	-0.707133	0.324897
C61	C	-0.023903	-0.668595	0.354491
C62	C	-0.024062	-0.755463	0.441426
N63	N	0.503527	-0.540005	0.569810
O64	O	0.684453	-0.545211	0.434650
O65	O	0.684643	-0.655237	0.584005
O66	O	0.684567	-0.654986	0.489282
O67	O	0.684529	-0.545462	0.529373
O68	O	0.590438	-0.623674	0.520735
O69	O	0.590513	-0.623924	0.615457
O70	O	0.590323	-0.513899	0.466102
Cu71	Cu	0.581823	-0.566053	0.543652
Cu72	Cu	0.693143	-0.603083	0.506456
O73	O	0.590399	-0.514149	0.560825
N74	N	0.771439	-0.629131	0.480292
N75	N	0.104456	-0.141061	0.570015
O76	O	-0.030629	0.039964	0.564688
O77	O	0.118732	0.039984	0.454661
O78	O	0.023980	0.039958	0.454946
O79	O	0.064123	0.039990	0.564403
O80	O	0.055392	-0.054179	0.486321
O81	O	0.150144	-0.054153	0.486036
O82	O	0.000784	-0.054173	0.596063
Cu83	Cu	0.078332	-0.062759	0.543914
Cu84	Cu	0.041183	0.048570	0.506810
O85	O	0.095535	-0.054147	0.595778
N86	N	0.015053	0.126872	0.480710
N87	N	0.104760	-0.540096	0.968910
O88	O	0.099447	-0.675167	1.149923
O89	O	-0.010552	-0.525757	1.149951
O90	O	-0.010297	-0.620493	1.149918
O91	O	0.099192	-0.580431	1.149956
O92	O	0.021064	-0.589100	1.055785
O93	O	0.020809	-0.494365	1.055818
O94	O	0.130808	-0.643774	1.055790
Cu95	Cu	0.078672	-0.566203	1.047209
Cu96	Cu	0.041584	-0.603328	1.158532
O97	O	0.130553	-0.549038	1.055823
N98	N	0.015495	-0.629442	1.236831
C99	C	0.036087	-0.491140	0.455465
C100	C	0.153325	-0.608283	0.455364
C101	C	0.083488	-0.678322	0.595370
C102	C	-0.033750	-0.561180	0.595470
C103	C	0.637601	-0.654732	0.618548
C104	C	0.637509	-0.654422	0.501245
C105	C	0.637362	-0.514403	0.431560
C106	C	0.637458	-0.514713	0.548862
C107	C	0.153215	-0.006966	0.455158
C108	C	0.035916	-0.007114	0.455550
C109	C	-0.033739	-0.007106	0.595527
C110	C	0.083600	-0.007076	0.595174
C111	C	-0.010020	-0.491238	1.102888
C112	C	-0.009698	-0.608550	1.102828
C113	C	0.130276	-0.678293	1.102853
C114	C	0.129961	-0.560974	1.102892
H115	H	0.054276	-0.458811	0.856808
H116	H	0.196022	-0.006699	0.420530
H117	H	-0.076633	-0.007113	0.630069
H118	H	0.637525	-0.688829	0.492664
O119	O	-0.050769	-0.618760	1.102867
C120	C	-0.098519	-0.612458	1.151596
H121	H	-0.084999	-0.618611	1.185707
H122	H	-0.118592	-0.645417	1.167914
H123	H	-0.130579	-0.568253	1.140570
H124	H	0.637649	-0.689271	0.661445
O125	O	-0.084973	-0.551154	0.636607
C126	C	-0.110063	-0.590033	0.651857
H127	H	-0.091342	-0.606548	0.615549
H128	H	-0.157682	-0.568066	0.661159
H129	H	-0.101453	-0.626923	0.691193
O130	O	0.093570	-0.729517	0.636540
C131	C	0.044936	-0.729657	0.685343
H132	H	0.017945	-0.684293	0.684789
H133	H	0.058171	-0.754858	0.724664
H134	H	0.019368	-0.749934	0.686038
H135	H	0.164813	-0.721202	1.102837
H136	H	-0.224058	-0.674545	0.566571
H137	H	0.164358	-0.552401	1.102897
H138	H	0.100481	-0.868567	0.446139
H139	H	0.092195	-0.007066	0.629560
O140	O	-0.051168	-0.440024	1.102922
C141	C	-0.030791	-0.404800	1.102924
H142	H	0.005545	-0.432020	1.120746
H143	H	-0.066359	-0.377683	1.130260
H144	H	-0.015082	-0.376214	1.057768
O145	O	0.637470	-0.473611	0.558989
C146	C	0.637387	-0.424750	0.510406
H147	H	0.655180	-0.437099	0.471486
H148	H	0.664704	-0.403650	0.505432
H149	H	0.592211	-0.393991	0.515012
H150	H	0.027318	-0.007118	0.421162
O151	O	0.009359	-0.492443	0.968893
C152	C	-0.015261	-0.512713	0.954436
H153	H	0.012810	-0.518513	0.911407
H154	H	-0.058853	-0.480955	0.952430
H155	H	-0.019650	-0.555062	0.987778
O156	O	0.200246	-0.587800	0.968766
C157	C	0.255880	-0.596173	0.929887
H158	H	0.255743	-0.589539	0.887655
H159	H	0.284029	-0.641115	0.946984
H160	H	0.272853	-0.564638	0.923585
O161	O	0.503634	-0.634488	0.605787
C162	C	0.562279	-0.643755	0.582307
H163	H	0.570348	-0.602974	0.548344
H164	H	0.584791	-0.678374	0.562612
H165	H	0.579120	-0.657412	0.616976
H166	H	0.027560	-0.448192	0.421017
H167	H	0.054136	-0.458786	0.651283
O168	O	0.239017	-0.548889	0.852018
C169	C	0.253317	-0.578700	0.817730
H170	H	0.219921	-0.598756	0.835598
H171	H	0.296340	-0.613227	0.817035
H172	H	0.255255	-0.548225	0.772831
O173	O	0.009114	-0.492344	0.617796
C174	C	-0.020625	-0.458047	0.652106
H175	H	0.007656	-0.465609	0.673628
H176	H	-0.060145	-0.469171	0.685646
H177	H	-0.033435	-0.411630	0.624792
H178	H	0.193817	-0.582360	0.527624
O179	O	0.637215	-0.473208	0.380394
C180	C	0.588435	-0.460085	0.370285
H181	H	0.572229	-0.497520	0.396693
H182	H	0.599352	-0.450830	0.323483
H183	H	0.554281	-0.421294	0.382503
H184	H	0.229667	-0.546519	0.563426
H185	H	0.498841	-0.451490	0.538213
O186	O	0.386834	-0.595658	0.644805
C187	C	0.425703	-0.650915	0.647982
H188	H	0.467923	-0.648653	0.612973
H189	H	0.408580	-0.675238	0.642626
H190	H	0.432036	-0.673535	0.690913
H191	H	0.391352	-0.415667	0.574082
H192	H	0.185713	-0.253197	0.519589
H193	H	0.149834	-0.145702	0.483792
H194	H	0.062174	-0.145744	0.659359
H195	H	-0.029909	-0.543201	0.241439
O196	O	0.095768	-0.257812	0.704327
C197	C	0.061462	-0.218964	0.734090
H198	H	0.069003	-0.176720	0.705832
H199	H	0.072593	-0.236089	0.773622
H200	H	0.015052	-0.212671	0.746882
H201	H	-0.065911	-0.578960	0.348925
H202	H	0.021795	-0.754566	0.349042
O203	O	0.063078	-0.724914	0.236963
C204	C	0.033134	-0.759108	0.251365
H205	H	-0.001411	-0.759638	0.294345
H206	H	0.063507	-0.804067	0.253446
H207	H	0.013095	-0.741271	0.217949
O208	O	-0.071413	-0.572881	0.394055
C209	C	-0.121118	-0.538568	0.423906
H210	H	-0.129434	-0.561431	0.471324
H211	H	-0.158403	-0.529564	0.413216
H212	H	-0.115710	-0.496962	0.411318
O213	O	-0.032363	-0.534050	0.433033
C214	C	0.017454	-0.519813	0.403293
H215	H	0.054634	-0.558900	0.414059
H216	H	0.012151	-0.485461	0.415919
H217	H	0.025862	-0.503565	0.355852
O218	O	0.062627	-0.724911	0.528642
C219	C	0.071008	-0.780551	0.537020
H220	H	0.035316	-0.780400	0.530311
H221	H	0.071238	-0.808672	0.581986
H222	H	0.113246	-0.797573	0.505540
H223	H	0.064741	-0.761071	0.410254
O224	O	0.023714	-0.763697	0.489577
C225	C	-0.026080	-0.777972	0.519284
H226	H	-0.061694	-0.744568	0.539331
H227	H	-0.018318	-0.821001	0.553808
H228	H	-0.038493	-0.779891	0.488738
H229	H	-0.073458	-0.868361	0.512142
H230	H	-0.116569	-0.710512	0.530934
O231	O	-0.118268	-0.756219	0.477484
C232	C	-0.136301	-0.770689	0.450805
H233	H	-0.098422	-0.787030	0.415849
H234	H	-0.168871	-0.731697	0.431737
H235	H	-0.156192	-0.805038	0.483255
O236	O	-0.228330	-0.581528	0.384792
C237	C	-0.213827	-0.611465	0.350537
H238	H	-0.170834	-0.645997	0.350030
H239	H	-0.211723	-0.581079	0.305582
H240	H	-0.247194	-0.631525	0.368299
O241	O	-0.111515	-0.620634	0.346131
C242	C	-0.077257	-0.670444	0.331849
H243	H	-0.068463	-0.707672	0.370933
H244	H	-0.035551	-0.665202	0.297554
H245	H	-0.100053	-0.678736	0.315511
H246	H	0.196241	-0.616742	0.420869
