data_functionalizedCrystal
_audit_creation_method	'MofGen! by Chris Wilmer'
_symmetry_space_group_name_H-M	'P1'
_symmetry_Int_Tables_number	1
_symmetry_cell_setting	triclinic
loop_
_symmetry_equiv_pos_as_xyz
  x,y,z
_cell_length_a	16.625547
_cell_length_b	16.625546
_cell_length_c	16.625539
_cell_angle_alpha	90.028532
_cell_angle_beta	90.021309
_cell_angle_gamma	90.022405
loop_
_atom_site_label
_atom_site_type_symbol
_atom_site_fract_x
_atom_site_fract_y
_atom_site_fract_z
Zn1	Zn	1.232653	-0.321016	0.455989
Zn2	Zn	1.232564	-0.455855	0.321151
Zn3	Zn	1.097823	-0.321040	0.321160
Zn4	Zn	1.097785	-0.455811	0.455931
O5	O	1.165206	-0.388430	0.388558
O6	O	1.345473	-0.338912	0.438123
O7	O	1.214669	-0.438000	0.208320
O8	O	1.115761	-0.208204	0.339073
O9	O	1.345408	-0.437977	0.339059
O10	O	1.214820	-0.208187	0.438131
O11	O	1.115675	-0.338952	0.208326
O12	O	0.984985	-0.338909	0.339017
O13	O	1.115696	-0.437901	0.568771
O14	O	0.984957	-0.437924	0.438033
O15	O	1.214783	-0.338869	0.568814
O16	O	1.214632	-0.568682	0.339003
O17	O	1.115611	-0.568649	0.438025
C18	C	0.955715	-0.388415	0.388520
C19	C	0.866094	-0.388428	0.388523
C20	C	0.793312	-0.388429	0.388533
C21	C	0.702003	-0.388433	0.388553
C22	C	0.629227	-0.388441	0.388573
C23	C	0.537912	-0.388446	0.388593
C24	C	1.165130	-0.597921	0.388524
C25	C	1.165171	-0.687542	0.388537
C26	C	1.165311	-1.015718	0.388621
C27	C	1.165270	-0.924410	0.388599
C28	C	1.165240	-0.851633	0.388578
C29	C	1.165200	-0.760319	0.388558
C30	C	1.375515	-0.388447	0.388597
C31	C	1.465136	-0.388454	0.388613
C32	C	1.165246	-0.388377	0.598867
C33	C	1.165262	-0.388355	0.688488
C34	C	1.165305	-0.178122	0.388609
C35	C	1.165347	-0.088500	0.388631
C36	C	1.165213	-0.388425	0.179067
C37	C	1.165352	-0.388221	0.089446
C38	C	1.165276	-0.388337	0.761271
C39	C	1.165294	-0.388307	0.852579
C40	C	1.165313	-0.388278	0.925356
C41	C	1.165333	-0.388249	1.016670
