data_functionalizedCrystal
_audit_creation_method	'MofGen! by Chris Wilmer'
_symmetry_space_group_name_H-M	'P1'
_symmetry_Int_Tables_number	1
_symmetry_cell_setting	triclinic
loop_
_symmetry_equiv_pos_as_xyz
  x,y,z
_cell_length_a	6.817900
_cell_length_b	11.168138
_cell_length_c	10.943624
_cell_angle_alpha	91.898934
_cell_angle_beta	108.838799
_cell_angle_gamma	108.508793
loop_
_atom_site_label
_atom_site_type_symbol
_atom_site_fract_x
_atom_site_fract_y
_atom_site_fract_z
V1	V	-4.113778	-0.174672	-0.402562
O2	O	-4.073287	0.008428	-0.394888
O3	O	-4.090041	-0.346377	-0.399819
O4	O	-4.091767	-0.171970	-0.578128
O5	O	-4.071548	-0.167187	-0.215344
V6	V	-4.590791	-0.152773	-0.380168
O7	O	-4.389317	-0.222709	-0.451685
O8	O	-4.765449	-0.104735	-0.331045
O9	O	-4.391322	0.018933	-0.382910
O10	O	-4.748679	-0.335872	-0.387842
O11	O	-4.750418	-0.160257	-0.567385
O12	O	-4.389595	-0.155474	-0.204602
C13	C	-3.940188	-0.388236	-0.393471
C14	C	-4.002242	-0.528607	-0.392399
C15	C	-3.855010	-0.585079	-0.385798
C16	C	-3.919142	-0.730160	-0.384690
C17	C	-3.942388	-0.165760	-0.620921
C18	C	-4.005839	-0.164687	-0.764447
C19	C	-3.850740	-0.157463	-0.841594
C20	C	-4.039044	-0.264698	-0.947591
C21	C	-3.930618	-0.055553	-0.914191
C22	C	-4.193353	-0.272023	-0.868567
C23	C	-4.084848	-0.062784	-0.835144
C24	C	-4.273288	-0.170049	-0.941111
C25	C	-4.204518	0.060785	-0.389255
C26	C	-4.121703	0.201155	-0.390335
C27	C	-4.202316	-0.161688	-0.161803
C28	C	-4.118103	-0.162754	-0.018275
H29	H	-4.175765	-0.587665	-0.397217
H30	H	-3.793201	-0.778749	-0.379043
H31	H	-4.452550	-0.175396	-0.984356
H32	H	-3.671590	-0.152285	-0.798145
H33	H	-3.681476	-0.526018	-0.380959
O34	O	-4.014291	-0.377758	-1.012467
H35	H	-3.839437	-0.372339	-0.972399
H36	H	-4.103464	0.022582	-0.786155
O37	O	-4.288585	-0.734521	-0.397833
H38	H	-4.225170	-0.661258	-0.310187
H39	H	-4.303835	-0.363609	-0.848028
H40	H	-3.820169	0.035911	-0.934948
