data_functionalizedCrystal
_audit_creation_method	'MofGen! by Chris Wilmer'
_symmetry_space_group_name_H-M	'P1'
_symmetry_Int_Tables_number	1
_symmetry_cell_setting	triclinic
loop_
_symmetry_equiv_pos_as_xyz
  x,y,z
_cell_length_a	16.109301
_cell_length_b	13.596369
_cell_length_c	16.109301
_cell_angle_alpha	90.007411
_cell_angle_beta	83.461481
_cell_angle_gamma	90.002607
loop_
_atom_site_label
_atom_site_type_symbol
_atom_site_fract_x
_atom_site_fract_y
_atom_site_fract_z
O1	O	1.103133	0.081732	0.106869
O2	O	1.436466	0.415066	0.440202
O3	O	1.769799	0.748399	0.773535
O4	O	0.861071	0.081748	0.120168
O5	O	1.194404	0.415082	0.453501
O6	O	1.527737	0.748415	0.786835
O7	O	0.988751	0.081730	-0.007513
O8	O	1.322085	0.415063	0.325821
O9	O	1.655418	0.748397	0.659154
O10	O	0.975452	0.081751	0.234549
O11	O	1.308785	0.415084	0.567882
O12	O	1.642119	0.748417	0.901216
O13	O	0.988739	-0.081853	-0.007520
O14	O	1.322072	0.251480	0.325814
O15	O	1.655405	0.584814	0.659147
O16	O	0.861058	-0.081835	0.120161
O17	O	1.194391	0.251499	0.453494
O18	O	1.527725	0.584832	0.786828
O19	O	1.103120	-0.081851	0.106862
O20	O	1.436453	0.251483	0.440195
O21	O	1.769787	0.584816	0.773528
Zn22	Zn	0.982087	-0.107815	0.113510
Zn23	Zn	1.315420	0.225518	0.446844
Zn24	Zn	1.648754	0.558852	0.780177
Zn25	Zn	0.982104	0.107713	0.113519
Zn26	Zn	1.315437	0.441046	0.446853
Zn27	Zn	1.648770	0.774379	0.780186
O28	O	0.975439	-0.081832	0.234542
O29	O	1.308773	0.251501	0.567876
O30	O	1.642106	0.584835	0.901209
C31	C	0.830090	-0.000041	0.119626
C32	C	1.163423	0.333292	0.452959
C33	C	1.496756	0.666626	0.786292
C34	C	0.737794	-0.000035	0.118011
C35	C	1.071128	0.333298	0.451344
C36	C	1.404461	0.666631	0.784677
N37	N	0.982082	-0.254907	0.113504
N38	N	1.315415	0.078427	0.446837
N39	N	1.648748	0.411760	0.780170
C40	C	0.515522	-0.000041	0.190018
C41	C	0.848855	0.333293	0.523352
C42	C	1.182188	0.666626	0.856685
C43	C	0.428801	-0.000047	0.188494
C44	C	0.762135	0.333286	0.521828
C45	C	1.095468	0.666620	0.855161
C46	C	0.448676	-0.000056	0.037006
C47	C	0.782009	0.333277	0.370339
C48	C	1.115342	0.666611	0.703672
C49	C	0.535394	-0.000057	0.038530
C50	C	0.868728	0.333277	0.371864
C51	C	1.202061	0.666610	0.705197
C52	C	0.568815	-0.000044	0.115039
C53	C	0.902148	0.333289	0.448373
C54	C	1.235482	0.666623	0.781706
C55	C	0.395376	-0.000050	0.111990
C56	C	0.728709	0.333284	0.445324
C57	C	1.062042	0.666617	0.778657
C58	C	0.301350	-0.000057	0.110337
C59	C	0.634683	0.333277	0.443671
C60	C	0.968016	0.666610	0.777004
C61	C	0.662847	-0.000039	0.116693
C62	C	0.996180	0.333295	0.450026
C63	C	1.329514	0.666628	0.783359
C64	C	0.982103	-0.656198	0.113520
C65	C	1.315436	-0.322864	0.446853
C66	C	1.648769	0.010469	0.780187
C67	C	0.982094	-0.544546	0.113518
C68	C	1.315428	-0.211213	0.446852
C69	C	1.648761	0.122120	0.780185
C70	C	0.982093	-0.455556	0.113513
C71	C	1.315426	-0.122222	0.446846
C72	C	1.648759	0.211111	0.780179
C73	C	0.982083	-0.343897	0.113510
C74	C	1.315417	-0.010564	0.446843
C75	C	1.648750	0.322769	0.780176
C76	C	1.134101	-0.000059	0.107404
C77	C	1.467435	0.333274	0.440737
C78	C	1.800768	0.666608	0.774071
C79	C	1.226397	-0.000058	0.109019
C80	C	1.559730	0.333275	0.442352
C81	C	1.893063	0.666608	0.775686
C82	C	0.988206	-0.000062	-0.038491
C83	C	1.321540	0.333271	0.294842
C84	C	1.654873	0.666605	0.628176
C85	C	0.986591	-0.000063	-0.130786
C86	C	1.319925	0.333270	0.202547
C87	C	1.653258	0.666603	0.535880
N88	N	0.982116	0.254805	0.113519
N89	N	1.315449	0.588138	0.446853
N90	N	1.648782	0.921471	0.780186
C91	C	1.058599	-0.000052	-0.353059
C92	C	1.391932	0.333281	-0.019725
C93	C	1.725266	0.666614	0.313608
C94	C	1.057075	-0.000044	-0.439779
C95	C	1.390408	0.333289	-0.106446
C96	C	1.723742	0.666622	0.226888
C97	C	0.905586	-0.000038	-0.419905
C98	C	1.238919	0.333295	-0.086571
C99	C	1.572253	0.666629	0.246762
C100	C	0.907111	-0.000039	-0.333186
C101	C	1.240444	0.333294	0.000147
C102	C	1.573778	0.666627	0.333481
C103	C	0.983620	-0.000051	-0.299766
C104	C	1.316953	0.333282	0.033568
C105	C	1.650287	0.666615	0.366901
C106	C	0.980571	-0.000042	-0.473205
C107	C	1.313904	0.333291	-0.139871
C108	C	1.647238	0.666625	0.193462
C109	C	0.978918	-0.000033	-0.567231
C110	C	1.312251	0.333300	-0.233897
C111	C	1.645585	0.666633	0.099436
C112	C	0.985273	-0.000058	-0.205734
C113	C	1.318607	0.333275	0.127600
C114	C	1.651940	0.666608	0.460933
C115	C	0.975984	-0.000038	0.265521
C116	C	1.309318	0.333295	0.598854
C117	C	1.642651	0.666629	0.932187
C118	C	0.977600	-0.000030	0.357816
C119	C	1.310933	0.333303	0.691149
C120	C	1.644266	0.666636	1.024483
H121	H	0.542730	-0.000038	0.252317
H122	H	0.876063	0.333296	0.585650
H123	H	1.209396	0.666629	0.918983
F124	F	0.372086	-0.000045	0.268298
F125	F	0.705419	0.333288	0.601631
F126	F	1.038753	0.666622	0.934964
F127	F	0.413100	-0.000065	-0.044416
F128	F	0.746433	0.333268	0.288917
F129	F	1.079766	0.666601	0.622251
F130	F	1.136878	-0.000043	-0.496495
F131	F	1.470211	0.333290	-0.163161
F132	F	1.803545	0.666623	0.170172
H133	H	0.578788	-0.000062	-0.022530
H134	H	0.912122	0.333271	0.310803
H135	H	1.245455	0.666605	0.644136
F136	F	1.140026	-0.000064	-0.317493
F137	F	1.473360	0.333269	0.015840
F138	F	1.806693	0.666602	0.349173
F139	F	0.824164	-0.000025	-0.455481
F140	F	1.157498	0.333309	-0.122148
F141	F	1.490831	0.666642	0.211186
F142	F	0.827304	-0.000031	-0.276464
F143	F	1.160637	0.333302	0.056870
F144	F	1.493970	0.666636	0.390203
