data_functionalizedCrystal
_audit_creation_method	'MofGen! by Chris Wilmer'
_symmetry_space_group_name_H-M	'P1'
_symmetry_Int_Tables_number	1
_symmetry_cell_setting	triclinic
loop_
_symmetry_equiv_pos_as_xyz
  x,y,z
_cell_length_a	18.215407
_cell_length_b	17.637651
_cell_length_c	17.639309
_cell_angle_alpha	65.653869
_cell_angle_beta	101.192046
_cell_angle_gamma	101.219162
loop_
_atom_site_label
_atom_site_type_symbol
_atom_site_fract_x
_atom_site_fract_y
_atom_site_fract_z
Zn1	Zn	1.005879	-0.233914	-0.399613
Zn2	Zn	1.005809	-0.399662	-0.233885
Zn3	Zn	0.903501	-0.261822	-0.261794
Zn4	Zn	0.862118	-0.371741	-0.371676
O5	O	0.944327	-0.316785	-0.316742
O6	O	1.108851	-0.255906	-0.377640
O7	O	1.009528	-0.404742	-0.122243
O8	O	0.934430	-0.142752	-0.303448
O9	O	1.108800	-0.377680	-0.255880
O10	O	1.009647	-0.122248	-0.404702
O11	O	0.934362	-0.303472	-0.142748
O12	O	0.795030	-0.276398	-0.276359
O13	O	0.863898	-0.330093	-0.490726
O14	O	0.764626	-0.357155	-0.357089
O15	O	0.969519	-0.228832	-0.511251
O16	O	0.969400	-0.511326	-0.228791
O17	O	0.863830	-0.490812	-0.330026
C18	C	0.753126	-0.316775	-0.316721
C19	C	0.671324	-0.316787	-0.316728
C20	C	0.912134	-0.530979	-0.273367
C21	C	0.898425	-0.622607	-0.254838
C22	C	0.467315	-0.358934	-0.358681
C23	C	0.390454	-0.358934	-0.358691
C24	C	0.422085	-0.274647	-0.274818
C25	C	0.498944	-0.274642	-0.274814
C26	C	0.521557	-0.316790	-0.316743
C27	C	0.367837	-0.316796	-0.316757
C28	C	0.284501	-0.316796	-0.316767
C29	C	0.604898	-0.316789	-0.316734
C30	C	1.048912	-0.870232	-0.457761
C31	C	1.036009	-0.956333	-0.440336
C32	C	0.957763	-0.977812	-0.334798
C33	C	0.970663	-0.891712	-0.352211
C34	C	1.016237	-0.837928	-0.413694
C35	C	0.937988	-0.859407	-0.308144
C36	C	0.950883	-0.773314	-0.325559
C37	C	0.996453	-0.719525	-0.387040
C38	C	1.029132	-0.751834	-0.431109
C39	C	0.892410	-0.913192	-0.246665
C40	C	0.859735	-0.880888	-0.202598
C41	C	0.872634	-0.794794	-0.220008
C42	C	0.918204	-0.741004	-0.281490
C43	C	0.839956	-0.762484	-0.175940
C44	C	0.852851	-0.676390	-0.193355
C45	C	0.931100	-0.654911	-0.298905
C46	C	1.136274	-0.316794	-0.316763
C47	C	1.218070	-0.316799	-0.316772
C48	C	0.912100	-0.273235	-0.531732
C49	C	0.898367	-0.254676	-0.623348
C50	C	0.976662	-0.101750	-0.360305
C51	C	0.990442	-0.010115	-0.378868
C52	C	0.839879	-0.175799	-0.763152
C53	C	0.852788	-0.193243	-0.677064
C54	C	0.931052	-0.298693	-0.655705
C55	C	0.918146	-0.281260	-0.741792
C56	C	0.872560	-0.219812	-0.795510
C57	C	0.950827	-0.325274	-0.774150
C58	C	0.937926	-0.307839	-0.860231
C59	C	0.892343	-0.246391	-0.913954
C60	C	0.859659	-0.202377	-0.881590
C61	C	0.996417	-0.386718	-0.720432
C62	C	1.029098	-0.430731	-0.752790
C63	C	1.016193	-0.413301	-0.838871
C64	C	0.970610	-0.351853	-0.892594
C65	C	1.048877	-0.457315	-0.871234
C66	C	1.035976	-0.439880	-0.957315
C67	C	0.957709	-0.334419	-0.978675
C68	C	0.976479	-0.360106	-0.102601
C69	C	0.990390	-0.378432	-0.011032
H70	H	0.485723	-0.393251	-0.392825
H71	H	1.006922	-0.400909	-0.650340
C72	C	1.071924	-0.488300	-0.992910
N73	N	1.099002	-0.524769	-1.019720
H74	H	0.543112	-0.240319	-0.240664
H75	H	0.968217	-0.611118	-0.348965
C76	C	1.099024	-0.524903	-0.812135
N77	N	1.136795	-0.575811	-0.767621
C78	C	0.397204	-0.228292	-0.228693
N79	N	0.378464	-0.193378	-0.193948
H80	H	0.920655	-1.021614	-0.284740
H81	H	1.006952	-0.649422	-0.401218
H82	H	0.802756	-0.125763	-0.806892
C83	C	1.071957	-0.991863	-0.488819
N84	N	1.099032	-1.018624	-0.525337
H85	H	0.920585	-0.284383	-1.022414
C86	C	0.330791	-0.405304	-0.404817
N87	N	0.285852	-0.440235	-0.439558
H88	H	0.802843	-0.806286	-0.125887
C89	C	1.079265	-0.692666	-0.498745
N90	N	1.117020	-0.648101	-0.549689
H91	H	0.881904	-0.983293	-0.232496
H92	H	1.066217	-0.480760	-0.709042
C93	C	1.099045	-0.811064	-0.525397
N94	N	1.136800	-0.766499	-0.576341
H95	H	0.822626	-0.924689	-0.152540
C96	C	0.816915	-0.640855	-0.144872
N97	N	0.789847	-0.614091	-0.108352
H98	H	0.881843	-0.232194	-0.984046
C99	C	0.816830	-0.144823	-0.641474
N100	N	0.789746	-0.108353	-0.614668
H101	H	0.968170	-0.348722	-0.611957
C102	C	0.809506	-0.134785	-0.940684
N103	N	0.771733	-0.083877	-0.985193
