data_functionalizedCrystal
_audit_creation_method	'MofGen! by Chris Wilmer'
_symmetry_space_group_name_H-M	'P1'
_symmetry_Int_Tables_number	1
_symmetry_cell_setting	triclinic
loop_
_symmetry_equiv_pos_as_xyz
  x,y,z
_cell_length_a	17.917603
_cell_length_b	20.875492
_cell_length_c	20.875625
_cell_angle_alpha	60.168684
_cell_angle_beta	92.965346
_cell_angle_gamma	55.444413
loop_
_atom_site_label
_atom_site_type_symbol
_atom_site_fract_x
_atom_site_fract_y
_atom_site_fract_z
Zr1	Zr	0.705780	0.682399	-0.092111
O2	O	0.563604	0.835296	-0.208059
O3	O	0.755950	0.537096	-0.051183
O4	O	0.737898	0.679751	-0.193140
O5	O	0.588405	0.692082	0.039752
O6	O	0.867893	0.669023	-0.187496
O7	O	0.581656	0.692641	-0.066102
O8	O	0.900185	0.413840	0.066439
O9	O	0.556113	0.947265	-0.214184
O10	O	0.866405	0.586043	-0.036021
O11	O	0.774427	0.593632	0.038765
O12	O	0.753173	0.761589	-0.128371
O13	O	0.661196	0.769177	-0.053586
Zr14	Zr	0.923872	0.664399	0.085714
Zr15	Zr	0.913108	0.665290	-0.083110
Zr16	Zr	0.716544	0.681508	0.076713
Zr17	Zr	0.693833	0.860977	-0.101879
Zr18	Zr	0.935818	0.485820	0.095482
O19	O	0.873702	0.809702	0.044786
O20	O	0.858397	0.810969	-0.195261
O21	O	0.578909	0.834028	0.031987
O22	O	1.066048	0.511502	0.201662
O23	O	1.050743	0.512770	-0.038385
O24	O	0.771254	0.535829	0.188863
O25	O	1.041247	0.654716	-0.046149
O26	O	0.891754	0.667047	0.186743
O27	O	0.761758	0.677775	0.181099
O28	O	1.047996	0.654157	0.059705
O29	O	0.720911	0.933666	-0.207029
O30	O	0.908741	0.413132	0.200632
O31	O	1.073539	0.399533	0.207786
O32	O	1.064983	0.400241	0.073594
O33	O	0.564669	0.946557	-0.079991
O34	O	0.729467	0.932957	-0.072836
O35	O	0.876478	0.585209	0.121974
O36	O	0.968456	0.577620	0.047189
O37	O	0.855224	0.753166	-0.045162
O38	O	0.763247	0.760755	0.029623
C39	C	0.829769	0.450025	0.009020
C40	C	0.834841	0.374214	0.013167
C41	C	0.757758	0.406522	-0.049698
C42	C	0.762524	0.335303	-0.045830
C43	C	0.844369	0.231776	0.020907
C44	C	0.921460	0.199467	0.083774
C45	C	0.916697	0.270685	0.079903
C46	C	0.867138	0.011494	0.039432
C47	C	0.871893	-0.059724	0.043301
C48	C	0.712958	0.076117	-0.086305
C49	C	0.708199	0.147331	-0.090168
C50	C	0.785292	0.115016	-0.027303
N51	N	0.849241	0.158976	0.024863
N52	N	0.780424	0.187814	-0.031263
C53	C	0.555490	0.694799	-0.014458
C54	C	0.467474	0.702063	-0.018279
C55	C	0.306346	0.715330	-0.025257
C56	C	0.323298	0.631473	0.018858
C57	C	0.233641	0.638854	0.014975
C58	C	0.396009	0.707950	-0.021376
C59	C	1.074161	0.651998	0.008060
C60	C	1.162178	0.644735	0.011882
C61	C	0.801362	0.674514	-0.214372
C62	C	0.796792	0.674892	-0.286042
C63	C	0.799882	0.896773	-0.015417
C64	C	0.794811	0.972584	-0.019564
C65	C	0.866261	0.669161	-0.316604
C66	C	0.861970	0.669508	-0.383941
C67	C	0.788206	0.675593	-0.420719
C68	C	0.718735	0.681322	-0.390152
C69	C	0.723030	0.680968	-0.322812
C70	C	0.767684	0.677280	-0.622447
C71	C	0.763391	0.677636	-0.689793
C72	C	0.906629	0.665821	-0.683577
C73	C	0.910914	0.665473	-0.616239
C74	C	0.841446	0.671196	-0.585675
N75	N	0.783817	0.675951	-0.489551
N76	N	0.845840	0.670831	-0.516841
C77	C	0.828290	0.672284	0.207975
C78	C	0.832859	0.671905	0.279645
C79	C	1.089105	0.428624	0.020279
C80	C	1.182193	0.345550	0.028247
C81	C	0.843233	0.448910	0.220193
C82	C	0.852875	0.372720	0.296010
C83	C	1.102569	0.427509	0.231452
C84	C	1.200226	0.344056	0.311090
C85	C	0.527083	0.919289	-0.237849
C86	C	0.429425	1.002741	-0.317488
C87	C	0.540547	0.918174	-0.026676
C88	C	0.447459	1.001248	-0.034644
C89	C	0.786418	0.897888	-0.226590
C90	C	0.776777	0.974078	-0.302407
C91	C	1.172638	0.310934	-0.011453
C92	C	1.260094	0.232887	-0.003983
C93	C	1.357105	0.189453	0.043192
C94	C	1.366658	0.224076	0.082893
C95	C	1.279202	0.302126	0.075417
C96	C	0.910672	0.332544	0.375056
C97	C	0.919727	0.260966	0.446300
C98	C	0.870990	0.229560	0.438497
C99	C	0.813185	0.269744	0.359442
C100	C	0.804125	0.341326	0.288200
C101	C	1.294107	0.300904	0.309453
C102	C	1.385874	0.222501	0.384275
C103	C	1.383757	0.187246	0.460734
C104	C	1.289866	0.230406	0.462369
C105	C	1.198101	0.308813	0.387548
C106	C	0.335544	1.045902	-0.315850
C107	C	0.243776	1.124328	-0.390673
C108	C	0.245892	1.159586	-0.467133
C109	C	0.339784	1.116422	-0.468768
C110	C	0.431549	1.038002	-0.393946
C111	C	0.457013	1.035871	0.005048
C112	C	0.369554	1.113938	-0.002442
C113	C	0.272543	1.157374	-0.049619
C114	C	0.262991	1.122748	-0.089316
C115	C	0.350448	1.044688	-0.081831
C116	C	0.825527	1.005460	-0.294577
C117	C	0.816488	1.077037	-0.365808
C118	C	0.758693	1.117236	-0.444868
C119	C	0.709941	1.085847	-0.452696
C120	C	0.718987	1.014266	-0.381466
H121	H	0.650195	0.102416	-0.137487
H122	H	1.295850	0.329597	0.247203
H123	H	0.878376	0.171273	0.496514
H124	H	0.773506	0.244162	0.353101
H125	H	0.224504	0.792660	-0.065939
H126	H	0.342655	1.016501	-0.114151
H127	H	0.872590	0.972741	-0.230209
Cl128	Cl	0.964049	-0.029139	0.118470
Cl129	Cl	1.503894	0.168254	0.382199
Cl130	Cl	0.332856	1.001594	-0.219740
Cl131	Cl	0.578959	0.981286	0.064358
H132	H	0.979466	0.244372	0.131094
H133	H	0.167336	1.159460	-0.389326
Cl134	Cl	0.731466	0.391818	0.188831
H135	H	0.341494	1.145139	-0.531030
H136	H	0.966801	0.228256	0.510663
H137	H	0.507989	1.002861	-0.395289
Cl138	Cl	1.024354	0.069318	0.167670
Cl139	Cl	0.626006	0.688965	-0.436382
H140	H	1.458485	0.123402	0.521652
Cl141	Cl	0.877776	1.116489	-0.355948
Cl142	Cl	0.657681	0.974833	-0.391325
H143	H	1.288158	0.201690	0.524633
H144	H	0.405147	0.554136	0.059542
H145	H	0.377352	1.142117	0.029889
H146	H	0.699755	0.361618	-0.097020
H147	H	0.641565	0.231624	-0.144522
H148	H	1.121664	0.343938	0.388893
H149	H	0.711118	0.681942	-0.597568
Cl150	Cl	0.162606	1.255505	-0.059019
H151	H	0.926323	0.664213	-0.286666
Cl152	Cl	0.141026	1.177361	-0.148618
Cl153	Cl	1.003645	0.657825	-0.570005
Cl154	Cl	0.654858	0.536669	-0.133597
Cl155	Cl	0.747327	1.207228	-0.534408
H156	H	0.918537	0.664841	-0.408823
Cl157	Cl	0.130520	1.258171	-0.561189
H158	H	1.445656	0.188701	0.121302
H159	H	1.093653	0.346297	-0.049877
Cl160	Cl	0.993958	0.658621	-0.722001
Cl161	Cl	0.637276	1.136403	-0.552094
H162	H	1.286996	0.330300	0.107751
Cl163	Cl	0.974795	-0.189878	0.127202
H164	H	0.703319	0.682593	-0.719736
H165	H	1.252296	0.204708	-0.036313
Cl166	Cl	0.635698	0.688167	-0.284389
Cl167	Cl	0.971955	0.372007	0.384888
Cl168	Cl	1.467041	0.091331	0.052584
