data_functionalizedCrystal
_audit_creation_method	'MofGen! by Chris Wilmer'
_symmetry_space_group_name_H-M	'P1'
_symmetry_Int_Tables_number	1
_symmetry_cell_setting	triclinic
loop_
_symmetry_equiv_pos_as_xyz
  x,y,z
_cell_length_a	15.297475
_cell_length_b	16.959454
_cell_length_c	15.296720
_cell_angle_alpha	99.648278
_cell_angle_beta	91.617114
_cell_angle_gamma	80.323279
loop_
_atom_site_label
_atom_site_type_symbol
_atom_site_fract_x
_atom_site_fract_y
_atom_site_fract_z
Zn1	Zn	1.253421	-0.615181	-0.726635
Zn2	Zn	1.278688	-0.729000	-0.580157
Zn3	Zn	1.132298	-0.570776	-0.554873
Zn4	Zn	1.106914	-0.721230	-0.701285
O5	O	1.192830	-0.659047	-0.640738
O6	O	1.379352	-0.652115	-0.728395
O7	O	1.280466	-0.692679	-0.454228
O8	O	1.148414	-0.466067	-0.577685
O9	O	1.397915	-0.735737	-0.620778
O10	O	1.237403	-0.498691	-0.703878
O11	O	1.172914	-0.576432	-0.435651
O12	O	1.006352	-0.568898	-0.553104
O13	O	1.105151	-0.722495	-0.827223
O14	O	0.987702	-0.679437	-0.660673
O15	O	1.212790	-0.644581	-0.845848
O16	O	1.255853	-0.838569	-0.596198
O17	O	1.129651	-0.832860	-0.685190
C18	C	0.965244	-0.618506	-0.601395
C19	C	0.867878	-0.601185	-0.584584
C20	C	1.192759	-0.864398	-0.640710
C21	C	1.192804	-0.952266	-0.640741
C22	C	0.554738	-0.782854	-0.760885
C23	C	0.646218	-0.799134	-0.776677
C24	C	0.701637	-0.749648	-0.728655
C25	C	0.665567	-0.683879	-0.664839
C26	C	0.574078	-0.667601	-0.649041
C27	C	0.720978	-0.634395	-0.616811
C28	C	0.684908	-0.568627	-0.552995
C29	C	0.593428	-0.552351	-0.537200
C30	C	0.538009	-0.601837	-0.585221
C31	C	0.812467	-0.650673	-0.632609
C32	C	0.831808	-0.535421	-0.520765
C33	C	0.740327	-0.519141	-0.504973
C34	C	1.127199	-1.320817	-0.687084
C35	C	1.258690	-1.326729	-0.594523
C36	C	1.258660	-1.244176	-0.594509
C37	C	1.192899	-1.199940	-0.640783
C38	C	1.127167	-1.238256	-0.687070
C39	C	1.324386	-1.205852	-0.548216
C40	C	1.324359	-1.123295	-0.548200
C41	C	1.258601	-1.079058	-0.594479
C42	C	1.192866	-1.117379	-0.640769
C43	C	1.127105	-1.073143	-0.687042
C44	C	1.061373	-1.111464	-0.733338
C45	C	1.061408	-1.194019	-0.733349
C46	C	1.258566	-0.996503	-0.594468
C47	C	1.127072	-0.990582	-0.687028
C48	C	1.421305	-0.699746	-0.680234
C49	C	1.518668	-0.717090	-0.697066
C50	C	1.153320	-0.687624	-0.869207
C51	C	1.136484	-0.699803	-0.966567
C52	C	1.192922	-0.452900	-0.640788
C53	C	1.192961	-0.365053	-0.640810
C54	C	1.313198	-0.571876	-1.279796
C55	C	1.329022	-0.560436	-1.188322
C56	C	1.280889	-0.595276	-1.132879
C57	C	1.216928	-0.641559	-1.168918
C58	C	1.201107	-0.653005	-1.260401
C59	C	1.168798	-0.676406	-1.113484
C60	C	1.104838	-0.722688	-1.149523
C61	C	1.089019	-0.734131	-1.240998
C62	C	1.137153	-0.699291	-1.296441
C63	C	1.184620	-0.664960	-1.022001
C64	C	1.072529	-0.746089	-1.002606
C65	C	1.056705	-0.757528	-1.094080
C66	C	1.232237	-0.630532	-0.413166
C67	C	1.249243	-0.618162	-0.315836
H68	H	0.776125	-0.762907	-0.741517
H69	H	1.377882	-1.092099	-0.510505
H70	H	1.073684	-1.352022	-0.724779
H71	H	1.377920	-1.241873	-0.510535
O72	O	0.987723	-0.807446	-1.132960
H73	H	0.956901	-0.829747	-1.079045
H74	H	1.073523	-0.954571	-0.724714
O75	O	1.253602	-0.615043	-0.983141
H76	H	1.256527	-0.612942	-0.910217
H77	H	0.876931	-0.495126	-0.481661
H78	H	0.564064	-0.498805	-0.485228
O79	O	1.297946	-0.582942	-1.034216
H80	H	1.284438	-0.517159	-1.007050
H81	H	0.675580	-0.852684	-0.828634
H82	H	1.007892	-1.225228	-0.771039
O83	O	1.365087	-0.534277	-1.339587
H84	H	1.343327	-0.550000	-1.409248
H85	H	1.036946	-0.771825	-1.270339
O86	O	0.439339	-0.584326	-0.568171
H87	H	0.403781	-0.572440	-0.630100
O88	O	1.329636	-1.374441	-0.544642
H89	H	1.318625	-1.438289	-0.552442
O90	O	1.020588	-0.783662	-0.942827
H91	H	1.066968	-0.825642	-0.907901
H92	H	0.509609	-0.823142	-0.799972
O93	O	0.851371	-0.721593	-0.701447
H94	H	0.836411	-0.778591	-0.683283
O95	O	1.398003	-0.510523	-1.149450
H96	H	1.428812	-0.488214	-1.203368
H97	H	1.124272	-0.708603	-1.370927
H98	H	0.710946	-0.465591	-0.453013
O99	O	0.990445	-1.063751	-0.783248
H100	H	1.001472	-0.999909	-0.775459
O101	O	1.329454	-0.955168	-0.544545
H102	H	1.375188	-0.999798	-0.512373
