data_functionalizedCrystal
_audit_creation_method	'MofGen! by Chris Wilmer'
_symmetry_space_group_name_H-M	'P1'
_symmetry_Int_Tables_number	1
_symmetry_cell_setting	triclinic
loop_
_symmetry_equiv_pos_as_xyz
  x,y,z
_cell_length_a	16.120530
_cell_length_b	12.594516
_cell_length_c	16.120297
_cell_angle_alpha	87.123691
_cell_angle_beta	89.871860
_cell_angle_gamma	87.107535
loop_
_atom_site_label
_atom_site_type_symbol
_atom_site_fract_x
_atom_site_fract_y
_atom_site_fract_z
Zn1	Zn	1.247525	-0.539250	0.534592
Zn2	Zn	1.497525	-0.289250	0.784592
Zn3	Zn	1.747525	-0.039250	1.034592
Zn4	Zn	1.997525	0.210750	1.284592
Zn5	Zn	1.254502	-0.708694	0.395543
Zn6	Zn	1.504502	-0.458694	0.645543
Zn7	Zn	1.754502	-0.208694	0.895543
Zn8	Zn	2.004502	0.041306	1.145543
Zn9	Zn	1.115513	-0.521264	0.388509
Zn10	Zn	1.365513	-0.271264	0.638509
Zn11	Zn	1.615513	-0.021264	0.888509
Zn12	Zn	1.865513	0.228736	1.138509
Zn13	Zn	1.108459	-0.707714	0.527512
Zn14	Zn	1.358459	-0.457714	0.777512
Zn15	Zn	1.608459	-0.207714	1.027512
Zn16	Zn	1.858459	0.042286	1.277512
O17	O	1.181500	-0.619231	0.461539
O18	O	1.431500	-0.369231	0.711539
O19	O	1.681500	-0.119231	0.961539
O20	O	1.931500	0.130769	1.211539
O21	O	1.364818	-0.569665	0.522053
O22	O	1.614818	-0.319665	0.772053
O23	O	1.864818	-0.069665	1.022053
O24	O	2.114818	0.180335	1.272053
O25	O	1.241937	-0.676714	0.278244
O26	O	1.491937	-0.426714	0.528244
O27	O	1.741937	-0.176714	0.778244
O28	O	1.991937	0.073286	1.028244
O29	O	1.133056	-0.374708	0.407906
O30	O	1.383056	-0.124708	0.657906
O31	O	1.633056	0.125292	0.907906
O32	O	1.883056	0.375292	1.157906
O33	O	1.369944	-0.694154	0.419895
O34	O	1.619944	-0.444154	0.669895
O35	O	1.869944	-0.194154	0.919895
O36	O	2.119944	0.055846	1.169895
O37	O	1.230045	-0.387922	0.515233
O38	O	1.480045	-0.137922	0.765233
O39	O	1.730045	0.112078	1.015233
O40	O	1.980045	0.362078	1.265233
O41	O	1.139822	-0.539010	0.273076
O42	O	1.389822	-0.289010	0.523076
O43	O	1.639822	-0.039010	0.773076
O44	O	1.889822	0.210990	1.023076
O45	O	0.998209	-0.538060	0.401042
O46	O	1.248209	-0.288060	0.651042
O47	O	1.498209	-0.038060	0.901042
O48	O	1.748209	0.211940	1.151042
O49	O	1.121034	-0.692484	0.644817
O50	O	1.371034	-0.442484	0.894817
O51	O	1.621034	-0.192484	1.144817
O52	O	1.871034	0.057516	1.394817
O53	O	0.993027	-0.675043	0.503166
O54	O	1.243027	-0.425043	0.753166
O55	O	1.493027	-0.175043	1.003166
O56	O	1.743027	0.074957	1.253166
O57	O	1.223205	-0.568715	0.650019
O58	O	1.473205	-0.318715	0.900019
O59	O	1.723205	-0.068715	1.150019
O60	O	1.973205	0.181285	1.400019
O61	O	1.235097	-0.857506	0.413030
O62	O	1.485097	-0.607506	0.663030
O63	O	1.735097	-0.357506	0.913030
O64	O	1.985097	-0.107506	1.163030
O65	O	1.127800	-0.856786	0.509987
O66	O	1.377800	-0.606786	0.759987
O67	O	1.627800	-0.356786	1.009987
O68	O	1.877800	-0.106786	1.259987
C69	C	0.965445	-0.604494	0.450573
C70	C	1.215445	-0.354494	0.700573
C71	C	1.465445	-0.104494	0.950573
C72	C	1.715445	0.145506	1.200573
C73	C	0.873015	-0.598217	0.445901
C74	C	1.123015	-0.348217	0.695901
C75	C	1.373015	-0.098217	0.945901
C76	C	1.623015	0.151783	1.195901
C77	C	1.181462	-0.895768	0.461523
C78	C	1.431462	-0.645768	0.711523
C79	C	1.681462	-0.395768	0.961523
C80	C	1.931462	-0.145768	1.211523
C81	C	1.181520	-1.014079	0.461547
C82	C	1.431520	-0.764079	0.711547
C83	C	1.681520	-0.514079	0.961547
C84	C	1.931520	-0.264079	1.211547
C85	C	0.703784	-0.586731	0.437379
C86	C	0.953784	-0.336731	0.687379
C87	C	1.203784	-0.086731	0.937379
C88	C	1.453784	0.163269	1.187379
C89	C	0.660053	-0.651812	0.485759
C90	C	0.910053	-0.401812	0.735759
C91	C	1.160053	-0.151812	0.985759
C92	C	1.410053	0.098188	1.235759
C93	C	0.565887	-0.645422	0.481018
C94	C	0.815887	-0.395422	0.731018
C95	C	1.065887	-0.145422	0.981018
C96	C	1.315887	0.104578	1.231018
C97	C	0.797959	-0.593120	0.442120
C98	C	1.047959	-0.343120	0.692120
C99	C	1.297959	-0.093120	0.942120
C100	C	1.547959	0.156880	1.192120
C101	C	1.239941	-1.083693	0.408875
C102	C	1.489941	-0.833693	0.658875
C103	C	1.739941	-0.583693	0.908875
C104	C	1.989941	-0.333693	1.158875
C105	C	1.256413	-1.160447	0.485802
C106	C	1.506413	-0.910447	0.735802
C107	C	1.756413	-0.660447	0.985802
C108	C	2.006413	-0.410447	1.235802
C109	C	1.165150	-1.148134	0.384674
C110	C	1.415150	-0.898134	0.634674
C111	C	1.665150	-0.648134	0.884674
C112	C	1.915150	-0.398134	1.134674
C113	C	1.198029	-1.089279	0.538516
C114	C	1.448029	-0.839279	0.788516
C115	C	1.698029	-0.589279	1.038516
C116	C	1.948029	-0.339279	1.288516
C117	C	1.106733	-1.076955	0.437335
C118	C	1.356733	-0.826955	0.687335
C119	C	1.606733	-0.576955	0.937335
C120	C	1.856733	-0.326955	1.187335
C121	C	1.123174	-1.153678	0.514313
C122	C	1.373174	-0.903678	0.764313
C123	C	1.623174	-0.653678	1.014313
C124	C	1.873174	-0.403678	1.264313
C125	C	1.398398	-0.634025	0.472548
C126	C	1.648398	-0.384025	0.722548
C127	C	1.898398	-0.134025	0.972548
C128	C	2.148398	0.115975	1.222548
C129	C	1.490827	-0.640330	0.477240
C130	C	1.740827	-0.390330	0.727240
C131	C	1.990827	-0.140330	0.977240
C132	C	2.240827	0.109670	1.227240
C133	C	1.170555	-0.632496	0.678434
C134	C	1.420555	-0.382496	0.928434
C135	C	1.670555	-0.132496	1.178434
C136	C	1.920555	0.117504	1.428434
C137	C	1.165890	-0.638149	0.770862
C138	C	1.415890	-0.388149	1.020862
C139	C	1.665890	-0.138149	1.270862
C140	C	1.915890	0.111851	1.520862
C141	C	1.181559	-0.341616	0.461575
C142	C	1.431559	-0.091616	0.711575
C143	C	1.681559	0.158384	0.961575
C144	C	1.931559	0.408384	1.211575
C145	C	1.181585	-0.223313	0.461590
C146	C	1.431585	0.026687	0.711590
C147	C	1.681585	0.276687	0.961590
C148	C	1.931585	0.526687	1.211590
C149	C	1.192450	-0.605943	0.245490
C150	C	1.442450	-0.355943	0.495490
C151	C	1.692450	-0.105943	0.745490
C152	C	1.942450	0.144057	0.995490
C153	C	1.197275	-0.600001	0.153071
C154	C	1.447275	-0.350001	0.403071
C155	C	1.697275	-0.100001	0.653071
C156	C	1.947275	0.149999	0.903071
C157	C	1.157344	-0.648444	0.940087
C158	C	1.407344	-0.398444	1.190087
C159	C	1.657344	-0.148444	1.440087
C160	C	1.907344	0.101556	1.690087
C161	C	1.205819	-0.589709	0.983851
C162	C	1.455819	-0.339709	1.233851
C163	C	1.705819	-0.089709	1.483851
C164	C	1.955819	0.160291	1.733851
C165	C	1.201064	-0.595437	1.078014
C166	C	1.451064	-0.345437	1.328014
C167	C	1.701064	-0.095437	1.578014
C168	C	1.951064	0.154563	1.828014
C169	C	1.162098	-0.642717	0.845915
C170	C	1.412098	-0.392717	1.095915
C171	C	1.662098	-0.142717	1.345915
C172	C	1.912098	0.107283	1.595915
H173	H	0.693335	-0.712328	0.530741
H174	H	0.943335	-0.462328	0.780741
H175	H	1.193335	-0.212328	1.030741
H176	H	1.443335	0.037672	1.280741
H177	H	1.151277	-1.174187	0.319645
H178	H	1.401277	-0.924187	0.569645
H179	H	1.651277	-0.674187	0.819645
H180	H	1.901277	-0.424187	1.069645
H181	H	1.250889	-0.535121	0.950601
H182	H	1.500889	-0.285121	1.200601
H183	H	1.750889	-0.035121	1.450601
H184	H	2.000889	0.214879	1.700601
C185	C	1.096457	-0.722183	0.985004
C186	C	1.346457	-0.472183	1.235004
C187	C	1.596457	-0.222183	1.485004
C188	C	1.846457	0.027817	1.735004
N189	N	1.050598	-0.777722	1.018846
N190	N	1.300598	-0.527722	1.268846
N191	N	1.550598	-0.277722	1.518846
N192	N	1.800598	-0.027722	1.768846
H193	H	0.670504	-0.526220	0.392402
H194	H	0.920504	-0.276220	0.642402
H195	H	1.170504	-0.026220	0.892402
H196	H	1.420504	0.223780	1.142402
H197	H	1.289351	-1.052958	0.364374
H198	H	1.539351	-0.802958	0.614374
H199	H	1.789351	-0.552958	0.864374
H200	H	2.039351	-0.302958	1.114374
H201	H	1.319686	-1.196913	0.506304
H202	H	1.569686	-0.946913	0.756304
H203	H	1.819686	-0.696913	1.006304
H204	H	2.069686	-0.446913	1.256304
H205	H	1.211836	-1.063357	0.603597
H206	H	1.461836	-0.813357	0.853597
H207	H	1.711836	-0.563357	1.103597
H208	H	1.961836	-0.313357	1.353597
H209	H	1.073794	-1.184225	0.558929
H210	H	1.323794	-0.934225	0.808929
H211	H	1.573794	-0.684225	1.058929
H212	H	1.823794	-0.434225	1.308929
H213	H	1.043480	-1.040466	0.416811
H214	H	1.293480	-0.790466	0.666811
H215	H	1.543480	-0.540466	0.916811
H216	H	1.793480	-0.290466	1.166811
