data_functionalizedCrystal
_audit_creation_method	'MofGen! by Chris Wilmer'
_symmetry_space_group_name_H-M	'P1'
_symmetry_Int_Tables_number	1
_symmetry_cell_setting	triclinic
loop_
_symmetry_equiv_pos_as_xyz
  x,y,z
_cell_length_a	15.297327
_cell_length_b	11.169417
_cell_length_c	11.169409
_cell_angle_alpha	90.019824
_cell_angle_beta	80.360209
_cell_angle_gamma	99.707226
loop_
_atom_site_label
_atom_site_type_symbol
_atom_site_fract_x
_atom_site_fract_y
_atom_site_fract_z
Zn1	Zn	0.359064	-1.752166	-0.761131
Zn2	Zn	0.509956	-1.717262	-0.595155
Zn3	Zn	0.359119	-1.551440	-0.560478
Zn4	Zn	0.509883	-1.516683	-0.795783
O5	O	0.434505	-1.634387	-0.678137
O6	O	0.379088	-1.915484	-0.739125
O7	O	0.490001	-1.695203	-0.422618
O8	O	0.232867	-1.607220	-0.558081
O9	O	0.489948	-1.889840	-0.617183
O10	O	0.232827	-1.754693	-0.705500
O11	O	0.379181	-1.573374	-0.397141
O12	O	0.379110	-1.378881	-0.591682
O13	O	0.489823	-1.547982	-0.959124
O14	O	0.489876	-1.353345	-0.764559
O15	O	0.379016	-1.720991	-0.933665
O16	O	0.636191	-1.661501	-0.650783
O17	O	0.636137	-1.514136	-0.798184
C18	C	0.434492	-1.322566	-0.678118
C19	C	0.434508	-1.189162	-0.678144
C20	C	0.668898	-1.580292	-0.732033
C21	C	0.769172	-1.557259	-0.755130
C22	C	0.199198	-1.688727	-0.624057
C23	C	0.098924	-1.711884	-0.601011
C24	C	1.051814	-1.799500	-0.513469
C25	C	0.957602	-1.821139	-0.491762
C26	C	0.910490	-1.755172	-0.557602
C27	C	0.957599	-1.667560	-0.645153
C28	C	1.051821	-1.645911	-0.666855
C29	C	0.910496	-1.601583	-0.710988
C30	C	0.957606	-1.513971	-0.798539
C31	C	1.051818	-1.492327	-0.820238
C32	C	1.098930	-1.558295	-0.754397
C33	C	0.816275	-1.623232	-0.689286
C34	C	0.816281	-1.469643	-0.842672
C35	C	0.910493	-1.448003	-0.864379
C36	C	0.434405	-1.634503	-0.991157
C37	C	0.434362	-1.634552	-1.124547
C38	C	0.434520	-1.947426	-0.678156
C39	C	0.434526	-2.080825	-0.678165
C40	C	0.434540	-1.634357	-0.366320
C41	C	0.434329	-1.634599	-0.232872
H42	H	0.777926	-1.694565	-0.618002
O43	O	0.818973	-1.776192	-0.536301
C44	C	0.787584	-1.752604	-0.414028
H45	H	0.841910	-1.760653	-0.357428
H46	H	0.724535	-1.821239	-0.378214
H47	H	0.770926	-1.656851	-0.407571
H48	H	1.175646	-1.540684	-0.772069
H49	H	0.777923	-1.415924	-0.896283
O50	O	1.097493	-1.863740	-0.449556
C51	C	1.074425	-1.988661	-0.470566
H52	H	1.005983	-2.006891	-0.500925
H53	H	1.071245	-2.043236	-0.383250
H54	H	1.127392	-2.016872	-0.544508
O55	O	0.911945	-1.906164	-0.406585
C56	C	0.935041	-1.874670	-0.292263
H57	H	1.003477	-1.812808	-0.305501
H58	H	0.938247	-1.960580	-0.239262
H59	H	0.882077	-1.825159	-0.239584
H60	H	1.090172	-1.420974	-0.891513
O61	O	0.956121	-1.362889	-0.949499
C62	C	0.894345	-1.309277	-1.002942
H63	H	0.827148	-1.373865	-0.991663
H64	H	0.921521	-1.290189	-1.103751
H65	H	0.884412	-1.220428	-0.956629
