data_functionalizedCrystal
_audit_creation_method	'MofGen! by Chris Wilmer'
_symmetry_space_group_name_H-M	'P1'
_symmetry_Int_Tables_number	1
_symmetry_cell_setting	triclinic
loop_
_symmetry_equiv_pos_as_xyz
  x,y,z
_cell_length_a	10.654559
_cell_length_b	13.339070
_cell_length_c	11.804673
_cell_angle_alpha	99.452914
_cell_angle_beta	103.180965
_cell_angle_gamma	100.058989
loop_
_atom_site_label
_atom_site_type_symbol
_atom_site_fract_x
_atom_site_fract_y
_atom_site_fract_z
O1	O	1.744986	0.160922	0.099026
O2	O	1.384088	0.174483	0.099027
O3	O	1.523116	0.020147	0.099023
O4	O	1.605957	0.315258	0.099030
O5	O	1.465015	-0.016741	-0.099025
O6	O	1.325986	0.137595	-0.099021
O7	O	1.686884	0.124034	-0.099022
Cu8	Cu	1.501130	0.127447	-0.117105
Cu9	Cu	1.569842	0.171071	0.117110
O10	O	1.547856	0.278371	-0.099018
C11	C	1.307902	0.155041	0.000003
C12	C	1.167452	0.152057	0.000003
C13	C	1.084280	0.058380	-0.000002
C14	C	0.952316	0.055583	0.000007
C15	C	0.986706	0.240147	0.000021
C16	C	1.118670	0.242945	0.000021
C17	C	1.064423	-0.048178	-0.000016
C18	C	0.932459	-0.050975	-0.000007
C19	C	1.480073	-0.036085	0.000001
C20	C	1.438364	-0.148679	0.000006
C21	C	1.762680	-0.511188	0.000004
C22	C	1.801869	-0.405402	-0.000007
C23	C	1.710996	-0.341216	-0.000003
C24	C	1.580927	-0.382827	0.000011
C25	C	1.541731	-0.488626	0.000013
C26	C	1.490048	-0.318654	0.000005
C27	C	1.359979	-0.360265	0.000019
C28	C	1.320789	-0.466053	0.000022
C29	C	1.411662	-0.530239	0.000018
C30	C	1.529244	-0.212855	0.000003
C31	C	1.308295	-0.190292	0.000011
C32	C	1.269106	-0.296079	0.000022
C33	C	1.763070	0.143476	0.000005
C34	C	1.903523	0.146463	0.000012
C35	C	1.590900	0.334602	0.000007
C36	C	1.632611	0.447199	0.000010
N37	N	1.452811	0.096763	-0.281839
C38	C	1.336735	0.023068	-0.344169
C39	C	1.300158	-0.000148	-0.468826
C40	C	1.379658	0.050323	-0.531164
C41	C	1.495740	0.124015	-0.468834
C42	C	1.532316	0.147239	-0.344165
C43	C	1.575239	0.174494	-0.531161
C44	C	1.691321	0.248186	-0.468830
C45	C	1.727892	0.271405	-0.344174
C46	C	1.648392	0.220934	-0.281835
C47	C	1.538663	0.151270	-0.655830
C48	C	1.734244	0.275441	-0.655826
C49	C	1.770821	0.298657	-0.531169
N50	N	1.618168	0.201746	0.281844
H51	H	1.074108	-0.096297	-0.085530
Br52	Br	1.358527	-0.673783	0.000195
H53	H	0.864705	-0.108079	-0.082891
Br54	Br	1.330015	0.018815	-0.700344
Br55	Br	1.151941	-0.089384	0.138108
H56	H	1.234297	-0.138033	0.000008
H57	H	0.910457	-0.068986	0.085506
H58	H	1.798976	0.316544	-0.706582
Br59	Br	1.885983	-0.598304	-0.000029
H60	H	1.444147	0.091272	-0.706567
Br61	Br	1.705758	-0.156396	-0.000020
Br62	Br	1.928360	0.398663	-0.446565
Br63	Br	1.231554	0.370088	0.000062
Br64	Br	1.978390	-0.348931	-0.000001
H65	H	1.205643	-0.060147	-0.519566
H66	H	1.272014	-0.018012	-0.293401
H67	H	0.946971	0.314145	0.000036
H68	H	1.214876	-0.499931	0.000024
H69	H	1.678172	0.239829	-0.180329
Br70	Br	1.092590	-0.352563	0.000048
Br71	Br	1.885397	0.371454	-0.259584
H72	H	1.742912	-0.255080	-0.000013
