data_functionalizedCrystal
_audit_creation_method	'MofGen! by Chris Wilmer'
_symmetry_space_group_name_H-M	'P1'
_symmetry_Int_Tables_number	1
_symmetry_cell_setting	triclinic
loop_
_symmetry_equiv_pos_as_xyz
  x,y,z
_cell_length_a	16.992694
_cell_length_b	13.339070
_cell_length_c	16.053919
_cell_angle_alpha	87.944664
_cell_angle_beta	92.715508
_cell_angle_gamma	76.851237
loop_
_atom_site_label
_atom_site_type_symbol
_atom_site_fract_x
_atom_site_fract_y
_atom_site_fract_z
O1	O	1.091729	-0.222436	0.069339
O2	O	1.591729	0.277564	0.569339
O3	O	0.862924	-0.220042	0.069363
O4	O	1.362924	0.279958	0.569363
O5	O	0.951066	-0.071852	0.069335
O6	O	1.451066	0.428148	0.569335
O7	O	1.003587	-0.370627	0.069367
O8	O	1.503587	0.129373	0.569367
O9	O	0.943374	-0.063654	-0.069522
O10	O	1.443374	0.436346	0.430478
O11	O	0.855232	-0.211845	-0.069494
O12	O	1.355232	0.288155	0.430506
O13	O	1.084037	-0.214239	-0.069518
O14	O	1.584037	0.285761	0.430482
Zn15	Zn	0.968413	-0.211740	-0.091553
Zn16	Zn	1.468413	0.288260	0.408447
Zn17	Zn	0.978548	-0.222541	0.091397
Zn18	Zn	1.478548	0.277459	0.591397
O19	O	0.995895	-0.362429	-0.069490
O20	O	1.495895	0.137571	0.430510
C21	C	0.829195	-0.212862	-0.000063
C22	C	1.329195	0.287138	0.499937
C23	C	0.740151	-0.203668	-0.000054
C24	C	1.240151	0.296332	0.499946
C25	C	0.938348	-0.029347	-0.000096
C26	C	1.438348	0.470653	0.499904
C27	C	0.911904	0.085094	-0.000102
C28	C	1.411904	0.585094	0.499898
C29	C	0.709211	-0.292382	-0.000045
C30	C	1.209211	0.207618	0.499955
C31	C	0.625543	-0.283736	-0.000058
C32	C	1.125543	0.216264	0.499942
C33	C	0.572817	-0.186376	-0.000073
C34	C	1.072817	0.313624	0.499927
C35	C	0.603761	-0.097655	-0.000084
C36	C	1.103761	0.402345	0.499916
C37	C	0.687428	-0.106301	-0.000078
C38	C	1.187428	0.393699	0.499922
C39	C	0.321421	-0.150539	-0.000099
C40	C	0.821421	0.349461	0.499901
C41	C	0.237750	-0.141899	-0.000103
C42	C	0.737750	0.358101	0.499897
C43	C	0.259538	-0.327982	-0.000078
C44	C	0.759538	0.172018	0.499922
C45	C	0.343205	-0.336620	-0.000066
C46	C	0.843205	0.163380	0.499934
C47	C	0.374142	-0.247899	-0.000082
C48	C	0.874142	0.252101	0.499918
N49	N	0.487294	-0.177536	-0.000083
N50	N	0.987294	0.322464	0.499917
N51	N	0.459663	-0.256739	-0.000078
N52	N	0.959663	0.243261	0.499922
C53	C	1.117766	-0.221419	-0.000091
C54	C	1.617766	0.278581	0.499909
C55	C	1.206810	-0.230613	-0.000094
C56	C	1.706810	0.269387	0.499906
C57	C	1.117514	0.433267	-0.000163
C58	C	1.617514	0.933267	0.499837
C59	C	1.142362	0.325746	-0.000162
C60	C	1.642362	0.825746	0.499838
C61	C	1.084750	0.265577	-0.000147
C62	C	1.584750	0.765577	0.499853
C63	C	1.002285	0.312941	-0.000133
C64	C	1.502285	0.812941	0.499867
C65	C	0.977434	0.420474	-0.000141
C66	C	1.477434	0.920474	0.499859
C67	C	0.944670	0.252784	-0.000125
C68	C	1.444670	0.752784	0.499875
C69	C	0.862205	0.300148	-0.000111
C70	C	1.362205	0.800148	0.499889
C71	C	0.837359	0.407670	-0.000119
C72	C	1.337359	0.907670	0.499881
C73	C	0.894971	0.467838	-0.000134
C74	C	1.394971	0.967838	0.499866
C75	C	0.969521	0.145251	-0.000117
C76	C	1.469521	0.645251	0.499883
C77	C	0.829441	0.132458	-0.000095
C78	C	1.329441	0.632458	0.499905
C79	C	0.804593	0.239979	-0.000096
C80	C	1.304593	0.739979	0.499904
C81	C	1.008611	0.595067	-0.000085
C82	C	1.508611	1.095067	0.499915
C83	C	1.035051	0.480632	-0.000156
C84	C	1.535051	0.980632	0.499844
N85	N	0.961502	-0.204369	-0.216411
N86	N	1.461502	0.295631	0.283589
C87	C	0.925887	-0.166099	-0.740035
C88	C	1.425887	0.333901	-0.240035
C89	C	0.930724	-0.171295	-0.652630
C90	C	1.430724	0.328705	-0.152630
C91	C	0.995137	-0.240302	-0.608935
C92	C	1.495137	0.259698	-0.108935
C93	C	1.054720	-0.304110	-0.652650
C94	C	1.554720	0.195890	-0.152650
C95	C	1.049884	-0.298909	-0.740054
C96	C	1.549884	0.201091	-0.240054
C97	C	1.016249	-0.262976	-0.347530
C98	C	1.516249	0.237024	0.152470
C99	C	1.021079	-0.268175	-0.260120
C100	C	1.521079	0.231825	0.239880
C101	C	0.897084	-0.135357	-0.260106
C102	C	1.397084	0.364643	0.239894
C103	C	0.892252	-0.130166	-0.347512
C104	C	1.392252	0.369834	0.152488
C105	C	0.951836	-0.193970	-0.391219
C106	C	1.451836	0.306030	0.108781
N107	N	1.000082	-0.245617	-0.519592
N108	N	1.500082	0.254383	-0.019592
N109	N	0.946894	-0.188649	-0.480560
N110	N	1.446894	0.311351	0.019440
N111	N	0.985464	-0.229904	0.216256
N112	N	1.485464	0.270096	0.716256
H113	H	0.752137	-0.371664	-0.000032
H114	H	1.252137	0.128336	0.499968
Cl115	Cl	1.135699	-0.390859	-0.597719
Cl116	Cl	1.635699	0.109141	-0.097719
H117	H	1.073531	-0.324376	-0.224547
H118	H	1.573531	0.175624	0.275453
H119	H	1.064767	-0.314931	-0.383107
H120	H	1.564767	0.185069	0.116893
Cl121	Cl	1.189930	0.508911	-0.000198
Cl122	Cl	1.689930	1.008911	0.499802
H123	H	0.712617	-0.034061	-0.000085
H124	H	1.212617	0.465939	0.499915
H125	H	0.874744	0.555391	-0.000132
H126	H	1.374744	1.055391	0.499868
H127	H	0.770211	0.446230	-0.000114
H128	H	1.270211	0.946230	0.499886
H129	H	0.600357	-0.355977	-0.000049
H130	H	1.100357	0.144023	0.499951
H131	H	0.346600	-0.078295	-0.000113
H132	H	0.846600	0.421705	0.499887
Cl133	Cl	1.073186	0.085721	-0.000133
Cl134	Cl	1.573186	0.585721	0.499867
Cl135	Cl	0.811269	-0.043415	-0.402436
Cl136	Cl	1.311269	0.456585	0.097564
H137	H	0.873432	-0.109910	-0.775605
H138	H	1.373432	0.390090	-0.275605
Cl139	Cl	0.537476	0.024743	-0.000109
Cl140	Cl	1.037476	0.524743	0.499891
H141	H	0.848574	-0.083410	-0.224510
H142	H	1.348574	0.416590	0.275490
H143	H	1.098399	-0.350866	-0.775641
H144	H	1.598399	0.149134	-0.275641
H145	H	0.386131	-0.415902	-0.000044
H146	H	0.886131	0.084098	0.499956
H147	H	0.737449	0.278558	-0.000086
H148	H	1.237449	0.778558	0.499914
H149	H	0.234339	-0.400213	-0.000067
H150	H	0.734339	0.099787	0.499933
H151	H	0.194820	-0.062613	-0.000115
H152	H	0.694820	0.437387	0.499885
Cl153	Cl	1.115989	0.130405	-0.000140
Cl154	Cl	1.615989	0.630405	0.499860
Cl155	Cl	1.246028	0.266209	-0.000160
Cl156	Cl	1.746028	0.766209	0.499840
Cl157	Cl	0.757008	0.056826	-0.000082
Cl158	Cl	1.257008	0.556826	0.499918
Cl159	Cl	0.855806	-0.091108	-0.597684
Cl160	Cl	1.355806	0.408892	-0.097684
