data_functionalizedCrystal
_audit_creation_method	'MofGen! by Chris Wilmer'
_symmetry_space_group_name_H-M	'P1'
_symmetry_Int_Tables_number	1
_symmetry_cell_setting	triclinic
loop_
_symmetry_equiv_pos_as_xyz
  x,y,z
_cell_length_a	12.594517
_cell_length_b	12.594516
_cell_length_c	12.594509
_cell_angle_alpha	90.030839
_cell_angle_beta	90.021327
_cell_angle_gamma	90.013323
loop_
_atom_site_label
_atom_site_type_symbol
_atom_site_fract_x
_atom_site_fract_y
_atom_site_fract_z
Zn1	Zn	1.627286	-0.423716	0.601841
Zn2	Zn	1.627184	-0.601726	0.423854
Zn3	Zn	1.449290	-0.423761	0.423870
Zn4	Zn	1.449280	-0.601652	0.601784
O5	O	1.538260	-0.512714	0.512837
O6	O	1.776218	-0.447341	0.578248
O7	O	1.603548	-0.578169	0.274910
O8	O	1.472948	-0.274809	0.447508
O9	O	1.776144	-0.578124	0.447482
O10	O	1.603721	-0.274776	0.578263
O11	O	1.472849	-0.447419	0.274922
O12	O	1.300342	-0.447347	0.447453
O13	O	1.472931	-0.577998	0.750738
O14	O	1.300335	-0.578042	0.578166
O15	O	1.603711	-0.447269	0.750779
O16	O	1.603538	-0.750662	0.447427
O17	O	1.472832	-0.750608	0.578151
C18	C	1.261719	-0.512692	0.512806
C19	C	1.143413	-0.512709	0.512818
C20	C	1.074133	-0.441526	0.441858
C21	C	1.003327	-0.538615	0.415674
C22	C	1.003421	-0.415668	0.539020
C23	C	1.074165	-0.609849	0.486582
C24	C	1.074266	-0.486836	0.609974
C25	C	1.003491	-0.583991	0.583826
C26	C	1.538202	-0.789255	0.512804
C27	C	1.538275	-0.907560	0.512826
C28	C	1.609496	-1.047568	0.441848
C29	C	1.512366	-0.976883	0.415690
C30	C	1.635393	-0.976673	0.538936
C31	C	1.441203	-1.047661	0.486709
C32	C	1.564296	-1.047457	0.610001
C33	C	1.467099	-0.976805	0.583879
C34	C	1.815881	-0.512736	0.512869
C35	C	1.934186	-0.512745	0.512883
C36	C	1.538331	-0.512621	0.790458
C37	C	1.538361	-0.512581	0.908764
C38	C	1.538347	-0.235093	0.512893
C39	C	1.538384	-0.116787	0.512917
C40	C	1.538250	-0.512730	0.236296
C41	C	1.538426	-0.512470	0.117991
C42	C	1.467252	-0.583644	0.977994
C43	C	1.564374	-0.609650	1.048784
C44	C	1.441315	-0.486510	1.048774
C45	C	1.635534	-0.538638	0.977995
C46	C	1.512410	-0.415453	0.977979
C47	C	1.609599	-0.441422	1.048736
H48	H	1.105110	-0.691955	0.464357
H49	H	1.717655	-0.560736	0.947035
Br50	Br	1.601022	-0.746473	1.100621
H51	H	0.972291	-0.333597	0.561118
Br52	Br	1.126238	-0.450278	0.746836
H53	H	1.669605	-1.078638	0.381741
H54	H	1.669830	-0.381279	1.079601
Br55	Br	1.475721	-0.278664	0.926099
Br56	Br	1.125836	-0.341290	0.341725
Br57	Br	0.951393	-0.575132	0.278779
Br58	Br	0.952113	-0.684458	0.683894
H59	H	1.359218	-0.464506	1.079865
H60	H	1.490396	-0.945879	0.333549
H61	H	1.406845	-0.945931	0.643941
Br62	Br	1.304348	-1.099402	0.449806
H63	H	1.407165	-0.643833	0.946934
H64	H	1.586294	-1.078484	0.692118
Br65	Br	1.772203	-0.924696	0.575677
