data_functionalizedCrystal
_audit_creation_method	'MofGen! by Chris Wilmer'
_symmetry_space_group_name_H-M	'P1'
_symmetry_Int_Tables_number	1
_symmetry_cell_setting	triclinic
loop_
_symmetry_equiv_pos_as_xyz
  x,y,z
_cell_length_a	25.639242
_cell_length_b	25.639239
_cell_length_c	25.639234
_cell_angle_alpha	90.024905
_cell_angle_beta	90.030783
_cell_angle_gamma	90.033712
loop_
_atom_site_label
_atom_site_type_symbol
_atom_site_fract_x
_atom_site_fract_y
_atom_site_fract_z
Zn1	Zn	-0.799262	0.208252	-0.295762
Zn2	Zn	-0.465929	0.541585	0.037571
Zn3	Zn	-0.132596	0.874919	0.370904
Zn4	Zn	-0.799175	0.295680	-0.208327
Zn5	Zn	-0.465841	0.629013	0.125007
Zn6	Zn	-0.132508	0.962347	0.458340
Zn7	Zn	-0.711828	0.208253	-0.208324
Zn8	Zn	-0.378494	0.541586	0.125009
Zn9	Zn	-0.045161	0.874920	0.458343
Zn10	Zn	-0.711784	0.295651	-0.295714
Zn11	Zn	-0.378450	0.628984	0.037619
Zn12	Zn	-0.045117	0.962317	0.370952
O13	O	-0.755512	0.251959	-0.252032
O14	O	-0.422179	0.585292	0.081302
O15	O	-0.088845	0.918626	0.414635
O16	O	-0.872416	0.219861	-0.284185
O17	O	-0.539082	0.553195	0.049149
O18	O	-0.205749	0.886528	0.382482
O19	O	-0.787570	0.284096	-0.135161
O20	O	-0.454236	0.617429	0.198172
O21	O	-0.120903	0.950762	0.531506
O22	O	-0.723481	0.135088	-0.219942
O23	O	-0.390148	0.468421	0.113391
O24	O	-0.056814	0.801754	0.446725
O25	O	-0.872351	0.284095	-0.219946
O26	O	-0.539018	0.617428	0.113387
O27	O	-0.205685	0.950761	0.446721
O28	O	-0.787719	0.135087	-0.284182
O29	O	-0.454385	0.468420	0.049151
O30	O	-0.121052	0.801754	0.382484
O31	O	-0.723396	0.219863	-0.135159
O32	O	-0.390063	0.553196	0.198174
O33	O	-0.056729	0.886530	0.531507
O34	O	-0.638656	0.219835	-0.219896
O35	O	-0.305323	0.553168	0.113438
O36	O	0.028010	0.886501	0.446771
O37	O	-0.723406	0.284044	-0.368886
O38	O	-0.390073	0.617378	-0.035553
O39	O	-0.056739	0.950711	0.297781
O40	O	-0.638624	0.284045	-0.284101
O41	O	-0.305291	0.617379	0.049233
O42	O	0.028042	0.950712	0.382566
O43	O	-0.787676	0.219833	-0.368921
O44	O	-0.454343	0.553166	-0.035588
O45	O	-0.121010	0.886499	0.297746
O46	O	-0.787527	0.368841	-0.219900
O47	O	-0.454194	0.702175	0.113434
O48	O	-0.120860	1.035508	0.446767
O49	O	-0.723321	0.368820	-0.284103
O50	O	-0.389988	0.702153	0.049230
O51	O	-0.056655	1.035486	0.382564
C52	C	-0.619669	0.251937	-0.251993
C53	C	-0.286336	0.585270	0.081340
C54	C	0.046997	0.918604	0.414674
C55	C	-0.561555	0.251940	-0.251989
C56	C	-0.228222	0.585274	0.081345
C57	C	0.105111	0.918607	0.414678
C58	C	-0.755546	0.251935	-0.388405
C59	C	-0.422213	0.585268	-0.055071
C60	C	-0.088879	0.918602	0.278262
C61	C	-0.755560	0.251925	-0.446519
C62	C	-0.422227	0.585258	-0.113186
C63	C	-0.088894	0.918592	0.220148
C64	C	-0.755424	0.387801	-0.252008
C65	C	-0.422091	0.721135	0.081326
C66	C	-0.088757	1.054468	0.414659
C67	C	-0.755434	0.445916	-0.252015
C68	C	-0.422101	0.779249	0.081318
C69	C	-0.088768	1.112582	0.414652
C70	C	-0.201184	0.285444	-0.285418
C71	C	0.132149	0.618778	0.047915
C72	C	0.465482	0.952111	0.381249
C73	C	-0.146580	0.285447	-0.285425
C74	C	0.186753	0.618781	0.047909
C75	C	0.520087	0.952114	0.381242
O76	O	-0.118337	0.313910	-0.313824
O77	O	0.214997	0.647244	0.019509
O78	O	0.548330	0.980577	0.352842
N79	N	-0.119273	0.251968	-0.252050
N80	N	0.214060	0.585301	0.081283
N81	N	0.547394	0.918634	0.414617
C82	C	-0.146573	0.218480	-0.218670
C83	C	0.186760	0.551813	0.114663
C84	C	0.520094	0.885146	0.447997
O85	O	-0.118332	0.190003	-0.190283
O86	O	0.215001	0.523336	0.143050
O87	O	0.548335	0.856669	0.476384
C88	C	-0.201176	0.218475	-0.218666
C89	C	0.132157	0.551808	0.114667
C90	C	0.465490	0.885141	0.448001
C91	C	-0.228481	0.251960	-0.252039
C92	C	0.104853	0.585293	0.081294
C93	C	0.438186	0.918627	0.414627
C94	C	-0.228489	0.318927	-0.318789
C95	C	0.104845	0.652260	0.014545
C96	C	0.438178	0.985593	0.347878
C97	C	-0.283089	0.318924	-0.318781
C98	C	0.050244	0.652258	0.014552
C99	C	0.383577	0.985591	0.347886
C100	C	-0.310385	0.285440	-0.285402
C101	C	0.022948	0.618773	0.047931
C102	C	0.356281	0.952107	0.381264
C103	C	-0.283081	0.251958	-0.252032
C104	C	0.050252	0.585291	0.081302
C105	C	0.383586	0.918625	0.414635
C106	C	-0.228475	0.184984	-0.185289
C107	C	0.104858	0.518318	0.148044
C108	C	0.438191	0.851651	0.481378
C109	C	-0.283082	0.184982	-0.185288
C110	C	0.050251	0.518315	0.148045
C111	C	0.383584	0.851649	0.481378
C112	C	-0.310387	0.218467	-0.218662
C113	C	0.022947	0.551801	0.114672
C114	C	0.356280	0.885134	0.448005
C115	C	-0.364978	0.218471	-0.218645
C116	C	-0.031644	0.551805	0.114688
C117	C	0.301689	0.885138	0.448021
N118	N	-0.392285	0.251951	-0.252020
N119	N	-0.058952	0.585284	0.081313
N120	N	0.274382	0.918617	0.414647
C121	C	-0.364989	0.285435	-0.285399
C122	C	-0.031655	0.618768	0.047935
C123	C	0.301678	0.952102	0.381268
C124	C	-0.031902	0.218492	-0.218681
C125	C	0.301431	0.551825	0.114652
C126	C	0.634764	0.885159	0.447985
C127	C	0.022700	0.218499	-0.218682
C128	C	0.356033	0.551833	0.114651
C129	C	0.689367	0.885166	0.447985
C130	C	0.022689	0.285466	-0.285438
C131	C	0.356022	0.618799	0.047896
C132	C	0.689356	0.952133	0.381229
C133	C	-0.031914	0.285461	-0.285434
C134	C	0.301419	0.618795	0.047899
C135	C	0.634752	0.952128	0.381233
C136	C	-0.059209	0.251971	-0.252056
C137	C	0.274124	0.585305	0.081277
C138	C	0.607457	0.918638	0.414611
C139	C	-0.479654	0.285428	-0.285380
C140	C	-0.146321	0.618762	0.047954
C141	C	0.187013	0.952095	0.381287
C142	C	-0.534259	0.285425	-0.285367
C143	C	-0.200926	0.618758	0.047966
C144	C	0.132407	0.952091	0.381299
C145	C	-0.534244	0.218456	-0.218614
C146	C	-0.200910	0.551789	0.114719
C147	C	0.132423	0.885123	0.448053
C148	C	-0.479643	0.218461	-0.218624
C149	C	-0.146310	0.551795	0.114709
C150	C	0.187024	0.885128	0.448043
C151	C	-0.452349	0.251949	-0.252011
C152	C	-0.119016	0.585283	0.081322
C153	C	0.214317	0.918616	0.414656
O154	O	-0.393256	0.190021	-0.190262
O155	O	-0.059923	0.523355	0.143072
O156	O	0.273411	0.856688	0.476405
O157	O	-0.393236	0.313902	-0.313786
O158	O	-0.059903	0.647236	0.019548
O159	O	0.273430	0.980569	0.352881
C160	C	0.108115	0.251979	-0.252065
C161	C	0.441448	0.585312	0.081269
C162	C	0.774782	0.918646	0.414602
C163	C	0.050001	0.251982	-0.252063
C164	C	0.383334	0.585315	0.081270
C165	C	0.716668	0.918649	0.414604
C166	C	-0.755614	0.115586	-0.252067
C167	C	-0.422281	0.448919	0.081266
C168	C	-0.088948	0.782253	0.414599
C169	C	-0.755658	0.057472	-0.252082
C170	C	-0.422325	0.390805	0.081251
C171	C	-0.088992	0.724138	0.414584
C172	C	-0.789031	0.806277	-0.218658
C173	C	-0.455698	1.139611	0.114675
C174	C	-0.122365	1.472944	0.448009
C175	C	-0.789051	0.860882	-0.218665
C176	C	-0.455718	1.194215	0.114668
C177	C	-0.122385	1.527548	0.448002
O178	O	-0.817526	0.889117	-0.190277
O179	O	-0.484192	1.222451	0.143056
O180	O	-0.150859	1.555784	0.476389
N181	N	-0.755604	0.888198	-0.252066
N182	N	-0.422271	1.221531	0.081267
N183	N	-0.088937	1.554865	0.414600
C184	C	-0.722138	0.860907	-0.285467
C185	C	-0.388804	1.194240	0.047867
C186	C	-0.055471	1.527574	0.381200
O187	O	-0.693690	0.889156	-0.313878
O188	O	-0.360357	1.222489	0.019455
O189	O	-0.027023	1.555822	0.352788
C190	C	-0.722120	0.806304	-0.285462
C191	C	-0.388787	1.139637	0.047871
C192	C	-0.055454	1.472971	0.381205
C193	C	-0.755566	0.778990	-0.252055
C194	C	-0.422233	1.112324	0.081279
C195	C	-0.088900	1.445657	0.414612
C196	C	-0.822475	0.778964	-0.185254
C197	C	-0.489142	1.112297	0.148079
C198	C	-0.155808	1.445630	0.481413
C199	C	-0.822454	0.724363	-0.185246
C200	C	-0.489121	1.057696	0.148087
C201	C	-0.155787	1.391030	0.481420
C202	C	-0.788989	0.697076	-0.218643
C203	C	-0.455656	1.030410	0.114690
C204	C	-0.122322	1.363743	0.448024
C205	C	-0.755545	0.724390	-0.252047
C206	C	-0.422212	1.057723	0.081286
C207	C	-0.088879	1.391056	0.414620
C208	C	-0.688657	0.779014	-0.318865
C209	C	-0.355324	1.112347	0.014469
C210	C	-0.021990	1.445681	0.347802
C211	C	-0.688643	0.724407	-0.318857
C212	C	-0.355310	1.057740	0.014476
C213	C	-0.021976	1.391074	0.347809
C214	C	-0.722089	0.697094	-0.285450
C215	C	-0.388756	1.030427	0.047883
C216	C	-0.055422	1.363760	0.381217
C217	C	-0.722059	0.642502	-0.285436
C218	C	-0.388726	0.975836	0.047897
C219	C	-0.055393	1.309169	0.381230
N220	N	-0.755507	0.615186	-0.252035
N221	N	-0.422174	0.948519	0.081299
N222	N	-0.088840	1.281853	0.414632
C223	C	-0.788972	0.642473	-0.218638
C224	C	-0.455638	0.975806	0.114695
C225	C	-0.122305	1.309140	0.448028
C226	C	-0.722177	0.975578	-0.285475
C227	C	-0.388844	1.308911	0.047859
C228	C	-0.055510	1.642244	0.381192
C229	C	-0.722191	1.030180	-0.285477
C230	C	-0.388858	1.363513	0.047856
C231	C	-0.055525	1.696847	0.381189
C232	C	-0.789106	1.030151	-0.218676
C233	C	-0.455773	1.363484	0.114657
C234	C	-0.122439	1.696817	0.447990
C235	C	-0.789089	0.975547	-0.218671
C236	C	-0.455755	1.308881	0.114662
C237	C	-0.122422	1.642214	0.447995
C238	C	-0.755625	0.948261	-0.252073
C239	C	-0.422291	1.281595	0.081260
C240	C	-0.088958	1.614928	0.414593
C241	C	-0.788925	0.527808	-0.218625
C242	C	-0.455591	0.861141	0.114709
C243	C	-0.122258	1.194475	0.448042
C244	C	-0.788899	0.473202	-0.218618
C245	C	-0.455566	0.806536	0.114715
C246	C	-0.122232	1.139869	0.448048
C247	C	-0.721987	0.473237	-0.285421
C248	C	-0.388653	0.806570	0.047912
C249	C	-0.055320	1.139903	0.381245
C250	C	-0.722010	0.527837	-0.285426
C251	C	-0.388677	0.861171	0.047908
C252	C	-0.055343	1.194504	0.381241
C253	C	-0.755483	0.555121	-0.252026
C254	C	-0.422150	0.888455	0.081308
C255	C	-0.088817	1.221788	0.414641
O256	O	-0.693601	0.614232	-0.313811
O257	O	-0.360268	0.947565	0.019523
O258	O	-0.026935	1.280899	0.352856
O259	O	-0.817419	0.614218	-0.190236
O260	O	-0.484086	0.947551	0.143097
O261	O	-0.150753	1.280884	0.476430
C262	C	-0.722160	0.218417	-0.806887
C263	C	-0.388827	0.551750	-0.473553
C264	C	-0.055493	0.885083	-0.140220
C265	C	-0.722163	0.218407	-0.861491
C266	C	-0.388829	0.551741	-0.528158
C267	C	-0.055496	0.885074	-0.194824
O268	O	-0.693738	0.189975	-0.889732
O269	O	-0.360405	0.523308	-0.556398
O270	O	-0.027071	0.856642	-0.223065
N271	N	-0.755578	0.251843	-0.888802
N272	N	-0.422245	0.585176	-0.555468
N273	N	-0.088911	0.918510	-0.222135
C274	C	-0.788989	0.285294	-0.861505
C275	C	-0.455655	0.618627	-0.528172
C276	C	-0.122322	0.951961	-0.194838
O277	O	-0.817411	0.313733	-0.889749
O278	O	-0.484077	0.647066	-0.556415
O279	O	-0.150744	0.980400	-0.223082
C280	C	-0.788983	0.285306	-0.806902
C281	C	-0.455649	0.618639	-0.473568
C282	C	-0.122316	0.951972	-0.140235
C283	C	-0.755569	0.251864	-0.779594
C284	C	-0.422236	0.585197	-0.446261
C285	C	-0.088902	0.918531	-0.112927
C286	C	-0.688749	0.184978	-0.779579
C287	C	-0.355415	0.518312	-0.446246
C288	C	-0.022082	0.851645	-0.112912
C289	C	-0.688747	0.184987	-0.724978
C290	C	-0.355413	0.518321	-0.391645
C291	C	-0.022080	0.851654	-0.058312
C292	C	-0.722156	0.218435	-0.697686
C293	C	-0.388823	0.551768	-0.364352
C294	C	-0.055489	0.885101	-0.031019
C295	C	-0.755567	0.251873	-0.724993
C296	C	-0.422234	0.585206	-0.391660
C297	C	-0.088900	0.918540	-0.058327
C298	C	-0.822390	0.318759	-0.779606
C299	C	-0.489057	0.652092	-0.446273
C300	C	-0.155724	0.985425	-0.112939
C301	C	-0.822381	0.318768	-0.724999
C302	C	-0.489048	0.652101	-0.391666
C303	C	-0.155715	0.985435	-0.058332
C304	C	-0.788968	0.285326	-0.697691
C305	C	-0.455634	0.618660	-0.364358
C306	C	-0.122301	0.951993	-0.031025
C307	C	-0.788974	0.285329	-0.643100
C308	C	-0.455641	0.618662	-0.309767
C309	C	-0.122308	0.951996	0.023567
N310	N	-0.755559	0.251894	-0.615789
N311	N	-0.422226	0.585227	-0.282456
N312	N	-0.088893	0.918560	0.050877
C313	C	-0.722150	0.218446	-0.643082
C314	C	-0.388817	0.551780	-0.309749
C315	C	-0.055483	0.885113	0.023584
C316	C	-0.788998	0.285267	-0.976176
C317	C	-0.455664	0.618601	-0.642842
C318	C	-0.122331	0.951934	-0.309509
C319	C	-0.789006	0.285253	-1.030778
C320	C	-0.455673	0.618587	-0.697445
C321	C	-0.122340	0.951920	-0.364111
C322	C	-0.722180	0.218367	-1.030760
C323	C	-0.388847	0.551701	-0.697427
C324	C	-0.055513	0.885034	-0.364094
C325	C	-0.722174	0.218379	-0.976157
C326	C	-0.388841	0.551712	-0.642824
C327	C	-0.055507	0.885046	-0.309490
C328	C	-0.755583	0.251832	-0.948865
C329	C	-0.422249	0.585165	-0.615532
C330	C	-0.088916	0.918498	-0.282198
C331	C	-0.722149	0.218467	-0.528417
C332	C	-0.388815	0.551801	-0.195084
C333	C	-0.055482	0.885134	0.138250
C334	C	-0.722151	0.218478	-0.473812
C335	C	-0.388818	0.551811	-0.140478
C336	C	-0.055485	0.885144	0.192855
C337	C	-0.788976	0.285365	-0.473834
C338	C	-0.455642	0.618699	-0.140501
C339	C	-0.122309	0.952032	0.192833
C340	C	-0.788975	0.285353	-0.528435
C341	C	-0.455642	0.618687	-0.195101
C342	C	-0.122309	0.952020	0.138232
C343	C	-0.755558	0.251902	-0.555725
C344	C	-0.422224	0.585236	-0.222392
C345	C	-0.088891	0.918569	0.110942
O346	O	-0.817383	0.313748	-0.614825
O347	O	-0.484050	0.647082	-0.281491
O348	O	-0.150716	0.980415	0.051842
O349	O	-0.693728	0.190017	-0.614832
O350	O	-0.360395	0.523350	-0.281498
O351	O	-0.027061	0.856684	0.051835
C352	C	-0.755508	0.251945	-0.116189
C353	C	-0.422175	0.585278	0.217144
C354	C	-0.088842	0.918612	0.550477
C355	C	-0.755595	0.251808	-0.058076
C356	C	-0.422262	0.585141	0.275258
C357	C	-0.088928	0.918474	0.608591
H358	H	-0.556488	0.312695	-0.312544
H359	H	-0.223155	0.646028	0.020789
H360	H	0.110179	0.979361	0.354122
Br361	Br	-0.676754	0.938552	-0.330807
Br362	Br	-0.343420	1.271886	0.002526
Br363	Br	-0.010087	1.605219	0.335859
Br364	Br	-0.676574	0.436194	-0.330745
Br365	Br	-0.343241	0.769527	0.002588
Br366	Br	-0.009908	1.102861	0.335922
H367	H	-0.457438	0.312696	-0.312568
H368	H	-0.124105	0.646030	0.020766
H369	H	0.209229	0.979363	0.354099
Br370	Br	-0.643393	0.139588	-0.816609
Br371	Br	-0.310060	0.472921	-0.483275
Br372	Br	0.023273	0.806254	-0.149942
H373	H	-0.054123	0.191221	-0.191497
H374	H	0.279211	0.524554	0.141836
H375	H	0.612544	0.857888	0.475170
Br376	Br	0.059749	0.173061	-0.173380
Br377	Br	0.393083	0.506395	0.159954
Br378	Br	0.726416	0.839728	0.493287
Br379	Br	-0.191454	0.364375	-0.364095
Br380	Br	0.141879	0.697709	-0.030762
Br381	Br	0.475212	1.031042	0.302571
H382	H	-0.661393	0.702193	-0.346059
H383	H	-0.328060	1.035527	-0.012726
H384	H	0.005274	1.368860	0.320608
H385	H	-0.816135	0.450965	-0.191412
H386	H	-0.482801	0.784299	0.141921
H387	H	-0.149468	1.117632	0.475254
H388	H	-0.816183	0.550016	-0.191428
H389	H	-0.482850	0.883350	0.141905
H390	H	-0.149516	1.216683	0.475239
Br391	Br	-0.191433	0.139534	-0.139997
Br392	Br	0.141900	0.472867	0.193337
Br393	Br	0.475234	0.806201	0.526670
Br394	Br	-0.676804	0.173088	-0.436754
Br395	Br	-0.343470	0.506421	-0.103421
Br396	Br	-0.010137	0.839754	0.229912
Br397	Br	-0.676606	0.564907	-0.330752
Br398	Br	-0.343273	0.898240	0.002582
Br399	Br	-0.009939	1.231574	0.335915
Br400	Br	-0.068964	0.330907	-0.330728
Br401	Br	0.264369	0.664240	0.002606
Br402	Br	0.597702	0.997574	0.335939
Br403	Br	-0.676838	0.172974	-1.067811
Br404	Br	-0.343505	0.506307	-0.734478
Br405	Br	-0.010172	0.839641	-0.401144
H406	H	-0.556478	0.191196	-0.191436
H407	H	-0.223145	0.524529	0.141897
H408	H	0.110189	0.857862	0.475230
Br409	Br	-0.834481	0.938485	-0.173331
Br410	Br	-0.501147	1.271818	0.160002
Br411	Br	-0.167814	1.605151	0.493336
Br412	Br	-0.867855	0.687303	-0.139913
Br413	Br	-0.534522	1.020637	0.193420
Br414	Br	-0.201188	1.353970	0.526754
Br415	Br	-0.676791	1.067242	-0.330810
Br416	Br	-0.343457	1.400575	0.002523
Br417	Br	-0.010124	1.733908	0.335857
H418	H	-0.694966	0.191148	-0.953927
H419	H	-0.361633	0.524481	-0.620593
H420	H	-0.028299	0.857814	-0.287260
H421	H	-0.849729	0.801175	-0.158058
H422	H	-0.516396	1.134508	0.175275
H423	H	-0.183062	1.467842	0.508609
Br424	Br	-0.834363	0.330632	-1.067832
Br425	Br	-0.501030	0.663965	-0.734498
Br426	Br	-0.167697	0.997298	-0.401165
H427	H	-0.816189	0.312578	-0.550670
H428	H	-0.482856	0.645912	-0.217337
H429	H	-0.149522	0.979245	0.115997
Br430	Br	-0.320137	0.364369	-0.364078
Br431	Br	0.013197	0.697702	-0.030745
Br432	Br	0.346530	1.031036	0.302589
Br433	Br	0.059744	0.330905	-0.330742
Br434	Br	0.393078	0.664239	0.002591
Br435	Br	0.726411	0.997572	0.335924
Br436	Br	-0.676799	0.173066	-0.565445
Br437	Br	-0.343466	0.506400	-0.232112
Br438	Br	-0.010133	0.839733	0.101222
H439	H	-0.816357	1.052378	-0.191485
H440	H	-0.483023	1.385711	0.141849
H441	H	-0.149690	1.719044	0.475182
H442	H	-0.457411	0.191196	-0.191448
H443	H	-0.124077	0.524529	0.141886
H444	H	0.209256	0.857863	0.475219
H445	H	-0.661419	0.801243	-0.346066
H446	H	-0.328086	1.134577	-0.012733
H447	H	0.005248	1.467910	0.320601
H448	H	-0.661536	0.157758	-0.702749
H449	H	-0.328203	0.491091	-0.369416
H450	H	0.005131	0.824425	-0.036083
Br451	Br	-0.320123	0.139527	-0.139989
Br452	Br	0.013211	0.472861	0.193345
Br453	Br	0.346544	0.806194	0.526678
Br454	Br	-0.834346	0.330668	-0.939142
Br455	Br	-0.501012	0.664001	-0.605809
Br456	Br	-0.167679	0.997335	-0.272476
H457	H	-0.849599	0.345991	-0.801831
H458	H	-0.516265	0.679324	-0.468497
H459	H	-0.182932	1.012658	-0.135164
Br460	Br	-0.867721	0.364173	-0.687963
Br461	Br	-0.534388	0.697506	-0.354630
Br462	Br	-0.201055	1.030840	-0.021297
Br463	Br	-0.834318	0.330752	-0.436784
Br464	Br	-0.500985	0.664085	-0.103450
Br465	Br	-0.167652	0.997419	0.229883
