data_functionalizedCrystal
_audit_creation_method	'MofGen! by Chris Wilmer'
_symmetry_space_group_name_H-M	'P1'
_symmetry_Int_Tables_number	1
_symmetry_cell_setting	triclinic
loop_
_symmetry_equiv_pos_as_xyz
  x,y,z
_cell_length_a	12.837943
_cell_length_b	17.038272
_cell_length_c	11.892095
_cell_angle_alpha	94.170821
_cell_angle_beta	85.689438
_cell_angle_gamma	92.970248
loop_
_atom_site_label
_atom_site_type_symbol
_atom_site_fract_x
_atom_site_fract_y
_atom_site_fract_z
O1	O	1.399724	0.200065	-0.093986
O2	O	1.097028	0.189958	-0.093992
O3	O	1.246576	0.081062	-0.093980
O4	O	1.250175	0.308961	-0.093998
O5	O	1.234106	0.090126	0.094026
O6	O	1.084557	0.199022	0.094014
O7	O	1.387254	0.209129	0.094021
Zn8	Zn	1.233926	0.205514	0.123868
Zn9	Zn	1.250356	0.193572	-0.123839
O10	O	1.237705	0.318025	0.094009
C11	C	1.051871	0.191076	0.000010
C12	C	0.935896	0.180893	0.000008
C13	C	1.237069	0.056221	0.000023
C14	C	1.227305	-0.031301	0.000022
C15	C	0.705733	0.303310	0.000015
C16	C	0.596764	0.293746	0.000013
C17	C	0.608986	0.152201	0.000012
C18	C	0.717955	0.161765	0.000014
C19	C	0.766325	0.237322	0.000013
C20	C	0.875296	0.246885	0.000006
C21	C	0.887516	0.105342	0.000013
C22	C	0.778547	0.095777	0.000012
C23	C	1.316945	-0.074719	0.000026
C24	C	1.307766	-0.156956	0.000015
C25	C	1.208945	-0.195773	0.000009
C26	C	1.119299	-0.152349	0.000002
C27	C	1.128480	-0.070114	0.000005
C28	C	1.176511	-0.443954	-0.000008
C29	C	1.167337	-0.526195	-0.000007
C30	C	1.355805	-0.530796	0.000003
C31	C	1.364977	-0.448559	0.000013
C32	C	1.275331	-0.405143	0.000001
C33	C	1.199560	-0.279832	0.000001
C34	C	1.284718	-0.321086	0.000000
C35	C	1.432411	0.208011	0.000016
C36	C	1.548386	0.218194	0.000011
C37	C	1.247213	0.342865	0.000003
C38	C	1.256977	0.430387	-0.000004
N39	N	1.222720	0.213665	0.292921
N40	N	1.261569	0.185416	-0.292892
C41	C	1.339540	0.128657	0.529578
C42	C	1.331715	0.134361	0.647919
C43	C	1.199241	0.230770	0.647947
C44	C	1.207066	0.225067	0.529605
C45	C	1.277219	0.174010	0.470425
C46	C	1.285048	0.168311	0.352082
C47	C	1.152569	0.264716	0.352111
C48	C	1.144745	0.270419	0.470453
H49	H	0.745116	0.364831	0.000012
H50	H	0.569578	0.090691	0.000106
H51	H	1.396668	0.087090	0.481393
H52	H	1.382462	0.097429	0.696078
H53	H	1.428789	-0.566154	0.000011
N54	N	0.726371	0.014289	-0.000001
H55	H	0.781294	-0.026063	-0.000006
H56	H	0.676803	0.010590	0.069694
H57	H	1.086860	-0.557796	0.000006
N58	N	0.952868	0.034162	-0.000000
H59	H	1.029241	0.051683	-0.000004
H60	H	0.931872	0.004939	0.069694
H61	H	1.445447	-0.416960	0.000018
H62	H	0.547433	0.347480	0.000018
H63	H	1.101826	0.301647	0.303936
H64	H	1.038837	-0.183960	-0.000010
N65	N	0.927472	0.328373	-0.000004
H66	H	0.872548	0.368724	-0.000001
H67	H	0.967798	0.338783	0.069691
N68	N	1.423530	-0.032854	0.000043
H69	H	1.478923	-0.072841	0.000041
H70	H	1.436070	-0.002190	-0.069651
N71	N	1.069083	0.325481	0.534294
H72	H	1.108787	0.365678	0.583385
H73	H	1.030808	0.353292	0.478793
H74	H	1.380760	-0.192303	0.000020
H75	H	1.103515	-0.408614	-0.000017
N76	N	1.123569	0.285824	0.711786
H77	H	1.128068	0.282549	0.795730
H78	H	1.141908	0.341566	0.691107
H79	H	1.055485	-0.034764	0.000002
N80	N	1.391300	-0.279225	0.000016
H81	H	1.403938	-0.248561	-0.069673
H82	H	1.394599	-0.241895	0.069762
N83	N	1.360699	0.113230	0.288265
H84	H	1.320988	0.073032	0.239182
H85	H	1.412796	0.144443	0.239214
H86	H	1.119099	-0.311445	-0.000001
