data_functionalizedCrystal
_audit_creation_method	'MofGen! by Chris Wilmer'
_symmetry_space_group_name_H-M	'P1'
_symmetry_Int_Tables_number	1
_symmetry_cell_setting	triclinic
loop_
_symmetry_equiv_pos_as_xyz
  x,y,z
_cell_length_a	10.723024
_cell_length_b	13.339070
_cell_length_c	9.798715
_cell_angle_alpha	89.999403
_cell_angle_beta	89.996609
_cell_angle_gamma	100.048582
loop_
_atom_site_label
_atom_site_type_symbol
_atom_site_fract_x
_atom_site_fract_y
_atom_site_fract_z
O1	O	1.704930	0.142225	-0.113477
O2	O	1.346348	0.155839	-0.113481
O3	O	1.484486	0.001483	-0.113475
O4	O	1.566793	0.296581	-0.113483
O5	O	1.484471	0.001483	0.113507
O6	O	1.346334	0.155839	0.113501
O7	O	1.704916	0.142225	0.113505
Zn8	Zn	1.525623	0.149032	0.149541
Zn9	Zn	1.525642	0.149032	-0.149517
O10	O	1.566779	0.296581	0.113500
C11	C	1.299509	0.154848	0.000009
C12	C	1.159959	0.151884	0.000008
C13	C	1.113970	0.238253	0.000005
C14	C	0.969739	0.235192	0.000003
C15	C	1.470575	-0.036303	0.000014
C16	C	1.429133	-0.148892	0.000008
C17	C	1.751368	-0.511449	0.000012
C18	C	1.790309	-0.405666	0.000025
C19	C	1.700018	-0.341468	0.000020
C20	C	1.570779	-0.383062	0.000003
C21	C	1.531834	-0.488855	0.000001
C22	C	1.480485	-0.318874	0.000009
C23	C	1.351246	-0.360469	-0.000008
C24	C	1.312308	-0.466252	-0.000012
C25	C	1.402598	-0.530450	-0.000007
C26	C	1.519430	-0.213081	0.000012
C27	C	1.299897	-0.190487	0.000000
C28	C	1.260956	-0.296270	-0.000013
C29	C	1.751755	0.143216	0.000012
C30	C	1.891305	0.146180	0.000004
C31	C	1.580689	0.334367	0.000008
C32	C	1.622132	0.446956	0.000005
N33	N	1.525619	0.149031	0.353641
N34	N	1.525653	0.149025	-0.353617
C35	C	1.583523	0.083935	0.421420
C36	C	1.583542	0.083932	0.578583
H37	H	0.930127	0.309131	-0.000005
H38	H	1.092554	0.075673	-0.000025
H39	H	1.633078	0.028203	0.363100
C40	C	1.650511	0.008639	0.657315
H41	H	1.641730	0.018509	0.752617
H42	H	1.737821	0.020057	0.633948
H43	H	1.613275	-0.059108	0.633969
C44	C	1.118801	-0.342032	-0.000019
H45	H	1.108546	-0.414229	-0.000010
H46	H	1.080085	-0.320053	-0.079171
H47	H	1.080077	-0.320059	0.079146
H48	H	1.624656	-0.179225	0.000026
H49	H	1.476082	0.204763	0.588105
H50	H	0.930908	0.072237	-0.000002
C51	C	1.458640	0.224305	0.432412
H52	H	1.422295	0.265137	0.369508
H53	H	1.518397	0.266700	0.488158
H54	H	1.393877	0.187507	0.488150
H55	H	1.731732	-0.255335	0.000032
C56	C	1.205012	0.341214	-0.000001
H57	H	1.157455	0.395004	0.000005
H58	H	1.256874	0.346081	-0.079153
H59	H	1.256859	0.346084	0.079164
C60	C	1.932456	-0.359913	0.000050
H61	H	1.942718	-0.287717	0.000068
H62	H	1.971193	-0.381886	-0.079098
H63	H	1.971154	-0.381898	0.079220
C64	C	1.850670	-0.582065	0.000023
H65	H	1.808964	-0.651024	0.000013
H66	H	1.902145	-0.569374	0.079179
H67	H	1.902159	-0.569375	-0.079139
H68	H	1.207074	-0.500114	-0.000016
C69	C	1.200566	-0.119884	-0.000006
H70	H	1.118020	-0.159806	0.000003
H71	H	1.211200	-0.078144	-0.079158
H72	H	1.211191	-0.078151	0.079160
H73	H	1.370899	-0.616589	-0.000023
