data_functionalizedCrystal
_audit_creation_method	'MofGen! by Chris Wilmer'
_symmetry_space_group_name_H-M	'P1'
_symmetry_Int_Tables_number	1
_symmetry_cell_setting	triclinic
loop_
_symmetry_equiv_pos_as_xyz
  x,y,z
_cell_length_a	14.519709
_cell_length_b	11.792241
_cell_length_c	13.596369
_cell_angle_alpha	89.999475
_cell_angle_beta	89.999684
_cell_angle_gamma	83.936780
loop_
_atom_site_label
_atom_site_type_symbol
_atom_site_fract_x
_atom_site_fract_y
_atom_site_fract_z
O1	O	-1.224415	-0.148773	0.081664
O2	O	-0.974415	0.101227	0.331664
O3	O	-0.724415	0.351227	0.581664
O4	O	-0.474415	0.601227	0.831664
O5	O	-0.956002	-0.166294	0.081694
O6	O	-0.706002	0.083706	0.331694
O7	O	-0.456002	0.333706	0.581694
O8	O	-0.206002	0.583706	0.831694
O9	O	-1.096722	0.007673	0.081671
O10	O	-0.846722	0.257673	0.331671
O11	O	-0.596722	0.507673	0.581671
O12	O	-0.346722	0.757673	0.831671
O13	O	-1.083695	-0.322740	0.081686
O14	O	-0.833695	-0.072740	0.331686
O15	O	-0.583695	0.177260	0.581686
O16	O	-0.333695	0.427260	0.831686
O17	O	-1.096704	0.007664	-0.081912
O18	O	-0.846704	0.257664	0.168088
O19	O	-0.596704	0.507664	0.418088
O20	O	-0.346704	0.757664	0.668088
O21	O	-0.955984	-0.166303	-0.081889
O22	O	-0.705984	0.083697	0.168111
O23	O	-0.455984	0.333697	0.418111
O24	O	-0.205984	0.583697	0.668111
O25	O	-1.224397	-0.148782	-0.081919
O26	O	-0.974397	0.101218	0.168081
O27	O	-0.724397	0.351218	0.418081
O28	O	-0.474397	0.601218	0.668081
Zn29	Zn	-1.090188	-0.157544	-0.107877
Zn30	Zn	-0.840188	0.092456	0.142123
Zn31	Zn	-0.590188	0.342456	0.392123
Zn32	Zn	-0.340188	0.592456	0.642123
Zn33	Zn	-1.090211	-0.157532	0.107651
Zn34	Zn	-0.840211	0.092468	0.357651
Zn35	Zn	-0.590211	0.342468	0.607651
Zn36	Zn	-0.340211	0.592468	0.857651
O37	O	-1.083677	-0.322749	-0.081897
O38	O	-0.833677	-0.072749	0.168103
O39	O	-0.583677	0.177251	0.418103
O40	O	-0.333677	0.427251	0.668103
C41	C	-0.921630	-0.165482	-0.000094
C42	C	-0.671630	0.084518	0.249906
C43	C	-0.421630	0.334518	0.499906
C44	C	-0.171630	0.584518	0.749906
C45	C	-0.819240	-0.163035	-0.000083
C46	C	-0.569240	0.086965	0.249917
C47	C	-0.319240	0.336965	0.499917
C48	C	-0.069240	0.586965	0.749917
N49	N	-1.090179	-0.157552	-0.254968
N50	N	-0.840179	0.092448	-0.004968
N51	N	-0.590179	0.342448	0.245032
N52	N	-0.340179	0.592448	0.495032
C53	C	-1.258769	-0.149594	-0.000129
C54	C	-1.008769	0.100406	0.249871
C55	C	-0.758769	0.350406	0.499871
C56	C	-0.508769	0.600406	0.749871
C57	C	-1.361159	-0.152041	-0.000134
C58	C	-1.111159	0.097959	0.249866
C59	C	-0.861159	0.347959	0.499866
C60	C	-0.611159	0.597959	0.749866
C61	C	-0.444311	-0.154027	-0.000128
C62	C	-0.194311	0.095973	0.249872
C63	C	0.055689	0.345973	0.499872
C64	C	0.305689	0.595973	0.749872
C65	C	-0.548628	-0.156528	-0.000115
C66	C	-0.298628	0.093472	0.249885
C67	C	-0.048628	0.343472	0.499885
C68	C	0.201372	0.593472	0.749885
C69	C	-0.631772	-0.158531	-0.000104
C70	C	-0.381772	0.091469	0.249896
C71	C	-0.131772	0.341469	0.499896
C72	C	0.118228	0.591469	0.749896
C73	C	-0.736096	-0.161033	-0.000093
C74	C	-0.486096	0.088967	0.249907
C75	C	-0.236096	0.338967	0.499907
C76	C	0.013904	0.588967	0.749907
C77	C	-1.095895	0.049955	-0.000120
C78	C	-0.845895	0.299955	0.249880
C79	C	-0.595895	0.549955	0.499880
C80	C	-0.345895	0.799955	0.749880
C81	C	-1.093446	0.175955	-0.000119
C82	C	-0.843446	0.425955	0.249881
C83	C	-0.593446	0.675955	0.499881
C84	C	-0.343446	0.925955	0.749881
C85	C	-1.084504	-0.365031	-0.000103
C86	C	-0.834504	-0.115031	0.249897
C87	C	-0.584504	0.134969	0.499897
C88	C	-0.334504	0.384969	0.749897
C89	C	-1.086953	-0.491031	-0.000098
C90	C	-0.836953	-0.241031	0.249902
C91	C	-0.586953	0.008969	0.499902
C92	C	-0.336953	0.258969	0.749902
C93	C	-1.088942	0.406642	-0.000102
C94	C	-0.838942	0.656642	0.249898
C95	C	-0.588942	0.906642	0.499898
C96	C	-0.338942	1.156642	0.749898
C97	C	-1.091444	0.278271	-0.000111
C98	C	-0.841444	0.528271	0.249889
C99	C	-0.591444	0.778271	0.499889
C100	C	-0.341444	1.028271	0.749889
C101	C	-1.090184	-0.157555	-0.343966
C102	C	-0.840184	0.092445	-0.093966
C103	C	-0.590184	0.342445	0.156034
C104	C	-0.340184	0.592445	0.406034
C105	C	-1.090193	-0.157547	-0.455618
C106	C	-0.840193	0.092453	-0.205618
C107	C	-0.590193	0.342453	0.044382
C108	C	-0.340193	0.592453	0.294382
C109	C	-1.090205	-0.157534	-0.544608
C110	C	-0.840205	0.092466	-0.294608
C111	C	-0.590205	0.342466	-0.044608
C112	C	-0.340205	0.592466	0.205392
C113	C	-1.090215	-0.157527	-0.656267
C114	C	-0.840215	0.092473	-0.406267
C115	C	-0.590215	0.342473	-0.156267
C116	C	-0.340215	0.592473	0.093733
N117	N	-1.090227	-0.157515	0.254743
N118	N	-0.840227	0.092485	0.504743
N119	N	-0.590227	0.342485	0.754743
N120	N	-0.340227	0.592485	1.004743
