data_functionalizedCrystal
_audit_creation_method	'MofGen! by Chris Wilmer'
_symmetry_space_group_name_H-M	'P1'
_symmetry_Int_Tables_number	1
_symmetry_cell_setting	triclinic
loop_
_symmetry_equiv_pos_as_xyz
  x,y,z
_cell_length_a	16.120490
_cell_length_b	10.686285
_cell_length_c	10.686551
_cell_angle_alpha	80.915481
_cell_angle_beta	82.497748
_cell_angle_gamma	82.516228
loop_
_atom_site_label
_atom_site_type_symbol
_atom_site_fract_x
_atom_site_fract_y
_atom_site_fract_z
Zn1	Zn	1.341638	-0.546043	-0.774513
Zn2	Zn	1.674971	-0.212710	-0.441179
Zn3	Zn	2.008304	0.120624	-0.107846
Zn4	Zn	1.341570	-0.774618	-0.546006
Zn5	Zn	1.674903	-0.441285	-0.212672
Zn6	Zn	2.008237	-0.107952	0.120661
Zn7	Zn	1.191191	-0.551645	-0.551565
Zn8	Zn	1.524524	-0.218312	-0.218232
Zn9	Zn	1.857857	0.115021	0.115102
Zn10	Zn	1.211208	-0.748919	-0.748929
Zn11	Zn	1.544541	-0.415586	-0.415596
Zn12	Zn	1.877875	-0.082253	-0.082263
O13	O	1.271402	-0.655306	-0.655253
O14	O	1.604735	-0.321973	-0.321920
O15	O	1.938068	0.011360	0.011414
O16	O	1.459148	-0.584775	-0.752581
O17	O	1.792481	-0.251441	-0.419248
O18	O	2.125815	0.081892	-0.085914
O19	O	1.313216	-0.758140	-0.368514
O20	O	1.646549	-0.424807	-0.035181
O21	O	1.979883	-0.091473	0.298152
O22	O	1.202799	-0.372683	-0.594173
O23	O	1.536132	-0.039350	-0.260839
O24	O	1.869466	0.293984	0.072494
O25	O	1.459098	-0.752708	-0.584698
O26	O	1.792432	-0.419375	-0.251364
O27	O	2.125765	-0.086041	0.081969
O28	O	1.313332	-0.368567	-0.757972
O29	O	1.646665	-0.035234	-0.424638
O30	O	1.979998	0.298100	-0.091305
O31	O	1.202733	-0.594323	-0.372599
O32	O	1.536067	-0.260989	-0.039265
O33	O	1.869400	0.072344	0.294068
O34	O	1.076327	-0.569404	-0.569365
O35	O	1.409660	-0.236070	-0.236032
O36	O	1.742993	0.097263	0.097301
O37	O	1.236916	-0.708908	-0.930552
O38	O	1.570249	-0.375574	-0.597218
O39	O	1.903582	-0.042241	-0.263885
O40	O	1.091033	-0.714340	-0.714368
O41	O	1.424367	-0.381006	-0.381035
O42	O	1.757700	-0.047673	-0.047702
O43	O	1.332742	-0.559855	-0.949348
O44	O	1.666075	-0.226522	-0.616014
O45	O	1.999408	0.106811	-0.282681
O46	O	1.332626	-0.949428	-0.559890
O47	O	1.665959	-0.616095	-0.226557
O48	O	1.999293	-0.282762	0.106776
O49	O	1.236850	-0.930548	-0.708978
O50	O	1.570183	-0.597214	-0.375644
O51	O	1.903516	-0.263881	-0.042311
C52	C	1.286927	-0.986198	-0.631084
C53	C	1.620260	-0.652864	-0.297751
C54	C	1.953593	-0.319531	0.035583
C55	C	1.293647	-1.127757	-0.620792
C56	C	1.626981	-0.794424	-0.287459
C57	C	1.960314	-0.461090	0.045874
C58	C	1.053209	-0.639692	-0.639695
C59	C	1.386542	-0.306358	-0.306361
C60	C	1.719875	0.026975	0.026972
C61	C	0.959868	-0.633040	-0.633067
C62	C	1.293201	-0.299707	-0.299733
C63	C	1.626534	0.033626	0.033600
C64	C	0.754685	-0.689799	-0.689637
C65	C	1.088018	-0.356466	-0.356303
C66	C	1.421352	-0.023133	-0.022970
C67	C	0.788979	-0.620908	-0.620963
C68	C	1.122312	-0.287575	-0.287630
C69	C	1.455646	0.045759	0.045704
C70	C	0.884070	-0.627660	-0.627699
C71	C	1.217404	-0.294327	-0.294366
C72	C	1.550737	0.039006	0.038967
C73	C	0.659585	-0.683048	-0.682902
C74	C	0.992918	-0.349715	-0.349568
C75	C	1.326252	-0.016382	-0.016235
C76	C	1.490447	-0.670983	-0.670873
C77	C	1.823780	-0.337650	-0.337540
C78	C	2.157113	-0.004316	-0.004206
C79	C	1.583791	-0.677663	-0.677529
C80	C	1.917124	-0.344330	-0.344196
C81	C	2.250457	-0.010997	-0.010863
C82	C	1.287069	-0.630890	-0.987455
C83	C	1.620402	-0.297557	-0.654121
C84	C	1.953736	0.035777	-0.320788
C85	C	1.293746	-0.620485	-1.129019
C86	C	1.627079	-0.287152	-0.795686
C87	C	1.960412	0.046182	-0.462352
C88	C	1.255840	-0.323123	-0.679546
C89	C	1.589173	0.010211	-0.346213
C90	C	1.922507	0.343544	-0.012879
C91	C	1.249209	-0.181566	-0.689898
C92	C	1.582542	0.151768	-0.356565
C93	C	1.915875	0.485101	-0.023232
C94	C	1.255839	-0.679540	-0.324354
C95	C	1.589172	-0.346206	0.008979
C96	C	1.922506	-0.012873	0.342312
C97	C	1.249308	-0.689597	-0.182828
C98	C	1.582642	-0.356264	0.150505
C99	C	1.915975	-0.022931	0.483838
H100	H	1.206022	-1.119338	-0.756939
H101	H	1.539356	-0.786005	-0.423605
H102	H	1.872689	-0.452671	-0.090272
Cl103	Cl	1.360319	-1.223836	-0.517264
Cl104	Cl	1.693652	-0.890503	-0.183931
Cl105	Cl	2.026986	-0.557169	0.149403
Cl106	Cl	1.182686	-0.793250	-1.086749
Cl107	Cl	1.516019	-0.459917	-0.753416
Cl108	Cl	1.849352	-0.126583	-0.420082
H109	H	0.746923	-0.556857	-0.557110
H110	H	1.080257	-0.223524	-0.223777
H111	H	1.413590	0.109810	0.109556
H112	H	0.796738	-0.753846	-0.753483
H113	H	1.130071	-0.420513	-0.420150
H114	H	1.463404	-0.087180	-0.086816
Cl115	Cl	1.360381	-0.516842	-1.225103
Cl116	Cl	1.693715	-0.183509	-0.891770
Cl117	Cl	2.027048	0.149825	-0.558437
