data_functionalizedCrystal
_audit_creation_method	'MofGen! by Chris Wilmer'
_symmetry_space_group_name_H-M	'P1'
_symmetry_Int_Tables_number	1
_symmetry_cell_setting	triclinic
loop_
_symmetry_equiv_pos_as_xyz
  x,y,z
_cell_length_a	12.759401
_cell_length_b	17.640280
_cell_length_c	12.759393
_cell_angle_alpha	78.768143
_cell_angle_beta	89.982620
_cell_angle_gamma	78.801088
loop_
_atom_site_label
_atom_site_type_symbol
_atom_site_fract_x
_atom_site_fract_y
_atom_site_fract_z
Zn1	Zn	1.690805	-0.314619	-0.509515
Zn2	Zn	1.726234	-0.446816	-0.298344
Zn3	Zn	1.515121	-0.314661	-0.333844
Zn4	Zn	1.550610	-0.446755	-0.474002
O5	O	1.620692	-0.380713	-0.403926
O6	O	1.842528	-0.332163	-0.481509
O7	O	1.698204	-0.429329	-0.156021
O8	O	1.508747	-0.204048	-0.386866
O9	O	1.868557	-0.429288	-0.326362
O10	O	1.637821	-0.204017	-0.515931
O11	O	1.543101	-0.332235	-0.182102
O12	O	1.372806	-0.332175	-0.352430
O13	O	1.569232	-0.429184	-0.625746
O14	O	1.398879	-0.429224	-0.455404
O15	O	1.672233	-0.332104	-0.651837
O16	O	1.732616	-0.557415	-0.291927
O17	O	1.603586	-0.557370	-0.420982
C18	C	1.347721	-0.380698	-0.403916
C19	C	1.230948	-0.380711	-0.403931
C20	C	1.189712	-0.431325	-0.457417
C21	C	1.079990	-0.431335	-0.457426
C22	C	1.052751	-0.330114	-0.350455
C23	C	1.162469	-0.330101	-0.350453
C24	C	1.205438	-0.489767	-0.519172
C25	C	1.095716	-0.489777	-0.519181
C26	C	1.675825	-0.586072	-0.348772
C27	C	1.699507	-0.673925	-0.325211
C28	C	1.441214	-0.962885	-0.583294
C29	C	1.463469	-1.045436	-0.561122
C30	C	1.597911	-1.045418	-0.426873
C31	C	1.575671	-0.962864	-0.449037
C32	C	1.497320	-0.921604	-0.527248
C33	C	1.631777	-0.921584	-0.392991
C34	C	1.609535	-0.839038	-0.415150
C35	C	1.531186	-0.797772	-0.493355
C36	C	1.475078	-0.839058	-0.549407
C37	C	1.710122	-0.962846	-0.314775
C38	C	1.766229	-0.921565	-0.258729
C39	C	1.743992	-0.839018	-0.280893
C40	C	1.665643	-0.797752	-0.359098
C41	C	1.800100	-0.797732	-0.224841
C42	C	1.777858	-0.715185	-0.247000
C43	C	1.643400	-0.715206	-0.381257
C44	C	1.894730	-0.380728	-0.403937
C45	C	2.011508	-0.380734	-0.403942
C46	C	1.620739	-0.380632	-0.677981
C47	C	1.620759	-0.380598	-0.794767
C48	C	1.565373	-0.174552	-0.459320
C49	C	1.541800	-0.086698	-0.482925
C50	C	1.540023	-0.330032	-0.863218
C51	C	1.540048	-0.330008	-0.972949
C52	C	1.701556	-0.431119	-0.945767
C53	C	1.701525	-0.431146	-0.836038
C54	C	1.446780	-0.271653	-0.878913
C55	C	1.446805	-0.271630	-0.988644
C56	C	1.620691	-0.380736	-0.130953
C57	C	1.620815	-0.380548	-0.014227
H58	H	1.230857	-0.473442	-0.604962
H59	H	0.996982	-0.288909	-0.306916
H60	H	1.767256	-0.472334	-0.780305
H61	H	1.767313	-0.472273	-0.979383
H62	H	1.055844	-0.467926	-0.602399
C63	C	1.344263	-0.293628	-0.833150
C64	C	1.369439	-0.362104	-0.753803
C65	C	1.275034	-0.382365	-0.711611
H66	H	1.301442	-0.302784	-0.888498
H67	H	1.305973	-0.251766	-0.802984
H68	H	1.407712	-0.403956	-0.783969
H69	H	1.412246	-0.352967	-0.698434
H70	H	1.236744	-0.340503	-0.681445
H71	H	1.232220	-0.391517	-0.766966
H72	H	1.292103	-0.428823	-0.657763
H73	H	1.082370	-0.550978	-0.480818
C74	C	1.356086	-0.918222	-0.668228
C75	C	1.311698	-0.972039	-0.712566
C76	C	1.233275	-0.930925	-0.790800
H77	H	1.387460	-0.885978	-0.722779
H78	H	1.301610	-0.886078	-0.636661
H79	H	1.366165	-1.004170	-0.744134
H80	H	1.280303	-1.004285	-0.658042
H81	H	1.178799	-0.898781	-0.759233
H82	H	1.264658	-0.898683	-0.845344
H83	H	1.203141	-0.967433	-0.820886
C84	C	1.271674	-0.567186	-0.459158
C85	C	1.329526	-0.553037	-0.374178
C86	C	1.390545	-0.624337	-0.318860
H87	H	1.319840	-0.590164	-0.506329
H88	H	1.225647	-0.602168	-0.432090
H89	H	1.375549	-0.518068	-0.401246
H90	H	1.281387	-0.530071	-0.326983
H91	H	1.344518	-0.659319	-0.291792
H92	H	1.438705	-0.647309	-0.366039
H93	H	1.429797	-0.614748	-0.261189
H94	H	1.661701	-1.079023	-0.363190
C95	C	1.464785	-0.194062	-0.854578
C96	C	1.476756	-0.142634	-0.950309
C97	C	1.493333	-0.071147	-0.927933
H98	H	1.527559	-0.203361	-0.810187
H99	H	1.405120	-0.171146	-0.818866
H100	H	1.536416	-0.165545	-0.986004
H101	H	1.413993	-0.133311	-0.994713
H102	H	1.433668	-0.048231	-0.892221
H103	H	1.556106	-0.080455	-0.883541
H104	H	1.501448	-0.036242	-0.992882
C105	C	1.838921	-0.670503	-0.186072
C106	C	1.912317	-0.724304	-0.112855
C107	C	1.968592	-0.683171	-0.056713
H108	H	1.790204	-0.638344	-0.148802
H109	H	1.876046	-0.638272	-0.234929
H110	H	1.875195	-0.756521	-0.064005
H111	H	1.961056	-0.756464	-0.150097
H112	H	2.005716	-0.650940	-0.105570
H113	H	1.919867	-0.651014	-0.019449
H114	H	2.018404	-0.719669	-0.007036
H115	H	1.579607	-0.681610	-0.444952
H116	H	1.417786	-1.079044	-0.606780
C117	C	1.390183	-0.794207	-0.634470
C118	C	1.436865	-0.746768	-0.714601
C119	C	1.358702	-0.705446	-0.792981
H120	H	1.335727	-0.761983	-0.603013
H121	H	1.359961	-0.830584	-0.664756
H122	H	1.467070	-0.710396	-0.684318
H123	H	1.491313	-0.778972	-0.746087
H124	H	1.328481	-0.741823	-0.823267
H125	H	1.304251	-0.673227	-0.761513
H126	H	1.390367	-0.673260	-0.847363
C127	C	1.351629	-0.300976	-1.025993
C128	C	1.354115	-0.378248	-0.971151
C129	C	1.266453	-0.405308	-1.005515
H130	H	1.354829	-0.300032	-1.100603
H131	H	1.287269	-0.267862	-1.011873
H132	H	1.418458	-0.411354	-0.985279
H133	H	1.350900	-0.379213	-0.896541
H134	H	1.202093	-0.372194	-0.991395
H135	H	1.269662	-0.404359	-1.080125
H136	H	1.268123	-0.457736	-0.968303
H137	H	1.452167	-0.210405	-1.034878
H138	H	1.196037	-0.288881	-0.306908
C139	C	1.507026	-0.708149	-0.517194
C140	C	1.472963	-0.680893	-0.424457
C141	C	1.450711	-0.598338	-0.446374
H142	H	1.452306	-0.689388	-0.571746
H143	H	1.569772	-0.689399	-0.540401
H144	H	1.410224	-0.699636	-0.401265
H145	H	1.527667	-0.699633	-0.369893
H146	H	1.513457	-0.579588	-0.469580
H147	H	1.395993	-0.579585	-0.500928
H148	H	1.427606	-0.579835	-0.383454
H149	H	1.728232	-1.030060	-0.296739
H150	H	1.830019	-0.955171	-0.195047
C151	C	1.885146	-0.842676	-0.139991
C152	C	1.892624	-0.923802	-0.132590
C153	C	1.970962	-0.965228	-0.054441
H154	H	1.866258	-0.829275	-0.072946
H155	H	1.952113	-0.829156	-0.159059
H156	H	1.825672	-0.937318	-0.113515
H157	H	1.911526	-0.937227	-0.199614
H158	H	2.037929	-0.951708	-0.073510
H159	H	1.952066	-0.951821	0.012598
H160	H	1.976053	-1.020276	-0.049416
