data_functionalizedCrystal
_audit_creation_method	'MofGen! by Chris Wilmer'
_symmetry_space_group_name_H-M	'P1'
_symmetry_Int_Tables_number	1
_symmetry_cell_setting	triclinic
loop_
_symmetry_equiv_pos_as_xyz
  x,y,z
_cell_length_a	19.288864
_cell_length_b	14.519709
_cell_length_c	18.366186
_cell_angle_alpha	89.992822
_cell_angle_beta	89.977106
_cell_angle_gamma	83.408195
loop_
_atom_site_label
_atom_site_type_symbol
_atom_site_fract_x
_atom_site_fract_y
_atom_site_fract_z
O1	O	0.921767	0.115045	-0.060785
O2	O	0.719562	0.130564	-0.060735
O3	O	0.826026	-0.011468	-0.060755
O4	O	0.815303	0.257077	-0.060765
O5	O	0.826007	-0.011475	0.060345
O6	O	0.719544	0.130557	0.060364
O7	O	0.921749	0.115038	0.060315
Zn8	Zn	0.820643	0.122797	0.079567
Zn9	Zn	0.820667	0.122806	-0.079987
O10	O	0.815285	0.257070	0.060334
C11	C	0.693675	0.130061	-0.000179
C12	C	0.616566	0.128562	-0.000160
C13	C	0.825517	-0.045828	-0.000205
C14	C	0.824019	-0.148200	-0.000204
C15	C	0.572169	0.211900	-0.000175
C16	C	0.499717	0.210492	-0.000183
C17	C	0.471665	0.125741	-0.000191
C18	C	0.516071	0.042392	-0.000172
C19	C	0.588521	0.043803	-0.000156
C20	C	0.363169	0.059120	-0.042639
C21	C	0.290720	0.057713	-0.042659
C22	C	0.248203	0.121387	-0.000234
C23	C	0.278144	0.186484	0.042200
C24	C	0.350595	0.187894	0.042215
C25	C	0.393105	0.124202	-0.000207
C26	C	0.125246	0.203203	-0.000257
C27	C	0.052792	0.201792	-0.000260
C28	C	0.069148	0.033689	-0.000257
C29	C	0.141599	0.035103	-0.000246
C30	C	0.169644	0.119863	-0.000249
C31	C	0.818507	-0.523061	-0.000222
C32	C	0.820037	-0.418762	-0.000216
C33	C	0.821263	-0.335633	-0.000212
C34	C	0.822794	-0.231329	-0.000208
C35	C	0.947636	0.115541	-0.000243
C36	C	1.024745	0.117040	-0.000267
C37	C	0.815794	0.291430	-0.000217
C38	C	0.817291	0.393802	-0.000223
N39	N	0.820632	0.122790	0.188458
N40	N	0.820684	0.122805	-0.188878
C41	C	0.867790	0.059929	0.226549
C42	C	0.867794	0.059925	0.302777
C43	C	0.820648	0.122797	0.340910
C44	C	0.773481	0.185663	0.302809
C45	C	0.773473	0.185659	0.226583
C46	C	0.811652	0.206826	0.461669
C47	C	0.811664	0.206831	0.537894
C48	C	0.820667	0.122809	0.576018
C49	C	0.829673	0.038778	0.537908
C50	C	0.829665	0.038775	0.461681
C51	C	0.820650	0.122808	0.423565
C52	C	0.867832	0.059938	0.696765
C53	C	0.867832	0.059933	0.772994
C54	C	0.773522	0.185679	0.773025
C55	C	0.773519	0.185677	0.696797
C56	C	0.820678	0.122807	0.658671
H57	H	0.594998	0.280918	-0.000179
N58	N	0.260125	-0.008767	-0.086000
N59	N	0.217057	0.017853	-0.134583
H60	H	0.195448	-0.029100	-0.165193
N61	N	0.381192	0.254363	0.085566
N62	N	0.445881	0.255605	0.085575
H63	H	0.467492	0.302546	0.116195
H64	H	0.906187	0.008734	0.195510
N65	N	0.725321	0.249898	0.341747
N66	N	0.683218	0.306023	0.307723
H67	H	0.649201	0.351389	0.335221
N68	N	0.916004	-0.004296	0.811895
N69	N	0.958102	-0.060422	0.777842
H70	H	0.992124	-0.105786	0.805316
N71	N	0.915969	-0.004299	0.341687
N72	N	0.958067	-0.060428	0.307637
H73	H	0.992091	-0.105786	0.335115
H74	H	0.906230	0.008743	0.665722
N75	N	0.725353	0.249910	0.657896
N76	N	0.726410	0.335150	0.666401
H77	H	0.692389	0.380518	0.638929
N78	N	0.406586	-0.005941	-0.085974
N79	N	0.379847	-0.064052	-0.123860
H80	H	0.410509	-0.110003	-0.154463
H81	H	0.493226	-0.026613	-0.000188
N82	N	0.234730	0.251560	0.085521
N83	N	0.188866	0.306919	0.055863
H84	H	0.158205	0.352888	0.086451
N85	N	0.633865	-0.041338	-0.000138
N86	N	0.608814	-0.117005	-0.000138
H87	H	0.640839	-0.177137	-0.000125
N88	N	0.838862	-0.047061	0.422764
N89	N	0.846903	-0.122078	0.456804
H90	H	0.853396	-0.182702	0.429319
H91	H	0.837003	-0.029640	0.568947
H92	H	0.148080	0.272220	-0.000249
N93	N	0.725360	0.249888	0.811978
N94	N	0.725369	0.249880	0.880037
H95	H	0.691351	0.295226	0.907552
N96	N	0.802475	0.292670	0.576807
N97	N	0.794430	0.367682	0.542762
H98	H	0.787941	0.428310	0.570243
N99	N	0.802453	0.292654	0.422724
N100	N	0.752012	0.309610	0.380213
H101	H	0.745515	0.370225	0.352709
H102	H	0.046308	-0.035317	-0.000308
N103	N	0.725304	0.249891	0.187682
N104	N	0.726359	0.335131	0.196188
H105	H	0.692339	0.380498	0.168714
N106	N	0.454367	0.295632	-0.000194
N107	N	0.479415	0.371301	-0.000193
H108	H	0.447389	0.431432	-0.000201
N109	N	0.007443	0.286927	-0.000256
N110	N	0.010039	0.343357	0.050790
H111	H	-0.021989	0.403488	0.050795
N112	N	0.186943	-0.050034	-0.000233
N113	N	0.161891	-0.125700	-0.000237
H114	H	0.193915	-0.185834	-0.000225
