data_functionalizedCrystal
_audit_creation_method	'MofGen! by Chris Wilmer'
_symmetry_space_group_name_H-M	'P1'
_symmetry_Int_Tables_number	1
_symmetry_cell_setting	triclinic
loop_
_symmetry_equiv_pos_as_xyz
  x,y,z
_cell_length_a	12.594517
_cell_length_b	25.639240
_cell_length_c	12.594509
_cell_angle_alpha	89.958690
_cell_angle_beta	89.978673
_cell_angle_gamma	90.032557
loop_
_atom_site_label
_atom_site_type_symbol
_atom_site_fract_x
_atom_site_fract_y
_atom_site_fract_z
Zn1	Zn	1.627143	-0.208138	-0.601763
Zn2	Zn	1.626982	-0.295580	-0.423744
Zn3	Zn	1.449147	-0.208160	-0.423792
Zn4	Zn	1.449078	-0.295544	-0.601674
O5	O	1.538088	-0.251855	-0.512743
O6	O	1.776068	-0.219743	-0.578166
O7	O	1.603354	-0.284008	-0.274805
O8	O	1.472855	-0.134992	-0.447458
O9	O	1.775949	-0.283987	-0.447376
O10	O	1.603628	-0.134976	-0.578212
O11	O	1.472699	-0.219781	-0.274840
O12	O	1.300192	-0.219746	-0.447371
O13	O	1.472737	-0.283925	-0.750632
O14	O	1.300141	-0.283946	-0.578060
O15	O	1.603561	-0.219708	-0.750697
O16	O	1.603286	-0.368740	-0.447289
O17	O	1.472580	-0.368714	-0.578014
C18	C	1.261547	-0.251845	-0.512712
C19	C	1.143241	-0.251853	-0.512724
C20	C	1.073985	-0.216887	-0.441778
C21	C	1.003146	-0.264579	-0.415576
C22	C	1.003282	-0.204184	-0.538944
C23	C	1.073960	-0.299570	-0.486471
C24	C	1.074102	-0.239144	-0.609885
C25	C	1.003295	-0.286869	-0.583720
C26	C	1.537937	-0.387698	-0.512660
C27	C	1.537970	-0.445812	-0.512660
C28	C	1.606215	-0.806128	-0.580950
C29	C	1.606246	-0.860732	-0.580972
O30	O	1.664091	-0.888929	-0.638949
N31	N	1.538235	-0.888094	-0.512846
C32	C	1.470181	-0.860849	-0.444702
O33	O	1.412334	-0.889137	-0.386759
C34	C	1.470145	-0.806246	-0.444687
C35	C	1.538168	-0.778887	-0.512809
C36	C	1.674232	-0.778769	-0.649068
C37	C	1.674201	-0.724168	-0.649045
C38	C	1.606154	-0.696927	-0.580904
C39	C	1.538138	-0.724286	-0.512786
C40	C	1.402086	-0.779002	-0.376549
C41	C	1.402055	-0.724395	-0.376540
C42	C	1.470078	-0.697036	-0.444662
C43	C	1.470060	-0.642445	-0.444622
N44	N	1.538071	-0.615083	-0.512747
C45	C	1.606118	-0.642324	-0.580888
C46	C	1.470260	-0.975520	-0.444741
C47	C	1.470301	-1.030122	-0.444751
C48	C	1.606365	-1.030002	-0.581022
C49	C	1.606329	-0.975398	-0.581006
C50	C	1.538271	-0.948158	-0.512867
C51	C	1.606050	-0.527659	-0.580833
C52	C	1.606017	-0.473053	-0.580801
C53	C	1.469949	-0.473179	-0.444534
C54	C	1.469986	-0.527780	-0.444562
C55	C	1.538040	-0.555018	-0.512720
O56	O	1.412242	-0.614213	-0.386677
O57	O	1.663945	-0.614029	-0.638832
C58	C	1.815708	-0.251866	-0.512775
C59	C	1.934014	-0.251871	-0.512789
C60	C	1.538159	-0.251810	-0.790364
C61	C	1.538189	-0.251790	-0.908670
C62	C	1.538268	-0.115482	-0.512850
C63	C	1.538344	-0.057368	-0.512896
C64	C	1.467056	-0.286698	-0.977888
C65	C	1.564169	-0.299473	-1.048672
C66	C	1.441152	-0.238984	-1.048685
C67	C	1.635353	-0.264590	-0.977896
C68	C	1.512270	-0.204079	-0.977903
C69	C	1.609450	-0.216836	-1.048655
C70	C	1.538078	-0.251863	-0.236202
C71	C	1.538254	-0.251736	-0.117898
H72	H	1.661459	-0.549830	-0.636342
C73	C	1.177690	-0.373640	-0.539602
C74	C	1.115688	-0.354017	-0.456434
H75	H	1.203456	-0.407251	-0.521052
H76	H	1.135742	-0.376093	-0.602058
H77	H	1.235932	-0.350887	-0.552086
H78	H	1.057442	-0.376768	-0.443955
H79	H	1.157639	-0.351567	-0.393960
C80	C	1.078678	-0.127214	-0.387136
C81	C	1.115897	-0.177007	-0.360692
H82	H	1.104550	-0.102598	-0.337072
H83	H	1.102981	-0.118101	-0.456101
H84	H	1.003259	-0.127175	-0.386150
H85	H	1.191316	-0.177048	-0.361686
H86	H	1.091599	-0.186123	-0.291709
H87	H	1.346631	-0.702219	-0.321054
H88	H	1.586127	-0.339798	-1.079758
H89	H	1.359062	-0.228175	-1.079780
C90	C	1.745150	-0.279171	-0.824932
C91	C	1.746203	-0.279252	-0.936106
H92	H	1.813580	-0.288227	-0.799134
H93	H	1.726611	-0.245407	-0.800120
H94	H	1.694554	-0.303832	-0.800148
H95	H	1.796793	-0.254588	-0.960890
H96	H	1.764754	-0.313021	-0.960929
C97	C	0.999065	-0.313940	-0.766136
C98	C	0.961651	-0.326841	-0.664752
H99	H	0.973359	-0.338620	-0.816156
H100	H	0.974726	-0.280110	-0.784895
H101	H	1.074485	-0.314348	-0.766119
H102	H	0.886230	-0.326428	-0.664767
H103	H	0.985984	-0.360679	-0.645989
H104	H	1.669702	-0.187292	-1.079531
H105	H	0.971980	-0.275340	-0.333436
H106	H	1.105293	-0.228368	-0.691999
C107	C	0.850198	-0.150464	-0.569495
C108	C	0.961366	-0.149755	-0.568850
H109	H	0.824325	-0.116860	-0.587944
H110	H	0.826004	-0.175264	-0.619993
H111	H	0.824874	-0.159742	-0.500978
H112	H	0.986690	-0.140481	-0.637370
H113	H	0.985570	-0.124947	-0.518350
H114	H	1.406949	-0.316264	-0.946816
C115	C	1.455616	-1.091594	-0.301574
C116	C	1.395535	-1.060193	-0.369863
H117	H	1.409451	-1.110154	-0.255341
H118	H	1.496132	-1.115634	-0.342157
H119	H	1.501999	-1.070287	-0.260899
H120	H	1.349156	-1.081500	-0.410544
H121	H	1.355000	-1.036150	-0.329275
H122	H	1.661771	-1.052191	-0.636508
C123	C	1.740511	-0.478427	-0.715511
C124	C	1.680787	-0.442981	-0.655693
H125	H	1.786662	-0.459862	-0.761749
H126	H	1.781262	-0.499726	-0.669183
H127	H	1.694111	-0.499727	-0.756182
H128	H	1.727187	-0.421684	-0.615015
H129	H	1.640033	-0.421673	-0.702027
H130	H	1.729588	-0.701895	-0.704519
H131	H	1.729644	-0.800943	-0.704563
C132	C	1.455310	-0.589257	-0.301387
C133	C	1.395225	-0.557854	-0.369669
H134	H	1.409149	-0.607817	-0.255151
H135	H	1.495822	-0.613296	-0.341975
H136	H	1.501698	-0.567951	-0.260715
H137	H	1.348842	-0.579160	-0.410347
H138	H	1.354695	-0.533811	-0.329077
C139	C	1.391102	-0.153362	-0.873127
C140	C	1.482594	-0.149659	-0.935888
H141	H	1.372779	-0.119766	-0.847183
H142	H	1.334316	-0.166724	-0.914616
H143	H	1.404173	-0.176102	-0.815009
H144	H	1.469521	-0.126922	-0.994010
H145	H	1.539393	-0.136290	-0.894397
C146	C	1.620999	-0.913928	-0.724180
C147	C	1.681092	-0.945325	-0.655893
H148	H	1.667157	-0.895362	-0.770410
H149	H	1.574626	-0.935234	-0.764849
H150	H	1.580473	-0.889888	-0.683588
H151	H	1.721612	-0.969368	-0.696485
H152	H	1.727484	-0.924017	-0.615220
C153	C	1.335780	-0.981133	-0.310032
C154	C	1.395457	-0.945580	-0.369821
H155	H	1.289606	-0.962650	-0.263778
H156	H	1.295057	-1.002426	-0.356378
H157	H	1.382209	-1.002429	-0.269379
H158	H	1.349029	-0.924286	-0.410481
H159	H	1.436184	-0.924278	-0.323470
H160	H	1.346694	-0.801269	-0.321076
C161	C	1.409489	-0.389524	-0.384022
C162	C	1.395149	-0.443228	-0.369641
H163	H	1.363300	-0.371034	-0.337794
H164	H	1.480997	-0.380557	-0.368499
H165	H	1.393875	-0.380561	-0.455527
H166	H	1.410770	-0.452193	-0.298138
H167	H	1.323624	-0.452199	-0.385157
