data_functionalizedCrystal
_audit_creation_method	'MofGen! by Chris Wilmer'
_symmetry_space_group_name_H-M	'P1'
_symmetry_Int_Tables_number	1
_symmetry_cell_setting	triclinic
loop_
_symmetry_equiv_pos_as_xyz
  x,y,z
_cell_length_a	20.919309
_cell_length_b	14.446369
_cell_length_c	14.446369
_cell_angle_alpha	60.003968
_cell_angle_beta	90.000599
_cell_angle_gamma	57.438858
loop_
_atom_site_label
_atom_site_type_symbol
_atom_site_fract_x
_atom_site_fract_y
_atom_site_fract_z
Zr1	Zr	0.641735	0.940910	-0.085318
O2	O	0.535358	1.146009	-0.239109
O3	O	0.674350	0.744119	-0.038175
O4	O	0.674344	0.937227	-0.231283
O5	O	0.535363	0.952909	0.106328
O6	O	0.783974	0.924872	-0.225109
O7	O	0.535363	0.952901	-0.046000
O8	O	0.783984	0.579436	0.120327
O9	O	0.535353	1.298345	-0.239107
O10	O	0.770070	0.812765	-0.013459
O11	O	0.688254	0.821991	0.095614
O12	O	0.688247	1.049352	-0.131746
O13	O	0.606432	1.058579	-0.022673
Zr14	Zr	0.816582	0.921219	0.167476
Zr15	Zr	0.816582	0.921206	-0.075471
Zr16	Zr	0.641735	0.940924	0.157628
Zr17	Zr	0.641728	1.183869	-0.085316
Zr18	Zr	0.816590	0.678261	0.167473
O19	O	0.783967	1.118011	0.120332
O20	O	0.783968	1.117992	-0.225107
O21	O	0.535357	1.146028	0.106330
O22	O	0.922960	0.716120	0.321266
O23	O	0.922960	0.716101	-0.024173
O24	O	0.674349	0.744138	0.307264
O25	O	0.922954	0.909220	-0.024171
O26	O	0.783973	0.924902	0.313441
O27	O	0.674343	0.937257	0.307266
O28	O	0.922954	0.909229	0.128158
O29	O	0.674333	1.282683	-0.231280
O30	O	0.783984	0.579447	0.313437
O31	O	0.922964	0.563784	0.321265
O32	O	0.922964	0.563773	0.128154
O33	O	0.535353	1.298356	-0.045997
O34	O	0.674333	1.282693	-0.038169
O35	O	0.770070	0.812777	0.213903
O36	O	0.851886	0.803551	0.104830
O37	O	0.770063	1.040138	-0.013457
O38	O	0.688247	1.049365	0.095616
C39	C	0.729168	0.627161	0.041076
C40	C	0.729171	0.524019	0.041075
C41	C	0.780509	0.371914	-0.028083
C42	C	0.780800	0.478805	-0.027759
C43	C	0.766813	0.392926	0.166719
C44	C	0.767187	0.285505	0.166350
C45	C	0.640119	0.474791	-0.014403
C46	C	0.640262	0.583248	-0.016899
C47	C	0.510451	0.955712	0.028761
C48	C	0.436224	0.964078	0.024580
C49	C	0.444060	0.844515	0.084355
C50	C	0.374313	0.852383	0.080424
C51	C	0.296731	0.979815	0.016712
C52	C	0.288896	1.099387	-0.043065
C53	C	0.358642	1.091518	-0.039127
C54	C	0.084005	1.009754	0.001739
C55	C	0.014257	1.017615	-0.002198
C56	C	0.099679	0.770609	0.121294
C57	C	0.169423	0.762751	0.125220
C58	C	0.161582	0.882323	0.065449
C59	C	0.225437	0.987861	0.012689
C60	C	0.232876	0.874276	0.069479
C61	C	0.947866	0.906417	0.053397
C62	C	1.022093	0.898052	0.057577
C63	C	0.729159	0.931048	-0.262811
C64	C	0.729159	0.931042	-0.365948
C65	C	0.729149	1.234968	0.041082
C66	C	0.729146	1.338110	0.041083
C67	C	0.781021	0.781813	-0.438011
C68	C	0.780797	0.781741	-0.330695
C69	C	0.640258	1.012289	-0.445514
C70	C	0.640542	1.011347	-0.552357
C71	C	0.765479	1.000220	-0.546894
C72	C	0.767278	0.997314	-0.438121
C73	C	0.729158	0.931081	0.344968
C74	C	0.729158	0.931087	0.448105
C75	C	0.947875	0.602513	0.053394
C76	C	1.022106	0.491006	0.057573
C77	C	0.729168	0.627178	0.344965
C78	C	0.729171	0.524041	0.448101
C79	C	0.947875	0.602530	0.357283
C80	C	1.022105	0.491028	0.464600
C81	C	0.510442	1.259599	-0.275125
C82	C	0.436212	1.371101	-0.382442
C83	C	0.510442	1.259616	0.028764
C84	C	0.436211	1.371123	0.024584
C85	C	0.729149	1.234952	-0.262808
C86	C	0.729146	1.338088	-0.365944
C87	C	1.014258	0.443451	-0.002220
C88	C	1.083999	0.338692	0.001684
C89	C	1.161586	0.281484	0.065388
C90	C	1.169432	0.329049	0.125183
C91	C	1.099692	0.433812	0.121272
C92	C	1.099679	0.433849	0.458062
C93	C	1.169433	0.329094	0.558889
C94	C	1.161611	0.281514	0.666252
C95	C	1.084030	0.338704	0.672787
C96	C	1.014277	0.443463	0.571961
C97	C	0.358638	1.428292	-0.375905
C98	C	0.288884	1.533077	-0.476731
C99	C	0.296706	1.580662	-0.584094
C100	C	0.374288	1.523466	-0.590629
C101	C	0.444040	1.418690	-0.489804
C102	C	0.444059	1.418689	0.084367
C103	C	0.374318	1.523474	0.080437
C104	C	0.296731	1.580686	0.016729
C105	C	0.288885	1.533116	-0.043062
C106	C	0.358625	1.428339	-0.039137
C107	C	0.677325	0.383570	0.520162
C108	C	0.677541	0.490466	0.412847
C109	C	0.818076	0.387169	0.527661
C110	C	0.817800	0.279826	0.634503
C111	C	0.692858	0.468879	0.629054
C112	C	0.691050	0.577552	0.520282
H113	H	0.832699	0.187370	0.210445
H114	H	0.225721	1.579629	-0.471388
H115	H	1.218415	0.196211	0.748341
H116	H	0.611464	0.964005	-0.553726
H117	H	0.599938	1.122330	-0.475014
F118	F	0.741989	0.430943	0.734059
H119	H	0.628382	0.515717	0.629540
H120	H	1.077673	0.299948	0.760215
H121	H	0.755559	0.570991	-0.120141
F122	F	1.108022	0.484474	0.343808
H123	H	0.507228	1.372115	0.136253
H124	H	1.232613	0.282455	0.177049
F125	F	1.251993	0.268243	0.551909
H126	H	0.951116	0.490006	0.577300
H127	H	0.352254	1.389555	-0.288494
H128	H	0.608666	0.517877	-0.105744
H129	H	0.239902	1.665978	-0.666184
F130	F	0.866640	0.420166	0.022835
H131	H	0.858390	0.404875	0.557162
H132	H	0.755388	0.411982	-0.120691
F133	F	0.206304	1.594016	-0.110857
F134	F	0.721451	0.251502	0.237765
F135	F	0.382599	1.574122	-0.704903
H136	H	0.612142	0.676903	-0.109486
F137	F	-0.068316	1.153252	-0.070022
F138	F	1.108057	0.484406	0.184924
F139	F	0.350260	1.377721	-0.102764
H140	H	0.847360	0.345309	0.477703
H141	H	0.951089	0.490028	-0.054109
H142	H	0.598773	0.620052	0.027795
F143	F	0.591971	0.616894	0.337092
F144	F	0.591537	0.441911	0.512276
H145	H	0.731204	0.419189	0.220732
F146	F	0.526598	1.357826	-0.496779
F147	F	0.526627	0.708882	0.152161
F148	F	0.589863	0.448058	0.051041
H149	H	0.702290	0.291091	0.520532
H150	H	0.702739	0.450158	0.360480
F151	F	0.587289	1.154891	-0.658065
F152	F	0.865832	0.245102	0.022051
F153	F	0.382685	1.574078	0.144081
H154	H	0.239951	1.666001	0.013543
F155	F	0.855811	0.156920	0.636285
H156	H	0.858541	0.245282	0.715377
H157	H	0.106053	0.673261	0.169957
F158	F	0.605432	0.705456	0.448266
F159	F	0.350299	1.218773	-0.102743
F160	F	0.735283	0.614571	0.556127
F161	F	0.851631	0.332967	0.224682
F162	F	0.382659	0.725127	0.144055
F163	F	0.251990	0.627120	0.193032
H164	H	0.727870	1.110129	-0.627209
H165	H	0.225722	1.203145	-0.094934
F166	F	0.075651	1.137014	-0.061879
H167	H	0.162261	1.091616	-0.039185
F168	F	0.315444	0.738658	0.137294
H169	H	0.846261	0.718480	-0.272735
H170	H	1.218366	0.196178	0.068565
F171	F	0.866810	0.698557	-0.430125
H172	H	0.756060	0.728612	-0.438384
H173	H	0.755607	0.728332	-0.278328
H174	H	0.610974	0.966117	-0.395561
H175	H	0.829955	0.947055	-0.547379
H176	H	0.832777	0.937988	-0.383015
F177	F	1.075632	0.288085	-0.061957
F178	F	0.723032	1.139127	-0.473974
