data_functionalizedCrystal
_audit_creation_method	'MofGen! by Chris Wilmer'
_symmetry_space_group_name_H-M	'P1'
_symmetry_Int_Tables_number	1
_symmetry_cell_setting	triclinic
loop_
_symmetry_equiv_pos_as_xyz
  x,y,z
_cell_length_a	6.817900
_cell_length_b	11.102210
_cell_length_c	10.773894
_cell_angle_alpha	95.422156
_cell_angle_beta	96.645922
_cell_angle_gamma	108.604261
loop_
_atom_site_label
_atom_site_type_symbol
_atom_site_fract_x
_atom_site_fract_y
_atom_site_fract_z
V1	V	-3.974352	-0.171168	-0.388941
O2	O	-3.936005	0.013031	-0.381540
O3	O	-3.952059	-0.344020	-0.386279
O4	O	-3.891309	-0.166427	-0.558573
O5	O	-3.997176	-0.165792	-0.208053
V6	V	-4.459086	-0.149385	-0.367306
O7	O	-4.232954	-0.218952	-0.436400
O8	O	-4.650682	-0.101602	-0.319847
O9	O	-4.258173	0.023467	-0.369969
O10	O	-4.614831	-0.333584	-0.374707
O11	O	-4.553660	-0.154762	-0.548195
O12	O	-4.318923	-0.154127	-0.197674
C13	C	-3.804532	-0.386223	-0.380142
C14	C	-3.867361	-0.527518	-0.379096
C15	C	-3.936057	-0.709901	-0.263402
C16	C	-3.877004	-0.577137	-0.264371
C17	C	-3.916756	-0.610671	-0.492858
C18	C	-3.975793	-0.743432	-0.491888
C19	C	-3.727038	-0.159684	-0.599920
C20	C	-3.740598	-0.156951	-0.738595
C21	C	-3.919388	-0.161687	-0.806457
C22	C	-3.933406	-0.158863	-0.949785
C23	C	-4.069044	0.065663	-0.376102
C24	C	-3.985452	0.206957	-0.377156
C25	C	-4.146538	-0.160874	-0.156321
C26	C	-4.112216	-0.163600	-0.017645
H27	H	-4.016008	-0.811130	-0.584526
H28	H	-4.062074	-0.167825	-0.758445
N29	N	-3.551570	-0.148843	-0.802160
H30	H	-3.433178	-0.067553	-0.764657
H31	H	-3.588539	-0.148043	-0.895532
H32	H	-3.790698	-0.152708	-0.997789
N33	N	-4.301253	-0.171731	-0.954073
H34	H	-4.264448	-0.172593	-0.860695
H35	H	-4.419545	-0.253027	-0.991674
H36	H	-3.943911	-0.750290	-0.169980
H37	H	-3.908888	-0.570260	-0.586269
N38	N	-3.823655	-0.487458	-0.141677
H39	H	-3.838713	-0.539037	-0.068853
H40	H	-3.921904	-0.435968	-0.141308
