data_functionalizedCrystal
_audit_creation_method	'MofGen! by Chris Wilmer'
_symmetry_space_group_name_H-M	'P1'
_symmetry_Int_Tables_number	1
_symmetry_cell_setting	triclinic
loop_
_symmetry_equiv_pos_as_xyz
  x,y,z
_cell_length_a	11.026607
_cell_length_b	10.489741
_cell_length_c	10.065875
_cell_angle_alpha	98.879541
_cell_angle_beta	79.302338
_cell_angle_gamma	96.562595
loop_
_atom_site_label
_atom_site_type_symbol
_atom_site_fract_x
_atom_site_fract_y
_atom_site_fract_z
O1	O	1.632468	0.520484	-0.113500
O2	O	1.278630	0.459543	-0.113501
O3	O	1.463599	0.306188	-0.113492
O4	O	1.447499	0.673839	-0.113509
O5	O	1.428329	0.335581	0.113495
O6	O	1.243360	0.488935	0.113486
O7	O	1.597198	0.549877	0.113487
Zn8	Zn	1.414679	0.524073	0.149526
Zn9	Zn	1.461149	0.485347	-0.149540
O10	O	1.412229	0.703232	0.113478
C11	C	1.215686	0.462996	-0.000008
C12	C	1.080679	0.429482	-0.000008
C13	C	1.007682	0.522021	-0.000013
C14	C	0.868146	0.487384	-0.000013
C15	C	1.444748	0.273085	0.000000
C16	C	1.441110	0.130655	-0.000002
C17	C	1.323420	0.036624	-0.000012
C18	C	1.361626	-0.028776	0.111904
C19	C	1.396427	-0.057724	-0.111887
C20	C	1.479350	0.067142	0.112007
C21	C	1.514151	0.038187	-0.111885
C22	C	1.552438	-0.027164	0.000059
C23	C	1.660143	0.546423	-0.000009
C24	C	1.795151	0.579937	-0.000018
C25	C	1.431080	0.736334	-0.000017
C26	C	1.434720	0.878763	-0.000024
N27	N	1.382974	0.550504	0.353630
N28	N	1.492864	0.458908	-0.353644
C29	C	1.450110	0.494533	0.421412
C30	C	1.425718	0.514887	0.578578
H31	H	1.039875	0.324609	-0.000038
H32	H	1.361318	-0.111898	-0.206513
C33	C	1.209174	0.547809	0.622887
C34	C	1.323736	0.599920	0.657296
H35	H	1.146217	0.600300	0.671493
H36	H	1.212194	0.545298	0.527608
H37	H	1.191409	0.462491	0.646247
H38	H	1.341505	0.685234	0.633927
H39	H	1.320717	0.602444	0.752597
C40	C	0.907251	0.266860	0.000001
C41	C	0.813076	0.345803	-0.000006
H42	H	0.873248	0.179458	0.000013
H43	H	0.968475	0.273531	-0.079151
H44	H	0.943884	0.294042	0.079160
H45	H	0.776449	0.318626	-0.079171
H46	H	0.751831	0.339125	0.079154
H47	H	1.568400	0.395910	0.588039
H48	H	1.307434	0.613486	0.411952
C49	C	1.190329	0.670504	-0.000014
C50	C	1.062759	0.663595	-0.000016
H51	H	1.224326	0.757909	-0.000023
H52	H	1.204289	0.639406	0.079138
H53	H	1.228889	0.618898	-0.079173
H54	H	1.024197	0.715194	0.079149
H55	H	1.048789	0.694710	-0.079176
H56	H	1.525641	0.431539	0.363091
H57	H	1.226637	0.065005	0.000100
C58	C	0.829584	0.767333	-0.116720
C59	C	0.850205	0.721522	-0.000030
H60	H	0.863563	0.854744	-0.116722
H61	H	0.868164	0.715736	-0.195855
H62	H	0.743033	0.762607	-0.116706
H63	H	0.936757	0.726240	-0.000049
H64	H	0.811629	0.773134	0.079126
H65	H	1.514387	0.121184	0.206730
C66	C	1.154667	-0.037131	0.239431
C67	C	1.274560	-0.068900	0.239631
H68	H	1.100913	-0.061907	0.318278
H69	H	1.155775	0.053615	0.239936
H70	H	1.125998	-0.081574	0.159951
H71	H	1.303233	-0.024449	0.319106
H72	H	1.273456	-0.159663	0.239139
C73	C	1.726256	-0.001139	0.117418
C74	C	1.683166	-0.065132	0.000140
H75	H	1.806956	-0.024589	0.117474
H76	H	1.729154	0.089810	0.118162
H77	H	1.671890	-0.025258	0.196157
H78	H	1.737527	-0.041005	-0.078600
H79	H	1.680277	-0.156100	-0.000617
H80	H	1.578609	0.067924	-0.206507
