data_functionalizedCrystal
_audit_creation_method	'MofGen! by Chris Wilmer'
_symmetry_space_group_name_H-M	'P1'
_symmetry_Int_Tables_number	1
_symmetry_cell_setting	triclinic
loop_
_symmetry_equiv_pos_as_xyz
  x,y,z
_cell_length_a	10.654550
_cell_length_b	9.730223
_cell_length_c	10.654550
_cell_angle_alpha	89.995747
_cell_angle_beta	95.515069
_cell_angle_gamma	90.000043
loop_
_atom_site_label
_atom_site_type_symbol
_atom_site_fract_x
_atom_site_fract_y
_atom_site_fract_z
O1	O	-1.667839	-0.114187	0.176399
O2	O	-1.302361	-0.114212	0.193205
O3	O	-1.493503	-0.114190	0.002062
O4	O	-1.476697	-0.114209	0.367541
O5	O	-1.493490	0.114390	0.002057
O6	O	-1.302348	0.114368	0.193199
O7	O	-1.667827	0.114393	0.176393
Zn8	Zn	-1.485085	0.150672	0.184796
Zn9	Zn	-1.485102	-0.150492	0.184802
O10	O	-1.476684	0.114371	0.367536
C11	C	-1.255556	0.000075	0.191968
C12	C	-1.116113	0.000065	0.188276
C13	C	-1.492263	0.000099	-0.044738
C14	C	-1.488571	0.000096	-0.184181
C15	C	-1.714631	0.000103	0.177630
C16	C	-1.854074	0.000104	0.181322
N17	N	-1.485083	0.356209	0.184790
C18	C	-1.036628	0.000064	0.300818
C19	C	-0.905607	0.000088	0.297341
C20	C	-0.933570	0.000109	0.068772
C21	C	-1.064588	0.000095	0.072250
N22	N	-1.485114	-0.356028	0.184798
C23	C	-1.569750	0.428144	0.100188
C24	C	-1.569763	0.572027	0.100189
C25	C	-1.400438	0.572026	0.269404
C26	C	-1.400420	0.428146	0.269396
C27	C	-1.601112	0.000104	-0.263667
C28	C	-1.597636	0.000087	-0.394688
C29	C	-1.369066	0.000061	-0.366725
C30	C	-1.372544	0.000068	-0.235706
C31	C	-1.477925	0.000079	0.414336
C32	C	-1.481617	0.000072	0.553779
H33	H	-1.078574	0.000049	0.395294
N34	N	-1.150319	0.000094	-0.049148
H35	H	-1.205298	-0.084644	-0.052800
H36	H	-1.205225	0.084882	-0.052726
N37	N	-0.878005	0.000120	-0.056371
H38	H	-0.906926	0.084857	-0.105727
H39	H	-0.782953	0.000071	-0.041402
N40	N	-0.819874	0.000162	0.418725
H41	H	-0.872401	0.000166	0.492749
H42	H	-0.764861	-0.084543	0.422304
H43	H	-1.274601	0.000041	-0.408693
N44	N	-1.661059	0.350552	0.008938
H45	H	-1.714695	0.417961	-0.044658
H46	H	-1.612494	0.290869	-0.047037
H47	H	-1.638705	0.630593	0.031297
H48	H	-1.331508	0.630612	0.338290
N49	N	-1.726251	0.000133	-0.208094
H50	H	-1.775616	-0.084599	-0.236995
H51	H	-1.711275	0.000194	-0.113043
H52	H	-1.331468	0.369572	0.338290
H53	H	-1.689279	0.000090	-0.459401
H54	H	-1.280893	0.000058	-0.170985
