data_functionalizedCrystal
_audit_creation_method	'MofGen! by Chris Wilmer'
_symmetry_space_group_name_H-M	'P1'
_symmetry_Int_Tables_number	1
_symmetry_cell_setting	triclinic
loop_
_symmetry_equiv_pos_as_xyz
  x,y,z
_cell_length_a	15.995300
_cell_length_b	15.995350
_cell_length_c	9.482900
_cell_angle_alpha	99.336743
_cell_angle_beta	80.710740
_cell_angle_gamma	83.482091
loop_
_atom_site_label
_atom_site_type_symbol
_atom_site_fract_x
_atom_site_fract_y
_atom_site_fract_z
O1	O	1.124067	0.094608	-0.120943
O2	O	0.880285	0.107981	-0.120933
O3	O	1.008840	-0.020594	-0.120937
O4	O	0.995513	0.223183	-0.120939
O5	O	0.982728	0.005627	0.120857
O6	O	0.854173	0.134202	0.120860
O7	O	1.097955	0.120830	0.120851
Cu8	Cu	0.973680	0.129910	0.142933
Cu9	Cu	1.004561	0.098900	-0.143015
O10	O	0.969400	0.249405	0.120854
C11	C	0.836034	0.120546	-0.000035
C12	C	0.743081	0.118912	-0.000032
C13	C	0.572899	0.115891	-0.000043
C14	C	0.525433	0.207439	-0.000040
C15	C	0.428804	0.205709	-0.000593
C16	C	0.405343	0.112918	-0.000052
C17	C	0.461358	0.052554	-0.137855
C18	C	0.558003	0.054858	-0.137967
C19	C	0.528587	0.083322	0.137007
C20	C	0.431447	0.083527	0.138814
C21	C	0.310649	0.111233	-0.000062
C22	C	0.667594	0.117573	-0.000042
C23	C	0.995233	-0.038678	-0.000043
C24	C	0.993582	-0.131629	-0.000051
C25	C	0.987649	-0.469375	-0.000046
C26	C	0.896153	-0.421983	-0.000584
C27	C	0.897747	-0.325234	-0.000039
C28	C	0.990592	-0.301816	-0.000049
C29	C	1.020839	-0.327928	0.138022
C30	C	1.018527	-0.424551	0.138138
C31	C	1.050113	-0.454728	-0.136826
C32	C	1.050288	-0.357980	-0.138651
C33	C	0.992260	-0.207118	-0.000046
C34	C	0.985984	-0.564072	-0.000039
C35	C	1.142207	0.108264	-0.000050
C36	C	1.235161	0.109897	-0.000063
C37	C	0.983007	0.267489	-0.000043
C38	C	0.984659	0.360438	-0.000044
N39	N	0.951966	0.151720	0.344054
N40	N	1.026281	0.077084	-0.344136
C41	C	0.998150	0.105329	0.416252
C42	C	0.980090	0.123482	0.583670
H43	H	0.411687	0.230470	-0.099952
F44	F	0.536121	0.269658	0.128601
F45	F	0.910923	0.192962	0.664869
H46	H	0.415166	0.016779	0.147543
H47	H	1.031481	-0.486611	-0.241476
H48	H	1.118895	-0.343535	-0.146995
F49	F	0.377658	0.266361	0.128488
F50	F	0.834552	-0.433948	0.127763
F51	F	1.067160	0.035701	0.335047
F52	F	1.021886	-0.336448	-0.272178
F53	F	0.564987	0.240826	-0.129012
H54	H	0.899052	0.204873	0.406186
H55	H	1.079192	0.023921	0.593738
H56	H	1.085068	-0.456133	0.144396
F57	F	0.569950	-0.004706	0.138757
F58	F	0.865321	-0.302103	-0.129406
H59	H	0.587489	0.076379	-0.241368
F60	F	0.601019	-0.033841	-0.145654
H61	H	0.447770	-0.016183	-0.142592
H62	H	0.444089	0.072530	-0.240795
H63	H	0.974451	-0.431653	0.241355
H64	H	0.537803	0.124793	0.241487
F65	F	1.109271	-0.308755	0.144730
H66	H	0.393097	0.127751	0.240763
H67	H	0.870253	-0.451246	-0.099598
F68	F	0.837040	-0.274747	0.129549
H69	H	1.117716	-0.486602	-0.137761
H70	H	0.978378	-0.288398	0.240777
