data_functionalizedCrystal
_audit_creation_method	'MofGen! by Chris Wilmer'
_symmetry_space_group_name_H-M	'P1'
_symmetry_Int_Tables_number	1
_symmetry_cell_setting	triclinic
loop_
_symmetry_equiv_pos_as_xyz
  x,y,z
_cell_length_a	11.792241
_cell_length_b	11.792241
_cell_length_c	10.268362
_cell_angle_alpha	90.005218
_cell_angle_beta	90.000408
_cell_angle_gamma	84.193416
loop_
_atom_site_label
_atom_site_type_symbol
_atom_site_fract_x
_atom_site_fract_y
_atom_site_fract_z
O1	O	-1.506910	-0.155568	-0.108155
O2	O	-1.006910	0.344432	0.391845
O3	O	-1.176569	-0.171601	-0.108189
O4	O	-0.676569	0.328399	0.391811
O5	O	-1.349756	0.001586	-0.108162
O6	O	-0.849756	0.501586	0.391838
O7	O	-1.333723	-0.328755	-0.108182
O8	O	-0.833723	0.171245	0.391818
O9	O	-1.349738	0.001592	0.108438
O10	O	-0.849738	0.501592	0.608438
O11	O	-1.176551	-0.171595	0.108411
O12	O	-0.676551	0.328405	0.608411
O13	O	-1.506892	-0.155562	0.108446
O14	O	-1.006892	0.344438	0.608446
Cu15	Cu	-1.341720	-0.163578	0.128206
Cu16	Cu	-0.841720	0.336422	0.628206
Cu17	Cu	-1.341741	-0.163585	-0.127949
Cu18	Cu	-0.841741	0.336415	0.372051
O19	O	-1.333705	-0.328749	0.108419
O20	O	-0.833705	0.171251	0.608419
C21	C	-1.134269	-0.170591	0.000106
C22	C	-0.634269	0.329409	0.500106
C23	C	-1.008255	-0.167576	0.000093
C24	C	-0.508255	0.332424	0.500093
N25	N	-1.341714	-0.163572	0.308372
N26	N	-0.841714	0.336428	0.808372
C27	C	-1.348740	0.043880	0.000138
C28	C	-0.848740	0.543880	0.500138
C29	C	-1.345726	0.169894	0.000136
C30	C	-0.845726	0.669894	0.500136
C31	C	-0.777543	-0.162034	0.000128
C32	C	-0.277543	0.337966	0.500128
C33	C	-0.905928	-0.165113	0.000109
C34	C	-0.405928	0.334887	0.500109
C35	C	-0.549192	-0.156572	0.000144
C36	C	-0.049192	0.343428	0.500144
C37	C	-0.675206	-0.159587	0.000139
C38	C	-0.175206	0.340413	0.500139
C39	C	-1.334721	-0.371043	0.000116
C40	C	-0.834721	0.128957	0.500116
C41	C	-1.337736	-0.497057	0.000109
C42	C	-0.837736	0.002943	0.500109
C43	C	-1.340183	0.400606	0.000114
C44	C	-0.840183	0.900606	0.500114
C45	C	-1.343262	0.272221	0.000126
C46	C	-0.843262	0.772221	0.500126
C47	C	-1.341728	-0.163586	0.574042
C48	C	-0.841728	0.336414	1.074042
C49	C	-1.341716	-0.163581	0.426204
C50	C	-0.841716	0.336419	0.926204
N51	N	-1.341745	-0.163586	0.691885
N52	N	-0.841745	0.336414	1.191885
