data_functionalizedCrystal
_audit_creation_method	'MofGen! by Chris Wilmer'
_symmetry_space_group_name_H-M	'P1'
_symmetry_Int_Tables_number	1
_symmetry_cell_setting	triclinic
loop_
_symmetry_equiv_pos_as_xyz
  x,y,z
_cell_length_a	17.640112
_cell_length_b	21.295417
_cell_length_c	17.639306
_cell_angle_alpha	101.182150
_cell_angle_beta	87.804122
_cell_angle_gamma	101.256239
loop_
_atom_site_label
_atom_site_type_symbol
_atom_site_fract_x
_atom_site_fract_y
_atom_site_fract_z
Zn1	Zn	1.247725	-0.080914	-0.195061
Zn2	Zn	1.221964	-0.169894	-0.068081
Zn3	Zn	1.095076	-0.089221	-0.093713
Zn4	Zn	1.120668	-0.210748	-0.220650
O5	O	1.171358	-0.137694	-0.144376
O6	O	1.350585	-0.072143	-0.156781
O7	O	1.183640	-0.145572	0.034784
O8	O	1.115396	-0.000021	-0.107176
O9	O	1.331658	-0.137517	-0.063489
O10	O	1.227547	0.006082	-0.181636
O11	O	1.090416	-0.086302	0.015952
O12	O	0.992193	-0.125916	-0.131988
O13	O	1.159014	-0.207146	-0.323521
O14	O	1.010995	-0.215201	-0.225248
O15	O	1.252363	-0.111758	-0.304721
O16	O	1.208455	-0.263411	-0.088301
O17	O	1.134034	-0.293426	-0.200393
C18	C	0.974038	-0.175893	-0.184177
C19	C	0.889627	-0.192253	-0.201221
C20	C	0.563034	-0.013405	-0.014896
C21	C	0.483719	-0.028791	-0.030922
C22	C	0.503318	-0.121853	-0.127866
C23	C	0.582637	-0.106473	-0.111851
C24	C	0.612488	-0.052248	-0.055364
C25	C	0.632091	-0.145316	-0.152319
C26	C	0.711402	-0.129939	-0.136301
C27	C	0.741259	-0.075718	-0.079816
C28	C	0.691799	-0.036871	-0.039347
C29	C	0.602238	-0.199543	-0.208801
C30	C	0.651692	-0.238387	-0.249269
C31	C	0.731005	-0.223007	-0.233256
C32	C	0.760862	-0.168786	-0.176771
C33	C	0.780465	-0.261854	-0.273725
C34	C	0.859776	-0.246477	-0.257708
C35	C	0.840173	-0.153409	-0.160753
C36	C	1.171250	-0.301260	-0.144354
C37	C	1.171278	-0.371224	-0.144356
C38	C	1.210083	-0.388439	-0.086031
C39	C	1.210122	-0.454176	-0.086041
C40	C	1.171341	-0.502698	-0.144371
C41	C	1.132535	-0.485477	-0.202706
C42	C	1.132504	-0.419740	-0.202699
N43	N	1.106074	-0.619573	-0.163561
N44	N	1.106105	-0.682020	-0.163563
C45	C	1.171435	-0.700762	-0.144397
N46	N	1.236732	-0.654696	-0.125214
N47	N	1.236699	-0.592243	-0.125209
C48	C	1.171372	-0.573981	-0.144386
C49	C	1.210286	-0.789256	-0.086079
C50	C	1.210327	-0.854996	-0.086094
C51	C	1.132733	-0.886296	-0.202757
C52	C	1.132699	-0.820557	-0.202745
C53	C	1.171474	-0.772041	-0.144402
C54	C	1.369449	-0.099346	-0.104421
C55	C	1.453863	-0.083005	-0.087395
C56	C	1.211417	-0.163082	-0.342445
C57	C	1.228487	-0.173901	-0.426850
C58	C	1.171491	0.026512	-0.144411
C59	C	1.171547	0.096487	-0.144426
C60	C	1.041970	-0.055212	-0.753490
C61	C	1.058028	-0.065388	-0.832798
C62	C	1.155092	-0.127100	-0.813170
C63	C	1.139045	-0.116926	-0.733858
C64	C	1.082483	-0.080983	-0.704025
C65	C	1.179558	-0.142697	-0.684394
C66	C	1.163509	-0.132527	-0.605089
C67	C	1.106948	-0.096587	-0.575250
C68	C	1.066434	-0.070813	-0.624721
C69	C	1.236116	-0.178644	-0.714229
C70	C	1.276629	-0.204415	-0.664764
C71	C	1.260584	-0.194241	-0.585458
C72	C	1.204023	-0.158301	-0.555619
C73	C	1.301098	-0.220015	-0.535987
C74	C	1.285049	-0.209845	-0.456683
C75	C	1.187974	-0.148131	-0.476315
C76	C	1.131499	-0.112351	0.052930
C77	C	1.114576	-0.101326	0.137364
H78	H	0.716107	0.007292	0.006639
H79	H	1.101097	-0.806541	-0.250236
H80	H	1.241861	-0.749752	-0.038575
O81	O	1.247686	-0.341231	-0.029401
C82	C	1.282068	-0.226085	0.022290
C83	C	1.239436	-0.279484	-0.041877
H84	H	1.275426	-0.176150	0.012217
H85	H	1.256394	-0.233718	0.080867
H86	H	1.345998	-0.228858	0.021262
H87	H	1.175501	-0.276742	-0.040921
H88	H	1.265172	-0.271833	-0.100425
H89	H	0.627375	-0.282538	-0.295258
O90	O	0.986977	-0.020305	-0.724635
C91	C	0.892415	0.039868	-0.752459
C92	C	0.954661	0.000341	-0.785242
H93	H	0.866282	0.056584	-0.801442
H94	H	0.845123	0.008052	-0.723370
H95	H	0.919803	0.084274	-0.708278
H96	H	0.927343	-0.044066	-0.829452
H97	H	1.001946	0.032204	-0.814284
H98	H	0.479002	-0.166004	-0.173855
O99	O	0.869257	-0.100801	-0.105830
C100	C	0.938020	-0.061716	0.014772
C101	C	0.905133	-0.121343	-0.047376
H102	H	0.967019	-0.078305	0.062056
H103	H	0.982284	-0.026121	-0.012614
H104	H	0.889049	-0.036579	0.040910
H105	H	0.954052	-0.146533	-0.073536
H106	H	0.860849	-0.156894	-0.019948
H107	H	1.241932	-0.869008	-0.038600
H108	H	1.093877	-0.088312	-0.510676
H109	H	0.537657	-0.212061	-0.221840
O110	O	1.094976	-0.532662	-0.259383
C111	C	1.105454	-0.621961	-0.364013
C112	C	1.148079	-0.568564	-0.299841
H113	H	1.148372	-0.650994	-0.396751
H114	H	1.058747	-0.656037	-0.337164
H115	H	1.077688	-0.598350	-0.405669
H116	H	1.175892	-0.592119	-0.258163
H117	H	1.194745	-0.534494	-0.326743
H118	H	1.322679	-0.233683	-0.689066
O119	O	1.210124	-0.161950	-0.842050
C120	C	1.344204	-0.170580	-0.840270
C121	C	1.281952	-0.131060	-0.807489
H122	H	1.402295	-0.145614	-0.812354
H123	H	1.327736	-0.221921	-0.827323
H124	H	1.348675	-0.173441	-0.905452
H125	H	1.277449	-0.128148	-0.742303
H126	H	1.298446	-0.079741	-0.820496
H127	H	1.347145	-0.249286	-0.560291
H128	H	1.025036	-0.044397	-0.873071
H129	H	1.141924	-0.118854	-0.452022
H130	H	1.020384	-0.041536	-0.600428
H131	H	0.756147	-0.306007	-0.319711
H132	H	0.443456	0.002848	0.002031
H133	H	1.241724	-0.468196	-0.038545
H134	H	1.100904	-0.405725	-0.250195
H135	H	1.249183	-0.186921	-0.778804
O136	O	0.907718	-0.284258	-0.297115
C137	C	0.918793	-0.378210	-0.394942
C138	C	0.864415	-0.335468	-0.350385
H139	H	0.883803	-0.419631	-0.438009
H140	H	0.963977	-0.347291	-0.427261
H141	H	0.948858	-0.399374	-0.352494
H142	H	0.834298	-0.314294	-0.392779
H143	H	0.819279	-0.366416	-0.318054
H144	H	1.318049	-0.230819	-0.416405
O145	O	1.095175	-0.933475	-0.259438
C146	C	1.105659	-1.022767	-0.364076
C147	C	1.148282	-0.969372	-0.299899
H148	H	1.148580	-1.051795	-0.396817
H149	H	1.058954	-1.056846	-0.337231
H150	H	1.077892	-0.999153	-0.405729
H151	H	1.176096	-0.992929	-0.258225
H152	H	1.194946	-0.935298	-0.326797
O153	O	0.591905	0.039274	0.040026
C154	C	0.564108	0.129983	0.134477
C155	C	0.531306	0.070342	0.072310
H156	H	0.515132	0.155127	0.160586
H157	H	0.593140	0.113451	0.181786
H158	H	0.608354	0.165554	0.107040
H159	H	0.487031	0.034747	0.099678
H160	H	0.502322	0.086922	0.025009
O161	O	0.818302	-0.060665	-0.064258
C162	C	0.936126	0.019198	-0.060951
C163	C	0.848878	0.002241	-0.078581
H164	H	0.960876	0.070053	-0.072539
H165	H	0.945780	0.017973	0.002240
H166	H	0.966324	-0.017905	-0.099558
H167	H	0.818623	0.039328	-0.040024
H168	H	0.839281	0.003446	-0.141788
