data_functionalizedCrystal
_audit_creation_method	'MofGen! by Chris Wilmer'
_symmetry_space_group_name_H-M	'P1'
_symmetry_Int_Tables_number	1
_symmetry_cell_setting	triclinic
loop_
_symmetry_equiv_pos_as_xyz
  x,y,z
_cell_length_a	14.971482
_cell_length_b	19.288865
_cell_length_c	13.448316
_cell_angle_alpha	89.988163
_cell_angle_beta	89.993798
_cell_angle_gamma	83.374428
loop_
_atom_site_label
_atom_site_type_symbol
_atom_site_fract_x
_atom_site_fract_y
_atom_site_fract_z
O1	O	1.186460	0.090505	-0.082691
O2	O	1.686460	0.590505	0.417309
O3	O	0.926001	0.101347	-0.082697
O4	O	1.426001	0.601347	0.417303
O5	O	1.063757	-0.005180	-0.082674
O6	O	1.563757	0.494820	0.417326
O7	O	1.048704	0.197032	-0.082714
O8	O	1.548704	0.697032	0.417286
O9	O	1.063739	-0.005186	0.082710
O10	O	1.563739	0.494814	0.582710
O11	O	0.925984	0.101341	0.082687
O12	O	1.425984	0.601341	0.582687
O13	O	1.186443	0.090499	0.082693
O14	O	1.686443	0.590499	0.582693
Cu15	Cu	1.056212	0.095919	0.097791
Cu16	Cu	1.556212	0.595919	0.597791
Cu17	Cu	1.056232	0.095927	-0.097795
Cu18	Cu	1.556232	0.595927	0.402205
O19	O	1.048687	0.197026	0.082670
O20	O	1.548687	0.697026	0.582670
C21	C	0.892670	0.100860	-0.000006
C22	C	1.392670	0.600860	0.499994
C23	C	0.793381	0.099408	-0.000007
C24	C	1.293381	0.599408	0.499993
C25	C	0.746730	0.098721	0.090145
C26	C	1.246730	0.598721	0.590145
C27	C	0.653439	0.097346	0.090146
C28	C	1.153439	0.597346	0.590146
C29	C	0.606800	0.096663	-0.000006
C30	C	1.106800	0.596663	0.499994
C31	C	0.653457	0.097348	-0.090164
C32	C	1.153457	0.597348	0.409836
C33	C	0.746747	0.098718	-0.090165
C34	C	1.246747	0.598718	0.409835
C35	C	0.459010	0.094494	-0.090157
C36	C	0.959010	0.594494	0.409843
C37	C	0.365713	0.093125	-0.090158
C38	C	0.865713	0.593125	0.409842
C39	C	0.365703	0.093121	0.090153
C40	C	0.865703	0.593121	0.590153
C41	C	0.458993	0.094492	0.090153
C42	C	0.958993	0.594492	0.590153
C43	C	0.505643	0.095178	-0.000006
C44	C	1.005643	0.595178	0.499994
C45	C	1.063264	-0.031061	0.000021
C46	C	1.563264	0.468939	0.500021
C47	C	1.061810	-0.108169	0.000030
C48	C	1.561810	0.391831	0.500030
C49	C	1.142639	-0.152603	0.000036
C50	C	1.642639	0.347397	0.500036
C51	C	1.141273	-0.225054	0.000021
C52	C	1.641273	0.274946	0.500021
C53	C	1.059073	-0.253069	0.000018
C54	C	1.559073	0.246931	0.500018
C55	C	0.978234	-0.208626	0.000006
C56	C	1.478234	0.291374	0.500006
C57	C	0.979602	-0.136176	0.000011
C58	C	1.479602	0.363824	0.500011
C59	C	0.994449	-0.361569	0.057947
C60	C	1.494449	0.138431	0.557947
C61	C	0.993084	-0.434018	0.057947
C62	C	1.493084	0.065982	0.557947
C63	C	1.054850	-0.476528	-0.000004
C64	C	1.554850	0.023472	0.499996
C65	C	1.117996	-0.446583	-0.057943
C66	C	1.617996	0.053417	0.442057
C67	C	1.119364	-0.374133	-0.057938
C68	C	1.619364	0.125867	0.442062
C69	C	1.057581	-0.331628	0.000011
C70	C	1.557581	0.168372	0.500011
C71	C	1.134203	-0.599523	-0.000016
C72	C	1.634203	-0.099523	0.499984
C73	C	1.132834	-0.671975	-0.000038
C74	C	1.632834	-0.171975	0.499962
C75	C	0.969793	-0.655545	-0.000043
C76	C	1.469793	-0.155545	0.499957
C77	C	0.971165	-0.583094	-0.000031
C78	C	1.471165	-0.083094	0.499969
C79	C	1.053372	-0.555088	-0.000013
C80	C	1.553372	-0.055088	0.499987
C81	C	1.219774	0.090986	-0.000001
C82	C	1.719774	0.590986	0.499999
C83	C	1.319063	0.092438	-0.000006
C84	C	1.819063	0.592438	0.499994
C85	C	1.049180	0.222907	-0.000027
C86	C	1.549180	0.722907	0.499973
C87	C	1.050634	0.300015	-0.000042
C88	C	1.550634	0.800015	0.499958
N89	N	1.056204	0.095913	0.235355
N90	N	1.556204	0.595913	0.735355
N91	N	1.056247	0.095927	-0.235359
N92	N	1.556247	0.595927	0.264641
C93	C	1.117221	0.048762	0.287406
C94	C	1.617221	0.548762	0.787406
C95	C	1.117226	0.048762	0.391509
C96	C	1.617226	0.548762	0.891509
C97	C	1.056219	0.095916	0.443560
C98	C	1.556219	0.595916	0.943560
C99	C	0.995195	0.143069	0.391502
C100	C	1.495195	0.643069	0.891502
C101	C	0.995186	0.143066	0.287400
C102	C	1.495186	0.643066	0.787400
C103	C	0.995220	0.143074	0.608482
C104	C	1.495220	0.643074	1.108482
C105	C	0.995230	0.143078	0.712590
C106	C	1.495230	0.643078	1.212590
C107	C	1.117260	0.048770	0.712590
C108	C	1.617260	0.548770	1.212590
C109	C	1.117251	0.048767	0.608489
C110	C	1.617251	0.548767	1.108489
C111	C	1.056229	0.095921	0.556438
C112	C	1.556229	0.595921	1.056438
H113	H	1.209578	-0.129805	0.000048
H114	H	1.709578	0.370195	0.500048
H115	H	0.327742	0.092570	-0.163567
H116	H	0.827742	0.592570	0.336433
H117	H	0.784697	0.099282	0.163557
H118	H	1.284697	0.599282	0.663557
H119	H	0.615463	0.096774	0.163557
H120	H	1.115463	0.596774	0.663557
H121	H	0.496990	0.095053	-0.163575
H122	H	0.996990	0.595053	0.336425
N123	N	1.228455	-0.272991	0.000026
N124	N	1.728455	0.227009	0.500026
H125	H	1.280739	-0.244256	0.000036
H126	H	1.780739	0.255744	0.500036
H127	H	1.231423	-0.303418	0.061335
H128	H	1.731423	0.196582	0.561335
H129	H	0.905345	-0.546915	-0.000031
H130	H	1.405345	-0.046915	0.499969
N131	N	0.509299	0.095238	0.187385
N132	N	1.009299	0.595238	0.687385
H133	H	0.465592	0.094596	0.244501
H134	H	0.965592	0.594596	0.744501
H135	H	0.555436	0.052783	0.191322
H136	H	1.055436	0.552783	0.691322
H137	H	0.615476	0.096787	-0.163567
H138	H	1.115476	0.596787	0.336433
N139	N	0.929439	0.193942	0.768735
N140	N	1.429439	0.693942	1.268735
H141	H	0.890778	0.223812	0.719967
H142	H	1.390778	0.723812	1.219967
H143	H	0.890016	0.167303	0.811955
H144	H	1.390016	0.667303	1.311955
H145	H	0.327715	0.092563	0.163564
H146	H	0.827715	0.592563	0.663564
N147	N	0.797068	0.099454	-0.187399
N148	N	1.297068	0.599454	0.312601
H149	H	0.753368	0.098814	-0.244511
H150	H	1.253368	0.598814	0.255489
H151	H	0.828350	0.143046	-0.191340
H152	H	1.328350	0.643046	0.308660
N153	N	1.220018	-0.719904	-0.000035
N154	N	1.720018	-0.219904	0.499965
H155	H	1.272299	-0.691165	-0.000019
H156	H	1.772299	-0.191165	0.499981
H157	H	1.222987	-0.750334	0.061272
H158	H	1.722987	-0.250334	0.561272
N159	N	0.892417	-0.088248	0.000027
N160	N	1.392417	0.411752	0.500027
H161	H	0.905758	-0.038101	0.000039
H162	H	1.405758	0.461899	0.500039
H163	H	0.856581	-0.097308	-0.061283
H164	H	1.356581	0.402692	0.438717
H165	H	1.166904	0.010367	0.245033
H166	H	1.666904	0.510367	0.745033
N167	N	0.929391	0.193923	0.447645
N168	N	1.429391	0.693923	0.947645
H169	H	0.963447	0.224724	0.490815
H170	H	1.463447	0.724724	0.990815
H171	H	0.890748	0.223745	0.398812
H172	H	1.390748	0.723745	0.898812
N173	N	1.187463	-0.341832	-0.120425
N174	N	1.687463	0.158168	0.379575
H175	H	1.226387	-0.379751	-0.157140
H176	H	1.726387	0.120249	0.342860
H177	H	1.155119	-0.308447	-0.169912
H178	H	1.655119	0.191553	0.330088
H179	H	1.168291	-0.481194	-0.105134
H180	H	1.668291	0.018806	0.394866
H181	H	1.201142	-0.576719	-0.000006
H182	H	1.701142	-0.076719	0.499994
H183	H	0.902865	-0.678354	-0.000050
H184	H	1.402865	-0.178354	0.499950
N185	N	1.183048	-0.002091	0.552342
N186	N	1.683048	0.497909	1.052342
H187	H	1.222533	0.024503	0.509131
H188	H	1.722533	0.524503	1.009131
H189	H	1.221645	-0.031953	0.601171
H190	H	1.721645	0.468047	1.101171
H191	H	1.166910	0.010368	0.433888
H192	H	1.666910	0.510368	0.933888
N193	N	0.889572	-0.238831	0.000004
N194	N	1.389572	0.261169	0.500004
H195	H	0.885376	-0.268516	-0.061304
H196	H	1.385376	0.231484	0.438696
H197	H	0.885414	-0.268498	0.061353
H198	H	1.385414	0.231502	0.561353
N199	N	0.927822	-0.315720	0.120449
N200	N	1.427822	0.184280	0.620449
H201	H	0.887618	-0.345683	0.157157
H202	H	1.387618	0.154317	0.657157
H203	H	0.961297	-0.288984	0.169943
H204	H	1.461297	0.211016	0.669943
H205	H	0.941663	-0.458393	0.105119
H206	H	1.441663	0.041607	0.605119
H207	H	1.166947	0.010375	0.754976
H208	H	1.666947	0.510375	1.254976
N209	N	0.929409	0.193933	0.552336
N210	N	1.429409	0.693933	1.052336
H211	H	0.889912	0.167339	0.509164
H212	H	1.389912	0.667339	1.009164
H213	H	0.890824	0.223797	0.601165
H214	H	1.390824	0.723797	1.101165
H215	H	0.945499	0.181460	0.245022
H216	H	1.445499	0.681460	0.745022
