data_functionalizedCrystal
_audit_creation_method	'MofGen! by Chris Wilmer'
_symmetry_space_group_name_H-M	'P1'
_symmetry_Int_Tables_number	1
_symmetry_cell_setting	triclinic
loop_
_symmetry_equiv_pos_as_xyz
  x,y,z
_cell_length_a	10.654550
_cell_length_b	10.489741
_cell_length_c	9.730223
_cell_angle_alpha	89.998920
_cell_angle_beta	89.996251
_cell_angle_gamma	84.512038
loop_
_atom_site_label
_atom_site_type_symbol
_atom_site_fract_x
_atom_site_fract_y
_atom_site_fract_z
O1	O	1.667918	0.179156	-0.114402
O2	O	1.302447	0.196226	-0.114380
O3	O	1.493499	0.002089	-0.114383
O4	O	1.476867	0.373293	-0.114399
O5	O	1.493497	0.002094	0.114196
O6	O	1.302445	0.196231	0.114200
O7	O	1.667916	0.179161	0.114178
Zn8	Zn	1.485180	0.187697	0.150481
Zn9	Zn	1.485183	0.187690	-0.150683
O10	O	1.476864	0.373298	0.114181
C11	C	1.255648	0.194975	-0.000087
C12	C	1.116203	0.191225	-0.000079
C13	C	1.036771	0.305530	-0.000103
C14	C	0.905748	0.301999	-0.000127
C15	C	0.933603	0.069849	-0.000107
C16	C	1.064623	0.073381	-0.000073
C17	C	1.088351	0.423374	-0.000109
C18	C	1.008917	0.537688	-0.000135
C19	C	0.877895	0.534157	-0.000159
C20	C	0.826306	0.416312	-0.000156
C21	C	1.492241	-0.045439	-0.000094
C22	C	1.488483	-0.187067	-0.000096
C23	C	1.366923	-0.255148	-0.000099
C24	C	1.424346	-0.347296	0.112599
C25	C	1.424377	-0.347276	-0.112763
C26	C	1.545956	-0.277350	0.112695
C27	C	1.545970	-0.277319	-0.112768
C28	C	1.603481	-0.369440	-0.000043
C29	C	1.714715	0.180412	-0.000118
C30	C	1.854160	0.184162	-0.000136
C31	C	1.478122	0.420826	-0.000111
C32	C	1.481880	0.562454	-0.000118
N33	N	1.485187	0.187700	0.356017
N34	N	1.485186	0.187677	-0.356220
C35	C	1.569807	0.101766	0.427942
C36	C	1.569803	0.101751	0.571825
C37	C	1.400557	0.273615	0.571846
C38	C	1.400555	0.273623	0.427966
C39	C	1.654439	0.015843	0.355993
C40	C	1.739066	-0.070097	0.427918
C41	C	1.739063	-0.070113	0.571801
C42	C	1.654432	0.015812	0.643759
H43	H	0.813223	0.627237	-0.000166
H44	H	1.050930	0.633633	-0.000126
H45	H	0.719617	0.413446	-0.000154
H46	H	1.331649	0.343598	0.369404
H47	H	0.891588	-0.026095	-0.000127
H48	H	1.654452	0.015851	0.238837
O49	O	1.141742	-0.037685	-0.000303
C50	C	1.205635	-0.235053	-0.118666
C51	C	1.118244	-0.109306	-0.118598
H52	H	1.186649	-0.293006	-0.214282
H53	H	1.308159	-0.212353	-0.118728
H54	H	1.186731	-0.292934	-0.022966
H55	H	1.137035	-0.051363	-0.214281
H56	H	1.015747	-0.132095	-0.118464
O57	O	1.318184	0.356953	0.641682
C58	C	1.100488	0.429680	0.685676
C59	C	1.193633	0.335204	0.606527
H60	H	0.999769	0.412147	0.657260
H61	H	1.114919	0.414912	0.800882
H62	H	1.117833	0.531997	0.657408
H63	H	1.176345	0.232850	0.634679
H64	H	1.179181	0.350084	0.491341
O65	O	1.821178	-0.153485	0.357812
C66	C	1.896039	-0.229791	0.136148
C67	C	1.803028	-0.135234	0.215367
H68	H	1.881379	-0.215086	0.020967
H69	H	1.996828	-0.212284	0.164295
H70	H	1.878706	-0.332079	0.164549
H71	H	1.820246	-0.032909	0.187008
H72	H	1.702270	-0.152852	0.187213
H73	H	1.266977	-0.205449	0.000020
H74	H	1.807961	-0.140097	0.630361
O75	O	1.362868	-0.384409	0.226127
C76	C	1.187977	-0.489031	0.314477
C77	C	1.257505	-0.447109	0.185800
H78	H	1.102762	-0.539708	0.281919
H79	H	1.254448	-0.557173	0.378162
H80	H	1.155204	-0.401155	0.378622
H81	H	1.290285	-0.534908	0.121549
H82	H	1.190989	-0.378924	0.122218
H83	H	1.372927	-0.378217	-0.208049
O84	O	1.607342	-0.240830	0.226535
C85	C	1.716159	-0.308043	0.435175
C86	C	1.646700	-0.349582	0.306296
H87	H	1.747976	-0.395942	0.499712
H88	H	1.801964	-0.258143	0.402930
H89	H	1.649871	-0.239262	0.498344
H90	H	1.712887	-0.418404	0.243070
H91	H	1.560879	-0.399410	0.338635
H92	H	1.703518	-0.418912	0.000014
H93	H	1.195034	0.426262	-0.000096
H94	H	1.597362	-0.246302	-0.208058
H95	H	1.654428	0.015784	0.760919
