data_functionalizedCrystal
_audit_creation_method	'MofGen! by Chris Wilmer'
_symmetry_space_group_name_H-M	'P1'
_symmetry_Int_Tables_number	1
_symmetry_cell_setting	triclinic
loop_
_symmetry_equiv_pos_as_xyz
  x,y,z
_cell_length_a	11.026607
_cell_length_b	10.489741
_cell_length_c	10.065875
_cell_angle_alpha	98.879541
_cell_angle_beta	79.302338
_cell_angle_gamma	96.562595
loop_
_atom_site_label
_atom_site_type_symbol
_atom_site_fract_x
_atom_site_fract_y
_atom_site_fract_z
O1	O	1.632468	0.520484	-0.113500
O2	O	1.278630	0.459543	-0.113501
O3	O	1.463599	0.306188	-0.113492
O4	O	1.447499	0.673839	-0.113509
O5	O	1.428329	0.335581	0.113495
O6	O	1.243360	0.488935	0.113486
O7	O	1.597198	0.549877	0.113487
Zn8	Zn	1.414679	0.524073	0.149526
Zn9	Zn	1.461149	0.485347	-0.149540
O10	O	1.412229	0.703232	0.113478
C11	C	1.215686	0.462996	-0.000008
C12	C	1.080679	0.429482	-0.000008
C13	C	1.007682	0.522021	-0.000013
C14	C	0.868146	0.487384	-0.000013
C15	C	1.444748	0.273085	0.000000
C16	C	1.441110	0.130655	-0.000002
C17	C	1.323420	0.036624	-0.000012
C18	C	1.361626	-0.028776	0.111904
C19	C	1.396427	-0.057724	-0.111887
C20	C	1.479350	0.067142	0.112007
C21	C	1.514151	0.038187	-0.111885
C22	C	1.552438	-0.027164	0.000059
C23	C	1.660143	0.546423	-0.000009
C24	C	1.795151	0.579937	-0.000018
C25	C	1.431080	0.736334	-0.000017
C26	C	1.434720	0.878763	-0.000024
N27	N	1.382974	0.550504	0.353630
N28	N	1.492864	0.458908	-0.353644
C29	C	1.450110	0.494533	0.421412
C30	C	1.425718	0.514887	0.578578
H31	H	1.048490	0.626890	-0.000010
N32	N	0.846315	0.711510	0.000008
N33	N	0.899258	0.766622	0.095696
H34	H	0.935392	0.859546	0.095718
N35	N	1.523284	0.134945	0.230842
N36	N	1.456255	0.209588	0.314186
H37	H	1.487276	0.257478	0.398115
N38	N	1.673911	-0.062463	0.000148
N39	N	1.690969	-0.178388	-0.000745
H40	H	1.776756	-0.203322	-0.000674
H41	H	1.578609	0.067924	-0.206507
N42	N	0.816968	0.355820	0.000023
N43	N	0.734285	0.325493	0.095713
H44	H	0.698139	0.232577	0.095742
N45	N	1.280733	-0.066082	0.230598
N46	N	1.322043	-0.118405	0.314372
H47	H	1.264908	-0.144752	0.398197
N48	N	1.029521	0.297912	-0.000017
N49	N	1.098078	0.210892	-0.000019
H50	H	1.061953	0.117967	-0.000026
H51	H	1.226637	0.065005	0.000100
N52	N	1.352359	-0.125708	-0.230569
N53	N	1.246530	-0.111115	-0.250477
H54	H	1.215396	-0.159127	-0.334290
N55	N	1.330933	0.593887	0.651726
N56	N	1.242662	0.546434	0.731500
H57	H	1.175719	0.602225	0.783163
H58	H	1.525641	0.431539	0.363091
H59	H	1.568400	0.395910	0.588039
H60	H	1.307434	0.613486	0.411952
