data_functionalizedCrystal
_audit_creation_method	'MofGen! by Chris Wilmer'
_symmetry_space_group_name_H-M	'P1'
_symmetry_Int_Tables_number	1
_symmetry_cell_setting	triclinic
loop_
_symmetry_equiv_pos_as_xyz
  x,y,z
_cell_length_a	18.215407
_cell_length_b	12.594516
_cell_length_c	18.215399
_cell_angle_alpha	89.976218
_cell_angle_beta	89.983101
_cell_angle_gamma	90.009275
loop_
_atom_site_label
_atom_site_type_symbol
_atom_site_fract_x
_atom_site_fract_y
_atom_site_fract_z
Zn1	Zn	1.125139	-0.423825	-0.416080
Zn2	Zn	1.458472	-0.090492	-0.082746
Zn3	Zn	1.791805	0.242841	0.250587
Zn4	Zn	1.125075	-0.601823	-0.293022
Zn5	Zn	1.458409	-0.268489	0.040311
Zn6	Zn	1.791742	0.064844	0.373644
Zn7	Zn	1.002071	-0.423851	-0.293033
Zn8	Zn	1.335405	-0.090517	0.040300
Zn9	Zn	1.668738	0.242816	0.373633
Zn10	Zn	1.002065	-0.601754	-0.416053
Zn11	Zn	1.335399	-0.268421	-0.082720
Zn12	Zn	1.668732	0.064912	0.250613
O13	O	1.063588	-0.512813	-0.354547
O14	O	1.396921	-0.179480	-0.021214
O15	O	1.730254	0.153853	0.312120
O16	O	1.228115	-0.447455	-0.399762
O17	O	1.561448	-0.114122	-0.066429
O18	O	1.894781	0.219212	0.266905
O19	O	1.108734	-0.578254	-0.190039
O20	O	1.442068	-0.244920	0.143294
O21	O	1.775401	0.088413	0.476627
O22	O	1.018426	-0.274902	-0.309371
O23	O	1.351759	0.058432	0.023962
O24	O	1.685092	0.391765	0.357296
O25	O	1.228068	-0.578229	-0.309352
O26	O	1.561401	-0.244896	0.023981
O27	O	1.894735	0.088438	0.357314
O28	O	1.108843	-0.274883	-0.399773
O29	O	1.442176	0.058451	-0.066439
O30	O	1.775509	0.391784	0.266894
O31	O	1.018364	-0.447498	-0.190047
O32	O	1.351697	-0.114165	0.143286
O33	O	1.685031	0.219168	0.476619
O34	O	0.899086	-0.447432	-0.309346
O35	O	1.232420	-0.114099	0.023988
O36	O	1.565753	0.219235	0.357321
O37	O	1.018415	-0.578112	-0.519041
O38	O	1.351749	-0.244779	-0.185708
O39	O	1.685082	0.088555	0.147625
O40	O	0.899082	-0.578137	-0.399728
O41	O	1.232415	-0.244804	-0.066395
O42	O	1.565748	0.088530	0.266938
O43	O	1.108837	-0.447388	-0.519060
O44	O	1.442170	-0.114055	-0.185727
O45	O	1.775504	0.219278	0.147606
O46	O	1.108729	-0.750759	-0.309327
O47	O	1.442062	-0.417426	0.024006
O48	O	1.775395	-0.084093	0.357340
O49	O	1.018354	-0.750709	-0.399718
O50	O	1.351687	-0.417376	-0.066384
O51	O	1.685020	-0.084042	0.266949
C52	C	0.872381	-0.512781	-0.354536
C53	C	1.205715	-0.179447	-0.021202
C54	C	1.539048	0.153886	0.312131
C55	C	0.790583	-0.512792	-0.354548
C56	C	1.123916	-0.179459	-0.021215
C57	C	1.457249	0.153874	0.312118
C58	C	1.063554	-0.789354	-0.354534
C59	C	1.396887	-0.456021	-0.021201
C60	C	1.730220	-0.122688	0.312132
C61	C	1.063606	-0.907660	-0.354553
C62	C	1.396940	-0.574326	-0.021220
C63	C	1.730273	-0.240993	0.312113
C64	C	0.525542	-0.580983	-0.401545
C65	C	0.858875	-0.247650	-0.068211
C66	C	1.192209	0.085684	0.265122
C67	C	0.602401	-0.580974	-0.401541
C68	C	0.935734	-0.247641	-0.068208
C69	C	1.269067	0.085693	0.265126
C70	C	0.602375	-0.444667	-0.307563
C71	C	0.935708	-0.111334	0.025771
C72	C	1.269041	0.221999	0.359104
C73	C	0.525517	-0.444683	-0.307563
C74	C	0.858851	-0.111349	0.025770
C75	C	1.192184	0.221984	0.359104
C76	C	0.487103	-0.512839	-0.354558
C77	C	0.820436	-0.179505	-0.021225
C78	C	1.153770	0.153828	0.312109
C79	C	0.640819	-0.512814	-0.354554
C80	C	0.974152	-0.179481	-0.021221
C81	C	1.307486	0.153852	0.312112
C82	C	0.724153	-0.512804	-0.354550
C83	C	1.057486	-0.179471	-0.021217
C84	C	1.390819	0.153863	0.312117
C85	C	0.403764	-0.512851	-0.354562
C86	C	0.737097	-0.179518	-0.021228
C87	C	1.070431	0.153816	0.312105
C88	C	1.112818	-0.976901	-0.305442
C89	C	1.446152	-0.643568	0.027891
C90	C	1.779485	-0.310235	0.361224
C91	C	1.130801	-1.047606	-0.372613
C92	C	1.464134	-0.714273	-0.039279
C93	C	1.797468	-0.380939	0.294054
C94	C	1.045716	-1.047754	-0.287426
C95	C	1.379049	-0.714421	0.045907
C96	C	1.712382	-0.381087	0.379241
C97	C	1.081623	-0.976806	-0.421759
C98	C	1.414957	-0.643473	-0.088426
C99	C	1.748290	-0.310139	0.244908
C100	C	0.996507	-0.976948	-0.336527
C101	C	1.329840	-0.643614	-0.003194
C102	C	1.663173	-0.310281	0.330140
C103	C	1.014464	-1.047620	-0.403743
C104	C	1.347797	-0.714287	-0.070410
C105	C	1.681131	-0.380954	0.262923
C106	C	1.255541	-0.512847	-0.354559
C107	C	1.588874	-0.179513	-0.021226
C108	C	1.922207	0.153820	0.312108
C109	C	1.337339	-0.512861	-0.354564
C110	C	1.670673	-0.179528	-0.021231
C111	C	2.004006	0.153806	0.312103
C112	C	1.063632	-0.512740	-0.546500
C113	C	1.396966	-0.179406	-0.213167
C114	C	1.730299	0.153927	0.120167
C115	C	1.063652	-0.512709	-0.628299
C116	C	1.396985	-0.179375	-0.294966
C117	C	1.730318	0.153958	0.038368
C118	C	1.063642	-0.235192	-0.354576
C119	C	1.396975	0.098141	-0.021243
C120	C	1.730309	0.431474	0.312091
C121	C	1.063665	-0.116887	-0.354588
C122	C	1.396998	0.216446	-0.021255
C123	C	1.730332	0.549780	0.312078
C124	C	1.110751	-0.444577	-0.816504
C125	C	1.444084	-0.111244	-0.483171
C126	C	1.777418	0.222090	-0.149838
C127	C	1.110760	-0.444546	-0.893363
C128	C	1.444093	-0.111213	-0.560030
C129	C	1.777426	0.222121	-0.226696
C130	C	1.016604	-0.580675	-0.893332
C131	C	1.349938	-0.247342	-0.559998
C132	C	1.683271	0.085991	-0.226665
C133	C	1.016592	-0.580700	-0.816474
C134	C	1.349926	-0.247367	-0.483141
C135	C	1.683259	0.085966	-0.149808
C136	C	1.063670	-0.512653	-0.778063
C137	C	1.397003	-0.179319	-0.444729
C138	C	1.730336	0.154014	-0.111396
C139	C	1.063691	-0.512597	-0.931779
C140	C	1.397024	-0.179263	-0.598445
C141	C	1.730357	0.154070	-0.265112
C142	C	1.063700	-0.512564	-1.015113
C143	C	1.397033	-0.179230	-0.681779
C144	C	1.730366	0.154103	-0.348446
C145	C	1.063660	-0.512684	-0.694724
C146	C	1.396993	-0.179351	-0.361390
C147	C	1.730327	0.153983	-0.028057
C148	C	1.063585	-0.512809	-0.163341
C149	C	1.396919	-0.179476	0.169992
C150	C	1.730252	0.153857	0.503326
C151	C	1.063709	-0.512541	-0.081542
C152	C	1.397042	-0.179208	0.251791
C153	C	1.730375	0.154126	0.585124
H154	H	0.494267	-0.636481	-0.439811
H155	H	0.827600	-0.303147	-0.106478
H156	H	1.160934	0.030186	0.226856
H157	H	0.978248	-0.636135	-0.785174
H158	H	1.311581	-0.302801	-0.451841
H159	H	1.644915	0.030532	-0.118508
H160	H	1.149083	-0.389165	-0.785232
H161	H	1.482416	-0.055832	-0.451898
H162	H	1.815749	0.277501	-0.118565
O163	O	0.643863	-0.654464	-0.452224
O164	O	0.977196	-0.321130	-0.118891
O165	O	1.310529	0.012203	0.214442
H166	H	0.604236	-0.701849	-0.484905
H167	H	0.937569	-0.368516	-0.151572
H168	H	1.270903	-0.035183	0.181762
H169	H	0.633661	-0.389175	-0.269302
H170	H	0.966994	-0.055842	0.064032
H171	H	1.300328	0.277491	0.397365
H172	H	0.939753	-0.945885	-0.321240
H173	H	1.273087	-0.612552	0.012093
H174	H	1.606420	-0.279218	0.345427
O175	O	0.484049	-0.371177	-0.256885
O176	O	0.817383	-0.037844	0.076448
O177	O	1.150716	0.295489	0.409781
H178	H	0.523672	-0.323769	-0.224215
H179	H	0.857005	0.009564	0.109118
H180	H	1.190339	0.342898	0.442452
O181	O	1.167946	-0.935752	-0.250479
O182	O	1.501279	-0.602418	0.082855
O183	O	1.834613	-0.269085	0.416188
H184	H	1.223627	-0.964048	-0.265637
H185	H	1.556960	-0.630715	0.067696
H186	H	1.890293	-0.297381	0.401030
O187	O	1.161544	-0.371129	-0.934828
O188	O	1.494877	-0.037795	-0.601495
O189	O	1.828211	0.295538	-0.268161
H190	H	1.194280	-0.323825	-0.895203
H191	H	1.527613	0.009509	-0.561870
H192	H	1.860946	0.342842	-0.228536
H193	H	1.096723	-0.945774	-0.478591
H194	H	1.430057	-0.612441	-0.145258
H195	H	1.763390	-0.279108	0.188076
O196	O	1.205998	-1.088724	-0.392837
O197	O	1.539331	-0.755391	-0.059504
O198	O	1.872664	-0.422058	0.273830
H199	H	1.202034	-1.137142	-0.443582
H200	H	1.535368	-0.803809	-0.110249
H201	H	1.868701	-0.470475	0.223084
O202	O	0.965830	-0.654070	-0.934760
O203	O	1.299163	-0.320737	-0.601427
O204	O	1.632496	0.012597	-0.268094
H205	H	0.973751	-0.642623	-0.994663
H206	H	1.307084	-0.309290	-0.661330
H207	H	1.640417	0.024044	-0.327996
O208	O	0.959367	-1.088501	-0.458832
O209	O	1.292700	-0.755168	-0.125499
O210	O	1.626033	-0.421835	0.207835
H211	H	0.974415	-1.059928	-0.514489
H212	H	1.307748	-0.726595	-0.181156
H213	H	1.641081	-0.393262	0.152177
H214	H	1.030559	-1.078917	-0.230643
H215	H	1.363893	-0.745584	0.102691
H216	H	1.697226	-0.412251	0.436024
