data_functionalizedCrystal
_audit_creation_method	'MofGen! by Chris Wilmer'
_symmetry_space_group_name_H-M	'P1'
_symmetry_Int_Tables_number	1
_symmetry_cell_setting	triclinic
loop_
_symmetry_equiv_pos_as_xyz
  x,y,z
_cell_length_a	27.731994
_cell_length_b	27.732048
_cell_length_c	26.809956
_cell_angle_alpha	89.988964
_cell_angle_beta	89.981798
_cell_angle_gamma	82.631595
loop_
_atom_site_label
_atom_site_type_symbol
_atom_site_fract_x
_atom_site_fract_y
_atom_site_fract_z
O1	O	0.640958	0.057391	-0.041414
O2	O	1.140958	0.557391	0.458586
O3	O	0.500161	0.066164	-0.041431
O4	O	1.000161	0.566164	0.458569
O5	O	0.574933	-0.008620	-0.041412
O6	O	1.074933	0.491380	0.458588
O7	O	0.566187	0.132175	-0.041432
O8	O	1.066187	0.632175	0.458568
O9	O	0.574898	-0.008620	0.041547
O10	O	1.074898	0.491380	0.541547
O11	O	0.500127	0.066164	0.041528
O12	O	1.000127	0.566164	0.541528
O13	O	0.640924	0.057391	0.041545
O14	O	1.140924	0.557391	0.541545
Zn15	Zn	0.570520	0.061777	0.054708
Zn16	Zn	1.070520	0.561777	0.554708
Zn17	Zn	0.570565	0.061778	-0.054594
Zn18	Zn	1.070565	0.561778	0.445406
O19	O	0.566153	0.132175	0.041527
O20	O	1.066153	0.632175	0.541527
C21	C	0.482137	0.065984	0.000046
C22	C	0.982137	0.565984	0.500046
C23	C	0.428480	0.065442	0.000040
C24	C	0.928480	0.565442	0.500040
C25	C	0.095743	0.062026	0.045281
C26	C	0.595743	0.562026	0.545281
C27	C	-0.105915	0.059964	0.045287
C28	C	0.394085	0.559964	0.545287
O29	O	-0.132004	0.059676	0.083746
O30	O	0.367996	0.559676	0.583746
N31	N	-0.131111	0.059708	0.000066
N32	N	0.368889	0.559708	0.500066
C33	C	-0.105889	0.059965	-0.045160
C34	C	0.394111	0.559965	0.454840
O35	O	-0.131947	0.059695	-0.083623
O36	O	0.368053	0.559695	0.416377
C37	C	0.095768	0.062023	-0.045165
C38	C	0.595768	0.562023	0.454835
C39	C	0.120961	0.062283	0.000059
C40	C	0.620961	0.562283	0.500059
C41	C	0.120936	0.062286	0.090501
C42	C	0.620936	0.562286	0.590501
C43	C	0.171347	0.062804	0.090499
C44	C	0.671347	0.562804	0.590499
C45	C	0.196565	0.063062	0.045277
C46	C	0.696565	0.563062	0.545277
C47	C	0.171372	0.062801	0.000057
C48	C	0.671372	0.562801	0.500057
C49	C	0.120990	0.062276	-0.090390
C50	C	0.620990	0.562276	0.409610
C51	C	0.171408	0.062789	-0.090388
C52	C	0.671408	0.562789	0.409612
C53	C	0.196601	0.063050	-0.045164
C54	C	0.696601	0.563050	0.454836
C55	C	0.247002	0.063577	-0.045167
C56	C	0.747002	0.563577	0.454833
N57	N	0.272198	0.063833	0.000054
N58	N	0.772198	0.563833	0.500054
C59	C	0.246980	0.063575	0.045276
C60	C	0.746980	0.563575	0.545276
C61	C	-0.211763	0.058885	-0.045154
C62	C	0.288237	0.558885	0.454846
C63	C	-0.262177	0.058371	-0.045152
C64	C	0.237823	0.558371	0.454848
C65	C	-0.262199	0.058370	0.045294
C66	C	0.237801	0.558370	0.545294
C67	C	-0.211784	0.058887	0.045293
C68	C	0.288216	0.558887	0.545293
C69	C	-0.186567	0.059141	0.000067
C70	C	0.313433	0.559141	0.500067
C71	C	0.352847	0.064664	0.045268
C72	C	0.852847	0.564664	0.545268
C73	C	0.403262	0.065184	0.045262
C74	C	0.903262	0.565184	0.545262
C75	C	0.403280	0.065183	-0.045184
C76	C	0.903280	0.565183	0.454816
C77	C	0.352869	0.064665	-0.045179
C78	C	0.852869	0.564665	0.454821
C79	C	0.327654	0.064404	0.000052
C80	C	0.827654	0.564404	0.500052
O81	O	0.273122	0.063860	-0.083606
O82	O	0.773122	0.563860	0.416394
O83	O	0.273047	0.063834	0.083733
O84	O	0.773047	0.563834	0.583733
C85	C	0.045332	0.061508	0.045283
C86	C	0.545332	0.561508	0.545283
C87	C	0.020139	0.061247	0.000063
C88	C	0.520139	0.561247	0.500063
C89	C	0.045357	0.061505	-0.045160
C90	C	0.545357	0.561505	0.454840
C91	C	-0.030275	0.060734	0.000064
C92	C	0.469725	0.560734	0.500064
C93	C	-0.055494	0.060476	0.045286
C94	C	0.444506	0.560476	0.545286
C95	C	-0.030297	0.060732	0.090507
C96	C	0.469703	0.560732	0.590507
C97	C	0.020114	0.061250	0.090505
C98	C	0.520114	0.561250	0.590505
C99	C	0.020161	0.061250	-0.090381
C100	C	0.520161	0.561250	0.409619
C101	C	-0.030250	0.060732	-0.090375
C102	C	0.469750	0.560732	0.409625
C103	C	-0.055468	0.060474	-0.045153
C104	C	0.444532	0.560474	0.454847
C105	C	0.574732	-0.026627	0.000069
C106	C	1.074732	0.473373	0.500069
C107	C	0.574179	-0.080282	0.000073
C108	C	1.074179	0.419718	0.500073
C109	C	0.614884	-0.419105	0.000052
C110	C	1.114884	0.080895	0.500052
C111	C	0.612833	-0.620764	0.000045
C112	C	1.112833	-0.120764	0.500045
O113	O	0.650055	-0.652027	0.000028
O114	O	1.150055	-0.152027	0.500028
N115	N	0.568496	-0.639879	0.000040
N116	N	1.068496	-0.139879	0.500040
C117	C	0.524670	-0.608576	0.000033
C118	C	1.024670	-0.108576	0.500033
O119	O	0.486912	-0.629462	0.000024
O120	O	0.986912	-0.129462	0.500024
C121	C	0.526721	-0.406918	0.000037
C122	C	1.026721	0.093082	0.500037
C123	C	0.571060	-0.387805	0.000047
C124	C	1.071060	0.112195	0.500047
C125	C	0.659220	-0.399992	0.000061
C126	C	1.159220	0.100008	0.500061
C127	C	0.659732	-0.349580	0.000066
C128	C	1.159732	0.150420	0.500066
C129	C	0.615908	-0.318281	0.000061
C130	C	1.115908	0.181719	0.500061
C131	C	0.571573	-0.337394	0.000052
C132	C	1.071573	0.162606	0.500052
C133	C	0.482895	-0.375615	0.000027
C134	C	0.982895	0.124385	0.500027
C135	C	0.483412	-0.325198	0.000027
C136	C	0.983412	0.174802	0.500027
C137	C	0.527751	-0.306086	0.000037
C138	C	1.027751	0.193914	0.500037
C139	C	0.528262	-0.255683	0.000051
C140	C	1.028262	0.244317	0.500051
N141	N	0.572598	-0.236567	0.000056
N142	N	1.072598	0.263433	0.500056
C143	C	0.616421	-0.267867	0.000061
C144	C	1.116421	0.232133	0.500061
C145	C	0.523596	-0.714450	0.000032
C146	C	1.023596	-0.214450	0.500032
C147	C	0.523083	-0.764864	0.000032
C148	C	1.023083	-0.264864	0.500032
C149	C	0.611246	-0.777049	0.000043
C150	C	1.111246	-0.277049	0.500043
C151	C	0.611759	-0.726633	0.000047
C152	C	1.111759	-0.226633	0.500047
C153	C	0.567932	-0.695335	0.000037
C154	C	1.067932	-0.195335	0.500037
C155	C	0.617494	-0.161998	0.000071
C156	C	1.117494	0.338002	0.500071
C157	C	0.618002	-0.111581	0.000078
C158	C	1.118002	0.388419	0.500078
C159	C	0.529839	-0.099401	0.000064
C160	C	1.029839	0.400599	0.500064
C161	C	0.529331	-0.149813	0.000060
C162	C	1.029331	0.350187	0.500060
C163	C	0.573162	-0.181111	0.000062
C164	C	1.073162	0.318889	0.500062
O165	O	0.491060	-0.224391	0.000063
O166	O	0.991060	0.275609	0.500063
O167	O	0.654174	-0.246971	0.000060
O168	O	1.154174	0.253029	0.500060
C169	C	0.614372	-0.469517	0.000047
C170	C	1.114372	0.030483	0.500047
C171	C	0.570036	-0.488629	0.000038
C172	C	1.070036	0.011371	0.500038
C173	C	0.526213	-0.457330	0.000033
C174	C	1.026213	0.042670	0.500033
C175	C	0.569523	-0.539043	0.000038
C176	C	1.069523	-0.039043	0.500038
C177	C	0.613346	-0.570343	0.000043
C178	C	1.113346	-0.070343	0.500043
C179	C	0.657683	-0.551228	0.000048
C180	C	1.157683	-0.051228	0.500048
C181	C	0.658195	-0.500816	0.000052
C182	C	1.158195	-0.000816	0.500052
C183	C	0.481876	-0.476445	0.000028
C184	C	0.981876	0.023555	0.500028
C185	C	0.481367	-0.526857	0.000024
C186	C	0.981367	-0.026857	0.500024
C187	C	0.525191	-0.558157	0.000029
C188	C	1.025191	-0.058157	0.500029
C189	C	0.658949	0.057571	0.000067
C190	C	1.158949	0.557571	0.500067
C191	C	0.712605	0.058114	0.000070
C192	C	1.212605	0.558114	0.500070
C193	C	0.566353	0.150182	0.000045
C194	C	1.066353	0.650182	0.500045
C195	C	0.566906	0.203837	0.000037
C196	C	1.066906	0.703837	0.500037
N197	N	0.570493	0.061776	0.129304
N198	N	1.070493	0.561776	0.629304
C199	C	0.537419	0.094878	0.526179
C200	C	1.037419	0.594878	1.026179
C201	C	0.537395	0.094878	0.317302
C202	C	1.037395	0.594878	0.817302
O203	O	0.509217	0.123017	0.290294
O204	O	1.009217	0.623017	0.790294
N205	N	0.570508	0.061775	0.291183
N206	N	1.070508	0.561775	0.791183
C207	C	0.603628	0.028668	0.317287
C208	C	1.103628	0.528668	0.817287
O209	O	0.631788	0.000509	0.290278
O210	O	1.131788	0.500509	0.790278
C211	C	0.603649	0.028667	0.526163
C212	C	1.103649	0.528667	1.026163
C213	C	0.570537	0.061775	0.552280
C214	C	1.070537	0.561775	1.052280
C215	C	0.504309	0.127983	0.552296
C216	C	1.004309	0.627983	1.052296
C217	C	0.504317	0.127985	0.604512
C218	C	1.004317	0.627985	1.104512
C219	C	0.537435	0.094881	0.630612
C220	C	1.037435	0.594881	1.130612
C221	C	0.570545	0.061776	0.604496
C222	C	1.070545	0.561776	1.104496
C223	C	0.636765	-0.004442	0.552266
C224	C	1.136765	0.495558	1.052266
C225	C	0.636767	-0.004441	0.604489
C226	C	1.136767	0.495559	1.104489
C227	C	0.603655	0.028667	0.630605
C228	C	1.103655	0.528667	1.130605
C229	C	0.603670	0.028674	0.682812
C230	C	1.103670	0.528674	1.182812
N231	N	0.570557	0.061777	0.708931
N232	N	1.070557	0.561777	1.208931
C233	C	0.537440	0.094881	0.682831
C234	C	1.037440	0.594881	1.182831
C235	C	0.603615	0.028672	0.207623
C236	C	1.103615	0.528672	0.707623
C237	C	0.603610	0.028673	0.155405
C238	C	1.103610	0.528673	0.655405
C239	C	0.537377	0.094882	0.155423
C240	C	1.037377	0.594882	0.655423
C241	C	0.537384	0.094883	0.207643
C242	C	1.037384	0.594883	0.707643
C243	C	0.570502	0.061775	0.233742
C244	C	1.070502	0.561775	0.733742
C245	C	0.537459	0.094881	0.792489
C246	C	1.037459	0.594881	1.292489
C247	C	0.537472	0.094881	0.844710
C248	C	1.037472	0.594881	1.344710
C249	C	0.603703	0.028671	0.844687
C250	C	1.103703	0.528671	1.344687
C251	C	0.603692	0.028672	0.792470
C252	C	1.103692	0.528672	1.292470
C253	C	0.570567	0.061779	0.766373
C254	C	1.070567	0.561779	1.266373
O255	O	0.631831	0.000547	0.709852
O256	O	1.131831	0.500547	1.209852
O257	O	0.509276	0.123028	0.709848
O258	O	1.009276	0.623028	1.209848
C259	C	0.537411	0.094877	0.473963
C260	C	1.037411	0.594877	0.973963
C261	C	0.570521	0.061772	0.447847
C262	C	1.070521	0.561772	0.947847
C263	C	0.603638	0.028668	0.473947
C264	C	1.103638	0.528668	0.973947
C265	C	0.570516	0.061773	0.395628
C266	C	1.070516	0.561773	0.895628
C267	C	0.537398	0.094876	0.369528
C268	C	1.037398	0.594876	0.869528
C269	C	0.504285	0.127979	0.395647
C270	C	1.004285	0.627979	0.895647
C271	C	0.504293	0.127980	0.447863
C272	C	1.004293	0.627980	0.947863
C273	C	0.636751	-0.004435	0.447828
C274	C	1.136751	0.495565	0.947828
C275	C	0.636741	-0.004433	0.395612
C276	C	1.136741	0.495567	0.895612
C277	C	0.603623	0.028671	0.369512
C278	C	1.103623	0.528671	0.869512
N279	N	0.570589	0.061778	0.870810
N280	N	1.070589	0.561778	1.370810
H281	H	0.040621	0.061462	0.127331
H282	H	0.540621	0.561462	0.627331
H283	H	0.663728	-0.031402	0.531010
H284	H	1.163728	0.468598	1.031010
H285	H	-0.282686	0.058167	-0.081978
H286	H	0.217314	0.558167	0.418022
H287	H	0.694301	-0.485260	0.000060
H288	H	1.194301	0.014740	0.500060
H289	H	0.486977	-0.780420	0.000033
H290	H	0.986977	-0.280420	0.500033
H291	H	0.510422	0.121842	0.228904
H292	H	1.010422	0.621842	0.728904
H293	H	0.510412	0.121837	0.134164
H294	H	1.010412	0.621837	0.634164
H295	H	0.477354	0.154943	0.625773
H296	H	0.977354	0.654943	1.125773
O297	O	-0.057412	0.060438	-0.139160
O298	O	0.442588	0.560438	0.360840
H299	H	-0.052286	0.093489	-0.160861
H300	H	0.447714	0.593489	0.339139
O301	O	-0.184566	0.059164	-0.093935
O302	O	0.315434	0.559164	0.406065
H303	H	-0.210562	0.058906	-0.125375
H304	H	0.289438	0.558906	0.374625
H305	H	0.423822	0.065395	-0.082003
H306	H	0.923822	0.565395	0.417997
O307	O	0.672455	-0.040147	0.367445
O308	O	1.172455	0.459853	0.867445
H309	H	0.695479	-0.063167	0.394373
H310	H	1.195479	0.436833	0.894373
H311	H	0.423772	0.065397	0.082091
H312	H	0.923772	0.565397	0.582091
H313	H	0.100409	0.062075	0.127329
H314	H	0.600409	0.562075	0.627329
H315	H	0.630578	0.001718	0.134144
H316	H	1.130578	0.501718	0.634144
H317	H	0.477339	0.154940	0.531049
H318	H	0.977339	0.654940	1.031049
O319	O	0.658512	-0.810815	0.000049
O320	O	1.158512	-0.310815	0.500049
H321	H	0.689433	-0.789059	0.000055
H322	H	1.189433	-0.289059	0.500055
O323	O	0.468559	0.163675	0.367486
O324	O	0.968559	0.663675	0.867486
H325	H	0.488725	0.187020	0.343671
H326	H	0.988725	0.687020	0.843671
O327	O	0.639345	-0.007031	0.235771
O328	O	1.139345	0.492969	0.735771
H329	H	0.662372	-0.030041	0.208832
H330	H	1.162372	0.469959	0.708832
H331	H	0.447722	-0.299716	0.000018
H332	H	0.947722	0.200284	0.500018
O333	O	0.325652	0.064388	0.094051
O334	O	0.825652	0.564388	0.594051
H335	H	0.351646	0.064661	0.125491
H336	H	0.851646	0.564661	0.625491
H337	H	-0.050839	0.060524	0.127329
H338	H	0.449161	0.560524	0.627329
H339	H	0.663734	-0.031403	0.625736
H340	H	1.163734	0.468597	1.125736
O341	O	0.198509	0.063093	0.139280
O342	O	0.698509	0.563093	0.639280
H343	H	0.193385	0.030037	0.160973
H344	H	0.693385	0.530037	0.660973
O345	O	0.639396	-0.007037	0.764289
O346	O	1.139396	0.492963	1.264289
H347	H	0.677039	-0.001157	0.774281
H348	H	1.177039	0.498843	1.274281
H349	H	0.446789	-0.391167	0.000016
H350	H	0.946789	0.108833	0.500016
H351	H	0.100487	0.062063	-0.127217
H352	H	0.600487	0.562063	0.372783
H353	H	0.630668	0.001719	0.865946
H354	H	1.130668	0.501719	1.365946
H355	H	0.191937	0.062996	-0.127217
H356	H	0.691937	0.562996	0.372783
O357	O	0.468590	0.163700	0.476029
O358	O	0.968590	0.663700	0.976029
H359	H	0.445565	0.186717	0.449100
H360	H	0.945565	0.686717	0.949100
O361	O	0.481506	-0.170426	0.000056
O362	O	0.981506	0.329574	0.500056
H363	H	0.479147	-0.193108	0.033867
H364	H	0.979147	0.306892	0.533867
H365	H	0.663719	-0.031392	0.469075
H366	H	1.163719	0.468608	0.969075
H367	H	0.693365	-0.576720	0.000054
H368	H	1.193365	-0.076720	0.500054
O369	O	0.476323	-0.680693	0.000033
O370	O	0.976323	-0.180693	0.500033
H371	H	0.445411	-0.702460	0.000037
H372	H	0.945411	-0.202460	0.500037
O373	O	0.047353	0.061530	-0.139161
O374	O	0.547353	0.561530	0.360839
H375	H	0.074879	0.028806	-0.141329
H376	H	0.574879	0.528806	0.358671
H377	H	-0.191276	0.059100	0.082118
H378	H	0.308724	0.559100	0.582118
H379	H	0.446189	-0.450966	0.000023
H380	H	0.946189	0.049034	0.500023
O381	O	-0.289420	0.058220	0.094072
O382	O	0.210580	0.558220	0.594072
H383	H	-0.328714	0.057863	0.086470
H384	H	0.171286	0.557863	0.586470
O385	O	0.706491	-0.433746	0.000069
O386	O	1.206491	0.066254	0.500069
H387	H	0.708351	-0.457011	0.033881
H388	H	1.208351	0.042989	0.533881
O389	O	0.482573	-0.065638	0.000058
O390	O	0.982573	0.434362	0.500058
H391	H	0.490383	-0.027373	0.000057
H392	H	0.990383	0.472627	0.500057
O393	O	0.325691	0.064386	-0.093954
O394	O	0.825691	0.564386	0.406046
H395	H	0.351699	0.064650	-0.125399
H396	H	0.851699	0.564650	0.374601
H397	H	0.654110	-0.096023	0.000087
H398	H	1.154110	0.403977	0.500087
O399	O	0.659580	-0.706020	0.000048
O400	O	1.159580	-0.206020	0.500048
H401	H	0.689965	-0.736259	0.000047
H402	H	1.189965	-0.236259	0.500047
H403	H	0.510508	0.121844	0.865972
H404	H	1.010508	0.621844	1.365972
O405	O	0.664767	-0.195751	0.000080
O406	O	1.164767	0.304249	0.500080
H407	H	0.695679	-0.173984	0.000093
H408	H	1.195679	0.326016	0.500093
H409	H	0.695837	-0.334024	0.000072
H410	H	1.195837	0.165976	0.500072
H411	H	0.445258	-0.542413	0.000020
H412	H	0.945258	-0.042413	0.500020
O413	O	0.501736	0.130592	0.764344
O414	O	1.001736	0.630592	1.264344
H415	H	0.478720	0.153613	0.791284
H416	H	0.978720	0.653613	1.291284
