data_functionalizedCrystal
_audit_creation_method	'MofGen! by Chris Wilmer'
_symmetry_space_group_name_H-M	'P1'
_symmetry_Int_Tables_number	1
_symmetry_cell_setting	triclinic
loop_
_symmetry_equiv_pos_as_xyz
  x,y,z
_cell_length_a	19.902436
_cell_length_b	14.628931
_cell_length_c	14.628931
_cell_angle_alpha	60.000000
_cell_angle_beta	90.001278
_cell_angle_gamma	59.996936
loop_
_atom_site_label
_atom_site_type_symbol
_atom_site_fract_x
_atom_site_fract_y
_atom_site_fract_z
Zr1	Zr	0.647322	1.000474	-0.119891
O2	O	0.540030	1.191197	-0.265863
O3	O	0.680212	0.809764	-0.075142
O4	O	0.680213	1.000469	-0.265847
O5	O	0.540029	1.000492	0.075274
O6	O	0.790791	1.000451	-0.265835
O7	O	0.540029	1.000492	-0.075158
O8	O	0.790791	0.659314	0.075302
O9	O	0.540030	1.341629	-0.265863
O10	O	0.776764	0.888188	-0.056048
O11	O	0.694240	0.888202	0.056208
O12	O	0.694240	1.112732	-0.168323
O13	O	0.611716	1.112746	-0.056067
Zr14	Zr	0.823682	1.000447	0.120050
Zr15	Zr	0.823682	1.000446	-0.119871
Zr16	Zr	0.647321	1.000475	0.120031
Zr17	Zr	0.647322	1.240396	-0.119891
Zr18	Zr	0.823682	0.760525	0.120051
O19	O	0.790791	1.191158	0.075301
O20	O	0.790792	1.191157	-0.265836
O21	O	0.540029	1.191198	0.075274
O22	O	0.930974	0.809724	0.266023
O23	O	0.930974	0.809723	-0.075114
O24	O	0.680212	0.809765	0.265995
O25	O	0.930974	1.000429	-0.075114
O26	O	0.790791	1.000452	0.266007
O27	O	0.680212	1.000470	0.265995
O28	O	0.930974	1.000429	0.075317
O29	O	0.680213	1.341606	-0.265848
O30	O	0.790791	0.659315	0.266008
O31	O	0.930974	0.659292	0.266023
O32	O	0.930974	0.659292	0.075318
O33	O	0.540030	1.341629	-0.075158
O34	O	0.680213	1.341607	-0.075143
O35	O	0.776763	0.888189	0.168483
O36	O	0.859287	0.888175	0.056226
O37	O	0.776764	1.112719	-0.056049
O38	O	0.694240	1.112733	0.056208
C39	C	0.735501	0.700355	0.000080
C40	C	0.735501	0.598502	0.000080
C41	C	0.776439	0.553086	-0.055606
C42	C	0.776440	0.447816	-0.055607
C43	C	0.514902	1.000496	0.000055
C44	C	0.440032	1.000508	0.000047
C45	C	0.168030	1.000444	0.000091
C46	C	0.144463	1.142091	-0.070395
C47	C	0.222301	1.142180	-0.070787
C48	C	0.302973	1.000477	0.000069
C49	C	0.300562	0.930132	-0.051575
C50	C	0.222334	0.931037	-0.052096
C51	C	0.223322	0.928129	0.122252
C52	C	0.300243	0.930791	0.122065
C53	C	0.379240	1.000488	0.000058
C54	C	0.091765	1.000429	0.000098
C55	C	0.956102	1.000425	0.000104
C56	C	1.030971	1.000413	0.000112
C57	C	0.735502	1.000460	-0.300025
C58	C	0.735502	1.000459	-0.401878
C59	C	0.735502	1.300566	0.000079
C60	C	0.735502	1.402419	0.000079
C61	C	0.694565	1.111848	-0.502983
C62	C	0.694564	1.111851	-0.608254
C63	C	0.735501	1.000461	0.300185
C64	C	0.735501	1.000462	0.402037
C65	C	0.956101	0.700320	0.000105
C66	C	1.030971	0.598455	0.000113
C67	C	0.735501	0.700356	0.300185
C68	C	0.735501	0.598504	0.402038
C69	C	0.956101	0.700321	0.300209
C70	C	1.030971	0.598456	0.402071
C71	C	0.514902	1.300600	-0.300050
C72	C	0.440033	1.402465	-0.401911
C73	C	0.514902	1.300601	0.000055
C74	C	0.440033	1.402466	0.000047
C75	C	0.735502	1.300565	-0.300025
C76	C	0.735503	1.402418	-0.401878
C77	C	1.023054	0.550625	-0.058499
C78	C	1.093395	0.454925	-0.058514
C79	C	1.171652	0.407051	0.000091
C80	C	1.179568	0.454890	0.058705
C81	C	1.109227	0.550595	0.058713
C82	C	1.109214	0.550612	0.391309
C83	C	1.179569	0.454913	0.487009
C84	C	1.171678	0.407053	0.593470
C85	C	1.093426	0.454906	0.604230
C86	C	1.023073	0.550610	0.508530
C87	C	0.361790	1.450320	-0.391149
C88	C	0.291435	1.546049	-0.486850
C89	C	0.299326	1.593915	-0.593311
C90	C	0.377578	1.546055	-0.604070
C91	C	0.447930	1.450335	-0.508371
C92	C	0.447950	1.450306	0.058649
C93	C	0.377608	1.546032	0.058637
C94	C	0.299351	1.593910	0.000029
C95	C	0.291436	1.546066	-0.058581
C96	C	0.361776	1.450348	-0.058575
C97	C	0.776438	0.553088	0.503143
C98	C	0.776439	0.447818	0.608415
H99	H	0.700449	0.441475	0.047752
H100	H	0.227709	1.585063	-0.106298
H101	H	0.700456	0.559447	0.047758
F102	F	1.084954	0.404024	-0.120897
F103	F	0.939773	0.601562	-0.120882
H104	H	0.383993	1.585040	-0.690762
H105	H	0.299866	0.982082	0.160645
F106	F	1.085041	0.403956	0.717542
H107	H	0.242033	1.671856	-0.671226
F108	F	0.220769	1.214316	-0.025511
H109	H	0.105297	1.197688	-0.035932
F110	F	0.531230	1.399372	0.121029
F111	F	0.822244	0.604135	0.514423
F112	F	0.092299	1.214403	-0.187474
H113	H	0.659512	1.207215	-0.694989
H114	H	0.770547	0.905093	-0.511232
F115	F	1.117631	0.601537	0.278014
F116	F	0.386050	1.596930	0.121024
H117	H	1.243278	0.415961	0.478229
H118	H	0.770552	0.905097	-0.393254
F119	F	1.246508	0.305191	0.000075
F120	F	0.822252	0.604122	-0.117919
F121	F	0.689693	0.453454	0.484760
F122	F	0.648759	1.236499	-0.514263
H123	H	0.220526	1.197704	-0.160899
F124	F	1.262862	0.403923	0.121076
F125	F	0.374819	0.793947	0.012299
H126	H	0.227726	1.585000	-0.478067
H127	H	0.185792	0.981026	-0.141990
F128	F	0.249367	0.791737	0.191217
H129	H	0.700450	0.559456	0.393414
F130	F	0.822256	0.396765	0.721782
F131	F	0.822247	0.396776	-0.117932
F132	F	0.247619	0.795204	0.010657
H133	H	0.242082	1.671850	0.000033
F134	F	0.302588	0.993986	-0.167956
F135	F	1.117666	0.601483	0.121107
F136	F	0.939803	0.601513	0.520001
F137	F	0.175857	0.987364	0.178646
F138	F	1.246561	0.305194	0.695313
F139	F	0.375335	0.795650	0.196482
H140	H	0.355349	1.411354	-0.304472
H141	H	0.355318	1.411399	-0.106293
F142	F	0.531201	1.399406	-0.519841
