data_functionalizedCrystal
_audit_creation_method	'MofGen! by Chris Wilmer'
_symmetry_space_group_name_H-M	'P1'
_symmetry_Int_Tables_number	1
_symmetry_cell_setting	triclinic
loop_
_symmetry_equiv_pos_as_xyz
  x,y,z
_cell_length_a	11.169417
_cell_length_b	13.032868
_cell_length_c	11.169409
_cell_angle_alpha	82.856498
_cell_angle_beta	89.979747
_cell_angle_gamma	82.786971
loop_
_atom_site_label
_atom_site_type_symbol
_atom_site_fract_x
_atom_site_fract_y
_atom_site_fract_z
Zn1	Zn	1.774155	0.415916	-0.739131
Zn2	Zn	2.107488	0.749250	-0.405797
Zn3	Zn	2.440821	1.082583	-0.072464
Zn4	Zn	1.748483	0.590704	-0.563914
Zn5	Zn	2.081817	0.924038	-0.230580
Zn6	Zn	2.415150	1.257371	0.102753
Zn7	Zn	1.573429	0.415981	-0.538475
Zn8	Zn	1.906762	0.749314	-0.205142
Zn9	Zn	2.240095	1.082648	0.128191
Zn10	Zn	1.547902	0.590621	-0.764547
Zn11	Zn	1.881236	0.923954	-0.431214
Zn12	Zn	2.214569	1.257287	-0.097881
O13	O	1.660992	0.503306	-0.651517
O14	O	1.994326	0.836639	-0.318183
O15	O	2.327659	1.169972	0.015150
O16	O	1.938698	0.439110	-0.715897
O17	O	2.272031	0.772444	-0.382563
O18	O	2.605365	1.105777	-0.049230
O19	O	1.725201	0.567589	-0.392598
O20	O	2.058535	0.900922	-0.059265
O21	O	2.391868	1.234256	0.274068
O22	O	1.621482	0.269736	-0.543810
O23	O	1.954815	0.603069	-0.210476
O24	O	2.288148	0.936402	0.122857
O25	O	1.919837	0.567526	-0.587165
O26	O	2.253171	0.900860	-0.253832
O27	O	2.586504	1.234193	0.079501
O28	O	1.768954	0.269688	-0.691230
O29	O	2.102288	0.603021	-0.357897
O30	O	2.435621	0.936355	-0.024564
O31	O	1.596589	0.439220	-0.373909
O32	O	1.929923	0.772554	-0.040576
O33	O	2.263256	1.105887	0.292758
O34	O	1.402094	0.439139	-0.568455
O35	O	1.735427	0.772473	-0.235122
O36	O	2.068761	1.105806	0.098211
O37	O	1.577976	0.567384	-0.929117
O38	O	1.911309	0.900717	-0.595783
O39	O	2.244643	1.234050	-0.262450
O40	O	1.383340	0.567446	-0.734549
O41	O	1.716673	0.900780	-0.401216
O42	O	2.050007	1.234113	-0.067883
O43	O	1.744202	0.439029	-0.910443
O44	O	2.077536	0.772362	-0.577110
O45	O	2.410869	1.105696	-0.243776
O46	O	1.700450	0.736930	-0.611811
O47	O	2.033783	1.070263	-0.278478
O48	O	2.367116	1.403597	0.054856
O49	O	1.553084	0.736869	-0.759216
O50	O	1.886417	1.070202	-0.425883
O51	O	2.219750	1.403535	-0.092549
C52	C	1.349170	0.503291	-0.651501
C53	C	1.682503	0.836625	-0.318168
C54	C	2.015836	1.169958	0.015166
C55	C	1.215767	0.503311	-0.651526
C56	C	1.549100	0.836644	-0.318193
C57	C	1.882434	1.169977	0.015140
C58	C	1.621244	0.774817	-0.691058
C59	C	1.954577	1.108150	-0.357725
C60	C	2.287910	1.441484	-0.024391
C61	C	1.604349	0.890971	-0.708014
C62	C	1.937682	1.224304	-0.374681
C63	C	2.271015	1.557637	-0.041347
C64	C	1.669795	0.942751	-0.642695
C65	C	2.003128	1.276085	-0.309362
C66	C	2.336462	1.609418	0.023971
C67	C	1.652335	1.062802	-0.660219
C68	C	1.985668	1.396136	-0.326885
C69	C	2.319002	1.729469	0.006448
C70	C	1.974032	0.503320	-0.651533
C71	C	2.307366	0.836654	-0.318200
C72	C	2.640699	1.169987	0.015133
C73	C	2.107431	0.503327	-0.651541
C74	C	2.440765	0.836660	-0.318207
C75	C	2.774098	1.169993	0.015126
C76	C	1.700889	1.230734	-0.611834
C77	C	2.034223	1.564067	-0.278501
C78	C	2.367556	1.897401	0.054832
C79	C	1.717790	1.114580	-0.594891
C80	C	2.051123	1.447914	-0.261557
C81	C	2.384457	1.781247	0.071776
C82	C	1.661105	0.503190	-0.964542
C83	C	1.994439	0.836523	-0.631209
C84	C	2.327772	1.169856	-0.297876
C85	C	1.661154	0.503140	-1.097935
C86	C	1.994487	0.836474	-0.764602
C87	C	2.327820	1.169807	-0.431269
C88	C	1.660960	0.503345	-0.339698
C89	C	1.994293	0.836679	-0.006364
C90	C	2.327626	1.170012	0.326969
C91	C	1.661187	0.503100	-0.206263
C92	C	1.994520	0.836434	0.127071
C93	C	2.327854	1.169767	0.460404
H94	H	1.583378	1.107344	-0.729123
H95	H	1.916711	1.440677	-0.395790
H96	H	2.250045	1.774011	-0.062456
O97	O	1.512992	0.949961	-0.799268
O98	O	1.846325	1.283294	-0.465935
O99	O	2.179658	1.616627	-0.132602
H100	H	1.513604	1.034996	-0.798701
H101	H	1.846937	1.368330	-0.465368
H102	H	2.180270	1.701663	-0.132034
H103	H	1.786757	1.070040	-0.525995
H104	H	2.120090	1.403373	-0.192662
H105	H	2.453423	1.736706	0.140672
H106	H	1.738757	0.898208	-0.573804
H107	H	2.072090	1.231541	-0.240471
H108	H	2.405424	1.564875	0.092862
