data_functionalizedCrystal
_audit_creation_method	'MofGen! by Chris Wilmer'
_symmetry_space_group_name_H-M	'P1'
_symmetry_Int_Tables_number	1
_symmetry_cell_setting	triclinic
loop_
_symmetry_equiv_pos_as_xyz
  x,y,z
_cell_length_a	19.077105
_cell_length_b	21.295417
_cell_length_c	19.076919
_cell_angle_alpha	87.733380
_cell_angle_beta	89.923776
_cell_angle_gamma	87.726672
loop_
_atom_site_label
_atom_site_type_symbol
_atom_site_fract_x
_atom_site_fract_y
_atom_site_fract_z
Zn1	Zn	1.058236	-0.304534	0.440387
Zn2	Zn	1.308236	-0.054534	0.690387
Zn3	Zn	1.558236	0.195466	0.940387
Zn4	Zn	1.808236	0.445466	1.190387
Zn5	Zn	1.062864	-0.405747	0.322870
Zn6	Zn	1.312864	-0.155747	0.572870
Zn7	Zn	1.562864	0.094253	0.822870
Zn8	Zn	1.812864	0.344253	1.072870
Zn9	Zn	0.945454	-0.296102	0.318181
Zn10	Zn	1.195454	-0.046102	0.568181
Zn11	Zn	1.445454	0.203898	0.818181
Zn12	Zn	1.695454	0.453898	1.068181
Zn13	Zn	0.940686	-0.405368	0.435623
Zn14	Zn	1.190686	-0.155368	0.685623
Zn15	Zn	1.440686	0.094632	0.935623
Zn16	Zn	1.690686	0.344632	1.185623
O17	O	1.001810	-0.352938	0.379265
O18	O	1.251810	-0.102938	0.629265
O19	O	1.501810	0.147062	0.879265
O20	O	1.751810	0.397062	1.129265
O21	O	1.157181	-0.321649	0.428754
O22	O	1.407181	-0.071649	0.678754
O23	O	1.657181	0.178351	0.928754
O24	O	1.907181	0.428351	1.178754
O25	O	1.051222	-0.387832	0.223917
O26	O	1.301222	-0.137832	0.473917
O27	O	1.551222	0.112168	0.723917
O28	O	1.801222	0.362168	0.973917
O29	O	0.960474	-0.209134	0.334424
O30	O	1.210474	0.040866	0.584424
O31	O	1.460474	0.290866	0.834424
O32	O	1.710474	0.540866	1.084424
O33	O	1.160581	-0.396009	0.342415
O34	O	1.410581	-0.146009	0.592415
O35	O	1.660581	0.103991	0.842415
O36	O	1.910581	0.353991	1.092415
O37	O	1.043334	-0.215330	0.424208
O38	O	1.293334	0.034670	0.674208
O39	O	1.543334	0.284670	0.924208
O40	O	1.793334	0.534670	1.174208
O41	O	0.964962	-0.307276	0.220472
O42	O	1.214962	-0.057276	0.470472
O43	O	1.464962	0.192724	0.720472
O44	O	1.714962	0.442724	0.970472
O45	O	0.846490	-0.306908	0.329804
O46	O	1.096490	-0.056908	0.579804
O47	O	1.346490	0.193092	0.829804
O48	O	1.596490	0.443092	1.079804
O49	O	0.952346	-0.395362	0.534586
O50	O	1.202346	-0.145362	0.784586
O51	O	1.452346	0.104638	1.034586
O52	O	1.702346	0.354638	1.284586
O53	O	0.842987	-0.387185	0.416088
O54	O	1.092987	-0.137185	0.666088
O55	O	1.342987	0.112815	0.916088
O56	O	1.592987	0.362815	1.166088
O57	O	1.038710	-0.321280	0.538086
O58	O	1.288710	-0.071280	0.788086
O59	O	1.538710	0.178720	1.038086
O60	O	1.788710	0.428720	1.288086
O61	O	1.046598	-0.493783	0.337795
O62	O	1.296598	-0.243783	0.587795
O63	O	1.546598	0.006217	0.837795
O64	O	1.796598	0.256217	1.087795
O65	O	0.956834	-0.493504	0.420634
O66	O	1.206834	-0.243504	0.670634
O67	O	1.456834	0.006496	0.920634
O68	O	1.706834	0.256496	1.170634
C69	C	0.819242	-0.346091	0.371921
C70	C	1.069242	-0.096091	0.621921
C71	C	1.319242	0.153909	0.871921
C72	C	1.569242	0.403909	1.121921
C73	C	0.741139	-0.343178	0.368795
C74	C	0.991139	-0.093178	0.618795
C75	C	1.241139	0.156822	0.868795
C76	C	1.491139	0.406822	1.118795
C77	C	0.702642	-0.383663	0.412179
C78	C	0.952642	-0.133663	0.662179
C79	C	1.202642	0.116337	0.912179
C80	C	1.452642	0.366337	1.162179
C81	C	0.629255	-0.380918	0.409246
C82	C	0.879255	-0.130918	0.659246
C83	C	1.129255	0.119082	0.909246
C84	C	1.379255	0.369082	1.159246
C85	C	0.594366	-0.337689	0.362924
C86	C	0.844366	-0.087689	0.612924
C87	C	1.094366	0.162311	0.862924
C88	C	1.344366	0.412311	1.112924
C89	C	0.632868	-0.297199	0.319538
C90	C	0.882868	-0.047199	0.569538
C91	C	1.132868	0.202801	0.819538
C92	C	1.382868	0.452801	1.069538
C93	C	0.706253	-0.299942	0.322476
C94	C	0.956253	-0.049942	0.572476
C95	C	1.206253	0.200058	0.822476
C96	C	1.456253	0.450058	1.072476
C97	C	0.375080	-0.324994	0.349333
C98	C	0.625080	-0.074994	0.599333
C99	C	0.875080	0.175006	0.849333
C100	C	1.125080	0.425006	1.099333
C101	C	0.301690	-0.322256	0.346397
C102	C	0.551690	-0.072256	0.596397
C103	C	0.801690	0.177744	0.846397
C104	C	1.051690	0.427744	1.096397
C105	C	0.298082	-0.405974	0.436106
C106	C	0.548082	-0.155974	0.686106
C107	C	0.798082	0.094026	0.936106
C108	C	1.048082	0.344026	1.186106
C109	C	0.371470	-0.408715	0.439037
C110	C	0.621470	-0.158715	0.689037
C111	C	0.871470	0.091285	0.939037
C112	C	1.121470	0.341285	1.189037
C113	C	0.409965	-0.368223	0.395653
C114	C	0.659965	-0.118223	0.645653
C115	C	0.909965	0.131777	0.895653
C116	C	1.159965	0.381777	1.145653
N117	N	0.519353	-0.334883	0.359923
N118	N	0.769353	-0.084883	0.609923
N119	N	1.019353	0.165117	0.859923
N120	N	1.269353	0.415117	1.109923
N121	N	0.484976	-0.371027	0.398658
N122	N	0.734976	-0.121027	0.648658
N123	N	0.984976	0.128973	0.898658
N124	N	1.234976	0.378973	1.148658
C125	C	1.001719	-0.516485	0.379223
C126	C	1.251719	-0.266485	0.629223
C127	C	1.501719	-0.016485	0.879223
C128	C	1.751719	0.233515	1.129223
C129	C	1.001744	-0.586454	0.379231
C130	C	1.251744	-0.336454	0.629231
C131	C	1.501744	-0.086454	0.879231
C132	C	1.751744	0.163546	1.129231
C133	C	1.048522	-0.619448	0.336144
C134	C	1.298522	-0.369448	0.586144
C135	C	1.548522	-0.119448	0.836144
C136	C	1.798522	0.130552	1.086144
C137	C	1.048554	-0.685192	0.336161
C138	C	1.298554	-0.435192	0.586161
C139	C	1.548554	-0.185192	0.836161
C140	C	1.798554	0.064808	1.086161
C141	C	1.001796	-0.717939	0.379257
C142	C	1.251796	-0.467939	0.629257
C143	C	1.501796	-0.217939	0.879257
C144	C	1.751796	0.032061	1.129257
C145	C	0.955015	-0.684937	0.422352
C146	C	1.205015	-0.434937	0.672352
C147	C	1.455015	-0.184937	0.922352
C148	C	1.705015	0.065063	1.172352
C149	C	0.954989	-0.619195	0.422339
C150	C	1.204989	-0.369195	0.672339
C151	C	1.454989	-0.119195	0.922339
C152	C	1.704989	0.130805	1.172339
N153	N	0.940111	-0.819089	0.382141
N154	N	1.190111	-0.569089	0.632141
N155	N	1.440111	-0.319089	0.882141
N156	N	1.690111	-0.069089	1.132141
N157	N	0.940138	-0.881541	0.382149
N158	N	1.190138	-0.631541	0.632149
N159	N	1.440138	-0.381541	0.882149
N160	N	1.690138	-0.131541	1.132149
C161	C	1.001873	-0.916018	0.379300
C162	C	1.251873	-0.666018	0.629300
C163	C	1.501873	-0.416018	0.879300
C164	C	1.751873	-0.166018	1.129300
N165	N	1.063583	-0.885683	0.376429
N166	N	1.313583	-0.635683	0.626429
N167	N	1.563583	-0.385683	0.876429
N168	N	1.813583	-0.135683	1.126429
N169	N	1.063555	-0.823224	0.376417
N170	N	1.313555	-0.573224	0.626417
N171	N	1.563555	-0.323224	0.876417
N172	N	1.813555	-0.073224	1.126417
C173	C	1.001820	-0.789226	0.379276
C174	C	1.251820	-0.539226	0.629276
C175	C	1.501820	-0.289226	0.879276
C176	C	1.751820	-0.039226	1.129276
C177	C	1.048690	-1.020300	0.336230
C178	C	1.298690	-0.770300	0.586230
C179	C	1.548690	-0.520300	0.836230
C180	C	1.798690	-0.270300	1.086230
C181	C	1.048724	-1.086046	0.336252
C182	C	1.298724	-0.836046	0.586252
C183	C	1.548724	-0.586046	0.836252
C184	C	1.798724	-0.336046	1.086252
C185	C	0.955178	-1.085789	0.422439
C186	C	1.205178	-0.835789	0.672439
C187	C	1.455178	-0.585789	0.922439
C188	C	1.705178	-0.335789	1.172439
C189	C	0.955151	-1.020045	0.422421
C190	C	1.205151	-0.770045	0.672421
C191	C	1.455151	-0.520045	0.922421
C192	C	1.705151	-0.270045	1.172421
C193	C	1.001906	-0.987304	0.379313
C194	C	1.251906	-0.737304	0.629313
C195	C	1.501906	-0.487304	0.879313
C196	C	1.751906	-0.237304	1.129313
C197	C	1.185090	-0.359812	0.386639
C198	C	1.435090	-0.109812	0.636639
C199	C	1.685090	0.140188	0.886639
C200	C	1.935090	0.390188	1.136639
C201	C	1.263193	-0.362741	0.389782
C202	C	1.513193	-0.112741	0.639782
C203	C	1.763193	0.137259	0.889782
C204	C	2.013193	0.387259	1.139782
C205	C	0.994480	-0.359220	0.562545
C206	C	1.244480	-0.109220	0.812545
C207	C	1.494480	0.140780	1.062545
C208	C	1.744480	0.390780	1.312545
C209	C	0.991356	-0.361897	0.640648
C210	C	1.241356	-0.111897	0.890648
C211	C	1.491356	0.138103	1.140648
C212	C	1.741356	0.388103	1.390648
C213	C	1.001919	-0.188754	0.379324
C214	C	1.251919	0.061246	0.629324
C215	C	1.501919	0.311246	0.879324
C216	C	1.751919	0.561246	1.129324
C217	C	1.001966	-0.118788	0.379349
C218	C	1.251966	0.131212	0.629349
C219	C	1.501966	0.381212	0.879349
C220	C	1.751966	0.631212	1.129349
C221	C	1.009152	-0.346637	0.196700
C222	C	1.259152	-0.096637	0.446700
C223	C	1.509152	0.153363	0.696700
C224	C	1.759152	0.403363	0.946700
C225	C	1.012412	-0.343787	0.118604
C226	C	1.262412	-0.093787	0.368604
C227	C	1.512412	0.156213	0.618604
C228	C	1.762412	0.406213	0.868604
C229	C	1.034851	-0.324586	0.679164
C230	C	1.284851	-0.074586	0.929164
C231	C	1.534851	0.175414	1.179164
C232	C	1.784851	0.425414	1.429164
C233	C	1.031907	-0.327098	0.752550
C234	C	1.281907	-0.077098	1.002550
C235	C	1.531907	0.172902	1.252550
C236	C	1.781907	0.422902	1.502550
C237	C	0.985472	-0.366925	0.787418
C238	C	1.235472	-0.116925	1.037418
C239	C	1.485472	0.133075	1.287418
C240	C	1.735472	0.383075	1.537418
C241	C	0.941972	-0.404238	0.748896
C242	C	1.191972	-0.154238	0.998896
C243	C	1.441972	0.095762	1.248896
C244	C	1.691972	0.345762	1.498896
C245	C	0.944913	-0.401722	0.675512
C246	C	1.194913	-0.151722	0.925512
C247	C	1.444913	0.098278	1.175512
C248	C	1.694913	0.348278	1.425512
C249	C	0.971853	-0.378584	1.006698
C250	C	1.221853	-0.128584	1.256698
C251	C	1.471853	0.121416	1.506698
C252	C	1.721853	0.371416	1.756698
C253	C	0.968917	-0.381099	1.080087
C254	C	1.218917	-0.131099	1.330087
C255	C	1.468917	0.118901	1.580087
C256	C	1.718917	0.368901	1.830087
C257	C	1.058852	-0.303958	1.083736
C258	C	1.308852	-0.053958	1.333736
C259	C	1.558852	0.196042	1.583736
C260	C	1.808852	0.446042	1.833736
C261	C	1.061791	-0.301448	1.010350
C262	C	1.311791	-0.051448	1.260350
C263	C	1.561791	0.198552	1.510350
C264	C	1.811791	0.448552	1.760350
C265	C	1.018289	-0.338758	0.971835
C266	C	1.268289	-0.088758	1.221835
C267	C	1.518289	0.161242	1.471835
C268	C	1.768289	0.411242	1.721835
N269	N	0.982464	-0.369496	0.862429
N270	N	1.232464	-0.119496	1.112429
N271	N	1.482464	0.130504	1.362429
N272	N	1.732464	0.380504	1.612429
N273	N	1.021294	-0.336183	0.896824
N274	N	1.271294	-0.086183	1.146824
N275	N	1.521294	0.163817	1.396824
N276	N	1.771294	0.413817	1.646824
H277	H	0.737596	-0.266971	0.287151
H278	H	0.987596	-0.016971	0.537151
H279	H	1.237596	0.233029	0.787151
H280	H	1.487596	0.483029	1.037151
H281	H	0.604455	-0.261999	0.281825
H282	H	0.854455	-0.011999	0.531825
H283	H	1.104455	0.238001	0.781825
H284	H	1.354455	0.488001	1.031825
F285	F	1.105145	-0.264251	1.124732
F286	F	1.355145	-0.014251	1.374732
F287	F	1.605145	0.235749	1.624732
F288	F	1.855145	0.485749	1.874732
H289	H	0.399871	-0.443918	0.476755
H290	H	0.649871	-0.193918	0.726755
H291	H	0.899871	0.056082	0.976755
H292	H	1.149871	0.306082	1.226755
H293	H	0.273285	-0.287047	0.308681
H294	H	0.523285	-0.037047	0.558681
H295	H	0.773285	0.212953	0.808681
H296	H	1.023285	0.462953	1.058681
F297	F	1.098291	-0.584607	0.290272
F298	F	1.348291	-0.334607	0.540272
F299	F	1.598291	-0.084607	0.790272
F300	F	1.848291	0.165393	1.040272
F301	F	1.098343	-0.720314	0.290300
F302	F	1.348343	-0.470314	0.540300
F303	F	1.598343	-0.220314	0.790300
F304	F	1.848343	0.029686	1.040300
H305	H	0.266732	-0.438939	0.471428
H306	H	0.516732	-0.188939	0.721428
H307	H	0.766732	0.061061	0.971428
H308	H	1.016732	0.311061	1.221428
H309	H	0.406414	-0.292027	0.314002
H310	H	0.656414	-0.042027	0.564002
H311	H	0.906414	0.207973	0.814002
H312	H	1.156414	0.457973	1.064002
H313	H	0.916945	-0.711604	0.457442
H314	H	1.166945	-0.461604	0.707442
H315	H	1.416945	-0.211604	0.957442
H316	H	1.666945	0.038396	1.207442
H317	H	0.916895	-0.592330	0.457426
H318	H	1.166895	-0.342330	0.707426
H319	H	1.416895	-0.092330	0.957426
H320	H	1.666895	0.157670	1.207426
H321	H	0.909487	-0.432098	0.644152
H322	H	1.159487	-0.182098	0.894152
H323	H	1.409487	0.067902	1.144152
H324	H	1.659487	0.317902	1.394152
F325	F	0.925553	-0.418293	0.965716
F326	F	1.175553	-0.168293	1.215716
F327	F	1.425553	0.081707	1.465716
F328	F	1.675553	0.331707	1.715716
H329	H	1.086764	-0.993641	0.301131
H330	H	1.336764	-0.743641	0.551131
H331	H	1.586764	-0.493641	0.801131
H332	H	1.836764	-0.243641	1.051131
F333	F	1.098519	-1.121160	0.290396
F334	F	1.348519	-0.871160	0.540396
F335	F	1.598519	-0.621160	0.790396
F336	F	1.848519	-0.371160	1.040396
H337	H	0.731044	-0.418867	0.449897
H338	H	0.981044	-0.168867	0.699897
H339	H	1.231044	0.081133	0.949897
H340	H	1.481044	0.331133	1.199897
H341	H	1.067327	-0.296717	0.783907
H342	H	1.317327	-0.046717	1.033907
H343	H	1.567327	0.203283	1.283907
H344	H	1.817327	0.453283	1.533907
F345	F	0.892549	-0.446623	0.786007
F346	F	1.142549	-0.196623	1.036007
F347	F	1.392549	0.053377	1.286007
F348	F	1.642549	0.303377	1.536007
H349	H	0.917110	-1.112451	0.457532
H350	H	1.167110	-0.862451	0.707532
H351	H	1.417110	-0.612451	0.957532
H352	H	1.667110	-0.362451	1.207532
F353	F	0.588288	-0.424008	0.455422
F354	F	0.838288	-0.174008	0.705422
F355	F	1.088288	0.075992	0.955422
F356	F	1.338288	0.325992	1.205422
H357	H	0.917057	-0.993179	0.457503
H358	H	1.167057	-0.743179	0.707503
H359	H	1.417057	-0.493179	0.957503
H360	H	1.667057	-0.243179	1.207503
F361	F	1.084278	-0.282199	0.642062
F362	F	1.334278	-0.032199	0.892062
F363	F	1.584278	0.217801	1.142062
F364	F	1.834278	0.467801	1.392062
F365	F	1.111214	-0.259058	0.973246
F366	F	1.361214	-0.009058	1.223246
F367	F	1.611214	0.240942	1.473246
F368	F	1.861214	0.490942	1.723246
F369	F	0.919489	-0.423487	1.117195
F370	F	1.169489	-0.173487	1.367195
F371	F	1.419489	0.076513	1.617195
F372	F	1.669489	0.326513	1.867195
