data_functionalizedCrystal
_audit_creation_method	'MofGen! by Chris Wilmer'
_symmetry_space_group_name_H-M	'P1'
_symmetry_Int_Tables_number	1
_symmetry_cell_setting	triclinic
loop_
_symmetry_equiv_pos_as_xyz
  x,y,z
_cell_length_a	19.121102
_cell_length_b	12.759400
_cell_length_c	12.759393
_cell_angle_alpha	89.968436
_cell_angle_beta	87.539308
_cell_angle_gamma	87.569137
loop_
_atom_site_label
_atom_site_type_symbol
_atom_site_fract_x
_atom_site_fract_y
_atom_site_fract_z
Zn1	Zn	1.073801	-0.486830	-0.662514
Zn2	Zn	1.573801	0.013170	-0.162514
Zn3	Zn	1.073731	-0.662544	-0.486829
Zn4	Zn	1.573731	-0.162544	0.013171
Zn5	Zn	0.956345	-0.479378	-0.479357
Zn6	Zn	1.456345	0.020622	0.020643
Zn7	Zn	0.956337	-0.654961	-0.654979
Zn8	Zn	1.456337	-0.154961	-0.154979
O9	O	1.015054	-0.570928	-0.570920
O10	O	1.515054	-0.070928	-0.070920
O11	O	1.172077	-0.516432	-0.645490
O12	O	1.672077	-0.016432	-0.145490
O13	O	1.058133	-0.638302	-0.338815
O14	O	1.558133	-0.138302	0.161185
O15	O	0.971958	-0.333348	-0.503679
O16	O	1.471958	0.166652	-0.003679
O17	O	1.172025	-0.645528	-0.516415
O18	O	1.672025	-0.145528	-0.016415
O19	O	1.058253	-0.338823	-0.638244
O20	O	1.558253	0.161177	-0.138244
O21	O	0.971890	-0.503731	-0.333325
O22	O	1.471890	-0.003731	0.166675
O23	O	0.858059	-0.496377	-0.496373
O24	O	1.358059	0.003623	0.003627
O25	O	0.971946	-0.632602	-0.803001
O26	O	1.471946	-0.132602	-0.303001
O27	O	0.858053	-0.625377	-0.625401
O28	O	1.358053	-0.125377	-0.125401
O29	O	1.058246	-0.509078	-0.808537
O30	O	1.558246	-0.009078	-0.308537
O31	O	1.058125	-0.808557	-0.509109
O32	O	1.558125	-0.308557	-0.009109
O33	O	0.971877	-0.802986	-0.632647
O34	O	1.471877	-0.302986	-0.132647
C35	C	1.015012	-0.843893	-0.570895
C36	C	1.515012	-0.343893	-0.070895
C37	C	1.015058	-0.960673	-0.570924
C38	C	1.515058	-0.460673	-0.070924
C39	C	0.832572	-0.559246	-0.559259
C40	C	1.332572	-0.059246	-0.059259
C41	C	0.754505	-0.554273	-0.554295
C42	C	1.254505	-0.054273	-0.054295
C43	C	1.060018	-1.018404	-0.506675
C44	C	1.560018	-0.518404	-0.006675
C45	C	1.060061	-1.128131	-0.506710
C46	C	1.560061	-0.628131	-0.006710
C47	C	0.970179	-1.122384	-0.635246
C48	C	1.470179	-0.622384	-0.135246
C49	C	0.970140	-1.012660	-0.635215
C50	C	1.470140	-0.512660	-0.135215
C51	C	1.104936	-0.966417	-0.442383
C52	C	1.604936	-0.466417	0.057617
C53	C	1.149898	-1.024149	-0.378128
C54	C	1.649898	-0.524149	0.121872
C55	C	1.149941	-1.133875	-0.378163
C56	C	1.649941	-0.633875	0.121837
C57	C	1.105022	-1.185870	-0.442454
C58	C	1.605022	-0.685870	0.057546
C59	C	0.717845	-0.619202	-0.619036
C60	C	1.217845	-0.119202	-0.119036
C61	C	0.644493	-0.614516	-0.614377
C62	C	1.144493	-0.114516	-0.114377
C63	C	0.607803	-0.544906	-0.544972
C64	C	1.107803	-0.044906	-0.044972
C65	C	0.644468	-0.479970	-0.480229
C66	C	1.144468	0.020030	0.019771
C67	C	0.717819	-0.484652	-0.484893
C68	C	1.217819	0.015348	0.015107
C69	C	0.386331	-0.527401	-0.527537
C70	C	0.886331	-0.027401	-0.027537
C71	C	0.312975	-0.522727	-0.522875
C72	C	0.812975	-0.022727	-0.022875
C73	C	0.313005	-0.657271	-0.657025
C74	C	0.813005	-0.157271	-0.157025
C75	C	0.386357	-0.661951	-0.661680
C76	C	0.886357	-0.161951	-0.161680
C77	C	0.423016	-0.597012	-0.596940
C78	C	0.923016	-0.097012	-0.096940
C79	C	0.532825	-0.540117	-0.540206
C80	C	1.032825	-0.040117	-0.040206
C81	C	0.497992	-0.601796	-0.601712
C82	C	0.997992	-0.101796	-0.101712
C83	C	1.198248	-0.582657	-0.582627
C84	C	1.698248	-0.082657	-0.082627
C85	C	1.276315	-0.587655	-0.587615
C86	C	1.776315	-0.087655	-0.087615
C87	C	1.015103	-0.570825	-0.844956
C88	C	1.515103	-0.070825	-0.344956
C89	C	1.015124	-0.570782	-0.961734
C90	C	1.515124	-0.070782	-0.461734
C91	C	1.015114	-0.296899	-0.570969
C92	C	1.515114	0.203101	-0.070969
C93	C	1.015140	-0.180124	-0.570989
C94	C	1.515140	0.319876	-0.070989
C95	C	1.060066	-0.506456	-1.019481
C96	C	1.560066	-0.006456	-0.519481
C97	C	1.060083	-0.506419	-1.129206
C98	C	1.560083	-0.006419	-0.629206
C99	C	0.970212	-0.635042	-1.123428
C100	C	1.470212	-0.135042	-0.623428
C101	C	0.970193	-0.635073	-1.013705
C102	C	1.470193	-0.135073	-0.513705
C103	C	1.104997	-0.442165	-0.967511
C104	C	1.604997	0.057835	-0.467511
C105	C	1.149944	-0.377835	-1.025258
C106	C	1.649944	0.122165	-0.525258
C107	C	1.149961	-0.377799	-1.134983
C108	C	1.649961	0.122201	-0.634983
C109	C	1.105031	-0.442091	-1.186961
C110	C	1.605031	0.057909	-0.686961
C111	C	1.015045	-0.570957	-0.297952
C112	C	1.515045	-0.070957	0.202048
C113	C	1.015160	-0.570714	-0.181183
C114	C	1.515160	-0.070714	0.318817
H115	H	1.104904	-0.877072	-0.442344
H116	H	1.604904	-0.377072	0.057656
Cl117	Cl	0.432476	-0.749467	-0.748933
Cl118	Cl	0.932476	-0.249467	-0.248933
H119	H	1.104990	-0.442190	-0.878167
H120	H	1.604990	0.057810	-0.378167
H121	H	0.933608	-1.164728	-0.687587
H122	H	1.433608	-0.664728	-0.187587
H123	H	1.186520	-0.325484	-0.982930
H124	H	1.686520	0.174516	-0.482930
H125	H	1.186554	-0.325410	-1.181998
H126	H	1.686554	0.174590	-0.681998
H127	H	1.105040	-0.442043	-1.276307
H128	H	1.605040	0.057957	-0.776307
Cl129	Cl	1.206470	-1.206450	-0.297397
Cl130	Cl	1.706470	-0.706450	0.202603
H131	H	0.283149	-0.710140	-0.709734
H132	H	0.783149	-0.210140	-0.209734
H133	H	0.416170	-0.474530	-0.474813
H134	H	0.916170	0.025470	0.025187
H135	H	0.933531	-0.965654	-0.687534
H136	H	1.433531	-0.465654	-0.187534
H137	H	0.933632	-0.687386	-1.165758
H138	H	1.433632	-0.187386	-0.665758
Cl139	Cl	0.913691	-0.715939	-0.941103
Cl140	Cl	1.413691	-0.215939	-0.441103
Cl141	Cl	1.206371	-0.958786	-0.297321
Cl142	Cl	1.706371	-0.458786	0.202679
H143	H	0.614647	-0.667389	-0.667095
H144	H	1.114647	-0.167389	-0.167095
Cl145	Cl	0.763962	-0.706721	-0.706289
Cl146	Cl	1.263962	-0.206721	-0.206289
H147	H	1.105066	-1.275218	-0.442486
H148	H	1.605066	-0.775218	0.057514
H149	H	0.283104	-0.466030	-0.466363
H150	H	0.783104	0.033970	0.033637
H151	H	0.614589	-0.423288	-0.423722
H152	H	1.114589	0.076712	0.076278
H153	H	0.747667	-0.431774	-0.432180
H154	H	1.247667	0.068226	0.067820
H155	H	0.527868	-0.658468	-0.658226
H156	H	1.027868	-0.158468	-0.158226
H157	H	0.502944	-0.483442	-0.483694
H158	H	1.002944	0.016558	0.016306
