data_functionalizedCrystal
_audit_creation_method	'MofGen! by Chris Wilmer'
_symmetry_space_group_name_H-M	'P1'
_symmetry_Int_Tables_number	1
_symmetry_cell_setting	triclinic
loop_
_symmetry_equiv_pos_as_xyz
  x,y,z
_cell_length_a	12.594517
_cell_length_b	18.215405
_cell_length_c	18.215399
_cell_angle_alpha	90.030551
_cell_angle_beta	89.979999
_cell_angle_gamma	89.975315
loop_
_atom_site_label
_atom_site_type_symbol
_atom_site_fract_x
_atom_site_fract_y
_atom_site_fract_z
Zn1	Zn	1.627188	0.292996	-0.416106
Zn2	Zn	1.960521	0.626329	-0.082773
Zn3	Zn	2.293854	0.959662	0.250561
Zn4	Zn	1.627055	0.416067	-0.293034
Zn5	Zn	1.960389	0.749400	0.040299
Zn6	Zn	2.293722	1.082734	0.373633
Zn7	Zn	1.449196	0.293018	-0.293053
Zn8	Zn	1.782529	0.626352	0.040280
Zn9	Zn	2.115862	0.959685	0.373614
Zn10	Zn	1.449146	0.416025	-0.416059
Zn11	Zn	1.782480	0.749358	-0.082725
Zn12	Zn	2.115813	1.082691	0.250608
O13	O	1.538146	0.354526	-0.354563
O14	O	1.871480	0.687860	-0.021229
O15	O	2.204813	1.021193	0.312104
O16	O	1.776116	0.309330	-0.399792
O17	O	2.109449	0.642663	-0.066459
O18	O	2.442783	0.975996	0.266875
O19	O	1.603427	0.399772	-0.190052
O20	O	1.936760	0.733105	0.143281
O21	O	2.270094	1.066438	0.476614
O22	O	1.472883	0.190031	-0.309404
O23	O	1.806216	0.523364	0.023930
O24	O	2.139549	0.856698	0.357263
O25	O	1.776019	0.399750	-0.309372
O26	O	2.109352	0.733083	0.023962
O27	O	2.442685	1.066416	0.357295
O28	O	1.603653	0.190014	-0.399810
O29	O	1.936986	0.523348	-0.066477
O30	O	2.270319	0.856681	0.266856
O31	O	1.472754	0.309368	-0.190066
O32	O	1.806088	0.642702	0.143267
O33	O	2.139421	0.976035	0.476601
O34	O	1.300243	0.309327	-0.309358
O35	O	1.633577	0.642661	0.023975
O36	O	1.966910	0.975994	0.357309
O37	O	1.472799	0.399677	-0.519049
O38	O	1.806132	0.733011	-0.185716
O39	O	2.139465	1.066344	0.147618
O40	O	1.300207	0.399699	-0.399730
O41	O	1.633540	0.733033	-0.066396
O42	O	1.966874	1.066366	0.266937
O43	O	1.603605	0.309289	-0.519084
O44	O	1.936938	0.642622	-0.185751
O45	O	2.270272	0.975955	0.147583
O46	O	1.603379	0.519046	-0.309326
O47	O	1.936712	0.852379	0.024008
O48	O	2.270046	1.185712	0.357341
O49	O	1.472670	0.519015	-0.399711
O50	O	1.806004	0.852348	-0.066378
O51	O	2.139337	1.185681	0.266955
C52	C	1.538034	0.545733	-0.354527
C53	C	1.871367	0.879066	-0.021194
C54	C	2.204700	1.212399	0.312139
C55	C	1.538083	0.627532	-0.354537
C56	C	1.871416	0.960865	-0.021204
C57	C	2.204750	1.294198	0.312130
C58	C	1.261605	0.354512	-0.354541
C59	C	1.594939	0.687845	-0.021208
C60	C	1.928272	1.021178	0.312126
C61	C	1.143300	0.354523	-0.354549
C62	C	1.476633	0.687856	-0.021216
C63	C	1.809966	1.021190	0.312117
C64	C	1.538211	0.354476	-0.546516
C65	C	1.871544	0.687809	-0.213182
C66	C	2.204878	1.021142	0.120151
C67	C	1.538239	0.354454	-0.628315
C68	C	1.871572	0.687787	-0.294981
C69	C	2.204905	1.021121	0.038352
C70	C	1.074036	0.305303	-0.305490
C71	C	1.407369	0.638636	0.027843
C72	C	1.740702	0.971969	0.361177
C73	C	1.003210	0.372431	-0.287381
C74	C	1.336544	0.705764	0.045952
C75	C	1.669877	1.039097	0.379286
C76	C	1.003326	0.287428	-0.372671
C77	C	1.336659	0.620761	-0.039337
C78	C	1.669993	0.954095	0.293996
C79	C	1.074033	0.421686	-0.336405
C80	C	1.407366	0.755020	-0.003072
C81	C	1.740699	1.088353	0.330261
C82	C	1.074155	0.336639	-0.421726
C83	C	1.407488	0.669972	-0.088393
C84	C	1.740822	1.003305	0.244940
C85	C	1.003362	0.403813	-0.403643
C86	C	1.336695	0.737146	-0.070310
C87	C	1.670028	1.070480	0.263024
C88	C	1.815767	0.354542	-0.354585
C89	C	2.149100	0.687875	-0.021252
C90	C	2.482434	1.021208	0.312082
C91	C	1.934072	0.354548	-0.354594
C92	C	2.267406	0.687882	-0.021261
C93	C	2.600739	1.021215	0.312072
C94	C	1.538288	0.162574	-0.354614
C95	C	1.871621	0.495907	-0.021281
C96	C	2.204955	0.829240	0.312052
C97	C	1.538348	0.080775	-0.354636
C98	C	1.871682	0.414108	-0.021303
C99	C	2.205015	0.747441	0.312030
C100	C	1.606303	0.815717	-0.307560
C101	C	1.939636	1.149051	0.025774
C102	C	2.272970	1.482384	0.359107
C103	C	1.606351	0.892576	-0.307578
C104	C	1.939684	1.225909	0.025756
C105	C	2.273017	1.559243	0.359089
C106	C	1.470126	0.892584	-0.401619
C107	C	1.803459	1.225917	-0.068285
C108	C	2.136792	1.559250	0.265048
C109	C	1.470084	0.815726	-0.401604
C110	C	1.803417	1.149060	-0.068271
C111	C	2.136751	1.482393	0.265063
C112	C	1.538171	0.777295	-0.354570
C113	C	1.871505	1.110628	-0.021237
C114	C	2.204838	1.443962	0.312096
C115	C	1.538260	0.931011	-0.354603
C116	C	1.871594	1.264344	-0.021270
C117	C	2.204927	1.597678	0.312064
C118	C	1.538311	1.014345	-0.354623
C119	C	1.871645	1.347678	-0.021289
C120	C	2.204978	1.681011	0.312044
C121	C	1.538122	0.693956	-0.354552
C122	C	1.871455	1.027290	-0.021218
C123	C	2.204789	1.360623	0.312115
C124	C	1.606374	0.307345	-0.816528
C125	C	1.939707	0.640678	-0.483195
C126	C	2.273041	0.974011	-0.149861
C127	C	1.606387	0.307323	-0.893387
C128	C	1.939720	0.640657	-0.560054
C129	C	2.273053	0.973990	-0.226720
C130	C	1.470179	0.401450	-0.893339
C131	C	1.803512	0.734783	-0.560006
C132	C	2.136845	1.068116	-0.226673
C133	C	1.470161	0.401467	-0.816482
C134	C	1.803495	0.734800	-0.483149
C135	C	2.136828	1.068134	-0.149815
C136	C	1.538265	0.354415	-0.778078
C137	C	1.871598	0.687749	-0.444745
C138	C	2.204932	1.021082	-0.111412
C139	C	1.538295	0.354377	-0.931795
C140	C	1.871628	0.687710	-0.598461
C141	C	2.204962	1.021044	-0.265128
C142	C	1.538308	0.354354	-1.015128
C143	C	1.871642	0.687687	-0.681795
C144	C	2.204975	1.021021	-0.348462
C145	C	1.538251	0.354437	-0.694739
C146	C	1.871584	0.687771	-0.361406
C147	C	2.204917	1.021104	-0.028073
C148	C	1.538143	0.354524	-0.163357
C149	C	1.871476	0.687857	0.169977
C150	C	2.204810	1.021191	0.503310
C151	C	1.538321	0.354338	-0.081558
C152	C	1.871655	0.687672	0.251775
C153	C	2.204988	1.021005	0.585109
H154	H	1.105067	0.263719	-0.263951
H155	H	1.438400	0.597052	0.069383
H156	H	1.771734	0.930386	0.402716
C157	C	0.961371	0.210758	-0.393355
C158	C	1.294704	0.544092	-0.060022
C159	C	1.628037	0.877425	0.273311
N160	N	0.929775	0.153009	-0.408930
N161	N	1.263108	0.486343	-0.075597
N162	N	1.596441	0.819676	0.257737
C163	C	0.961105	0.392885	-0.210661
C164	C	1.294438	0.726218	0.122673
C165	C	1.627771	1.059551	0.456006
N166	N	0.929392	0.408285	-0.152874
N167	N	1.262725	0.741618	0.180460
N168	N	1.596058	1.074952	0.513793
H169	H	1.105341	0.321475	-0.478500
H170	H	1.438674	0.654809	-0.145167
H171	H	1.772007	0.988142	0.188166
H172	H	1.661745	0.784428	-0.269263
H173	H	1.995079	1.117762	0.064070
H174	H	2.328412	1.451095	0.397404
C175	C	1.681280	0.255580	-0.774287
C176	C	2.014614	0.588914	-0.440953
C177	C	2.347947	0.922247	-0.107620
N178	N	1.737699	0.216587	-0.742473
N179	N	2.071032	0.549920	-0.409139
N180	N	2.404365	0.883254	-0.075806
C181	C	1.395267	0.453202	-0.935591
C182	C	1.728600	0.786536	-0.602257
C183	C	2.061933	1.119869	-0.268924
N184	N	1.338841	0.492183	-0.967413
N185	N	1.672174	0.825516	-0.634080
N186	N	2.005508	1.158850	-0.300747
H187	H	1.414691	0.439797	-0.785175
H188	H	1.748025	0.773130	-0.451842
H189	H	2.081358	1.106464	-0.118509
C190	C	1.681314	0.255543	-0.935678
C191	C	2.014648	0.588876	-0.602345
C192	C	2.347981	0.922210	-0.269011
N193	N	1.737753	0.216540	-0.967531
N194	N	2.071087	0.549873	-0.634198
N195	N	2.404420	0.883207	-0.300865
C196	C	1.115813	0.498377	-0.315630
C197	C	1.449146	0.831710	0.017703
C198	C	1.782480	1.165043	0.351037
N199	N	1.147285	0.556138	-0.299979
N200	N	1.480618	0.889471	0.033354
N201	N	1.813951	1.222805	0.366688
H202	H	1.661832	0.923856	-0.269298
H203	H	1.995165	1.257189	0.064036
H204	H	2.328499	1.590523	0.397369
H205	H	1.414690	0.923884	-0.439911
H206	H	1.748023	1.257217	-0.106578
H207	H	2.081357	1.590550	0.226756
C208	C	1.395152	0.773459	-0.453337
C209	C	1.728485	1.106793	-0.120004
C210	C	2.061818	1.440126	0.213329
N211	N	1.338725	0.741624	-0.492308
N212	N	1.672058	1.074957	-0.158975
N213	N	2.005391	1.408290	0.174359
C214	C	0.961691	0.460124	-0.459714
C215	C	1.295024	0.793457	-0.126380
C216	C	1.628357	1.126791	0.206953
N217	N	0.930300	0.502540	-0.501942
N218	N	1.263633	0.835873	-0.168609
N219	N	1.596966	1.169207	0.164725
