data_functionalizedCrystal
_audit_creation_method	'MofGen! by Chris Wilmer'
_symmetry_space_group_name_H-M	'P1'
_symmetry_Int_Tables_number	1
_symmetry_cell_setting	triclinic
loop_
_symmetry_equiv_pos_as_xyz
  x,y,z
_cell_length_a	12.645331
_cell_length_b	16.994747
_cell_length_c	12.645323
_cell_angle_alpha	90.006372
_cell_angle_beta	90.022676
_cell_angle_gamma	90.010038
loop_
_atom_site_label
_atom_site_type_symbol
_atom_site_fract_x
_atom_site_fract_y
_atom_site_fract_z
Zn1	Zn	1.620780	-0.314043	0.599583
Zn2	Zn	1.620682	-0.445958	0.422380
Zn3	Zn	1.443495	-0.314070	0.422327
Zn4	Zn	1.443497	-0.445907	0.599595
O5	O	1.532114	-0.379995	0.510971
O6	O	1.769114	-0.331552	0.576093
O7	O	1.597136	-0.428496	0.274026
O8	O	1.467052	-0.203685	0.445813
O9	O	1.769043	-0.428470	0.445903
O10	O	1.597303	-0.203666	0.576042
O11	O	1.466957	-0.331598	0.273987
O12	O	1.295148	-0.331548	0.445825
O13	O	1.467056	-0.428382	0.747941
O14	O	1.295149	-0.428408	0.576063
O15	O	1.597305	-0.331503	0.747932
O16	O	1.597138	-0.556333	0.445915
O17	O	1.466961	-0.556295	0.576115
C18	C	1.256684	-0.379976	0.510941
C19	C	1.138854	-0.379987	0.510953
C20	C	1.532052	-0.584934	0.511019
C21	C	1.532060	-0.674257	0.511016
Zn22	Zn	1.443525	-0.945156	0.422297
Zn23	Zn	1.620827	-0.945108	0.599536
Zn24	Zn	1.443533	-0.813299	0.599577
Zn25	Zn	1.620702	-0.813214	0.422345
O26	O	1.532147	-0.879194	0.510939
O27	O	1.467094	-1.055531	0.445771
O28	O	1.597365	-0.927639	0.747889
O29	O	1.295185	-0.830846	0.576058
O30	O	1.597357	-1.055496	0.575987
O31	O	1.295179	-0.927721	0.445811
O32	O	1.467108	-0.830800	0.747919
O33	O	1.466986	-0.702907	0.576105
O34	O	1.597143	-0.830700	0.273992
O35	O	1.597151	-0.702844	0.445893
O36	O	1.466972	-0.927638	0.273956
O37	O	1.769158	-0.927556	0.576034
O38	O	1.769066	-0.830654	0.445853
C39	C	0.971253	-0.318772	0.429471
C40	C	1.093813	-0.318930	0.429113
C41	C	1.094346	-0.463080	0.480474
C42	C	0.971748	-0.462746	0.479918
C43	C	0.971701	-0.358899	0.623227
C44	C	1.094307	-0.357043	0.622603
C45	C	1.808619	-0.380014	0.511003
C46	C	1.926449	-0.380022	0.511016
C47	C	1.532192	-0.379934	0.787477
C48	C	1.532225	-0.379908	0.905307
C49	C	1.532180	-0.174254	0.510917
C50	C	1.532213	-0.084932	0.510895
C51	C	1.532097	-0.379998	0.235541
C52	C	1.532269	-0.379802	0.117712
C53	C	1.450032	-0.440567	1.072877
C54	C	1.450248	-0.440868	0.950317
C55	C	1.643928	-0.402468	0.949836
C56	C	1.643477	-0.402849	1.072435
C57	C	1.503771	-0.296348	1.072468
C58	C	1.501279	-0.296849	0.949862
C59	C	1.807577	-0.879092	0.510947
C60	C	1.925407	-0.879072	0.510981
C61	C	1.532043	-0.879165	0.234434
C62	C	1.531998	-0.879153	0.116603
C63	C	1.255642	-0.879299	0.510934
C64	C	1.137812	-0.879343	0.510932
C65	C	1.532175	-0.879268	0.786369
C66	C	1.531924	-0.879431	0.904198
C67	C	2.092957	-0.818263	0.428924
C68	C	1.970397	-0.818025	0.429121
C69	C	1.969907	-0.856576	0.622732
C70	C	2.092505	-0.856133	0.622301
C71	C	2.092617	-0.962524	0.482403
C72	C	1.970011	-0.962084	0.479892
C73	C	1.613524	-0.817954	-0.050938
C74	C	1.613912	-0.818134	0.071622
C75	C	1.562351	-0.962256	0.072094
C76	C	1.562878	-0.961900	-0.050504
C77	C	1.419713	-0.857974	-0.050607
C78	C	1.420369	-0.856139	0.072000
H79	H	1.123904	-0.257313	0.448212
H80	H	1.940765	-0.899498	0.685566
N81	N	1.727276	-0.345709	0.911209
H82	H	1.798434	-0.361339	0.940801
H83	H	1.709064	-0.290755	0.935546
N84	N	0.932495	-0.525252	0.555148
H85	H	0.888213	-0.564747	0.515100
H86	H	0.888189	-0.499932	0.612208
N87	N	2.132021	-0.836670	0.318850
H88	H	2.108108	-0.891193	0.297888
H89	H	2.211807	-0.834147	0.317616
H90	H	1.643469	-0.980537	0.102819
N91	N	2.131821	-0.912250	0.706124
H92	H	2.105001	-0.894918	0.777650
H93	H	2.211688	-0.912375	0.706400
H94	H	2.123536	-0.983011	0.402335
H95	H	1.123093	-0.332892	0.345958
H96	H	1.124971	-0.398400	0.686606
N97	N	1.132853	-0.276048	0.653046
H98	H	1.175175	-0.279478	0.720641
H99	H	1.070190	-0.240137	0.664066
H100	H	1.123523	-0.509936	0.538005
N101	N	1.929250	-0.776660	0.655423
H102	H	1.882017	-0.754914	0.598016
H103	H	1.990943	-0.739891	0.666938
H104	H	1.941074	-0.756192	0.448076
H105	H	1.469062	-0.502736	0.921029
H106	H	2.123770	-0.756781	0.447668
N107	N	0.933331	-0.417976	0.703730
H108	H	0.958104	-0.472336	0.683051
H109	H	0.853519	-0.417007	0.706378
H110	H	0.941780	-0.256969	0.448366
N111	N	1.340543	-0.422133	0.910424
H112	H	1.291607	-0.413609	0.972480
H113	H	1.313691	-0.467409	0.866181
N114	N	1.588620	-0.736067	-0.089982
H115	H	1.574212	-0.700505	-0.027634
H116	H	1.524194	-0.737912	-0.137147
H117	H	1.366956	-0.426585	1.102344
H118	H	1.125005	-0.481301	0.399323
N119	N	1.335522	-0.910891	0.112534
H120	H	1.332924	-0.908148	0.192277
H121	H	1.352100	-0.966515	0.089833
H122	H	1.358887	-0.902548	-0.079621
H123	H	1.696160	-0.831796	-0.081752
H124	H	1.940928	-0.979048	0.397653
N125	N	1.929442	-1.025310	0.553303
H126	H	1.881363	-1.000929	0.608001
H127	H	1.991120	-1.051575	0.589765
H128	H	2.121617	-1.007827	0.542229
N129	N	1.724037	-0.836699	0.110476
H130	H	1.772518	-0.844802	0.047962
H131	H	1.722199	-0.886174	0.154675
N132	N	2.130410	-0.775333	0.654438
H133	H	2.103509	-0.762645	0.727675
H134	H	2.102835	-0.735028	0.602627
H135	H	1.594893	-0.756513	0.101716
N136	N	1.671478	-0.985714	-0.088402
H137	H	1.718560	-0.996339	-0.025468
H138	H	1.702776	-0.941850	-0.132254
H139	H	0.943105	-0.480659	0.397887
N140	N	1.392396	-0.274305	0.911301
H141	H	1.396943	-0.224015	0.868993
H142	H	1.344127	-0.266132	0.973958
N143	N	1.487560	-1.024358	-0.089829
H144	H	1.454166	-1.052001	-0.027520
H145	H	1.527623	-1.063810	-0.134113
N146	N	1.486072	-1.024291	0.110674
H147	H	1.430975	-0.999062	0.157490
H148	H	1.525961	-1.065458	0.152229
N149	N	1.383075	-0.779090	-0.091547
H150	H	1.438827	-0.756282	-0.139813
H151	H	1.370956	-0.742263	-0.030047
N152	N	1.390051	-0.775123	0.110506
H153	H	1.448372	-0.753413	0.156656
H154	H	1.322436	-0.778564	0.152738
N155	N	0.930000	-0.337014	0.320108
H156	H	0.953055	-0.391630	0.298675
H157	H	0.958972	-0.297369	0.268152
N158	N	0.930799	-0.280038	0.659984
H159	H	0.851073	-0.281682	0.664228
H160	H	0.953165	-0.237971	0.608203
H161	H	1.667632	-0.463855	1.101072
N162	N	1.474734	-0.522010	1.113706
H163	H	1.471073	-0.522130	1.193492
H164	H	1.548129	-0.537724	1.090376
N165	N	1.727403	-0.346785	1.111734
H166	H	1.764531	-0.321935	1.049415
H167	H	1.780446	-0.376577	1.156040
H168	H	1.423734	-0.275783	1.103363
N169	N	1.676475	-0.482430	0.909223
H170	H	1.623191	-0.523102	0.932720
H171	H	1.748467	-0.496353	0.938327
N172	N	1.574817	-0.233702	0.909282
H173	H	1.629482	-0.258151	0.861228
H174	H	1.611312	-0.207441	0.970958
H175	H	1.563667	-0.251076	1.101462
H176	H	1.940310	-0.832096	0.346260
