data_functionalizedCrystal
_audit_creation_method	'MofGen! by Chris Wilmer'
_symmetry_space_group_name_H-M	'P1'
_symmetry_Int_Tables_number	1
_symmetry_cell_setting	triclinic
loop_
_symmetry_equiv_pos_as_xyz
  x,y,z
_cell_length_a	11.792254
_cell_length_b	19.188925
_cell_length_c	10.268362
_cell_angle_alpha	89.995070
_cell_angle_beta	89.995475
_cell_angle_gamma	83.670573
loop_
_atom_site_label
_atom_site_type_symbol
_atom_site_fract_x
_atom_site_fract_y
_atom_site_fract_z
O1	O	1.505464	0.095738	-0.108298
O2	O	2.005464	0.595738	0.391702
O3	O	1.174977	0.105591	-0.108301
O4	O	1.674977	0.605591	0.391699
O5	O	1.349761	-0.000937	-0.108292
O6	O	1.849761	0.499063	0.391708
O7	O	1.330680	0.202266	-0.108307
O8	O	1.830680	0.702266	0.391693
O9	O	1.349746	-0.000942	0.108309
O10	O	1.849746	0.499058	0.608309
O11	O	1.174962	0.105586	0.108300
O12	O	1.674962	0.605586	0.608300
O13	O	1.505449	0.095733	0.108303
O14	O	2.005449	0.595733	0.608303
Cu15	Cu	1.340204	0.100659	0.128079
Cu16	Cu	1.840204	0.600659	0.628079
Cu17	Cu	1.340222	0.100665	-0.128077
Cu18	Cu	1.840222	0.600665	0.371923
O19	O	1.330665	0.202261	0.108294
O20	O	1.830665	0.702261	0.608294
C21	C	1.132688	0.104968	-0.000001
C22	C	1.632688	0.604968	0.499999
C23	C	1.006703	0.103110	-0.000002
C24	C	1.506703	0.603110	0.499998
C25	C	0.904389	0.101601	-0.000007
C26	C	1.404389	0.601601	0.499993
C27	C	0.776031	0.099713	-0.000008
C28	C	1.276031	0.599713	0.499992
C29	C	1.349137	-0.026954	0.000007
C30	C	1.849137	0.473046	0.500007
C31	C	1.347285	-0.104470	0.000005
C32	C	1.847285	0.395530	0.500005
C33	C	1.437443	-0.665727	-0.000027
C34	C	1.937443	-0.165727	0.499973
C35	C	1.439193	-0.592893	-0.000016
C36	C	1.939193	-0.092893	0.499984
C37	C	1.336635	-0.548543	-0.000017
C38	C	1.836635	-0.048543	0.499983
C39	C	1.232320	-0.577031	0.000004
C40	C	1.732320	-0.077031	0.500004
C41	C	1.230573	-0.649863	0.000005
C42	C	1.730573	-0.149863	0.500005
N43	N	1.262393	-0.428283	-0.073743
N44	N	1.762393	0.071717	0.426257
N45	N	1.264059	-0.359097	-0.073747
N46	N	1.764059	0.140903	0.426253
C47	C	1.341892	-0.329104	-0.000018
C48	C	1.841892	0.170896	0.499982
N49	N	1.418013	-0.370913	0.073699
N50	N	1.918013	0.129087	0.573699
N51	N	1.416350	-0.440106	0.073697
N52	N	1.916350	0.059894	0.573697
C53	C	1.338518	-0.469568	-0.000017
C54	C	1.838518	0.030432	0.499983
C55	C	1.448098	-0.221650	-0.000016
C56	C	1.948098	0.278350	0.499984
C57	C	1.449844	-0.148815	0.000004
C58	C	1.949844	0.351185	0.500004
C59	C	1.242968	-0.132954	0.000010
C60	C	1.742968	0.367046	0.500010
C61	C	1.241225	-0.205787	0.000003
C62	C	1.741225	0.294213	0.500003
C63	C	1.343794	-0.250131	-0.000016
C64	C	1.843794	0.249869	0.499984
C65	C	1.547738	0.096356	-0.000000
C66	C	2.047738	0.596356	0.500000
C67	C	1.673723	0.098214	-0.000008
C68	C	2.173723	0.598214	0.499992
C69	C	1.331290	0.228278	-0.000008
C70	C	1.831290	0.728278	0.499992
C71	C	1.333141	0.305793	-0.000014
C72	C	1.833141	0.805793	0.499986
N73	N	1.340200	0.100655	0.308244
N74	N	1.840200	0.600655	0.808244
N75	N	1.340235	0.100663	-0.308243
N76	N	1.840235	0.600663	0.191757
C77	C	1.340216	0.100663	0.573915
C78	C	1.840216	0.600663	1.073915
C79	C	1.340204	0.100661	0.426077
C80	C	1.840204	0.600661	0.926077
H81	H	1.148817	-0.540916	0.000007
H82	H	1.648817	-0.040916	0.500007
C83	C	1.548922	-0.713754	0.000037
C84	C	2.048922	-0.213754	0.500037
C85	C	1.640640	-0.673217	0.000065
C86	C	2.140640	-0.173217	0.500065
C87	C	1.743351	-0.717437	0.000146
C88	C	2.243351	-0.217437	0.500146
H89	H	1.552709	-0.742510	-0.075473
H90	H	2.052709	-0.242510	0.424527
H91	H	1.552600	-0.742485	0.075604
H92	H	2.052600	-0.242485	0.575604
H93	H	1.636964	-0.644498	-0.075495
H94	H	2.136964	-0.144498	0.424505
H95	H	1.636891	-0.644462	0.075568
H96	H	2.136891	-0.144462	0.575568
H97	H	1.747029	-0.746169	0.075714
H98	H	2.247029	-0.246169	0.575714
H99	H	1.747126	-0.746191	-0.075364
H100	H	2.247126	-0.246191	0.424636
H101	H	1.805594	-0.689939	0.000177
H102	H	2.305594	-0.189939	0.500177
C103	C	1.552356	-0.561864	-0.000244
C104	C	2.052356	-0.061864	0.499756
C105	C	1.559371	-0.520496	-0.111669
C106	C	2.059371	-0.020496	0.388331
C107	C	1.663591	-0.491894	-0.111918
C108	C	2.163591	0.008106	0.388082
H109	H	1.613291	-0.598630	-0.000321
H110	H	2.113291	-0.098630	0.499679
H111	H	1.557351	-0.533743	0.075247
H112	H	2.057351	-0.033743	0.575247
H113	H	1.554388	-0.548616	-0.187140
H114	H	2.054388	-0.048616	0.312860
H115	H	1.498461	-0.483719	-0.111616
H116	H	1.998461	0.016281	0.388384
H117	H	1.668586	-0.463774	-0.036428
H118	H	2.168586	0.036226	0.463572
H119	H	1.724518	-0.528665	-0.111992
H120	H	2.224518	-0.028665	0.388008
H121	H	1.668360	-0.463819	-0.187512
H122	H	2.168360	0.036181	0.312488
C123	C	1.117209	-0.680653	-0.000058
C124	C	1.617209	-0.180653	0.499942
C125	C	1.027763	-0.626228	-0.000084
C126	C	1.527763	-0.126228	0.499916
C127	C	0.923316	-0.654566	-0.000163
C128	C	1.423316	-0.154566	0.499837
H129	H	1.112063	-0.708731	0.075452
H130	H	1.612063	-0.208731	0.575452
H131	H	1.112170	-0.708709	-0.075625
H132	H	1.612170	-0.208709	0.424375
H133	H	1.032799	-0.598183	0.075476
H134	H	1.532799	-0.098183	0.575476
H135	H	1.032871	-0.598145	-0.075588
H136	H	1.532871	-0.098145	0.424412
H137	H	0.918277	-0.682622	-0.075730
H138	H	1.418277	-0.182622	0.424270
H139	H	0.918182	-0.682644	0.075348
H140	H	1.418182	-0.182644	0.575348
H141	H	0.862614	-0.617643	-0.000192
H142	H	1.362614	-0.117643	0.499808
H143	H	1.531615	-0.257757	-0.000031
H144	H	2.031615	0.242243	0.499969
H145	H	1.156292	-0.228975	0.000004
H146	H	1.656292	0.271025	0.500004
C147	C	1.563209	-0.118026	-0.000072
C148	C	2.063209	0.381974	0.499928
C149	C	1.652653	-0.172453	-0.000123
C150	C	2.152653	0.327547	0.499877
C151	C	1.757102	-0.144117	-0.000209
C152	C	2.257102	0.355883	0.499791
H153	H	1.568356	-0.089960	0.075444
H154	H	2.068356	0.410040	0.575444
H155	H	1.568249	-0.089958	-0.075633
H156	H	2.068249	0.410042	0.424367
H157	H	1.647615	-0.200510	0.075431
H158	H	2.147615	0.299490	0.575431
H159	H	1.647544	-0.200524	-0.075633
H160	H	2.147544	0.299476	0.424367
H161	H	1.762142	-0.116048	-0.075771
H162	H	2.262142	0.383952	0.424229
H163	H	1.762236	-0.116051	0.075307
H164	H	2.262236	0.383949	0.575307
H165	H	1.817801	-0.181040	-0.000256
H166	H	2.317801	0.318960	0.499744
C167	C	1.131494	-0.084927	0.000078
C168	C	1.631494	0.415073	0.500078
C169	C	1.039774	-0.125462	0.000114
C170	C	1.539774	0.374538	0.500114
C171	C	0.937064	-0.081241	0.000201
C172	C	1.437064	0.418759	0.500201
H173	H	1.127714	-0.056165	-0.075433
H174	H	1.627714	0.443835	0.424567
H175	H	1.127812	-0.056201	0.075644
H176	H	1.627812	0.443799	0.575644
H177	H	1.043454	-0.154176	-0.075444
H178	H	1.543454	0.345824	0.424556
H179	H	1.043516	-0.154222	0.075619
H180	H	1.543516	0.345778	0.575619
H181	H	0.933382	-0.052515	0.075767
H182	H	1.433382	0.447485	0.575767
H183	H	0.933296	-0.052481	-0.075311
H184	H	1.433296	0.447519	0.424689
H185	H	0.874820	-0.108737	0.000238
H186	H	1.374820	0.391263	0.500238
