data_functionalizedCrystal
_audit_creation_method	'MofGen! by Chris Wilmer'
_symmetry_space_group_name_H-M	'P1'
_symmetry_Int_Tables_number	1
_symmetry_cell_setting	triclinic
loop_
_symmetry_equiv_pos_as_xyz
  x,y,z
_cell_length_a	23.532355
_cell_length_b	27.731996
_cell_length_c	22.610064
_cell_angle_alpha	89.998076
_cell_angle_beta	89.997644
_cell_angle_gamma	82.724443
loop_
_atom_site_label
_atom_site_type_symbol
_atom_site_fract_x
_atom_site_fract_y
_atom_site_fract_z
O1	O	0.755145	0.058554	-0.049112
O2	O	0.589257	0.067071	-0.049132
O3	O	0.677368	-0.007579	-0.049108
O4	O	0.667033	0.133204	-0.049135
O5	O	0.677353	-0.007568	0.049261
O6	O	0.589242	0.067082	0.049238
O7	O	0.755129	0.058565	0.049257
Zn8	Zn	0.672183	0.062825	0.064866
Zn9	Zn	0.672203	0.062811	-0.064740
O10	O	0.667018	0.133215	0.049234
C11	C	0.568033	0.066863	0.000051
C12	C	0.504816	0.066223	0.000044
C13	C	0.112803	0.062208	0.053690
C14	C	0.053405	0.061599	0.053693
O15	O	0.022680	0.061272	0.099295
N16	N	0.023706	0.061291	0.000072
C17	C	0.053409	0.061587	-0.053555
O18	O	0.022693	0.061269	-0.099163
C19	C	0.112806	0.062193	-0.053557
C20	C	0.142501	0.062505	0.000068
C21	C	0.142499	0.062520	0.107310
C22	C	0.201893	0.063130	0.107307
C23	C	0.231591	0.063427	0.053685
C24	C	0.201895	0.063115	0.000065
C25	C	0.142508	0.062485	-0.107183
C26	C	0.201910	0.063090	-0.107180
C27	C	0.231605	0.063403	-0.053556
C28	C	0.290987	0.064023	-0.053560
N29	N	0.320686	0.064330	0.000061
C30	C	0.290988	0.064033	0.053683
C31	C	-0.071330	0.060315	-0.053547
C32	C	-0.130727	0.059713	-0.053546
C33	C	-0.130726	0.059724	0.053702
C34	C	-0.071328	0.060329	0.053700
C35	C	-0.041631	0.060623	0.000074
C36	C	0.415719	0.065314	0.053674
C37	C	0.475118	0.065926	0.053666
C38	C	0.475112	0.065912	-0.053581
C39	C	0.415718	0.065303	-0.053574
C40	C	0.386024	0.065002	0.000058
O41	O	0.321750	0.064347	-0.099139
O42	O	0.321712	0.064345	0.099284
C43	C	0.677148	-0.025581	0.000078
C44	C	0.676509	-0.079238	0.000084
C45	C	0.672494	-0.411966	-0.053566
C46	C	0.670066	-0.613628	-0.053577
O47	O	0.669735	-0.639704	-0.099180
N48	N	0.669756	-0.638839	0.000044
C49	C	0.670049	-0.613632	0.053671
O50	O	0.669724	-0.639703	0.099278
C51	C	0.672473	-0.411971	0.053681
C52	C	0.672789	-0.386762	0.000057
C53	C	0.672809	-0.386758	-0.107186
C54	C	0.673419	-0.336346	-0.107183
C55	C	0.673714	-0.311142	-0.053560
C56	C	0.673399	-0.336350	0.000060
C57	C	0.672762	-0.386764	0.107307
C58	C	0.673367	-0.336345	0.107305
C59	C	0.673683	-0.311137	0.053681
C60	C	0.674304	-0.260735	0.053686
N61	N	0.674614	-0.235523	0.000066
C62	C	0.674319	-0.260727	-0.053557
C63	C	0.668777	-0.719507	0.053662
C64	C	0.668172	-0.769922	0.053659
C65	C	0.668188	-0.769914	-0.053589
C66	C	0.668797	-0.719499	-0.053586
C67	C	0.669087	-0.694295	0.000041
C68	C	0.675601	-0.154858	-0.053547
C69	C	0.676214	-0.104442	-0.053539
C70	C	0.676195	-0.104454	0.053709
C71	C	0.675586	-0.154866	0.053701
C72	C	0.675287	-0.180067	0.000069
O73	O	0.674630	-0.234627	0.099265
O74	O	0.674632	-0.234646	-0.099158
C75	C	0.671884	-0.462378	-0.053569
C76	C	0.671569	-0.487587	0.000050
C77	C	0.671864	-0.462383	0.053673
C78	C	0.670964	-0.538002	0.000048
C79	C	0.670669	-0.563205	-0.053575
C80	C	0.670979	-0.537994	-0.107195
C81	C	0.671589	-0.487582	-0.107192
C82	C	0.671554	-0.487595	0.107294
C83	C	0.670944	-0.538007	0.107286
C84	C	0.670649	-0.563210	0.053663
C85	C	0.776353	0.058772	0.000074
C86	C	0.839570	0.059412	0.000077
C87	C	0.667238	0.151217	0.000046
C88	C	0.667877	0.204874	0.000036
N89	N	0.672173	0.062835	0.153318
N90	N	0.672218	0.062797	-0.153192
C91	C	0.711221	0.029761	0.561970
C92	C	0.711224	0.029757	0.623890
O93	O	0.744399	0.001644	0.655917
N94	N	0.672203	0.062801	0.654855
C95	C	0.633173	0.095847	0.623898
O96	O	0.599983	0.123952	0.655922
C97	C	0.633168	0.095847	0.561979
C98	C	0.672195	0.062805	0.531017
C99	C	0.750244	-0.003279	0.531008
C100	C	0.750242	-0.003275	0.469092
C101	C	0.711216	0.029769	0.438139
C102	C	0.672193	0.062809	0.469101
C103	C	0.594135	0.128890	0.531022
C104	C	0.594133	0.128888	0.469099
C105	C	0.633160	0.095846	0.438137
C106	C	0.633164	0.095858	0.376232
N107	N	0.672185	0.062814	0.345267
C108	C	0.711211	0.029770	0.376220
C109	C	0.633186	0.095842	0.753931
C110	C	0.633194	0.095844	0.815849
C111	C	0.711244	0.029754	0.815837
C112	C	0.711239	0.029754	0.753918
C113	C	0.672207	0.062798	0.722966
C114	C	0.711203	0.029782	0.246193
C115	C	0.711199	0.029790	0.184271
C116	C	0.633147	0.095878	0.184289
C117	C	0.633153	0.095872	0.246205
C118	C	0.672183	0.062820	0.277155
O119	O	0.600004	0.123955	0.344165
O120	O	0.744391	0.001665	0.344188
H121	H	0.676472	-0.083920	-0.097208
O122	O	-0.162753	0.059367	-0.111383
H123	H	-0.132115	0.059668	-0.148667
O124	O	0.753306	-0.005864	0.279564
H125	H	0.729557	-0.029263	0.307773
H126	H	-0.047154	0.060558	-0.097219
O127	O	0.792328	-0.038920	0.435700
H128	H	0.819456	-0.061899	0.467634
O129	O	0.507147	0.066233	-0.111417
H130	H	0.501121	0.033161	-0.137120
O131	O	0.792348	-0.038916	0.564389
H132	H	0.819482	-0.061883	0.532446
O133	O	0.233935	0.063406	-0.165025
H134	H	0.266369	0.030728	-0.167586
O135	O	0.675281	-0.182035	-0.111392
H136	H	0.636168	-0.200494	-0.113969
O137	O	0.675253	-0.182065	0.111533
H138	H	0.636532	-0.167888	0.137241
O139	O	0.233909	0.063476	0.165150
H140	H	0.227886	0.030412	0.190873
O141	O	0.753326	-0.005888	0.720523
H142	H	0.780459	-0.028866	0.752456
H143	H	0.391538	0.065056	-0.097239
O144	O	0.753339	-0.005886	0.849232
H145	H	0.780480	-0.028861	0.817303
O146	O	0.507141	0.066268	0.111510
H147	H	0.539586	0.033598	0.114087
O148	O	0.591119	0.131497	0.849242
H149	H	0.563987	0.154476	0.817310
O150	O	0.591086	0.131483	0.720546
H151	H	0.614839	0.154871	0.692326
H152	H	0.601379	0.122782	0.271415
H153	H	0.562356	0.155796	0.556223
O154	O	0.552037	0.164532	0.435714
H155	H	0.524907	0.187508	0.467651
O156	O	0.672485	-0.413930	-0.165032
H157	H	0.711040	-0.441404	-0.167603
O158	O	0.673745	-0.309157	-0.165020
H159	H	0.673429	-0.335158	-0.202302
H160	H	0.391548	0.065073	0.097346
H161	H	0.667948	-0.790444	-0.097250
O162	O	0.110470	0.062204	0.165150
H163	H	0.141107	0.062528	0.202429
O164	O	-0.039301	0.060669	0.111536
H165	H	-0.069937	0.060360	0.148820
H166	H	0.601374	0.122784	0.159077
O167	O	0.673686	-0.309166	0.165149
H168	H	0.635129	-0.281694	0.167716
H169	H	0.669054	-0.698977	-0.097251
H170	H	-0.154917	0.059480	0.097364
H171	H	0.118340	0.062230	-0.150850
O172	O	0.667837	-0.797111	0.111496
H173	H	0.668137	-0.771109	0.148780
H174	H	0.669016	-0.698992	0.097333
H175	H	0.671846	-0.467061	-0.150858
H176	H	0.670741	-0.558524	-0.150857
O177	O	0.670602	-0.565194	0.165127
H178	H	0.670903	-0.539193	0.202411
O179	O	0.672416	-0.413945	0.165145
H180	H	0.672714	-0.387941	0.202426
O181	O	0.676512	-0.077266	0.111544
H182	H	0.676983	-0.037974	0.102532
H183	H	0.671795	-0.467079	0.150961
H184	H	0.742982	0.002883	0.159064
