data_functionalizedCrystal
_audit_creation_method	'MofGen! by Chris Wilmer'
_symmetry_space_group_name_H-M	'P1'
_symmetry_Int_Tables_number	1
_symmetry_cell_setting	triclinic
loop_
_symmetry_equiv_pos_as_xyz
  x,y,z
_cell_length_a	16.974800
_cell_length_b	23.532357
_cell_length_c	15.455313
_cell_angle_alpha	92.642146
_cell_angle_beta	90.973911
_cell_angle_gamma	83.110074
loop_
_atom_site_label
_atom_site_type_symbol
_atom_site_fract_x
_atom_site_fract_y
_atom_site_fract_z
O1	O	1.048489	0.072598	0.001487
O2	O	1.548489	0.572598	0.501487
O3	O	0.818986	0.081295	-0.014633
O4	O	1.318986	0.581295	0.485367
O5	O	0.940678	-0.005947	-0.006068
O6	O	1.440678	0.494053	0.493932
O7	O	0.926797	0.159840	-0.007078
O8	O	1.426797	0.659840	0.492922
O9	O	0.933719	-0.000979	0.137705
O10	O	1.433719	0.499021	0.637705
O11	O	0.812027	0.086264	0.129140
O12	O	1.312027	0.586264	0.629140
O13	O	1.041530	0.077566	0.145259
O14	O	1.541530	0.577566	0.645259
Cu15	Cu	0.926143	0.082369	0.150327
Cu16	Cu	1.426143	0.582369	0.650327
Cu17	Cu	0.934373	0.076493	-0.019700
Cu18	Cu	1.434373	0.576493	0.480300
O19	O	0.919838	0.164809	0.136694
O20	O	1.419838	0.664809	0.636694
C21	C	0.786151	0.083358	0.055192
C22	C	1.286151	0.583358	0.555192
C23	C	0.698679	0.082094	0.049049
C24	C	1.198679	0.582094	0.549049
C25	C	0.653796	0.084207	0.124536
C26	C	1.153796	0.584207	0.624536
C27	C	0.571609	0.083011	0.118766
C28	C	1.071609	0.583011	0.618766
C29	C	0.534306	0.079705	0.037510
C30	C	1.034306	0.579705	0.537510
C31	C	0.579195	0.077590	-0.037982
C32	C	1.079195	0.577590	0.462018
C33	C	0.661381	0.078782	-0.032212
C34	C	1.161381	0.578782	0.467788
C35	C	0.288913	0.075845	0.011848
C36	C	0.788913	0.575845	0.511848
C37	C	0.206720	0.074654	0.006084
C38	C	0.706720	0.574654	0.506084
C39	C	0.199140	0.080074	0.162833
C40	C	0.699140	0.580074	0.662833
C41	C	0.281328	0.081270	0.168596
C42	C	0.781328	0.581270	0.668596
C43	C	0.326210	0.079151	0.093104
C44	C	0.826210	0.579151	0.593104
N45	N	0.450297	0.078484	0.031610
N46	N	0.950297	0.578484	0.531610
N47	N	0.410218	0.080368	0.099004
N48	N	0.910218	0.580368	0.599004
C49	C	0.936851	-0.024681	0.065797
C50	C	1.436851	0.475319	0.565797
C51	C	0.935807	-0.087905	0.065732
C52	C	1.435807	0.412095	0.565732
C53	C	0.933048	-0.482664	-0.013146
C54	C	1.433048	0.017336	0.486854
C55	C	0.932056	-0.542069	-0.013220
C56	C	1.432056	-0.042069	0.486780
O57	O	0.934742	-0.575092	-0.079909
O58	O	1.434742	-0.075092	0.420091
N59	N	0.927770	-0.569075	0.065114
N60	N	1.427770	-0.069075	0.565114
C61	C	0.924469	-0.536671	0.143528
C62	C	1.424469	-0.036671	0.643528
O63	O	0.920732	-0.565097	0.210151
O64	O	1.420732	-0.065097	0.710151
C65	C	0.925456	-0.477267	0.143602
C66	C	1.425456	0.022733	0.643602
C67	C	0.929749	-0.450265	0.065262
C68	C	1.429749	0.049735	0.565262
C69	C	0.937340	-0.455662	-0.091478
C70	C	1.437340	0.044338	0.408522
C71	C	0.938334	-0.396261	-0.091403
C72	C	1.438334	0.103739	0.408597
C73	C	0.935035	-0.363862	-0.012995
C74	C	1.435035	0.136138	0.487005
C75	C	0.930743	-0.390864	0.065338
C76	C	1.430743	0.109136	0.565338
C77	C	0.922149	-0.444864	0.222014
C78	C	1.422149	0.055136	0.722014
C79	C	0.923135	-0.385455	0.222081
C80	C	1.423135	0.114545	0.722081
C81	C	0.927429	-0.358454	0.143742
C82	C	1.427429	0.141546	0.643742
C83	C	0.928438	-0.299064	0.143821
C84	C	1.428438	0.200936	0.643821
N85	N	0.932723	-0.272058	0.065486
N86	N	1.432723	0.227942	0.565486
C87	C	0.936022	-0.304457	-0.012922
C88	C	1.436022	0.195543	0.487078
C89	C	0.922396	-0.661425	0.143368
C90	C	1.422396	-0.161425	0.643368
C91	C	0.921415	-0.720829	0.143296
C92	C	1.421415	-0.220829	0.643296
C93	C	0.929000	-0.726223	-0.013453
C94	C	1.429000	-0.226223	0.486547
C95	C	0.929987	-0.666818	-0.013379
C96	C	1.429987	-0.166818	0.486621
C97	C	0.926681	-0.634420	0.065034
C98	C	1.426681	-0.134420	0.565034
C99	C	0.938109	-0.179710	-0.012758
C100	C	1.438109	0.320290	0.487242
C101	C	0.939105	-0.120304	-0.012676
C102	C	1.439105	0.379696	0.487324
C103	C	0.931516	-0.114916	0.144072
C104	C	1.431516	0.385084	0.644072
C105	C	0.930523	-0.174317	0.143990
C106	C	1.430523	0.325683	0.643990
C107	C	0.933818	-0.206713	0.065568
C108	C	1.433818	0.293287	0.565568
O109	O	0.925751	-0.266005	0.210475
O110	O	1.425751	0.233995	0.710475
O111	O	0.939748	-0.276023	-0.079534
O112	O	1.439748	0.223977	0.420466
C113	C	1.074365	0.075504	0.075433
C114	C	1.574365	0.575504	0.575433
C115	C	1.161837	0.076768	0.081570
C116	C	1.661837	0.576768	0.581570
C117	C	0.923665	0.183543	0.064828
C118	C	1.423665	0.683543	0.564828
C119	C	0.924710	0.246767	0.064887
C120	C	1.424710	0.746767	0.564887
N121	N	0.920361	0.086501	0.269916
N122	N	1.420361	0.586501	0.769916
N123	N	0.940161	0.072356	-0.139288
N124	N	1.440161	0.572356	0.360712
C125	C	0.972077	0.049451	0.318950
C126	C	1.472077	0.549451	0.818950
C127	C	0.967712	0.052581	0.409450
C128	C	1.467712	0.552581	0.909450
C129	C	0.911632	0.092765	0.450915
C130	C	1.411632	0.592765	0.950915
C131	C	0.859910	0.129816	0.401875
C132	C	1.359910	0.629816	0.901875
C133	C	0.864273	0.126683	0.311375
C134	C	1.364273	0.626683	0.811375
C135	C	0.892802	0.106274	0.721172
C136	C	1.392802	0.606274	1.221172
C137	C	0.888445	0.109406	0.811677
C138	C	1.388445	0.609406	1.311677
C139	C	0.996246	0.032170	0.819247
C140	C	1.496246	0.532170	1.319247
C141	C	1.000606	0.029043	0.728746
C142	C	1.500606	0.529043	1.228746
C143	C	0.948882	0.066092	0.679713
C144	C	1.448882	0.566092	1.179713
N145	N	0.907170	0.095966	0.543422
N146	N	1.407170	0.595966	1.043422
N147	N	0.953341	0.062887	0.587208
N148	N	1.453341	0.562887	1.087208
H149	H	0.311695	0.083958	0.234764
H150	H	0.811695	0.583958	0.734764
Br151	Br	0.941817	-0.499621	-0.197904
Br152	Br	1.441817	0.000379	0.302096
Br153	Br	0.783795	0.184348	0.458145
Br154	Br	1.283795	0.684348	0.958145
H155	H	1.009823	0.022412	0.449374
H156	H	1.509823	0.522412	0.949374
H157	H	0.931684	-0.752613	-0.077297
H158	H	1.431684	-0.252613	0.422703
H159	H	0.917931	-0.742810	0.207089
H160	H	1.417931	-0.242810	0.707089
Br161	Br	0.704413	0.088699	0.234818
Br162	Br	1.204413	0.588699	0.734818
Br163	Br	0.510698	0.085888	0.221217
Br164	Br	1.010698	0.585888	0.721217
H165	H	0.918654	-0.466838	0.285807
H166	H	1.418654	0.033162	0.785807
Br167	Br	0.935814	-0.630179	-0.119700
Br168	Br	1.435814	-0.130179	0.380300
H169	H	0.919707	-0.635050	0.207226
H170	H	1.419707	-0.135050	0.707226
Br171	Br	1.066439	-0.018110	0.885794
Br172	Br	1.566439	0.481890	1.385794
Br173	Br	0.812334	0.163948	0.867946
Br174	Br	1.312334	0.663948	1.367946
H175	H	0.548817	0.074895	-0.104143
H176	H	1.048817	0.574895	0.395857
Br177	Br	0.942579	-0.223667	-0.119190
Br178	Br	1.442579	0.276333	0.380810
H179	H	0.920431	-0.359078	0.285935
H180	H	1.420431	0.140922	0.785935
H181	H	0.927035	-0.196304	0.207781
H182	H	1.427035	0.303696	0.707781
Br183	Br	0.927041	-0.070935	0.250478
Br184	Br	1.427041	0.429065	0.750478
Br185	Br	0.794078	0.176963	0.244828
Br186	Br	1.294078	0.676963	0.744828
H187	H	1.017746	0.016732	0.285195
H188	H	1.517746	0.516732	0.785195
H189	H	0.850687	0.136443	0.681256
H190	H	1.350687	0.636443	1.181256
H191	H	1.046271	-0.003678	0.694987
H192	H	1.546271	0.496322	1.194987
H193	H	0.162588	0.081797	0.224294
H194	H	0.662588	0.581797	0.724294
Br195	Br	0.156093	0.070172	-0.104201
Br196	Br	0.656093	0.570172	0.395799
H197	H	0.325447	0.074118	-0.049623
H198	H	0.825447	0.574118	0.450377
H199	H	0.697924	0.077063	-0.093681
H200	H	1.197924	0.577063	0.406319
Br201	Br	0.944155	-0.359624	-0.197727
Br202	Br	1.444155	0.140376	0.302273
Br203	Br	0.944937	-0.083663	-0.119001
Br204	Br	1.444937	0.416337	0.380999
