data_functionalizedCrystal
_audit_creation_method	'MofGen! by Chris Wilmer'
_symmetry_space_group_name_H-M	'P1'
_symmetry_Int_Tables_number	1
_symmetry_cell_setting	triclinic
loop_
_symmetry_equiv_pos_as_xyz
  x,y,z
_cell_length_a	16.120566
_cell_length_b	16.120507
_cell_length_c	16.120297
_cell_angle_alpha	95.611825
_cell_angle_beta	90.125018
_cell_angle_gamma	90.176284
loop_
_atom_site_label
_atom_site_type_symbol
_atom_site_fract_x
_atom_site_fract_y
_atom_site_fract_z
Zn1	Zn	-1.224924	0.422253	0.554860
Zn2	Zn	-1.224800	0.554936	0.422159
Zn3	Zn	-1.093665	0.408169	0.408096
Zn4	Zn	-1.078798	0.554170	0.554084
O5	O	-1.155547	0.484882	0.484800
O6	O	-1.340942	0.446068	0.543467
O7	O	-1.213575	0.529894	0.303661
O8	O	-1.117351	0.293408	0.422004
O9	O	-1.340851	0.543550	0.445972
O10	O	-1.213786	0.303754	0.529831
O11	O	-1.117231	0.422065	0.293330
O12	O	-0.975659	0.421322	0.421252
O13	O	-1.092012	0.542244	0.670819
O14	O	-0.964736	0.528588	0.528508
O15	O	-1.199370	0.445325	0.671389
O16	O	-1.199159	0.671464	0.445219
O17	O	-1.091892	0.670901	0.542144
C18	C	-0.940111	0.473344	0.473270
C19	C	-0.847944	0.468429	0.468358
C20	C	-1.143920	0.701426	0.495143
C21	C	-1.139021	0.794069	0.499599
C22	C	-0.679194	0.459437	0.459397
C23	C	-0.632736	0.510399	0.510213
C24	C	-0.538838	0.505396	0.505226
C25	C	-0.773101	0.464439	0.464382
C26	C	-0.371825	0.496467	0.496361
C27	C	-0.463991	0.501409	0.501254
C28	C	-1.181032	1.005226	0.461813
C29	C	-1.130090	0.963687	0.507746
C30	C	-1.135061	0.869303	0.503212
C31	C	-1.176063	1.099618	0.466346
C32	C	-1.144046	0.495270	0.702191
C33	C	-1.139145	0.499696	0.794830
C34	C	-1.167209	1.267492	0.474421
C35	C	-1.172099	1.174848	0.469962
C36	C	-1.167054	0.474477	0.268254
C37	C	-1.172128	0.469824	0.175613
C38	C	-1.130167	0.507758	0.964440
C39	C	-1.181103	0.461765	1.006007
C40	C	-1.176108	0.466250	1.100385
C41	C	-1.135161	0.503273	0.870055
H42	H	-0.663482	0.557786	0.557463
Br43	Br	-0.627952	0.380458	0.380649
Br44	Br	-1.260057	0.390540	0.947191
H45	H	-1.082813	0.550500	0.999731
H46	H	-1.082744	0.999008	0.550475
H47	H	-1.228375	0.969908	0.419086
