data_functionalizedCrystal
_audit_creation_method	'MofGen! by Chris Wilmer'
_symmetry_space_group_name_H-M	'P1'
_symmetry_Int_Tables_number	1
_symmetry_cell_setting	triclinic
loop_
_symmetry_equiv_pos_as_xyz
  x,y,z
_cell_length_a	17.019282
_cell_length_b	23.532357
_cell_length_c	16.098538
_cell_angle_alpha	92.699547
_cell_angle_beta	91.140572
_cell_angle_gamma	83.109667
loop_
_atom_site_label
_atom_site_type_symbol
_atom_site_fract_x
_atom_site_fract_y
_atom_site_fract_z
O1	O	1.045799	0.072729	0.005763
O2	O	0.816901	0.081386	-0.010662
O3	O	0.938272	-0.005835	-0.001936
O4	O	0.924428	0.159950	-0.002963
O5	O	0.931182	-0.000760	0.136068
O6	O	0.809811	0.086461	0.127341
O7	O	1.038709	0.077804	0.143766
Zn8	Zn	0.923135	0.082938	0.157465
Zn9	Zn	0.932476	0.076252	-0.024360
O10	O	0.917338	0.165025	0.135040
C11	C	0.784078	0.083496	0.056239
C12	C	0.696837	0.082217	0.049980
C13	C	0.651991	0.084381	0.122267
C14	C	0.570021	0.083170	0.116388
C15	C	0.532897	0.079799	0.038221
C16	C	0.577749	0.077633	-0.034071
C17	C	0.659719	0.078840	-0.028191
C18	C	0.285596	0.076013	0.016705
C19	C	0.203620	0.074808	0.010831
C20	C	0.195897	0.080344	0.161290
C21	C	0.277868	0.081554	0.167163
C22	C	0.322714	0.079385	0.094871
C23	C	0.449110	0.078563	0.032210
C24	C	0.406500	0.080617	0.100883
C25	C	0.934381	-0.024516	0.067044
C26	C	0.933339	-0.087740	0.066977
C27	C	0.930669	-0.482558	-0.008762
C28	C	0.929680	-0.541964	-0.008838
O29	O	0.932428	-0.575036	-0.072853
N30	N	0.925324	-0.568911	0.066351
C31	C	0.921950	-0.536450	0.141620
O32	O	0.918154	-0.564826	0.205568
C33	C	0.922934	-0.477045	0.141695
C34	C	0.927298	-0.450101	0.066501
C35	C	0.935032	-0.455614	-0.083950
C36	C	0.936023	-0.396213	-0.083874
C37	C	0.932651	-0.363756	-0.008610
C38	C	0.928289	-0.390700	0.066577
C39	C	0.919554	-0.444584	0.216963
C40	C	0.920538	-0.385175	0.217031
C41	C	0.924902	-0.358231	0.141837
C42	C	0.925908	-0.298841	0.141917
N43	N	0.930264	-0.271894	0.066728
C44	C	0.933635	-0.304351	-0.008536
C45	C	0.919883	-0.661204	0.141458
C46	C	0.918904	-0.720608	0.141385
C47	C	0.926632	-0.726118	-0.009074
C48	C	0.927616	-0.666713	-0.009000
C49	C	0.924238	-0.634256	0.066269
C50	C	0.935717	-0.179604	-0.008370
C51	C	0.936711	-0.120197	-0.008287
C52	C	0.928978	-0.114693	0.142171
C53	C	0.927989	-0.174094	0.142089
C54	C	0.931355	-0.206548	0.066812
O55	O	0.923159	-0.265732	0.205900
O56	O	0.937420	-0.275966	-0.072473
C57	C	1.071533	0.075694	0.076864
C58	C	1.158774	0.076972	0.083117
C59	C	0.921230	0.183706	0.066059
C60	C	0.922272	0.246930	0.066120
N61	N	0.916765	0.087501	0.281556
N62	N	0.938851	0.071684	-0.148451
C63	C	0.968299	0.050494	0.328846
C64	C	0.963850	0.053692	0.415715
C65	C	0.907872	0.093899	0.455293
C66	C	0.856333	0.130908	0.407996
C67	C	0.860778	0.127707	0.321129
C68	C	0.891758	0.105492	0.717384
C69	C	0.887318	0.108691	0.804259
C70	C	0.994835	0.031474	0.811972
C71	C	0.999278	0.028279	0.725102
C72	C	0.947737	0.065286	0.677813
C73	C	0.903325	0.097170	0.544087
C74	C	0.952280	0.062012	0.589020
H75	H	0.938454	-0.206021	-0.069668
N76	N	0.914463	-0.748138	0.218187
N77	N	0.968456	-0.785827	0.238910
H78	H	0.965316	-0.805269	0.293153
H79	H	0.841731	0.141435	0.836478
N80	N	0.165687	0.071367	-0.069014
N81	N	0.113239	0.110184	-0.089633
H82	H	0.086448	0.107755	-0.146020
N83	N	0.932085	-0.639194	-0.085806
N84	N	0.989975	-0.652830	-0.132203
H85	H	0.993131	-0.633397	-0.186451
H86	H	0.696231	0.077079	-0.087055
N87	N	0.930087	-0.759288	-0.085949
N88	N	0.929211	-0.812327	-0.085995
H89	H	0.931656	-0.835756	-0.140284
N90	N	0.839122	0.143288	0.669071
N91	N	0.792964	0.123327	0.617126
H92	H	0.755790	0.150022	0.582998
N93	N	0.315799	0.084978	0.247004
N94	N	0.368249	0.046158	0.267605
H95	H	0.395042	0.048575	0.323992
H96	H	0.682210	0.087131	0.185918
H97	H	0.436730	0.083359	0.164525
N98	N	0.940486	-0.368697	-0.160684
N99	N	0.998371	-0.382337	-0.207087
H100	H	1.001522	-0.362908	-0.261339
N101	N	0.331385	0.073797	-0.057145
N102	N	0.298226	0.070789	-0.126930
H103	H	0.330567	0.069224	-0.179091
H104	H	0.818814	0.157841	0.282625
N105	N	0.539820	0.074184	-0.113910
N106	N	0.466633	0.073107	-0.119151
H107	H	0.439845	0.070672	-0.175539
H108	H	0.917775	-0.358750	0.278324
H109	H	0.810750	0.163644	0.440225
N110	N	0.925542	-0.081524	0.219041
N111	N	0.926426	-0.028486	0.219088
H112	H	0.923996	-0.005058	0.273378
H113	H	0.418875	0.075818	-0.031433
N114	N	0.941175	-0.092686	-0.085106
N115	N	0.944184	-0.121677	-0.152298
H116	H	0.947336	-0.102249	-0.206551
N117	N	0.923538	-0.201612	0.218903
N118	N	0.920529	-0.172622	0.286097
H119	H	0.917377	-0.192051	0.340349
H120	H	1.036796	0.001345	0.850482
H121	H	1.044860	-0.004461	0.692880
N122	N	0.938471	-0.488753	-0.160845
N123	N	0.942363	-0.464677	-0.227964
H124	H	0.944797	-0.488078	-0.282277
N125	N	0.916434	-0.628061	0.218356
N126	N	0.912545	-0.652134	0.285479
H127	H	0.910108	-0.628730	0.339789
H128	H	0.916002	-0.466511	0.278194
N129	N	1.025443	0.009389	0.288433
N130	N	1.071418	-0.023672	0.330669
H131	H	1.111760	-0.052718	0.302128
H132	H	0.533512	0.084923	0.175252
H133	H	1.005812	0.023558	0.454219
H134	H	0.997855	0.029273	0.556793
H135	H	0.857748	0.129908	0.576319
H136	H	0.159375	0.082109	0.220146
