data_functionalizedCrystal
_audit_creation_method	'MofGen! by Chris Wilmer'
_symmetry_space_group_name_H-M	'P1'
_symmetry_Int_Tables_number	1
_symmetry_cell_setting	triclinic
loop_
_symmetry_equiv_pos_as_xyz
  x,y,z
_cell_length_a	16.992694
_cell_length_b	15.944551
_cell_length_c	15.455313
_cell_angle_alpha	92.664316
_cell_angle_beta	87.142206
_cell_angle_gamma	87.083481
loop_
_atom_site_label
_atom_site_type_symbol
_atom_site_fract_x
_atom_site_fract_y
_atom_site_fract_z
O1	O	1.043832	0.174669	-0.072025
O2	O	1.543832	0.674669	0.427975
O3	O	0.815548	0.172714	-0.072051
O4	O	1.315548	0.672714	0.427949
O5	O	0.935924	0.051836	-0.072029
O6	O	1.435924	0.551836	0.427971
O7	O	0.923457	0.295548	-0.072046
O8	O	1.423457	0.795548	0.427954
O9	O	0.929040	0.058718	0.072232
O10	O	1.429040	0.558718	0.572232
O11	O	0.808664	0.179596	0.072210
O12	O	1.308664	0.679596	0.572210
O13	O	1.036949	0.181551	0.072236
O14	O	1.536949	0.681551	0.572236
Cu15	Cu	0.922178	0.181202	0.085395
Cu16	Cu	1.422178	0.681202	0.585395
Cu17	Cu	0.930319	0.173063	-0.085210
Cu18	Cu	1.430319	0.673063	0.414790
O19	O	0.916573	0.302430	0.072215
O20	O	1.416573	0.802430	0.572215
C21	C	0.782894	0.173641	0.000077
C22	C	1.282894	0.673641	0.500077
C23	C	0.695850	0.166141	0.000067
C24	C	1.195850	0.666141	0.500067
C25	C	0.645613	0.238506	0.000063
C26	C	1.145613	0.738506	0.500063
C27	C	0.563826	0.231454	0.000075
C28	C	1.063826	0.731454	0.500075
C29	C	0.532276	0.152037	0.000086
C30	C	1.032276	0.652037	0.500086
C31	C	0.582519	0.079667	0.000093
C32	C	1.082519	0.579667	0.500093
C33	C	0.664305	0.086719	0.000087
C34	C	1.164305	0.586719	0.500087
C35	C	0.288676	0.122807	0.000111
C36	C	0.788676	0.622807	0.500111
C37	C	0.206884	0.115760	0.000115
C38	C	0.706884	0.615760	0.500115
C39	C	0.188196	0.267548	0.000099
C40	C	0.688196	0.767548	0.500099
C41	C	0.269984	0.274593	0.000087
C42	C	0.769984	0.774593	0.500087
C43	C	0.320220	0.202223	0.000099
C44	C	0.820220	0.702223	0.500099
N45	N	0.448677	0.144827	0.000096
N46	N	0.948677	0.644827	0.500096
N47	N	0.403817	0.209434	0.000095
N48	N	0.903817	0.709434	0.500095
C49	C	0.931964	0.023948	0.000101
C50	C	1.431964	0.523948	0.500101
C51	C	0.930413	-0.069402	0.000102
C52	C	1.430413	0.430598	0.500102
C53	C	0.852089	-0.289513	0.000081
C54	C	1.352089	0.210487	0.500081
C55	C	0.885066	-0.344697	0.071214
C56	C	1.385066	0.155303	0.571214
C57	C	0.927606	-0.240317	0.000095
C58	C	1.427606	0.259683	0.500095
C59	C	0.891871	-0.351465	-0.071016
C60	C	1.391871	0.148535	0.428984
C61	C	0.924889	-0.405412	0.000084
C62	C	1.424889	0.094588	0.500084
C63	C	0.960600	-0.294269	0.071287
C64	C	1.460600	0.205731	0.571287
C65	C	0.967397	-0.301034	-0.071007
C66	C	1.467397	0.198966	0.428993
C67	C	1.000428	-0.356196	0.000144
C68	C	1.500428	0.143804	0.500144
C69	C	0.929168	-0.145209	0.000101
C70	C	1.429168	0.354791	0.500101
C71	C	0.923332	-0.500518	0.000084
C72	C	1.423332	-0.000518	0.500084
C73	C	1.069603	0.180624	0.000107
C74	C	1.569603	0.680624	0.500107
C75	C	1.156647	0.188124	0.000110
C76	C	1.656647	0.688124	0.500110
C77	C	0.920532	0.330318	0.000082
C78	C	1.420532	0.830318	0.500082
C79	C	0.922084	0.423668	0.000076
C80	C	1.422084	0.923668	0.500076
N81	N	0.916458	0.186926	0.205390
N82	N	1.416458	0.686926	0.705390
N83	N	0.936045	0.167333	-0.205204
N84	N	1.436045	0.667333	0.294796
C85	C	0.967616	0.135594	0.250793
C86	C	1.467616	0.635594	0.750793
C87	C	0.963297	0.139932	0.341600
C88	C	1.463297	0.639932	0.841600
C89	C	0.907824	0.195606	0.387002
C90	C	1.407824	0.695606	0.887002
C91	C	0.856661	0.246940	0.341593
C92	C	1.356661	0.746940	0.841593
C93	C	0.860976	0.242598	0.250787
C94	C	1.360976	0.742598	0.750787
C95	C	0.889197	0.214325	0.658581
C96	C	1.389197	0.714325	1.158581
C97	C	0.884887	0.218665	0.749392
C98	C	1.384887	0.718665	1.249392
C99	C	0.991523	0.111655	0.749393
C100	C	1.491523	0.611655	1.249393
C101	C	0.995836	0.107321	0.658586
C102	C	1.495836	0.607321	1.158586
C103	C	0.944671	0.158653	0.613185
C104	C	1.444671	0.658653	1.113185
N105	N	0.903410	0.200042	0.479822
N106	N	1.403410	0.700042	0.979822
N107	N	0.949081	0.154211	0.520367
N108	N	1.449081	0.654211	1.020367
H109	H	0.789404	-0.260406	0.000145
H110	H	1.289404	0.239594	0.500145
H111	H	1.012791	0.090262	0.213832
H112	H	1.512791	0.590262	0.713832
H113	H	0.850256	-0.364079	0.131345
H114	H	1.350256	0.135921	0.631345
O115	O	0.337357	0.052422	0.000080
O116	O	0.837357	0.552422	0.500080
C117	C	0.291969	-0.019181	0.000110
C118	C	0.791969	0.480819	0.500110
H119	H	0.232231	-0.003259	-0.027204
H120	H	0.732231	0.496741	0.472796
H121	H	0.324127	-0.072224	-0.041766
H122	H	0.824127	0.427776	0.458234
H123	H	0.282847	-0.039961	0.069322
H124	H	0.782847	0.460039	0.569322
O125	O	0.551746	0.002583	0.000066
O126	O	1.051746	0.502583	0.500066
C127	C	0.468787	0.011874	0.000090
C128	C	0.968787	0.511874	0.500090
H129	H	0.450883	0.074831	-0.027227
H130	H	0.950883	0.574831	0.472773
H131	H	0.445666	-0.041274	-0.041786
H132	H	0.945666	0.458726	0.458214
H133	H	0.442727	0.009579	0.069301
H134	H	0.942727	0.509579	0.569301
H135	H	0.181200	0.051085	0.000123
H136	H	0.681200	0.551085	0.500123
H137	H	0.847537	0.256123	0.621622
H138	H	1.347537	0.756123	1.121622
H139	H	0.671294	0.303176	0.000054
H140	H	1.171294	0.803176	0.500054
H141	H	0.522926	0.290381	0.000071
H142	H	1.022926	0.790381	0.500071
H143	H	0.295665	0.339262	0.000069
H144	H	0.795665	0.839262	0.500069
O145	O	1.009004	-0.277842	-0.142652
O146	O	1.509004	0.222158	0.357348
C147	C	1.073980	-0.232803	-0.117149
C148	C	1.573980	0.267197	0.382851
H149	H	1.089494	-0.250040	-0.049062
H150	H	1.589494	0.249960	0.450938
H151	H	1.126749	-0.249497	-0.164355
H152	H	1.626749	0.250503	0.335645
H153	H	1.058240	-0.162455	-0.117408
H154	H	1.558240	0.337545	0.382592
H155	H	0.147286	0.326467	0.000091
H156	H	0.647286	0.826467	0.500091
O157	O	0.712997	0.016337	0.000048
O158	O	1.212997	0.516337	0.500048
C159	C	0.667615	-0.055271	0.000078
C160	C	1.167615	0.444729	0.500078
H161	H	0.607874	-0.039353	-0.027231
H162	H	1.107874	0.460647	0.472769
H163	H	0.699775	-0.108310	-0.041802
H164	H	1.199775	0.391690	0.458198
H165	H	0.658499	-0.076054	0.069290
H166	H	1.158499	0.423946	0.569290
O167	O	0.830959	0.272633	0.793598
O168	O	1.330959	0.772633	1.293598
C169	C	0.780090	0.226872	0.846127
C170	C	1.280090	0.726872	1.346127
H171	H	0.810679	0.163911	0.859728
H172	H	1.310679	0.663911	1.359728
H173	H	0.764659	0.264139	0.909981
H174	H	1.264659	0.764139	1.409981
H175	H	0.723801	0.215563	0.811150
H176	H	1.223801	0.715563	1.311150
O177	O	0.995165	-0.264539	0.143203
O178	O	1.495165	0.235461	0.643203
C179	C	0.951941	-0.287267	0.217982
C180	C	1.451941	0.212733	0.717982
H181	H	0.916996	-0.344500	0.201406
H182	H	1.416996	0.155500	0.701406
H183	H	0.994308	-0.303068	0.270507
H184	H	1.494308	0.196932	0.770507
H185	H	0.909568	-0.232613	0.242502
H186	H	1.409568	0.267387	0.742502
H187	H	0.811490	0.292268	0.378565
H188	H	1.311490	0.792268	0.878565
O189	O	0.857288	-0.381517	-0.142785
O190	O	1.357288	0.118483	0.357215
C191	C	0.911617	-0.436275	-0.192409
C192	C	1.411617	0.063725	0.307591
H193	H	0.958530	-0.461886	-0.148931
H194	H	1.458530	0.038114	0.351069
H195	H	0.879320	-0.490663	-0.222047
H196	H	1.379320	0.009337	0.277953
H197	H	0.940932	-0.400558	-0.246373
H198	H	1.440932	0.099442	0.253627
H199	H	1.004953	0.098132	0.378567
H200	H	1.504953	0.598132	0.878567
H201	H	1.063164	-0.385145	0.000191
H202	H	1.563164	0.114855	0.500191
H203	H	1.041007	0.061987	0.621621
H204	H	1.541007	0.561987	1.121621
H205	H	1.033179	0.069863	0.786368
H206	H	1.533179	0.569863	1.286368
H207	H	0.819318	0.284397	0.213821
H208	H	1.319318	0.784397	0.713821
