data_functionalizedCrystal
_audit_creation_method	'MofGen! by Chris Wilmer'
_symmetry_space_group_name_H-M	'P1'
_symmetry_Int_Tables_number	1
_symmetry_cell_setting	triclinic
loop_
_symmetry_equiv_pos_as_xyz
  x,y,z
_cell_length_a	13.897449
_cell_length_b	13.897448
_cell_length_c	11.169409
_cell_angle_alpha	89.964482
_cell_angle_beta	89.974584
_cell_angle_gamma	90.018519
loop_
_atom_site_label
_atom_site_type_symbol
_atom_site_fract_x
_atom_site_fract_y
_atom_site_fract_z
Zn1	Zn	1.474722	-0.383916	-0.678671
Zn2	Zn	1.724722	-0.133916	-0.428671
Zn3	Zn	1.974722	0.116084	-0.178671
Zn4	Zn	2.224722	0.366084	0.071329
Zn5	Zn	1.474610	-0.545252	-0.477977
Zn6	Zn	1.724610	-0.295252	-0.227977
Zn7	Zn	1.974610	-0.045252	0.022023
Zn8	Zn	2.224610	0.204748	0.272023
Zn9	Zn	1.313405	-0.383974	-0.477988
Zn10	Zn	1.563405	-0.133974	-0.227988
Zn11	Zn	1.813405	0.116026	0.022012
Zn12	Zn	2.063405	0.366026	0.272012
Zn13	Zn	1.313393	-0.545173	-0.678605
Zn14	Zn	1.563393	-0.295173	-0.428605
Zn15	Zn	1.813393	-0.045173	-0.178605
Zn16	Zn	2.063393	0.204827	0.071395
O17	O	1.394033	-0.464579	-0.578310
O18	O	1.644033	-0.214579	-0.328310
O19	O	1.894033	0.035421	-0.078310
O20	O	2.144033	0.285421	0.171690
O21	O	1.609689	-0.405326	-0.652071
O22	O	1.859689	-0.155326	-0.402071
O23	O	2.109689	0.094674	-0.152071
O24	O	2.359689	0.344674	0.097929
O25	O	1.453185	-0.523915	-0.310028
O26	O	1.703185	-0.273915	-0.060028
O27	O	1.953185	-0.023915	0.189972
O28	O	2.203185	0.226085	0.439972
O29	O	1.334856	-0.248985	-0.504642
O30	O	1.584856	0.001015	-0.254642
O31	O	1.834856	0.251015	-0.004642
O32	O	2.084856	0.501015	0.245358
O33	O	1.609607	-0.523858	-0.504622
O34	O	1.859607	-0.273858	-0.254622
O35	O	2.109607	-0.023858	-0.004622
O36	O	2.359607	0.226142	0.245378
O37	O	1.453375	-0.248942	-0.652083
O38	O	1.703375	0.001058	-0.402083
O39	O	1.953375	0.251058	-0.152083
O40	O	2.203375	0.501058	0.097917
O41	O	1.334748	-0.405426	-0.310037
O42	O	1.584748	-0.155426	-0.060037
O43	O	1.834748	0.094574	0.189963
O44	O	2.084748	0.344574	0.439963
O45	O	1.178422	-0.405349	-0.504578
O46	O	1.428422	-0.155349	-0.254578
O47	O	1.678422	0.094651	-0.004578
O48	O	1.928422	0.344651	0.245422
O49	O	1.334835	-0.523725	-0.846563
O50	O	1.584835	-0.273725	-0.596563
O51	O	1.834835	-0.023725	-0.346563
O52	O	2.084835	0.226275	-0.096563
O53	O	1.178413	-0.523781	-0.651969
O54	O	1.428413	-0.273781	-0.401969
O55	O	1.678413	-0.023781	-0.151969
O56	O	1.928413	0.226219	0.098031
O57	O	1.453363	-0.405250	-0.846612
O58	O	1.703363	-0.155250	-0.596612
O59	O	1.953363	0.094750	-0.346612
O60	O	2.203363	0.344750	-0.096612
O61	O	1.453172	-0.680223	-0.504558
O62	O	1.703172	-0.430223	-0.254558
O63	O	1.953172	-0.180223	-0.004558
O64	O	2.203172	0.069777	0.245442
O65	O	1.334727	-0.680165	-0.651958
O66	O	1.584727	-0.430165	-0.401958
O67	O	1.834727	-0.180165	-0.151958
O68	O	2.084727	0.069835	0.098042
C69	C	1.143418	-0.464564	-0.578268
C70	C	1.393418	-0.214564	-0.328268
C71	C	1.643418	0.035436	-0.078268
C72	C	1.893418	0.285436	0.171732
C73	C	1.036204	-0.464581	-0.578279
C74	C	1.286204	-0.214581	-0.328279
C75	C	1.536204	0.035419	-0.078279
C76	C	1.786204	0.285419	0.171721
C77	C	1.393962	-0.715193	-0.578275
C78	C	1.643962	-0.465193	-0.328275
C79	C	1.893962	-0.215193	-0.078275
C80	C	2.143962	0.034807	0.171725
C81	C	1.394020	-0.822407	-0.578301
C82	C	1.644020	-0.572407	-0.328301
C83	C	1.894020	-0.322407	-0.078301
C84	C	2.144020	-0.072407	0.171699
C85	C	0.949135	-0.464584	-0.578299
C86	C	1.199135	-0.214584	-0.328299
C87	C	1.449135	0.035416	-0.078299
C88	C	1.699135	0.285416	0.171701
C89	C	0.839902	-0.464591	-0.578335
C90	C	1.089902	-0.214591	-0.328335
C91	C	1.339902	0.035409	-0.078335
C92	C	1.589902	0.285409	0.171665
C93	C	1.394122	-1.018702	-0.578376
C94	C	1.644122	-0.768702	-0.328376
C95	C	1.894122	-0.518702	-0.078376
C96	C	2.144122	-0.268702	0.171624
C97	C	1.394063	-0.909470	-0.578338
C98	C	1.644063	-0.659470	-0.328338
C99	C	1.894063	-0.409470	-0.078338
C100	C	2.144063	-0.159470	0.171662
C101	C	1.645625	-0.464594	-0.578353
C102	C	1.895625	-0.214594	-0.328353
C103	C	2.145625	0.035406	-0.078353
C104	C	2.395625	0.285406	0.171647
C105	C	1.752839	-0.464601	-0.578371
C106	C	2.002839	-0.214601	-0.328371
C107	C	2.252839	0.035399	-0.078371
C108	C	2.502839	0.285399	0.171629
C109	C	1.394110	-0.464472	-0.891353
C110	C	1.644110	-0.214472	-0.641353
C111	C	1.894110	0.035528	-0.391353
C112	C	2.144110	0.285528	-0.141353
C113	C	1.394143	-0.464426	-1.024753
C114	C	1.644143	-0.214426	-0.774753
C115	C	1.894143	0.035574	-0.524753
C116	C	2.144143	0.285574	-0.274753
C117	C	1.394130	-0.212986	-0.578371
C118	C	1.644130	0.037014	-0.328371
C119	C	1.894130	0.287014	-0.078371
C120	C	2.144130	0.537014	0.171629
C121	C	1.394171	-0.105772	-0.578397
C122	C	1.644171	0.144228	-0.328397
C123	C	1.894171	0.394228	-0.078397
C124	C	2.144171	0.644228	0.171603
C125	C	1.394011	-0.464616	-0.266485
C126	C	1.644011	-0.214616	-0.016485
C127	C	1.894011	0.035384	0.233515
C128	C	2.144011	0.285384	0.483515
C129	C	1.394165	-0.464389	-0.133086
C130	C	1.644165	-0.214389	0.116914
C131	C	1.894165	0.035611	0.366914
C132	C	2.144165	0.285611	0.616914
