data_functionalizedCrystal
_audit_creation_method	'MofGen! by Chris Wilmer'
_symmetry_space_group_name_H-M	'P1'
_symmetry_Int_Tables_number	1
_symmetry_cell_setting	triclinic
loop_
_symmetry_equiv_pos_as_xyz
  x,y,z
_cell_length_a	13.635800
_cell_length_b	10.992421
_cell_length_c	10.992410
_cell_angle_alpha	88.168975
_cell_angle_beta	108.764651
_cell_angle_gamma	71.235237
loop_
_atom_site_label
_atom_site_type_symbol
_atom_site_fract_x
_atom_site_fract_y
_atom_site_fract_z
V1	V	2.057124	-0.177761	0.400575
O2	O	2.036188	0.008542	0.392968
O3	O	2.045913	-0.352470	0.397818
O4	O	2.045920	-0.175026	0.575288
O5	O	2.036181	-0.170129	0.214270
V6	V	2.295571	-0.155477	0.378294
O7	O	2.195024	-0.226642	0.449452
O8	O	2.382769	-0.106595	0.329417
O9	O	2.195178	0.019232	0.381051
O10	O	2.375205	-0.341780	0.385901
O11	O	2.375212	-0.163108	0.564599
O12	O	2.195172	-0.158211	0.203581
V13	V	2.557124	-0.177761	0.400575
O14	O	2.536188	0.008542	0.392968
O15	O	2.545913	-0.352470	0.397818
O16	O	2.545920	-0.175026	0.575288
O17	O	2.536181	-0.170129	0.214270
V18	V	2.795571	-0.155477	0.378294
O19	O	2.695024	-0.226642	0.449452
O20	O	2.882769	-0.106595	0.329417
O21	O	2.695178	0.019232	0.381051
O22	O	2.875205	-0.341780	0.385901
O23	O	2.875212	-0.163108	0.564599
O24	O	2.695172	-0.158211	0.203581
C25	C	1.971153	-0.395060	0.391494
C26	C	2.002717	-0.537887	0.390404
C27	C	1.936549	-0.733174	0.381618
C28	C	1.903508	-0.584530	0.382242
C29	C	2.038022	-0.576522	0.270588
C30	C	2.070140	-0.725065	0.269320
C31	C	2.135893	-0.763647	0.514935
C32	C	2.101366	-0.615133	0.517535
C33	C	1.971161	-0.168712	0.617873
C34	C	2.002728	-0.167632	0.760702
C35	C	2.101610	0.061816	0.387371
C36	C	2.059665	0.204641	0.388470
C37	C	2.101601	-0.164530	0.160989
C38	C	2.059653	-0.165603	0.018159
C39	C	2.471153	-0.395060	0.391494
C40	C	2.502717	-0.537887	0.390404
C41	C	1.936290	-0.157795	0.955826
C42	C	1.903515	-0.159451	0.807343
C43	C	2.101736	-0.294312	0.837793
C44	C	2.133893	-0.293192	0.986360
C45	C	2.072776	-0.047893	0.948352
C46	C	2.037422	-0.047293	0.799340
C47	C	2.436549	-0.733174	0.381618
C48	C	2.403508	-0.584530	0.382242
C49	C	2.538022	-0.576522	0.270588
C50	C	2.570140	-0.725065	0.269320
C51	C	2.635893	-0.763647	0.514935
C52	C	2.601366	-0.615133	0.517535
C53	C	2.471161	-0.168712	0.617873
C54	C	2.502728	-0.167632	0.760702
C55	C	2.601610	0.061816	0.387371
C56	C	2.559665	0.204641	0.388470
C57	C	2.601601	-0.164530	0.160989
C58	C	2.559653	-0.165603	0.018159
C59	C	2.436290	-0.157795	0.955826
C60	C	2.403515	-0.159451	0.807343
C61	C	2.601736	-0.294312	0.837793
C62	C	2.633893	-0.293192	0.986360
C63	C	2.572776	-0.047893	0.948352
C64	C	2.537422	-0.047293	0.799340
H65	H	1.874947	-0.558765	0.467855
H66	H	2.378653	-0.753734	0.290415
H67	H	1.923638	-0.779594	0.466700
F68	F	2.419667	-0.793854	0.492821
H69	H	2.224894	-0.304208	1.028990
F70	F	2.446144	-0.505632	0.147566
H71	H	2.329168	-0.532087	0.290964
F72	F	2.685299	-0.778507	0.269074
F73	F	2.366152	-0.271538	0.774892
F74	F	2.631757	-0.828375	0.633438
H75	H	2.176924	-0.304874	0.808989
H76	H	2.610838	-0.546286	0.271970
H77	H	2.576866	-0.591237	0.606180
F78	F	2.699257	-0.575655	0.535027
H79	H	2.158245	-0.765948	0.269130
H80	H	2.521319	0.048305	0.968721
F81	F	1.946144	-0.505632	0.147566
H82	H	2.014739	-0.742580	0.174188
H83	H	1.923821	-0.242371	1.003810
H84	H	2.725817	-0.804764	0.521215
F85	F	1.866152	-0.271538	0.774892
F86	F	2.005522	0.077845	0.974978
F87	F	2.306474	-0.040409	0.737632
H88	H	1.965795	0.046420	0.746991
F89	F	2.130292	-0.045338	0.756835
H90	H	2.423821	-0.242371	1.003810
H91	H	2.132723	-0.813163	0.605597
H92	H	2.377688	-0.066081	0.974664
H93	H	1.878653	-0.753734	0.290415
H94	H	2.126112	-0.382320	1.032621
H95	H	2.608478	-0.045805	0.766828
F96	F	2.623724	-0.409688	1.046831
H97	H	2.465795	0.046420	0.746991
H98	H	2.676924	-0.304874	0.808989
F99	F	2.071834	-0.411097	0.804315
H100	H	2.110838	-0.546286	0.271970
H101	H	2.724894	-0.304208	1.028990
F102	F	2.497730	-0.747962	0.144976
F103	F	1.806338	-0.515978	0.262935
F104	F	2.366166	-0.550848	0.494138
F105	F	2.189746	-0.053906	1.001736
H106	H	2.578855	-0.383659	0.812179
H107	H	2.662268	-0.052498	0.989193
H108	H	2.076866	-0.591237	0.606180
F109	F	2.253428	-0.817375	0.523137
F110	F	2.199257	-0.575655	0.535027
F111	F	1.806474	-0.040409	0.737632
H112	H	1.877688	-0.066081	0.974664
