data_functionalizedCrystal
_audit_creation_method	'MofGen! by Chris Wilmer'
_symmetry_space_group_name_H-M	'P1'
_symmetry_Int_Tables_number	1
_symmetry_cell_setting	triclinic
loop_
_symmetry_equiv_pos_as_xyz
  x,y,z
_cell_length_a	27.732048
_cell_length_b	19.188930
_cell_length_c	18.266242
_cell_angle_alpha	89.977082
_cell_angle_beta	89.998607
_cell_angle_gamma	97.106281
loop_
_atom_site_label
_atom_site_type_symbol
_atom_site_fract_x
_atom_site_fract_y
_atom_site_fract_z
O1	O	-0.060348	0.925764	-0.061104
O2	O	-0.068472	0.722401	-0.061052
O3	O	0.005968	0.830399	-0.061089
O4	O	-0.134787	0.817767	-0.061066
O5	O	0.005971	0.830381	0.060673
O6	O	-0.068468	0.722383	0.060710
O7	O	-0.060344	0.925746	0.060658
Zn8	Zn	-0.064405	0.824062	0.080017
Zn9	Zn	-0.064410	0.824086	-0.080410
O10	O	-0.134783	0.817749	0.060695
C11	C	-0.068207	0.696383	-0.000164
C12	C	-0.067417	0.618883	-0.000145
C13	C	-0.111096	0.573681	-0.000150
C14	C	-0.110354	0.500862	-0.000158
C15	C	-0.065931	0.473249	-0.000176
C16	C	-0.022246	0.518461	-0.000168
C17	C	-0.022990	0.591278	-0.000152
N18	N	-0.031976	0.365491	-0.041652
N19	N	-0.031273	0.296317	-0.041669
C20	C	-0.063689	0.253854	-0.000222
N21	N	-0.096842	0.283177	0.041233
N22	N	-0.097546	0.352357	0.041246
C23	C	-0.065120	0.394291	-0.000193
C24	C	-0.106566	0.129692	-0.000234
C25	C	-0.105822	0.056872	-0.000237
C26	C	-0.017714	0.074473	-0.000255
C27	C	-0.018459	0.147292	-0.000244
C28	C	-0.062886	0.174897	-0.000237
C29	C	-0.152793	0.818023	-0.000183
C30	C	-0.206450	0.818821	-0.000176
C31	C	-0.545086	0.760029	-0.000196
C32	C	-0.746754	0.762991	-0.000206
O33	O	-0.777846	0.709229	-0.000224
N34	N	-0.766074	0.827029	-0.000221
C35	C	-0.734973	0.890331	-0.000239
O36	O	-0.756033	0.944867	-0.000260
C37	C	-0.533305	0.887368	-0.000235
C38	C	-0.513989	0.823326	-0.000212
C39	C	-0.525769	0.695991	-0.000175
C40	C	-0.475354	0.695252	-0.000168
C41	C	-0.444257	0.758549	-0.000184
C42	C	-0.463574	0.822586	-0.000206
C43	C	-0.502205	0.950669	-0.000258
C44	C	-0.451785	0.949923	-0.000258
C45	C	-0.432469	0.885880	-0.000236
C46	C	-0.382063	0.885143	-0.000215
N47	N	-0.362743	0.821105	-0.000199
C48	C	-0.393841	0.757808	-0.000184
C49	C	-0.840852	0.891882	-0.000240
C50	C	-0.891268	0.892623	-0.000239
C51	C	-0.903046	0.765283	-0.000208
C52	C	-0.852629	0.764543	-0.000203
C53	C	-0.821532	0.827844	-0.000224
C54	C	-0.287967	0.756259	-0.000170
C55	C	-0.237548	0.755524	-0.000161
C56	C	-0.225774	0.882864	-0.000196
C57	C	-0.276189	0.883599	-0.000202
C58	C	-0.307284	0.820290	-0.000191
O59	O	-0.350943	0.938876	-0.000205
O60	O	-0.372771	0.703279	-0.000179
C61	C	-0.595500	0.760768	-0.000203
C62	C	-0.614817	0.824805	-0.000225
C63	C	-0.583720	0.888103	-0.000240
C64	C	-0.665234	0.825546	-0.000224
C65	C	-0.696331	0.762249	-0.000209
C66	C	-0.677011	0.698211	-0.000194
C67	C	-0.626597	0.697471	-0.000187
C68	C	-0.603039	0.952141	-0.000255
C69	C	-0.653454	0.952875	-0.000261
C70	C	-0.684551	0.889578	-0.000245
C71	C	0.023977	0.830125	-0.000212
C72	C	0.077635	0.829326	-0.000224
C73	C	-0.060609	0.951765	-0.000231
C74	C	-0.061399	1.029264	-0.000255
N75	N	-0.064402	0.824051	0.189503
N76	N	-0.064410	0.824102	-0.189897
C77	C	-0.031456	0.871887	0.227796
C78	C	-0.031454	0.871892	0.304441
C79	C	-0.064406	0.824066	0.342790
C80	C	-0.097354	0.776220	0.304489
C81	C	-0.097352	0.776213	0.227845
N82	N	-0.107196	0.814718	0.463131
N83	N	-0.107196	0.814729	0.535939
C84	C	-0.064413	0.824086	0.573713
N85	N	-0.021627	0.833444	0.535928
N86	N	-0.021628	0.833436	0.463113
C87	C	-0.064411	0.824069	0.425897
C88	C	-0.031462	0.871930	0.695112
C89	C	-0.031459	0.871929	0.771759
C90	C	-0.097363	0.776261	0.771805
C91	C	-0.097362	0.776258	0.695160
C92	C	-0.064412	0.824096	0.656818
H93	H	0.017109	0.184097	-0.000244
H94	H	-0.517923	1.002819	-0.000277
H95	H	-0.004625	0.910847	0.335624
H96	H	-0.221823	0.703371	-0.000139
H97	H	-0.313279	0.704707	-0.000162
H98	H	-0.124191	0.737308	0.663981
H99	H	-0.124181	0.737257	0.196667
H100	H	-0.004625	0.910838	0.196580
H101	H	-0.124183	0.737279	0.335717
H102	H	-0.147272	0.596152	-0.000146
H103	H	-0.141392	0.020068	-0.000237
H104	H	-0.426468	1.001472	-0.000280
H105	H	-0.004630	0.910880	0.663893
H106	H	-0.142741	0.152169	-0.000217
H107	H	-0.291917	0.935747	-0.000210
H108	H	-0.145923	0.464051	-0.000160
H109	H	-0.004628	0.910882	0.802937
H110	H	0.018456	0.051991	-0.000315
H111	H	0.013923	0.495974	-0.000193
H112	H	0.012580	0.628083	-0.000149
H113	H	-0.459632	0.643102	-0.000156
H114	H	-0.702340	0.646673	-0.000176
H115	H	-0.610875	0.645322	-0.000168
H116	H	-0.836905	0.712394	-0.000181
H117	H	-0.551084	0.644444	-0.000164
H118	H	-0.928375	0.713744	-0.000192
H119	H	-0.669176	1.005030	-0.000274
H120	H	-0.124191	0.737318	0.803029
H121	H	-0.906991	0.944773	-0.000246
H122	H	-0.815536	0.943433	-0.000256
H123	H	-0.200446	0.934399	-0.000205
H124	H	-0.577724	1.003686	-0.000269
