data_functionalizedCrystal
_audit_creation_method	'MofGen! by Chris Wilmer'
_symmetry_space_group_name_H-M	'P1'
_symmetry_Int_Tables_number	1
_symmetry_cell_setting	triclinic
loop_
_symmetry_equiv_pos_as_xyz
  x,y,z
_cell_length_a	15.297475
_cell_length_b	16.625546
_cell_length_c	15.296720
_cell_angle_alpha	99.642470
_cell_angle_beta	91.617114
_cell_angle_gamma	80.324704
loop_
_atom_site_label
_atom_site_type_symbol
_atom_site_fract_x
_atom_site_fract_y
_atom_site_fract_z
Zn1	Zn	1.253404	-0.627523	-0.726565
Zn2	Zn	1.278668	-0.743625	-0.580074
Zn3	Zn	1.132282	-0.582227	-0.554808
Zn4	Zn	1.106894	-0.735700	-0.701203
O5	O	1.192812	-0.672269	-0.640662
O6	O	1.379334	-0.665198	-0.728320
O7	O	1.280447	-0.706576	-0.454149
O8	O	1.148401	-0.475417	-0.577632
O9	O	1.397894	-0.750498	-0.620694
O10	O	1.237389	-0.508696	-0.703821
O11	O	1.172898	-0.587997	-0.435586
O12	O	1.006336	-0.580312	-0.553039
O13	O	1.105131	-0.736989	-0.827141
O14	O	0.987683	-0.693068	-0.660595
O15	O	1.212772	-0.657513	-0.845774
O16	O	1.255829	-0.855392	-0.596102
O17	O	1.129628	-0.849569	-0.685095
C18	C	0.965226	-0.630915	-0.601324
C19	C	0.867861	-0.613246	-0.584516
C20	C	0.554716	-0.798559	-0.760796
C21	C	0.646196	-0.815166	-0.776586
C22	C	0.701616	-0.764687	-0.728570
C23	C	0.665548	-0.697599	-0.664761
C24	C	0.574060	-0.680995	-0.648965
C25	C	0.720961	-0.647123	-0.616739
C26	C	0.684892	-0.580034	-0.552930
C27	C	0.593412	-0.563433	-0.537137
C28	C	0.537992	-0.613911	-0.585153
C29	C	0.812449	-0.663727	-0.632535
C30	C	0.831793	-0.546163	-0.520704
C31	C	0.740313	-0.529556	-0.504914
C32	C	1.192735	-0.881740	-0.640611
C33	C	1.192778	-0.971371	-0.640633
C34	C	1.192915	-1.299586	-0.640750
C35	C	1.192873	-1.208266	-0.640720
C36	C	1.192845	-1.135481	-0.640691
C37	C	1.192805	-1.044156	-0.640661
C38	C	1.421286	-0.713785	-0.680155
C39	C	1.518648	-0.731476	-0.696984
C40	C	1.153301	-0.701420	-0.869128
C41	C	1.136464	-0.713842	-0.966487
C42	C	1.192909	-0.461986	-0.640737
C43	C	1.192951	-0.372377	-0.640769
C44	C	1.313182	-0.583349	-1.279731
C45	C	1.329006	-0.571680	-1.188259
C46	C	1.280872	-0.607219	-1.132811
C47	C	1.216911	-0.654430	-1.168845
C48	C	1.201089	-0.666105	-1.260327
C49	C	1.168779	-0.689976	-1.113407
C50	C	1.104818	-0.737187	-1.149441
C51	C	1.088999	-0.748860	-1.240914
C52	C	1.137133	-0.713320	-1.296362
C53	C	1.184601	-0.678300	-1.021925
C54	C	1.072508	-0.761057	-1.002521
C55	C	1.056684	-0.772726	-1.093994
C56	C	1.232219	-0.643182	-0.413094
C57	C	1.249226	-0.630564	-0.315765
H58	H	0.876917	-0.505060	-0.481604
H59	H	1.293761	-0.597715	-1.058331
O60	O	0.994618	-0.818698	-1.128913
C61	C	1.017598	-0.899683	-1.109862
H62	H	1.062754	-0.899000	-1.049262
H63	H	1.053718	-0.941589	-1.169121
C64	C	0.877448	-0.933299	-1.165293
C65	C	0.932904	-0.932459	-1.090858
H66	H	0.825206	-0.953519	-1.153575
H67	H	0.861967	-0.878739	-1.178132
H68	H	0.907559	-0.968219	-1.214668
H69	H	0.902797	-0.897531	-1.041488
H70	H	0.948378	-0.987014	-1.078011
O71	O	1.246616	-0.632360	-0.986812
C72	C	1.205915	-0.564459	-0.925319
H73	H	1.141893	-0.579083	-0.900123
H74	H	1.190214	-0.507469	-0.958940
C75	C	1.347779	-0.529557	-0.877712
C76	C	1.269150	-0.547521	-0.846760
H77	H	1.386786	-0.519105	-0.829255
H78	H	1.375201	-0.575300	-0.919144
H79	H	1.334683	-0.482067	-0.905730
H80	H	1.282245	-0.595016	-0.818753
H81	H	1.241731	-0.501785	-0.805322
O82	O	1.025883	-0.795632	-0.948593
C83	C	1.084881	-0.850025	-0.904295
H84	H	1.153646	-0.831905	-0.902080
H85	H	1.088379	-0.916019	-0.941187
C86	C	0.967250	-0.867027	-0.811784
C87	C	1.051708	-0.844767	-0.809057
H88	H	0.946786	-0.863788	-0.753038
H89	H	0.927501	-0.830384	-0.841630
H90	H	0.970177	-0.922021	-0.842532
H91	H	1.048778	-0.789772	-0.778319
H92	H	1.091455	-0.881402	-0.779203
O93	O	1.391135	-0.525766	-1.153397
C94	C	1.430242	-0.496917	-1.221951
H95	H	1.383086	-0.495926	-1.280957
H96	H	1.495071	-0.539773	-1.243169
C97	C	1.507002	-0.410071	-1.115992
C98	C	1.449082	-0.408846	-1.188462
H99	H	1.518627	-0.355746	-1.095334
H100	H	1.480658	-0.429509	-1.069805
H101	H	1.561020	-0.445788	-1.133684
H102	H	1.395062	-0.373138	-1.170766
H103	H	1.475417	-0.389400	-1.234645
H104	H	1.352371	-0.554423	-1.324884
O105	O	1.121625	-0.724711	-1.385197
C106	C	1.054874	-0.774026	-1.405119
H107	H	1.012807	-0.769291	-1.343553
H108	H	1.086773	-0.841194	-1.427333
C109	C	1.047359	-0.749372	-1.555656
C110	C	0.995687	-0.743551	-1.480042
H111	H	1.010852	-0.730577	-1.601875
H112	H	1.092333	-0.716150	-1.542236
H113	H	1.073939	-0.805347	-1.574156
H114	H	0.969118	-0.687576	-1.461537
H115	H	0.950707	-0.776763	-1.493461
O116	O	0.681081	-0.880341	-0.838625
C117	C	0.612555	-0.921346	-0.877603
H118	H	0.546817	-0.876885	-0.869447
H119	H	0.608367	-0.976656	-0.843719
C120	C	0.712898	-1.006089	-0.986987
C121	C	0.632159	-0.951479	-0.976976
H122	H	0.724992	-1.024680	-1.048284
H123	H	0.759067	-0.978465	-0.960725
H124	H	0.709398	-1.052174	-0.958745
H125	H	0.635663	-0.905390	-1.005209
H126	H	0.585991	-0.979096	-1.003246
O127	O	0.500752	-0.847486	-0.807379
C128	C	0.412278	-0.818457	-0.779733
H129	H	0.404738	-0.750280	-0.749016
H130	H	0.394381	-0.855534	-0.728502
C131	C	0.359252	-0.912498	-0.897956
C132	C	0.349990	-0.828759	-0.860237
H133	H	0.320829	-0.918855	-0.947613
H134	H	0.418859	-0.932057	-0.916580
H135	H	0.344339	-0.943385	-0.855256
H136	H	0.364913	-0.797875	-0.902934
H137	H	0.290384	-0.809194	-0.841622
O138	O	1.026933	-0.794835	-1.275825
C139	C	1.049920	-0.875816	-1.256762
H140	H	1.095082	-0.875124	-1.196165
H141	H	1.086037	-0.917727	-1.316019
C142	C	0.909768	-0.909443	-1.312172
C143	C	0.965231	-0.908592	-1.237742
H144	H	0.857529	-0.929664	-1.300443
H145	H	0.894282	-0.854886	-1.325018
H146	H	0.939876	-0.944368	-1.361546
H147	H	0.935127	-0.873659	-1.188372
H148	H	0.980710	-0.963144	-1.224886
O149	O	0.705249	-0.464489	-0.442827
C150	C	0.662086	-0.493475	-0.377037
H151	H	0.690597	-0.561265	-0.376257
H152	H	0.588076	-0.487167	-0.392148
C153	C	0.641385	-0.358826	-0.286769
C154	C	0.676407	-0.442085	-0.285807
H155	H	0.650214	-0.327124	-0.230494
H156	H	0.670462	-0.339296	-0.331094
H157	H	0.579712	-0.353581	-0.299366
H158	H	0.738081	-0.447330	-0.273221
H159	H	0.647341	-0.461614	-0.241477
O160	O	0.449111	-0.597672	-0.569894
C161	C	0.414646	-0.517769	-0.587245
H162	H	0.460767	-0.498930	-0.634594
H163	H	0.409109	-0.471901	-0.522496
C164	C	0.265532	-0.541035	-0.571547
C165	C	0.322174	-0.517900	-0.629708
H166	H	0.208490	-0.541113	-0.597737
H167	H	0.288751	-0.594866	-0.559854
H168	H	0.260928	-0.502808	-0.517594
H169	H	0.326786	-0.556132	-0.683656
H170	H	0.298954	-0.464075	-0.641411
H171	H	0.776103	-0.778212	-0.741430
H172	H	0.564050	-0.508812	-0.485171
H173	H	0.841806	-0.718351	-0.684489
