data_functionalizedCrystal
_audit_creation_method	'MofGen! by Chris Wilmer'
_symmetry_space_group_name_H-M	'P1'
_symmetry_Int_Tables_number	1
_symmetry_cell_setting	triclinic
loop_
_symmetry_equiv_pos_as_xyz
  x,y,z
_cell_length_a	10.686220
_cell_length_b	25.639239
_cell_length_c	10.686551
_cell_angle_alpha	94.409472
_cell_angle_beta	89.691918
_cell_angle_gamma	94.420676
loop_
_atom_site_label
_atom_site_type_symbol
_atom_site_fract_x
_atom_site_fract_y
_atom_site_fract_z
Zn1	Zn	1.972159	-0.127472	0.562366
Zn2	Zn	2.472159	0.372528	1.062366
Zn3	Zn	1.955834	-0.222109	0.352592
Zn4	Zn	2.455834	0.277891	0.852592
Zn5	Zn	1.746264	-0.140848	0.368681
Zn6	Zn	2.246264	0.359152	0.868681
Zn7	Zn	1.762265	-0.221050	0.578370
Zn8	Zn	2.262265	0.278950	1.078370
O9	O	1.859130	-0.177870	0.465502
O10	O	2.359130	0.322130	0.965502
O11	O	2.145540	-0.134872	0.521108
O12	O	2.645540	0.365128	1.021108
O13	O	1.914505	-0.217371	0.179180
O14	O	2.414505	0.282629	0.679180
O15	O	1.776365	-0.065903	0.394409
O16	O	2.276365	0.434097	0.894409
O17	O	2.133546	-0.204401	0.366988
O18	O	2.633546	0.295599	0.866988
O19	O	1.942329	-0.056076	0.536709
O20	O	2.442329	0.443924	1.036709
O21	O	1.760535	-0.157668	0.191000
O22	O	2.260535	0.342332	0.691000
O23	O	1.572839	-0.156641	0.409928
O24	O	2.072839	0.343359	0.909928
O25	O	1.803636	-0.202595	0.751793
O26	O	2.303636	0.297405	1.251793
O27	O	1.584595	-0.215565	0.563985
O28	O	2.084595	0.284435	1.063985
O29	O	1.957844	-0.133844	0.740035
O30	O	2.457844	0.366156	1.240035
O31	O	1.930021	-0.295139	0.382506
O32	O	2.430021	0.204861	0.882506
O33	O	1.787807	-0.294361	0.548384
O34	O	2.287807	0.205639	1.048384
C35	C	1.533200	-0.187440	0.490440
C36	C	2.033200	0.312560	0.990440
C37	C	1.393768	-0.191545	0.501138
C38	C	1.893768	0.308455	1.001138
C39	C	1.858915	-0.313720	0.465461
C40	C	2.358915	0.186280	0.965461
C41	C	1.858941	-0.371833	0.465476
C42	C	2.358941	0.128167	0.965476
C43	C	1.933401	-0.732571	0.379250
C44	C	2.433401	-0.232571	0.879250
C45	C	1.933451	-0.787174	0.379263
C46	C	2.433451	-0.287174	0.879263
O47	O	1.996536	-0.815738	0.305904
O48	O	2.496536	-0.315738	0.805904
N49	N	1.859357	-0.814099	0.465568
N50	N	2.359357	-0.314099	0.965568
C51	C	1.785218	-0.786419	0.551874
C52	C	2.285218	-0.286419	1.051874
O53	O	1.722201	-0.814336	0.625286
O54	O	2.222201	-0.314336	1.125286
C55	C	1.785176	-0.731818	0.551866
C56	C	2.285176	-0.231818	1.051866
C57	C	1.859265	-0.704895	0.465547
C58	C	2.359265	-0.204895	0.965547
C59	C	2.007485	-0.705649	0.292939
C60	C	2.507485	-0.205649	0.792939
C61	C	2.007433	-0.651050	0.292925
C62	C	2.507433	-0.151050	0.792925
C63	C	1.933297	-0.623374	0.379222
C64	C	2.433297	-0.123374	0.879222
C65	C	1.859213	-0.650297	0.465533
C66	C	2.359213	-0.150297	0.965533
C67	C	1.711045	-0.704138	0.638177
C68	C	2.211045	-0.204138	1.138177
C69	C	1.711010	-0.649533	0.638162
C70	C	2.211010	-0.149533	1.138162
C71	C	1.785099	-0.622611	0.551843
C72	C	2.285099	-0.122611	1.051843
C73	C	1.785025	-0.568023	0.551816
C74	C	2.285025	-0.068023	1.051816
N75	N	1.859119	-0.541097	0.465510
N76	N	2.359119	-0.041097	0.965510
C77	C	1.933255	-0.568773	0.379213
C78	C	2.433255	-0.068773	0.879213
C79	C	1.785314	-0.901087	0.551887
C80	C	2.285314	-0.401087	1.051887
C81	C	1.785349	-0.955688	0.551890
C82	C	2.285349	-0.455688	1.051890
C83	C	1.933583	-0.956438	0.379280
C84	C	2.433583	-0.456438	0.879280
C85	C	1.933541	-0.901836	0.379272
C86	C	2.433541	-0.401836	0.879272
C87	C	1.859408	-0.874161	0.465581
C88	C	2.359408	-0.374161	0.965581
C89	C	1.933139	-0.454112	0.379189
C90	C	2.433139	0.045888	0.879189
C91	C	1.933077	-0.399509	0.379179
C92	C	2.433077	0.100491	0.879179
C93	C	1.784847	-0.398763	0.551793
C94	C	2.284847	0.101237	1.051793
C95	C	1.784904	-0.453362	0.551799
C96	C	2.284904	0.046638	1.051799
C97	C	1.859060	-0.481035	0.465493
C98	C	2.359060	0.018965	0.965493
O99	O	1.721976	-0.539424	0.625140
O100	O	2.221976	-0.039424	1.125140
O101	O	1.996274	-0.540849	0.305825
O102	O	2.496274	-0.040849	0.805825
C103	C	2.186333	-0.168263	0.440468
C104	C	2.686333	0.331737	0.940468
C105	C	2.325768	-0.164169	0.429800
C106	C	2.825768	0.335831	0.929800
C107	C	1.884346	-0.166610	0.792704
C108	C	2.384346	0.333390	1.292704
C109	C	1.895092	-0.161811	0.932138
C110	C	2.395092	0.338189	1.432138
C111	C	1.859383	-0.041486	0.465568
C112	C	2.359383	0.458514	0.965568
C113	C	1.859490	0.016632	0.465597
C114	C	2.359490	0.516632	0.965597
C115	C	1.834084	-0.189046	0.139567
C116	C	2.334084	0.310954	0.639567
C117	C	1.823582	-0.193690	0.000116
C118	C	2.323582	0.306310	0.500116
H119	H	1.993408	-0.377591	0.308884
H120	H	2.493408	0.122409	0.808884
H121	H	1.345309	-0.218129	0.570396
H122	H	1.845309	0.281871	1.070396
F123	F	1.985875	-0.121340	0.995497
F124	F	2.485875	0.378660	1.495497
H125	H	1.993527	-0.476637	0.308913
H126	H	2.493527	0.023363	0.808913
F127	F	1.389095	-0.129428	0.339267
F128	F	1.889095	0.370572	0.839267
H129	H	1.754142	-0.224655	0.951643
H130	H	2.254142	0.275345	1.451643
H131	H	2.067766	-0.629133	0.222640
H132	H	2.567766	-0.129133	0.722640
F133	F	2.012397	-0.873188	0.287401
F134	F	2.512397	-0.373188	0.787401
F135	F	2.086400	-0.735095	0.201084
F136	F	2.586400	-0.235095	0.701084
H137	H	1.993954	-0.978981	0.309016
H138	H	2.493954	-0.478981	0.809016
F139	F	1.706478	-0.984336	0.643749
F140	F	2.206478	-0.484336	1.143749
H141	H	1.724935	-0.878556	0.622167
H142	H	2.224935	-0.378556	1.122167
F143	F	1.632199	-0.732779	0.730061
F144	F	2.132199	-0.232779	1.230061
F145	F	1.632107	-0.620082	0.730030
F146	F	2.132107	-0.120082	1.230030
H147	H	1.724579	-0.475283	0.622091
H148	H	2.224579	0.024717	1.122091
F149	F	1.705954	-0.369299	0.643635
F150	F	2.205954	0.130701	1.143635
