data_functionalizedCrystal
_audit_creation_method	'MofGen! by Chris Wilmer'
_symmetry_space_group_name_H-M	'P1'
_symmetry_Int_Tables_number	1
_symmetry_cell_setting	triclinic
loop_
_symmetry_equiv_pos_as_xyz
  x,y,z
_cell_length_a	10.723024
_cell_length_b	18.266242
_cell_length_c	10.723024
_cell_angle_alpha	90.005133
_cell_angle_beta	84.467869
_cell_angle_gamma	90.008718
loop_
_atom_site_label
_atom_site_type_symbol
_atom_site_fract_x
_atom_site_fract_y
_atom_site_fract_z
O1	O	1.657196	0.060874	0.175029
O2	O	2.157196	0.560874	0.675029
O3	O	1.294044	0.060877	0.191783
O4	O	1.794044	0.560877	0.691783
O5	O	1.483997	0.060873	0.001830
O6	O	1.983997	0.560873	0.501830
O7	O	1.467244	0.060878	0.364982
O8	O	1.967244	0.560878	0.864982
O9	O	1.483964	-0.060889	0.001820
O10	O	1.983964	0.439111	0.501820
O11	O	1.294012	-0.060885	0.191772
O12	O	1.794012	0.439115	0.691772
O13	O	1.657164	-0.060888	0.175019
O14	O	2.157164	0.439112	0.675019
Zn15	Zn	1.475583	-0.080219	0.183394
Zn16	Zn	1.975583	0.419781	0.683394
Zn17	Zn	1.475625	0.080208	0.183408
Zn18	Zn	1.975625	0.580208	0.683408
O19	O	1.467211	-0.060884	0.364972
O20	O	1.967211	0.439116	0.864972
C21	C	1.247528	-0.000004	0.190558
C22	C	1.747528	0.499996	0.690558
C23	C	1.108974	-0.000003	0.186911
C24	C	1.608974	0.499997	0.686911
C25	C	0.917217	-0.000004	0.073603
C26	C	1.417217	0.499996	0.573603
C27	C	1.060420	-0.000005	0.077371
C28	C	1.560420	0.499995	0.577371
N29	N	1.475562	-0.189706	0.183384
N30	N	1.975562	0.310294	0.683384
C31	C	1.559702	-0.228016	0.099315
C32	C	2.059702	0.271984	0.599315
C33	C	1.559710	-0.304661	0.099309
C34	C	2.059710	0.195339	0.599309
C35	C	1.475590	-0.342993	0.183394
C36	C	1.975590	0.157007	0.683394
C37	C	1.391435	-0.304673	0.267470
C38	C	1.891435	0.195327	0.767470
C39	C	1.391421	-0.228030	0.267465
C40	C	1.891421	0.271970	0.767465
N41	N	1.460652	-0.463323	0.293680
N42	N	1.960652	0.036677	0.793680
N43	N	1.460672	-0.536132	0.293681
N44	N	1.960672	-0.036132	0.793681
C45	C	1.475625	-0.573915	0.183413
C46	C	1.975625	-0.073915	0.683413
N47	N	1.490582	-0.536140	0.073140
N48	N	1.990582	-0.036140	0.573140
N49	N	1.490567	-0.463326	0.073141
N50	N	1.990567	0.036674	0.573141
C51	C	1.475595	-0.426100	0.183409
C52	C	1.975595	0.073900	0.683409
C53	C	1.559778	-0.695333	0.099331
C54	C	2.059778	-0.195333	0.599331
C55	C	1.559777	-0.771979	0.099323
C56	C	2.059777	-0.271979	0.599323
C57	C	1.391509	-0.771989	0.267495
C58	C	1.891509	-0.271989	0.767495
C59	C	1.391503	-0.695345	0.267491
C60	C	1.891503	-0.195345	0.767491
C61	C	1.475645	-0.657021	0.183411
C62	C	1.975645	-0.157021	0.683411
C63	C	1.703680	-0.000005	0.176243
C64	C	2.203680	0.499995	0.676243
C65	C	1.842234	-0.000002	0.179891
C66	C	2.342234	0.499998	0.679891
C67	C	1.482762	-0.000008	-0.044675
C68	C	1.982762	0.499992	0.455325
C69	C	1.479114	-0.000005	-0.183229
C70	C	1.979114	0.499995	0.316771
N71	N	1.475656	0.189695	0.183408
N72	N	1.975656	0.689695	0.683408
C73	C	1.585401	-0.000005	-0.258212
C74	C	2.085401	0.499995	0.241788
C75	C	1.581634	-0.000002	-0.401415
C76	C	2.081634	0.499998	0.098585
C77	C	1.468447	-0.000002	0.411477
C78	C	1.968447	0.499998	0.911477
C79	C	1.472094	0.000000	0.550031
C80	C	1.972094	0.500000	1.050031
H81	H	1.124853	-0.000002	-0.013619
H82	H	1.624853	0.499998	0.486381
F83	F	1.353153	-0.000006	-0.365762
F84	F	1.853153	0.499994	0.134238
H85	H	1.385328	0.000000	-0.225051
H86	H	1.885328	0.500000	0.274949
F87	F	1.707991	-0.000001	-0.203554
F88	F	2.207991	0.499999	0.296446
H89	H	1.628290	-0.803172	0.030857
H90	H	2.128290	-0.303172	0.530857
F91	F	1.301865	-0.187255	0.356947
F92	F	1.801865	0.312745	0.856947
H93	H	0.875395	-0.000016	-0.020182
H94	H	1.375395	0.499984	0.479818
F95	F	0.896892	-0.000005	0.302481
F96	F	1.396892	0.499995	0.802481
H97	H	1.628211	-0.196816	0.030849
H98	H	2.128211	0.303184	0.530849
F99	F	1.024767	0.000004	0.305852
F100	F	1.524767	0.500004	0.805852
F101	F	1.301905	-0.345468	0.356956
F102	F	1.801905	0.154532	0.856956
F103	F	1.649267	-0.345441	0.009827
F104	F	2.149267	0.154559	0.509827
H105	H	1.628287	-0.664129	0.030863
H106	H	2.128287	-0.164129	0.530863
H107	H	1.323012	-0.803198	0.335953
H108	H	1.823012	-0.303198	0.835953
H109	H	1.322994	-0.664150	0.335953
H110	H	1.822994	-0.164150	0.835953
F111	F	1.700570	-0.000007	-0.485629
F112	F	2.200570	0.499993	0.014371
