data_functionalizedCrystal
_audit_creation_method	'MofGen! by Chris Wilmer'
_symmetry_space_group_name_H-M	'P1'
_symmetry_Int_Tables_number	1
_symmetry_cell_setting	triclinic
loop_
_symmetry_equiv_pos_as_xyz
  x,y,z
_cell_length_a	14.519709
_cell_length_b	19.288840
_cell_length_c	17.766277
_cell_angle_alpha	89.983415
_cell_angle_beta	90.000159
_cell_angle_gamma	96.596919
loop_
_atom_site_label
_atom_site_type_symbol
_atom_site_fract_x
_atom_site_fract_y
_atom_site_fract_z
O1	O	-0.114935	0.921778	-0.062710
O2	O	-0.130478	0.719571	-0.062682
O3	O	0.011566	0.826035	-0.062704
O4	O	-0.256980	0.815313	-0.062689
O5	O	0.011574	0.826017	0.062485
O6	O	-0.130471	0.719552	0.062506
O7	O	-0.114928	0.921759	0.062479
Cu8	Cu	-0.122699	0.820654	0.073923
Cu9	Cu	-0.122707	0.820676	-0.074127
O10	O	-0.256973	0.815294	0.062500
C11	C	-0.129979	0.693683	-0.000085
C12	C	-0.128489	0.616573	-0.000075
C13	C	-0.127777	0.580377	-0.068317
C14	C	-0.126367	0.507925	-0.068326
C15	C	-0.125650	0.471673	-0.000090
C16	C	-0.126367	0.507878	0.068162
C17	C	-0.127787	0.580327	0.068169
C18	C	-0.069381	0.362135	0.052176
C19	C	-0.067956	0.289688	0.052166
C20	C	-0.121276	0.248214	-0.000109
C21	C	-0.176010	0.279198	-0.052387
C22	C	-0.177429	0.351648	-0.052380
C23	C	-0.124112	0.393114	-0.000090
C24	C	-0.119037	0.133457	-0.068366
C25	C	-0.117633	0.061003	-0.068373
C26	C	-0.117624	0.060958	0.068117
C27	C	-0.119037	0.133410	0.068122
C28	C	-0.119740	0.169655	-0.000122
C29	C	-0.291333	0.815803	-0.000093
C30	C	-0.393704	0.817301	-0.000088
C31	C	-0.768565	0.822813	-0.000118
C32	C	-0.664266	0.821283	-0.000110
C33	C	-0.581138	0.820057	-0.000102
C34	C	-0.476833	0.818526	-0.000095
C35	C	0.045927	0.825526	-0.000113
C36	C	0.148298	0.824029	-0.000123
C37	C	-0.115428	0.947647	-0.000121
C38	C	-0.116917	1.024757	-0.000135
N39	N	-0.122692	0.820643	0.178053
N40	N	-0.122707	0.820692	-0.178257
C41	C	-0.059826	0.867801	0.217431
C42	C	-0.059821	0.867805	0.296233
C43	C	-0.122700	0.820658	0.335654
C44	C	-0.185571	0.773491	0.296267
C45	C	-0.185568	0.773484	0.217467
C46	C	-0.206729	0.811661	0.460497
C47	C	-0.206734	0.811673	0.539296
C48	C	-0.122711	0.820676	0.578700
C49	C	-0.038679	0.829682	0.539296
C50	C	-0.038676	0.829675	0.460496
C51	C	-0.122710	0.820660	0.421100
C52	C	-0.059834	0.867841	0.703524
C53	C	-0.059829	0.867840	0.782327
C54	C	-0.185587	0.773530	0.782360
C55	C	-0.185584	0.773527	0.703558
C56	C	-0.122709	0.820687	0.664145
H57	H	-0.221997	0.376872	-0.094944
C58	C	0.009349	0.919709	0.825642
N59	N	0.061459	0.958774	0.858268
C60	C	-0.128548	0.620243	-0.143388
N61	N	-0.129127	0.650271	-0.199931
H62	H	-0.236762	0.735081	0.185405
H63	H	-0.025959	0.395898	0.094748
H64	H	-0.236780	0.735129	0.671495
C65	C	-0.299169	0.801761	0.582634
N66	N	-0.368794	0.794290	0.615274
H67	H	-0.125786	0.478357	0.123720
C68	C	-0.128562	0.620145	0.143244
N69	N	-0.129142	0.650136	0.199792
H70	H	-0.119611	0.162882	0.123692
H71	H	-0.236780	0.735139	0.814456
C72	C	-0.299167	0.801757	0.417161
N73	N	-0.368789	0.794297	0.384521
H74	H	-0.125789	0.478448	-0.123899
H75	H	-0.219432	0.245431	-0.094952
H76	H	-0.117059	0.031533	-0.123946
C77	C	0.009338	0.919711	0.660166
N78	N	0.061440	0.958778	0.627512
C79	C	-0.254734	0.721626	0.339632
N80	N	-0.306826	0.682557	0.372294
C81	C	-0.119826	0.173328	-0.143435
N82	N	-0.120424	0.203357	-0.199978
H83	H	-0.008626	0.906208	0.328300
H84	H	-0.117046	0.031443	0.123677
C85	C	0.009348	0.919671	0.174081
N86	N	0.061453	0.958738	0.141428
C87	C	-0.007758	0.255611	0.109677
N88	N	0.037581	0.229946	0.153000
C89	C	0.053757	0.839571	0.417154
N90	N	0.123379	0.847021	0.384509
H91	H	0.029740	0.837013	0.571377
