data_functionalizedCrystal
_audit_creation_method	'MofGen! by Chris Wilmer'
_symmetry_space_group_name_H-M	'P1'
_symmetry_Int_Tables_number	1
_symmetry_cell_setting	triclinic
loop_
_symmetry_equiv_pos_as_xyz
  x,y,z
_cell_length_a	19.288864
_cell_length_b	17.766277
_cell_length_c	19.288857
_cell_angle_alpha	89.991474
_cell_angle_beta	83.134677
_cell_angle_gamma	89.976791
loop_
_atom_site_label
_atom_site_type_symbol
_atom_site_fract_x
_atom_site_fract_y
_atom_site_fract_z
O1	O	0.921351	-0.062839	0.086649
O2	O	0.719090	-0.062788	0.098338
O3	O	0.826067	-0.062806	-0.008637
O4	O	0.814373	-0.062821	0.193624
O5	O	0.826049	0.062382	-0.008643
O6	O	0.719071	0.062400	0.098332
O7	O	0.921332	0.062349	0.086644
Cu8	Cu	0.820200	0.073806	0.092488
Cu9	Cu	0.820222	-0.074244	0.092494
O10	O	0.814354	0.062367	0.193619
C11	C	0.693204	-0.000187	0.097959
C12	C	0.616100	-0.000167	0.096830
N13	N	0.820189	0.177936	0.092483
N14	N	0.820238	-0.178375	0.092493
C15	C	0.571402	-0.000184	0.159598
C16	C	0.498955	-0.000192	0.158537
C17	C	0.471210	-0.000199	0.094705
C18	C	0.515917	-0.000178	0.031929
C19	C	0.588363	-0.000162	0.032991
C20	C	0.362955	-0.044080	0.044528
C21	C	0.290511	-0.044100	0.043468
C22	C	0.247764	-0.000244	0.091425
C23	C	0.277469	0.043622	0.140455
C24	C	0.349914	0.043638	0.141517
C25	C	0.392656	-0.000216	0.093546
C26	C	0.124510	-0.000269	0.153048
C27	C	0.052062	-0.000272	0.151984
C28	C	0.069026	-0.000266	0.025374
C29	C	0.141472	-0.000255	0.026439
C30	C	0.169210	-0.000260	0.090278
C31	C	0.947218	-0.000253	0.087022
C32	C	1.024321	-0.000278	0.088151
C33	C	0.825683	-0.000211	-0.034516
C34	C	0.824556	-0.000209	-0.111620
C35	C	0.867574	0.217315	0.045137
C36	C	0.867578	0.296117	0.045134
C37	C	0.820204	0.335537	0.092488
C38	C	0.772810	0.296148	0.139837
C39	C	0.772803	0.217348	0.139834
C40	C	0.810903	0.460371	0.155776
C41	C	0.810915	0.539170	0.155780
C42	C	0.820222	0.578583	0.092496
C43	C	0.829532	0.539187	0.029207
C44	C	0.829525	0.460387	0.029204
C45	C	0.820206	0.420982	0.092496
C46	C	0.867614	0.703408	0.045144
C47	C	0.867614	0.782211	0.045139
C48	C	0.772849	0.782241	0.139849
C49	C	0.772846	0.703439	0.139847
C50	C	0.820233	0.664027	0.092495
C51	C	0.824040	-0.068449	-0.147828
C52	C	0.822971	-0.068454	-0.220274
C53	C	0.822432	-0.000215	-0.256511
C54	C	0.822944	0.068034	-0.220295
C55	C	0.824006	0.068037	-0.147849
C56	C	0.861426	0.052050	-0.376745
C57	C	0.860369	0.052044	-0.449190
C58	C	0.819155	-0.000223	-0.479957
C59	C	0.779007	-0.052496	-0.438272
C60	C	0.780069	-0.052493	-0.365827
C61	C	0.821281	-0.000211	-0.335066
C62	C	0.817479	-0.068474	-0.594719
C63	C	0.816406	-0.068476	-0.667166
C64	C	0.816386	0.068014	-0.667186
C65	C	0.817452	0.068014	-0.594740
C66	C	0.818002	-0.000232	-0.558511
C67	C	0.814739	-0.000229	0.219498
C68	C	0.815866	-0.000237	0.296602
H69	H	0.462555	-0.000204	0.209652
O70	O	0.913664	0.665234	-0.000924
C71	C	0.955496	0.716894	-0.042708
H72	H	0.927026	0.773080	-0.043419
H73	H	1.007021	0.725244	-0.020287
C74	C	1.005016	0.617136	-0.116803
C75	C	0.970046	0.686143	-0.117682
H76	H	1.013994	0.598167	-0.163050
H77	H	0.976835	0.582331	-0.088651
H78	H	1.047950	0.624104	-0.098115
H79	H	0.927110	0.679172	-0.136361
H80	H	0.998220	0.720946	-0.145839
H81	H	0.374097	0.079358	0.181436
H82	H	0.815983	-0.124048	-0.696644
O83	O	0.042166	-0.000372	-0.036678
C84	C	0.065049	-0.065212	-0.074918
H85	H	0.115248	-0.086820	-0.056144
H86	H	0.023123	-0.110621	-0.066741
C87	C	0.017214	-0.018972	-0.176156
C88	C	0.078872	-0.045507	-0.153101
H89	H	0.025738	-0.006819	-0.224383
H90	H	0.001794	0.024711	-0.150392
H91	H	-0.017718	-0.056817	-0.169335
H92	H	0.113800	-0.007659	-0.159914
H93	H	0.094298	-0.089184	-0.178868
O94	O	0.261734	-0.086818	-0.004131
C95	C	0.278242	-0.163170	0.005292
H96	H	0.327270	-0.167247	0.032742
H97	H	0.232959	-0.191887	0.038483
C98	C	0.231000	-0.197265	-0.100046
C99	C	0.291221	-0.202273	-0.066337
H100	H	0.239003	-0.221388	-0.144229
H101	H	0.219875	-0.145826	-0.106393
H102	H	0.193270	-0.221196	-0.072379
H103	H	0.328947	-0.178335	-0.094000
H104	H	0.302352	-0.253710	-0.059996
H105	H	0.242665	0.079334	0.179506
H106	H	0.397755	-0.079797	0.005473
H107	H	0.815942	0.123575	-0.696689
O108	O	0.817994	0.134371	-0.559676
C109	C	0.817273	0.194601	-0.607190
H110	H	0.838500	0.174586	-0.661774
H111	H	0.761446	0.215602	-0.607432
C112	C	0.837152	0.283645	-0.517988
C113	C	0.863229	0.259064	-0.585029
H114	H	0.865497	0.323410	-0.504317
H115	H	0.837635	0.243067	-0.485976
H116	H	0.790629	0.301140	-0.518199
H117	H	0.909747	0.241560	-0.584815
H118	H	0.862755	0.299640	-0.617040
O119	O	0.726795	0.665299	0.185912
C120	C	0.684969	0.716986	0.227696
H121	H	0.713447	0.773142	0.228410
H122	H	0.633446	0.725399	0.205274
C123	C	0.635434	0.617252	0.301787
C124	C	0.670413	0.686222	0.302669
H125	H	0.626452	0.598275	0.348034
H126	H	0.663610	0.582428	0.273635
H127	H	0.592502	0.624272	0.283099
H128	H	0.713348	0.679199	0.321349
H129	H	0.642243	0.721044	0.330827
O130	O	0.151344	-0.000232	0.215118
C131	C	0.096353	-0.000260	0.270294
H132	H	0.047186	0.023434	0.250977
H133	H	0.086070	-0.060321	0.289649
C134	C	0.176979	0.019736	0.354238
C135	C	0.116592	0.048843	0.330514
H136	H	0.189463	0.050022	0.391386
H137	H	0.214028	0.019752	0.317066
H138	H	0.168402	-0.030314	0.370362
H139	H	0.125172	0.098889	0.314382
H140	H	0.079544	0.048837	0.367685
H141	H	0.906198	0.814274	0.006581
H142	H	0.493322	-0.000194	-0.020044
O143	O	0.899384	0.102891	-0.489574
C144	C	0.935994	0.149019	-0.446887
H145	H	0.907978	0.148935	-0.391391
H146	H	0.991302	0.126483	-0.446570
C147	C	0.973524	0.230068	-0.543810
C148	C	0.939111	0.229969	-0.475651
H149	H	0.975450	0.280002	-0.561555
H150	H	0.948862	0.198990	-0.572571
H151	H	1.019610	0.211284	-0.543537
H152	H	0.893023	0.248744	-0.475927
H153	H	0.963766	0.261053	-0.446891
O154	O	0.008571	-0.000390	0.212916
C155	C	-0.033796	-0.065244	0.216094
H156	H	-0.037276	-0.086850	0.160972
H157	H	-0.010035	-0.110646	0.247738
C158	C	-0.103195	-0.019031	0.318983
C159	C	-0.107474	-0.045565	0.251280
H160	H	-0.148643	-0.006894	0.340690
H161	H	-0.074651	0.024661	0.316844
H162	H	-0.083392	-0.056871	0.345344
H163	H	-0.127269	-0.007722	0.224918
H164	H	-0.136024	-0.089251	0.253416
O165	O	0.817973	-0.134831	-0.559624
C166	C	0.817298	-0.195065	-0.607122
H167	H	0.794551	-0.175056	-0.655820
H168	H	0.872900	-0.216065	-0.622289
C169	C	0.800120	-0.284102	-0.512922
C170	C	0.772176	-0.259527	-0.572732
H171	H	0.772289	-0.323867	-0.491709
H172	H	0.800577	-0.243522	-0.480921
H173	H	0.846454	-0.301596	-0.525570
H174	H	0.725846	-0.242025	-0.560082
H175	H	0.771710	-0.300106	-0.604730
O176	O	0.801835	0.577319	0.217317
C177	C	0.793626	0.525637	0.273172
H178	H	0.774599	0.469481	0.254006
H179	H	0.845873	0.517220	0.294180
C180	C	0.763150	0.625382	0.355238
C181	C	0.739776	0.556412	0.331699
H182	H	0.729935	0.644366	0.391342
H183	H	0.768683	0.660202	0.317609
H184	H	0.806690	0.618359	0.372740
H185	H	0.696242	0.563438	0.314191
H186	H	0.734234	0.521594	0.369328
H187	H	0.894987	0.094617	-0.351701
H188	H	0.822503	0.123594	-0.249803
H189	H	0.803312	0.428288	0.207312
H190	H	0.177867	-0.000245	-0.024674
O191	O	0.726799	0.820606	0.185754
C192	C	0.684061	0.866202	0.148663
H193	H	0.711900	0.878004	0.094240
H194	H	0.632742	0.835859	0.144072
C195	C	0.634900	0.926558	0.254709
C196	C	0.669095	0.941059	0.187867
H197	H	0.625666	0.972732	0.278892
H198	H	0.663692	0.895837	0.279698
H199	H	0.592139	0.901270	0.250874
H200	H	0.711860	0.966337	0.191703
H201	H	0.640311	0.971785	0.162879
O202	O	0.824538	0.134396	-0.112785
C203	C	0.823810	0.194628	-0.160297
H204	H	0.845041	0.174617	-0.214882
H205	H	0.767981	0.215621	-0.160539
C206	C	0.843677	0.283672	-0.071091
C207	C	0.869759	0.259096	-0.138132
H208	H	0.872018	0.323440	-0.057418
H209	H	0.844165	0.243093	-0.039080
H210	H	0.797153	0.301161	-0.071302
H211	H	0.916279	0.241599	-0.137919
H212	H	0.869280	0.299673	-0.170142
H213	H	0.593981	-0.000189	0.211581
H214	H	0.624757	-0.000149	-0.018124
O215	O	0.913674	0.334264	-0.000889
C216	C	0.955480	0.282580	-0.042698
H217	H	0.956173	0.226402	-0.014225
H218	H	0.933092	0.274221	-0.094241
C219	C	1.029601	0.382302	-0.092178
C220	C	1.030458	0.313304	-0.057204
H221	H	1.075851	0.401255	-0.101128
H222	H	1.001435	0.417123	-0.064012
H223	H	1.010941	0.375327	-0.135126
H224	H	1.049109	0.320282	-0.014253
H225	H	1.058629	0.278485	-0.085363
H226	H	0.734236	0.328248	0.178393
O227	O	0.741029	-0.103161	-0.325250
C228	C	0.693120	-0.064597	-0.276864
H229	H	0.713238	-0.005317	-0.268702
H230	H	0.640366	-0.061205	-0.297769
C231	C	0.660165	-0.179942	-0.216820
C232	C	0.684877	-0.107135	-0.206792
H233	H	0.655077	-0.206182	-0.173597
H234	H	0.692440	-0.205924	-0.249420
H235	H	0.616206	-0.177105	-0.234243
H236	H	0.728839	-0.109972	-0.189378
H237	H	0.652609	-0.081154	-0.174187
H238	H	0.906157	0.185228	0.006579
O239	O	0.738946	-0.103339	-0.468039
C240	C	0.703724	-0.149456	-0.415711
H241	H	0.733258	-0.149378	-0.367927
H242	H	0.648647	-0.126905	-0.400608
C243	C	0.663478	-0.230498	-0.502186
C244	C	0.699756	-0.230406	-0.443500
H245	H	0.661027	-0.280431	-0.519329
H246	H	0.687205	-0.199427	-0.537441
H247	H	0.617585	-0.211702	-0.489593
H248	H	0.745651	-0.249193	-0.456096
H249	H	0.676036	-0.261483	-0.408248
O250	O	0.822560	-0.134704	-0.255534
C251	C	0.882097	-0.138822	-0.305484
H252	H	0.901980	-0.079579	-0.319045
H253	H	0.924627	-0.172502	-0.283195
C254	C	0.838403	-0.250615	-0.355184
C255	C	0.862820	-0.177852	-0.371843
H256	H	0.826514	-0.274693	-0.396116
H257	H	0.798293	-0.247843	-0.321530
H258	H	0.873849	-0.278672	-0.336609
H259	H	0.827371	-0.149794	-0.390409
H260	H	0.902924	-0.180620	-0.405502
H261	H	0.837103	0.428314	-0.022328
O262	O	0.726747	0.179208	0.185898
C263	C	0.684918	0.230894	0.227681
H264	H	0.713393	0.287052	0.228395
H265	H	0.633395	0.239303	0.205258
C266	C	0.635386	0.131159	0.301774
C267	C	0.670363	0.200131	0.302655
H268	H	0.626404	0.112183	0.348020
H269	H	0.663565	0.096336	0.273622
H270	H	0.592454	0.138176	0.283084
H271	H	0.713297	0.193112	0.321335
H272	H	0.642190	0.234952	0.330811
O273	O	0.824534	-0.134808	-0.112739
C274	C	0.823867	-0.195040	-0.160240
H275	H	0.801124	-0.175029	-0.208941
H276	H	0.879470	-0.216037	-0.175403
C277	C	0.806683	-0.284081	-0.066044
C278	C	0.778744	-0.259505	-0.125857
H279	H	0.778852	-0.323848	-0.044835
H280	H	0.807135	-0.243502	-0.034042
H281	H	0.853018	-0.301573	-0.078689
H282	H	0.732413	-0.242005	-0.113211
H283	H	0.778283	-0.300083	-0.157857
O284	O	0.838622	0.577345	-0.032334
C285	C	0.846823	0.525677	-0.088191
H286	H	0.865831	0.469490	-0.069025
H287	H	0.794577	0.517333	-0.109206
C288	C	0.877336	0.625420	-0.170250
C289	C	0.900688	0.556412	-0.146711
H290	H	0.910560	0.644379	-0.206349
H291	H	0.871808	0.660230	-0.132618
H292	H	0.833797	0.618456	-0.187757
H293	H	0.944222	0.563378	-0.129196
H294	H	0.906225	0.521603	-0.184341
