data_functionalizedCrystal
_audit_creation_method	'MofGen! by Chris Wilmer'
_symmetry_space_group_name_H-M	'P1'
_symmetry_Int_Tables_number	1
_symmetry_cell_setting	triclinic
loop_
_symmetry_equiv_pos_as_xyz
  x,y,z
_cell_length_a	17.699083
_cell_length_b	27.732048
_cell_length_c	16.176319
_cell_angle_alpha	89.988239
_cell_angle_beta	89.998611
_cell_angle_gamma	82.962835
loop_
_atom_site_label
_atom_site_type_symbol
_atom_site_fract_x
_atom_site_fract_y
_atom_site_fract_z
O1	O	1.003540	0.061127	-0.068640
O2	O	0.783091	0.069080	-0.068668
O3	O	0.900162	-0.005269	-0.068637
O4	O	0.886469	0.135475	-0.068670
O5	O	0.900146	-0.005273	0.068856
O6	O	0.783075	0.069075	0.068825
O7	O	1.003524	0.061122	0.068853
Cu8	Cu	0.893298	0.065098	0.081394
Cu9	Cu	0.893317	0.065104	-0.081208
O10	O	0.886453	0.135471	0.068823
C11	C	0.754889	0.068792	0.000075
C12	C	0.670878	0.067938	0.000065
C13	C	0.621873	0.111579	0.000055
C14	C	0.542936	0.110772	0.000066
C15	C	0.513007	0.066325	0.000081
C16	C	0.562019	0.022680	0.000094
C17	C	0.640954	0.023487	0.000089
C18	C	0.243685	0.019426	0.000115
C19	C	0.164744	0.018623	0.000117
C20	C	0.145667	0.106712	0.000092
C21	C	0.224602	0.107518	0.000087
C22	C	0.273607	0.063874	0.000104
C23	C	0.359199	0.064749	0.000094
C24	C	0.427418	0.065450	0.000085
C25	C	0.899867	-0.023279	0.000112
C26	C	0.899001	-0.076937	0.000118
C27	C	0.962734	-0.415523	0.000084
C28	C	0.959522	-0.617194	0.000072
O29	O	1.017801	-0.648240	0.000043
N30	N	0.890104	-0.636567	0.000064
C31	C	0.821484	-0.605520	0.000053
O32	O	0.762366	-0.626625	0.000038
C33	C	0.824696	-0.403849	0.000059
C34	C	0.894119	-0.384479	0.000076
C35	C	1.032151	-0.396152	0.000100
C36	C	1.032953	-0.345737	0.000107
C37	C	0.964338	-0.314693	0.000099
C38	C	0.894921	-0.334064	0.000083
C39	C	0.756076	-0.372802	0.000043
C40	C	0.756886	-0.322382	0.000042
C41	C	0.826308	-0.303012	0.000059
C42	C	0.827108	-0.252605	0.000083
N43	N	0.896526	-0.233232	0.000091
C44	C	0.965141	-0.264276	0.000099
C45	C	0.819802	-0.711400	0.000052
C46	C	0.818999	-0.761817	0.000052
C47	C	0.957038	-0.773488	0.000069
C48	C	0.957840	-0.723070	0.000075
C49	C	0.889220	-0.692026	0.000060
C50	C	0.966820	-0.158401	0.000115
C51	C	0.967616	-0.107981	0.000126
C52	C	0.829578	-0.096314	0.000105
C53	C	0.828781	-0.146730	0.000098
C54	C	0.897409	-0.177772	0.000101
O55	O	0.768860	-0.221531	0.000102
O56	O	1.024251	-0.243161	0.000096
C57	C	0.961931	-0.465938	0.000077
C58	C	0.892514	-0.485309	0.000061
C59	C	0.823899	-0.454265	0.000053
C60	C	0.891711	-0.535726	0.000061
C61	C	0.960326	-0.566770	0.000069
C62	C	1.029744	-0.547397	0.000077
C63	C	1.030546	-0.496982	0.000085
C64	C	0.754481	-0.473638	0.000045
C65	C	0.753685	-0.524053	0.000038
C66	C	0.822300	-0.555097	0.000046
C67	C	1.031726	0.061410	0.000108
C68	C	1.115737	0.062264	0.000113
C69	C	0.886748	0.153481	0.000072
C70	C	0.887614	0.207139	0.000060
N71	N	0.893290	0.065094	0.195759
N72	N	0.893331	0.065104	-0.195573
C73	C	0.945145	0.032186	0.239037
C74	C	0.945149	0.032185	0.325584
C75	C	0.893301	0.065096	0.368851
C76	C	0.841441	0.098005	0.325568
C77	C	0.841434	0.098003	0.239022
C78	C	0.841467	0.098014	0.674596
C79	C	0.841479	0.098015	0.761147
C80	C	0.945181	0.032197	0.761157
C81	C	0.945174	0.032194	0.674612
C82	C	0.893312	0.065102	0.631336
C83	C	0.893308	0.065102	0.537491
C84	C	0.893309	0.065099	0.462694
H85	H	0.140380	-0.017574	0.000131
C86	C	1.031594	-0.807141	-0.000058
C87	C	1.073437	-0.798383	-0.070785
C88	C	1.142121	-0.829372	-0.070932
H89	H	1.021275	-0.839958	-0.000104
H90	H	1.060128	-0.801280	0.047864
H91	H	1.044908	-0.804248	-0.118694
H92	H	1.083775	-0.765573	-0.070754
H93	H	1.170656	-0.823510	-0.023010
H94	H	1.131796	-0.862186	-0.070975
H95	H	1.170523	-0.823430	-0.118915
C96	C	1.001421	-0.003503	0.627512
C97	C	1.047470	0.022141	0.577727
C98	C	1.099239	-0.010748	0.534300
H99	H	0.974379	-0.023567	0.593753
H100	H	1.032356	-0.023141	0.665591
H101	H	1.016538	0.041771	0.539652
H102	H	1.074528	0.042203	0.611465
H103	H	1.130174	-0.030386	0.572378
H104	H	1.072190	-0.030810	0.500545
H105	H	1.130493	0.006647	0.500521
C106	C	1.106736	-0.429772	0.000155
C107	C	1.167690	-0.402006	0.000189
C108	C	1.236414	-0.432956	0.000258
H109	H	1.109417	-0.449690	-0.047776
H110	H	1.109330	-0.449679	0.048124
H111	H	1.165097	-0.382107	-0.047775
H112	H	1.165034	-0.382088	0.048116
H113	H	1.239008	-0.452863	0.048227
H114	H	1.239088	-0.452873	-0.047674
H115	H	1.277779	-0.414121	0.000289
C116	C	0.654216	0.159887	0.000080
C117	C	0.594399	0.197933	0.000097
C118	C	0.624162	0.242442	0.000133
H119	H	0.684597	0.162104	-0.047856
H120	H	0.684591	0.162057	0.048044
H121	H	0.564037	0.195763	-0.047862
H122	H	0.564013	0.195731	0.048029
H123	H	0.654537	0.244612	0.048097
H124	H	0.654543	0.244654	-0.047804
H125	H	0.583582	0.268261	0.000152
C126	C	0.489644	0.158119	-0.000083
C127	C	0.443756	0.160223	-0.070808
C128	C	0.394649	0.203831	-0.070969
H129	H	0.518682	0.184744	-0.000141
H130	H	0.458411	0.159644	0.047841
H131	H	0.474985	0.158703	-0.118719
H132	H	0.414702	0.133608	-0.070764
H133	H	0.363416	0.205356	-0.023045
H134	H	0.423692	0.230453	-0.071025
H135	H	0.363503	0.205263	-0.118950
C136	C	0.753331	-0.167670	0.000040
C137	C	0.693414	-0.129689	0.000016
C138	C	0.623898	-0.148956	-0.000059
H139	H	0.750030	-0.187099	0.047966
H140	H	0.750117	-0.187070	-0.047934
H141	H	0.696627	-0.110297	0.047986
H142	H	0.696691	-0.110257	-0.047906
H143	H	0.620684	-0.168356	-0.048034
H144	H	0.620604	-0.168385	0.047867
H145	H	0.583236	-0.123190	-0.000083
H146	H	0.799222	0.124800	0.360801
H147	H	0.987408	0.005400	0.796402
H148	H	1.014370	-0.707302	0.000088
C149	C	0.296758	-0.028010	0.000087
C150	C	0.253650	-0.067105	0.000077
C151	C	0.302518	-0.110813	0.000041
H152	H	0.327964	-0.029597	0.048022
H153	H	0.327938	-0.029553	-0.047879
H154	H	0.222483	-0.065562	0.048038
H155	H	0.222445	-0.065534	-0.047854
H156	H	0.333698	-0.112356	-0.047924
H157	H	0.333722	-0.112395	0.047977
H158	H	0.273276	-0.137344	0.000027
H159	H	0.762468	-0.777584	0.000053
C160	C	0.785102	0.133788	0.192181
C161	C	0.739711	0.162619	0.248594
C162	C	0.687813	0.195593	0.205475
H163	H	0.753727	0.116480	0.158428
H164	H	0.812068	0.153914	0.158424
H165	H	0.712748	0.142496	0.282336
H166	H	0.771065	0.179938	0.282348
H167	H	0.714779	0.215719	0.171719
H168	H	0.656444	0.178281	0.171725
H169	H	0.657014	0.215162	0.243745
H170	H	0.987368	0.005389	0.203814
H171	H	0.105758	0.142249	0.000083
C172	C	1.104218	-0.581131	-0.000088
C173	C	1.107795	-0.610395	-0.070840
C174	C	1.176388	-0.641475	-0.071031
H175	H	1.106841	-0.601095	0.047800
H176	H	1.145704	-0.562395	-0.000126
H177	H	1.066320	-0.629130	-0.070794
H178	H	1.105185	-0.590444	-0.118739
H179	H	1.217874	-0.622738	-0.071069
H180	H	1.179005	-0.661436	-0.023141
H181	H	1.178827	-0.661331	-0.119039
C182	C	0.745214	-0.677779	0.000087
C183	C	0.684257	-0.705543	0.000104
C184	C	0.615535	-0.674592	0.000153
H185	H	0.742545	-0.657851	-0.047846
H186	H	0.742609	-0.657882	0.048054
H187	H	0.686860	-0.725432	-0.047858
H188	H	0.686900	-0.725471	0.048033
H189	H	0.612930	-0.654695	0.048120
H190	H	0.612874	-0.654665	-0.047781
H191	H	0.574168	-0.693425	0.000172
C192	C	0.678227	-0.544986	-0.000022
C193	C	0.618314	-0.507003	-0.000051
C194	C	0.548795	-0.526266	-0.000125
H195	H	0.674921	-0.564413	0.047906
H196	H	0.675011	-0.564388	-0.047994
H197	H	0.621529	-0.487609	0.047917
H198	H	0.621595	-0.487573	-0.047975
H199	H	0.545579	-0.545667	-0.048098
H200	H	0.545497	-0.545692	0.047803
H201	H	0.508136	-0.500497	-0.000153
C202	C	0.680002	-0.439915	-0.000131
C203	C	0.676417	-0.410625	-0.070873
C204	C	0.607808	-0.379560	-0.071064
H205	H	0.677364	-0.419967	0.047763
H206	H	0.638529	-0.458662	-0.000182
H207	H	0.717878	-0.391880	-0.070815
H208	H	0.679042	-0.430560	-0.118779
H209	H	0.566335	-0.398307	-0.071115
H210	H	0.605176	-0.359616	-0.023167
H211	H	0.605363	-0.359687	-0.119065
C212	C	0.682324	-0.288735	-0.000101
C213	C	0.640495	-0.297478	-0.070837
C214	C	0.571802	-0.266497	-0.070990
H215	H	0.692632	-0.255917	-0.000138
H216	H	0.653785	-0.294615	0.047815
H217	H	0.669028	-0.291595	-0.118740
H218	H	0.630167	-0.330290	-0.070815
H219	H	0.543263	-0.272377	-0.023075
H220	H	0.582117	-0.233681	-0.071025
H221	H	0.543409	-0.272428	-0.118980
H222	H	0.680855	-0.012050	0.000096
C223	C	0.529381	-0.025529	0.000069
C224	C	0.449764	-0.016896	0.000047
C225	C	0.419673	-0.061296	0.000011
H226	H	0.546154	-0.043533	0.048007
H227	H	0.546194	-0.043497	-0.047893
H228	H	0.432957	0.001065	0.048004
H229	H	0.432969	0.001100	-0.047888
H230	H	0.436487	-0.079264	-0.047951
H231	H	0.436452	-0.079296	0.047950
H232	H	0.365651	-0.055444	-0.000012
H233	H	1.024151	-0.092213	0.000142
H234	H	0.248965	0.143712	0.000071
C235	C	0.785252	0.133825	0.627666
C236	C	0.796988	0.181313	0.648687
C237	C	0.745221	0.214318	0.605463
H238	H	0.734771	0.128683	0.641829
H239	H	0.792667	0.129147	0.569917
H240	H	0.789566	0.185989	0.706424
H241	H	0.847458	0.186471	0.634523
H242	H	0.752637	0.209640	0.547713
H243	H	0.694744	0.209171	0.619629
H244	H	0.753182	0.246542	0.619713
C245	C	1.041410	-0.192019	0.000165
C246	C	1.102367	-0.164254	0.000202
C247	C	1.171089	-0.195206	0.000264
H248	H	1.044089	-0.211934	-0.047770
H249	H	1.044005	-0.211929	0.048130
H250	H	1.099774	-0.144353	-0.047758
H251	H	1.099713	-0.144340	0.048133
H252	H	1.173683	-0.215116	0.048229
H253	H	1.173760	-0.215120	-0.047672
H254	H	1.212456	-0.176373	0.000297
H255	H	0.773714	-0.071029	0.000101
H256	H	0.799256	0.124815	0.796374
H257	H	1.089484	-0.329971	0.000117
H258	H	1.087078	-0.481215	0.000098
C259	C	1.001544	-0.003559	0.372422
C260	C	1.046968	-0.032368	0.316006
C261	C	1.098939	-0.065296	0.359122
H262	H	0.974658	-0.023709	0.406202
H263	H	1.032882	0.013799	0.406150
H264	H	1.015633	-0.049725	0.282292
H265	H	1.073870	-0.012231	0.282224
H266	H	1.130277	-0.047938	0.392851
H267	H	1.072047	-0.085442	0.392901
H268	H	1.129770	-0.084843	0.320851
H269	H	0.699545	-0.388565	0.000024
