data_functionalizedCrystal
_audit_creation_method	'MofGen! by Chris Wilmer'
_symmetry_space_group_name_H-M	'P1'
_symmetry_Int_Tables_number	1
_symmetry_cell_setting	triclinic
loop_
_symmetry_equiv_pos_as_xyz
  x,y,z
_cell_length_a	12.827893
_cell_length_b	12.827892
_cell_length_c	19.805407
_cell_angle_alpha	90.008454
_cell_angle_beta	90.006291
_cell_angle_gamma	90.015362
loop_
_atom_site_label
_atom_site_type_symbol
_atom_site_fract_x
_atom_site_fract_y
_atom_site_fract_z
Zn1	Zn	1.597536	-0.416205	0.382689
Zn2	Zn	2.097536	0.083795	0.882689
Zn3	Zn	1.597469	-0.590917	0.269511
Zn4	Zn	2.097469	-0.090917	0.769511
Zn5	Zn	1.422817	-0.416190	0.269520
Zn6	Zn	1.922817	0.083810	0.769520
Zn7	Zn	1.422762	-0.590905	0.382663
Zn8	Zn	1.922762	-0.090905	0.882663
O9	O	1.510146	-0.503554	0.326096
O10	O	2.010146	-0.003554	0.826096
O11	O	1.743763	-0.439392	0.367683
O12	O	2.243763	0.060608	0.867683
O13	O	1.574296	-0.567738	0.174795
O14	O	2.074296	-0.067738	0.674795
O15	O	1.446044	-0.269956	0.284547
O16	O	1.946044	0.230044	0.784547
O17	O	1.743714	-0.567752	0.284531
O18	O	2.243714	-0.067752	0.784531
O19	O	1.574409	-0.269967	0.367692
O20	O	2.074409	0.230033	0.867692
O21	O	1.445980	-0.439367	0.174802
O22	O	1.945980	0.060633	0.674802
O23	O	1.276573	-0.439355	0.284521
O24	O	1.776573	0.060645	0.784521
O25	O	1.445951	-0.567732	0.477383
O26	O	1.945951	-0.067732	0.977383
O27	O	1.276534	-0.567717	0.367647
O28	O	1.776534	-0.067717	0.867647
O29	O	1.574357	-0.439381	0.477403
O30	O	2.074357	0.060619	0.977403
O31	O	1.574244	-0.737151	0.284506
O32	O	2.074244	-0.237151	0.784506
O33	O	1.445887	-0.737142	0.367639
O34	O	1.945887	-0.237142	0.867639
C35	C	1.238636	-0.503534	0.326083
C36	C	1.738636	-0.003534	0.826083
C37	C	1.122483	-0.503551	0.326094
C38	C	1.622483	-0.003551	0.826094
C39	C	1.070706	-0.567167	0.367163
C40	C	1.570706	-0.067167	0.867163
C41	C	0.950656	-0.567186	0.367175
C42	C	1.450656	-0.067186	0.867175
C43	C	1.510081	-0.775064	0.326083
C44	C	2.010081	-0.275064	0.826083
C45	C	1.510148	-0.891217	0.326101
C46	C	2.010148	-0.391217	0.826101
C47	C	1.573639	-0.942924	0.367280
C48	C	2.073639	-0.442924	0.867280
C49	C	1.573711	-1.062974	0.367299
C50	C	2.073711	-0.562974	0.867299
C51	C	1.782716	-0.503575	0.326109
C52	C	2.282716	-0.003575	0.826109
C53	C	1.898869	-0.503584	0.326115
C54	C	2.398869	-0.003584	0.826115
C55	C	1.510155	-0.503556	0.502639
C56	C	2.010155	-0.003556	1.002639
C57	C	1.510159	-0.503557	0.577871
C58	C	2.010159	-0.003557	1.077871
C59	C	1.510240	-0.230984	0.326123
C60	C	2.010240	0.269016	0.826123
C61	C	1.510280	-0.114831	0.326135
C62	C	2.010280	0.385169	0.826135
C63	C	1.577012	-0.436735	0.613226
C64	C	2.077012	0.063265	1.113226
C65	C	1.577003	-0.436732	0.683914
C66	C	2.077003	0.063268	1.183914
C67	C	1.510146	-0.503557	0.719246
C68	C	2.010146	-0.003557	1.219246
C69	C	1.443286	-0.570382	0.683886
C70	C	1.943286	-0.070382	1.183886
C71	C	1.443291	-0.570379	0.613199
C72	C	1.943291	-0.070379	1.113199
C73	C	1.443266	-0.570394	0.968959
C74	C	1.943266	-0.070394	1.468959
C75	C	1.443269	-0.570394	1.039651
C76	C	1.943269	-0.070394	1.539651
C77	C	1.576977	-0.436747	1.039675
C78	C	2.076977	0.063253	1.539675
C79	C	1.576982	-0.436744	0.968987
C80	C	2.076982	0.063256	1.468987
C81	C	1.510119	-0.503565	0.933633
C82	C	2.010119	-0.003565	1.433633
C83	C	1.510128	-0.503566	0.856985
C84	C	2.010128	-0.003566	1.356985
C85	C	1.510141	-0.503562	0.795893
C86	C	2.010141	-0.003562	1.295893
C87	C	1.510127	-0.503574	1.150240
C88	C	2.010127	-0.003574	1.650240
C89	C	1.510116	-0.503566	1.075008
C90	C	2.010116	-0.003566	1.575008
H91	H	1.627940	-0.898318	0.402525
H92	H	2.127940	-0.398318	0.902525
H93	H	1.455839	-0.935826	0.290862
H94	H	1.955839	-0.435826	0.790862
H95	H	1.628071	-1.107441	0.402552
H96	H	2.128071	-0.607441	0.902552
H97	H	1.077934	-0.449096	0.290944
H98	H	1.577934	0.050904	0.790944
H99	H	1.455924	-1.070372	0.290875
H100	H	1.955924	-0.570372	0.790875
H101	H	1.631457	-0.382322	0.584464
H102	H	2.131457	0.117678	1.084464
H103	H	1.631443	-0.382321	0.712697
H104	H	2.131443	0.117679	1.212697
H105	H	1.631427	-0.382332	0.940224
H106	H	2.131427	0.117668	1.440224
H107	H	1.631417	-0.382335	1.068468
H108	H	2.131417	0.117665	1.568468
H109	H	1.388847	-0.624788	0.712659
H110	H	1.888847	-0.124788	1.212659
H111	H	1.388821	-0.624813	1.068417
H112	H	1.888821	-0.124813	1.568417
H113	H	1.388842	-0.624782	0.584413
H114	H	1.888842	-0.124782	1.084413
H115	H	1.115255	-0.621615	0.402319
H116	H	1.615255	-0.121615	0.902319
H117	H	0.906129	-0.621654	0.402335
H118	H	1.406129	-0.121654	0.902335
H119	H	0.943389	-0.449121	0.290949
H120	H	1.443389	0.050879	0.790949
H121	H	1.388837	-0.624819	0.940183
H122	H	1.888837	-0.124819	1.440183
