data_functionalizedCrystal
_audit_creation_method	'MofGen! by Chris Wilmer'
_symmetry_space_group_name_H-M	'P1'
_symmetry_Int_Tables_number	1
_symmetry_cell_setting	triclinic
loop_
_symmetry_equiv_pos_as_xyz
  x,y,z
_cell_length_a	12.594517
_cell_length_b	12.594516
_cell_length_c	12.759387
_cell_angle_alpha	89.971510
_cell_angle_beta	89.983812
_cell_angle_gamma	90.016010
loop_
_atom_site_label
_atom_site_type_symbol
_atom_site_fract_x
_atom_site_fract_y
_atom_site_fract_z
Zn1	Zn	1.627287	-0.423687	-0.593901
Zn2	Zn	1.627172	-0.601705	-0.418228
Zn3	Zn	1.449285	-0.423740	-0.418251
Zn4	Zn	1.449273	-0.601624	-0.593881
O5	O	1.538254	-0.512689	-0.506065
O6	O	1.776217	-0.447313	-0.570596
O7	O	1.603531	-0.578153	-0.271210
O8	O	1.472950	-0.274788	-0.441569
O9	O	1.776133	-0.578102	-0.441531
O10	O	1.603727	-0.274749	-0.570618
O11	O	1.472839	-0.447404	-0.271227
O12	O	1.300337	-0.447326	-0.441550
O13	O	1.472930	-0.577964	-0.740905
O14	O	1.300329	-0.578016	-0.570584
O15	O	1.603716	-0.447235	-0.740919
O16	O	1.603520	-0.750640	-0.441511
O17	O	1.472818	-0.750580	-0.570562
C18	C	1.261713	-0.512668	-0.506068
C19	C	1.143408	-0.512685	-0.506094
C20	C	1.003417	-0.583897	-0.576145
C21	C	1.074184	-0.609808	-0.480260
C22	C	1.074212	-0.486821	-0.601968
C23	C	1.003389	-0.538682	-0.410126
C24	C	1.003411	-0.415650	-0.531899
C25	C	1.074146	-0.441524	-0.435948
C26	C	1.538184	-0.789230	-0.506055
C27	C	1.538252	-0.907535	-0.506086
C28	C	1.467156	-0.976795	-0.576227
C29	C	1.441220	-1.047664	-0.480362
C30	C	1.564285	-1.047465	-0.601967
C31	C	1.512264	-0.976847	-0.410170
C32	C	1.635375	-0.976641	-0.531839
C33	C	1.609475	-1.047478	-0.435908
C34	C	1.815875	-0.512711	-0.506063
C35	C	1.934180	-0.512720	-0.506062
C36	C	1.538334	-0.512585	-0.780099
C37	C	1.538369	-0.512540	-0.896876
C38	C	1.538353	-0.235068	-0.506098
C39	C	1.538395	-0.116763	-0.506113
C40	C	1.674565	-0.376421	-0.896911
C41	C	1.742679	-0.308345	-0.951789
C42	C	1.742704	-0.308306	-1.061511
C43	C	1.674608	-0.376348	-1.116357
C44	C	1.606494	-0.444424	-1.061478
C45	C	1.606478	-0.444458	-0.951754
C46	C	1.470294	-0.580536	-1.061443
C47	C	1.470272	-0.580582	-0.951721
C48	C	1.402197	-0.648578	-1.116289
C49	C	1.334087	-0.716661	-1.061410
C50	C	1.334065	-0.716698	-0.951682
C51	C	1.402158	-0.648658	-0.896843
C52	C	1.538235	-0.512716	-0.233098
C53	C	1.538407	-0.512461	-0.116321
H54	H	0.972299	-0.333597	-0.553774
O55	O	1.808714	-0.242104	-0.898556
C56	C	1.860508	-0.061079	-0.865059
C57	C	1.785644	-0.135975	-0.925388
H58	H	1.841898	0.024741	-0.886747
H59	H	1.848790	-0.072708	-0.777199
H60	H	1.946322	-0.079836	-0.886625
H61	H	1.699802	-0.117263	-0.903910
H62	H	1.797455	-0.124332	-1.013233
H63	H	1.105321	-0.464930	-0.683062
H64	H	1.406926	-0.945758	-0.635457
O65	O	1.808715	-0.242065	-1.114872
C66	C	1.823121	-0.098376	-1.238836
C67	C	1.748244	-0.173309	-1.178452
H68	H	1.774261	-0.042782	-1.290272
H69	H	1.871767	-0.049671	-1.180843
H70	H	1.878783	-0.147262	-1.290154
H71	H	1.692518	-0.124505	-1.127133
H72	H	1.699673	-0.222018	-1.236502
O73	O	1.343246	-1.084836	-0.454551
C74	C	1.157461	-1.090942	-0.499228
C75	C	1.268362	-1.048801	-0.528583
H76	H	1.096884	-1.061806	-0.559054
H77	H	1.158600	-1.181452	-0.498788
H78	H	1.134789	-1.060702	-0.418052
H79	H	1.291102	-1.078962	-0.609765
H80	H	1.267163	-0.958292	-0.528951
O81	O	1.111458	-0.707644	-0.454167
C82	C	1.265460	-0.816987	-0.424152
C83	C	1.223399	-0.706130	-0.453680
H84	H	1.355969	-0.815806	-0.423771
H85	H	1.235191	-0.839667	-0.342955
H86	H	1.236347	-0.877586	-0.483949
H87	H	1.252494	-0.645457	-0.393954
H88	H	1.253660	-0.683540	-0.534904
O89	O	1.733225	-0.939439	-0.558034
C90	C	1.871254	-0.933199	-0.688713
C91	C	1.760419	-0.975383	-0.659175
H92	H	1.893284	-0.962261	-0.770478
H93	H	1.870458	-0.842689	-0.687763
H94	H	1.932109	-0.963478	-0.629720
H95	H	1.699502	-0.945182	-0.718139
H96	H	1.761303	-1.065891	-0.660092
H97	H	1.490208	-0.945954	-0.329073
H98	H	0.972361	-0.644149	-0.635325
O99	O	1.590368	-1.084348	-0.698765
C100	C	1.544754	-1.090310	-0.882065
C101	C	1.515119	-1.048456	-0.772503
H102	H	1.483919	-1.061327	-0.941709
H103	H	1.626878	-1.059846	-0.904667
H104	H	1.545368	-1.180818	-0.880911
H105	H	1.514444	-0.957951	-0.773573
H106	H	1.433013	-1.079001	-0.749945
O107	O	1.674798	-0.376398	-1.222940
C108	C	1.776870	-0.403625	-1.380407
C109	C	1.776798	-0.403632	-1.259703
H110	H	1.859334	-0.425619	-1.410167
H111	H	1.716568	-0.463982	-1.410241
H112	H	1.754769	-0.321184	-1.410174
H113	H	1.798925	-0.486029	-1.229847
H114	H	1.837078	-0.343218	-1.229940
O115	O	1.267997	-0.782897	-1.114570
C116	C	1.216302	-0.963930	-1.148175
C117	C	1.291198	-0.889035	-1.087884
H118	H	1.235048	-1.049759	-1.126638
H119	H	1.130464	-0.945324	-1.126574
H120	H	1.227997	-0.952147	-1.236017
H121	H	1.279598	-0.900776	-1.000029
H122	H	1.377010	-0.907659	-1.109572
H123	H	1.674561	-0.376456	-0.807570
O124	O	1.402225	-0.648738	-1.222872
C125	C	1.429618	-0.750724	-1.380308
C126	C	1.429600	-0.750691	-1.259604
H127	H	1.451770	-0.833138	-1.410043
H128	H	1.347207	-0.728681	-1.410156
H129	H	1.489969	-0.690342	-1.410086
H130	H	1.369302	-0.811074	-1.229737
H131	H	1.512050	-0.772686	-1.229827
O132	O	1.268050	-0.782881	-0.898256
C133	C	1.253651	-0.926670	-0.774404
C134	C	1.328530	-0.851767	-0.834821
H135	H	1.302519	-0.982398	-0.723119
H136	H	1.198027	-0.877870	-0.722963
H137	H	1.204963	-0.975242	-0.832469
H138	H	1.377287	-0.803178	-0.776832
H139	H	1.384083	-0.900628	-0.886278
H140	H	0.972411	-0.560672	-0.329011
O141	O	1.110924	-0.369819	-0.365040
C142	C	1.116317	-0.316085	-0.183891
C143	C	1.074612	-0.397371	-0.264082
H144	H	1.086957	-0.338319	-0.102253
H145	H	1.206831	-0.316105	-0.184817
H146	H	1.085976	-0.233597	-0.205259
H147	H	1.104874	-0.479898	-0.242771
H148	H	0.984099	-0.397258	-0.263141
H149	H	1.669659	-1.078319	-0.376535
H150	H	1.402151	-0.648686	-0.807502
