data_functionalizedCrystal
_audit_creation_method	'MofGen! by Chris Wilmer'
_symmetry_space_group_name_H-M	'P1'
_symmetry_Int_Tables_number	1
_symmetry_cell_setting	triclinic
loop_
_symmetry_equiv_pos_as_xyz
  x,y,z
_cell_length_a	6.817900
_cell_length_b	13.168018
_cell_length_c	12.908943
_cell_angle_alpha	100.243938
_cell_angle_beta	100.860631
_cell_angle_gamma	105.756000
loop_
_atom_site_label
_atom_site_type_symbol
_atom_site_fract_x
_atom_site_fract_y
_atom_site_fract_z
V1	V	-4.014055	-0.147492	-0.343109
O2	O	-3.983285	0.008469	-0.321597
O3	O	-3.983476	-0.293780	-0.355170
O4	O	-3.951985	-0.144617	-0.486177
O5	O	-4.014995	-0.141727	-0.189683
V6	V	-4.497146	-0.128909	-0.323008
O7	O	-4.276263	-0.188255	-0.387203
O8	O	-4.685135	-0.088145	-0.278914
O9	O	-4.304518	0.017380	-0.310946
O10	O	-4.645313	-0.284870	-0.344520
O11	O	-4.613603	-0.134674	-0.476434
O12	O	-4.336010	-0.131784	-0.179939
C13	C	-3.833255	-0.329461	-0.353475
C14	C	-3.889449	-0.449050	-0.364290
C15	C	-3.793083	-0.139187	-0.520586
C16	C	-3.823734	-0.137804	-0.637640
C17	C	-4.001729	-0.632570	-0.477531
C18	C	-3.948936	-0.520207	-0.467374
C19	C	-3.882762	-0.490265	-0.271358
C20	C	-3.935554	-0.602628	-0.281516
C21	C	-3.995034	-0.673778	-0.384606
C22	C	-4.047814	-0.786143	-0.394763
C23	C	-3.981653	-0.756199	-0.198749
C24	C	-3.928860	-0.643836	-0.188591
C25	C	-4.245883	-0.145881	-0.869377
C26	C	-4.274693	-0.144583	-0.979359
C27	C	-3.910162	-0.133901	-0.967588
C28	C	-3.881352	-0.135199	-0.857606
C29	C	-4.049222	-0.141191	-0.808504
C30	C	-4.020414	-0.142498	-0.698521
C31	C	-3.655881	-0.131808	-0.686751
C32	C	-3.684691	-0.130510	-0.796733
C33	C	-4.118083	0.053055	-0.312639
C34	C	-4.041127	0.172643	-0.301831
C35	C	-4.158255	-0.137217	-0.145525
C36	C	-4.106841	-0.138594	-0.028470
H37	H	-4.096234	-0.844072	-0.478703
C38	C	-3.442555	-0.126973	-0.620632
C39	C	-3.463370	-0.220357	-0.580491
C40	C	-3.266918	-0.215977	-0.519595
H41	H	-3.346618	-0.123299	-0.665560
H42	H	-3.391126	-0.064332	-0.561606
H43	H	-3.514770	-0.282981	-0.639508
H44	H	-3.559269	-0.224050	-0.535547
H45	H	-3.215489	-0.153336	-0.460570
H46	H	-3.170996	-0.212300	-0.564530
H47	H	-3.281017	-0.279331	-0.492343
C48	C	-3.728025	-0.127222	-1.021011
C49	C	-3.686100	-0.033254	-1.060526
C50	C	-3.518350	-0.027072	-1.109761
H51	H	-3.606593	-0.124553	-0.969114
H52	H	-3.764127	-0.189439	-1.079522
H53	H	-3.649987	0.028947	-1.002023
H54	H	-3.807484	-0.035903	-1.112437
H55	H	-3.554453	-0.089289	-1.168271
H56	H	-3.396933	-0.024406	-1.057857
H57	H	-3.489895	0.036679	-1.136587
C58	C	-3.818660	-0.413062	-0.159433
C59	C	-3.983632	-0.436504	-0.108276
C60	C	-3.924687	-0.365394	-0.005178
H61	H	-3.697168	-0.421745	-0.116970
H62	H	-3.788295	-0.340232	-0.166668
H63	H	-4.013970	-0.509315	-0.101036
H64	H	-4.105139	-0.427814	-0.150708
H65	H	-3.894322	-0.292564	-0.012413
H66	H	-3.803193	-0.374082	0.037276
H67	H	-4.036617	-0.381283	0.029541
C68	C	-3.864723	-0.566643	-0.076659
C69	C	-4.029671	-0.590080	-0.025485
C70	C	-3.970676	-0.518984	0.077623
H71	H	-3.743232	-0.575344	-0.034213
H72	H	-3.834338	-0.493809	-0.083879
H73	H	-4.060028	-0.662896	-0.018259
H74	H	-4.151177	-0.581372	-0.067898
H75	H	-3.940292	-0.446150	0.070402
H76	H	-3.849184	-0.527690	0.120059
H77	H	-4.082590	-0.534870	0.112353
H78	H	-4.382576	-0.150772	-0.829400
H79	H	-4.434831	-0.148402	-1.028918
H80	H	-3.976190	-0.789760	-0.123082
C81	C	-4.066702	-0.709787	-0.589491
C82	C	-4.245894	-0.696661	-0.651614
C83	C	-4.305825	-0.767785	-0.754752
H84	H	-3.955229	-0.694105	-0.624524
H85	H	-4.097315	-0.782629	-0.582278
H86	H	-4.215271	-0.623837	-0.658831
H87	H	-4.357407	-0.712352	-0.616615
H88	H	-4.336438	-0.840626	-0.747540
H89	H	-4.194339	-0.752097	-0.789775
H90	H	-4.427423	-0.758896	-0.796912
H91	H	-4.157106	-0.147381	-0.658546
H92	H	-3.954404	-0.486662	-0.543044
H93	H	-3.548021	-0.125627	-0.836726
