data_functionalizedCrystal
_audit_creation_method	'MofGen! by Chris Wilmer'
_symmetry_space_group_name_H-M	'P1'
_symmetry_Int_Tables_number	1
_symmetry_cell_setting	triclinic
loop_
_symmetry_equiv_pos_as_xyz
  x,y,z
_cell_length_a	15.538191
_cell_length_b	17.699083
_cell_length_c	14.749904
_cell_angle_alpha	75.738153
_cell_angle_beta	72.481711
_cell_angle_gamma	65.277554
loop_
_atom_site_label
_atom_site_type_symbol
_atom_site_fract_x
_atom_site_fract_y
_atom_site_fract_z
O1	O	-1.268656	0.236263	0.079843
O2	O	-0.768656	0.736263	0.579843
O3	O	-0.994197	0.148816	0.079844
O4	O	-0.494197	0.648816	0.579844
O5	O	-1.139179	0.304849	0.079835
O6	O	-0.639179	0.804849	0.579835
O7	O	-1.123674	0.080231	0.079852
O8	O	-0.623674	0.580231	0.579852
O9	O	-1.102807	0.324269	-0.079840
O10	O	-0.602807	0.824269	0.420160
O11	O	-0.957825	0.168236	-0.079831
O12	O	-0.457825	0.668236	0.420169
O13	O	-1.232284	0.255683	-0.079832
O14	O	-0.732284	0.755683	0.420168
Zn15	Zn	-1.089280	0.215043	-0.105183
Zn16	Zn	-0.589280	0.715043	0.394817
Zn17	Zn	-1.137201	0.189456	0.105195
Zn18	Zn	-0.637201	0.689456	0.605195
O19	O	-1.087303	0.099651	-0.079823
O20	O	-0.587303	0.599651	0.420177
C21	C	-1.120437	0.342604	-0.000003
C22	C	-0.620437	0.842604	0.499997
C23	C	-1.118770	0.426166	-0.000003
C24	C	-0.618770	0.926166	0.499997
C25	C	-0.940895	0.149377	0.000007
C26	C	-0.440895	0.649377	0.500007
C27	C	-0.836259	0.122124	0.000007
C28	C	-0.336259	0.622124	0.500007
C29	C	-1.285587	0.255122	0.000007
C30	C	-0.785587	0.755122	0.500007
C31	C	-1.390224	0.282374	0.000013
C32	C	-0.890224	0.782374	0.500013
C33	C	-0.549087	0.392872	0.000002
C34	C	-0.049087	0.892872	0.500002
C35	C	-0.450763	0.367244	0.000004
C36	C	0.049237	0.867244	0.500004
C37	C	-0.427992	0.223097	0.000015
C38	C	0.072008	0.723097	0.500015
C39	C	-0.526315	0.248713	0.000008
C40	C	-0.026315	0.748713	0.500008
C41	C	-0.586855	0.333601	0.000002
C42	C	-0.086855	0.833601	0.500002
C43	C	-0.564084	0.189443	0.000008
C44	C	-0.064084	0.689443	0.500008
C45	C	-0.662399	0.215056	0.000006
C46	C	-0.162399	0.715056	0.500006
C47	C	-0.722946	0.299940	0.000003
C48	C	-0.222946	0.799940	0.500003
C49	C	-0.685171	0.359215	-0.000000
C50	C	-0.185171	0.859215	0.500000
C51	C	-0.503544	0.104554	0.000020
C52	C	-0.003544	0.604554	0.500020
C53	C	-0.541312	0.045283	0.000021
C54	C	-0.041312	0.545283	0.500021
C55	C	-0.639628	0.070897	0.000012
C56	C	-0.139628	0.570897	0.500012
C57	C	-0.700175	0.155781	0.000009
C58	C	-0.200175	0.655781	0.500009
C59	C	-0.677403	0.011623	0.000015
C60	C	-0.177403	0.511623	0.500015
C61	C	-0.775719	0.037236	0.000013
C62	C	-0.275719	0.537236	0.500013
C63	C	-0.798490	0.181395	0.000007
C64	C	-0.298490	0.681395	0.500007
C65	C	-1.106045	0.061895	0.000017
C66	C	-0.606045	0.561895	0.500017
C67	C	-1.107713	-0.021668	0.000024
C68	C	-0.607713	0.478332	0.500024
N69	N	-1.056582	0.232508	-0.248761
N70	N	-0.556582	0.732508	0.251239
C71	C	-1.203872	0.498041	-0.000005
C72	C	-0.703872	0.998041	0.499995
C73	C	-1.202302	0.576554	0.000004
C74	C	-0.702302	1.076554	0.500004
C75	C	-1.115627	0.583191	0.000007
C76	C	-0.615627	1.083191	0.500007
C77	C	-1.030519	0.511308	0.000012
C78	C	-0.530519	1.011308	0.500012
C79	C	-1.032092	0.432796	0.000010
C80	C	-0.532092	0.932796	0.500010
C81	C	-1.024175	0.827936	0.000020
C82	C	-0.524175	1.327936	0.500020
C83	C	-1.022609	0.906456	0.000018
C84	C	-0.522609	1.406456	0.500018
C85	C	-1.194385	0.971694	0.000013
C86	C	-0.694385	1.471694	0.500013
C87	C	-1.195958	0.893182	0.000012
C88	C	-0.695958	1.393182	0.500012
C89	C	-1.110852	0.821305	0.000021
C90	C	-0.610852	1.321305	0.500021
C91	C	-1.112556	0.736173	0.000014
C92	C	-0.612556	1.236173	0.500014
C93	C	-1.113921	0.668322	0.000008
C94	C	-0.613921	1.168322	0.500008
N95	N	-1.169906	0.172000	0.248773
N96	N	-0.669906	0.672000	0.748773
C97	C	-1.261186	0.123300	0.399559
C98	C	-0.761186	0.623300	0.899559
C99	C	-1.238282	0.135512	0.299045
C100	C	-0.738282	0.635512	0.799045
C101	C	-1.124404	0.196284	0.299005
C102	C	-0.624404	0.696284	0.799005
C103	C	-1.147294	0.184073	0.399522
C104	C	-0.647294	0.684073	0.899522
C105	C	-1.215687	0.147581	0.449791
C106	C	-0.715687	0.647581	0.949791
C107	C	-1.101795	0.208354	0.449753
C108	C	-0.601795	0.708354	0.949753
C109	C	-1.124688	0.196148	0.550261
C110	C	-0.624688	0.696148	1.050261
C111	C	-1.193080	0.159660	0.600537
C112	C	-0.693080	0.659660	1.100537
C113	C	-1.238580	0.135375	0.550299
C114	C	-0.738580	0.635375	1.050299
C115	C	-1.033408	0.244851	0.399482
C116	C	-0.533408	0.744851	0.899482
C117	C	-0.987909	0.269133	0.449713
C118	C	-0.487909	0.769133	0.949713
C119	C	-1.010796	0.256921	0.550223
C120	C	-0.510796	0.756921	1.050223
C121	C	-1.079188	0.220433	0.600500
C122	C	-0.579188	0.720433	1.100500
C123	C	-0.965297	0.281206	0.600462
C124	C	-0.465297	0.781206	1.100462
C125	C	-0.988190	0.268999	0.700970
C126	C	-0.488190	0.768999	1.200970
C127	C	-1.102081	0.208226	0.701007
C128	C	-0.602081	0.708226	1.201007
H129	H	-0.847785	0.250520	-0.000003
H130	H	-0.347785	0.750520	0.499997
F131	F	-0.938276	0.518372	0.000026
F132	F	-0.438276	1.018372	0.500026
F133	F	-0.939780	0.294859	0.754433
F134	F	-0.439780	0.794859	1.254433
F135	F	-1.009052	0.257850	0.292511
F136	F	-0.509052	0.757850	0.792511
F137	F	-0.933598	0.751448	0.000032
F138	F	-0.433598	1.251448	0.500032
H139	H	-0.932226	0.298848	0.408771
H140	H	-0.432226	0.798848	0.908771
H141	H	-0.909618	0.310925	0.559517
H142	H	-0.409618	0.810925	1.059517
H143	H	-0.420018	0.415516	0.000005
H144	H	0.079982	0.915516	0.500005
F145	F	-1.286718	0.109670	0.245588
F146	F	-0.786718	0.609670	0.745588
F147	F	-0.749605	0.449564	-0.000017
F148	F	-0.249605	0.949564	0.499983
F149	F	-0.827585	0.327200	0.000006
F150	F	-0.327585	0.827200	0.500006
H151	H	-1.211720	0.149724	0.682377
H152	H	-0.711720	0.649724	1.182377
F153	F	-0.363553	0.132755	0.000027
F154	F	0.136447	0.632755	0.500027
H155	H	-0.598381	0.461997	-0.000009
H156	H	-0.098381	0.961997	0.499991
H157	H	-1.316868	0.093573	0.440491
H158	H	-0.816868	0.593573	0.940491
F159	F	-0.398907	0.077295	0.000024
F160	F	0.101093	0.577295	0.500024
F161	F	-1.284965	1.048197	0.000006
F162	F	-0.784965	1.548197	0.500006
H163	H	-1.266536	0.887786	0.000004
H164	H	-0.766536	1.387786	0.500004
F165	F	-0.476873	-0.045059	0.000033
F166	F	0.023127	0.454941	0.500033
F167	F	-1.292879	0.653047	0.000000
F168	F	-0.792879	1.153047	0.500000
F169	F	-0.612964	-0.078720	0.000035
F170	F	-0.112964	0.421280	0.500035
F171	F	-1.051617	0.235121	0.245494
F172	F	-0.551617	0.735121	0.745494
H173	H	-0.806468	-0.011027	0.000004
H174	H	-0.306468	0.488973	0.500004
H175	H	-1.274451	0.492648	-0.000013
H176	H	-0.774451	0.992648	0.499987
H177	H	-0.952023	0.911852	0.000019
H178	H	-0.452023	1.411852	0.500019
H179	H	-1.157763	0.178500	0.741940
H180	H	-0.657763	0.678500	1.241940
F181	F	-0.941515	0.356299	0.000015
F182	F	-0.441515	0.856299	0.500015
H183	H	-1.294261	0.105648	0.591231
H184	H	-0.794261	0.605648	1.091231
