data_functionalizedCrystal
_audit_creation_method	'MofGen! by Chris Wilmer'
_symmetry_space_group_name_H-M	'P1'
_symmetry_Int_Tables_number	1
_symmetry_cell_setting	triclinic
loop_
_symmetry_equiv_pos_as_xyz
  x,y,z
_cell_length_a	12.645330
_cell_length_b	12.645331
_cell_length_c	19.805399
_cell_angle_alpha	89.985847
_cell_angle_beta	89.978279
_cell_angle_gamma	90.018103
loop_
_atom_site_label
_atom_site_type_symbol
_atom_site_fract_x
_atom_site_fract_y
_atom_site_fract_z
Zn1	Zn	-0.422052	1.620691	-0.382649
Zn2	Zn	-0.599331	1.620584	-0.269473
Zn3	Zn	-0.422083	1.443417	-0.269485
Zn4	Zn	-0.599275	1.443387	-0.382630
O5	O	-0.510685	1.532020	-0.326059
O6	O	-0.445579	1.769024	-0.367639
O7	O	-0.575854	1.597051	-0.174758
O8	O	-0.273732	1.466990	-0.284509
O9	O	-0.575825	1.768946	-0.284489
O10	O	-0.273709	1.597232	-0.367651
O11	O	-0.445631	1.466887	-0.174766
O12	O	-0.445578	1.295066	-0.284491
O13	O	-0.575731	1.466939	-0.477349
O14	O	-0.575760	1.295044	-0.367618
O15	O	-0.445526	1.597203	-0.477363
O16	O	-0.747671	1.597022	-0.284470
O17	O	-0.747630	1.466836	-0.367606
C18	C	-0.510667	1.256590	-0.326054
C19	C	-0.510685	1.138760	-0.326068
C20	C	-0.592722	1.093900	-0.378287
C21	C	-0.593059	0.971340	-0.378132
C22	C	-0.540517	0.970814	-0.254650
C23	C	-0.541096	1.093412	-0.254952
C24	C	-0.398641	1.093612	-0.344643
C25	C	-0.399260	0.971007	-0.346215
C26	C	-0.786115	1.531943	-0.326050
C27	C	-0.903945	1.532006	-0.326068
C28	C	-1.071528	1.450444	-0.378531
C29	C	-0.948968	1.450027	-0.378362
C30	C	-0.948533	1.501769	-0.254738
C31	C	-1.071132	1.501271	-0.255056
C32	C	-1.071035	1.644306	-0.344358
C33	C	-0.948428	1.643617	-0.345918
C34	C	-0.234180	1.532126	-0.326084
C35	C	-0.116350	1.532172	-0.326094
C36	C	-0.510619	1.532079	-0.502602
C37	C	-0.510590	1.532105	-0.577834
C38	C	-0.510704	1.808525	-0.326065
C39	C	-0.510713	1.926355	-0.326067
C40	C	-0.442789	1.599935	-0.613187
C41	C	-0.442758	1.599946	-0.683875
C42	C	-0.510535	1.532131	-0.719210
C43	C	-0.578339	1.464293	-0.683852
C44	C	-0.578363	1.464278	-0.613165
C45	C	-0.578240	1.464353	-0.968926
C46	C	-0.578212	1.464376	-1.039618
C47	C	-0.442635	1.600021	-1.039636
C48	C	-0.442659	1.600006	-0.968949
C49	C	-0.510459	1.532165	-0.933597
C50	C	-0.510490	1.532152	-0.856949
C51	C	-0.510510	1.532148	-0.795857
C52	C	-0.510675	1.532022	-0.150203
C53	C	-0.510405	1.532202	-0.074972
H54	H	-0.676092	0.941983	-0.365808
N55	N	-0.369564	1.673153	-0.930837
H56	H	-0.326605	1.716125	-0.963960
H57	H	-0.320514	1.630013	-0.901511
N58	N	-1.110499	1.475260	-0.448822
H59	H	-1.151908	1.413079	-0.466858
H60	H	-1.048064	1.489631	-0.479292
N61	N	-0.910230	1.339916	-0.362330
H62	H	-0.972795	1.291461	-0.355341
H63	H	-0.866060	1.341809	-0.319872
H64	H	-1.099822	1.419300	-0.239583
N65	N	-0.463799	0.932232	-0.201693
H66	H	-0.408855	0.885448	-0.223540
H67	H	-0.503387	0.890645	-0.166224
H68	H	-0.387425	1.655257	-1.068427
N69	N	-0.909025	1.475070	-0.448423
H70	H	-0.829154	1.474841	-0.448447
H71	H	-0.935451	1.547115	-0.462547
N72	N	-0.651317	1.391230	-1.077731
H73	H	-0.694271	1.348248	-1.044611
H74	H	-0.608146	1.342203	-1.107063
H75	H	-0.633563	1.409033	-0.584382
H76	H	-0.387550	1.655182	-0.712656
N77	N	-0.702080	1.134653	-0.362164
H78	H	-0.730076	1.176143	-0.401900
H79	H	-0.698629	1.182005	-0.321166
N80	N	-1.110439	1.576677	-0.201538
H81	H	-1.083661	1.650286	-0.211557
H82	H	-1.083673	1.553241	-0.155887
H83	H	-0.633462	1.409128	-0.940151
N84	N	-0.909913	1.578112	-0.201567
H85	H	-0.863028	1.633165	-0.223258
H86	H	-0.868421	1.538260	-0.166205
H87	H	-0.483897	1.123087	-0.214710
N88	N	-0.567440	0.931513	-0.448116
H89	H	-0.555936	0.993599	-0.479361
H90	H	-0.627908	0.886971	-0.465465
N91	N	-0.907989	1.394325	-0.233864
H92	H	-0.860751	1.365083	-0.270504
H93	H	-0.969731	1.344949	-0.226539
H94	H	-0.633520	1.409074	-0.712627
N95	N	-1.111894	1.680869	-0.412080
H96	H	-1.089604	1.628999	-0.448146
H97	H	-1.081819	1.752970	-0.422730
N98	N	-0.568366	1.132955	-0.448646
H99	H	-0.503921	1.180114	-0.447356
H100	H	-0.630734	1.174259	-0.466486
N101	N	-1.112444	1.341010	-0.362714
H102	H	-1.192228	1.340873	-0.365081
H103	H	-1.089172	1.319905	-0.315834
H104	H	-0.919282	1.666421	-0.398413
H105	H	-1.100019	1.705195	-0.306166
N106	N	-0.649560	1.131262	-0.234154
H107	H	-0.696548	1.068308	-0.224878
H108	H	-0.681147	1.175114	-0.271696
H109	H	-0.621515	0.940086	-0.238683
N110	N	-0.362558	1.134602	-0.412462
H111	H	-0.418484	1.182861	-0.431833
H112	H	-0.350666	1.073124	-0.444106
H113	H	-0.334913	0.940386	-0.310984
N114	N	-0.369464	0.932523	-0.415834
H115	H	-0.427909	0.886356	-0.434251
H116	H	-0.301811	0.890312	-0.413105
N117	N	-0.317679	1.132036	-0.294272
H118	H	-0.353344	1.178461	-0.259586
H119	H	-0.261300	1.173965	-0.318553
H120	H	-0.387601	1.655161	-0.584422
N121	N	-0.907824	1.728531	-0.299019
H122	H	-0.859806	1.695706	-0.264082
H123	H	-0.969491	1.763863	-0.275756
