data_functionalizedCrystal
_audit_creation_method	'MofGen! by Chris Wilmer'
_symmetry_space_group_name_H-M	'P1'
_symmetry_Int_Tables_number	1
_symmetry_cell_setting	triclinic
loop_
_symmetry_equiv_pos_as_xyz
  x,y,z
_cell_length_a	11.169417
_cell_length_b	16.120531
_cell_length_c	11.169409
_cell_angle_alpha	87.142764
_cell_angle_beta	89.980176
_cell_angle_gamma	87.066981
loop_
_atom_site_label
_atom_site_type_symbol
_atom_site_fract_x
_atom_site_fract_y
_atom_site_fract_z
Zn1	Zn	1.810559	0.331818	-0.702676
Zn2	Zn	2.310559	0.831818	-0.202676
Zn3	Zn	1.800194	0.471261	-0.512135
Zn4	Zn	2.300194	0.971261	-0.012135
Zn5	Zn	1.609842	0.331869	-0.502014
Zn6	Zn	2.109842	0.831869	-0.002014
Zn7	Zn	1.599603	0.471193	-0.712775
Zn8	Zn	2.099603	0.971193	-0.212775
O9	O	1.705049	0.401535	-0.607400
O10	O	2.205049	0.901535	-0.107400
O11	O	1.977133	0.350323	-0.677410
O12	O	2.477133	0.850323	-0.177410
O13	O	1.774890	0.452820	-0.342846
O14	O	2.274890	0.952820	0.157154
O15	O	1.645090	0.215197	-0.520171
O16	O	2.145090	0.715197	-0.020171
O17	O	1.969518	0.452771	-0.537420
O18	O	2.469518	0.952771	-0.037420
O19	O	1.792557	0.215160	-0.667596
O20	O	2.292557	0.715160	-0.167596
O21	O	1.635039	0.350409	-0.335411
O22	O	2.135039	0.850409	0.164589
O23	O	1.440534	0.350344	-0.529963
O24	O	1.940534	0.850344	-0.029963
O25	O	1.627640	0.452655	-0.879381
O26	O	2.127640	0.952655	-0.379381
O27	O	1.433012	0.452705	-0.684808
O28	O	1.933012	0.952705	-0.184808
O29	O	1.782629	0.350257	-0.871962
O30	O	2.282629	0.850257	-0.371962
O31	O	1.764962	0.587917	-0.547212
O32	O	2.264962	1.087917	-0.047212
O33	O	1.617588	0.587867	-0.694621
O34	O	2.117588	1.087867	-0.194621
C35	C	1.393226	0.401523	-0.607384
C36	C	1.893226	0.901523	-0.107384
C37	C	1.259824	0.401538	-0.607407
C38	C	1.759824	0.901538	-0.107407
C39	C	1.689072	0.618142	-0.623137
C40	C	2.189072	1.118142	-0.123137
C41	C	1.682346	0.710808	-0.629909
C42	C	2.182346	1.210808	-0.129909
C43	C	1.670074	0.880468	-0.642299
C44	C	2.170074	1.380468	-0.142299
C45	C	1.740069	0.921762	-0.572433
C46	C	2.240069	1.421762	-0.072433
C47	C	1.733241	1.016167	-0.579327
C48	C	2.233241	1.516167	-0.079327
C49	C	1.676901	0.786055	-0.635407
C50	C	2.176901	1.286055	-0.135407
C51	C	2.018091	0.401549	-0.607417
C52	C	2.518091	0.901549	-0.107417
C53	C	2.151490	0.401554	-0.607424
C54	C	2.651490	0.901554	-0.107424
C55	C	1.705148	0.401443	-0.920436
C56	C	2.205148	0.901443	-0.420436
C57	C	1.705190	0.401403	-1.053833
C58	C	2.205190	0.901403	-0.553833
C59	C	1.721079	1.184083	-0.591606
C60	C	2.221079	1.684083	-0.091606
C61	C	1.727801	1.091418	-0.584819
C62	C	2.227801	1.591418	-0.084819
C63	C	1.705024	0.401568	-0.295578
C64	C	2.205024	0.901568	0.204422
C65	C	1.705232	0.401372	-0.162164
C66	C	2.205232	0.901372	0.337836
H67	H	1.805121	0.886215	-0.507442
H68	H	2.305121	1.386215	-0.007442
H69	H	1.605026	0.916013	-0.707283
H70	H	2.105026	1.416013	-0.207283
