data_functionalizedCrystal
_audit_creation_method	'MofGen! by Chris Wilmer'
_symmetry_space_group_name_H-M	'P1'
_symmetry_Int_Tables_number	1
_symmetry_cell_setting	triclinic
loop_
_symmetry_equiv_pos_as_xyz
  x,y,z
_cell_length_a	19.121063
_cell_length_b	19.121102
_cell_length_c	19.120904
_cell_angle_alpha	90.088173
_cell_angle_beta	85.258387
_cell_angle_gamma	89.873098
loop_
_atom_site_label
_atom_site_type_symbol
_atom_site_fract_x
_atom_site_fract_y
_atom_site_fract_z
Zn1	Zn	-0.343506	-1.039579	0.456040
Zn2	Zn	-0.456149	-1.039493	0.343386
Zn3	Zn	-0.333518	-0.927792	0.333417
Zn4	Zn	-0.455677	-0.917325	0.455570
O5	O	-0.397212	-0.981047	0.397103
O6	O	-0.362826	-1.137479	0.445465
O7	O	-0.435899	-1.029020	0.243797
O8	O	-0.236577	-0.947038	0.345708
O9	O	-0.445584	-1.137415	0.362699
O10	O	-0.243915	-1.029167	0.435798
O11	O	-0.345802	-0.946954	0.236473
O12	O	-0.345345	-0.828493	0.345252
O13	O	-0.444780	-0.929198	0.553899
O14	O	-0.435094	-0.820803	0.434997
O15	O	-0.362368	-1.019018	0.554244
O16	O	-0.554352	-1.018870	0.362243
O17	O	-0.554005	-0.929114	0.444664
C18	C	-0.389085	-0.799261	0.388992
C19	C	-0.385626	-0.721490	0.385539
C20	C	-0.579659	-0.972865	0.404501
C21	C	-0.657714	-0.969428	0.407691
C22	C	-0.404635	-0.972950	0.580263
C23	C	-0.407799	-0.969500	0.658315
C24	C	-0.694545	-1.014577	0.366317
C25	C	-0.767887	-1.011348	0.369323
C26	C	-0.804396	-0.962966	0.413699
C27	C	-0.767560	-0.917815	0.455078
C28	C	-0.694220	-0.921048	0.452076
C29	C	-1.025828	-0.950869	0.424912
C30	C	-1.099173	-0.947638	0.427909
C31	C	-1.099494	-1.041173	0.342155
C32	C	-1.026153	-1.044399	0.339154
C33	C	-0.989323	-0.999250	0.380535
C34	C	-0.879363	-0.959663	0.416770
C35	C	-0.914358	-1.002557	0.377467
C36	C	-0.214054	-0.989280	0.389693
C37	C	-0.136003	-0.992788	0.386535
C38	C	-0.405372	-1.163544	0.405246
C39	C	-0.408849	-1.241313	0.408717
C40	C	-0.430793	-0.680968	0.430575
C41	C	-0.427534	-0.607894	0.427334
C42	C	-0.379110	-0.575344	0.379053
C43	C	-0.333937	-0.615872	0.334016
C44	C	-0.337194	-0.688944	0.337261
C45	C	-0.366933	-0.354913	0.366924
C46	C	-0.363681	-0.281835	0.363681
C47	C	-0.457277	-0.273863	0.457000
C48	C	-0.460532	-0.346937	0.460238
C49	C	-0.415357	-0.387458	0.415203
C50	C	-0.375778	-0.500651	0.375738
C51	C	-0.418686	-0.462149	0.418523
C52	C	-0.389769	-0.989156	0.214655
C53	C	-0.386414	-0.992751	0.136602
C54	C	-0.366379	-1.014640	0.695165
C55	C	-0.369348	-1.011390	0.768503
C56	C	-0.413741	-0.963001	0.804990
C57	C	-0.455162	-0.917856	0.768135
C58	C	-0.452188	-0.921103	0.694798
C59	C	-0.424862	-0.950853	1.026410
C60	C	-0.427833	-0.947610	1.099752
C61	C	-0.342019	-1.041143	1.100115
C62	C	-0.339052	-1.044390	1.026777
C63	C	-0.380470	-0.999242	0.989928
C64	C	-0.416779	-0.959679	0.879953
C65	C	-0.377429	-1.002561	0.914966
H66	H	-0.664824	-1.053972	0.330178
H67	H	-0.464315	-0.574904	0.464006
H68	H	-1.128897	-0.908248	0.464059
H69	H	-0.341281	-1.041956	0.885255
Cl70	Cl	-0.491676	-0.721880	0.491270
H71	H	-0.300410	-0.721937	0.300591
Cl72	Cl	-0.317308	-1.068171	0.814828
Cl73	Cl	-0.273056	-0.574952	0.273324
Cl74	Cl	-0.283243	-1.105224	0.980913
H75	H	-0.336353	-0.474141	0.336426
Cl76	Cl	-0.476931	-0.894095	0.980095
H77	H	-0.491305	-0.878454	0.797848
H78	H	-0.324240	-0.255336	0.324369
H79	H	-0.308298	-1.077899	1.130125
Cl80	Cl	-0.310139	-0.405844	0.310310
H81	H	-0.330232	-1.054046	0.665463
H82	H	-0.463985	-0.908204	1.129457
H83	H	-0.494055	-0.240863	0.493666
Cl84	Cl	-0.479560	-0.503070	0.479216
H85	H	-0.499966	-0.373433	0.499552
Cl86	Cl	-0.814186	-1.068113	0.317309
Cl87	Cl	-0.813458	-0.856995	0.510870
Cl88	Cl	-0.504258	-0.864350	0.648472
Cl89	Cl	-0.980262	-1.105234	0.283375
Cl90	Cl	-0.472588	-0.898852	0.925828
Cl91	Cl	-1.145798	-1.097932	0.290141
H92	H	-0.995847	-0.914106	0.458605
Cl93	Cl	-0.647918	-0.864288	0.504093
H94	H	-0.884631	-1.041952	0.341339
H95	H	-0.909097	-0.920269	0.452900
