data_functionalizedCrystal
_audit_creation_method	'MofGen! by Chris Wilmer'
_symmetry_space_group_name_H-M	'P1'
_symmetry_Int_Tables_number	1
_symmetry_cell_setting	triclinic
loop_
_symmetry_equiv_pos_as_xyz
  x,y,z
_cell_length_a	19.805407
_cell_length_b	16.625539
_cell_length_c	19.805405
_cell_angle_alpha	89.968169
_cell_angle_beta	90.023727
_cell_angle_gamma	89.980237
loop_
_atom_site_label
_atom_site_type_symbol
_atom_site_fract_x
_atom_site_fract_y
_atom_site_fract_z
Zn1	Zn	1.034749	-0.455872	-0.269510
Zn2	Zn	1.034660	-0.321031	-0.382704
Zn3	Zn	0.921560	-0.321055	-0.269529
Zn4	Zn	0.921527	-0.455823	-0.382658
O5	O	0.978124	-0.388445	-0.326100
O6	O	1.129453	-0.437996	-0.284537
O7	O	1.019633	-0.208202	-0.367718
O8	O	0.936625	-0.338969	-0.174810
O9	O	1.129388	-0.338929	-0.367700
O10	O	1.019785	-0.438019	-0.174796
O11	O	0.936539	-0.208219	-0.284569
O12	O	0.826839	-0.338921	-0.284524
O13	O	0.936570	-0.568662	-0.367621
O14	O	0.826815	-0.437935	-0.367639
O15	O	1.019753	-0.568698	-0.284493
O16	O	1.019601	-0.338881	-0.477414
O17	O	0.936483	-0.437912	-0.477380
C18	C	0.802268	-0.388426	-0.326079
C19	C	0.727036	-0.388436	-0.326086
C20	C	0.691726	-0.440099	-0.282860
C21	C	0.621038	-0.440102	-0.282864
C22	C	0.585660	-0.388446	-0.326097
C23	C	0.620975	-0.336778	-0.369325
C24	C	0.691662	-0.336771	-0.369318
C25	C	0.335901	-0.336802	-0.369356
C26	C	0.265209	-0.336815	-0.369361
C27	C	0.265277	-0.440133	-0.282901
C28	C	0.335965	-0.440127	-0.282894
C29	C	0.371273	-0.388456	-0.326119
C30	C	0.447921	-0.388452	-0.326114
C31	C	0.509013	-0.388453	-0.326106
C32	C	0.978168	-0.598754	-0.326050
C33	C	0.978186	-0.688375	-0.326028
C34	C	0.978218	-1.016551	-0.325952
C35	C	0.978207	-0.925243	-0.325976
C36	C	0.978202	-0.852466	-0.325991
C37	C	0.978191	-0.761152	-0.326013
C38	C	1.154666	-0.388465	-0.326122
C39	C	1.229898	-0.388474	-0.326131
C40	C	0.978048	-0.388406	-0.501956
C41	C	0.978077	-0.388416	-0.577188
C42	C	0.978119	-0.178954	-0.326102
C43	C	0.978231	-0.089334	-0.325932
C44	C	1.021399	-0.336905	-0.612528
C45	C	1.021427	-0.336923	-0.683216
C46	C	0.978130	-0.388449	-0.718564
C47	C	0.934807	-0.439966	-0.683219
C48	C	0.934782	-0.439951	-0.612532
C49	C	0.934907	-0.440026	-0.968293
C50	C	0.934933	-0.440034	-1.038985
C51	C	1.021552	-0.336997	-1.038976
C52	C	1.021527	-0.336983	-0.968289
C53	C	0.978206	-0.388502	-0.932951
C54	C	0.978177	-0.388484	-0.856303
C55	C	0.978156	-0.388464	-0.795211
C56	C	0.978219	-0.388502	-0.149557
C57	C	0.978259	-0.388526	-0.074325
H58	H	0.720410	-0.294701	-0.404517
H59	H	0.236407	-0.294747	-0.404569
H60	H	0.899677	-0.481999	-1.067763
C61	C	0.582824	-0.496283	-0.235906
C62	C	0.628936	-0.541537	-0.198058
C63	C	0.593758	-0.593307	-0.154797
H64	H	0.555247	-0.465596	-0.206323
H65	H	0.555266	-0.531403	-0.261823
H66	H	0.656482	-0.506422	-0.172143
H67	H	0.656514	-0.572240	-0.227624
H68	H	0.566200	-0.628427	-0.180714
H69	H	0.566182	-0.562614	-0.125218
H70	H	0.625039	-0.624023	-0.129117
H71	H	1.056653	-0.294943	-0.583752
H72	H	0.364641	-0.294729	-0.404553
H73	H	0.720526	-0.482166	-0.247656
C74	C	0.887979	-0.496054	-0.929900
C75	C	0.926258	-0.547790	-0.889272
C76	C	0.883048	-0.599424	-0.853901
H77	H	0.858478	-0.465269	-0.902311
H78	H	0.862209	-0.526783	-0.961059
H79	H	0.952016	-0.517065	-0.858116
H80	H	0.955758	-0.578593	-0.916844
H81	H	0.857278	-0.630153	-0.885060
H82	H	0.853549	-0.568632	-0.826315
H83	H	0.909014	-0.634538	-0.826335
H84	H	0.592164	-0.294715	-0.404524
H85	H	0.364766	-0.482193	-0.247691
C86	C	1.068486	-0.280904	-0.721462
C87	C	1.106382	-0.235758	-0.675377
C88	C	1.149735	-0.184136	-0.710584
H89	H	1.098036	-0.311693	-0.748998
H90	H	1.042634	-0.245709	-0.749065
H91	H	1.132232	-0.270949	-0.647786
H92	H	1.076850	-0.204953	-0.647840
H93	H	1.123883	-0.148941	-0.738187
H94	H	1.179280	-0.214931	-0.738118
H95	H	1.175448	-0.153493	-0.679321
C96	C	0.226819	-0.496142	-0.235989
C97	C	0.157342	-0.485079	-0.245231
C98	C	0.121896	-0.536652	-0.202025
H99	H	0.238338	-0.550326	-0.245911
H100	H	0.238377	-0.484433	-0.190484
H101	H	0.145789	-0.496793	-0.290726
H102	H	0.145803	-0.430905	-0.235304
H103	H	0.133454	-0.524943	-0.156519
H104	H	0.133421	-0.590833	-0.211950
H105	H	0.074752	-0.529148	-0.208285
H106	H	0.899506	-0.481898	-0.583760
C107	C	0.887883	-0.496045	-0.721560
C108	C	0.902591	-0.575835	-0.704321
C109	C	0.859383	-0.627517	-0.739632
H110	H	0.842383	-0.484302	-0.710046
H111	H	0.894107	-0.488729	-0.768727
H112	H	0.896361	-0.583148	-0.657165
H113	H	0.948083	-0.587604	-0.715836
H114	H	0.865607	-0.620202	-0.786799
H115	H	0.813885	-0.615767	-0.728116
H116	H	0.869360	-0.681661	-0.727945
H117	H	1.056781	-0.295023	-0.939511
H118	H	1.056828	-0.295050	-1.067757
