data_functionalizedCrystal
_audit_creation_method	'MofGen! by Chris Wilmer'
_symmetry_space_group_name_H-M	'P1'
_symmetry_Int_Tables_number	1
_symmetry_cell_setting	triclinic
loop_
_symmetry_equiv_pos_as_xyz
  x,y,z
_cell_length_a	21.295418
_cell_length_b	29.839131
_cell_length_c	29.839125
_cell_angle_alpha	90.017709
_cell_angle_beta	90.031451
_cell_angle_gamma	90.057233
loop_
_atom_site_label
_atom_site_type_symbol
_atom_site_fract_x
_atom_site_fract_y
_atom_site_fract_z
Zn1	Zn	0.962232	-0.178727	0.254239
Zn2	Zn	0.962137	-0.253839	0.179109
Zn3	Zn	0.856977	-0.178744	0.179096
Zn4	Zn	0.856904	-0.253851	0.254185
O5	O	0.909562	-0.216290	0.216657
O6	O	1.050308	-0.188678	0.244300
O7	O	0.948178	-0.243880	0.116240
O8	O	0.871010	-0.115875	0.189081
O9	O	1.050239	-0.243862	0.189103
O10	O	0.948340	-0.115862	0.244288
O11	O	0.870918	-0.188708	0.116230
O12	O	0.768878	-0.188720	0.189028
O13	O	0.870885	-0.243884	0.317059
O14	O	0.768825	-0.243901	0.244196
O15	O	0.948269	-0.188690	0.317099
O16	O	0.948107	-0.316708	0.189050
O17	O	0.870793	-0.316717	0.244208
C18	C	0.746011	-0.216314	0.216605
C19	C	0.676043	-0.216335	0.216594
C20	C	0.909449	-0.333013	0.216635
C21	C	0.909458	-0.382947	0.216640
C22	C	0.643165	-0.245105	0.245276
C23	C	0.577422	-0.245094	0.245297
C24	C	0.544560	-0.216317	0.216626
C25	C	0.577446	-0.187541	0.187941
C26	C	0.643188	-0.187550	0.187925
N27	N	0.441297	-0.212799	0.177333
N28	N	0.378846	-0.212794	0.177349
C29	C	0.346486	-0.216289	0.216674
N30	N	0.378936	-0.219799	0.255982
N31	N	0.441393	-0.219807	0.255964
C32	C	0.473275	-0.216305	0.216641
C33	C	0.242322	-0.245049	0.245381
C34	C	0.176578	-0.245035	0.245402
C35	C	0.176604	-0.187484	0.188042
C36	C	0.242346	-0.187496	0.188025
C37	C	0.275201	-0.216281	0.216694
C38	C	0.949893	-0.692573	0.187978
C39	C	0.949971	-0.880246	0.187996
O40	O	0.984260	-0.904496	0.163609
N41	N	0.909693	-0.903732	0.216691
C42	C	0.869396	-0.880297	0.245386
O43	O	0.835144	-0.904580	0.269796
C44	C	0.869322	-0.692625	0.245370
C45	C	0.909598	-0.669141	0.216670
C46	C	0.990166	-0.669090	0.159280
C47	C	0.990144	-0.622174	0.159275
C48	C	0.949848	-0.598742	0.187966
C49	C	0.909575	-0.622226	0.216664
C50	C	0.829029	-0.669191	0.274067
C51	C	0.829015	-0.622270	0.274062
C52	C	0.869291	-0.598786	0.245361
C53	C	0.869258	-0.551879	0.245350
N54	N	0.909536	-0.528393	0.216655
C55	C	0.949831	-0.551825	0.187963
C56	C	0.869437	-0.978828	0.245391
C57	C	0.869454	-1.025746	0.245395
C58	C	0.950030	-1.025691	0.188005
C59	C	0.950009	-0.978773	0.188000
C60	C	0.909714	-0.955342	0.216696
C61	C	0.949781	-0.453299	0.187953
C62	C	0.949753	-0.406379	0.187948
C63	C	0.869180	-0.406437	0.245339
C64	C	0.869205	-0.453353	0.245343
C65	C	0.909510	-0.476782	0.216648
O66	O	0.834992	-0.527600	0.269728
O67	O	0.984088	-0.527534	0.163563
C68	C	0.949915	-0.739489	0.187984
C69	C	0.909642	-0.762972	0.216682
C70	C	0.869347	-0.739540	0.245373
C71	C	0.909660	-0.809890	0.216685
C72	C	0.949955	-0.833322	0.187993
C73	C	0.990233	-0.809836	0.159298
C74	C	0.990210	-0.762920	0.159292
C75	C	0.829069	-0.763026	0.274069
C76	C	0.829094	-0.809942	0.274072
C77	C	0.869390	-0.833374	0.245380
C78	C	1.073753	-0.216267	0.216709
C79	C	1.143721	-0.216257	0.216731
C80	C	0.909580	-0.216286	0.333835
C81	C	0.909587	-0.216284	0.383770
C82	C	0.909694	-0.099112	0.216689
C83	C	0.909750	-0.049177	0.216703
C84	C	0.909582	-0.216262	0.099934
C85	C	0.909697	-0.216137	0.050000
C86	C	0.949923	-0.187470	0.693437
C87	C	0.949954	-0.187432	0.881110
O88	O	0.984202	-0.162975	0.905395
N89	N	0.909670	-0.216164	0.904555
C90	C	0.869373	-0.244906	0.881079
O91	O	0.835105	-0.269341	0.905326
C92	C	0.869339	-0.244942	0.693407
C93	C	0.909630	-0.216211	0.669964
C94	C	0.990210	-0.158741	0.669994
C95	C	0.990204	-0.158752	0.623079
C96	C	0.949911	-0.187493	0.599606
C97	C	0.909624	-0.216222	0.623049
C98	C	0.829039	-0.273681	0.669931
C99	C	0.829033	-0.273687	0.623010
C100	C	0.869324	-0.244956	0.599568
C101	C	0.869325	-0.244975	0.552660
N102	N	0.909609	-0.216242	0.529215
C103	C	0.949902	-0.187501	0.552688
C104	C	0.869394	-0.244886	0.979609
C105	C	0.869404	-0.244878	1.026527
C106	C	0.949984	-0.187402	1.026555
C107	C	0.949978	-0.187413	0.979637
C108	C	0.909678	-0.216154	0.956165
C109	C	0.949887	-0.187528	0.454162
C110	C	0.949880	-0.187544	0.407243
C111	C	0.869297	-0.245017	0.407219
C112	C	0.869307	-0.245004	0.454134
C113	C	0.909604	-0.216255	0.477605
O114	O	0.835090	-0.269415	0.528346
O115	O	0.984155	-0.163063	0.528432
C116	C	0.949929	-0.187458	0.740352
C117	C	0.909641	-0.216188	0.763795
C118	C	0.869349	-0.244928	0.740322
C119	C	0.909651	-0.216179	0.810713
C120	C	0.949944	-0.187438	0.834186
C121	C	0.990227	-0.158706	0.810741
C122	C	0.990222	-0.158718	0.763825
C123	C	0.829065	-0.273661	0.763767
C124	C	0.829074	-0.273647	0.810683
C125	C	0.869367	-0.244907	0.834155
H126	H	0.669911	-0.268544	0.268621
H127	H	0.149848	-0.164051	0.164700
Br128	Br	0.532792	-0.284142	0.284227
Br129	Br	0.774378	-0.731234	0.313012
Br130	Br	0.774335	-0.312692	0.591158
H131	H	0.796229	-0.297077	0.689010
H132	H	0.269116	-0.164070	0.164666
H133	H	0.669957	-0.164120	0.164568
H134	H	0.550686	-0.164110	0.164598
Br135	Br	0.286915	-0.284111	0.284289
H136	H	0.982692	-0.164147	0.388158
H137	H	0.836578	-0.268293	0.960503
Br138	Br	1.004572	-0.148510	0.486008
H139	H	0.149810	-0.268462	0.268761
H140	H	0.796266	-0.297048	0.829765
Br141	Br	1.004415	-0.374511	0.148994
Br142	Br	1.004481	-0.485089	0.149010
Br143	Br	1.044816	-0.590311	0.120329
H144	H	0.836505	-0.268403	0.473222
Br145	Br	1.044861	-0.700881	0.120337
Br146	Br	1.044916	-0.841646	0.120357
H147	H	0.982793	-0.164001	1.045675
Br148	Br	0.774329	-0.590473	0.313011
H149	H	1.023030	-0.135321	0.744743
H150	H	0.982805	-0.959655	0.164630
H151	H	0.982840	-1.044778	0.164643
H152	H	0.836652	-1.044862	0.268761
Br153	Br	0.774427	-0.841807	0.313025
H154	H	0.836623	-0.959753	0.268760
H155	H	0.796229	-0.688303	0.297436
Br156	Br	1.004660	-0.148420	0.947827
H157	H	0.836411	-0.472474	0.268714
H158	H	0.836370	-0.387352	0.268699
Br159	Br	0.814733	-0.283880	1.058336
Br160	Br	1.044884	-0.119755	0.591271
Br161	Br	1.044909	-0.119735	0.701842
H162	H	1.023007	-0.743804	0.135922
H163	H	1.023037	-0.135306	0.829861
Br164	Br	0.774374	-0.312669	0.731918
Br165	Br	0.814616	-0.284020	0.375354
