data_functionalizedCrystal
_audit_creation_method	'MofGen! by Chris Wilmer'
_symmetry_space_group_name_H-M	'P1'
_symmetry_Int_Tables_number	1
_symmetry_cell_setting	triclinic
loop_
_symmetry_equiv_pos_as_xyz
  x,y,z
_cell_length_a	15.995292
_cell_length_b	15.995350
_cell_length_c	14.472310
_cell_angle_alpha	90.001162
_cell_angle_beta	89.985801
_cell_angle_gamma	83.480495
loop_
_atom_site_label
_atom_site_type_symbol
_atom_site_fract_x
_atom_site_fract_y
_atom_site_fract_z
O1	O	1.111027	0.107689	-0.076861
O2	O	1.611027	0.607689	0.423139
O3	O	0.867245	0.121067	-0.076857
O4	O	1.367245	0.621067	0.423143
O5	O	0.995800	-0.007511	-0.076858
O6	O	1.495800	0.492489	0.423142
O7	O	0.982472	0.236267	-0.076860
O8	O	1.482472	0.736267	0.423140
O9	O	0.995767	-0.007503	0.076824
O10	O	1.495767	0.492497	0.576824
O11	O	0.867212	0.121075	0.076825
O12	O	1.367212	0.621075	0.576825
O13	O	1.110994	0.107696	0.076821
O14	O	1.610994	0.607696	0.576821
Cu15	Cu	0.989100	0.114386	0.090855
Cu16	Cu	1.489100	0.614386	0.590855
Cu17	Cu	0.989139	0.114378	-0.090892
Cu18	Cu	1.489139	0.614378	0.409108
O19	O	0.982439	0.236275	0.076822
O20	O	1.482439	0.736275	0.576822
C21	C	0.836033	0.120527	-0.000016
C22	C	1.336033	0.620527	0.499984
C23	C	0.743080	0.118894	-0.000014
C24	C	1.243080	0.618894	0.499986
C25	C	0.405341	0.112893	-0.000025
C26	C	0.905341	0.612893	0.499975
C27	C	0.428654	0.205697	-0.000368
C28	C	0.928654	0.705697	0.499632
C29	C	0.525329	0.207461	-0.000018
C30	C	1.025329	0.707461	0.499982
C31	C	0.572897	0.115871	-0.000020
C32	C	1.072897	0.615871	0.499980
C33	C	0.543777	0.069477	0.087737
C34	C	1.043777	0.569477	0.587737
C35	C	0.446986	0.068360	0.087807
C36	C	0.946986	0.568360	0.587807
C37	C	0.447168	0.066457	-0.086958
C38	C	0.947168	0.566457	0.413042
C39	C	0.543661	0.069896	-0.088114
C40	C	1.043661	0.569896	0.411886
C41	C	0.667593	0.117549	-0.000014
C42	C	1.167593	0.617549	0.499986
C43	C	0.310646	0.111212	-0.000024
C44	C	0.810646	0.611212	0.499976
C45	C	0.995232	-0.038702	-0.000019
C46	C	1.495232	0.461298	0.499981
C47	C	0.993580	-0.131652	-0.000024
C48	C	1.493580	0.368348	0.499976
C49	C	0.987648	-0.469398	-0.000021
C50	C	1.487648	0.030602	0.499979
C51	C	0.896094	-0.421945	-0.000364
C52	C	1.396094	0.078055	0.499636
C53	C	0.897746	-0.325255	-0.000018
C54	C	1.397746	0.174745	0.499982
C55	C	0.990591	-0.301838	-0.000023
C56	C	1.490591	0.198162	0.499977
C57	C	1.035730	-0.342921	0.087734
C58	C	1.535730	0.157079	0.587734
C59	C	1.033430	-0.439556	0.087808
C60	C	1.533430	0.060444	0.587808
C61	C	1.035359	-0.439923	-0.086958
C62	C	1.535359	0.060077	0.413042
C63	C	1.035337	-0.342978	-0.088117
C64	C	1.535337	0.157022	0.411883
C65	C	0.992259	-0.207141	-0.000021
C66	C	1.492259	0.292859	0.499979
C67	C	0.985983	-0.564095	-0.000017
C68	C	1.485983	-0.064095	0.499983
C69	C	1.142206	0.108237	-0.000023
C70	C	1.642206	0.608237	0.499977
C71	C	1.235159	0.109870	-0.000030
C72	C	1.735159	0.609870	0.499970
C73	C	0.983006	0.267466	-0.000019
C74	C	1.483006	0.767466	0.499981
C75	C	0.984658	0.360416	-0.000020
C76	C	1.484658	0.860416	0.499980
N77	N	0.989078	0.114392	0.218686
N78	N	1.489078	0.614392	0.718686
N79	N	0.989167	0.114365	-0.218722
N80	N	1.489167	0.614365	0.281278
C81	C	0.989138	0.114374	0.592777
C82	C	1.489138	0.614374	1.092777
C83	C	0.920120	0.182943	0.553612
C84	C	1.420120	0.682943	1.053612
C85	C	0.920279	0.183193	0.446524
C86	C	1.420279	0.683193	0.946524
C87	C	0.989108	0.114383	0.407186
C88	C	1.489108	0.614383	0.907186
C89	C	1.076475	0.133447	0.446022
C90	C	1.576475	0.633447	0.946022
C91	C	1.076087	0.133934	0.553143
C92	C	1.576087	0.633934	1.053143
C93	C	0.971568	0.026538	0.553308
C94	C	1.471568	0.526538	1.053308
C95	C	0.969564	0.027124	0.446180
C96	C	1.469564	0.527124	0.946180
C97	C	0.989096	0.114386	0.302298
C98	C	1.489096	0.614386	0.802298
C99	C	0.989155	0.114373	0.697665
C100	C	1.489155	0.614373	1.197665
H101	H	0.562245	0.103675	-0.153037
H102	H	1.062245	0.603675	0.346963
F103	F	0.885561	0.008212	0.413007
F104	F	1.385561	0.508212	0.913007
H105	H	1.102861	-0.471698	-0.087551
H106	H	1.602861	0.028302	0.412449
H107	H	0.418855	0.095461	-0.153473
H108	H	0.918855	0.595461	0.346527
F109	F	1.031008	-0.042695	0.411194
F110	F	1.531008	0.457305	0.911194
F111	F	0.996246	-0.466756	-0.173898
F112	F	1.496246	0.033244	0.326102
F113	F	1.145210	0.069904	0.412717
F114	F	1.645210	0.569904	0.912717
F115	F	0.994717	-0.305814	0.173101
F116	F	1.494717	0.194186	0.673101
F117	F	0.992533	-0.306968	-0.172986
F118	F	1.492533	0.193032	0.327014
F119	F	0.585422	-0.018620	0.091999
F120	F	1.085422	0.481380	0.591999
H121	H	0.931499	0.248375	0.420889
H122	H	1.431499	0.748375	0.920889
H123	H	1.021900	-0.024488	0.578633
H124	H	1.521900	0.475512	1.078633
H125	H	0.931185	0.247758	0.580521
H126	H	1.431185	0.747758	1.080521
F127	F	0.569974	0.111595	0.173104
F128	F	1.069974	0.611595	0.673104
H129	H	0.861997	-0.297380	0.062999
H130	H	1.361997	0.202620	0.562999
F131	F	0.848278	-0.446159	-0.082623
F132	F	1.348278	0.053841	0.417377
F133	F	0.549371	0.255242	0.082350
F134	F	1.049371	0.755242	0.582350
H135	H	0.400671	0.241465	-0.063303
H136	H	0.900671	0.741465	0.436697
F137	F	0.586751	-0.017488	-0.095043
F138	F	1.086751	0.482512	0.404957
F139	F	0.411913	0.110367	0.173551
F140	F	0.911913	0.610367	0.673551
H141	H	1.103940	-0.328809	0.090994
H142	H	1.603940	0.171191	0.590994
H143	H	1.103045	-0.327630	-0.093420
H144	H	1.603045	0.172370	0.406580
H145	H	0.855338	0.171838	0.420269
H146	H	1.355338	0.671838	0.920269
F147	F	0.848335	-0.447823	0.081212
F148	F	1.348335	0.052177	0.581212
F149	F	0.834957	0.168336	0.587302
F150	F	1.334957	0.668336	1.087302
F151	F	0.390706	0.252201	0.081427
F152	F	0.890706	0.752201	0.581427
F153	F	0.550218	0.254950	-0.082243
F154	F	1.050218	0.754950	0.417757
F155	F	0.428883	-0.022831	-0.087734
F156	F	0.928883	0.477169	0.412266
F157	F	0.427963	-0.020575	0.093057
F158	F	0.927963	0.479425	0.593057
F159	F	1.097198	0.216219	0.410944
F160	F	1.597198	0.716219	0.910944
F161	F	0.851366	-0.288097	-0.082243
F162	F	1.351366	0.211903	0.417757
F163	F	0.990367	-0.463466	0.173554
F164	F	1.490367	0.036534	0.673554
H165	H	1.100647	-0.471818	0.091786
H166	H	1.600647	0.028182	0.591786
F167	F	1.096323	0.217662	0.585790
F168	F	1.596323	0.717662	1.085790
F169	F	1.145172	0.071073	0.587007
F170	F	1.645172	0.571073	1.087007
F171	F	0.890091	0.002585	0.588662
F172	F	1.390091	0.502585	1.088662
