data_functionalizedCrystal
_audit_creation_method	'MofGen! by Chris Wilmer'
_symmetry_space_group_name_H-M	'P1'
_symmetry_Int_Tables_number	1
_symmetry_cell_setting	triclinic
loop_
_symmetry_equiv_pos_as_xyz
  x,y,z
_cell_length_a	14.044220
_cell_length_b	13.101039
_cell_length_c	14.044220
_cell_angle_alpha	93.667477
_cell_angle_beta	86.811122
_cell_angle_gamma	93.659868
loop_
_atom_site_label
_atom_site_type_symbol
_atom_site_fract_x
_atom_site_fract_y
_atom_site_fract_z
O1	O	-1.281968	-0.085109	0.225348
O2	O	-0.948635	0.248224	0.558682
O3	O	-0.615302	0.581558	0.892015
O4	O	-1.005298	-0.085135	0.217041
O5	O	-0.671965	0.248198	0.550374
O6	O	-0.338632	0.581532	0.883708
O7	O	-1.139480	-0.085112	0.082860
O8	O	-0.806147	0.248221	0.416193
O9	O	-0.472813	0.581554	0.749526
O10	O	-1.147787	-0.085132	0.359530
O11	O	-0.814454	0.248202	0.692863
O12	O	-0.481120	0.581535	1.026197
O13	O	-1.129854	0.085316	0.092504
O14	O	-0.796521	0.418649	0.425838
O15	O	-0.463188	0.751983	0.759171
O16	O	-0.995673	0.085293	0.226686
O17	O	-0.662339	0.418627	0.560019
O18	O	-0.329006	0.751960	0.893353
O19	O	-1.272343	0.085319	0.234993
O20	O	-0.939009	0.418652	0.568326
O21	O	-0.605676	0.751986	0.901660
Zn22	Zn	-1.132479	0.112365	0.232371
Zn23	Zn	-0.799146	0.445699	0.565704
Zn24	Zn	-0.465813	0.779032	0.899037
Zn25	Zn	-1.145162	-0.112181	0.219663
Zn26	Zn	-0.811828	0.221152	0.552997
Zn27	Zn	-0.478495	0.554485	0.886330
O28	O	-1.138161	0.085296	0.369175
O29	O	-0.804828	0.418630	0.702508
O30	O	-0.471494	0.751963	1.035841
C31	C	-0.964864	0.000076	0.218228
C32	C	-0.631531	0.333409	0.551561
C33	C	-0.298197	0.666743	0.884894
C34	C	-0.858722	0.000066	0.207383
C35	C	-0.525388	0.333400	0.540716
C36	C	-0.192055	0.666733	0.874049
N37	N	-1.123831	0.265612	0.241043
N38	N	-0.790497	0.598946	0.574377
N39	N	-0.457164	0.932279	0.907710
N40	N	-1.153817	-0.265428	0.210984
N41	N	-0.820484	0.067905	0.544317
N42	N	-0.487151	0.401238	0.877651
C43	C	-1.312777	0.000106	0.233806
C44	C	-0.979444	0.333439	0.567140
C45	C	-0.646111	0.666773	0.900473
C46	C	-1.418920	0.000109	0.244651
C47	C	-1.085587	0.333442	0.577984
C48	C	-0.752253	0.666775	0.911318
C49	C	-0.664383	0.000088	0.187558
C50	C	-0.331049	0.333421	0.520891
C51	C	0.002284	0.666755	0.854224
C52	C	-0.613253	0.000087	0.264472
C53	C	-0.279920	0.333420	0.597805
C54	C	0.053414	0.666754	0.931139
C55	C	-0.505116	0.000099	0.253441
C56	C	-0.171783	0.333432	0.586774
C57	C	0.161551	0.666766	0.920108
C58	C	-0.772529	0.000076	0.198587
C59	C	-0.439196	0.333409	0.531920
C60	C	-0.105863	0.666743	0.865254
C61	C	-1.131031	0.000102	0.052060
C62	C	-0.797698	0.333435	0.385393
C63	C	-0.464365	0.666769	0.718727
C64	C	-1.120187	0.000102	-0.054083
C65	C	-0.786854	0.333435	0.279251
C66	C	-0.453520	0.666769	0.612584
C67	C	-1.112065	0.474653	0.252851
C68	C	-0.778731	0.807986	0.586185
C69	C	-0.445398	1.141320	0.919518
C70	C	-1.165580	0.525538	0.199179
C71	C	-0.832247	0.858871	0.532512
C72	C	-0.498914	1.192204	0.865846
C73	C	-1.159034	0.641855	0.205749
C74	C	-0.825700	0.975188	0.539082
C75	C	-0.492367	1.308522	0.872416
C76	C	-1.118610	0.358325	0.246282
C77	C	-0.785277	0.691658	0.579616
C78	C	-0.451944	1.024992	0.912949
C79	C	-1.100362	0.000086	-0.248421
C80	C	-0.767028	0.333419	0.084912
C81	C	-0.433695	0.666752	0.418245
C82	C	-1.177276	0.000090	-0.299551
C83	C	-0.843942	0.333423	0.033782
C84	C	-0.510609	0.666756	0.367116
C85	C	-1.166245	0.000080	-0.407688
C86	C	-0.832911	0.333414	-0.074354
C87	C	-0.499578	0.666747	0.258979
C88	C	-1.111391	0.000095	-0.140275
C89	C	-0.778058	0.333428	0.193059
C90	C	-0.444725	0.666761	0.526392
C91	C	-1.146610	0.000080	0.399974
C92	C	-0.813276	0.333413	0.733307
C93	C	-0.479943	0.666747	1.066641
C94	C	-1.157455	0.000073	0.506116
C95	C	-0.824121	0.333406	0.839450
C96	C	-0.490788	0.666740	1.172783
H97	H	-0.650693	0.000077	0.338605
H98	H	-0.317359	0.333410	0.671938
H99	H	0.015974	0.666744	1.005271
H100	H	-0.626945	0.000099	0.113431
H101	H	-0.293612	0.333432	0.446764
H102	H	0.039722	0.666766	0.780097
H103	H	-1.251413	0.000028	-0.262115
H104	H	-0.918079	0.333361	0.071218
H105	H	-0.584746	0.666694	0.404551
H106	H	-1.216314	0.481744	0.148295
H107	H	-0.882981	0.815077	0.481628
H108	H	-0.549647	1.148411	0.814962
N109	N	-1.048427	0.529598	0.316676
N110	N	-0.715093	0.862931	0.650010
N111	N	-0.381760	1.196264	0.983343
N112	N	-1.043136	0.625379	0.321988
N113	N	-0.709803	0.958712	0.655321
N114	N	-0.376469	1.292046	0.988655
H115	H	-0.998194	0.664196	0.367065
H116	H	-0.664861	0.997529	0.700399
H117	H	-0.331527	1.330863	1.033732
H118	H	-1.026235	0.000076	-0.285859
H119	H	-0.692901	0.333410	0.047475
H120	H	-0.359568	0.666743	0.380808
