data_functionalizedCrystal
_audit_creation_method	'MofGen! by Chris Wilmer'
_symmetry_space_group_name_H-M	'P1'
_symmetry_Int_Tables_number	1
_symmetry_cell_setting	triclinic
loop_
_symmetry_equiv_pos_as_xyz
  x,y,z
_cell_length_a	10.654542
_cell_length_b	10.654550
_cell_length_c	9.730223
_cell_angle_alpha	90.000043
_cell_angle_beta	90.008022
_cell_angle_gamma	84.483476
loop_
_atom_site_label
_atom_site_type_symbol
_atom_site_fract_x
_atom_site_fract_y
_atom_site_fract_z
O1	O	-0.176399	-1.667835	-0.114200
O2	O	-0.193205	-1.302356	-0.114226
O3	O	-0.002062	-1.493503	-0.114190
O4	O	-0.367542	-1.476687	-0.114235
O5	O	-0.002057	-1.493490	0.114389
O6	O	-0.193200	-1.302343	0.114354
O7	O	-0.176394	-1.667822	0.114380
Zn8	Zn	-0.184796	-1.485081	0.150659
Zn9	Zn	-0.184803	-1.485097	-0.150505
O10	O	-0.367537	-1.476675	0.114345
C11	C	-0.191969	-1.255552	0.000061
C12	C	-0.188277	-1.116108	0.000052
C13	C	0.044738	-1.492264	0.000102
C14	C	0.184182	-1.488575	0.000110
C15	C	-0.177631	-1.714626	0.000090
C16	C	-0.181322	-1.854069	0.000091
C17	C	0.394697	-1.597644	0.000126
C18	C	0.263676	-1.601119	0.000126
C19	C	0.235715	-1.372549	0.000108
C20	C	0.366733	-1.369075	0.000118
C21	C	0.585663	-1.477920	0.000071
C22	C	0.446222	-1.481627	0.000120
N23	N	-0.184791	-1.485079	0.356195
C24	C	-0.300819	-1.036620	0.000042
C25	C	-0.297342	-0.905599	0.000066
C26	C	-0.068772	-0.933568	0.000105
C27	C	-0.072250	-1.064586	0.000090
N28	N	-0.184799	-1.485109	-0.356041
C29	C	-0.100189	-1.569748	0.428137
C30	C	-0.100189	-1.569760	0.572020
C31	C	-0.269405	-1.400431	0.572007
C32	C	-0.269397	-1.400413	0.428127
H33	H	0.459414	-1.689291	0.000128
H34	H	0.221732	-1.695592	0.000133
N35	N	0.149995	-1.251150	0.000089
H36	H	0.166694	-1.200583	0.084823
H37	H	0.059206	-1.271042	0.000027
H38	H	0.408684	-1.274594	0.000120
H39	H	-0.031297	-1.638704	0.630591
H40	H	0.025693	-0.891603	0.000144
H41	H	-0.395295	-1.078564	0.000021
N42	N	-0.418726	-0.819864	0.000132
H43	H	-0.492751	-0.872388	0.000130
H44	H	-0.422306	-0.764850	-0.084573
N45	N	0.049140	-1.150333	0.000117
H46	H	0.123170	-1.097815	0.000136
H47	H	0.052679	-1.205301	-0.084622
N48	N	-0.008938	-1.661059	0.350551
H49	H	0.044658	-1.714696	0.417964
H50	H	0.047037	-1.612495	0.290873
H51	H	-0.338291	-1.331500	0.630588
H52	H	-0.338291	-1.331459	0.369548
