data_functionalizedCrystal
_audit_creation_method	'MofGen! by Chris Wilmer'
_symmetry_space_group_name_H-M	'P1'
_symmetry_Int_Tables_number	1
_symmetry_cell_setting	triclinic
loop_
_symmetry_equiv_pos_as_xyz
  x,y,z
_cell_length_a	17.699083
_cell_length_b	10.540539
_cell_length_c	16.176319
_cell_angle_alpha	90.001289
_cell_angle_beta	90.000480
_cell_angle_gamma	96.095747
loop_
_atom_site_label
_atom_site_type_symbol
_atom_site_fract_x
_atom_site_fract_y
_atom_site_fract_z
O1	O	-1.005121	0.160515	0.068618
O2	O	-0.505121	0.660515	0.568618
O3	O	-0.784879	0.181399	0.068647
O4	O	-0.284879	0.681399	0.568647
O5	O	-0.900025	-0.013842	0.068631
O6	O	-0.400025	0.486158	0.568631
O7	O	-0.889975	0.355755	0.068634
O8	O	-0.389975	0.855755	0.568634
O9	O	-0.900011	-0.013842	-0.068862
O10	O	-0.400011	0.486158	0.431138
O11	O	-0.784865	0.181398	-0.068846
O12	O	-0.284865	0.681398	0.431154
O13	O	-1.005108	0.160514	-0.068875
O14	O	-0.505108	0.660514	0.431125
Cu15	Cu	-0.894985	0.170956	-0.081415
Cu16	Cu	-0.394985	0.670956	0.418585
Cu17	Cu	-0.895001	0.170957	0.081187
Cu18	Cu	-0.395001	0.670957	0.581187
O19	O	-0.889962	0.355755	-0.068859
O20	O	-0.389962	0.855755	0.431141
C21	C	-0.756670	0.180650	-0.000096
C22	C	-0.256670	0.680650	0.499904
C23	C	-0.672637	0.178405	-0.000085
C24	C	-0.172637	0.678405	0.499915
C25	C	-0.899264	-0.061131	-0.000114
C26	C	-0.399264	0.438869	0.499886
C27	C	-0.897009	-0.202038	-0.000109
C28	C	-0.397009	0.297962	0.499891
C29	C	-0.624761	0.293007	-0.000084
C30	C	-0.124761	0.793007	0.499916
C31	C	-0.545804	0.290890	-0.000094
C32	C	-0.045804	0.790890	0.499906
C33	C	-0.514725	0.174170	-0.000099
C34	C	-0.014725	0.674170	0.499901
C35	C	-0.562607	0.059559	-0.000103
C36	C	-0.062607	0.559559	0.499897
C37	C	-0.641562	0.061677	-0.000099
C38	C	-0.141562	0.561677	0.499901
C39	C	-0.244188	0.051014	-0.000121
C40	C	0.255812	0.551014	0.499879
C41	C	-0.165226	0.048904	-0.000123
C42	C	0.334774	0.548904	0.499877
C43	C	-0.148430	0.280227	-0.000116
C44	C	0.351570	0.780227	0.499884
C45	C	-0.227386	0.282345	-0.000112
C46	C	0.272614	0.782345	0.499888
C47	C	-0.275261	0.167735	-0.000120
C48	C	0.224739	0.667735	0.499880
C49	C	-0.360875	0.170032	-0.000111
C50	C	0.139125	0.670032	0.499889
C51	C	-0.429112	0.171872	-0.000103
C52	C	0.070888	0.671872	0.499897
C53	C	-0.033316	0.161263	-0.000128
C54	C	0.466684	0.661263	0.499872
C55	C	-0.117349	0.163508	-0.000127
C56	C	0.382651	0.663508	0.499873
C57	C	-0.810610	-0.383885	0.000210
C58	C	-0.310610	0.116115	0.500210
C59	C	-0.812896	-0.237308	-0.000099
C60	C	-0.312896	0.262692	0.499901
C61	C	-0.937481	-0.264436	-0.078630
C62	C	-0.437481	0.235564	0.421370
C63	C	-0.934610	-0.410928	-0.078696
C64	C	-0.434610	0.089072	0.421304
C65	C	-0.936336	-0.411477	0.077660
C66	C	-0.436336	0.088523	0.577660
C67	C	-0.937111	-0.264510	0.078698
C68	C	-0.437111	0.235490	0.578698
C69	C	-0.890722	0.403044	-0.000112
C70	C	-0.390722	0.903044	0.499888
C71	C	-0.892977	0.543951	-0.000111
C72	C	-0.392977	1.043951	0.499889
N73	N	-0.894979	0.170955	-0.195780
N74	N	-0.394979	0.670955	0.304220
C75	C	-0.941294	0.247848	-0.239046
C76	C	-0.441294	0.747848	0.260954
C77	C	-0.941302	0.247843	-0.325593
C78	C	-0.441302	0.747843	0.174407
C79	C	-0.894991	0.170951	-0.368873
C80	C	-0.394991	0.670951	0.131127
C81	C	-0.848674	0.094049	-0.325600
C82	C	-0.348674	0.594049	0.174400
C83	C	-0.848671	0.094048	-0.239055
C84	C	-0.348671	0.594048	0.260945
C85	C	-0.848688	0.094051	-0.674629
C86	C	-0.348688	0.594051	-0.174629
C87	C	-0.848694	0.094061	-0.761180
C88	C	-0.348694	0.594061	-0.261180
C89	C	-0.941320	0.247845	-0.761167
C90	C	-0.441320	0.747845	-0.261167
C91	C	-0.941316	0.247844	-0.674621
C92	C	-0.441316	0.747844	-0.174621
C93	C	-0.895003	0.170938	-0.631357
C94	C	-0.395003	0.670938	-0.131357
C95	C	-0.894996	0.170943	-0.537513
C96	C	-0.394996	0.670943	-0.037513
C97	C	-0.894993	0.170953	-0.462715
C98	C	-0.394993	0.670953	0.037285
N99	N	-0.895013	0.170948	0.195552
N100	N	-0.395013	0.670948	0.695552
H101	H	-0.650060	0.388054	-0.000079
H102	H	-0.150060	0.888054	0.499921
O103	O	-1.014733	-0.475952	-0.083450
O104	O	-0.514733	0.024048	0.416550
H105	H	-1.047602	-0.447985	-0.029197
H106	H	-0.547602	0.052015	0.470803
H107	H	-0.810977	0.031429	-0.639413
H108	H	-0.310977	0.531429	-0.139413
H109	H	-0.777513	-0.413487	-0.055775
H110	H	-0.277513	0.086513	0.444225
H111	H	-0.998437	-0.241410	0.083431
H112	H	-0.498437	0.258590	0.583431
O113	O	-0.894974	-0.447563	-0.156433
O114	O	-0.394974	0.052437	0.343567
H115	H	-0.892539	-0.552345	-0.157254
H116	H	-0.392539	-0.052345	0.342746
O117	O	-0.260910	0.408234	-0.000118
O118	O	0.239090	0.908234	0.499882
H119	H	-0.214353	0.487571	-0.000131
H120	H	0.285647	0.987571	0.499869
O121	O	-0.798713	0.011122	-0.192383
O122	O	-0.298713	0.511122	0.307617
H123	H	-0.766504	-0.042336	-0.237015
H124	H	-0.266504	0.457664	0.262985
O125	O	-0.900235	-0.207336	-0.156027
O126	O	-0.400235	0.292664	0.343973
H127	H	-0.852905	-0.134536	-0.138768
H128	H	-0.352905	0.365464	0.361232
O129	O	-0.766603	-0.420979	0.074794
O130	O	-0.266603	0.079021	0.574794
H131	H	-0.749322	-0.334829	0.112542
H132	H	-0.249322	0.165171	0.612542
O133	O	-0.770698	-0.180097	0.074449
O134	O	-0.270698	0.319903	0.574449
H135	H	-0.798073	-0.221138	0.131596
H136	H	-0.298073	0.278862	0.631596
H137	H	-0.979032	0.310463	-0.796403
H138	H	-0.479032	0.810463	-0.296403
H139	H	-0.999251	-0.243212	-0.081557
H140	H	-0.499251	0.256788	0.418443
O141	O	-0.295814	-0.072601	-0.000128
O142	O	0.204186	0.427399	0.499872
H143	H	-0.332193	-0.077177	0.055908
H144	H	0.167807	0.422823	0.555908
H145	H	-0.810980	0.031442	-0.796416
H146	H	-0.310980	0.531442	-0.296416
O147	O	-0.991246	0.330788	-0.192374
O148	O	-0.491246	0.830788	0.307626
H149	H	-0.955327	0.399094	-0.152952
H150	H	-0.455327	0.899094	0.347048
O151	O	-0.900286	-0.452595	0.156497
O152	O	-0.400286	0.047405	0.656497
H153	H	-0.851056	-0.505265	0.141125
H154	H	-0.351056	-0.005265	0.641125
H155	H	-0.810971	0.031436	-0.360845
H156	H	-0.310971	0.531436	0.139155
O157	O	-0.096787	0.403842	-0.000122
O158	O	0.403213	0.903842	0.499878
H159	H	-0.107903	0.459705	0.055925
H160	H	0.392097	0.959705	0.555925
O161	O	-0.693207	-0.061926	-0.000103
O162	O	-0.193207	0.438074	0.499897
H163	H	-0.682087	-0.117798	0.055938
H164	H	-0.182087	0.382202	0.555938
O165	O	-0.494164	0.414495	-0.000093
O166	O	0.005836	0.914495	0.499907
H167	H	-0.529040	0.496013	-0.000079
H168	H	-0.029040	0.996013	0.499921
O169	O	-0.770420	-0.181206	-0.074780
O170	O	-0.270420	0.318794	0.425220
H171	H	-0.748171	-0.258785	-0.110818
H172	H	-0.248171	0.241215	0.389182
H173	H	-0.139925	-0.046149	-0.000128
H174	H	0.360075	0.453851	0.499872
O175	O	-0.991253	0.330781	-0.372262
O176	O	-0.491253	0.830781	0.127738
H177	H	-1.023447	0.384261	-0.327628
H178	H	-0.523447	0.884261	0.172372
H179	H	-0.537295	-0.035477	-0.000119
H180	H	-0.037295	0.464523	0.499881
H181	H	-0.907499	-0.223109	0.136785
H182	H	-0.407499	0.276891	0.636785
H183	H	-0.997091	-0.459814	0.078180
H184	H	-0.497091	0.040186	0.578180
H185	H	-0.979025	0.310462	-0.639388
H186	H	-0.479025	0.810462	-0.139388
