data_functionalizedCrystal
_audit_creation_method	'MofGen! by Chris Wilmer'
_symmetry_space_group_name_H-M	'P1'
_symmetry_Int_Tables_number	1
_symmetry_cell_setting	triclinic
loop_
_symmetry_equiv_pos_as_xyz
  x,y,z
_cell_length_a	12.759401
_cell_length_b	12.645330
_cell_length_c	12.759393
_cell_angle_alpha	89.968891
_cell_angle_beta	89.979062
_cell_angle_gamma	90.014171
loop_
_atom_site_label
_atom_site_type_symbol
_atom_site_fract_x
_atom_site_fract_y
_atom_site_fract_z
Zn1	Zn	1.606281	-0.421945	-0.594016
Zn2	Zn	1.606179	-0.599246	-0.418334
Zn3	Zn	1.430580	-0.422001	-0.418351
Zn4	Zn	1.430578	-0.599171	-0.593971
O5	O	1.518405	-0.510591	-0.506168
O6	O	1.753289	-0.445472	-0.570723
O7	O	1.582843	-0.575788	-0.271315
O8	O	1.453931	-0.273647	-0.441679
O9	O	1.753213	-0.575734	-0.441650
O10	O	1.583018	-0.273605	-0.570739
O11	O	1.453831	-0.445568	-0.271327
O12	O	1.283559	-0.445496	-0.441636
O13	O	1.453928	-0.575607	-0.740998
O14	O	1.283557	-0.575662	-0.570663
O15	O	1.583016	-0.445400	-0.741031
O16	O	1.582841	-0.747583	-0.441607
O17	O	1.453828	-0.747529	-0.570647
C18	C	1.245437	-0.510578	-0.506147
C19	C	1.128661	-0.510598	-0.506163
C20	C	1.073825	-0.578479	-0.573242
C21	C	0.964101	-0.578483	-0.573263
C22	C	0.964057	-0.442722	-0.439117
C23	C	1.073779	-0.442714	-0.439102
C24	C	1.518352	-0.786021	-0.506143
C25	C	1.518426	-0.903851	-0.506168
C26	C	1.599457	-1.071405	-0.424824
C27	C	1.599721	-0.948844	-0.425023
C28	C	1.548455	-0.948224	-0.616912
C29	C	1.549098	-1.070822	-0.616481
C30	C	1.407332	-1.071183	-0.477858
C31	C	1.407865	-0.948579	-0.475374
C32	C	1.792438	-0.510605	-0.506189
C33	C	1.909215	-0.510610	-0.506199
C34	C	1.518483	-0.510489	-0.780201
C35	C	1.518517	-0.510446	-0.896978
C36	C	1.518486	-0.234086	-0.506216
C37	C	1.518521	-0.116255	-0.506236
C38	C	1.585738	-0.442636	-0.951859
C39	C	1.585756	-0.442590	-1.061583
C40	C	1.451328	-0.578173	-1.061536
C41	C	1.451306	-0.578213	-0.951814
C42	C	1.518387	-0.510616	-0.233200
C43	C	1.518557	-0.510360	-0.116424
H44	H	1.118427	-0.387431	-0.384478
C45	C	1.710118	-1.112904	-0.449899
C46	C	1.731823	-1.232692	-0.449657
C47	C	1.842481	-1.274194	-0.474737
C48	C	1.931434	-1.195909	-0.500060
C49	C	1.909731	-1.076114	-0.500303
C50	C	1.799073	-1.034612	-0.475222
H51	H	1.665973	-1.290650	-0.430910
H52	H	1.858547	-1.362875	-0.474557
H53	H	2.013349	-1.226632	-0.518626
H54	H	1.975581	-1.018156	-0.519049
H55	H	1.783007	-0.945931	-0.475402
H56	H	0.919360	-0.387455	-0.384517
C57	C	1.472927	-1.110906	-0.701224
C58	C	1.411712	-1.031359	-0.769077
C59	C	1.335549	-1.071438	-0.853823
C60	C	1.320601	-1.191064	-0.870716
C61	C	1.381818	-1.270619	-0.802862
C62	C	1.457981	-1.230540	-0.718115
H63	H	1.422776	-0.942798	-0.756573
H64	H	1.290233	-1.012545	-0.904053
H65	H	1.264221	-1.220733	-0.933451
H66	H	1.370754	-1.359181	-0.815365
H67	H	1.503297	-1.289433	-0.667885
C68	C	1.574345	-0.908311	-0.314091
C69	C	1.553696	-0.987499	-0.224702
C70	C	1.528326	-0.946973	-0.113764
C71	C	1.523604	-0.827259	-0.092215
C72	C	1.544254	-0.748063	-0.181606
C73	C	1.569624	-0.788590	-0.292544
H74	H	1.557191	-1.076126	-0.240652
H75	H	1.513040	-1.005599	-0.047591
H76	H	1.504823	-0.797259	-0.010092
H77	H	1.540759	-0.659437	-0.165656
H78	H	1.584910	-0.729963	-0.358717
H79	H	1.118507	-0.633751	-0.627850
C80	C	1.574416	-1.111355	-0.313565
C81	C	1.480171	-1.185194	-0.295268
C82	C	1.455129	-1.225154	-0.184006
C83	C	1.524333	-1.191274	-0.091040
C84	C	1.618585	-1.117431	-0.109334
C85	C	1.643626	-1.077471	-0.220596
H86	H	1.428937	-1.210278	-0.364089
H87	H	1.385358	-1.279818	-0.170464
H88	H	1.505796	-1.220855	-0.008678
H89	H	1.669819	-1.092347	-0.040513
H90	H	1.713398	-1.022807	-0.234138
H91	H	1.682075	-0.919433	-0.443793
H92	H	1.630372	-1.099331	-0.640519
H93	H	0.919460	-0.633756	-0.627887
C94	C	1.377274	-0.909416	-0.365274
C95	C	1.367785	-0.790024	-0.343545
C96	C	1.337203	-0.750856	-0.233443
C97	C	1.316111	-0.831079	-0.145070
C98	C	1.325600	-0.950478	-0.166796
C99	C	1.356182	-0.989647	-0.276899
H100	H	1.383399	-0.730632	-0.408966
H101	H	1.330179	-0.662468	-0.217360
H102	H	1.293472	-0.802084	-0.063565
H103	H	1.309986	-1.009871	-0.101375
H104	H	1.363206	-1.078034	-0.292982
H105	H	1.491300	-0.919075	-0.679196
H106	H	1.396610	-0.633349	-1.106197
C107	C	1.377354	-0.652801	-0.891432
C108	C	1.422829	-0.736053	-0.815980
C109	C	1.348876	-0.810629	-0.755595
C110	C	1.229446	-0.801954	-0.770662
C111	C	1.183964	-0.718699	-0.846117
C112	C	1.257918	-0.644123	-0.906502
H113	H	1.511244	-0.742478	-0.804824
H114	H	1.382545	-0.872260	-0.699738
H115	H	1.174701	-0.857160	-0.725961
H116	H	1.095549	-0.712275	-0.857273
H117	H	1.224248	-0.582492	-0.962359
C118	C	1.657014	-0.906640	-0.649932
C119	C	1.718505	-0.832479	-0.576610
C120	C	1.827067	-0.790898	-0.609623
C121	C	1.874137	-0.823478	-0.715958
C122	C	1.812646	-0.897643	-0.789286
C123	C	1.704084	-0.939224	-0.756274
H124	H	1.683661	-0.808358	-0.497889
H125	H	1.872587	-0.735996	-0.555340
H126	H	1.954501	-0.792697	-0.740396
H127	H	1.847490	-0.921764	-0.868008
H128	H	1.658565	-0.994126	-0.810557
H129	H	1.380025	-1.102199	-0.398510
H130	H	1.344307	-0.917962	-0.530323
C131	C	1.325856	-1.110371	-0.557951
C132	C	1.306482	-1.229757	-0.571753
C133	C	1.225016	-1.268952	-0.651848
C134	C	1.162924	-1.188760	-0.718140
C135	C	1.182296	-1.069366	-0.704339
C136	C	1.263762	-1.030172	-0.624245
H137	H	1.352448	-1.289127	-0.522678
H138	H	1.210675	-1.357335	-0.662064
H139	H	1.102617	-1.217774	-0.777431
H140	H	1.136330	-1.009997	-0.753414
H141	H	1.278103	-0.941788	-0.614029
C142	C	1.659659	-0.368086	-0.891538
C143	C	1.651120	-0.247567	-0.906644
C144	C	1.725040	-0.173012	-0.846326
C145	C	1.807500	-0.218976	-0.770902
C146	C	1.816042	-0.339501	-0.755792
C147	C	1.742122	-0.414056	-0.816110
H148	H	1.590076	-0.213536	-0.962480
H149	H	1.718716	-0.083791	-0.857511
H150	H	1.862220	-0.163786	-0.726251
H151	H	1.877086	-0.373532	-0.699956
H152	H	1.748446	-0.503277	-0.804925
C153	C	1.659703	-0.367999	-1.121951
C154	C	1.779133	-0.376671	-1.106885
C155	C	1.853083	-0.302074	-1.167252
C156	C	1.807602	-0.218807	-1.242684
C157	C	1.688166	-0.210132	-1.257752
C158	C	1.614216	-0.284729	-1.197386
H159	H	1.812807	-0.438313	-1.051043
H160	H	1.941498	-0.308496	-1.156097
H161	H	1.862344	-0.163586	-1.287371
H162	H	1.654493	-0.148490	-1.313594
H163	H	1.525801	-0.278307	-1.208541
