data_functionalizedCrystal
_audit_creation_method	'MofGen! by Chris Wilmer'
_symmetry_space_group_name_H-M	'P1'
_symmetry_Int_Tables_number	1
_symmetry_cell_setting	triclinic
loop_
_symmetry_equiv_pos_as_xyz
  x,y,z
_cell_length_a	17.038272
_cell_length_b	14.971482
_cell_length_c	14.048226
_cell_angle_alpha	89.994098
_cell_angle_beta	89.993466
_cell_angle_gamma	87.362082
loop_
_atom_site_label
_atom_site_type_symbol
_atom_site_fract_x
_atom_site_fract_y
_atom_site_fract_z
O1	O	0.101883	1.194577	-0.079149
O2	O	0.601883	1.694577	0.420851
O3	O	0.114089	0.935090	-0.079154
O4	O	0.614089	1.435090	0.420846
O5	O	-0.005831	1.063292	-0.079144
O6	O	0.494169	1.563292	0.420856
O7	O	0.221803	1.066376	-0.079159
O8	O	0.721803	1.566376	0.420841
O9	O	-0.005838	1.063275	0.079177
O10	O	0.494162	1.563275	0.579177
O11	O	0.114082	0.935073	0.079167
O12	O	0.614082	1.435073	0.579167
O13	O	0.101876	1.194560	0.079172
O14	O	0.601876	1.694560	0.579172
Zn15	Zn	0.107978	1.064814	0.104307
Zn16	Zn	0.607978	1.564814	0.604307
Zn17	Zn	0.107987	1.064837	-0.104289
Zn18	Zn	0.607987	1.564837	0.395711
O19	O	0.221796	1.066359	0.079162
O20	O	0.721796	1.566359	0.579162
C21	C	0.113540	0.901716	0.000006
C22	C	0.613540	1.401716	0.500006
C23	C	0.111906	0.802297	0.000004
C24	C	0.611906	1.302297	0.500004
C25	C	0.111132	0.755585	0.086307
C26	C	0.611132	1.255585	0.586307
C27	C	0.109584	0.662171	0.086308
C28	C	0.609584	1.162171	0.586308
C29	C	0.108816	0.615469	0.000006
C30	C	0.608816	1.115469	0.500006
C31	C	0.109587	0.662188	-0.086303
C32	C	0.609587	1.162188	0.413697
C33	C	0.111129	0.755601	-0.086303
C34	C	0.611129	1.255601	0.413697
C35	C	0.106374	0.467485	-0.086297
C36	C	0.606374	0.967485	0.413703
C37	C	0.104833	0.374065	-0.086297
C38	C	0.604833	0.874065	0.413703
C39	C	0.104829	0.374055	0.086314
C40	C	0.604829	0.874055	0.586314
C41	C	0.106371	0.467468	0.086314
C42	C	0.606371	0.967468	0.586314
C43	C	0.107144	0.514180	0.000005
C44	C	0.607144	1.014180	0.500005
C45	C	-0.034966	1.060478	0.000016
C46	C	0.465034	1.560478	0.500016
C47	C	-0.121769	1.052108	0.000016
C48	C	0.378231	1.552108	0.500016
C49	C	-0.171794	1.128952	0.000018
C50	C	0.328206	1.628952	0.500018
C51	C	-0.253354	1.121082	0.000009
C52	C	0.246646	1.621082	0.500009
C53	C	-0.284886	1.036368	0.000004
C54	C	0.215114	1.536368	0.500004
C55	C	-0.234854	0.959518	-0.000001
C56	C	0.265146	1.459518	0.499999
C57	C	-0.153296	0.967389	0.000002
C58	C	0.346704	1.467389	0.500002
C59	C	-0.530676	1.008563	-0.000009
C60	C	-0.030676	1.508563	0.499991
C61	C	-0.612241	1.000699	-0.000009
C62	C	-0.112241	1.500699	0.499991
C63	C	-0.630735	1.162263	-0.000000
C64	C	-0.130735	1.662263	0.500000
C65	C	-0.549174	1.170126	0.000008
C66	C	-0.049174	1.670126	0.500008
C67	C	-0.499149	1.093277	-0.000003
C68	C	0.000851	1.593277	0.499997
C69	C	-0.368253	1.028322	-0.000002
C70	C	0.131747	1.528322	0.499998
C71	C	-0.415784	1.101324	-0.000003
C72	C	0.084216	1.601324	0.499997
C73	C	0.250931	1.069173	-0.000000
C74	C	0.750931	1.569173	0.500000
C75	C	0.337734	1.077543	-0.000006
C76	C	0.837734	1.577543	0.499994
C77	C	0.102425	1.227934	0.000010
C78	C	0.602425	1.727934	0.500010
C79	C	0.104059	1.327354	0.000005
C80	C	0.604059	1.827354	0.500005
N81	N	0.107971	1.064805	0.246667
N82	N	0.607971	1.564805	0.746667
N83	N	0.107988	1.064852	-0.246649
N84	N	0.607988	1.564852	0.253351
C85	C	0.054893	1.121593	0.296490
C86	C	0.554893	1.621593	0.796490
C87	C	0.054892	1.121599	0.396147
C88	C	0.554892	1.621599	0.896147
C89	C	0.107975	1.064821	0.445981
C90	C	0.607975	1.564821	0.945981
C91	C	0.161056	1.008027	0.396151
C92	C	0.661056	1.508027	0.896151
C93	C	0.161052	1.008017	0.296496
C94	C	0.661052	1.508017	0.796496
C95	C	0.161061	1.008053	0.603866
C96	C	0.661061	1.508053	1.103866
C97	C	0.161067	1.008064	0.703528
C98	C	0.661067	1.508064	1.203528
C99	C	0.054902	1.121636	0.703517
C100	C	0.554902	1.621636	1.203517
C101	C	0.054898	1.121626	0.603862
C102	C	0.554898	1.621626	1.103862
C103	C	0.107980	1.064832	0.554039
C104	C	0.607980	1.564832	1.054039
H105	H	0.107003	0.505515	-0.156579
H106	H	0.607003	1.005515	0.343421
H107	H	0.204273	0.961773	0.255931
H108	H	0.704273	1.461773	0.755931
H109	H	-0.294082	1.183657	0.000013
H110	H	0.205918	1.683657	0.500013
C111	C	-0.514494	1.263312	0.000000
C112	C	-0.014494	1.763312	0.500000
H113	H	-0.555970	1.307952	-0.000009
H114	H	-0.055970	1.807952	0.499991
H115	H	-0.483066	1.269738	0.055209
H116	H	0.016934	1.769738	0.555209
H117	H	-0.483060	1.269740	-0.055218
H118	H	0.016940	1.769740	0.444782
C119	C	0.111964	0.806950	0.181240
C120	C	0.611964	1.306950	0.681240
H121	H	0.111270	0.765748	0.232638
H122	H	0.611270	1.265748	0.732638
H123	H	0.158122	0.840039	0.184839
H124	H	0.658122	1.340039	0.684839
H125	H	0.066993	0.846741	0.184819
H126	H	0.566993	1.346741	0.684819
H127	H	0.108941	0.624143	0.156583
H128	H	0.608941	1.124143	0.656583
C129	C	-0.003494	1.184100	0.758318
C130	C	0.496506	1.684100	1.258318
H131	H	0.004102	1.175967	0.824806
H132	H	0.504102	1.675967	1.324806
H133	H	0.005083	1.244444	0.741974
H134	H	0.505083	1.744444	1.241974
H135	H	-0.055695	1.170410	0.741993
H136	H	0.444305	1.670410	1.241993
H137	H	0.107002	0.505490	0.156589
H138	H	0.607002	1.005490	0.656589
H139	H	0.204291	0.961828	0.744098
H140	H	0.704291	1.461828	1.244098
C141	C	-0.475659	0.924032	-0.000004
C142	C	0.024341	1.424032	0.499996
H143	H	-0.506122	0.872455	0.000006
H144	H	-0.006122	1.372455	0.500006
H145	H	-0.443450	0.923741	-0.055211
H146	H	0.056550	1.423741	0.444789
H147	H	-0.443468	0.923741	0.055216
H148	H	0.056532	1.423741	0.555216
C149	C	-0.003492	1.184079	0.549046
C150	C	0.496508	1.684079	1.049046
H151	H	-0.035110	1.217899	0.592990
H152	H	0.464890	1.717899	1.092990
H153	H	0.024688	1.223447	0.510153
H154	H	0.524688	1.723447	1.010153
H155	H	-0.036090	1.149413	0.510188
H156	H	0.463910	1.649413	1.010188
H157	H	-0.146127	1.197935	0.000028
H158	H	0.353873	1.697935	0.500028
H159	H	0.111760	0.793632	-0.156579
H160	H	0.611760	1.293632	0.343421
C161	C	0.104326	0.322652	0.181251
C162	C	0.604326	0.822652	0.681251
H163	H	0.103395	0.260323	0.168894
H164	H	0.603395	0.760323	0.668894
H165	H	0.150250	0.334739	0.216431
H166	H	0.650250	0.834739	0.716431
H167	H	0.059117	0.341162	0.216990
H168	H	0.559117	0.841162	0.716990
H169	H	0.204284	0.961802	0.563303
H170	H	0.704284	1.461802	1.063303
C171	C	-0.685762	1.246790	-0.000003
C172	C	-0.185762	1.746790	0.499997
H173	H	-0.738852	1.229973	-0.000014
H174	H	-0.238852	1.729973	0.499986
H175	H	-0.676204	1.281269	0.055205
H176	H	-0.176204	1.781269	0.555205
H177	H	-0.676187	1.281271	-0.055222
H178	H	-0.176187	1.781271	0.444778
H179	H	0.204274	0.961792	0.436731
H180	H	0.704274	1.461792	0.936731
C181	C	0.103980	0.322691	-0.181224
C182	C	0.603980	0.822691	0.318776
H183	H	0.102960	0.260368	-0.168859
H184	H	0.602960	0.760368	0.331141
H185	H	0.058670	0.341357	-0.216677
H186	H	0.558670	0.841357	0.283323
H187	H	0.149799	0.334644	-0.216694
H188	H	0.649799	0.834644	0.283306
C189	C	-0.269534	0.866333	-0.000013
C190	C	0.230466	1.366333	0.499987
H191	H	-0.228057	0.821695	-0.000025
H192	H	0.271943	1.321695	0.499975
H193	H	-0.300972	0.859892	0.055194
H194	H	0.199028	1.359892	0.555194
H195	H	-0.300957	0.859916	-0.055233
H196	H	0.199043	1.359916	0.444767
H197	H	-0.637910	0.931711	0.000003
H198	H	-0.137910	1.431711	0.500003
H199	H	0.108955	0.624156	-0.156571
H200	H	0.608955	1.124156	0.343429
H201	H	-0.112565	0.904814	-0.000001
H202	H	0.387435	1.404814	0.499999
C203	C	-0.381104	1.194505	0.000004
C204	C	0.118896	1.694505	0.500004
H205	H	-0.422576	1.239149	0.000002
H206	H	0.077424	1.739149	0.500002
H207	H	-0.349676	1.200919	0.055214
H208	H	0.150324	1.700919	0.555214
H209	H	-0.349669	1.200939	-0.055213
H210	H	0.150331	1.700939	0.444787
C211	C	-0.003492	1.184056	0.241677
C212	C	0.496508	1.684056	0.741677
H213	H	0.004112	1.175926	0.175189
H214	H	0.504112	1.675926	0.675189
H215	H	-0.055692	1.170382	0.258019
H216	H	0.444308	1.670382	0.758019
H217	H	0.005097	1.244403	0.257999
H218	H	0.505097	1.744403	0.757999
H219	H	-0.393936	0.959347	-0.000004
H220	H	0.106064	1.459347	0.499996
H221	H	0.011671	1.167840	0.436712
H222	H	0.511671	1.667840	0.936712
