data_functionalizedCrystal
_audit_creation_method	'MofGen! by Chris Wilmer'
_symmetry_space_group_name_H-M	'P1'
_symmetry_Int_Tables_number	1
_symmetry_cell_setting	triclinic
loop_
_symmetry_equiv_pos_as_xyz
  x,y,z
_cell_length_a	27.731988
_cell_length_b	26.210047
_cell_length_c	15.995350
_cell_angle_alpha	90.003919
_cell_angle_beta	96.944628
_cell_angle_gamma	89.981104
loop_
_atom_site_label
_atom_site_type_symbol
_atom_site_fract_x
_atom_site_fract_y
_atom_site_fract_z
O1	O	-0.641389	0.042360	0.099389
O2	O	-0.500657	0.042376	0.114590
O3	O	-0.574870	0.042367	-0.014949
O4	O	-0.567176	0.042369	0.228928
O5	O	-0.574835	-0.042491	-0.014951
O6	O	-0.500622	-0.042482	0.114588
O7	O	-0.641354	-0.042498	0.099388
Cu8	Cu	-0.570985	-0.050238	0.106988
Cu9	Cu	-0.571026	0.050116	0.106990
O10	O	-0.567141	-0.042489	0.228927
C11	C	-0.482631	-0.000051	0.114278
C12	C	-0.428970	-0.000046	0.113340
C13	C	-0.096207	-0.046325	0.107434
C14	C	0.105468	-0.046333	0.103869
O15	O	0.131558	-0.085672	0.103372
N16	N	0.130666	-0.000077	0.103427
C17	C	0.105442	0.046184	0.103871
O18	O	0.131501	0.085528	0.103405
C19	C	-0.096232	0.046192	0.107430
C20	C	-0.121427	-0.000067	0.107880
C21	C	-0.121401	-0.092580	0.107883
C22	C	-0.171817	-0.092577	0.108779
C23	C	-0.197037	-0.046320	0.109225
C24	C	-0.171842	-0.000065	0.108776
C25	C	-0.121456	0.092452	0.107867
C26	C	-0.171877	0.092450	0.108755
C27	C	-0.197072	0.046191	0.109205
C28	C	-0.247477	0.046195	0.110117
N29	N	-0.272675	-0.000061	0.110559
C30	C	-0.247455	-0.046318	0.110113
C31	C	0.211323	0.046177	0.102005
C32	C	0.261741	0.046176	0.101117
C33	C	0.261764	-0.046342	0.101113
C34	C	0.211345	-0.046339	0.102007
C35	C	0.186125	-0.000079	0.102447
C36	C	-0.353330	-0.046310	0.111995
C37	C	-0.403750	-0.046303	0.112894
C38	C	-0.403768	0.046214	0.112893
C39	C	-0.353353	0.046208	0.111998
C40	C	-0.328136	-0.000058	0.111546
O41	O	-0.273600	0.085514	0.110606
O42	O	-0.273525	-0.085656	0.110561
C43	C	-0.045791	-0.046327	0.106538
C44	C	-0.020597	-0.000072	0.106089
C45	C	-0.045817	0.046185	0.106535
C46	C	0.029822	-0.000074	0.105201
C47	C	0.055042	-0.046331	0.104754
C48	C	0.029844	-0.092587	0.105196
C49	C	-0.020571	-0.092585	0.106092
C50	C	-0.020619	0.092441	0.106093
C51	C	0.029796	0.092435	0.105198
C52	C	0.055017	0.046178	0.104752
C53	C	0.340620	-0.000072	0.099708
C54	C	0.286962	-0.000082	0.100670
N55	N	-0.570960	-0.120822	0.106986
C56	C	-0.574534	-0.000061	-0.046141
C57	C	-0.573581	-0.000058	-0.139078
C58	C	-0.538133	-0.526786	0.164322
C59	C	-0.538109	-0.313127	0.164323
O60	O	-0.510141	-0.285505	0.213064
N61	N	-0.570975	-0.286406	0.106983
C62	C	-0.603847	-0.313102	0.049636
O63	O	-0.631798	-0.285472	0.000859
C64	C	-0.603868	-0.526760	0.049632
C65	C	-0.571003	-0.553479	0.106981
C66	C	-0.505270	-0.553504	0.221666
C67	C	-0.505278	-0.606916	0.221669
C68	C	-0.538148	-0.633609	0.164327
C69	C	-0.571011	-0.606890	0.106983
C70	C	-0.636737	-0.553456	-0.007719
C71	C	-0.636738	-0.606873	-0.007716
C72	C	-0.603874	-0.633592	0.049633
C73	C	-0.603889	-0.686994	0.049644
N74	N	-0.571023	-0.713716	0.106984
C75	C	-0.538153	-0.687023	0.164325
C76	C	-0.603835	-0.200929	0.049643
C77	C	-0.603830	-0.147515	0.049645
C78	C	-0.538092	-0.147543	0.164331
C79	C	-0.538099	-0.200959	0.164333
C80	C	-0.570969	-0.227650	0.106983
C81	C	-0.538172	-0.799191	0.164326
C82	C	-0.538184	-0.852607	0.164326
C83	C	-0.603921	-0.852574	0.049637
C84	C	-0.603911	-0.799162	0.049640
C85	C	-0.571032	-0.772472	0.106988
O86	O	-0.631839	-0.714649	0.000922
O87	O	-0.510199	-0.714663	0.213082
C88	C	-0.538125	-0.473374	0.164320
C89	C	-0.570987	-0.446656	0.106976
C90	C	-0.603858	-0.473349	0.049635
C91	C	-0.570983	-0.393242	0.106978
C92	C	-0.538112	-0.366549	0.164320
C93	C	-0.505246	-0.393270	0.221659
C94	C	-0.505254	-0.446682	0.221662
C95	C	-0.636723	-0.446627	-0.007705
C96	C	-0.636713	-0.393216	-0.007702
C97	C	-0.603843	-0.366523	0.049640
N98	N	-0.571055	0.120700	0.106985
C99	C	-0.570156	-0.000059	-0.476780
C100	C	-0.517303	0.000137	-0.428643
C101	C	-0.518257	-0.000055	-0.331965
C102	C	-0.571855	-0.000058	-0.309242
C103	C	-0.597904	-0.048518	-0.350668
C104	C	-0.596576	-0.048559	-0.447286
C105	C	-0.597707	0.047941	-0.447657
C106	C	-0.597695	0.048581	-0.350711
C107	C	-0.572818	-0.000059	-0.214558
C108	C	-0.569195	-0.000061	-0.571465
C109	C	-0.567477	-0.000060	0.260118
C110	C	-0.568430	-0.000060	0.353056
H111	H	-0.192409	0.130122	0.109113
Br112	Br	-0.460650	-0.482935	0.299497
Br113	Br	-0.493482	-0.111307	0.242151
Br114	Br	-0.493495	-0.237214	0.242166
Br115	Br	-0.054756	-0.155368	0.106705
Br116	Br	-0.484126	0.057845	-0.284133
Br117	Br	-0.566218	0.108343	-0.304336
H118	H	-0.636782	0.051504	-0.335869
H119	H	-0.332837	0.083875	0.111645
Br120	Br	-0.482124	-0.057279	-0.461232
H121	H	-0.478484	-0.371528	0.268352
Br122	Br	-0.648521	-0.762903	-0.028182
H123	H	-0.635380	-0.050760	-0.480050
Br124	Br	-0.648442	-0.111260	-0.028175
Br125	Br	-0.648449	-0.237148	-0.028194
Br126	Br	0.296001	-0.109119	0.100507
H127	H	-0.663498	-0.531709	-0.054418
H128	H	-0.580442	0.084670	-0.467966
Br129	Br	-0.438006	0.108989	0.113495
Br130	Br	0.064082	-0.155365	0.104597
Br131	Br	-0.567703	-0.108622	-0.302967
H132	H	-0.636676	0.048264	-0.479936
Br133	Br	-0.648531	-0.888808	-0.028179
Br134	Br	0.063984	0.155221	0.104595
H135	H	-0.663480	-0.371465	-0.054401
Br136	Br	-0.681337	-0.482847	-0.085533
H137	H	-0.497613	-0.034848	-0.303827
Br138	Br	-0.437939	-0.109087	0.113511
H139	H	-0.637280	-0.050323	-0.337066
H140	H	-0.663505	-0.628604	-0.054420
Br141	Br	-0.564866	-0.108930	-0.477373
H142	H	-0.496192	0.034889	-0.446893
Br143	Br	0.295930	0.108958	0.100526
H144	H	0.190794	0.083850	0.102362
H145	H	-0.332804	-0.083984	0.111634
Br146	Br	0.177158	-0.109121	0.102618
H147	H	-0.100873	-0.130250	0.107518
Br148	Br	-0.206002	-0.155361	0.109386
H149	H	-0.100951	0.130121	0.107499
Br150	Br	-0.054839	0.155226	0.106696
H151	H	-0.511422	-0.874360	0.211029
Br152	Br	-0.493551	-0.762977	0.242156
H153	H	-0.478515	-0.628667	0.268365
H154	H	-0.478501	-0.531776	0.268360
