data_functionalizedCrystal
_audit_creation_method	'MofGen! by Chris Wilmer'
_symmetry_space_group_name_H-M	'P1'
_symmetry_Int_Tables_number	1
_symmetry_cell_setting	triclinic
loop_
_symmetry_equiv_pos_as_xyz
  x,y,z
_cell_length_a	23.532407
_cell_length_b	23.532407
_cell_length_c	22.010155
_cell_angle_alpha	90.000423
_cell_angle_beta	89.996931
_cell_angle_gamma	97.151322
loop_
_atom_site_label
_atom_site_type_symbol
_atom_site_fract_x
_atom_site_fract_y
_atom_site_fract_z
O1	O	0.755264	-0.069127	-0.050455
O2	O	1.255264	0.430873	0.449545
O3	O	0.589400	-0.079130	-0.050474
O4	O	1.089400	0.420870	0.449526
O5	O	0.677334	0.008803	-0.050453
O6	O	1.177334	0.508803	0.449547
O7	O	0.667330	-0.157060	-0.050476
O8	O	1.167330	0.342940	0.449524
O9	O	0.677318	0.008790	0.050597
O10	O	1.177318	0.508790	0.550597
O11	O	0.589384	-0.079143	0.050576
O12	O	1.089384	0.420857	0.550576
O13	O	0.755248	-0.069140	0.050595
O14	O	1.255248	0.430860	0.550595
Cu15	Cu	0.672315	-0.074143	0.059812
Cu16	Cu	1.172315	0.425857	0.559812
Cu17	Cu	0.672333	-0.074127	-0.059691
Cu18	Cu	1.172333	0.425873	0.440309
O19	O	0.667314	-0.157073	0.050574
O20	O	1.167314	0.342927	0.550574
C21	C	0.568176	-0.078882	0.000049
C22	C	1.068176	0.421118	0.500049
C23	C	0.504959	-0.078116	0.000042
C24	C	1.004959	0.421884	0.500042
C25	C	0.105856	-0.125350	0.000063
C26	C	0.605856	0.374650	0.500063
C27	C	0.046456	-0.124638	0.000067
C28	C	0.546456	0.375362	0.500067
O29	O	0.009711	-0.168424	0.000083
O30	O	0.509711	0.331576	0.500083
N31	N	0.023830	-0.072362	0.000073
N32	N	0.523830	0.427638	0.500073
C33	C	0.060607	-0.020794	0.000082
C34	C	0.560607	0.479206	0.500082
O35	O	0.035908	0.023737	0.000088
O36	O	0.535908	0.523737	0.500088
C37	C	0.120006	-0.021506	0.000082
C38	C	0.620006	0.478494	0.500082
C39	C	0.142629	-0.073785	0.000070
C40	C	0.642629	0.426215	0.500070
C41	C	0.128479	-0.177625	0.000051
C42	C	0.628479	0.322375	0.500051
C43	C	0.187876	-0.178336	0.000046
C44	C	0.687876	0.321664	0.500046
C45	C	0.224649	-0.126772	0.000053
C46	C	0.724649	0.373228	0.500053
C47	C	0.202025	-0.074497	0.000065
C48	C	0.702025	0.425503	0.500065
C49	C	0.156783	0.030062	0.000096
C50	C	0.656783	0.530062	0.500096
C51	C	0.216185	0.029345	0.000097
C52	C	0.716185	0.529345	0.500097
C53	C	0.238808	-0.022934	0.000084
C54	C	0.738808	0.477066	0.500084
C55	C	0.298194	-0.023643	0.000067
C56	C	0.798194	0.476357	0.500067
N57	N	0.320820	-0.075920	0.000061
N58	N	0.820820	0.424080	0.500061
C59	C	0.284048	-0.127484	0.000054
C60	C	0.784048	0.372516	0.500054
C61	C	-0.064135	-0.019302	0.000082
C62	C	0.435865	0.480698	0.500082
C63	C	-0.123533	-0.018589	0.000077
C64	C	0.376467	0.481411	0.500077
C65	C	-0.137680	-0.122434	0.000063
C66	C	0.362320	0.377566	0.500063
C67	C	-0.078281	-0.123146	0.000064
C68	C	0.421719	0.376854	0.500064
C69	C	-0.041509	-0.071578	0.000076
C70	C	0.458491	0.428422	0.500076
C71	C	0.408784	-0.128974	0.000043
C72	C	0.908784	0.371026	0.500043
C73	C	0.468186	-0.129680	0.000035
C74	C	0.968186	0.370320	0.500035
C75	C	0.482329	-0.025836	0.000052
C76	C	0.982329	0.474164	0.500052
C77	C	0.422932	-0.025129	0.000057
C78	C	0.922932	0.474871	0.500057
C79	C	0.386160	-0.076702	0.000054
C80	C	0.886160	0.423298	0.500054
O81	O	0.334974	0.020119	0.000054
O82	O	0.834974	0.520119	0.500054
O83	O	0.308755	-0.172007	0.000055
O84	O	0.808755	0.327993	0.500055
C85	C	0.677071	0.030013	0.000074
C86	C	1.177071	0.530013	0.500074
C87	C	0.676305	0.093230	0.000078
C88	C	1.176305	0.593230	0.500078
C89	C	0.776472	-0.069388	0.000071
C90	C	1.276472	0.430612	0.500071
C91	C	0.839689	-0.070154	0.000073
C92	C	1.339689	0.429846	0.500073
C93	C	0.667577	-0.178283	0.000046
C94	C	1.167577	0.321717	0.500046
C95	C	0.668343	-0.241500	0.000037
C96	C	1.168343	0.258500	0.500037
N97	N	0.672305	-0.074153	0.143865
N98	N	1.172305	0.425847	0.643865
C99	C	0.723539	0.492333	0.000050
C100	C	1.223539	0.992333	0.500050
C101	C	0.722827	0.551733	0.000046
C102	C	1.222827	1.051733	0.500046
O103	O	0.766613	0.588478	0.000028
O104	O	1.266613	1.088478	0.500028
N105	N	0.670551	0.574359	0.000040
N106	N	1.170551	1.074359	0.500040
C107	C	0.618983	0.537582	0.000033
C108	C	1.118983	1.037582	0.500033
O109	O	0.574452	0.562281	0.000027
O110	O	1.074452	1.062281	0.500027
C111	C	0.619695	0.478182	0.000033
C112	C	1.119695	0.978182	0.500033
C113	C	0.671974	0.455560	0.000045
C114	C	1.171974	0.955560	0.500045
C115	C	0.775814	0.469710	0.000061
C116	C	1.275814	0.969710	0.500061
C117	C	0.776525	0.410313	0.000067
C118	C	1.276525	0.910313	0.500067
C119	C	0.724961	0.373540	0.000062
C120	C	1.224961	0.873540	0.500062
C121	C	0.672685	0.396164	0.000051
C122	C	1.172685	0.896164	0.500051
C123	C	0.568127	0.441406	0.000022
C124	C	1.068127	0.941406	0.500022
C125	C	0.568844	0.382004	0.000022
C126	C	1.068844	0.882004	0.500022
C127	C	0.621123	0.359381	0.000034
C128	C	1.121123	0.859381	0.500034
C129	C	0.621832	0.299995	0.000052
C130	C	1.121832	0.799995	0.500052
N131	N	0.674109	0.277368	0.000057
N132	N	1.174109	0.777368	0.500057
C133	C	0.725673	0.314141	0.000062
C134	C	1.225673	0.814141	0.500062
C135	C	0.617491	0.662324	0.000031
C136	C	1.117491	1.162324	0.500031
C137	C	0.616778	0.721722	0.000035
C138	C	1.116778	1.221722	0.500035
C139	C	0.720623	0.735869	0.000047
C140	C	1.220623	1.235869	0.500047
C141	C	0.721335	0.676470	0.000047
C142	C	1.221335	1.176470	0.500047
C143	C	0.669767	0.639698	0.000037
C144	C	1.169767	1.139698	0.500037
C145	C	0.727163	0.189405	0.000075
C146	C	1.227163	0.689405	0.500075
C147	C	0.727869	0.130003	0.000083
C148	C	1.227869	0.630003	0.500083
C149	C	0.624025	0.115860	0.000069
C150	C	1.124025	0.615860	0.500069
C151	C	0.623318	0.175257	0.000064
C152	C	1.123318	0.675257	0.500064
C153	C	0.674891	0.212029	0.000065
C154	C	1.174891	0.712029	0.500065
O155	O	0.578070	0.263215	0.000067
O156	O	1.078070	0.763215	0.500067
O157	O	0.770196	0.289433	0.000060
O158	O	1.270196	0.789433	0.500060
N159	N	0.672347	-0.074112	-0.143744
N160	N	1.172347	0.425888	0.356256
C161	C	0.711273	-0.035196	0.563653
C162	C	1.211273	0.464804	1.063653
C163	C	0.711275	-0.035192	0.627261
C164	C	1.211275	0.464808	1.127261
O165	O	0.744384	-0.002076	0.660160
O166	O	1.244384	0.497924	1.160160
N167	N	0.672333	-0.074115	0.659072
N168	N	1.172333	0.425885	1.159072
C169	C	0.633382	-0.113041	0.627272
C170	C	1.133382	0.386959	1.127272
O171	O	0.600259	-0.146148	0.660170
O172	O	1.100259	0.353852	1.160170
C173	C	0.633377	-0.113042	0.563665
C174	C	1.133377	0.386958	1.063665
C175	C	0.672326	-0.074120	0.531858
C176	C	1.172326	0.425880	1.031858
C177	C	0.750217	0.003723	0.531846
C178	C	1.250217	0.503723	1.031846
C179	C	0.750215	0.003719	0.468243
C180	C	1.250215	0.503719	0.968243
C181	C	0.711268	-0.035205	0.436447
C182	C	1.211268	0.464795	0.936447
C183	C	0.672324	-0.074125	0.468255
C184	C	1.172324	0.425875	0.968255
C185	C	0.594424	-0.151965	0.531866
C186	C	1.094424	0.348035	1.031866
C187	C	0.594422	-0.151962	0.468256
C188	C	1.094422	0.348038	0.968256
C189	C	0.633370	-0.113040	0.436448
C190	C	1.133370	0.386960	0.936448
C191	C	0.633374	-0.113054	0.372856
C192	C	1.133374	0.386946	0.872856
N193	N	0.672317	-0.074130	0.341045
N194	N	1.172317	0.425870	0.841045
C195	C	0.711263	-0.035206	0.372841
C196	C	1.211263	0.464794	0.872841
C197	C	0.633395	-0.113036	0.760850
C198	C	1.133395	0.386964	1.260850
C199	C	0.633402	-0.113039	0.824455
C200	C	1.133402	0.386961	1.324455
C201	C	0.711294	-0.035188	0.824440
C202	C	1.211294	0.464812	1.324440
C203	C	0.711290	-0.035189	0.760833
C204	C	1.211290	0.464811	1.260833
C205	C	0.672337	-0.074113	0.729039
C206	C	1.172337	0.425887	1.229039
C207	C	0.711256	-0.035220	0.239269
C208	C	1.211256	0.464780	0.739269
C209	C	0.711252	-0.035229	0.175660
C210	C	1.211252	0.464771	0.675660
C211	C	0.633358	-0.113077	0.175681
C212	C	1.133358	0.386923	0.675681
C213	C	0.633364	-0.113070	0.239284
C214	C	1.133364	0.386930	0.739284
C215	C	0.672315	-0.074136	0.271077
C216	C	1.172315	0.425864	0.771077
O217	O	0.600282	-0.146151	0.339916
O218	O	1.100282	0.353849	0.839916
O219	O	0.744376	-0.002100	0.339935
O220	O	1.244376	0.497900	0.839935
H221	H	0.770443	0.111587	0.000094
H222	H	1.270443	0.611587	0.500094
O223	O	0.556664	-0.189826	0.562783
O224	O	1.056664	0.310174	1.062783
C225	C	0.586951	-0.224806	0.599587
C226	C	1.086951	0.275194	1.099587
H227	H	0.631858	-0.225548	0.580422
H228	H	1.131858	0.274452	1.080422
H229	H	0.563449	-0.270189	0.600306
H230	H	1.063449	0.229811	1.100306
H231	H	0.590035	-0.206969	0.647794
H232	H	1.090035	0.293031	1.147794
O233	O	0.517974	0.024304	0.000031
O234	O	1.017974	0.524304	0.500031
C235	C	0.485275	0.070602	0.000058
C236	C	0.985275	0.570602	0.500058
H237	H	0.440858	0.055898	-0.019074
H238	H	0.940858	0.555898	0.480926
H239	H	0.507392	0.106713	-0.029272
H240	H	1.007392	0.606713	0.470728
H241	H	0.481134	0.086634	0.048541
H242	H	0.981134	0.586634	0.548541
H243	H	0.525555	0.459814	0.000009
H244	H	1.025555	0.959814	0.500009
O245	O	0.134886	0.080884	0.000032
O246	O	0.634886	0.580884	0.500032
C247	C	0.153702	0.112302	-0.052302
C248	C	0.653702	0.612302	0.447698
H249	H	0.194812	0.097015	-0.069759
H250	H	0.694812	0.597015	0.430241
H251	H	0.162219	0.159772	-0.040516
H252	H	0.662219	0.659772	0.459484
H253	H	0.119290	0.105524	-0.088948
H254	H	0.619290	0.605524	0.411052
O255	O	0.400887	0.025619	0.000145
O256	O	0.900887	0.525619	0.500145
C257	C	0.366968	0.029139	0.052494
C258	C	0.866968	0.529139	0.552494
H259	H	0.351924	-0.015836	0.069936
H260	H	0.851924	0.484164	0.569936
H261	H	0.328194	0.051619	0.040736
H262	H	0.828194	0.551619	0.540736
H263	H	0.393357	0.054479	0.089142
H264	H	0.893357	0.554479	0.589142
O265	O	0.749103	0.002705	0.855265
O266	O	1.249103	0.502705	1.355265
C267	C	0.740155	0.059037	0.839736
C268	C	1.240155	0.559037	1.339736
H269	H	0.718205	0.058855	0.793554
H270	H	1.218205	0.558855	1.293554
H271	H	0.783121	0.087304	0.837561
H272	H	1.283121	0.587304	1.337561
H273	H	0.711905	0.076502	0.875536
H274	H	1.211905	0.576502	1.375536
O275	O	0.373151	-0.179124	0.000009
O276	O	0.873151	0.320876	0.500009
C277	C	0.405867	-0.225410	0.000011
C278	C	0.905867	0.274590	0.500011
H279	H	0.450283	-0.210684	-0.019117
H280	H	0.950283	0.289316	0.480883
H281	H	0.383764	-0.261514	-0.029335
H282	H	0.883764	0.238486	0.470665
H283	H	0.410009	-0.241460	0.048486
H284	H	0.910009	0.258540	0.548486
H285	H	0.819097	0.391900	0.000074
H286	H	1.319097	0.891900	0.500074
H287	H	0.526850	0.352066	0.000013
H288	H	1.026850	0.852066	0.500013
O289	O	0.825960	0.505345	0.000095
O290	O	1.325960	1.005345	0.500095
C291	C	0.872245	0.472627	0.000089
C292	C	1.372245	0.972627	0.500089
H293	H	0.857517	0.428212	0.019214
H294	H	1.357517	0.928212	0.519214
H295	H	0.908349	0.494728	0.029435
H296	H	1.408349	0.994728	0.529435
H297	H	0.888296	0.468485	-0.048387
H298	H	1.388296	0.968485	0.451613
H299	H	0.206289	-0.220908	0.000036
H300	H	0.706289	0.279092	0.500036
O301	O	0.092844	-0.227771	0.000015
O302	O	0.592844	0.272229	0.500015
C303	C	0.125562	-0.274056	0.000021
C304	C	0.625562	0.225944	0.500021
H305	H	0.169979	-0.259328	-0.019103
H306	H	0.669979	0.240672	0.480897
H307	H	0.103463	-0.310161	-0.029327
H308	H	0.603463	0.189839	0.470673
H309	H	0.129701	-0.290106	0.048497
H310	H	0.629701	0.209894	0.548497
O311	O	0.566030	0.743761	-0.000051
O312	O	1.066030	1.243761	0.499949
C313	C	0.562509	0.777680	-0.052398
C314	C	1.062509	1.277680	0.447602
H315	H	0.607484	0.792726	-0.069840
H316	H	1.107484	1.292726	0.430160
H317	H	0.540026	0.816452	-0.040635
H318	H	1.040026	1.316452	0.459365
H319	H	0.537170	0.751291	-0.089046
H320	H	1.037170	1.251291	0.410954
O321	O	0.556562	-0.189831	0.437466
O322	O	1.056562	0.310169	0.937466
C323	C	0.522180	-0.224170	0.479185
C324	C	1.022180	0.275830	0.979185
H325	H	0.545529	-0.224690	0.524523
H326	H	1.045529	0.275310	1.024523
H327	H	0.513229	-0.269699	0.460814
H328	H	1.013229	0.230301	0.960814
H329	H	0.479982	-0.205889	0.485953
H330	H	0.979982	0.294111	0.985953
H331	H	0.781933	0.035423	0.557728
H332	H	1.281933	0.535423	1.057728
O333	O	0.777298	0.225061	-0.000002
O334	O	1.277298	0.725061	0.499998
C335	C	0.809061	0.214853	-0.052337
C336	C	1.309061	0.714853	0.447663
H337	H	0.794811	0.169715	-0.069786
H338	H	1.294811	0.669715	0.430214
H339	H	0.856581	0.219286	-0.040557
H340	H	1.356581	0.719286	0.459443
H341	H	0.801478	0.247304	-0.088988
H342	H	1.301478	0.747304	0.411012
O343	O	0.490231	-0.180430	0.000101
O344	O	0.990231	0.319570	0.500101
C345	C	0.524157	-0.183967	0.052438
C346	C	1.024157	0.316033	0.552438
H347	H	0.539200	-0.138998	0.069896
H348	H	1.039200	0.361002	0.569896
H349	H	0.562932	-0.206439	0.040656
H350	H	1.062932	0.293561	0.540656
H351	H	0.497776	-0.209324	0.089082
H352	H	0.997776	0.290676	0.589082
O353	O	0.595537	-0.150910	0.730061
O354	O	1.095537	0.349090	1.230061
C355	C	0.561162	-0.185252	0.771783
C356	C	1.061162	0.314748	1.271783
H357	H	0.584515	-0.185769	0.817119
H358	H	1.084515	0.314231	1.317119
H359	H	0.552215	-0.230782	0.753414
H360	H	1.052215	0.269218	1.253414
H361	H	0.518962	-0.166976	0.778555
H362	H	1.018962	0.333024	1.278555
O363	O	0.595603	-0.150908	0.144721
O364	O	1.095603	0.349092	0.644721
C365	C	0.625897	-0.185900	0.107934
C366	C	1.125897	0.314100	0.607934
H367	H	0.670592	-0.162996	0.098407
H368	H	1.170592	0.337004	0.598407
H369	H	0.602076	-0.195022	0.063206
H370	H	1.102076	0.304978	0.563206
H371	H	0.629518	-0.227977	0.132443
H372	H	1.129518	0.272023	0.632443
H373	H	-0.141947	0.023982	0.000078
H374	H	0.358053	0.523982	0.500078
H375	H	-0.059867	-0.165717	0.000057
H376	H	0.440133	0.334283	0.500057
O377	O	0.749028	0.002675	0.729889
O378	O	1.249028	0.502675	1.229889
C379	C	0.718702	0.037667	0.693141
C380	C	1.218702	0.537667	1.193141
H381	H	0.674024	0.014731	0.683596
H382	H	1.174024	0.514731	1.183596
H383	H	0.742521	0.046849	0.648419
H384	H	1.242521	0.546849	1.148419
H385	H	0.715038	0.079714	0.717691
H386	H	1.215038	0.579714	1.217691
O387	O	0.595548	-0.150773	0.855416
O388	O	1.095548	0.349227	1.355416
C389	C	0.560577	-0.120451	0.892197
C390	C	1.060577	0.379549	1.392197
H391	H	0.583513	-0.075770	0.901727
H392	H	1.083513	0.424230	1.401727
H393	H	0.551429	-0.144269	0.936925
H394	H	1.051429	0.355731	1.436925
H395	H	0.518512	-0.116794	0.867683
H396	H	1.018512	0.383206	1.367683
H397	H	0.763906	0.658056	0.000056
H398	H	1.263906	1.158056	0.500056
O399	O	0.572571	0.197306	-0.000023
O400	O	1.072571	0.697306	0.499977
C401	C	0.569056	0.231222	-0.052372
C402	C	1.069056	0.731222	0.447628
H403	H	0.614033	0.246260	-0.069816
H404	H	1.114033	0.746260	0.430184
H405	H	0.546580	0.269999	-0.040613
H406	H	1.046580	0.769999	0.459387
H407	H	0.543714	0.204833	-0.089018
H408	H	1.043714	0.704833	0.410982
O409	O	0.770662	0.771678	0.000017
O410	O	1.270662	1.271678	0.500017
C411	C	0.758817	0.828954	0.000026
C412	C	1.258817	1.328954	0.500026
H413	H	0.714098	0.830978	-0.019106
H414	H	1.214098	1.330978	0.480894
H415	H	0.791705	0.856049	-0.029314
H416	H	1.291705	1.356049	0.470686
H417	H	0.761072	0.846150	0.048503
H418	H	1.261072	1.346150	0.548503
H419	H	-0.167632	-0.164421	0.000060
H420	H	0.332368	0.335579	0.500060
H421	H	0.582043	0.085909	0.000067
H422	H	1.082043	0.585909	0.500067
H423	H	0.246123	0.071339	0.000107
H424	H	0.746123	0.571339	0.500107
O425	O	0.567342	0.626686	0.000057
O426	O	1.067342	1.126686	0.500057
C427	C	0.521054	0.659400	0.000037
C428	C	1.021054	1.159400	0.500037
H429	H	0.535773	0.703815	0.019168
H430	H	1.035773	1.203815	0.519168
H431	H	0.484941	0.637295	0.029373
H432	H	0.984941	1.137295	0.529373
H433	H	0.505020	0.663543	-0.048443
H434	H	1.005020	1.163543	0.451557
H435	H	-0.034198	0.022693	0.000086
H436	H	0.465802	0.522693	0.500086
H437	H	0.742971	-0.003534	0.149765
H438	H	1.242971	0.496466	0.649765
H439	H	0.742973	-0.003516	0.265148
H440	H	1.242973	0.496484	0.765148
O441	O	0.788067	0.041588	0.437444
O442	O	1.288067	0.541588	0.937444
C443	C	0.822447	0.075931	0.479157
C444	C	1.322447	0.575931	0.979157
H445	H	0.799100	0.076448	0.524499
H446	H	1.299100	0.576448	1.024499
H447	H	0.831391	0.121460	0.460786
H448	H	1.331391	0.621460	0.960786
H449	H	0.864648	0.057656	0.485918
H450	H	1.364648	0.557656	0.985918
H451	H	0.601654	-0.144769	0.265183
H452	H	1.101654	0.355231	0.765183
