data_functionalizedCrystal
_audit_creation_method	'MofGen! by Chris Wilmer'
_symmetry_space_group_name_H-M	'P1'
_symmetry_Int_Tables_number	1
_symmetry_cell_setting	triclinic
loop_
_symmetry_equiv_pos_as_xyz
  x,y,z
_cell_length_a	17.038272
_cell_length_b	10.489741
_cell_length_c	9.565339
_cell_angle_alpha	90.000516
_cell_angle_beta	90.001814
_cell_angle_gamma	87.825365
loop_
_atom_site_label
_atom_site_type_symbol
_atom_site_fract_x
_atom_site_fract_y
_atom_site_fract_z
O1	O	1.038971	0.277138	-0.116084
O2	O	1.538971	0.777138	0.383916
O3	O	0.811315	0.272737	-0.116125
O4	O	1.311315	0.772737	0.383875
O5	O	0.930323	0.089824	-0.116095
O6	O	1.430323	0.589824	0.383905
O7	O	0.919963	0.460051	-0.116114
O8	O	1.419963	0.960051	0.383886
O9	O	0.930314	0.089835	0.116425
O10	O	1.430314	0.589835	0.616425
O11	O	0.811306	0.272748	0.116395
O12	O	1.311306	0.772748	0.616395
O13	O	1.038962	0.277149	0.116436
O14	O	1.538962	0.777149	0.616436
Zn15	Zn	0.925132	0.274950	0.153333
Zn16	Zn	1.425132	0.774950	0.653333
Zn17	Zn	0.925145	0.274936	-0.153022
Zn18	Zn	1.425145	0.774936	0.346978
O19	O	0.919954	0.460062	0.116406
O20	O	1.419954	0.960062	0.616406
C21	C	0.929536	0.042225	0.000164
C22	C	1.429536	0.542225	0.500164
C23	C	0.927195	-0.099624	0.000161
C24	C	1.427195	0.400376	0.500161
C25	C	0.782159	0.268740	0.000130
C26	C	1.282159	0.768740	0.500130
C27	C	0.695297	0.256798	0.000114
C28	C	1.195297	0.756798	0.500114
C29	C	0.851474	-0.174846	0.000137
C30	C	1.351474	0.325154	0.500137
C31	C	0.887239	-0.263618	0.114788
C32	C	1.387239	0.236382	0.614788
C33	C	0.887266	-0.263602	-0.114459
C34	C	1.387266	0.236398	0.385541
C35	C	0.962992	-0.186527	0.114906
C36	C	1.462992	0.313473	0.614906
C37	C	0.963008	-0.186502	-0.114443
C38	C	1.463008	0.313498	0.385557
C39	C	0.998829	-0.275241	0.000236
C40	C	1.498829	0.224759	0.500236
C41	C	0.645818	0.366437	0.000110
C42	C	1.145818	0.866437	0.500110
C43	C	0.564202	0.355208	0.000130
C44	C	1.064202	0.855208	0.500130
C45	C	0.532067	0.234341	0.000144
C46	C	1.032067	0.734341	0.500144
C47	C	0.581553	0.124695	0.000153
C48	C	1.081553	0.624695	0.500153
C49	C	0.663167	0.135924	0.000143
C50	C	1.163167	0.635924	0.500143
C51	C	0.286080	0.194670	0.000183
C52	C	0.786080	0.694670	0.500183
C53	C	0.204459	0.183449	0.000189
C54	C	0.704459	0.683449	0.500189
C55	C	0.187114	0.413964	0.000169
C56	C	0.687114	0.913964	0.500169
C57	C	0.268730	0.425183	0.000150
C58	C	0.768730	0.925183	0.500150
C59	C	0.318209	0.315536	0.000166
C60	C	0.818209	0.815536	0.500166
C61	C	0.448643	0.222861	0.000160
C62	C	0.948643	0.722861	0.500160
C63	C	0.401631	0.327017	0.000161
C64	C	0.901631	0.827017	0.500161
C65	C	1.068118	0.281146	0.000178
C66	C	1.568118	0.781146	0.500178
C67	C	1.154980	0.293088	0.000185
C68	C	1.654980	0.793088	0.500185
C69	C	0.920741	0.507661	0.000144
C70	C	1.420741	1.007661	0.500144
C71	C	0.923082	0.649510	0.000138
C72	C	1.423082	1.149510	0.500138
N73	N	0.925129	0.274960	0.362413
N74	N	1.425129	0.774960	0.862413
N75	N	0.925154	0.274916	-0.362101
N76	N	1.425154	0.774916	0.137899
C77	C	0.870075	0.359520	0.453602
C78	C	1.370075	0.859520	0.953602
C79	C	0.940910	0.391955	0.546792
C80	C	1.440910	0.891955	1.046792
C81	C	0.854325	0.242537	0.546777
C82	C	1.354325	0.742537	1.046777
C83	C	0.996000	0.307457	0.453551
C84	C	1.496000	0.807457	0.953551
C85	C	0.909369	0.157984	0.453528
C86	C	1.409369	0.657984	0.953528
C87	C	0.980254	0.190377	0.546677
C88	C	1.480254	0.690377	1.046677
H89	H	0.789216	-0.131018	0.000241
H90	H	1.289216	0.368982	0.500241
Br91	Br	0.887087	-0.006821	0.385191
Br92	Br	1.387087	0.493179	0.885191
Br93	Br	0.497054	0.504011	0.000119
Br94	Br	0.997054	1.004011	0.500119
Br95	Br	1.095844	0.353322	0.385596
Br96	Br	1.595844	0.853322	0.885596
Br97	Br	1.102688	-0.347908	0.000351
Br98	Br	1.602688	0.152092	0.500351
H99	H	1.026874	0.118850	0.587287
H100	H	1.526874	0.618850	1.087287
Br101	Br	0.353219	0.045863	0.000208
Br102	Br	0.853219	0.545863	0.500208
Br103	Br	0.833835	-0.320291	0.276328
Br104	Br	1.333835	0.179709	0.776328
Br105	Br	1.016345	-0.130150	0.276640
Br106	Br	1.516345	0.369850	0.776640
Br107	Br	0.160849	0.019404	0.000238
Br108	Br	0.660849	0.519404	0.500238
H109	H	0.794437	0.215134	0.587732
H110	H	1.294437	0.715134	1.087732
H111	H	0.703453	0.046645	0.000145
H112	H	1.203453	0.546645	0.500145
Br113	Br	1.016374	-0.129772	-0.275989
Br114	Br	1.516374	0.370228	0.224011
H115	H	0.855221	-0.297568	-0.211397
H116	H	1.355221	0.202432	0.288603
H117	H	0.671975	0.464860	0.000097
H118	H	1.171975	0.964860	0.500097
Br119	Br	0.537943	-0.039342	0.000186
Br120	Br	1.037943	0.460658	0.500186
Br121	Br	0.312336	0.589223	0.000115
Br122	Br	0.812336	1.089223	0.500115
Br123	Br	0.792547	0.478822	0.385479
Br124	Br	1.292547	0.978822	0.885479
H125	H	0.427799	0.425427	0.000157
H126	H	0.927799	0.925427	0.500157
Br127	Br	0.963160	0.556802	0.615070
Br128	Br	1.463160	1.056802	1.115070
H129	H	0.146820	0.503232	0.000159
H130	H	0.646820	1.003232	0.500159
H131	H	0.422470	0.124451	0.000211
H132	H	0.922470	0.624451	0.500211
