data_functionalizedCrystal
_audit_creation_method	'MofGen! by Chris Wilmer'
_symmetry_space_group_name_H-M	'P1'
_symmetry_Int_Tables_number	1
_symmetry_cell_setting	triclinic
loop_
_symmetry_equiv_pos_as_xyz
  x,y,z
_cell_length_a	11.169417
_cell_length_b	13.031981
_cell_length_c	11.169409
_cell_angle_alpha	82.780222
_cell_angle_beta	89.980487
_cell_angle_gamma	97.193279
loop_
_atom_site_label
_atom_site_type_symbol
_atom_site_fract_x
_atom_site_fract_y
_atom_site_fract_z
Zn1	Zn	1.774262	-0.416001	-0.617782
Zn2	Zn	1.748641	-0.590825	-0.391569
Zn3	Zn	1.573538	-0.416066	-0.417108
Zn4	Zn	1.548058	-0.590741	-0.592227
O5	O	1.661125	-0.503409	-0.504672
O6	O	1.938811	-0.439200	-0.587781
O7	O	1.725355	-0.567705	-0.226998
O8	O	1.621550	-0.269791	-0.465111
O9	O	1.919988	-0.567643	-0.421583
O10	O	1.769021	-0.269743	-0.612546
O11	O	1.596707	-0.439310	-0.245761
O12	O	1.402209	-0.439229	-0.440331
O13	O	1.578123	-0.567500	-0.763576
O14	O	1.383489	-0.567562	-0.568990
O15	O	1.744314	-0.439119	-0.782351
O16	O	1.700648	-0.737081	-0.396803
O17	O	1.553280	-0.737019	-0.544226
C18	C	1.349302	-0.503394	-0.504660
C19	C	1.215899	-0.503414	-0.504680
C20	C	1.621451	-0.774976	-0.464996
C21	C	1.604589	-0.891153	-0.448063
C22	C	1.669989	-0.942842	-0.513533
C23	C	1.652562	-1.062917	-0.496033
C24	C	1.974165	-0.503423	-0.504684
C25	C	2.107564	-0.503430	-0.504689
C26	C	1.661234	-0.503292	-0.817731
C27	C	1.661280	-0.503243	-0.951138
C28	C	1.700986	-0.230781	-0.544528
C29	C	1.717972	-0.114603	-0.561512
C30	C	1.661096	-0.503449	-0.192841
C31	C	1.661325	-0.503204	-0.059477
H32	H	1.738878	-0.898201	-0.582545
Cl33	Cl	1.546181	-1.131830	-0.389490
H34	H	1.786866	-1.069966	-0.630529
Cl35	Cl	1.498213	-0.960069	-0.341525
