data_functionalizedCrystal
_audit_creation_method	'MofGen! by Chris Wilmer'
_symmetry_space_group_name_H-M	'P1'
_symmetry_Int_Tables_number	1
_symmetry_cell_setting	triclinic
loop_
_symmetry_equiv_pos_as_xyz
  x,y,z
_cell_length_a	11.792241
_cell_length_b	10.723024
_cell_length_c	9.798715
_cell_angle_alpha	89.996597
_cell_angle_beta	90.003545
_cell_angle_gamma	95.669357
loop_
_atom_site_label
_atom_site_type_symbol
_atom_site_fract_x
_atom_site_fract_y
_atom_site_fract_z
O1	O	0.159193	-1.656766	0.113483
O2	O	0.174430	-1.293573	0.113488
O3	O	0.001660	-1.483983	0.113475
O4	O	0.331963	-1.466356	0.113495
O5	O	0.001659	-1.483969	-0.113507
O6	O	0.174429	-1.293559	-0.113495
O7	O	0.159191	-1.656752	-0.113499
Zn8	Zn	0.166810	-1.475153	-0.149535
Zn9	Zn	0.166812	-1.475172	0.149523
O10	O	0.331961	-1.466342	-0.113487
C11	C	0.173321	-1.247070	-0.000003
C12	C	0.170003	-1.108524	-0.000001
C13	C	-0.040634	-1.482869	-0.000015
C14	C	-0.166655	-1.479555	-0.000014
C15	C	0.160301	-1.703256	-0.000006
C16	C	0.163619	-1.841801	0.000002
C17	C	-0.397380	-1.473461	0.000009
C18	C	-0.268988	-1.476847	-0.000003
C19	C	0.374255	-1.467456	0.000006
C20	C	0.500276	-1.470770	0.000014
N21	N	0.166808	-1.475150	-0.353635
C22	C	0.266676	-1.033286	0.000005
C23	C	0.263249	-0.890091	0.000007
C24	C	0.232624	-1.547740	-0.421410
C25	C	0.232622	-1.547760	-0.578572
N26	N	0.166805	-1.475185	0.353623
H27	H	0.351978	-1.074882	0.000002
H28	H	0.288967	-1.609879	-0.363082
H29	H	0.110460	-1.413029	-0.588101
H30	H	0.110457	-1.413020	-0.411963
H31	H	0.288976	-1.609901	-0.636857
F32	F	0.371427	-0.805591	0.000024
H33	H	0.080854	-0.906445	0.000005
F34	F	0.058503	-1.054162	-0.000017
