data_functionalizedCrystal
_audit_creation_method	'MofGen! by Chris Wilmer'
_symmetry_space_group_name_H-M	'P1'
_symmetry_Int_Tables_number	1
_symmetry_cell_setting	triclinic
loop_
_symmetry_equiv_pos_as_xyz
  x,y,z
_cell_length_a	12.594517
_cell_length_b	12.594516
_cell_length_c	12.759393
_cell_angle_alpha	90.029472
_cell_angle_beta	89.978001
_cell_angle_gamma	89.973469
loop_
_atom_site_label
_atom_site_type_symbol
_atom_site_fract_x
_atom_site_fract_y
_atom_site_fract_z
Zn1	Zn	1.627195	0.423685	-0.594095
Zn2	Zn	1.627051	0.601704	-0.418421
Zn3	Zn	1.449197	0.423740	-0.418423
Zn4	Zn	1.449148	0.601621	-0.594052
O5	O	1.538148	0.512688	-0.506248
O6	O	1.776122	0.447312	-0.570808
O7	O	1.603418	0.578155	-0.271400
O8	O	1.472890	0.274787	-0.441745
O9	O	1.776016	0.578102	-0.441742
O10	O	1.603664	0.274746	-0.570810
O11	O	1.472750	0.447405	-0.271402
O12	O	1.300245	0.447324	-0.441704
O13	O	1.472806	0.577960	-0.741079
O14	O	1.300209	0.578013	-0.570738
O15	O	1.603617	0.447231	-0.741110
O16	O	1.603371	0.750639	-0.441700
O17	O	1.472666	0.750578	-0.570735
C18	C	1.261607	0.512666	-0.506217
C19	C	1.143301	0.512683	-0.506229
C20	C	1.074037	0.441504	-0.436181
C21	C	1.003207	0.538594	-0.410342
C22	C	1.003332	0.415640	-0.532085
C23	C	1.074030	0.609824	-0.480340
C24	C	1.074161	0.486804	-0.602127
C25	C	1.003363	0.583962	-0.576325
C26	C	1.538026	0.789229	-0.506236
C27	C	1.538072	0.907534	-0.506266
C28	C	1.466962	0.976793	-0.576398
C29	C	1.441014	1.047663	-0.480530
C30	C	1.564077	1.047463	-0.602150
C31	C	1.512073	0.976846	-0.410347
C32	C	1.635181	0.976640	-0.532031
C33	C	1.609270	1.047478	-0.436096
C34	C	1.815768	0.512710	-0.506280
C35	C	1.934074	0.512719	-0.506293
C36	C	1.538252	1.235067	-0.506281
C37	C	1.538176	1.116761	-0.506292
C38	C	1.538222	0.512580	-0.780281
C39	C	1.538254	0.512534	-0.897058
C40	C	1.606376	0.444457	-0.951938
C41	C	1.606402	0.444419	-1.061662
C42	C	1.470179	0.580544	-1.061617
C43	C	1.470149	0.580576	-0.951894
C44	C	1.674481	0.376416	-0.897102
C45	C	1.742610	0.308334	-0.951982
C46	C	1.742635	0.308295	-1.061706
C47	C	1.674532	0.376339	-1.116550
C48	C	1.538135	0.512718	-0.233281
C49	C	1.538309	0.512464	-0.116504
H50	H	1.406736	0.945755	-0.635621
H51	H	1.674545	0.376290	-1.205895
H52	H	1.586031	1.078482	-0.683227
H53	H	1.414662	0.635994	-0.907210
H54	H	1.798050	0.252929	-0.907321
O55	O	0.965800	0.564690	-0.313699
C56	C	0.811619	0.594648	-0.205763
C57	C	0.853861	0.565166	-0.315271
H58	H	0.721111	0.595020	-0.206991
H59	H	0.841778	0.676827	-0.183043
H60	H	0.840706	0.533842	-0.146157
H61	H	0.824791	0.625900	-0.374950
H62	H	0.823709	0.482960	-0.337901
O63	O	1.343167	1.084938	-0.454360
C64	C	1.239652	1.188802	-0.332922
C65	C	1.350519	1.146642	-0.362414
H66	H	1.245562	1.238717	-0.258594
H67	H	1.183687	1.119138	-0.318806
H68	H	1.207638	1.239825	-0.399587
H69	H	1.382629	1.095636	-0.295786
H70	H	1.406413	1.216354	-0.376567
O71	O	1.485735	0.939824	-0.313668
C72	C	1.456196	0.786092	-0.205176
C73	C	1.486017	0.827877	-0.314714
H74	H	1.456436	0.695578	-0.205979
H75	H	1.373689	0.815904	-0.183063
H76	H	1.516466	0.815872	-0.145366
H77	H	1.425820	0.798115	-0.374597
H78	H	1.568551	0.798074	-0.336738
H79	H	1.669451	1.078319	-0.376730
H80	H	1.798101	0.252852	-1.106387
O81	O	1.403884	0.646530	-1.114843
C82	C	1.222819	0.698222	-1.148345
C83	C	1.297773	0.623404	-1.088022
H84	H	1.137015	0.679566	-1.126666
H85	H	1.234454	0.686502	-1.236205
H86	H	1.241515	0.784047	-1.126766
H87	H	1.279124	0.537550	-1.109513
H88	H	1.286125	0.635216	-1.000176
H89	H	1.104956	0.691931	-0.458407
O90	O	1.111015	0.369882	-0.365288
C91	C	1.116751	0.316265	-0.184118
C92	C	1.074825	0.397460	-0.264289
H93	H	1.087491	0.338520	-0.102445
H94	H	1.207264	0.316378	-0.185189
H95	H	1.086477	0.233734	-0.205388
H96	H	1.105021	0.480031	-0.243074
H97	H	0.984314	0.397254	-0.263203
O98	O	0.966614	0.656012	-0.646908
C99	C	0.961191	0.839684	-0.699436
C100	C	1.002862	0.758201	-0.619420
H101	H	0.990498	0.922319	-0.677253
H102	H	0.870677	0.838777	-0.699433
H103	H	0.991609	0.818259	-0.780912
H104	H	0.972522	0.779570	-0.537904
H105	H	1.093375	0.759124	-0.619515
H106	H	0.972220	0.333568	-0.553892
O107	O	1.111506	0.460508	-0.698734
C108	C	1.216826	0.338634	-0.800807
C109	C	1.174623	0.368326	-0.691340
H110	H	1.267847	0.264090	-0.794869
H111	H	1.266696	0.406757	-0.832971
H112	H	1.147105	0.323037	-0.855641
H113	H	1.244280	0.383905	-0.636427
H114	H	1.124722	0.300186	-0.659262
O115	O	1.733121	0.939567	-0.558117
C116	C	1.912631	0.983686	-0.606804
C117	C	1.801760	1.025815	-0.577284
H118	H	1.968163	1.053396	-0.622286
H119	H	1.906541	0.932598	-0.680338
H120	H	1.945288	0.933863	-0.539560
H121	H	1.769039	1.075683	-0.644459
H122	H	1.807917	1.076845	-0.503716
H123	H	1.674470	0.376442	-0.807759
