data_functionalizedCrystal
_audit_creation_method	'MofGen! by Chris Wilmer'
_symmetry_space_group_name_H-M	'P1'
_symmetry_Int_Tables_number	1
_symmetry_cell_setting	triclinic
loop_
_symmetry_equiv_pos_as_xyz
  x,y,z
_cell_length_a	14.395555
_cell_length_b	14.395555
_cell_length_c	14.395555
_cell_angle_alpha	59.995932
_cell_angle_beta	89.997643
_cell_angle_gamma	60.003201
loop_
_atom_site_label
_atom_site_type_symbol
_atom_site_fract_x
_atom_site_fract_y
_atom_site_fract_z
Zr1	Zr	0.894906	1.016838	-0.121945
O2	O	0.746591	1.210634	-0.270275
O3	O	0.940369	0.823042	-0.076472
O4	O	0.940378	1.016847	-0.270276
O5	O	0.746579	1.016822	0.076404
O6	O	1.093245	1.016853	-0.270280
O7	O	0.746582	1.016829	-0.076470
O8	O	1.093229	0.670173	0.076401
O9	O	0.746596	1.363503	-0.270277
O10	O	1.073846	0.902758	-0.057083
O11	O	0.959761	0.902748	0.057008
O12	O	0.959772	1.130928	-0.171172
O13	O	0.845687	1.130917	-0.057081
Zr14	Zr	1.138708	1.016838	0.121866
Zr15	Zr	1.138712	1.016849	-0.121950
Zr16	Zr	0.894902	1.016827	0.121872
Zr17	Zr	0.894914	1.260647	-0.121948
Zr18	Zr	1.138700	0.773029	0.121870
O19	O	1.093245	1.210634	0.076393
O20	O	1.093251	1.210649	-0.270283
O21	O	0.746585	1.210618	0.076401
O22	O	1.287023	0.823042	0.270196
O23	O	1.287029	0.823058	-0.076480
O24	O	0.940363	0.823026	0.270204
O25	O	1.287035	1.016853	-0.076483
O26	O	1.093236	1.016829	0.270198
O27	O	0.940369	1.016822	0.270201
O28	O	1.287032	1.016847	0.076391
O29	O	0.940389	1.363512	-0.270281
O30	O	1.093226	0.670164	0.270203
O31	O	1.287018	0.670173	0.270198
O32	O	1.287022	0.670181	0.076397
O33	O	0.746592	1.363494	-0.076475
O34	O	0.940385	1.363503	-0.076480
O35	O	1.073842	0.902748	0.171093
O36	O	1.187927	0.902758	0.057002
O37	O	1.073853	1.130928	-0.057087
O38	O	0.959768	1.130917	0.057004
C39	C	1.016798	0.711870	-0.000035
C40	C	1.016795	0.608366	-0.000033
C41	C	0.711844	1.016824	-0.000032
C42	C	0.608342	1.016819	-0.000030
C43	C	0.954594	0.547768	0.062178
C44	C	0.909516	0.562028	-0.045101
C45	C	1.061846	0.409711	0.107213
C46	C	0.971654	0.624052	-0.107375
C47	C	1.124043	0.471672	0.045016
C48	C	1.078992	0.485978	-0.062327
C49	C	0.609951	0.892411	0.062175
C50	C	0.516937	0.954600	0.107261
C51	C	0.516928	0.954636	-0.045083
C52	C	0.516690	1.079009	0.045119
C53	C	0.516696	1.079027	-0.107285
C54	C	0.423664	1.141306	-0.062225
C55	C	1.321771	1.016852	-0.000047
C56	C	1.425273	1.016856	-0.000049
C57	C	1.016812	1.016852	-0.305017
C58	C	1.016814	1.016856	-0.408523
C59	C	1.016816	1.321806	-0.000044
C60	C	1.016819	1.425309	-0.000046
C61	C	0.954604	1.141264	-0.531318
C62	C	1.061866	1.079076	-0.562159
C63	C	0.909558	1.079040	-0.562105
C64	C	1.124140	0.954667	-0.438001
C65	C	0.971754	0.954649	-0.437950
C66	C	1.079081	0.892369	-0.468718
C67	C	1.016802	1.016824	0.304938
C68	C	1.016800	1.016819	0.408444
C69	C	1.321762	0.711883	-0.000042
C70	C	1.425260	0.608385	-0.000043
C71	C	1.016793	0.711856	0.304943
C72	C	1.016788	0.608348	0.408451
C73	C	1.321756	0.711870	0.304935
C74	C	1.425253	0.608366	0.408441
C75	C	0.711858	1.321806	-0.305014
C76	C	0.608361	1.425309	-0.408520
C77	C	0.711853	1.321792	-0.000037
C78	C	0.608354	1.425291	-0.000036
C79	C	1.016822	1.321820	-0.305021
C80	C	1.016827	1.425328	-0.408529
C81	C	1.548047	0.547831	0.062128
C82	C	1.578901	0.409723	0.107183
C83	C	1.578815	0.562134	-0.045164
C84	C	1.454752	0.471576	0.045076
C85	C	1.454668	0.624061	-0.107330
C86	C	1.485450	0.485962	-0.062302
C87	C	0.954581	0.547760	0.406839
C88	C	1.061850	0.409660	0.499860
C89	C	0.909546	0.561985	0.499869
C90	C	1.124120	0.471548	0.500109
C91	C	0.971739	0.623947	0.500103
C92	C	1.079073	0.485856	0.593142
C93	C	1.423635	0.547752	0.531237
C94	C	1.516617	0.409659	0.562031
C95	C	1.516690	0.561930	0.562068
C96	C	1.516873	0.471575	0.437872
C97	C	1.516931	0.623920	0.437912
C98	C	1.609931	0.485837	0.468633
H99	H	0.901922	0.574989	0.114709
H100	H	0.517518	1.131548	0.083319
N101	N	0.515755	0.888679	-0.092894
N102	N	0.435065	0.878988	-0.101325
H103	H	0.434239	0.832399	-0.135085
N104	N	1.517891	0.608524	0.629230
N105	N	1.598582	0.536231	0.719616
H106	H	1.599426	0.569136	0.767051
H107	H	1.516025	0.434241	0.384477
H108	H	1.689559	0.458801	0.442975
N109	N	0.923739	0.738903	-0.221223
N110	N	0.968639	0.732409	-0.294027
H111	H	0.934799	0.813524	-0.374431
N112	N	0.888726	1.273237	-0.563245
N113	N	0.916473	1.348768	-0.620910
H114	H	0.869951	1.441973	-0.643458
H115	H	0.933618	0.902111	-0.384431
H116	H	0.818858	1.131641	-0.615606
H117	H	0.818826	0.599210	-0.083215
N118	N	1.109672	1.145048	-0.629298
N119	N	1.064253	1.263051	-0.668488
H120	H	1.098010	1.309652	-0.715905
N121	N	0.517901	1.144953	-0.221044
N122	N	0.439116	1.191183	-0.302222
H123	H	0.439970	1.237737	-0.382568
H124	H	0.689703	0.787213	0.114849
N125	N	0.323782	1.273386	-0.128208
N126	N	0.306074	1.348908	-0.100506
H127	H	0.235532	1.442189	-0.147101
H128	H	1.632289	0.599379	-0.083281
H129	H	0.516007	0.902018	0.197958
H130	H	1.131758	0.787085	-0.443060
H131	H	1.343878	0.574842	0.556679
N132	N	1.145155	0.451957	0.693036
N133	N	1.192796	0.507197	0.684123
H134	H	1.239470	0.483249	0.754674
H135	H	1.459794	0.458946	-0.114914
H136	H	1.214883	0.902120	-0.384643
H137	H	1.401139	0.715725	-0.197993
N138	N	1.144961	0.452166	-0.128425
N139	N	1.156286	0.366070	-0.138544
H140	H	1.202870	0.342191	-0.185230
N141	N	0.923914	0.738928	0.498857
N142	N	0.982342	0.780185	0.499172
H143	H	0.948555	0.861401	0.498283
N144	N	0.795778	0.608587	0.501023
N145	N	0.723232	0.641933	0.422209
H146	H	0.642886	0.674829	0.423024
H147	H	1.573486	0.574901	0.114815
H148	H	1.632434	0.318082	0.197866
H149	H	0.902060	0.574846	0.327078
N150	N	1.387831	0.424644	0.093005
N151	N	1.297034	0.497039	0.100821
H152	H	1.249768	0.463898	0.134670
N153	N	1.109658	0.294734	0.501012
N154	N	1.064234	0.300977	0.422191
H155	H	1.097993	0.219817	0.422995
H156	H	1.517517	0.318050	0.615516
N157	N	1.237947	0.424676	0.499065
N158	N	1.256309	0.497124	0.418835
H159	H	1.336697	0.464023	0.418092
N160	N	1.515711	0.738901	0.370838
N161	N	1.435000	0.845951	0.350023
H162	H	1.434125	0.927171	0.302661
N163	N	1.237790	0.425037	0.092871
N164	N	1.295613	0.326186	0.193124
H165	H	1.375950	0.293242	0.226934
H166	H	1.099936	0.318100	0.197914
