data_functionalizedCrystal
_audit_creation_method	'MofGen! by Chris Wilmer'
_symmetry_space_group_name_H-M	'P1'
_symmetry_Int_Tables_number	1
_symmetry_cell_setting	triclinic
loop_
_symmetry_equiv_pos_as_xyz
  x,y,z
_cell_length_a	14.853566
_cell_length_b	15.995292
_cell_length_c	13.930277
_cell_angle_alpha	89.998637
_cell_angle_beta	89.995631
_cell_angle_gamma	83.551515
loop_
_atom_site_label
_atom_site_type_symbol
_atom_site_fract_x
_atom_site_fract_y
_atom_site_fract_z
O1	O	1.196197	0.109315	-0.079760
O2	O	0.933717	0.122339	-0.079775
O3	O	1.072159	-0.006056	-0.079769
O4	O	1.057755	0.237709	-0.079767
O5	O	1.072140	-0.006059	0.079893
O6	O	0.933698	0.122336	0.079886
O7	O	1.196178	0.109312	0.079901
Zn8	Zn	1.064935	0.115823	0.105244
Zn9	Zn	1.064960	0.115827	-0.105118
O10	O	1.057736	0.237707	0.079895
C11	C	0.900120	0.121747	0.000053
C12	C	0.800039	0.119979	0.000047
C13	C	0.376876	0.112504	-0.086967
C14	C	0.376876	0.112501	0.087102
C15	C	0.470908	0.114161	0.087099
C16	C	0.517928	0.114994	0.000062
C17	C	0.470916	0.114166	-0.086973
C18	C	0.517926	0.114997	0.174132
C19	C	0.611963	0.116659	0.174133
C20	C	0.658985	0.117485	0.087094
C21	C	0.611967	0.116657	0.000056
C22	C	0.658987	0.117489	-0.086982
C23	C	0.611972	0.116655	-0.174021
C24	C	0.517938	0.114993	-0.174012
C25	C	0.753019	0.119147	0.087085
C26	C	0.753027	0.119152	-0.086987
C27	C	1.071564	-0.037254	0.000059
C28	C	1.069806	-0.130209	0.000052
C29	C	1.063344	-0.467955	0.000061
C30	C	1.163268	-0.444526	0.000423
C31	C	1.165168	-0.347849	0.000060
C32	C	1.066551	-0.300395	0.000057
C33	C	1.016604	-0.329552	-0.091118
C34	C	1.015401	-0.426344	-0.091191
C35	C	1.013339	-0.426207	0.090375
C36	C	1.017042	-0.329710	0.091576
C37	C	1.068357	-0.205697	0.000052
C38	C	1.061535	-0.562652	0.000059
C39	C	1.229775	0.109903	0.000070
C40	C	1.329856	0.111671	0.000070
C41	C	1.058331	0.268904	0.000064
C42	C	1.060089	0.361859	0.000065
N43	N	1.064924	0.115820	0.248810
N44	N	1.064978	0.115823	-0.248684
C45	C	1.003656	0.172658	0.701076
C46	C	1.126290	0.058990	0.701051
C47	C	1.126279	0.058987	0.600556
C48	C	1.064956	0.115822	0.550315
C49	C	1.003645	0.172659	0.600571
C50	C	1.187596	0.002157	0.550292
C51	C	1.187588	0.002153	0.449790
C52	C	1.126261	0.058984	0.399549
C53	C	1.064946	0.115822	0.449810
C54	C	1.003623	0.172657	0.399570
C55	C	0.942303	0.229492	0.449830
C56	C	0.942317	0.229490	0.550329
C57	C	1.126247	0.058986	0.299050
C58	C	1.003612	0.172658	0.299065
H59	H	0.338587	0.111829	0.157964
Cl60	Cl	1.225540	-0.318401	0.100979
H61	H	1.053410	-0.311104	0.159027
H62	H	0.479650	0.114313	-0.244874
H63	H	0.944036	-0.297769	-0.094509
Cl64	Cl	0.317778	0.111430	-0.196382
H65	H	1.176221	0.012721	0.741960
Cl66	Cl	0.902291	-0.448944	-0.097590
Cl67	Cl	1.203334	-0.012454	0.235872
Cl68	Cl	0.671059	0.117705	0.283551
Cl69	Cl	0.926512	0.244107	0.235914
H70	H	0.791304	0.119827	-0.157865
H71	H	0.892378	0.275771	0.408913
H72	H	1.050008	-0.453119	-0.159343
H73	H	0.650267	0.117338	-0.244887
H74	H	0.479634	0.114325	0.244993
Cl75	Cl	0.812118	0.120202	0.196496
H76	H	1.201776	-0.472480	0.065808
H77	H	1.201578	-0.473499	-0.064591
Cl78	Cl	0.865238	0.300937	0.613515
Cl79	Cl	1.225938	-0.319355	-0.101020
Cl80	Cl	1.061592	-0.469842	0.197069
H81	H	1.237527	-0.044112	0.591201
H82	H	1.237517	-0.044126	0.408875
H83	H	0.945061	-0.296824	0.097080
Cl84	Cl	1.070179	-0.298524	-0.195875
H85	H	0.939787	-0.440282	0.090987
H86	H	0.953727	0.218930	0.742000
