data_functionalizedCrystal
_audit_creation_method	'MofGen! by Chris Wilmer'
_symmetry_space_group_name_H-M	'P1'
_symmetry_Int_Tables_number	1
_symmetry_cell_setting	triclinic
loop_
_symmetry_equiv_pos_as_xyz
  x,y,z
_cell_length_a	16.109301
_cell_length_b	15.995350
_cell_length_c	15.186229
_cell_angle_alpha	89.998487
_cell_angle_beta	89.999362
_cell_angle_gamma	83.476928
loop_
_atom_site_label
_atom_site_type_symbol
_atom_site_fract_x
_atom_site_fract_y
_atom_site_fract_z
O1	O	1.103160	0.107624	-0.073168
O2	O	1.436493	0.440957	0.260165
O3	O	1.769826	0.774291	0.593498
O4	O	0.861101	0.121018	-0.073182
O5	O	1.194435	0.454351	0.260151
O6	O	1.527768	0.787684	0.593485
O7	O	0.988747	-0.007569	-0.073174
O8	O	1.322081	0.325765	0.260159
O9	O	1.655414	0.659098	0.593493
O10	O	0.975514	0.236210	-0.073176
O11	O	1.308847	0.569544	0.260157
O12	O	1.642180	0.902877	0.593490
O13	O	0.988739	-0.007570	0.073283
O14	O	1.322072	0.325763	0.406617
O15	O	1.655405	0.659096	0.739950
O16	O	0.861093	0.121016	0.073275
O17	O	1.194426	0.454349	0.406609
O18	O	1.527759	0.787683	0.739942
O19	O	1.103151	0.107622	0.073289
O20	O	1.436484	0.440956	0.406622
O21	O	1.769818	0.774289	0.739955
Zn22	Zn	0.982121	0.114319	0.096535
Zn23	Zn	1.315454	0.447652	0.429869
Zn24	Zn	1.648787	0.780985	0.763202
Zn25	Zn	0.982132	0.114321	-0.096428
Zn26	Zn	1.315465	0.447654	0.236905
Zn27	Zn	1.648798	0.780988	0.570238
O28	O	0.975505	0.236208	0.073281
O29	O	1.308838	0.569542	0.406614
O30	O	1.642172	0.902875	0.739948
C31	C	0.830122	0.120474	0.000045
C32	C	1.163455	0.453808	0.333378
C33	C	1.496789	0.787141	0.666712
C34	C	0.737826	0.118848	0.000040
C35	C	1.071160	0.452181	0.333373
C36	C	1.404493	0.785514	0.666706
C37	C	0.988196	-0.038764	0.000053
C38	C	1.321529	0.294569	0.333386
C39	C	1.654863	0.627903	0.666720
C40	C	0.986556	-0.131714	0.000048
C41	C	1.319889	0.201619	0.333381
C42	C	1.653222	0.534953	0.666715
C43	C	0.515573	0.191366	0.000049
C44	C	0.848907	0.524699	0.333382
C45	C	1.182240	0.858033	0.666716
C46	C	0.428853	0.189831	0.000055
C47	C	0.762186	0.523165	0.333388
C48	C	1.095519	0.856498	0.666721
C49	C	0.448686	0.037268	0.000053
C50	C	0.782019	0.370601	0.333386
C51	C	1.115352	0.703935	0.666719
C52	C	0.535405	0.038804	0.000053
C53	C	0.868738	0.372137	0.333387
C54	C	1.202072	0.705470	0.666720
C55	C	0.568846	0.115855	0.000047
C56	C	0.902179	0.449189	0.333380
C57	C	1.235513	0.782522	0.666714
C58	C	0.395406	0.112785	0.000052
C59	C	0.728740	0.446118	0.333385
C60	C	1.062073	0.779451	0.666719
C61	C	0.301380	0.111120	0.000058
C62	C	0.634713	0.444453	0.333392
C63	C	0.968046	0.777787	0.666725
C64	C	0.662879	0.117520	0.000043
C65	C	0.996212	0.450854	0.333376
C66	C	1.329545	0.784187	0.666709
C67	C	0.980665	-0.469460	0.000050
C68	C	1.313999	-0.136127	0.333384
C69	C	1.647332	0.197207	0.666717
C70	C	0.889758	-0.422001	-0.000283
C71	C	1.223091	-0.088668	0.333050
C72	C	1.556425	0.244666	0.666384
C73	C	0.891399	-0.325311	0.000047
C74	C	1.224732	0.008022	0.333380
C75	C	1.558065	0.341355	0.666714
C76	C	0.983587	-0.301900	0.000049
C77	C	1.316920	0.031433	0.333382
C78	C	1.650254	0.364767	0.666715
C79	C	1.028421	-0.342991	0.083684
C80	C	1.361754	-0.009658	0.417017
C81	C	1.695088	0.323676	0.750351
C82	C	1.026137	-0.439626	0.083754
C83	C	1.359470	-0.106293	0.417087
C84	C	1.692804	0.227041	0.750420
C85	C	1.028025	-0.439983	-0.082795
C86	C	1.361358	-0.106649	0.250538
C87	C	1.694691	0.226684	0.583871
C88	C	1.028003	-0.343037	-0.083901
C89	C	1.361337	-0.009704	0.249433
C90	C	1.694670	0.323629	0.582766
C91	C	0.985243	-0.207203	0.000051
C92	C	1.318577	0.126130	0.333384
C93	C	1.651910	0.459464	0.666717
C94	C	0.979012	-0.564157	0.000054
C95	C	1.312345	-0.230824	0.333388
C96	C	1.645679	0.102509	0.666721
C97	C	1.134130	0.108166	0.000060
C98	C	1.467464	0.441499	0.333393
C99	C	1.800797	0.774832	0.666727
C100	C	1.226426	0.109792	0.000059
C101	C	1.559759	0.443126	0.333393
C102	C	1.893093	0.776459	0.666726
C103	C	0.976056	0.267404	0.000052
C104	C	1.309390	0.600737	0.333385
C105	C	1.642723	0.934071	0.666719
C106	C	0.977697	0.360354	0.000051
C107	C	1.311030	0.693687	0.333385
C108	C	1.644363	1.027021	0.666718
N109	N	0.982119	0.114317	0.228228
N110	N	1.315452	0.447650	0.561561
N111	N	1.648786	0.780983	0.894895
N112	N	0.982140	0.114317	-0.228121
N113	N	1.315473	0.447650	0.105212
N114	N	1.648807	0.780983	0.438546
C115	C	1.038660	0.057398	0.453954
C116	C	1.371993	0.390731	0.787288
C117	C	1.705327	0.724064	1.120621
C118	C	1.038662	0.057396	0.546144
C119	C	1.371996	0.390729	0.879477
C120	C	1.705329	0.724062	1.212811
C121	C	0.925593	0.171238	0.546146
C122	C	1.258926	0.504572	0.879479
C123	C	1.592260	0.837905	1.212813
C124	C	0.925587	0.171236	0.453958
C125	C	1.258920	0.504569	0.787291
C126	C	1.592254	0.837902	1.120625
C127	C	0.982125	0.114316	0.407865
C128	C	1.315459	0.447650	0.741198
C129	C	1.648792	0.780983	1.074531
C130	C	0.982134	0.114317	0.592242
C131	C	1.315467	0.447650	0.925576
C132	C	1.648800	0.780984	1.258909
C133	C	0.982136	0.114315	0.692198
C134	C	1.315470	0.447649	1.025532
C135	C	1.648803	0.780982	1.358865
C136	C	0.982122	0.114317	0.307902
C137	C	1.315455	0.447650	0.641235
C138	C	1.648789	0.780983	0.974569
H139	H	0.542798	0.254106	0.000051
H140	H	0.876131	0.587440	0.333384
H141	H	1.209465	0.920773	0.666717
H142	H	0.997275	-0.314602	0.145921
H143	H	1.330608	0.018732	0.479254
H144	H	1.663941	0.352065	0.812588
H145	H	1.096149	-0.328884	0.086795
H146	H	1.429482	0.004450	0.420129
H147	H	1.762816	0.337783	0.753462
H148	H	1.084695	0.011050	0.416427
H149	H	1.418029	0.344383	0.749761
H150	H	1.751362	0.677716	1.083094
H151	H	0.853427	-0.440522	-0.060260
H152	H	1.186760	-0.107189	0.273074
H153	H	1.520094	0.226145	0.606407
H154	H	0.421447	-0.025465	0.000063
H155	H	0.754780	0.307869	0.333396
H156	H	1.088114	0.641202	0.666730
H157	H	0.856156	-0.296879	-0.059906
H158	H	1.189489	0.036454	0.273427
H159	H	1.522823	0.369788	0.606761
Br160	Br	0.848867	0.248485	0.608704
Br161	Br	1.182201	0.581818	0.942038
Br162	Br	1.515534	0.915151	1.275371
Br163	Br	1.115387	-0.019858	0.608693
Br164	Br	1.448720	0.313476	0.942026
Br165	Br	1.782054	0.646809	1.275359
Br166	Br	0.848850	0.248481	0.391400
Br167	Br	1.182183	0.581814	0.724734
Br168	Br	1.515517	0.915147	1.058067
H169	H	0.385481	0.251320	0.000058
H170	H	0.718814	0.584653	0.333392
H171	H	1.052147	0.917987	0.666725
H172	H	0.578782	-0.022690	0.000054
H173	H	0.912116	0.310643	0.333387
H174	H	1.245449	0.643977	0.666721
Br175	Br	0.829286	-0.455042	0.098814
Br176	Br	1.162619	-0.121709	0.432147
Br177	Br	1.495952	0.211625	0.765481
H178	H	0.855912	-0.297438	0.060099
H179	H	1.189245	0.035896	0.393432
H180	H	1.522579	0.369229	0.726765
H181	H	0.995224	-0.315779	-0.145772
H182	H	1.328557	0.017554	0.187562
H183	H	1.661891	0.350888	0.520895
H184	H	1.092880	-0.471892	0.087550
H185	H	1.426213	-0.138559	0.420883
H186	H	1.759546	0.194774	0.754216
Br187	Br	0.971632	-0.470121	0.187951
Br188	Br	1.304966	-0.136787	0.521285
Br189	Br	1.638299	0.196546	0.854618
Br190	Br	0.978485	-0.474189	-0.188452
Br191	Br	1.311818	-0.140856	0.144882
Br192	Br	1.645152	0.192478	0.478215
Br193	Br	1.140055	-0.317459	-0.092325
Br194	Br	1.473388	0.015875	0.241008
Br195	Br	1.806721	0.349208	0.574342
Br196	Br	1.139737	-0.492949	-0.083733
Br197	Br	1.473071	-0.159615	0.249601
Br198	Br	1.806404	0.173718	0.582934
