data_functionalizedCrystal
_audit_creation_method	'MofGen! by Chris Wilmer'
_symmetry_space_group_name_H-M	'P1'
_symmetry_Int_Tables_number	1
_symmetry_cell_setting	triclinic
loop_
_symmetry_equiv_pos_as_xyz
  x,y,z
_cell_length_a	14.044191
_cell_length_b	13.101039
_cell_length_c	16.992695
_cell_angle_alpha	86.408978
_cell_angle_beta	91.930000
_cell_angle_gamma	93.662449
loop_
_atom_site_label
_atom_site_type_symbol
_atom_site_fract_x
_atom_site_fract_y
_atom_site_fract_z
O1	O	1.277016	0.085166	0.186088
O2	O	1.000527	0.085179	0.179224
O3	O	1.137663	0.085165	0.068436
O4	O	1.139881	0.085181	0.296876
O5	O	1.127825	-0.085264	0.076400
O6	O	0.990689	-0.085250	0.187187
O7	O	1.267178	-0.085263	0.194051
Zn8	Zn	1.127372	-0.112315	0.191884
Zn9	Zn	1.140334	0.112232	0.181392
O10	O	1.130042	-0.085248	0.304839
C11	C	0.960066	-0.000034	0.180203
C12	C	0.854162	-0.000029	0.171246
N13	N	1.118532	-0.265563	0.199044
C14	C	0.607447	-0.000036	0.218393
C15	C	0.660265	-0.000039	0.154886
C16	C	0.768159	-0.000033	0.163991
C17	C	0.499542	-0.000041	0.209289
C18	C	1.106506	-0.474604	0.208793
C19	C	1.161203	-0.525486	0.164479
C20	C	1.154512	-0.641803	0.169903
C21	C	1.113196	-0.358276	0.203370
C22	C	1.307639	-0.000047	0.193072
C23	C	1.413544	-0.000045	0.202029
N24	N	1.149180	0.265480	0.174226
C25	C	1.129892	-0.000050	0.043006
C26	C	1.121383	-0.000049	-0.044634
C27	C	1.203480	-0.000054	-0.089130
C28	C	1.195480	-0.000044	-0.171477
C29	C	1.105382	-0.000036	-0.209325
C30	C	1.023280	-0.000028	-0.164823
C31	C	1.031281	-0.000031	-0.082478
C32	C	1.072221	-0.000020	-0.455244
C33	C	1.064226	-0.000021	-0.537595
C34	C	1.236427	-0.000034	-0.544243
C35	C	1.244420	-0.000043	-0.461896
C36	C	1.162318	-0.000030	-0.417401
N37	N	1.097203	-0.000029	-0.293497
N38	N	1.170499	-0.000030	-0.333232
C39	C	1.137813	-0.000032	0.330270
C40	C	1.146322	-0.000026	0.417909
H41	H	0.643257	-0.000028	0.279597
C42	C	0.971312	-0.595428	0.222499
C43	C	1.036517	-0.533724	0.265512
H44	H	0.928111	-0.631940	0.257517
H45	H	0.936841	-0.553578	0.185415
H46	H	1.004764	-0.642627	0.195405
H47	H	1.003065	-0.486520	0.292601
H48	H	1.070991	-0.575578	0.302610
C49	C	0.634419	-0.087646	0.035333
C50	C	0.611925	-0.000038	0.072254
H51	H	0.604567	-0.087644	-0.015676
H52	H	0.701628	-0.087638	0.030691
H53	H	0.612303	-0.147074	0.065940
H54	H	0.634047	0.059390	0.041650
H55	H	0.544702	-0.000037	0.076892
C56	C	1.317430	0.087546	-0.004470
C57	C	1.302518	-0.000061	-0.047528
H58	H	1.378571	0.087539	0.021215
H59	H	1.314163	0.146968	-0.039230
H60	H	1.269675	0.087534	0.033814
H61	H	1.350269	-0.000046	-0.085816
H62	H	1.305793	-0.059499	-0.012765
C63	C	0.932956	0.087588	-0.428333
C64	C	0.981970	-0.000020	-0.406347
H65	H	0.877233	0.087581	-0.398147
H66	H	0.973069	0.147010	-0.418969
H67	H	0.915314	0.087578	-0.482794
H68	H	0.999618	-0.000006	-0.351887
H69	H	0.941850	-0.059457	-0.415705
H70	H	0.949920	-0.000015	-0.195646
C71	C	1.224057	-0.360914	0.113030
C72	C	1.230988	-0.466370	0.107578
H73	H	1.267077	-0.324418	0.077852
H74	H	1.160708	-0.343528	0.099448
H75	H	1.239702	-0.343275	0.165488
H76	H	1.215336	-0.484010	0.055121
H77	H	1.294351	-0.483763	0.121156
C78	C	0.960401	0.087599	-0.630445
C79	C	0.965186	-0.000008	-0.579206
H80	H	0.899264	0.087599	-0.656138
H81	H	0.970524	0.147021	-0.601235
H82	H	1.008162	0.087579	-0.668722
H83	H	0.917430	0.000015	-0.540925
H84	H	0.955052	-0.059446	-0.608418
C85	C	1.366493	-0.000082	-0.169776
C86	C	1.285723	-0.000061	-0.220387
H87	H	1.422206	-0.000099	-0.199972
H88	H	1.369470	0.059347	-0.140296
H89	H	1.362585	-0.059518	-0.134744
H90	H	1.289628	0.059380	-0.255415
H91	H	1.282747	-0.059495	-0.249880
H92	H	1.317787	-0.000050	-0.431086
C93	C	1.300628	-0.000026	-0.673424
C94	C	1.326671	-0.000034	-0.593154
H95	H	1.356345	-0.000016	-0.703618
H96	H	1.260520	-0.059454	-0.682777
H97	H	1.267368	0.059411	-0.688317
H98	H	1.359924	-0.059475	-0.578260
H99	H	1.366794	0.059400	-0.583797
C100	C	0.892030	0.087587	-0.055547
C101	C	0.941037	-0.000027	-0.033565
H102	H	0.836313	0.087588	-0.025353
H103	H	0.932150	0.147005	-0.046189
H104	H	0.874376	0.087576	-0.110006
H105	H	0.958697	-0.000012	0.020893
H106	H	0.900909	-0.059460	-0.042916
