data_functionalizedCrystal
_audit_creation_method	'MofGen! by Chris Wilmer'
_symmetry_space_group_name_H-M	'P1'
_symmetry_Int_Tables_number	1
_symmetry_cell_setting	triclinic
loop_
_symmetry_equiv_pos_as_xyz
  x,y,z
_cell_length_a	19.077105
_cell_length_b	15.299816
_cell_length_c	19.076919
_cell_angle_alpha	77.689900
_cell_angle_beta	89.923776
_cell_angle_gamma	78.483666
loop_
_atom_site_label
_atom_site_type_symbol
_atom_site_fract_x
_atom_site_fract_y
_atom_site_fract_z
Zn1	Zn	1.115517	-0.442478	0.502525
Zn2	Zn	1.139183	-0.589537	0.405660
Zn3	Zn	1.001149	-0.430226	0.378599
Zn4	Zn	1.016933	-0.588986	0.518335
O5	O	1.068195	-0.512807	0.451280
O6	O	1.217681	-0.467345	0.494385
O7	O	1.124171	-0.563508	0.303052
O8	O	0.999811	-0.303865	0.377096
O9	O	1.235068	-0.575388	0.423218
O10	O	1.083836	-0.312867	0.468145
O11	O	1.022758	-0.446462	0.283170
O12	O	0.904218	-0.445927	0.392427
O13	O	1.026712	-0.574448	0.615257
O14	O	0.915814	-0.562568	0.495090
O15	O	1.099141	-0.466810	0.603641
O16	O	1.139476	-0.717451	0.438549
O17	O	1.049659	-0.717045	0.521331
C18	C	0.884340	-0.502859	0.442538
C19	C	0.805688	-0.498626	0.438818
C20	C	1.098867	-0.750435	0.484608
C21	C	1.112052	-0.852098	0.498893
C22	C	0.774807	-0.557450	0.490463
C23	C	0.700904	-0.553461	0.486970
C24	C	0.657883	-0.490651	0.431828
C25	C	0.688769	-0.431820	0.380180
C26	C	0.762670	-0.435806	0.383677
C27	C	0.436210	-0.472206	0.415646
C28	C	0.362304	-0.468227	0.412151
C29	C	0.374444	-0.589866	0.518943
C30	C	0.448347	-0.593850	0.522432
C31	C	0.479225	-0.535016	0.470787
N32	N	0.582342	-0.486574	0.428254
N33	N	0.554764	-0.539090	0.474364
C34	C	0.974413	-1.120225	0.349448
C35	C	0.962021	-1.024708	0.336029
C36	C	0.999528	-0.981551	0.376743
C37	C	1.049429	-1.033921	0.430880
C38	C	1.061818	-1.129447	0.444305
C39	C	1.086933	-0.990773	0.471600
C40	C	1.136834	-1.043143	0.525737
C41	C	1.149221	-1.138660	0.539159
C42	C	1.111714	-1.181817	0.498444
C43	C	1.074544	-0.895246	0.458175
C44	C	1.161948	-0.904468	0.553032
C45	C	1.174340	-0.999985	0.566451
C46	C	1.252769	-0.522795	0.460057
C47	C	1.331423	-0.527051	0.463797
C48	C	1.062047	-0.521934	0.635841
C49	C	1.059427	-0.525824	0.714490
C50	C	1.037423	-0.274253	0.417838
C51	C	1.024309	-0.172595	0.403587
C52	C	1.074352	-0.503651	0.267429
C53	C	1.077076	-0.499512	0.188751
C54	C	1.095904	-0.471612	0.745394
C55	C	1.093433	-0.475263	0.819292
C56	C	1.054488	-0.533130	0.862286
C57	C	1.018007	-0.587344	0.831378
C58	C	1.020474	-0.583688	0.757480
C59	C	1.043062	-0.550069	1.083945
C60	C	1.040599	-0.553723	1.157848
C61	C	1.116024	-0.441640	1.145756
C62	C	1.118491	-0.437993	1.071858
C63	C	1.082007	-0.492203	1.040956
N64	N	1.051964	-0.536865	0.937823
N65	N	1.084528	-0.488463	0.965420
H66	H	0.809830	-0.608599	0.535364
F67	F	0.469063	-0.409587	0.360681
H68	H	1.192488	-0.869330	0.586187
F69	F	0.795535	-0.373195	0.328710
F70	F	1.021438	-0.839521	0.400560
H71	H	0.989436	-0.903776	0.365813
H72	H	0.653735	-0.380676	0.335284
F73	F	0.908909	-0.968979	0.278420
H74	H	1.150206	-0.390874	1.036857
F75	F	0.934493	-1.166162	0.306132
H76	H	1.121803	-1.259595	0.509365
H77	H	1.189850	-1.181297	0.583243
H78	H	1.214970	-1.042638	0.610531
H79	H	0.675764	-0.601363	0.529024
F80	F	0.494127	-0.660703	0.581121
H81	H	0.349294	-0.637764	0.560990
F82	F	1.137358	-0.410025	0.699643
H83	H	1.123138	-0.431120	0.844450
F84	F	0.316520	-0.401378	0.353455
H85	H	1.145727	-0.397504	1.170925
H86	H	1.008884	-0.600848	1.192853
F87	F	1.004232	-0.607765	1.051066
H88	H	0.986295	-0.634458	0.866390
F89	F	0.981648	-0.641385	0.724591
