data_functionalizedCrystal
_audit_creation_method	'MofGen! by Chris Wilmer'
_symmetry_space_group_name_H-M	'P1'
_symmetry_Int_Tables_number	1
_symmetry_cell_setting	triclinic
loop_
_symmetry_equiv_pos_as_xyz
  x,y,z
_cell_length_a	10.654547
_cell_length_b	10.654549
_cell_length_c	7.088929
_cell_angle_alpha	96.283087
_cell_angle_beta	83.736505
_cell_angle_gamma	84.486487
loop_
_atom_site_label
_atom_site_type_symbol
_atom_site_fract_x
_atom_site_fract_y
_atom_site_fract_z
O1	O	1.655061	0.189216	0.159016
O2	O	1.289583	0.206018	0.159012
O3	O	1.480723	0.014877	0.159007
O4	O	1.463922	0.380356	0.159021
O5	O	1.506266	-0.010725	-0.158969
O6	O	1.315127	0.180415	-0.158964
O7	O	1.680604	0.163613	-0.158960
Cu8	Cu	1.500198	0.169677	-0.187996
Cu9	Cu	1.469990	0.199954	0.188048
O10	O	1.489465	0.354754	-0.158955
C11	C	1.255557	0.191982	0.000024
C12	C	1.116114	0.188289	0.000022
C13	C	1.492259	-0.044722	0.000021
C14	C	1.488564	-0.184164	0.000027
C15	C	1.710188	-0.474147	0.000020
C16	C	1.826207	-0.422609	0.000017
C17	C	1.829682	-0.291591	0.000020
C18	C	1.717127	-0.212107	0.000019
C19	C	1.601108	-0.263645	0.000022
C20	C	1.597644	-0.394667	0.000025
C21	C	1.372546	-0.235702	0.000030
C22	C	1.369067	-0.366719	0.000041
C23	C	1.259990	-0.156218	0.000029
C24	C	1.143968	-0.207754	0.000046
C25	C	1.140497	-0.338781	0.000045
C26	C	1.253048	-0.418257	0.000044
C27	C	0.826244	0.209241	0.346714
C28	C	0.877838	0.224934	0.520043
C29	C	1.008856	0.228413	0.520038
C30	C	1.088285	0.216195	0.346685
C31	C	1.036690	0.200502	0.173356
C32	C	0.905667	0.197028	0.173380
C33	C	1.064520	0.172596	-0.173307
C34	C	0.933501	0.169125	-0.173306
C35	C	1.143948	0.160377	-0.346660
C36	C	1.092353	0.144693	-0.519993
C37	C	0.961326	0.141216	-0.519981
C38	C	0.881906	0.153432	-0.346635
C39	C	1.714630	0.177649	0.000033
C40	C	1.854072	0.181344	0.000047
C41	C	1.477928	0.414353	0.000035
C42	C	1.481622	0.553797	0.000041
N43	N	1.521454	0.148380	-0.452484
N44	N	1.448744	0.221241	0.452536
H45	H	1.707368	-0.580829	0.000042
F46	F	0.686799	0.205559	0.346733
F47	F	1.619968	0.049695	-0.559211
F48	F	0.793302	0.237899	0.704528
H49	H	1.924155	-0.249631	0.000007
F50	F	1.945991	-0.507211	0.000001
H51	H	1.719968	-0.105428	-0.000002
F52	F	1.350247	0.319933	-0.440745
H53	H	1.262829	-0.049538	0.000020
H54	H	1.052336	-0.143030	0.000032
H55	H	0.775222	0.150610	-0.346609
H56	H	1.046022	-0.380735	0.000027
H57	H	1.050863	0.241190	0.661177
F58	F	1.249365	-0.557701	0.000029
H59	H	1.194967	0.219013	0.346697
H60	H	1.250630	0.163203	-0.346651
F61	F	1.176892	0.131684	-0.704466
H62	H	0.919327	0.128442	-0.661127
