data_functionalizedCrystal
_audit_creation_method	'MofGen! by Chris Wilmer'
_symmetry_space_group_name_H-M	'P1'
_symmetry_Int_Tables_number	1
_symmetry_cell_setting	triclinic
loop_
_symmetry_equiv_pos_as_xyz
  x,y,z
_cell_length_a	18.101395
_cell_length_b	18.101398
_cell_length_c	16.625539
_cell_angle_alpha	89.984040
_cell_angle_beta	90.027648
_cell_angle_gamma	89.970320
loop_
_atom_site_label
_atom_site_type_symbol
_atom_site_fract_x
_atom_site_fract_y
_atom_site_fract_z
Zn1	Zn	-0.294856	-1.132133	0.455814
Zn2	Zn	0.038477	-0.798799	0.789147
Zn3	Zn	0.371810	-0.465466	1.122481
Zn4	Zn	-0.418706	-1.132025	0.320983
Zn5	Zn	-0.085372	-0.798692	0.654316
Zn6	Zn	0.247961	-0.465358	0.987649
Zn7	Zn	-0.294879	-1.008288	0.321005
Zn8	Zn	0.038454	-0.674955	0.654339
Zn9	Zn	0.371787	-0.341621	0.987672
Zn10	Zn	-0.418658	-1.008242	0.455783
Zn11	Zn	-0.085324	-0.674909	0.789117
Zn12	Zn	0.248009	-0.341576	1.122450
O13	O	-0.356775	-1.070172	0.388396
O14	O	-0.023441	-0.736839	0.721730
O15	O	0.309892	-0.403505	1.055063
O16	O	-0.311296	-1.235751	0.437932
O17	O	0.022038	-0.902418	0.771265
O18	O	0.355371	-0.569084	1.104598
O19	O	-0.402309	-1.115585	0.208153
O20	O	-0.068976	-0.782252	0.541486
O21	O	0.264357	-0.448919	0.874820
O22	O	-0.191243	-1.024780	0.338910
O23	O	0.142090	-0.691447	0.672243
O24	O	0.475423	-0.358114	1.005577
O25	O	-0.402287	-1.235672	0.338872
O26	O	-0.068954	-0.902339	0.672205
O27	O	0.264379	-0.569005	1.005538
O28	O	-0.191227	-1.115769	0.437953
O29	O	0.142107	-0.782435	0.771287
O30	O	0.475440	-0.449102	1.104620
O31	O	-0.311335	-1.024676	0.208170
O32	O	0.021999	-0.691343	0.541503
O33	O	0.355332	-0.358010	0.874836
O34	O	-0.311288	-0.904649	0.338881
O35	O	0.022045	-0.571316	0.672214
O36	O	0.355378	-0.237982	1.005547
O37	O	-0.402206	-1.024702	0.568620
O38	O	-0.068872	-0.691369	0.901953
O39	O	0.264461	-0.358036	1.235286
O40	O	-0.402228	-0.904615	0.437901
O41	O	-0.068894	-0.571282	0.771235
O42	O	0.264439	-0.237949	1.104568
O43	O	-0.311249	-1.115724	0.568642
O44	O	0.022084	-0.782391	0.901976
O45	O	0.355417	-0.449057	1.235309
O46	O	-0.522332	-1.115541	0.338842
O47	O	-0.188999	-0.782207	0.672175
O48	O	0.144335	-0.448874	1.005509
O49	O	-0.522297	-1.024598	0.437879
O50	O	-0.188964	-0.691265	0.771213
O51	O	0.144370	-0.357931	1.104546
C52	C	-0.356756	-0.877761	0.388391
C53	C	-0.023422	-0.544428	0.721724
C54	C	0.309911	-0.211095	1.055057
C55	C	-0.356765	-0.795447	0.388407
C56	C	-0.023432	-0.462114	0.721741
C57	C	0.309901	-0.128781	1.055074
C58	C	-0.356780	-0.644739	0.388406
C59	C	-0.023447	-0.311406	0.721739
C60	C	0.309886	0.021928	1.055073
C61	C	-0.414085	-0.613389	0.450611
C62	C	-0.080752	-0.280056	0.783944
C63	C	0.252581	0.053278	1.117277
C64	C	-0.414318	-0.527770	0.450426
C65	C	-0.080985	-0.194437	0.783760
C66	C	0.252349	0.138896	1.117093
C67	C	-0.356795	-0.496356	0.388406
C68	C	-0.023462	-0.163023	0.721739
C69	C	0.309872	0.170310	1.055073
C70	C	-0.377623	-0.527407	0.303328
C71	C	-0.044289	-0.194074	0.636661
C72	C	0.289044	0.139260	0.969995
C73	C	-0.378030	-0.613052	0.303688
C74	C	-0.044697	-0.279719	0.637021
C75	C	0.288637	0.053615	0.970354
C76	C	-0.278506	-0.613218	0.410536
C77	C	0.054827	-0.279885	0.743869
C78	C	0.388161	0.053448	1.077203
C79	C	-0.278936	-0.527568	0.412410
C80	C	0.054398	-0.194235	0.745743
C81	C	0.387731	0.139099	1.079077
C82	C	-0.356802	-0.412497	0.388401
C83	C	-0.023469	-0.079164	0.721734
C84	C	0.309865	0.254170	1.055067
C85	C	-0.356775	-0.728598	0.388405
C86	C	-0.023442	-0.395265	0.721739
C87	C	0.309892	-0.061932	1.055072
C88	C	-0.549185	-1.070073	0.388373
C89	C	-0.215852	-0.736740	0.721706
C90	C	0.117481	-0.403406	1.055039
C91	C	-0.631499	-1.070098	0.388389
C92	C	-0.298166	-0.736765	0.721723
C93	C	0.035167	-0.403432	1.055056
C94	C	-0.930590	-1.070261	0.388433
C95	C	-0.597257	-0.736927	0.721766
C96	C	-0.263924	-0.403594	1.055099
C97	C	-0.899274	-1.013175	0.450899
C98	C	-0.565940	-0.679841	0.784232
C99	C	-0.232607	-0.346508	1.117566
C100	C	-0.813656	-1.012903	0.450704
C101	C	-0.480323	-0.679570	0.784037
C102	C	-0.146989	-0.346237	1.117370
C103	C	-0.782208	-1.070180	0.388412
C104	C	-0.448874	-0.736847	0.721745
C105	C	-0.115541	-0.403513	1.055079
C106	C	-0.813359	-1.049049	0.303436
C107	C	-0.480026	-0.715715	0.636769
C108	C	-0.146692	-0.382382	0.970103
C109	C	-0.899004	-1.048681	0.303810
C110	C	-0.565671	-0.715347	0.637143
C111	C	-0.232338	-0.382014	0.970476
C112	C	-0.898936	-1.148603	0.410195
C113	C	-0.565602	-0.815270	0.743528
C114	C	-0.232269	-0.481936	1.076861
C115	C	-0.813285	-1.148142	0.412058
C116	C	-0.479951	-0.814809	0.745391
C117	C	-0.146618	-0.481476	1.078725
C118	C	-0.698348	-1.070136	0.388395
C119	C	-0.365015	-0.736802	0.721728
C120	C	-0.031682	-0.403469	1.055062
C121	C	-1.014450	-1.070303	0.388444
C122	C	-0.681116	-0.736970	0.721777
C123	C	-0.347783	-0.403637	1.055111
C124	C	-0.163613	-1.070292	0.388438
C125	C	0.169721	-0.736958	0.721771
C126	C	0.503054	-0.403625	1.055104
C127	C	-0.081299	-1.070343	0.388455
C128	C	0.252035	-0.737009	0.721789
C129	C	0.585368	-0.403676	1.055122
C130	C	-0.356720	-1.070220	0.598705
C131	C	-0.023386	-0.736887	0.932039
C132	C	0.309947	-0.403553	1.265372
C133	C	-0.356696	-1.070241	0.688326
C134	C	-0.023363	-0.736907	1.021660
C135	C	0.309971	-0.403574	1.354993
C136	C	-0.356796	-0.263334	0.388402
C137	C	-0.023463	0.070000	0.721736
C138	C	0.309871	0.403333	1.055069
C139	C	-0.356810	-0.345648	0.388405
C140	C	-0.023477	-0.012315	0.721738
C141	C	0.309857	0.321019	1.055071
C142	C	-0.356776	-1.070167	0.178905
C143	C	-0.023443	-0.736833	0.512239
C144	C	0.309890	-0.403500	0.845572
C145	C	-0.356591	-1.070290	0.089285
C146	C	-0.023258	-0.736956	0.422618
C147	C	0.310076	-0.403623	0.755951
C148	C	-0.356613	-1.070275	1.016502
C149	C	-0.023280	-0.736941	1.349836
C150	C	0.310054	-0.403608	1.683169
C151	C	-0.356639	-1.070263	0.925194
C152	C	-0.023305	-0.736930	1.258527
C153	C	0.310028	-0.403597	1.591860
C154	C	-0.356655	-1.070258	0.852417
C155	C	-0.023322	-0.736925	1.185751
C156	C	0.310011	-0.403591	1.519084
C157	C	-0.356679	-1.070246	0.761103
C158	C	-0.023346	-0.736912	1.094436
C159	C	0.309987	-0.403579	1.427770
H160	H	-0.338076	-0.633790	0.255750
H161	H	-0.004742	-0.300457	0.589084
H162	H	0.328591	0.032877	0.922417
C163	C	-0.927122	-1.030785	0.536278
C164	C	-0.593789	-0.697452	0.869611
C165	C	-0.260455	-0.364119	1.202944
H166	H	-0.958091	-1.073115	0.534598
H167	H	-0.624757	-0.739781	0.867931
H168	H	-0.291424	-0.406448	1.201265
H169	H	-0.886170	-1.040214	0.570532
H170	H	-0.552837	-0.706881	0.903865
H171	H	-0.219503	-0.373547	1.237198
H172	H	-0.954330	-0.989872	0.556367
H173	H	-0.620997	-0.656538	0.889700
H174	H	-0.287663	-0.323205	1.223034
H175	H	-0.920859	-0.955459	0.436666
H176	H	-0.587526	-0.622125	0.770000
H177	H	-0.254192	-0.288792	1.103333
C178	C	-0.220828	-0.640611	0.349347
C179	C	0.112505	-0.307277	0.682680
C180	C	0.445838	0.026056	1.016014
H181	H	-0.173645	-0.621378	0.363030
H182	H	0.159688	-0.288045	0.696364
H183	H	0.493021	0.045288	1.029697
H184	H	-0.219104	-0.693055	0.350257
H185	H	0.114229	-0.359722	0.683590
H186	H	0.447562	-0.026389	1.016924
H187	H	-0.234152	-0.624287	0.296999
H188	H	0.099181	-0.290953	0.630333
H189	H	0.432514	0.042380	0.963666
C190	C	-0.784376	-1.208640	0.355067
C191	C	-0.451043	-0.875306	0.688400
C192	C	-0.117709	-0.541973	1.021733
H193	H	-0.752838	-1.187046	0.315928
H194	H	-0.419504	-0.853713	0.649261
H195	H	-0.086171	-0.520379	0.982594
H196	H	-0.757576	-1.244355	0.385129
H197	H	-0.424242	-0.911022	0.718462
H198	H	-0.090909	-0.577688	1.051796
H199	H	-0.824889	-1.231832	0.328962
H200	H	-0.491556	-0.898498	0.662296
H201	H	-0.158223	-0.565165	0.995629
H202	H	-0.920484	-1.167868	0.471103
H203	H	-0.587151	-0.834535	0.804436
H204	H	-0.253817	-0.501202	1.137769
C205	C	-0.785843	-1.103441	0.238840
C206	C	-0.452510	-0.770108	0.572173
C207	C	-0.119176	-0.436775	0.905506
H208	H	-0.805335	-1.089645	0.187937
H209	H	-0.472001	-0.756312	0.521270
H210	H	-0.138668	-0.422978	0.854603
H211	H	-0.733412	-1.102272	0.236835
H212	H	-0.400078	-0.768939	0.570168
H213	H	-0.066745	-0.435606	0.903502
H214	H	-0.801821	-1.151967	0.251892
H215	H	-0.468487	-0.818634	0.585226
H216	H	-0.135154	-0.485300	0.918559
C217	C	-0.785196	-1.030737	0.535828
C218	C	-0.451863	-0.697404	0.869161
C219	C	-0.118529	-0.364071	1.202494
H220	H	-0.825977	-1.038212	0.570840
H221	H	-0.492644	-0.704879	0.904174
H222	H	-0.159310	-0.371546	1.237507
H223	H	-0.755893	-1.074260	0.534185
H224	H	-0.422559	-0.740927	0.867518
H225	H	-0.089226	-0.407594	1.200852
H226	H	-0.756171	-0.990721	0.554984
H227	H	-0.422838	-0.657388	0.888317
H228	H	-0.089504	-0.324055	1.221651
H229	H	-0.919187	-1.191134	0.364698
H230	H	-0.585854	-0.857801	0.698031
H231	H	-0.252520	-0.524467	1.031364
C232	C	-0.786058	-0.934462	0.431220
C233	C	-0.452725	-0.601128	0.764554
C234	C	-0.119392	-0.267795	1.097887
H235	H	-0.827191	-0.902638	0.423387
H236	H	-0.493857	-0.569305	0.756720
H237	H	-0.160524	-0.235972	1.090053
H238	H	-0.756909	-0.916672	0.474608
H239	H	-0.423576	-0.583339	0.807941
H240	H	-0.090243	-0.250005	1.141274
H241	H	-0.757058	-0.935679	0.383629
H242	H	-0.423725	-0.602346	0.716962
H243	H	-0.090392	-0.269013	1.050296
H244	H	-0.791973	-0.992387	0.284670
H245	H	-0.458640	-0.659054	0.618003
H246	H	-0.125306	-0.325721	0.951337
H247	H	-0.401243	-0.634011	0.513880
H248	H	-0.067910	-0.300678	0.847214
H249	H	0.265423	0.032656	1.180547
C250	C	-0.491997	-0.642416	0.431029
C251	C	-0.158663	-0.309083	0.764362
C252	C	0.174670	0.024250	1.097696
H253	H	-0.526278	-0.623216	0.468900
H254	H	-0.192945	-0.289883	0.802233
H255	H	0.140388	0.043450	1.135567
H256	H	-0.505682	-0.627107	0.378434
H257	H	-0.172349	-0.293774	0.711767
H258	H	0.160984	0.039560	1.045100
H259	H	-0.492096	-0.694842	0.433688
H260	H	-0.158763	-0.361509	0.767022
H261	H	0.174571	-0.028176	1.100355
C262	C	-0.926083	-0.971317	0.278914
C263	C	-0.592750	-0.637984	0.612247
C264	C	-0.259416	-0.304651	0.945581
H265	H	-0.884741	-0.940408	0.268671
H266	H	-0.551407	-0.607075	0.602005
H267	H	-0.218074	-0.273742	0.935338
H268	H	-0.955336	-0.975107	0.231645
H269	H	-0.622003	-0.641774	0.564978
H270	H	-0.288669	-0.308440	0.898311
H271	H	-0.954867	-0.950701	0.321081
H272	H	-0.621533	-0.617368	0.654414
H273	H	-0.288200	-0.284034	0.987747
C274	C	-0.492674	-0.500041	0.430583
C275	C	-0.159341	-0.166708	0.763916
C276	C	0.173992	0.166626	1.097249
H277	H	-0.524486	-0.541120	0.422595
H278	H	-0.191153	-0.207786	0.755929
H279	H	0.142180	0.125547	1.089262
H280	H	-0.510613	-0.470901	0.473891
H281	H	-0.177279	-0.137568	0.807225
H282	H	0.156054	0.195766	1.140558
H283	H	-0.491266	-0.471004	0.383001
H284	H	-0.157933	-0.137670	0.716335
H285	H	0.175400	0.195663	1.049668
C286	C	-0.926998	-1.102398	0.238783
C287	C	-0.593664	-0.769065	0.572116
C288	C	-0.260331	-0.435731	0.905449
H289	H	-0.886025	-1.124344	0.212250
H290	H	-0.552692	-0.791011	0.545584
H291	H	-0.219358	-0.457678	0.878917
H292	H	-0.956110	-1.139850	0.263189
H293	H	-0.622776	-0.806517	0.596522
H294	H	-0.289443	-0.473184	0.929856
H295	H	-0.956118	-1.076127	0.200776
H296	H	-0.622784	-0.742794	0.534110
H297	H	-0.289451	-0.409461	0.867443
H298	H	-0.233986	-0.506186	0.370442
H299	H	0.099347	-0.172853	0.703775
H300	H	0.432680	0.160480	1.037109
C301	C	-0.785767	-1.169680	0.496534
C302	C	-0.452434	-0.836346	0.829867
C303	C	-0.119101	-0.503013	1.163200
H304	H	-0.755462	-1.131326	0.517310
H305	H	-0.422129	-0.797993	0.850643
H306	H	-0.088796	-0.464660	1.183977
H307	H	-0.826899	-1.176903	0.531110
H308	H	-0.493566	-0.843570	0.864443
H309	H	-0.160233	-0.510237	1.197777
H310	H	-0.757946	-1.214094	0.493291
H311	H	-0.424612	-0.880760	0.826624
H312	H	-0.091279	-0.547427	1.159957
H313	H	-0.337164	-0.507059	0.255708
H314	H	-0.003831	-0.173726	0.589041
H315	H	0.329502	0.159608	0.922374
C316	C	-0.454064	-0.498397	0.277628
C317	C	-0.120730	-0.165063	0.610961
C318	C	0.212603	0.168270	0.944294
H319	H	-0.473387	-0.467370	0.318624
H320	H	-0.140053	-0.134037	0.651958
H321	H	0.193280	0.199296	0.985291
H322	H	-0.449442	-0.471030	0.229131
H323	H	-0.116108	-0.137697	0.562464
H324	H	0.217225	0.195636	0.895797
H325	H	-0.486529	-0.538899	0.269290
H326	H	-0.153195	-0.205566	0.602624
H327	H	0.180138	0.127768	0.935957
H328	H	-0.401325	-0.506777	0.513500
H329	H	-0.067992	-0.173444	0.846833
H330	H	0.265341	0.159889	1.180166
H331	H	-0.259477	-0.634846	0.471529
H332	H	0.073856	-0.301512	0.804863
H333	H	0.407190	0.031821	1.138196
C334	C	-0.455312	-0.639996	0.278429
C335	C	-0.121979	-0.306662	0.611762
C336	C	0.211355	0.026671	0.945096
H337	H	-0.486164	-0.598599	0.268049
H338	H	-0.152831	-0.265266	0.601382
H339	H	0.180503	0.068067	0.934715
H340	H	-0.451359	-0.669216	0.231173
H341	H	-0.118026	-0.335882	0.564507
H342	H	0.215308	-0.002549	0.897840
H343	H	-0.476099	-0.668783	0.320495
H344	H	-0.142765	-0.335450	0.653829
H345	H	0.190568	-0.002117	0.987162
H346	H	-0.263224	-0.507277	0.475023
H347	H	0.070110	-0.173944	0.808356
H348	H	0.403443	0.159389	1.141689
