data_functionalizedCrystal
_audit_creation_method	'MofGen! by Chris Wilmer'
_symmetry_space_group_name_H-M	'P1'
_symmetry_Int_Tables_number	1
_symmetry_cell_setting	triclinic
loop_
_symmetry_equiv_pos_as_xyz
  x,y,z
_cell_length_a	10.686285
_cell_length_b	16.625548
_cell_length_c	10.686551
_cell_angle_alpha	94.398840
_cell_angle_beta	80.915481
_cell_angle_gamma	94.368696
loop_
_atom_site_label
_atom_site_type_symbol
_atom_site_fract_x
_atom_site_fract_y
_atom_site_fract_z
Zn1	Zn	-0.450163	-1.288149	-0.679115
Zn2	Zn	0.049837	-0.788149	-0.179115
Zn3	Zn	-0.678743	-1.288084	-0.450613
Zn4	Zn	-0.178743	-0.788084	0.049387
Zn5	Zn	-0.466517	-1.143700	-0.466865
Zn6	Zn	0.033483	-0.643700	0.033135
Zn7	Zn	-0.662360	-1.162920	-0.662806
Zn8	Zn	-0.162360	-0.662920	-0.162806
O9	O	-0.564446	-1.220713	-0.564850
O10	O	-0.064446	-0.720713	-0.064850
O11	O	-0.480497	-1.400975	-0.648828
O12	O	0.019503	-0.900975	-0.148828
O13	O	-0.664291	-1.260861	-0.275138
O14	O	-0.164291	-0.760861	0.224862
O15	O	-0.286725	-1.154846	-0.508647
O16	O	0.213275	-0.654846	-0.008647
O17	O	-0.648434	-1.400927	-0.480948
O18	O	-0.148434	-0.900927	0.019052
O19	O	-0.274710	-1.260972	-0.664587
O20	O	0.225290	-0.760972	-0.164587
O21	O	-0.508370	-1.154783	-0.287078
O22	O	-0.008370	-0.654783	0.212922
O23	O	-0.492484	-1.033416	-0.492833
O24	O	0.007516	-0.533416	0.007167
O25	O	-0.620512	-1.187602	-0.842600
O26	O	-0.120512	-0.687602	-0.342600
O27	O	-0.636369	-1.047536	-0.636790
O28	O	-0.136369	-0.547536	-0.136790
O29	O	-0.464611	-1.279608	-0.854583
O30	O	0.035389	-0.779608	-0.354583
O31	O	-0.854193	-1.279497	-0.465133
O32	O	-0.354193	-0.779497	0.034867
O33	O	-0.842156	-1.187539	-0.621031
O34	O	-0.342156	-0.687539	-0.121031
C35	C	-0.894228	-1.235619	-0.539577
C36	C	-0.394228	-0.735619	-0.039577
C37	C	-1.035307	-1.242072	-0.528807
C38	C	-0.535307	-0.742072	-0.028807
C39	C	-0.564424	-1.011219	-0.564806
C40	C	-0.064424	-0.511219	-0.064806
C41	C	-0.564443	-0.921600	-0.564815
C42	C	-0.064443	-0.421600	-0.064815
C43	C	-0.564438	-0.593426	-0.564853
C44	C	-0.064438	-0.093426	-0.064853
C45	C	-0.564436	-0.684733	-0.564839
C46	C	-0.064436	-0.184733	-0.064839
C47	C	-0.564441	-0.757510	-0.564833
C48	C	-0.064441	-0.257510	-0.064833
C49	C	-0.564438	-0.848823	-0.564821
C50	C	-0.064438	-0.348823	-0.064821
C51	C	-0.233374	-1.205772	-0.590249
C52	C	0.266626	-0.705772	-0.090249
C53	C	-0.092291	-1.199405	-0.601073
C54	C	0.407709	-0.699405	-0.101073
C55	C	-0.538910	-1.235756	-0.895937
C56	C	-0.038910	-0.735756	-0.395937
C57	C	-0.528028	-1.242167	-1.037027
C58	C	-0.028028	-0.742167	-0.537027
C59	C	-0.564461	-0.431025	-0.564883
C60	C	-0.064461	0.068975	-0.064883
C61	C	-0.564449	-0.520644	-0.564867
C62	C	-0.064449	-0.020644	-0.064867
C63	C	-0.589791	-1.205771	-0.235057
C64	C	-0.089791	-0.705771	0.264943
C65	C	-0.600316	-1.199501	-0.093996
C66	C	-0.100316	-0.699501	0.406004
H67	H	-1.094457	-1.283534	-0.458684
H68	H	-0.594457	-0.783534	0.041316
O69	O	-0.693322	-1.144611	-1.015641
O70	O	-0.193322	-0.644611	-0.515641
H71	H	-0.687553	-1.148014	-0.913403
H72	H	-0.187553	-0.648014	-0.413403
O73	O	-1.013947	-1.144480	-0.693943
O74	O	-0.513947	-0.644480	-0.193943
H75	H	-1.041085	-1.081366	-0.670141
H76	H	-0.541085	-0.581366	-0.170141
H77	H	-0.457815	-1.283605	-1.096197
H78	H	0.042185	-0.783605	-0.596197
