data_functionalizedCrystal
_audit_creation_method	'MofGen! by Chris Wilmer'
_symmetry_space_group_name_H-M	'P1'
_symmetry_Int_Tables_number	1
_symmetry_cell_setting	triclinic
loop_
_symmetry_equiv_pos_as_xyz
  x,y,z
_cell_length_a	19.805407
_cell_length_b	19.120785
_cell_length_c	19.805399
_cell_angle_alpha	87.529508
_cell_angle_beta	89.982197
_cell_angle_gamma	92.461008
loop_
_atom_site_label
_atom_site_type_symbol
_atom_site_fract_x
_atom_site_fract_y
_atom_site_fract_z
Zn1	Zn	1.023249	-0.279696	-0.371174
Zn2	Zn	1.523249	0.220304	0.128826
Zn3	Zn	1.018340	-0.397155	-0.253151
Zn4	Zn	1.518340	0.102845	0.246849
Zn5	Zn	0.910063	-0.279710	-0.258002
Zn6	Zn	1.410063	0.220290	0.241998
Zn7	Zn	0.905205	-0.397112	-0.366303
Zn8	Zn	1.405205	0.102888	0.133697
O9	O	0.964214	-0.338418	-0.312158
O10	O	1.464214	0.161582	0.187842
O11	O	1.117314	-0.295289	-0.355527
O12	O	1.617314	0.204711	0.144473
O13	O	1.003955	-0.381599	-0.159077
O14	O	1.503955	0.118401	0.340923
O15	O	0.929165	-0.181418	-0.277083
O16	O	1.429165	0.318582	0.222917
O17	O	1.113707	-0.381586	-0.268816
O18	O	1.613707	0.118414	0.231184
O19	O	1.012322	-0.181408	-0.360230
O20	O	1.512322	0.318592	0.139770
O21	O	0.924405	-0.295313	-0.162641
O22	O	1.424405	0.204687	0.337359
O23	O	0.814702	-0.295271	-0.272360
O24	O	1.314702	0.204729	0.227640
O25	O	0.920885	-0.381513	-0.461667
O26	O	1.420885	0.118487	0.038333
O27	O	0.811133	-0.381526	-0.351928
O28	O	1.311133	0.118474	0.148072
O29	O	1.007611	-0.295248	-0.465246
O30	O	1.507611	0.204752	0.034754
O31	O	0.999245	-0.495439	-0.264092
O32	O	1.499245	0.004561	0.235908
O33	O	0.916125	-0.495408	-0.347224
O34	O	1.416125	0.004592	0.152776
C35	C	0.788359	-0.338396	-0.312142
C36	C	1.288359	0.161604	0.187858
C37	C	0.713127	-0.338404	-0.312151
C38	C	1.213127	0.161596	0.187849
C39	C	0.679658	-0.293549	-0.357364
C40	C	1.179658	0.206451	0.142636
C41	C	0.608969	-0.293552	-0.357366
C42	C	1.108969	0.206448	0.142634
C43	C	0.571751	-0.338415	-0.312158
C44	C	1.071751	0.161585	0.187842
C45	C	0.605224	-0.383272	-0.266940
C46	C	1.105224	0.116728	0.233060
C47	C	0.675912	-0.383264	-0.266935
C48	C	1.175912	0.116736	0.233065
C49	C	0.320150	-0.383304	-0.266960
C50	C	0.820150	0.116696	0.233040
C51	C	0.249457	-0.383310	-0.266970
C52	C	0.749457	0.116690	0.233030
C53	C	0.253207	-0.293592	-0.357391
C54	C	0.753207	0.206408	0.142609
C55	C	0.323895	-0.293584	-0.357386
C56	C	0.823895	0.206416	0.142614
C57	C	0.357362	-0.338438	-0.312166
C58	C	0.857362	0.161562	0.187834
C59	C	0.434011	-0.338433	-0.312163
C60	C	0.934011	0.161567	0.187837
C61	C	0.495103	-0.338425	-0.312164
C62	C	0.995103	0.161575	0.187836
C63	C	0.956643	-0.520909	-0.304618
C64	C	1.456643	-0.020909	0.195382
C65	C	0.953466	-0.598979	-0.301415
C66	C	1.453466	-0.098979	0.198585
C67	C	0.933311	-1.040533	-0.281150
C68	C	1.433311	-0.540533	0.218850
C69	C	0.936297	-0.967177	-0.284160
C70	C	1.436297	-0.467177	0.215840
C71	C	0.981056	-0.930435	-0.328989
C72	C	1.481056	-0.430435	0.171011
C73	C	1.022827	-0.967052	-0.370816
C74	C	1.522827	-0.467052	0.129184
C75	C	1.019837	-1.040406	-0.367810
C76	C	1.519837	-0.540406	0.132190
C77	C	0.992247	-0.708950	-0.340236
C78	C	1.492247	-0.208950	0.159764
C79	C	0.995235	-0.635591	-0.343238
C80	C	1.495235	-0.135591	0.156762
C81	C	0.908704	-0.635721	-0.256582
C82	C	1.408704	-0.135721	0.243418
C83	C	0.905721	-0.709077	-0.253577
C84	C	1.405721	-0.209077	0.246423
C85	C	0.947489	-0.745687	-0.295407
C86	C	1.447489	-0.245687	0.204593
C87	C	0.984112	-0.855454	-0.332064
C88	C	1.484112	-0.355454	0.167936
C89	C	0.944430	-0.820667	-0.292334
C90	C	1.444430	-0.320667	0.207666
C91	C	1.140756	-0.338441	-0.312174
C92	C	1.640756	0.161559	0.187826
C93	C	1.215987	-0.338450	-0.312180
C94	C	1.715987	0.161550	0.187820
C95	C	0.964254	-0.338374	-0.488702
C96	C	1.464254	0.161626	0.011298
C97	C	0.964271	-0.338355	-0.563935
C98	C	1.464271	0.161645	-0.063935
C99	C	0.971833	-0.155215	-0.319741
C100	C	1.471833	0.344785	0.180259
C101	C	0.975080	-0.077144	-0.322973
C102	C	1.475080	0.422856	0.177027
C103	C	1.009430	-0.293435	-0.601144
C104	C	1.509430	0.206565	-0.101144
C105	C	1.009438	-0.293414	-0.671833
C106	C	1.509438	0.206586	-0.171833
C107	C	0.964289	-0.338318	-0.705312
C108	C	1.464289	0.161682	-0.205312
C109	C	0.919125	-0.383241	-0.668098
C110	C	1.419125	0.116759	-0.168098
C111	C	0.919114	-0.383257	-0.597410
C112	C	1.419114	0.116743	-0.097410
C113	C	0.919166	-0.383175	-0.953174
C114	C	1.419166	0.116825	-0.453174
C115	C	0.919181	-0.383157	-1.023867
C116	C	1.419181	0.116843	-0.523867
C117	C	1.009490	-0.293333	-1.027597
C118	C	1.509490	0.206667	-0.527597
C119	C	1.009479	-0.293349	-0.956909
C120	C	1.509479	0.206651	-0.456909
C121	C	0.964313	-0.338268	-0.919702
C122	C	1.464313	0.161732	-0.419702
C123	C	0.964304	-0.338289	-0.843052
C124	C	1.464304	0.161711	-0.343052
C125	C	0.964301	-0.338302	-0.781960
C126	C	1.464301	0.161698	-0.281960
C127	C	0.964215	-0.338412	-0.136302
C128	C	1.464215	0.161588	0.363698
C129	C	0.964338	-0.338233	-0.061078
C130	C	1.464338	0.161767	0.438922
H131	H	0.225950	-0.257067	-0.394209
H132	H	0.725950	0.242933	0.105791
H133	H	0.709956	-0.257018	-0.394179
H134	H	1.209956	0.242982	0.105821
H135	H	0.896865	-1.070443	-0.244643
H136	H	1.396865	-0.570443	0.255357
O137	O	1.053295	-0.249712	-1.063846
O138	O	1.553295	0.250288	-0.563846
C139	C	1.093366	-0.209898	-1.174395
C140	C	1.593366	0.290102	-0.674395
C141	C	1.043711	-0.259318	-1.133430
C142	C	1.543711	0.240682	-0.633430
H143	H	1.085644	-0.217657	-1.230661
H144	H	1.585644	0.282343	-0.730661
H145	H	1.083834	-0.153248	-1.162888
H146	H	1.583834	0.346752	-0.662888
H147	H	1.147421	-0.222237	-1.159955
H148	H	1.647421	0.277763	-0.659955
H149	H	0.989638	-0.247041	-1.147847
H150	H	1.489638	0.252959	-0.647847
H151	H	1.053301	-0.315953	-1.144942
H152	H	1.553301	0.184047	-0.644942
H153	H	1.031686	-0.605679	-0.379745
H154	H	1.531686	-0.105679	0.120255
O155	O	0.895702	-0.931722	-0.243459
O156	O	1.395702	-0.431722	0.256541
C157	C	0.809544	-0.939592	-0.157207
C158	C	1.309544	-0.439592	0.342793
C159	C	0.855491	-0.979832	-0.203255
C160	C	1.355491	-0.479832	0.296745
H161	H	0.777012	-0.978472	-0.124701
H162	H	1.277012	-0.478472	0.375299
H163	H	0.842011	-0.905271	-0.123207
H164	H	1.342011	-0.405271	0.376793
H165	H	0.775560	-0.905235	-0.189664
H166	H	1.275560	-0.405235	0.310336
H167	H	0.889483	-1.014228	-0.170851
H168	H	1.389483	-0.514228	0.329149
H169	H	0.822984	-1.014109	-0.237258
H170	H	1.322984	-0.514109	0.262742
O171	O	0.862194	-0.744838	-0.210128
O172	O	1.362194	-0.244838	0.289872
C173	C	0.767398	-0.827686	-0.197566
C174	C	1.267398	-0.327686	0.302434
C175	C	0.816661	-0.787246	-0.246845
C176	C	1.316661	-0.287246	0.253155
H177	H	0.730563	-0.861971	-0.227234
H178	H	1.230563	-0.361971	0.272766
H179	H	0.797042	-0.862081	-0.160796
H180	H	1.297042	-0.362081	0.339204
H181	H	0.738089	-0.788898	-0.168183
H182	H	1.238089	-0.288898	0.331817
H183	H	0.845982	-0.825984	-0.276275
H184	H	1.345982	-0.325984	0.223725
H185	H	0.786978	-0.752840	-0.283571
H186	H	1.286978	-0.252840	0.216429
H187	H	1.026265	-0.738749	-0.374290
H188	H	1.526265	-0.238749	0.125710
H189	H	0.219156	-0.419844	-0.230154
H190	H	0.719156	0.080156	0.269846
H191	H	0.354195	-0.257054	-0.394201
H192	H	0.854195	0.242946	0.105799
O193	O	1.060475	-1.075864	-0.408467
O194	O	1.560475	-0.575864	0.091533
C195	C	1.146573	-1.067998	-0.494778
C196	C	1.646573	-0.567998	0.005222
C197	C	1.100606	-1.027756	-0.448753
C198	C	1.600606	-0.527756	0.051247
H199	H	1.179021	-1.029120	-0.527371
H200	H	1.679021	-0.529120	-0.027371
H201	H	1.180631	-1.102322	-0.462369
H202	H	1.680631	-0.602322	0.037631
H203	H	1.114057	-1.102352	-0.528703
H204	H	1.614057	-0.602352	-0.028703
H205	H	1.133069	-0.993363	-0.414820
H206	H	1.633069	-0.493363	0.085180
H207	H	1.066545	-0.993476	-0.481202
H208	H	1.566545	-0.493476	0.018798
H209	H	0.581722	-0.257028	-0.394185
H210	H	1.081722	0.242972	0.105815
H211	H	0.347390	-0.419827	-0.230140
H212	H	0.847390	0.080173	0.269860
H213	H	0.574915	-0.419797	-0.230128
H214	H	1.074915	0.080203	0.269872
O215	O	0.875253	-0.426799	-1.056284
O216	O	1.375253	0.073201	-0.556284
C217	C	0.785694	-0.515920	-1.045128
C218	C	1.285694	-0.015920	-0.545128
C219	C	0.835391	-0.466523	-1.008331
C220	C	1.335391	0.033477	-0.508331
H221	H	0.753463	-0.548061	-1.006374
H222	H	1.253463	-0.048061	-0.506374
H223	H	0.751609	-0.483689	-1.079535
H224	H	1.251609	0.016311	-0.579535
H225	H	0.815258	-0.552615	-1.076725
H226	H	1.315258	-0.052615	-0.576725
H227	H	0.805882	-0.429819	-0.976698
H228	H	1.305882	0.070181	-0.476698
H229	H	0.869477	-0.498798	-0.973966
H230	H	1.369477	0.001202	-0.473966
O231	O	0.875384	-0.426848	-0.916968
O232	O	1.375384	0.073152	-0.416968
C233	C	0.862301	-0.521735	-0.833275
C234	C	1.362301	-0.021735	-0.333275
C235	C	0.911962	-0.472306	-0.874223
C236	C	1.411962	0.027694	-0.374223
H237	H	0.891855	-0.558510	-0.798716
H238	H	1.391855	-0.058510	-0.298716
H239	H	0.828248	-0.489533	-0.801467
H240	H	1.328248	0.010467	-0.301467
H241	H	0.830028	-0.553789	-0.869371
H242	H	1.330028	-0.053789	-0.369371
H243	H	0.944280	-0.440242	-0.838176
H244	H	1.444280	0.059758	-0.338176
H245	H	0.945969	-0.504549	-0.906039
H246	H	1.445969	-0.004549	-0.406039
H247	H	0.882361	-0.419800	-0.695363
H248	H	1.382361	0.080200	-0.195363
H249	H	0.907984	-0.850586	-0.255838
H250	H	1.407984	-0.350586	0.244162
H251	H	0.874698	-0.605907	-0.222527
H252	H	1.374698	-0.105907	0.277473
O253	O	0.875230	-0.426968	-0.561365
O254	O	1.375230	0.073032	-0.061365
C255	C	0.785642	-0.516050	-0.565121
C256	C	1.285642	-0.016050	-0.065121
C257	C	0.835315	-0.466592	-0.606024
C258	C	1.335315	0.033408	-0.106024
H259	H	0.753348	-0.548088	-0.601211
H260	H	1.253348	-0.048088	-0.101211
H261	H	0.815159	-0.552832	-0.530532
H262	H	1.315159	-0.052832	-0.030532
H263	H	0.751613	-0.483803	-0.533334
H264	H	1.251613	0.016197	-0.033334
H265	H	0.869356	-0.498783	-0.637850
H266	H	1.369356	0.001217	-0.137850
H267	H	0.805756	-0.429808	-0.640570
H268	H	1.305756	0.070192	-0.140570
O269	O	1.053302	-0.249785	-0.924282
O270	O	1.553302	0.250215	-0.424282
C271	C	1.093257	-0.209944	-0.817039
C272	C	1.593257	0.290056	-0.317039
C273	C	1.043610	-0.259337	-0.853902
C274	C	1.543610	0.240663	-0.353902
H275	H	1.085428	-0.217639	-0.760132
H276	H	1.585428	0.282361	-0.260132
H277	H	1.147344	-0.222267	-0.830377
H278	H	1.647344	0.277733	-0.330377
H279	H	1.083720	-0.153316	-0.833329
H280	H	1.583720	0.346684	-0.333329
H281	H	1.053084	-0.315982	-0.837633
H282	H	1.553084	0.184018	-0.337633
H283	H	0.989539	-0.246954	-0.840563
H284	H	1.489539	0.253046	-0.340563
H285	H	0.703161	-0.419790	-0.230118
H286	H	1.203161	0.080210	0.269882
O287	O	1.066289	-0.931254	-0.414304
O288	O	1.566289	-0.431254	0.085696
C289	C	1.109221	-0.818193	-0.457366
C290	C	1.609221	-0.318193	0.042634
C291	C	1.059978	-0.858644	-0.408075
C292	C	1.559978	-0.358644	0.091925
H293	H	1.104125	-0.759481	-0.452357
H294	H	1.604125	-0.259481	0.047643
H295	H	1.163235	-0.832532	-0.444938
H296	H	1.663235	-0.332532	0.055062
H297	H	1.096724	-0.832628	-0.511335
H298	H	1.596724	-0.332628	-0.011335
H299	H	1.072413	-0.844231	-0.354090
H300	H	1.572413	-0.344231	0.145910
H301	H	1.005978	-0.844302	-0.420562
H302	H	1.505978	-0.344302	0.079438
O303	O	1.053262	-0.249877	-0.568518
O304	O	1.553262	0.250123	-0.068518
C305	C	1.093238	-0.210051	-0.461278
C306	C	1.593238	0.289949	0.038722
C307	C	1.043577	-0.259432	-0.498137
C308	C	1.543577	0.240568	0.001863
H309	H	1.085415	-0.217748	-0.404370
H310	H	1.585415	0.282252	0.095630
H311	H	1.147321	-0.222385	-0.474623
H312	H	1.647321	0.277615	0.025377
H313	H	1.083712	-0.153420	-0.477563
H314	H	1.583712	0.346580	0.022437
H315	H	1.053042	-0.316080	-0.481872
H316	H	1.553042	0.183920	0.018128
H317	H	0.989511	-0.247037	-0.484791
H318	H	1.489511	0.252963	0.015209
O319	O	1.027502	-0.819681	-0.375642
O320	O	1.527502	-0.319681	0.124358
C321	C	1.039926	-0.736813	-0.470447
C322	C	1.539926	-0.236813	0.029553
C323	C	0.990717	-0.777273	-0.421129
C324	C	1.490717	-0.277273	0.078871
H325	H	1.010204	-0.702527	-0.507244
H326	H	1.510204	-0.202527	-0.007244
H327	H	1.076719	-0.702415	-0.440843
H328	H	1.576719	-0.202415	0.059157
H329	H	1.069289	-0.775587	-0.499794
H330	H	1.569289	-0.275587	0.000206
H331	H	0.961308	-0.738550	-0.391770
H332	H	1.461308	-0.238550	0.108230
H333	H	0.953968	-0.811681	-0.450771
H334	H	1.453968	-0.311681	0.049229
H335	H	1.046213	-0.256837	-0.702126
H336	H	1.546213	0.243163	-0.202126
