data_functionalizedCrystal
_audit_creation_method	'MofGen! by Chris Wilmer'
_symmetry_space_group_name_H-M	'P1'
_symmetry_Int_Tables_number	1
_symmetry_cell_setting	triclinic
loop_
_symmetry_equiv_pos_as_xyz
  x,y,z
_cell_length_a	10.540539
_cell_length_b	12.837943
_cell_length_c	11.892083
_cell_angle_alpha	85.686224
_cell_angle_beta	86.072310
_cell_angle_gamma	90.322784
loop_
_atom_site_label
_atom_site_type_symbol
_atom_site_fract_x
_atom_site_fract_y
_atom_site_fract_z
O1	O	0.322972	-1.384476	0.093973
O2	O	0.306656	-1.082550	0.093980
O3	O	0.130865	-1.240401	0.093975
O4	O	0.498764	-1.226624	0.093978
O5	O	0.145486	-1.227230	-0.094032
O6	O	0.321278	-1.069378	-0.094027
O7	O	0.337594	-1.371304	-0.094034
Zn8	Zn	0.331757	-1.218250	-0.123881
Zn9	Zn	0.312493	-1.235604	0.123827
O10	O	0.513385	-1.213453	-0.094029
C11	C	0.308455	-1.037303	-0.000023
C12	C	0.292017	-0.922104	-0.000020
C13	C	0.090759	-1.232782	-0.000027
C14	C	-0.050529	-1.229692	-0.000020
C15	C	0.335795	-1.416551	-0.000029
C16	C	0.352232	-1.531751	-0.000025
C17	C	-0.247002	-1.111279	0.000404
C18	C	-0.100007	-1.114382	-0.000019
C19	C	-0.097741	-1.277662	-0.107383
C20	C	-0.244711	-1.273720	-0.107474
C21	C	-0.261598	-1.291044	0.106326
C22	C	-0.114610	-1.292205	0.107745
C23	C	0.553491	-1.221072	-0.000025
C24	C	0.694779	-1.224163	-0.000024
N25	N	0.344905	-1.206414	-0.292935
C26	C	0.489636	-0.682608	-0.000034
C27	C	0.474197	-0.574368	-0.000032
C28	C	0.245700	-0.597382	-0.000022
C29	C	0.261139	-0.705621	-0.000024
C30	C	0.383111	-0.748231	-0.000028
C31	C	0.398549	-0.856473	-0.000022
C32	C	0.170054	-0.879484	-0.000020
C33	C	0.154614	-0.771244	-0.000018
C34	C	0.436531	-1.124119	-0.470470
C35	C	0.427319	-1.132373	-0.352129
C36	C	0.271694	-1.272205	-0.352092
C37	C	0.280906	-1.263950	-0.470433
C38	C	0.363329	-1.189906	-0.529619
C39	C	0.372547	-1.181658	-0.647963
C40	C	0.216916	-1.321484	-0.647923
C41	C	0.207704	-1.329738	-0.529582
N42	N	0.299336	-1.247448	0.292881
H43	H	-0.068186	-1.076110	0.076943
H44	H	0.204578	-1.332483	-0.303888
Br45	Br	0.117578	-1.410780	-0.728206
H46	H	0.486926	-1.078801	-0.303973
Br47	Br	0.095842	-1.430218	-0.449252
Br48	Br	-0.028458	-1.032088	-0.128500
H49	H	-0.271174	-1.227087	-0.187727
Br50	Br	0.564079	-0.914300	-0.000021
H51	H	-0.283189	-1.356308	-0.112346
H52	H	0.588951	-0.717301	-0.000036
H53	H	-0.065773	-1.362062	-0.111377
Br54	Br	-0.312985	-1.044342	0.128732
H55	H	-0.053163	-1.233517	-0.187277
Br56	Br	-0.296394	-1.026532	-0.126807
Br57	Br	0.025473	-0.968552	0.000011
H58	H	0.439663	-1.121370	-0.696150
Br59	Br	-0.063355	-1.234385	0.240148
Br60	Br	-0.331552	-1.238334	0.241957
Br61	Br	0.548406	-1.023647	-0.550796
Br62	Br	0.618773	-0.485309	-0.000048
Br63	Br	0.080181	-0.539534	-0.000036
H64	H	-0.081657	-1.376729	0.114227
H65	H	0.055309	-0.736536	-0.000028
H66	H	-0.299730	-1.374382	0.107046
