data_functionalizedCrystal
_audit_creation_method	'MofGen! by Chris Wilmer'
_symmetry_space_group_name_H-M	'P1'
_symmetry_Int_Tables_number	1
_symmetry_cell_setting	triclinic
loop_
_symmetry_equiv_pos_as_xyz
  x,y,z
_cell_length_a	33.428889
_cell_length_b	33.428139
_cell_length_c	33.424847
_cell_angle_alpha	60.004234
_cell_angle_beta	60.008465
_cell_angle_gamma	59.994972
loop_
_atom_site_label
_atom_site_type_symbol
_atom_site_fract_x
_atom_site_fract_y
_atom_site_fract_z
O1	O	0.055565	-0.584504	0.488714
O2	O	0.020982	-0.455083	0.393778
O3	O	0.102943	-0.536959	0.393689
O4	O	-0.026396	-0.502628	0.488803
O5	O	0.130140	-0.509767	0.420792
O6	O	0.048179	-0.427891	0.420881
O7	O	0.082762	-0.557312	0.515817
Cu8	Cu	0.067954	-0.490119	0.470823
Cu9	Cu	0.035790	-0.522276	0.438771
O10	O	0.000801	-0.475436	0.515906
N11	N	0.090577	-0.467504	0.493370
N12	N	0.013171	-0.544895	0.416225
C13	C	0.143377	-0.280390	0.546067
C14	C	0.143515	-0.414755	0.680369
C15	C	0.143392	-0.414735	0.546069
C16	C	0.277766	-0.414702	0.545966
C17	C	0.158177	-0.324719	0.560828
C18	C	0.158255	-0.399967	0.636038
C19	C	0.233434	-0.399936	0.560773
C20	C	0.158186	-0.399955	0.560829
C21	C	0.124540	-0.223964	0.527278
C22	C	0.124565	-0.433545	0.527281
C23	C	0.177014	-0.381145	0.579617
C24	C	0.359814	-0.400540	0.502735
C25	C	0.411105	-0.417624	0.485606
C26	C	0.411136	-0.500620	0.517255
C27	C	0.359845	-0.483534	0.534385
C28	C	0.136887	-0.198305	0.476855
C29	C	0.119761	-0.147011	0.459777
C30	C	0.077945	-0.147038	0.543547
C31	C	0.095072	-0.198332	0.560625
C32	C	0.074134	-0.421169	0.539710
C33	C	0.057023	-0.438269	0.522625
C34	C	0.140770	-0.480120	0.480694
C35	C	0.157883	-0.463020	0.497773
C36	C	0.074339	-0.421208	0.762475
C37	C	0.057288	-0.438323	0.813768
C38	C	0.141075	-0.480183	0.813699
C39	C	0.158125	-0.463069	0.762404
C40	C	0.124756	-0.433580	0.736794
C41	C	0.334186	-0.433494	0.527123
C42	C	-0.173769	-0.597444	0.363037
C43	C	-0.039302	-0.597595	0.228856
C44	C	-0.039496	-0.597587	0.363300
C45	C	-0.039512	-0.731889	0.363237
C46	C	-0.129442	-0.612265	0.348329
C47	C	-0.054138	-0.612351	0.273187
C48	C	-0.054257	-0.687554	0.348440
C49	C	-0.054247	-0.612346	0.348477
C50	C	-0.230191	-0.578579	0.381758
C51	C	-0.020722	-0.578803	0.382168
C52	C	-0.073020	-0.631130	0.329609
C53	C	-0.053713	-0.813916	0.406386
C54	C	-0.036654	-0.865210	0.423504
C55	C	0.046338	-0.865293	0.391984
C56	C	0.029278	-0.813999	0.374865
C57	C	-0.255900	-0.590938	0.432169
C58	C	-0.307191	-0.573786	0.449185
C59	C	-0.307060	-0.531922	0.365377
C60	C	-0.255769	-0.549074	0.348360
C61	C	-0.033081	-0.528377	0.369764
C62	C	-0.016014	-0.511306	0.386922
C63	C	0.025770	-0.595083	0.428877
C64	C	0.008703	-0.612156	0.411725
C65	C	-0.032755	-0.528393	0.146761
C66	C	-0.015585	-0.511324	0.095468
C67	C	0.026262	-0.595106	0.095516
C68	C	0.009094	-0.612174	0.146811
C69	C	-0.020417	-0.578816	0.172432
C70	C	-0.020748	-0.788312	0.382068
N71	N	0.436037	-0.467415	0.493101
O72	O	0.592642	-0.471896	0.376066
O73	O	0.592838	-0.567146	0.505347
O74	O	0.592754	-0.566928	0.423360
O75	O	0.592727	-0.472113	0.458053
O76	O	0.511269	-0.539835	0.450606
O77	O	0.511353	-0.540052	0.532594
O78	O	0.511157	-0.444802	0.403312
Cu79	Cu	0.503815	-0.489954	0.470441
Cu80	Cu	0.600180	-0.521995	0.438219
O81	O	0.511242	-0.445020	0.485300
N82	N	0.667959	-0.544533	0.415554
N83	N	0.090544	-0.122107	0.493359
O84	O	-0.026406	0.034587	0.488773
O85	O	0.102877	0.034627	0.393499
O86	O	0.020848	0.034591	0.393771
O87	O	0.055623	0.034623	0.488500
O88	O	0.048051	-0.046899	0.420925
O89	O	0.130080	-0.046864	0.420653
O90	O	0.000796	-0.046903	0.515927
Cu91	Cu	0.067922	-0.054324	0.470769
Cu92	Cu	0.035752	0.042048	0.438656
O93	O	0.082825	-0.046867	0.515655
N94	N	0.013123	0.109830	0.416068
N95	N	0.090892	-0.467554	0.838649
O96	O	0.086330	-0.584488	0.995334
O97	O	-0.008902	-0.455160	0.995379
O98	O	-0.008679	-0.537172	0.995355
O99	O	0.086107	-0.502475	0.995358
O100	O	0.018452	-0.509990	0.913868
O101	O	0.018230	-0.427978	0.913891
O102	O	0.113461	-0.557306	0.913847
Cu103	Cu	0.068323	-0.490160	0.906429
Cu104	Cu	0.036237	-0.522306	1.002797
O105	O	0.113239	-0.475293	0.913870
N106	N	0.013667	-0.544916	1.070577
C107	C	0.031339	-0.425179	0.394250
C108	C	0.132837	-0.526572	0.394139
C109	C	0.072405	-0.587216	0.515344
C110	C	-0.029093	-0.485823	0.515455
C111	C	0.552119	-0.566716	0.535258
C112	C	0.552016	-0.566447	0.433726
C113	C	0.551873	-0.445232	0.373402
C114	C	0.551980	-0.445502	0.474933
C115	C	0.132731	-0.006013	0.393923
C116	C	0.031182	-0.006158	0.394293
C117	C	-0.029092	-0.006163	0.515469
C118	C	0.072491	-0.006119	0.515133
C119	C	-0.008451	-0.425276	0.954641
C120	C	-0.008170	-0.526833	0.954596
C121	C	0.113010	-0.587190	0.954585
C122	C	0.112735	-0.485627	0.954611
H123	H	0.016234	-0.428240	0.834672
C124	C	0.204619	-0.503054	0.340651
C125	C	0.182982	-0.536442	0.353815
H126	H	0.235576	-0.509147	0.315754
H127	H	0.208908	-0.506742	0.368483
H128	H	0.184051	-0.470629	0.328780
H129	H	0.203549	-0.568867	0.365690
H130	H	0.178696	-0.532758	0.325978
H131	H	0.079939	-0.006110	0.544893
C132	C	0.510181	-0.619849	0.457065
C133	C	0.552031	-0.606660	0.423711
H134	H	0.510192	-0.644677	0.450883
H135	H	0.481746	-0.592002	0.453439
H136	H	0.510227	-0.631821	0.489494
H137	H	0.551983	-0.594685	0.391282
H138	H	0.580474	-0.634512	0.427332
C139	C	0.130183	-0.667640	0.538003
C140	C	0.082376	-0.637405	0.555599
H141	H	0.136336	-0.698626	0.562854
H142	H	0.152801	-0.652925	0.529068
H143	H	0.133832	-0.671881	0.510157
H144	H	0.078728	-0.633162	0.583443
H145	H	0.059752	-0.652124	0.564540
H146	H	0.023949	-0.388000	0.364433
H147	H	-0.066220	-0.006175	0.545378
H148	H	-0.038348	-0.388133	0.954654
H149	H	0.142910	-0.624330	0.954565
C150	C	-0.030693	-0.584651	0.954516
C151	C	-0.048354	-0.536834	0.954547
H152	H	-0.055501	-0.590823	0.954483
H153	H	-0.021783	-0.607260	0.982936
H154	H	-0.002821	-0.588294	0.926103
H155	H	-0.076224	-0.533192	0.982962
H156	H	-0.057270	-0.514219	0.926124
H157	H	0.142514	-0.478200	0.954606
H158	H	-0.066242	-0.478508	0.545321
H159	H	0.552170	-0.596617	0.572390
H160	H	0.047163	-0.397193	0.741627
H161	H	0.551811	-0.415327	0.336274
H162	H	0.551974	-0.415718	0.482355
H163	H	0.085016	-0.219221	0.601683
H164	H	0.168250	-0.504186	0.834549
H165	H	0.047002	-0.397168	0.563734
C166	C	0.234798	-0.527685	0.746558
C167	C	0.213548	-0.476670	0.734179
H168	H	0.269014	-0.536080	0.729136
H169	H	0.220386	-0.539480	0.738162
H170	H	0.229413	-0.542090	0.780773
H171	H	0.218930	-0.462265	0.699964
H172	H	0.227965	-0.464870	0.742572
C173	C	-0.024044	-0.395200	0.565805
C174	C	0.001589	-0.424675	0.536290
H175	H	-0.058266	-0.386812	0.574244
H176	H	-0.015659	-0.366191	0.548404
H177	H	-0.015595	-0.412614	0.594789
H178	H	-0.006858	-0.407260	0.507305
H179	H	-0.006800	-0.453689	0.553691
H180	H	0.169783	-0.005775	0.363939
H181	H	0.167905	-0.504126	0.456671
C182	C	0.009704	-0.048090	0.370826
C183	C	0.021145	-0.006183	0.354113
H184	H	0.003514	-0.048110	0.346018
H185	H	-0.018602	-0.048089	0.399341
H186	H	0.036445	-0.076494	0.378444
H187	H	-0.005598	0.022221	0.346497
H188	H	0.049454	-0.006179	0.325589
C189	C	0.234495	-0.459202	0.433092
C190	C	0.213317	-0.476614	0.484110
H191	H	0.268717	-0.467596	0.424657
H192	H	0.220064	-0.424598	0.421319
H193	H	0.229072	-0.473611	0.418701
H194	H	0.218737	-0.462203	0.498500
H195	H	0.227752	-0.511225	0.495888
C196	C	0.344061	-0.543652	0.530068
C197	C	0.331681	-0.519763	0.561190
H198	H	0.326672	-0.566018	0.546615
H199	H	0.378278	-0.560981	0.520908
H200	H	0.335622	-0.520156	0.501579
H201	H	0.340124	-0.543259	0.589677
H202	H	0.297457	-0.502433	0.570357
C203	C	0.426841	-0.346786	0.416794
C204	C	0.439280	-0.381401	0.458792
H205	H	0.444239	-0.324426	0.400238
H206	H	0.392627	-0.329449	0.425959
H207	H	0.435231	-0.363007	0.395698
H208	H	0.430887	-0.365180	0.479890
H209	H	0.473503	-0.398739	0.449628
C210	C	0.302087	-0.327811	0.467076
C211	C	0.331608	-0.345533	0.494753
H212	H	0.284678	-0.293852	0.462145
H213	H	0.279483	-0.344988	0.484053
H214	H	0.322081	-0.332567	0.436255
H215	H	0.311613	-0.340780	0.525575
H216	H	0.354214	-0.328350	0.477776
H217	H	0.053957	-0.126168	0.570702
C218	C	0.176490	-0.193122	0.392332
C219	C	0.169276	-0.226478	0.440198
H220	H	0.196483	-0.210518	0.369704
H221	H	0.192148	-0.173110	0.387392
H222	H	0.145729	-0.173123	0.387437
H223	H	0.200037	-0.246475	0.445095
H224	H	0.153619	-0.246499	0.445140
H225	H	0.432025	-0.541365	0.523165
H226	H	0.129813	-0.126117	0.418717
H227	H	-0.025639	-0.470264	0.074572
H228	H	0.050281	-0.622271	0.074658
C229	C	-0.039532	-0.462266	0.162576
C230	C	-0.065197	-0.491723	0.174921
H231	H	-0.059559	-0.439630	0.179963
H232	H	-0.031075	-0.444889	0.128358
H233	H	-0.010560	-0.482303	0.171043
H234	H	-0.094167	-0.471686	0.166451
H235	H	-0.073660	-0.509101	0.209146
C236	C	0.005281	-0.688801	0.162577
C237	C	0.022654	-0.667603	0.175028
H238	H	0.013649	-0.723020	0.180000
H239	H	0.019731	-0.683410	0.128367
H240	H	-0.029321	-0.674355	0.170930
H241	H	0.057256	-0.682048	0.166673
H242	H	0.008206	-0.672999	0.209247
C243	C	-0.072679	-0.443849	0.330026
C244	C	-0.065431	-0.491715	0.337282
H245	H	-0.092654	-0.421216	0.309974
H246	H	-0.041931	-0.438956	0.314413
H247	H	-0.088376	-0.438913	0.360769
H248	H	-0.049731	-0.496652	0.306539
H249	H	-0.096185	-0.496610	0.352893
H250	H	-0.026079	-0.470245	0.376824
H251	H	0.018765	-0.653217	0.421828
C252	C	0.100881	-0.661277	0.435754
C253	C	0.058120	-0.631749	0.461363
H254	H	0.120850	-0.683913	0.455811
H255	H	0.118314	-0.641291	0.406776
H256	H	0.092479	-0.678658	0.427314
H257	H	0.066522	-0.614365	0.469799
H258	H	0.040684	-0.651738	0.490349
C259	C	0.113026	-0.819241	0.345437
C260	C	0.065516	-0.785858	0.348137
H261	H	0.135397	-0.801867	0.328939
H262	H	0.121622	-0.839248	0.327952
H263	H	0.114280	-0.839244	0.377591
H264	H	0.064261	-0.765858	0.315982
H265	H	0.056917	-0.765842	0.365622
H266	H	-0.094449	-0.793002	0.412253
C267	C	0.108263	-0.923017	0.429534
C268	C	0.101327	-0.893529	0.384069
H269	H	0.142212	-0.940448	0.424646
H270	H	0.091074	-0.945605	0.446462
H271	H	0.096214	-0.902996	0.448324
H272	H	0.113373	-0.913551	0.365281
H273	H	0.118523	-0.870939	0.367134
H274	H	-0.235077	-0.614964	0.459366
C275	C	-0.096735	-0.880944	0.419061
C276	C	-0.072889	-0.893358	0.450236
H277	H	-0.119106	-0.898321	0.435569
H278	H	-0.073223	-0.889374	0.390579
H279	H	-0.114055	-0.846719	0.409900
H280	H	-0.055566	-0.927584	0.459395
H281	H	-0.096405	-0.884931	0.478727
C282	C	-0.302171	-0.616904	0.530319
C283	C	-0.335455	-0.587377	0.504600
H284	H	-0.319620	-0.625298	0.564530
H285	H	-0.282162	-0.599529	0.521957
H286	H	-0.282164	-0.645913	0.521917
H287	H	-0.355460	-0.558366	0.512999
H288	H	-0.355472	-0.604752	0.512965
H289	H	-0.327887	-0.507903	0.338181
C290	C	-0.260796	-0.505969	0.267230
C291	C	-0.227511	-0.535490	0.292947
H292	H	-0.243349	-0.497584	0.233019
H293	H	-0.280799	-0.476959	0.275623
H294	H	-0.280809	-0.523348	0.275602
H295	H	-0.207500	-0.518109	0.284578
H296	H	-0.207500	-0.564504	0.284550
