data_functionalizedCrystal
_audit_creation_method	'MofGen! by Chris Wilmer'
_symmetry_space_group_name_H-M	'P1'
_symmetry_Int_Tables_number	1
_symmetry_cell_setting	triclinic
loop_
_symmetry_equiv_pos_as_xyz
  x,y,z
_cell_length_a	19.121275
_cell_length_b	19.121063
_cell_length_c	14.908308
_cell_angle_alpha	84.445373
_cell_angle_beta	84.146927
_cell_angle_gamma	89.926756
loop_
_atom_site_label
_atom_site_type_symbol
_atom_site_fract_x
_atom_site_fract_y
_atom_site_fract_z
Zn1	Zn	1.037730	-0.345063	0.472057
Zn2	Zn	1.039413	-0.456087	0.327181
Zn3	Zn	0.927298	-0.333850	0.326658
Zn4	Zn	0.914858	-0.457816	0.484913
O5	O	0.979825	-0.398204	0.402702
O6	O	1.136296	-0.363760	0.447677
O7	O	1.030451	-0.434455	0.200250
O8	O	0.946449	-0.236993	0.340346
O9	O	1.137533	-0.445329	0.341237
O10	O	1.027583	-0.245232	0.447170
O11	O	0.948081	-0.344648	0.199865
O12	O	0.827305	-0.346324	0.352812
O13	O	0.925246	-0.448275	0.610070
O14	O	0.818165	-0.437402	0.469082
O15	O	1.015520	-0.365437	0.600624
O16	O	1.018389	-0.554660	0.353703
O17	O	0.926879	-0.555930	0.469589
C18	C	0.797236	-0.390834	0.412286
C19	C	0.719121	-0.387700	0.416409
C20	C	0.971485	-0.580796	0.413117
C21	C	0.967980	-0.658914	0.417599
C22	C	0.683072	-0.428618	0.362838
C23	C	0.609674	-0.425674	0.366723
C24	C	0.572329	-0.381806	0.424176
C25	C	0.608384	-0.340886	0.477753
C26	C	0.681779	-0.343835	0.473872
C27	C	0.350689	-0.370784	0.438677
C28	C	0.277289	-0.367837	0.442552
C29	C	0.278585	-0.452626	0.331523
C30	C	0.351982	-0.455568	0.327643
C31	C	0.388030	-0.414651	0.381224
C32	C	0.497305	-0.378793	0.428147
C33	C	0.463052	-0.417668	0.377257
C34	C	1.014010	-0.694933	0.359416
C35	C	1.010717	-0.768333	0.363637
C36	C	0.961391	-0.805713	0.426037
C37	C	0.915358	-0.769690	0.484227
C38	C	0.918654	-0.696291	0.480010
C39	C	0.949055	-1.027364	0.441790
C40	C	0.945761	-1.100768	0.446001
C41	C	1.041122	-1.099407	0.325412
C42	C	1.044411	-1.026006	0.321197
C43	C	0.998381	-0.989989	0.379389
C44	C	0.958022	-0.880740	0.430351
C45	C	1.001753	-0.914964	0.375079
C46	C	1.163127	-0.405603	0.393081
C47	C	1.241239	-0.408756	0.388981
C48	C	0.968808	-0.408300	0.639160
C49	C	0.964113	-0.412602	0.739925
C50	C	0.988216	-0.214900	0.392265
C51	C	0.991791	-0.136787	0.387818
C52	C	0.990841	-0.388098	0.167159
C53	C	0.995681	-0.383603	0.066377
C54	C	1.049292	-0.334410	0.919437
C55	C	1.044883	-0.338450	1.014113
C56	C	0.950884	-0.424718	1.023957
C57	C	0.955293	-0.420678	0.929280
C58	C	1.004499	-0.375523	0.877023
C59	C	1.008911	-0.371487	0.782344
C60	C	0.914909	-0.457751	0.792189
C61	C	0.910500	-0.461791	0.886866
H62	H	0.713473	-0.464338	0.316050
H63	H	1.048200	-0.797656	0.316257
C64	C	0.236210	-0.319580	0.505761
N65	N	0.205269	-0.283235	0.553368
H66	H	1.084577	-0.995573	0.270385
C67	C	0.504134	-0.465918	0.314057
N68	N	0.535084	-0.502257	0.266450
H69	H	0.577971	-0.305171	0.524537
H70	H	0.870436	-0.498553	0.929427
H71	H	0.711130	-0.310513	0.517494
H72	H	0.580326	-0.458994	0.323100
C73	C	0.896745	-0.474366	1.081455
N74	N	0.855962	-0.511756	1.124764
C75	C	0.390334	-0.325764	0.497606
N76	N	0.420197	-0.291849	0.541990
C77	C	0.393056	-0.503826	0.264440
N78	N	0.423994	-0.540173	0.216833
C79	C	0.238925	-0.497637	0.272595
N80	N	0.209053	-0.531544	0.228211
H81	H	0.466891	-0.343075	0.474924
H82	H	1.054174	-0.664503	0.308599
H83	H	1.081356	-0.304970	1.048642
H84	H	0.905601	-1.131202	0.496831
C85	C	1.091753	-1.139032	0.261407
N86	N	1.129892	-1.168877	0.213198
C87	C	0.898454	-0.987759	0.505849
N88	N	0.860351	-0.957926	0.554118
H89	H	0.875198	-0.800131	0.535038
C90	C	0.868017	-0.656671	0.544017
N91	N	0.829878	-0.626830	0.592231
H92	H	1.041917	-0.884528	0.324276
H93	H	0.917859	-0.911183	0.481156
H94	H	1.048978	-0.334721	0.739798
C95	C	1.103421	-0.284744	0.861952
N96	N	1.144193	-0.247333	0.818656
C97	C	0.865633	-0.502979	0.745527
N98	N	0.828522	-0.537045	0.710380
