data_functionalizedCrystal
_audit_creation_method	'MofGen! by Chris Wilmer'
_symmetry_space_group_name_H-M	'P1'
_symmetry_Int_Tables_number	1
_symmetry_cell_setting	triclinic
loop_
_symmetry_equiv_pos_as_xyz
  x,y,z
_cell_length_a	18.050591
_cell_length_b	18.050589
_cell_length_c	18.050583
_cell_angle_alpha	90.027890
_cell_angle_beta	90.026054
_cell_angle_gamma	90.028131
loop_
_atom_site_label
_atom_site_type_symbol
_atom_site_fract_x
_atom_site_fract_y
_atom_site_fract_z
Zn1	Zn	-1.135283	0.295764	-0.420091
Zn2	Zn	-1.135173	0.419969	-0.295911
Zn3	Zn	-1.011095	0.295783	-0.295898
Zn4	Zn	-1.011037	0.419903	-0.420042
O5	O	-1.073147	0.357855	-0.357986
O6	O	-1.239193	0.312260	-0.403644
O7	O	-1.118692	0.403531	-0.191985
O8	O	-1.027640	0.191856	-0.312388
O9	O	-1.239112	0.403513	-0.312409
O10	O	-1.118880	0.191842	-0.403632
O11	O	-1.027533	0.312292	-0.191975
O12	O	-0.907163	0.312228	-0.312341
O13	O	-1.027540	0.403400	-0.523974
O14	O	-0.907120	0.403418	-0.403549
O15	O	-1.118823	0.312196	-0.524009
O16	O	-1.118635	0.523885	-0.312362
O17	O	-1.027433	0.523836	-0.403561
C18	C	-0.880195	0.357818	-0.357938
C19	C	-0.797649	0.357821	-0.357936
C20	C	-1.073036	0.550807	-0.357974
C21	C	-1.073056	0.633353	-0.357994
C22	C	-0.548826	0.308167	-0.308441
C23	C	-0.598263	0.290077	-0.376218
C24	C	-0.500529	0.357843	-0.357981
C25	C	-0.598173	0.375887	-0.290186
C26	C	-0.646514	0.357830	-0.357955
C27	C	-0.548880	0.339718	-0.425794
C28	C	-0.548784	0.425560	-0.339716
C29	C	-0.598200	0.407495	-0.407540
C30	C	-0.416430	0.357849	-0.357995
C31	C	-0.730610	0.357825	-0.357949
C32	C	-0.266853	0.357879	-0.358020
C33	C	-0.349398	0.357855	-0.358002
C34	C	-1.023486	0.832804	-0.407571
C35	C	-1.005379	0.882247	-0.339802
C36	C	-1.073112	0.784483	-0.358004
C37	C	-1.091239	0.882121	-0.425782
C38	C	-1.073164	0.930468	-0.358020
C39	C	-1.054969	0.832839	-0.290198
C40	C	-1.140860	0.832709	-0.376225
C41	C	-1.122779	0.882130	-0.308408
C42	C	-1.073080	0.700385	-0.357996
C43	C	-1.073197	1.014565	-0.358020
C44	C	-1.073187	0.357788	-0.551691
C45	C	-1.073205	0.357760	-0.634237
C46	C	-1.073251	1.164149	-0.358014
C47	C	-1.073222	1.081603	-0.358029
C48	C	-1.122891	0.308113	-0.883082
C49	C	-1.141005	0.375879	-0.833676
C50	C	-1.073252	0.357713	-0.931358
C51	C	-1.055150	0.289975	-0.833682
C52	C	-1.073231	0.357732	-0.785373
C53	C	-1.091402	0.425514	-0.883039
C54	C	-1.005515	0.339564	-0.883049
C55	C	-1.023603	0.407377	-0.833665
C56	C	-1.073267	0.357701	-1.015456
C57	C	-1.073216	0.357752	-0.701276
C58	C	-1.073150	0.357867	-0.165034
C59	C	-1.073276	0.357686	-0.082488
H60	H	-0.527148	0.266132	-0.266609
H61	H	-1.106550	0.903769	-0.483095
H62	H	-0.619983	0.232802	-0.391670
H63	H	-1.106787	0.482819	-0.904629
H64	H	-0.948257	0.324180	-0.904754
C65	C	-1.218205	0.803286	-0.397063
H66	H	-1.237222	0.774344	-0.357446
H67	H	-1.214626	0.773559	-0.440353
H68	H	-1.250488	0.843808	-0.406240
H69	H	-1.164910	0.266212	-0.904779
H70	H	-0.527316	0.324384	-0.483134
H71	H	-0.619741	0.449500	-0.449472
C72	C	-0.966724	0.803537	-0.464115
H73	H	-0.918628	0.820501	-0.451050
H74	H	-0.979109	0.821135	-0.512135
H75	H	-0.967406	0.750911	-0.464029
H76	H	-0.981616	0.449378	-0.812105
C77	C	-1.034470	0.212579	-0.804398
H78	H	-1.069795	0.177395	-0.821330
H79	H	-1.034165	0.213245	-0.751777
H80	H	-0.986696	0.199341	-0.822039
H81	H	-1.039591	0.811281	-0.232870
C82	C	-1.218374	0.396633	-0.804371
H83	H	-1.253595	0.361337	-0.821287
H84	H	-1.231569	0.444419	-0.821996
H85	H	-1.217692	0.396928	-0.751746
H86	H	-0.527035	0.482815	-0.324253
H87	H	-0.619827	0.391154	-0.232863
H88	H	-0.948111	0.904024	-0.324405
C89	C	-1.179500	0.911213	-0.251730
H90	H	-1.166520	0.894248	-0.203632
H91	H	-1.227463	0.893501	-0.264256
H92	H	-1.179495	0.963839	-0.252324
