data_functionalizedCrystal
_audit_creation_method	'MofGen! by Chris Wilmer'
_symmetry_space_group_name_H-M	'P1'
_symmetry_Int_Tables_number	1
_symmetry_cell_setting	triclinic
loop_
_symmetry_equiv_pos_as_xyz
  x,y,z
_cell_length_a	29.839134
_cell_length_b	18.101396
_cell_length_c	29.839135
_cell_angle_alpha	89.997490
_cell_angle_beta	89.982086
_cell_angle_gamma	90.032371
loop_
_atom_site_label
_atom_site_type_symbol
_atom_site_fract_x
_atom_site_fract_y
_atom_site_fract_z
Zn1	Zn	-0.686708	0.295099	0.254161
Zn2	Zn	-0.686653	0.418895	0.179038
Zn3	Zn	-0.611598	0.295062	0.179029
Zn4	Zn	-0.611544	0.418894	0.254124
O5	O	-0.649126	0.356988	0.216588
O6	O	-0.749568	0.311538	0.244215
O7	O	-0.676697	0.402454	0.116170
O8	O	-0.621607	0.191434	0.189007
O9	O	-0.749528	0.402490	0.189023
O10	O	-0.676790	0.191462	0.244206
O11	O	-0.621554	0.311474	0.116163
O12	O	-0.548724	0.311472	0.188971
O13	O	-0.621515	0.402487	0.316996
O14	O	-0.548684	0.402451	0.244143
O15	O	-0.676737	0.311536	0.317023
O16	O	-0.676644	0.522528	0.188986
O17	O	-0.621462	0.522527	0.244152
C18	C	-0.532403	0.356958	0.216552
C19	C	-0.482469	0.356963	0.216547
C20	C	-0.172814	0.404437	0.245267
C21	C	0.014859	0.404460	0.245281
O22	O	0.039133	0.444786	0.269687
N23	N	0.038316	0.357024	0.216601
C24	C	0.014853	0.309576	0.187918
O25	O	0.039111	0.269224	0.163528
C26	C	-0.172820	0.309549	0.187906
C27	C	-0.196275	0.356993	0.216585
C28	C	-0.196269	0.451876	0.273943
C29	C	-0.243185	0.451873	0.273938
C30	C	-0.266645	0.404430	0.245256
C31	C	-0.243190	0.356990	0.216579
C32	C	-0.196282	0.262098	0.159225
C33	C	-0.243203	0.262094	0.159226
C34	C	-0.266658	0.309538	0.187904
C35	C	-0.313566	0.309543	0.187891
N36	N	-0.337023	0.356979	0.216571
C37	C	-0.313563	0.404422	0.245253
C38	C	0.113383	0.309594	0.187925
C39	C	0.160301	0.309602	0.187928
C40	C	0.160304	0.404485	0.245292
C41	C	0.113385	0.404481	0.245287
C42	C	0.089926	0.357030	0.216605
C43	C	-0.412089	0.404412	0.245239
C44	C	-0.459008	0.404406	0.245230
C45	C	-0.459007	0.309520	0.187867
C46	C	-0.412092	0.309528	0.187875
C47	C	-0.388634	0.356976	0.216564
O48	O	-0.337869	0.269233	0.163501
O49	O	-0.337829	0.444757	0.269647
C50	C	-0.125899	0.404440	0.245272
C51	C	-0.102444	0.357001	0.216596
C52	C	-0.125904	0.309557	0.187914
C53	C	-0.055526	0.357008	0.216598
C54	C	-0.032065	0.404451	0.245280
C55	C	-0.055523	0.451887	0.273960
C56	C	-0.102438	0.451884	0.273955
C57	C	-0.102447	0.262121	0.159234
C58	C	-0.055531	0.262129	0.159241
C59	C	-0.032071	0.309573	0.187924
C60	C	-0.649054	0.549398	0.216576
C61	C	-0.649064	0.631712	0.216586
C62	C	0.233696	0.357022	0.216617
C63	C	0.183762	0.357045	0.216610
C64	C	-0.649144	0.930803	0.216612
C65	C	-0.614507	0.899508	0.251407
C66	C	-0.614348	0.813890	0.251297
C67	C	-0.649104	0.782421	0.216600
C68	C	-0.636295	0.813537	0.169250
C69	C	-0.636066	0.899183	0.169459
C70	C	-0.696668	0.899162	0.228750
C71	C	-0.696393	0.813511	0.229788
C72	C	-0.649082	0.698561	0.216589
C73	C	-0.649164	1.014663	0.216619
C74	C	-0.649126	0.357015	0.333766
C75	C	-0.649126	0.357027	0.383701
C76	C	-0.649195	1.163826	0.216611
C77	C	-0.649184	1.081512	0.216626
C78	C	-0.677880	0.309635	0.693361
C79	C	-0.677883	0.309626	0.881034
O80	O	-0.702321	0.269332	0.905314
N81	N	-0.649133	0.356980	0.904486
C82	C	-0.620379	0.404336	0.881016
O83	O	-0.595922	0.444608	0.905269
C84	C	-0.620373	0.404340	0.693344
C85	C	-0.649128	0.356989	0.669895
C86	C	-0.706632	0.262286	0.669912
C87	C	-0.706632	0.262292	0.622997
C88	C	-0.677881	0.309646	0.599530
C89	C	-0.649129	0.356994	0.622979
C90	C	-0.591617	0.451692	0.669875
C91	C	-0.591617	0.451688	0.622954
C92	C	-0.620372	0.404336	0.599505
C93	C	-0.620378	0.404353	0.552598
N94	N	-0.649128	0.357000	0.529146
C95	C	-0.677879	0.309646	0.552613
C96	C	-0.620384	0.404332	0.979547
C97	C	-0.620386	0.404332	1.026465
C98	C	-0.677890	0.309621	1.026480
C99	C	-0.677890	0.309625	0.979561
C100	C	-0.649134	0.356978	0.956095
C101	C	-0.677878	0.309661	0.454087
C102	C	-0.677878	0.309673	0.407167
C103	C	-0.620372	0.404381	0.407156
C104	C	-0.620375	0.404372	0.454072
C105	C	-0.649129	0.357006	0.477536
O106	O	-0.595949	0.444620	0.528289
O107	O	-0.702325	0.269368	0.528351
C108	C	-0.677879	0.309629	0.740277
C109	C	-0.649127	0.356978	0.763726
C110	C	-0.620375	0.404332	0.740259
C111	C	-0.649129	0.356978	0.810644
C112	C	-0.677880	0.309624	0.834110
C113	C	-0.706630	0.262270	0.810659
C114	C	-0.706630	0.262276	0.763743
C115	C	-0.591626	0.451685	0.763711
C116	C	-0.591628	0.451677	0.810626
C117	C	-0.620379	0.404323	0.834093
C118	C	-0.649126	0.356980	1.099865
C119	C	-0.649137	0.356978	1.049931
H120	H	-0.036413	0.490519	0.297313
H121	H	-0.601926	0.792141	0.158784
C122	C	-0.588746	0.456462	0.381337
H123	H	-0.592863	0.449673	0.350037
H124	H	-0.595293	0.506225	0.389024
H125	H	-0.558565	0.445604	0.389016
H126	H	-0.036438	0.223495	0.135884
H127	H	-0.708345	0.920735	0.262690
H128	H	-0.392994	0.270897	0.164522
H129	H	-0.723567	0.792086	0.206293
C130	C	-0.709515	0.257528	1.052296
H131	H	-0.726640	0.229324	1.031614
H132	H	-0.692340	0.225263	1.070595
H133	H	-0.729079	0.285866	1.070604
H134	H	-0.262302	0.223448	0.135872
C135	C	-0.709449	0.786029	0.276859
H136	H	-0.686181	0.755729	0.288428
H137	H	-0.713823	0.827174	0.296125
H138	H	-0.736394	0.758208	0.275059
H139	H	-0.601327	0.919214	0.159177
H140	H	-0.596976	0.442898	1.045553
H141	H	-0.596968	0.442897	0.960445
H142	H	-0.701295	0.271113	0.388077
H143	H	-0.579124	0.793457	0.243256
H144	H	-0.730045	0.223717	0.744655
C145	C	-0.731520	0.926424	0.194486
H146	H	-0.717204	0.956950	0.172891
H147	H	-0.744768	0.885184	0.179916
H148	H	-0.754080	0.953952	0.209504
C149	C	-0.668660	0.927154	0.133237
H150	H	-0.681980	0.886172	0.118457
H151	H	-0.691375	0.956277	0.146842
H152	H	-0.652727	0.956257	0.112056
H153	H	-0.730042	0.223715	0.829773
C154	C	-0.559995	0.503766	0.836415
H155	H	-0.542870	0.531961	0.815715
H156	H	-0.577160	0.536040	0.854726
H157	H	-0.540430	0.475421	0.854708
C158	C	-0.559998	0.503778	0.737904
H159	H	-0.542880	0.531979	0.758594
H160	H	-0.540434	0.475452	0.719594
H161	H	-0.577171	0.536058	0.719609
C162	C	-0.625176	0.927391	0.298980
H163	H	-0.650853	0.958361	0.298052
H164	H	-0.630894	0.886453	0.318067
H165	H	-0.600353	0.954604	0.310167
H166	H	-0.478117	0.270896	0.164514
H167	H	0.094291	0.443113	0.268640
H168	H	-0.392995	0.443047	0.268602
C169	C	-0.484806	0.456593	0.276779
H170	H	-0.464112	0.484842	0.293865
H171	H	-0.503092	0.488813	0.259560
H172	H	-0.503125	0.428312	0.296384
H173	H	-0.701291	0.271089	0.473186
C174	C	-0.738258	0.210197	0.597209
H175	H	-0.755376	0.181993	0.617910
H176	H	-0.757823	0.238524	0.578910
H177	H	-0.721084	0.177921	0.578904
H178	H	-0.660732	0.793152	0.142618
C179	C	-0.128247	0.209937	0.127678
H180	H	-0.107553	0.181695	0.110598
H181	H	-0.146569	0.177711	0.144889
H182	H	-0.146529	0.238218	0.108069
C183	C	0.186116	0.456666	0.276845
H184	H	0.217417	0.449867	0.272739
H185	H	0.178448	0.506409	0.270224
H186	H	0.178414	0.445899	0.307041
C187	C	-0.567208	0.928646	0.240680
H188	H	-0.568476	0.959798	0.215089
H189	H	-0.556163	0.955905	0.265540
H190	H	-0.547804	0.888204	0.234785
H191	H	-0.622361	0.792851	0.286406
C192	C	-0.268979	0.504053	0.305490
H193	H	-0.248282	0.532299	0.322574
H194	H	-0.287268	0.536276	0.288275
H195	H	-0.287295	0.475770	0.325096
H196	H	-0.730045	0.223721	0.689014
C197	C	-0.709515	0.257531	0.953771
H198	H	-0.726635	0.229328	0.974471
H199	H	-0.729077	0.285857	0.935471
H200	H	-0.692339	0.225253	0.935468
C201	C	-0.559996	0.503795	0.597144
H202	H	-0.542878	0.532001	0.617832
H203	H	-0.540431	0.475480	0.578829
H204	H	-0.577178	0.536070	0.578854
H205	H	-0.568202	0.490251	0.688959
H206	H	0.094287	0.270953	0.164567
C207	C	-0.588748	0.456462	0.479866
H208	H	-0.571624	0.484663	0.459169
H209	H	-0.605917	0.488731	0.498178
H210	H	-0.569183	0.428119	0.498159
H211	H	0.179394	0.270975	0.164570
C212	C	-0.170470	0.504070	0.305496
H213	H	-0.191165	0.532320	0.322569
H214	H	-0.152181	0.475807	0.325104
H215	H	-0.152154	0.536299	0.288276
H216	H	-0.177193	0.223465	0.135871
H217	H	-0.121531	0.490517	0.297308
