data_functionalizedCrystal
_audit_creation_method	'MofGen! by Chris Wilmer'
_symmetry_space_group_name_H-M	'P1'
_symmetry_Int_Tables_number	1
_symmetry_cell_setting	triclinic
loop_
_symmetry_equiv_pos_as_xyz
  x,y,z
_cell_length_a	15.944551
_cell_length_b	14.971486
_cell_length_c	14.048226
_cell_angle_alpha	89.998499
_cell_angle_beta	90.001543
_cell_angle_gamma	96.443567
loop_
_atom_site_label
_atom_site_type_symbol
_atom_site_fract_x
_atom_site_fract_y
_atom_site_fract_z
O1	O	-0.109463	1.186829	-0.079041
O2	O	-0.122572	0.926415	-0.079065
O3	O	0.006251	1.063733	-0.079058
O4	O	-0.238286	1.049510	-0.079048
O5	O	0.006258	1.063717	0.079264
O6	O	-0.122564	0.926398	0.079256
O7	O	-0.109456	1.186812	0.079281
Zn8	Zn	-0.116009	1.056603	0.104405
Zn9	Zn	-0.116019	1.056624	-0.104190
O10	O	-0.238278	1.049494	0.079273
C11	C	-0.121982	0.893082	0.000092
C12	C	-0.120225	0.793787	0.000082
C13	C	-0.195904	0.736480	0.000087
C14	C	-0.194249	0.643182	0.000101
C15	C	-0.116913	0.607194	0.000104
C16	C	-0.041227	0.664508	0.000102
C17	C	-0.042884	0.757804	0.000095
C18	C	-0.037780	0.470049	0.000115
C19	C	-0.036123	0.376747	0.000121
C20	C	-0.189145	0.355428	0.000121
C21	C	-0.190801	0.448724	0.000114
C22	C	-0.115116	0.506032	0.000110
C23	C	-0.269576	1.050093	0.000114
C24	C	-0.362824	1.051863	0.000118
C25	C	-0.577766	1.141210	0.000112
C26	C	-0.638739	1.099712	0.078170
C27	C	-0.533553	1.055065	0.000110
C28	C	-0.638732	1.099708	-0.077922
C29	C	-0.698469	1.058165	0.000098
C30	C	-0.593298	1.013543	0.078232
C31	C	-0.593284	1.013551	-0.077930
C32	C	-0.654240	0.971991	0.000146
C33	C	-0.438549	1.053282	0.000118
C34	C	-0.793471	1.059941	0.000097
C35	C	0.037549	1.063134	0.000099
C36	C	0.130797	1.061364	0.000089
C37	C	-0.110046	1.220145	0.000121
C38	C	-0.111802	1.319440	0.000125
N39	N	-0.116001	1.056594	0.246766
N40	N	-0.116019	1.056640	-0.246550
C41	C	-0.058982	1.117418	0.296587
C42	C	-0.058982	1.117424	0.396245
C43	C	-0.116005	1.056610	0.446080
C44	C	-0.173027	0.995780	0.396251
C45	C	-0.173022	0.995770	0.296595
C46	C	-0.173033	0.995806	0.603965
C47	C	-0.173038	0.995816	0.703628
C48	C	-0.058992	1.117459	0.703615
C49	C	-0.058988	1.117450	0.603959
C50	C	-0.116011	1.056621	0.554138
H51	H	-0.258881	0.765774	0.000083
H52	H	-0.255875	0.596526	0.000103
Br53	Br	0.064938	0.547824	0.000115
H54	H	-0.219453	0.946259	0.436832
H55	H	0.018742	0.804463	0.000091
Br56	Br	0.063731	0.615667	0.000116
H57	H	0.026851	0.347448	0.000124
Br58	Br	-0.295759	0.497566	0.000095
H59	H	-0.219472	0.946294	0.744198
H60	H	-0.012552	1.166951	0.436809
H61	H	-0.544528	1.212715	0.000196
H62	H	-0.658859	1.136167	-0.143910
H63	H	-0.658877	1.136141	0.144169
Br64	Br	-0.709385	0.852704	0.000194
H65	H	-0.573124	0.977153	-0.143932
H66	H	-0.012551	1.166943	0.256019
H67	H	-0.012560	1.166973	0.563384
H68	H	-0.012562	1.166988	0.744186
H69	H	-0.219464	0.946269	0.563404
H70	H	-0.219452	0.946240	0.256032
H71	H	-0.250771	0.308763	0.000128
Br72	Br	-0.559921	0.952852	0.188345
