data_functionalizedCrystal
_audit_creation_method	'MofGen! by Chris Wilmer'
_symmetry_space_group_name_H-M	'P1'
_symmetry_Int_Tables_number	1
_symmetry_cell_setting	triclinic
loop_
_symmetry_equiv_pos_as_xyz
  x,y,z
_cell_length_a	11.026660
_cell_length_b	14.853567
_cell_length_c	9.482899
_cell_angle_alpha	80.660960
_cell_angle_beta	101.372591
_cell_angle_gamma	96.109883
loop_
_atom_site_label
_atom_site_type_symbol
_atom_site_fract_x
_atom_site_fract_y
_atom_site_fract_z
O1	O	1.591867	0.388636	-0.120870
O2	O	1.238490	0.345640	-0.120874
O3	O	1.424617	0.237432	-0.120876
O4	O	1.405740	0.496844	-0.120868
O5	O	1.462456	0.215368	0.120916
O6	O	1.276328	0.323576	0.120918
O7	O	1.629706	0.366573	0.120922
Cu8	Cu	1.456472	0.343060	0.142998
Cu9	Cu	1.411723	0.369153	-0.142949
O10	O	1.443578	0.474781	0.120925
C11	C	1.212185	0.326676	0.000021
C12	C	1.077432	0.303029	0.000019
C13	C	0.864460	0.343891	0.000016
C14	C	1.003735	0.368333	0.000020
C15	C	1.442680	0.192674	0.000016
C16	C	1.440115	0.092178	0.000003
C17	C	1.318720	-0.339947	0.000029
C18	C	1.539844	-0.325549	0.000032
C19	C	1.542253	-0.231126	0.000023
C20	C	1.432894	-0.191109	0.000020
C21	C	1.321126	-0.245515	0.000025
C22	C	1.654021	-0.176713	0.000033
C23	C	1.656434	-0.082284	0.000026
C24	C	1.547072	-0.042265	0.000012
C25	C	1.435300	-0.096677	0.000016
C26	C	1.325941	-0.056660	0.000012
C27	C	1.214165	-0.111070	0.000005
C28	C	1.211764	-0.205496	0.000011
C29	C	1.549474	0.052161	0.000006
C30	C	1.328347	0.037771	0.000008
C31	C	1.656010	0.385537	0.000024
C32	C	1.790762	0.409185	0.000017
C33	C	1.425515	0.519539	0.000030
C34	C	1.428078	0.620036	0.000033
N35	N	1.380250	0.387498	-0.344069
C36	C	1.421010	0.363729	-0.583682
C37	C	1.447205	0.348473	-0.416265
N38	N	1.487955	0.324709	0.344118
H39	H	0.824450	0.269894	0.000035
N40	N	1.056716	0.466354	0.000036
H41	H	1.148699	0.469921	0.000039
H42	H	1.014359	0.505531	-0.089600
N43	N	1.278623	0.446703	-0.426346
H44	H	1.237545	0.470643	-0.355160
H45	H	1.315396	0.499819	-0.489515
H46	H	1.037411	0.229038	-0.000080
H47	H	0.830776	0.483179	0.000029
N48	N	1.657785	-0.368707	0.000023
H49	H	1.728953	-0.319910	0.000015
H50	H	1.675635	-0.415747	0.089661
N51	N	1.589569	0.265501	-0.573600
H52	H	1.671649	0.292219	-0.600017
H53	H	1.593769	0.263019	-0.465693
N54	N	1.210392	0.080931	-0.000008
H55	H	1.139224	0.032133	-0.000013
H56	H	1.220596	0.111616	0.089628
N57	N	1.771959	-0.219884	0.000055
H58	H	1.761862	-0.250563	-0.089577
H59	H	1.843079	-0.171050	0.000121
H60	H	1.523922	0.303773	-0.354142
N61	N	1.096230	-0.067896	0.000030
H62	H	1.078278	-0.020854	-0.089594
H63	H	1.025125	-0.116738	0.000086
H64	H	1.120762	-0.249805	0.000007
N65	N	1.198165	-0.398622	0.000014
H66	H	1.213227	-0.464514	0.000013
H67	H	1.164333	-0.393437	0.089649
N68	N	1.776984	-0.023603	0.000034
H69	H	1.845895	-0.063283	0.000039
H70	H	1.768772	0.024063	-0.089607
N71	N	1.319398	0.422937	-0.665974
H72	H	1.237316	0.396224	-0.639560
H73	H	1.337819	0.486803	-0.639549
H74	H	1.640481	0.096456	0.000022
