data_functionalizedCrystal
_audit_creation_method	'MofGen! by Chris Wilmer'
_symmetry_space_group_name_H-M	'P1'
_symmetry_Int_Tables_number	1
_symmetry_cell_setting	triclinic
loop_
_symmetry_equiv_pos_as_xyz
  x,y,z
_cell_length_a	13.339070
_cell_length_b	15.995350
_cell_length_c	12.376457
_cell_angle_alpha	101.278656
_cell_angle_beta	75.589755
_cell_angle_gamma	99.560835
loop_
_atom_site_label
_atom_site_type_symbol
_atom_site_fract_x
_atom_site_fract_y
_atom_site_fract_z
O1	O	1.361687	0.408219	-0.094025
O2	O	1.067160	0.353123	-0.094021
O3	O	1.222474	0.260654	-0.094022
O4	O	1.206373	0.500688	-0.094024
O5	O	1.183660	0.283730	0.093990
O6	O	1.028345	0.376200	0.093991
O7	O	1.322873	0.431295	0.093987
Zn8	Zn	1.169446	0.407411	0.123840
Zn9	Zn	1.220586	0.377007	-0.123874
O10	O	1.167558	0.523765	0.093988
C11	C	1.010063	0.355354	-0.000015
C12	C	0.897761	0.327613	-0.000013
C13	C	0.532972	0.543314	-0.000033
C14	C	0.638486	0.569381	-0.000038
C15	C	0.703309	0.508941	-0.000031
C16	C	0.662609	0.422430	-0.000021
C17	C	0.557087	0.396360	-0.000025
C18	C	0.727425	0.361987	-0.000023
C19	C	0.686725	0.275476	-0.000013
C20	C	0.581212	0.249410	-0.000016
C21	C	0.516389	0.309850	-0.000023
C22	C	0.832947	0.388057	-0.000019
C23	C	0.857062	0.241103	-0.000011
C24	C	0.751549	0.215036	-0.000006
C25	C	1.202402	0.240842	-0.000018
C26	C	1.200407	0.147428	-0.000025
C27	C	1.193239	-0.191985	-0.000021
C28	C	1.082714	-0.170299	-0.000441
C29	C	1.084622	-0.073093	-0.000017
C30	C	1.196795	-0.023598	-0.000023
C31	C	1.229188	-0.038823	0.107338
C32	C	1.226391	-0.136094	0.107428
C33	C	1.272816	-0.162164	-0.106377
C34	C	1.273082	-0.065398	-0.107796
C35	C	1.198810	0.071568	-0.000021
C36	C	1.191226	-0.287149	-0.000015
C37	C	1.379970	0.429064	-0.000022
C38	C	1.492273	0.456804	-0.000031
C39	C	1.187631	0.543576	-0.000018
C40	C	1.189627	0.636990	-0.000019
N41	N	1.134551	0.428163	0.292899
N42	N	1.255489	0.356251	-0.292933
C43	C	1.336490	0.308063	0.647882
C44	C	1.360907	0.293538	0.529542
C45	C	1.304320	0.327193	0.470376
C46	C	1.223312	0.375376	0.529561
C47	C	1.198898	0.389908	0.647912
C48	C	1.166728	0.409038	0.470405
C49	C	1.085720	0.457221	0.529590
C50	C	1.061310	0.471751	0.647930
C51	C	1.117897	0.438096	0.707097
C52	C	1.191142	0.394505	0.352054
C53	C	1.053550	0.476350	0.352084
C54	C	1.029133	0.490876	0.470424
H55	H	0.430470	0.288631	-0.000018
H56	H	0.548081	0.178966	-0.000020
H57	H	0.909843	0.191887	-0.000011
H58	H	1.324204	0.315364	0.374018
N59	N	1.091567	0.453764	0.834739
H60	H	1.100398	0.517578	0.863243
H61	H	1.016962	0.429034	0.863169
H62	H	0.866073	0.458495	-0.000023
N63	N	0.941770	0.542852	0.534259
H64	H	0.874221	0.513966	0.513682
H65	H	0.934985	0.546937	0.618186
H66	H	0.789223	0.530169	-0.000038
N67	N	0.463062	0.608494	-0.000054
H68	H	0.390045	0.578849	-0.000059
H69	H	0.461840	0.653694	0.069642
H70	H	1.382561	0.280671	0.696064
H71	H	0.718397	0.144597	-0.000007
N72	N	1.278500	0.342535	0.288213
H73	H	1.346050	0.371417	0.308788
H74	H	1.262511	0.282935	0.308838
H75	H	1.356221	-0.031829	-0.114283
N76	N	1.151732	-0.159539	0.213727
H77	H	1.149169	-0.222833	0.214848
H78	H	1.176266	-0.125035	0.281956
N79	N	1.242035	-0.054400	-0.213000
H80	H	1.301622	-0.020650	-0.260683
H81	H	1.224837	-0.112729	-0.257764
H82	H	1.306596	-0.148878	0.112295
N83	N	0.992503	0.512656	0.288292
H84	H	1.041285	0.552697	0.239177
H85	H	0.957845	0.464156	0.239270
N86	N	0.682386	0.662679	-0.000066
H87	H	0.625313	0.697011	-0.000072
H88	H	0.711255	0.685260	0.069628
H89	H	1.354519	-0.175067	-0.107103
H90	H	1.025532	-0.045796	0.077076
H91	H	0.995356	0.510992	0.696119
H92	H	1.057625	-0.064081	-0.076978
N93	N	1.448271	0.241571	0.465711
H94	H	1.503187	0.277970	0.416605
H95	H	1.480329	0.222464	0.521221
N96	N	1.045192	-0.220969	-0.102417
H97	H	1.099471	-0.258475	-0.149335
H98	H	0.977692	-0.258198	-0.076699
H99	H	1.022893	-0.190721	0.076122
H100	H	1.310774	-0.005063	0.111327
H101	H	1.253451	-0.201093	-0.187751
N102	N	1.157150	0.000110	0.213169
H103	H	1.083160	-0.027477	0.214239
H104	H	1.178709	-0.010024	0.281742
