data_functionalizedCrystal
_audit_creation_method	'MofGen! by Chris Wilmer'
_symmetry_space_group_name_H-M	'P1'
_symmetry_Int_Tables_number	1
_symmetry_cell_setting	triclinic
loop_
_symmetry_equiv_pos_as_xyz
  x,y,z
_cell_length_a	26.210047
_cell_length_b	14.044220
_cell_length_c	14.044220
_cell_angle_alpha	93.188878
_cell_angle_beta	90.004027
_cell_angle_gamma	89.995121
loop_
_atom_site_label
_atom_site_type_symbol
_atom_site_fract_x
_atom_site_fract_y
_atom_site_fract_z
O1	O	0.042377	-1.277175	-0.230154
O2	O	0.042390	-1.000503	-0.221849
O3	O	0.042378	-1.134686	-0.087666
O4	O	0.042388	-1.142992	-0.364337
O5	O	-0.042480	-1.134660	-0.087686
O6	O	-0.042468	-1.000477	-0.221869
O7	O	-0.042481	-1.277148	-0.230175
Cu8	Cu	-0.050223	-1.138810	-0.226024
Cu9	Cu	0.050131	-1.138841	-0.226000
O10	O	-0.042470	-1.142965	-0.364358
C11	C	-0.000038	-0.964868	-0.218223
C12	C	-0.000033	-0.858725	-0.207379
N13	N	-0.120807	-1.138795	-0.226041
C14	C	-0.000053	-1.312783	-0.233800
C15	C	-0.000054	-1.418926	-0.244645
C16	C	-0.473326	-1.198252	-0.166598
C17	C	-0.686985	-1.198272	-0.166586
O18	O	-0.714611	-1.248788	-0.116046
N19	N	-0.713701	-1.138845	-0.225979
C20	C	-0.686999	-1.079403	-0.285375
O21	O	-0.714626	-1.028850	-0.335885
C22	C	-0.473342	-1.079379	-0.285381
C23	C	-0.446628	-1.138818	-0.225991
C24	C	-0.446612	-1.257685	-0.107212
C25	C	-0.393201	-1.257683	-0.107219
C26	C	-0.366503	-1.198249	-0.166612
C27	C	-0.393217	-1.138816	-0.225998
C28	C	-0.446641	-1.019934	-0.344771
C29	C	-0.393223	-1.019931	-0.344765
C30	C	-0.366510	-1.079370	-0.285375
C31	C	-0.313107	-1.079380	-0.285398
N32	N	-0.286391	-1.138807	-0.226005
C33	C	-0.313089	-1.198241	-0.166612
C34	C	-0.799173	-1.079422	-0.285369
C35	C	-0.852587	-1.079429	-0.285369
C36	C	-0.852568	-1.198296	-0.166579
C37	C	-0.799153	-1.198293	-0.166584
C38	C	-0.772456	-1.138849	-0.225976
C39	C	-0.200921	-1.198234	-0.166633
C40	C	-0.147505	-1.198230	-0.166648
C41	C	-0.147528	-1.079359	-0.285434
C42	C	-0.200939	-1.079366	-0.285423
C43	C	-0.227635	-1.138807	-0.226014
O44	O	-0.285448	-1.028882	-0.335904
O45	O	-0.285453	-1.248772	-0.116094
C46	C	-0.526737	-1.198254	-0.166590
C47	C	-0.553451	-1.138821	-0.225976
C48	C	-0.526753	-1.079387	-0.285369
C49	C	-0.606865	-1.138828	-0.225976
C50	C	-0.633563	-1.198263	-0.166583
C51	C	-0.606847	-1.257690	-0.107190
C52	C	-0.553435	-1.257688	-0.107197
C53	C	-0.553469	-1.019959	-0.344762
C54	C	-0.606881	-1.019967	-0.344751
C55	C	-0.633579	-1.079401	-0.285358
N56	N	0.120715	-1.138863	-0.225976
C57	C	-0.000051	-1.131037	-0.052054
C58	C	-0.000051	-1.120193	0.054088
C59	C	-0.000044	-0.664388	-0.187553
C60	C	-0.000043	-0.613258	-0.264467
C61	C	-0.000049	-0.505122	-0.253435
C62	C	-0.000038	-0.772534	-0.198583
C63	C	-0.000040	-1.146614	-0.399969
C64	C	-0.000036	-1.157459	-0.506112
C65	C	-0.000043	-1.100366	0.248426
C66	C	-0.000045	-1.177281	0.299556
C67	C	-0.000040	-1.166249	0.407692
C68	C	-0.000047	-1.111397	0.140280
H69	H	-0.125756	-1.246635	-0.118286
H70	H	-0.000049	-0.626951	-0.113425
H71	H	-0.000014	-1.251414	0.262117
C72	C	-0.000045	-1.000222	0.299003
N73	N	-0.000050	-0.924793	0.337108
C74	C	-0.476014	-0.954538	-0.410097
N75	N	-0.498137	-0.905274	-0.459302
C76	C	-0.769773	-1.263673	-0.101245
N77	N	-0.747647	-1.312917	-0.052025
C78	C	-0.000031	-0.663834	-0.364619
N79	N	-0.000018	-0.701933	-0.440050
C80	C	-0.230325	-1.013988	-0.350760
N81	N	-0.252455	-0.964736	-0.399967
C82	C	-0.363823	-1.323059	-0.041874
N83	N	-0.341699	-1.372300	0.007352
C84	C	-0.230278	-1.263624	-0.101283
N85	N	-0.252390	-1.312880	-0.052066
H86	H	-0.468345	-1.306083	-0.058843
C87	C	-0.118150	-1.013981	-0.350760
N88	N	-0.096021	-0.964731	-0.399958
C89	C	-0.881946	-1.263669	-0.101240
N90	N	-0.904076	-1.312899	-0.052024
H91	H	-0.874333	-1.031040	-0.333740
C92	C	-0.524057	-1.323069	-0.041857
N93	N	-0.501933	-1.372315	0.007364
C94	C	-0.636260	-0.954574	-0.410088
N95	N	-0.658386	-0.905314	-0.459292
C96	C	-0.769813	-1.014102	-0.350787
N97	N	-0.747701	-0.964933	-0.400091
H98	H	-0.371489	-0.971521	-0.393128
H99	H	-0.628593	-1.306088	-0.058833
H100	H	-0.531736	-0.971559	-0.393126
