data_functionalizedCrystal
_audit_creation_method	'MofGen! by Chris Wilmer'
_symmetry_space_group_name_H-M	'P1'
_symmetry_Int_Tables_number	1
_symmetry_cell_setting	triclinic
loop_
_symmetry_equiv_pos_as_xyz
  x,y,z
_cell_length_a	10.489746
_cell_length_b	19.288859
_cell_length_c	17.766277
_cell_angle_alpha	89.998897
_cell_angle_beta	90.003705
_cell_angle_gamma	83.837513
loop_
_atom_site_label
_atom_site_type_symbol
_atom_site_fract_x
_atom_site_fract_y
_atom_site_fract_z
O1	O	1.691834	0.098007	0.062539
O2	O	2.191834	0.598007	0.562539
O3	O	1.320431	0.107201	0.062551
O4	O	1.820431	0.607201	0.562551
O5	O	1.516868	0.001545	0.062545
O6	O	2.016868	0.501545	0.562545
O7	O	1.495397	0.203663	0.062545
O8	O	1.995397	0.703663	0.562545
O9	O	1.516842	0.001549	-0.062644
O10	O	2.016842	0.501549	0.437356
O11	O	1.320405	0.107205	-0.062638
O12	O	1.820405	0.607205	0.437362
O13	O	1.691808	0.098010	-0.062650
O14	O	2.191808	0.598010	0.437350
Cu15	Cu	1.506104	0.102608	-0.074074
Cu16	Cu	2.006104	0.602608	0.425926
Cu17	Cu	1.506135	0.102604	0.073976
Cu18	Cu	2.006135	0.602604	0.573976
O19	O	1.495370	0.203666	-0.062643
O20	O	1.995370	0.703666	0.437357
C21	C	1.272902	0.106508	-0.000042
C22	C	1.772902	0.606508	0.499958
C23	C	1.131320	0.104428	-0.000037
C24	C	1.631320	0.604428	0.499963
C25	C	0.980013	0.035971	-0.000048
C26	C	1.480013	0.535971	0.499952
C27	C	1.056619	0.070199	-0.061770
C28	C	1.556619	0.570199	0.438230
C29	C	1.056600	0.070211	0.061656
C30	C	1.556600	0.570211	0.561656
C31	C	0.955659	0.134984	-0.061829
C32	C	1.455659	0.634984	0.438171
C33	C	0.955635	0.134987	0.061653
C34	C	1.455635	0.634987	0.561653
C35	C	1.032191	0.169262	-0.000084
C36	C	1.532191	0.669262	0.499916
C37	C	1.516166	-0.024334	-0.000048
C38	C	2.016166	0.475666	0.499952
C39	C	1.514096	-0.101452	-0.000043
C40	C	2.014096	0.398548	0.499957
C41	C	1.739337	0.098704	-0.000055
C42	C	2.239337	0.598704	0.499945
C43	C	1.880919	0.100784	-0.000055
C44	C	2.380919	0.600784	0.499945
C45	C	1.496073	0.229545	-0.000049
C46	C	1.996073	0.729545	0.499951
C47	C	1.498143	0.306663	-0.000049
C48	C	1.998143	0.806663	0.499951
N49	N	1.506091	0.102611	-0.178205
N50	N	2.006091	0.602611	0.321795
C51	C	1.396886	0.870024	-0.000031
C52	C	1.896886	1.370024	0.499969
C53	C	1.394930	0.797564	-0.000037
C54	C	1.894930	1.297564	0.499963
C55	C	1.510190	0.753632	-0.000040
C56	C	2.010190	1.253632	0.499960
C57	C	1.627416	0.782164	-0.000057
C58	C	2.127416	1.282164	0.499943
C59	C	1.629368	0.854622	-0.000058
C60	C	2.129368	1.354622	0.499942
C61	C	1.596160	0.632936	0.043816
C62	C	2.096160	1.132936	0.543816
C63	C	1.594202	0.560479	0.043822
C64	C	2.094202	1.060479	0.543822
C65	C	1.504172	0.530145	-0.000039
C66	C	2.004172	1.030145	0.499961
C67	C	1.416077	0.572279	-0.043896
C68	C	1.916077	1.072279	0.456104
C69	C	1.418030	0.644737	-0.043897
C70	C	1.918030	1.144737	0.456103
C71	C	1.508086	0.675062	-0.000039
C72	C	2.008086	1.175062	0.499961
C73	C	1.384833	0.423052	-0.000034
C74	C	1.884833	0.923052	0.499966
C75	C	1.382881	0.350591	-0.000044
C76	C	1.882881	0.850591	0.499956
C77	C	1.615371	0.335192	-0.000057
C78	C	2.115371	0.835192	0.499943
C79	C	1.617319	0.407652	-0.000054
C80	C	2.117319	0.907652	0.499946
C81	C	1.502046	0.451578	-0.000039
C82	C	2.002046	0.951578	0.499961
C83	C	1.583265	0.145127	-0.782495
C84	C	2.083265	0.645127	-0.282495
C85	C	1.583253	0.145134	-0.703693
C86	C	2.083253	0.645134	-0.203693
C87	C	1.506147	0.102596	-0.664294
C88	C	2.006147	0.602596	-0.164294
C89	C	1.429023	0.060061	-0.703702
C90	C	1.929023	0.560061	-0.203702
C91	C	1.429029	0.060061	-0.782502
C92	C	1.929029	0.560061	-0.282502
C93	C	1.502979	0.039950	-0.539449
C94	C	2.002979	0.539950	-0.039449
C95	C	1.502983	0.039949	-0.460650
C96	C	2.002983	0.539949	0.039350
C97	C	1.506123	0.102597	-0.421247
C98	C	2.006123	0.602597	0.078753
C99	C	1.509286	0.165248	-0.460652
C100	C	2.009286	0.665248	0.039348
C101	C	1.509291	0.165248	-0.539453
C102	C	2.009291	0.665248	-0.039453
C103	C	1.506132	0.102592	-0.578848
C104	C	2.006132	0.602592	-0.078848
C105	C	1.583221	0.145140	-0.296402
C106	C	2.083221	0.645140	0.203598
C107	C	1.583200	0.145148	-0.217599
C108	C	2.083200	0.645148	0.282401
C109	C	1.428978	0.060069	-0.217609
C110	C	1.928978	0.560069	0.282391
C111	C	1.428992	0.060068	-0.296411
C112	C	1.928992	0.560068	0.203589
C113	C	1.506121	0.102602	-0.335803
C114	C	2.006121	0.602602	0.164197
N115	N	1.506157	0.102596	0.178106
N116	N	2.006157	0.602596	0.678106
H117	H	1.055389	0.225662	-0.000118
H118	H	1.555389	0.725662	0.499882
H119	H	1.100674	0.042837	0.113839
H120	H	1.600674	0.542837	0.613839
C121	C	1.253934	0.319215	-0.000033
C122	C	1.753934	0.819215	0.499967
N123	N	1.156808	0.295582	-0.000023
N124	N	1.656808	0.795582	0.499977
H125	H	1.366189	0.025438	-0.185531
H126	H	1.866189	0.525438	0.314469
C127	C	0.896345	0.171920	-0.132409
C128	C	1.396345	0.671920	0.367591
N129	N	0.851667	0.199736	-0.185570
N130	N	1.351667	0.699736	0.314430
H131	H	1.724818	0.877846	-0.000068
H132	H	2.224818	1.377846	0.499932
H133	H	0.911526	0.162322	0.113838
H134	H	1.411526	0.662322	0.613838
H135	H	1.346303	0.679039	-0.079609
H136	H	1.846303	1.179039	0.420391
C137	C	1.344318	0.013210	-0.660361
C138	C	1.844318	0.513210	-0.160361
N139	N	1.280553	-0.022101	-0.627716
N140	N	1.780553	0.477899	-0.127716
C141	C	1.116182	0.033238	-0.132266
C142	C	1.616182	0.533238	0.367734
N143	N	1.161042	0.005395	-0.185361
N144	N	1.661042	0.505395	0.314639
C145	C	1.668030	0.191939	-0.174261
C146	C	2.168030	0.691939	0.325739
N147	N	1.731928	0.227181	-0.141617
N148	N	2.231928	0.727181	0.358383
H149	H	1.303021	0.905785	-0.000020
H150	H	1.803021	1.405785	0.499980
C151	C	1.265984	0.766180	-0.000016
C152	C	1.765984	1.266180	0.499984
N153	N	1.168862	0.742544	0.000002
N154	N	1.668862	1.242544	0.500002
H155	H	1.511843	0.216263	-0.428572
H156	H	2.011843	0.716263	0.071428
H157	H	1.342765	0.547583	-0.079610
H158	H	1.842765	1.047583	0.420390
H159	H	0.956569	-0.020386	-0.000110
H160	H	1.456569	0.479614	0.499890
C161	C	1.258032	0.471373	-0.000030
C162	C	1.758032	0.971373	0.499970
N163	N	1.162524	0.507767	-0.000030
N164	N	1.662524	1.007767	0.499970
C165	C	1.668059	0.191931	-0.339736
C166	C	2.168059	0.691931	0.160264
N167	N	1.731960	0.227174	-0.372373
N168	N	2.231960	0.727174	0.127627
C169	C	1.499504	-0.028968	-0.417312
C170	C	1.999504	0.471032	0.082688
N171	N	1.496880	-0.080878	-0.384672
N172	N	1.996880	0.419122	0.115328
H173	H	1.709218	0.299422	-0.000062
H174	H	2.209218	0.799422	0.499938
C175	C	1.746261	0.439030	-0.000059
C176	C	2.246261	0.939030	0.499941
N177	N	1.843386	0.462663	-0.000064
N178	N	2.343386	0.962663	0.499936
H179	H	1.646067	0.179764	-0.814563
H180	H	2.146067	0.679764	-0.314563
H181	H	1.665931	0.526179	0.079534
H182	H	2.165931	1.026179	0.579534
H183	H	1.669481	0.657626	0.079533
H184	H	2.169481	1.157626	0.579533
C185	C	1.499540	-0.028974	-0.582785
C186	C	1.999540	0.471026	-0.082785
N187	N	1.496955	-0.080886	-0.615424
N188	N	1.996955	0.419114	-0.115424
C189	C	1.754203	0.733836	-0.000060
C190	C	2.254203	1.233836	0.499940
N191	N	1.849703	0.697436	-0.000064
N192	N	2.349703	1.197436	0.499936
H193	H	1.646042	0.179772	-0.671609
H194	H	2.146042	0.679772	-0.171609
C195	C	1.512745	0.234164	-0.582796
C196	C	2.012745	0.734164	-0.082796
N197	N	1.515336	0.286074	-0.615441
N198	N	2.015336	0.786074	-0.115441
H199	H	1.366236	0.025426	-0.814580
H200	H	1.866236	0.525426	-0.314580
H201	H	1.366208	0.025430	-0.328490
H202	H	1.866208	0.525430	0.171510
