data_functionalizedCrystal
_audit_creation_method	'MofGen! by Chris Wilmer'
_symmetry_space_group_name_H-M	'P1'
_symmetry_Int_Tables_number	1
_symmetry_cell_setting	triclinic
loop_
_symmetry_equiv_pos_as_xyz
  x,y,z
_cell_length_a	13.330367
_cell_length_b	14.853567
_cell_length_c	14.853567
_cell_angle_alpha	83.634930
_cell_angle_beta	89.999156
_cell_angle_gamma	89.995418
loop_
_atom_site_label
_atom_site_type_symbol
_atom_site_fract_x
_atom_site_fract_y
_atom_site_fract_z
O1	O	0.083346	-1.196369	-0.117704
O2	O	0.583346	-0.696369	0.382296
O3	O	0.083362	-0.933909	-0.131725
O4	O	0.583362	-0.433909	0.368275
O5	O	0.083356	-1.072150	0.006515
O6	O	0.583356	-0.572150	0.506515
O7	O	0.083351	-1.058128	-0.255944
O8	O	0.583351	-0.558128	0.244056
O9	O	-0.083491	-1.072130	0.006519
O10	O	0.416509	-0.572130	0.506519
O11	O	-0.083485	-0.933889	-0.131722
O12	O	0.416515	-0.433889	0.368278
O13	O	-0.083501	-1.196349	-0.117700
O14	O	0.416499	-0.696349	0.382300
Cu15	Cu	-0.098728	-1.065117	-0.124711
Cu16	Cu	0.401272	-0.565117	0.375289
Cu17	Cu	0.098588	-1.065141	-0.124715
Cu18	Cu	0.598588	-0.565141	0.375285
O19	O	-0.083496	-1.058108	-0.255941
O20	O	0.416504	-0.558108	0.244059
C21	C	-0.000060	-0.900311	-0.131088
C22	C	0.499940	-0.400311	0.368912
C23	C	-0.000053	-0.800227	-0.129184
C24	C	0.499947	-0.300227	0.370816
N25	N	-0.237509	-1.065107	-0.124708
N26	N	0.262491	-0.565107	0.375292
C27	C	-0.000064	-1.071504	0.040106
C28	C	0.499936	-0.571504	0.540106
C29	C	-0.000055	-1.069601	0.140189
C30	C	0.499945	-0.569601	0.640189
C31	C	-0.710130	-1.003925	-0.185903
C32	C	-0.210130	-0.503925	0.314097
C33	C	-0.710103	-1.126381	-0.063519
C34	C	-0.210103	-0.626381	0.436481
C35	C	-0.605084	-1.126371	-0.063516
C36	C	-0.105084	-0.626371	0.436484
C37	C	-0.552584	-1.065138	-0.124709
C38	C	-0.052584	-0.565138	0.375291
C39	C	-0.605102	-1.003915	-0.185904
C40	C	-0.105102	-0.503915	0.314096
C41	C	-0.552559	-1.187598	-0.002328
C42	C	-0.052559	-0.687598	0.497672
C43	C	-0.447534	-1.187591	-0.002323
C44	C	0.052466	-0.687591	0.497677
C45	C	-0.395031	-1.126353	-0.063512
C46	C	0.104969	-0.626353	0.436488
C47	C	-0.447556	-1.065127	-0.124710
C48	C	0.052444	-0.565127	0.375290
C49	C	-0.395055	-1.003895	-0.185902
C50	C	0.104945	-0.503895	0.314098
C51	C	-0.447578	-0.942664	-0.247096
C52	C	0.052422	-0.442664	0.252904
C53	C	-0.552599	-0.942677	-0.247093
C54	C	-0.052599	-0.442677	0.252907
C55	C	-0.290010	-1.126340	-0.063515
C56	C	0.209990	-0.626340	0.436485
C57	C	-0.290027	-1.003884	-0.185903
C58	C	0.209973	-0.503884	0.314097
N59	N	0.237370	-1.065158	-0.124711
N60	N	0.737370	-0.565158	0.375289
C61	C	-0.000078	-1.229947	-0.118337
C62	C	0.499922	-0.729947	0.381663
C63	C	-0.000078	-1.330031	-0.120241
C64	C	0.499922	-0.830031	0.379759
C65	C	-0.000074	-0.387693	-0.039019
C66	C	0.499926	0.112307	0.460981
C67	C	-0.000076	-0.366412	-0.203251
C68	C	0.499924	0.133588	0.296749
C69	C	-0.000073	-0.460446	-0.205042
C70	C	0.499927	0.039554	0.294958
C71	C	-0.000069	-0.518108	-0.123819
C72	C	0.499931	-0.018108	0.376181
C73	C	-0.000067	-0.481736	-0.040806
C74	C	0.499933	0.018264	0.459194
C75	C	-0.000064	-0.496825	-0.288053
C76	C	0.499936	0.003175	0.211947
C77	C	-0.000059	-0.590864	-0.289846
C78	C	0.499941	-0.090864	0.210154
C79	C	-0.000062	-0.648528	-0.208623
C80	C	0.499938	-0.148528	0.291377
C81	C	-0.000062	-0.612150	-0.125607
C82	C	0.499938	-0.112150	0.374393
C83	C	-0.000058	-0.669812	-0.044384
C84	C	0.499942	-0.169812	0.455616
C85	C	-0.000065	-0.633437	0.038633
C86	C	0.499935	-0.133437	0.538633
C87	C	-0.000070	-0.539399	0.040417
C88	C	0.499930	-0.039399	0.540417
C89	C	-0.000057	-0.742565	-0.210407
C90	C	0.499943	-0.242565	0.289593
C91	C	-0.000052	-0.763855	-0.046172
C92	C	0.499948	-0.263855	0.453828
C93	C	-0.000073	-1.058754	-0.289531
C94	C	0.499927	-0.558754	0.210469
C95	C	-0.000075	-1.060657	-0.389615
C96	C	0.499925	-0.560657	0.110385
C97	C	-0.000069	-0.979435	0.552723
C98	C	0.499931	-0.479435	1.052723
C99	C	-0.000079	-1.143668	0.574004
C100	C	0.499921	-0.643668	1.074004
C101	C	-0.000073	-1.145458	0.479971
C102	C	0.499927	-0.645458	0.979971
C103	C	-0.000067	-1.064235	0.422309
C104	C	0.499933	-0.564235	0.922309
C105	C	-0.000066	-0.981223	0.458680
C106	C	0.499934	-0.481223	0.958680
C107	C	-0.000084	-1.228469	0.443591
C108	C	0.499916	-0.728469	0.943591
C109	C	-0.000079	-1.230262	0.349552
C110	C	0.499921	-0.730262	0.849552
C111	C	-0.000066	-1.149039	0.291889
C112	C	0.499934	-0.649039	0.791889
C113	C	-0.000064	-1.066023	0.328266
C114	C	0.499936	-0.566023	0.828266
C115	C	-0.000058	-0.984800	0.270604
C116	C	0.499942	-0.484800	0.770604
C117	C	-0.000049	-0.901783	0.306979
C118	C	0.499951	-0.401783	0.806979
C119	C	-0.000053	-0.899999	0.401017
C120	C	0.499947	-0.399999	0.901017
C121	C	-0.000062	-1.150823	0.197851
C122	C	0.499938	-0.650823	0.697851
C123	C	-0.000055	-0.986588	0.176561
C124	C	0.499945	-0.486588	0.676561
H125	H	-0.404820	-0.892811	-0.296924
H126	H	0.095180	-0.392811	0.203076
O127	O	-0.000054	-0.898977	0.114376
O128	O	0.499946	-0.398977	0.614376
H129	H	0.067952	-0.895865	0.071026
H130	H	0.567952	-0.395865	0.571026
O131	O	-0.000082	-1.319796	0.310319
O132	O	0.499918	-0.819796	0.810319
H133	H	0.067923	-1.324538	0.267984
H134	H	0.567923	-0.824538	0.767984
H135	H	-0.595308	-1.237457	0.047489
H136	H	-0.095308	-0.737457	0.547489
H137	H	-0.000052	-0.810798	0.019971
H138	H	0.499948	-0.310798	0.519971
H139	H	-0.595370	-0.892826	-0.296916
H140	H	-0.095370	-0.392826	0.203084
O141	O	-0.000054	-0.814180	0.244782
O142	O	0.499946	-0.314180	0.744782
H143	H	0.067949	-0.774461	0.257722
H144	H	0.567949	-0.274461	0.757722
H145	H	-0.000076	-1.218414	0.168238
H146	H	0.499924	-0.718414	0.668238
H147	H	-0.752852	-1.176239	-0.013702
H148	H	-0.252852	-0.676239	0.486298
H149	H	-0.000100	-0.509774	0.108005
H150	H	0.499900	-0.009774	0.608005
H151	H	-0.000046	-0.832411	0.430643
H152	H	0.499954	-0.332411	0.930643
H153	H	-0.000092	-1.209795	0.620958
H154	H	0.499908	-0.709795	1.120958
O155	O	-0.000105	-1.316070	0.505778
O156	O	0.499895	-0.816070	1.005778
H157	H	-0.000098	-1.300878	0.577279
H158	H	0.499902	-0.800878	1.077279
H159	H	-0.247288	-0.954018	-0.235731
H160	H	0.252712	-0.454018	0.264269
H161	H	-0.000055	-0.680397	0.104764
H162	H	0.499945	-0.180397	0.604764
O163	O	-0.766767	-0.937889	-0.251909
O164	O	-0.266767	-0.437889	0.248091
H165	H	-0.848617	-0.948182	-0.241636
H166	H	-0.348617	-0.448182	0.258364
O167	O	-0.000083	-0.348470	0.050520
O168	O	0.499917	0.151530	0.550520
H169	H	-0.000085	-0.273392	0.038124
H170	H	0.499915	0.226608	0.538124
H171	H	-0.000058	-0.911844	0.582344
H172	H	0.499942	-0.411844	1.082344
H173	H	-0.247251	-1.176197	-0.013696
H174	H	0.252749	-0.676197	0.486304
O175	O	-0.390885	-1.253618	0.063684
O176	O	0.109115	-0.753618	0.563684
H177	H	-0.445038	-1.296192	0.106239
H178	H	0.054962	-0.796192	0.606239
O179	O	-0.000091	-0.304227	-0.290854
O180	O	0.499909	0.195773	0.209146
H181	H	-0.000103	-0.232726	-0.275665
H182	H	0.499897	0.267274	0.224335
H183	H	-0.000057	-0.449870	-0.354180
H184	H	0.499943	0.050130	0.145820
O185	O	-0.000076	-0.630098	-0.379379
O186	O	0.499924	-0.130098	0.120621
H187	H	-0.000091	-0.574202	-0.435557
H188	H	0.499909	-0.074202	0.064443
H189	H	-0.000053	-0.772178	-0.277998
H190	H	0.499947	-0.272178	0.222002
