data_functionalizedCrystal
_audit_creation_method	'MofGen! by Chris Wilmer'
_symmetry_space_group_name_H-M	'P1'
_symmetry_Int_Tables_number	1
_symmetry_cell_setting	triclinic
loop_
_symmetry_equiv_pos_as_xyz
  x,y,z
_cell_length_a	10.540510
_cell_length_b	10.540539
_cell_length_c	16.176319
_cell_angle_alpha	90.003701
_cell_angle_beta	89.991929
_cell_angle_gamma	95.480599
loop_
_atom_site_label
_atom_site_type_symbol
_atom_site_fract_x
_atom_site_fract_y
_atom_site_fract_z
O1	O	1.685915	-0.178723	-0.068746
O2	O	1.316497	-0.195619	-0.068746
O3	O	1.509634	-0.002464	-0.068746
O4	O	1.492778	-0.371878	-0.068745
O5	O	1.509606	-0.002452	0.068747
O6	O	1.316469	-0.195607	0.068747
O7	O	1.685886	-0.178711	0.068747
Cu8	Cu	1.501175	-0.187158	0.081302
Cu9	Cu	1.501209	-0.187172	-0.081300
O10	O	1.492750	-0.371866	0.068748
C11	C	1.269179	-0.194354	0.000001
C12	C	1.128229	-0.190587	0.000000
C13	C	0.910774	-0.324771	-0.000315
C14	C	1.057370	-0.328789	-0.000000
C15	C	1.083453	-0.119834	0.078514
C16	C	0.936692	-0.116795	0.078574
C17	C	0.936919	-0.113930	-0.077781
C18	C	1.083260	-0.120485	-0.078814
C19	C	1.494028	-0.419175	0.000002
C20	C	1.497810	-0.560123	0.000002
C21	C	1.642729	-0.743534	-0.000316
C22	C	1.638895	-0.596917	0.000000
C23	C	1.429897	-0.621789	0.078515
C24	C	1.434712	-0.768333	0.078574
C25	C	1.431875	-0.768849	-0.077782
C26	C	1.430576	-0.621867	-0.078813
C27	C	1.733204	-0.179976	-0.000001
C28	C	1.874154	-0.183743	-0.000006
C29	C	1.508356	0.044845	-0.000002
C30	C	1.504574	0.185793	-0.000008
N31	N	1.501160	-0.187147	0.195667
C32	C	1.586707	-0.101654	0.238931
C33	C	1.586713	-0.101653	0.325478
C34	C	1.501176	-0.187153	0.368759
C35	C	1.415620	-0.272650	0.325489
C36	C	1.415610	-0.272644	0.238944
C37	C	1.415660	-0.272676	0.674518
C38	C	1.415680	-0.272678	0.761069
C39	C	1.586763	-0.101685	0.761052
C40	C	1.586752	-0.101679	0.674506
C41	C	1.501192	-0.187171	0.631244
C42	C	1.501186	-0.187169	0.537399
C43	C	1.501188	-0.187161	0.462602
N44	N	1.501221	-0.187178	0.804335
H45	H	0.894383	-0.157518	-0.137290
H46	H	1.345947	-0.342259	0.203719
N47	N	1.679045	-0.009472	0.807716
H48	H	1.630044	0.047208	0.843634
H49	H	1.733212	0.044598	0.767111
N50	N	1.709716	-0.540469	-0.074534
H51	H	1.668055	-0.577278	-0.126594
H52	H	1.801173	-0.561432	-0.072395
N53	N	1.323352	-0.364861	0.372167
H54	H	1.336340	-0.351896	0.433559
H55	H	1.338822	-0.455059	0.357029
N56	N	1.716572	-0.781381	-0.074906
H57	H	1.661194	-0.844713	-0.109222
H58	H	1.794979	-0.821404	-0.056120
H59	H	1.477061	-0.579198	0.136945
H60	H	0.913696	-0.013428	0.082141
H61	H	1.656408	-0.032062	0.639269
N62	N	1.323411	-0.364892	0.807755
H63	H	1.269202	-0.419046	0.767217
H64	H	1.266872	-0.315742	0.843675
N65	N	1.121204	-0.188648	-0.155757
H66	H	1.167330	-0.264622	-0.139639
H67	H	1.179240	-0.128439	-0.190577
H68	H	1.698274	-0.773854	0.055617
N69	N	1.292656	-0.592196	0.082400
H70	H	1.245973	-0.627138	0.031540
H71	H	1.289279	-0.496840	0.084937
H72	H	1.656370	-0.032037	0.360703
N73	N	1.096271	-0.402105	-0.074551
H74	H	1.018124	-0.432101	-0.107915
H75	H	1.140094	-0.478192	-0.055738
H76	H	1.333246	-0.816313	0.082144
N77	N	0.855083	-0.396007	-0.074897
H78	H	0.759162	-0.397326	-0.073745
H79	H	0.879705	-0.486272	-0.073929
N80	N	1.323374	-0.364886	0.627873
H81	H	1.338807	-0.455126	0.642927
H82	H	1.336371	-0.351808	0.566492
N83	N	0.853144	-0.395683	0.073847
H84	H	0.803417	-0.336852	0.107642
H85	H	0.923315	-0.426606	0.108845
H86	H	0.896464	-0.165138	0.137265
H87	H	1.130842	-0.018092	0.081433
H88	H	1.114295	-0.168960	0.136944
N89	N	1.094976	-0.402538	0.074679
H90	H	1.067837	-0.359327	0.126623
H91	H	1.190469	-0.405453	0.075122
H92	H	1.132329	-0.019588	-0.083556
N93	N	0.907587	0.023516	-0.078489
H94	H	0.853912	0.040534	-0.028703
H95	H	0.859427	0.040887	-0.130612
N96	N	1.492364	-0.810635	-0.156615
H97	H	1.567514	-0.859399	-0.142708
H98	H	1.522245	-0.733198	-0.190682
N99	N	1.710136	-0.541585	0.074679
H100	H	1.744148	-0.612455	0.107524
H101	H	1.650474	-0.495798	0.110395
N102	N	1.496300	-0.567642	-0.155756
H103	H	1.569321	-0.503346	-0.139637
H104	H	1.433408	-0.524632	-0.190589
N105	N	1.501143	-0.805697	0.156319
H106	H	1.527033	-0.727005	0.190228
H107	H	1.579448	-0.848780	0.141047
N108	N	1.294325	-0.589801	-0.085101
H109	H	1.274159	-0.534552	-0.036730
H110	H	1.235179	-0.671037	-0.084432
H111	H	1.329962	-0.816066	-0.078302
N112	N	1.678973	-0.009443	0.192251
H113	H	1.733165	0.044718	0.232795
H114	H	1.629867	0.047147	0.156354
