data_functionalizedCrystal
_audit_creation_method	'MofGen! by Chris Wilmer'
_symmetry_space_group_name_H-M	'P1'
_symmetry_Int_Tables_number	1
_symmetry_cell_setting	triclinic
loop_
_symmetry_equiv_pos_as_xyz
  x,y,z
_cell_length_a	17.699083
_cell_length_b	16.109302
_cell_length_c	14.586319
_cell_angle_alpha	89.994552
_cell_angle_beta	89.995320
_cell_angle_gamma	83.372398
loop_
_atom_site_label
_atom_site_type_symbol
_atom_site_fract_x
_atom_site_fract_y
_atom_site_fract_z
O1	O	0.097287	1.102963	-0.076283
O2	O	0.430621	1.436296	0.257050
O3	O	0.763954	1.769630	0.590383
O4	O	0.109394	0.860880	-0.076276
O5	O	0.442727	1.194213	0.257057
O6	O	0.776060	1.527547	0.590390
O7	O	-0.006839	0.988761	-0.076272
O8	O	0.326494	1.322094	0.257061
O9	O	0.659828	1.655428	0.590395
O10	O	0.213520	0.975082	-0.076288
O11	O	0.546853	1.308415	0.257046
O12	O	0.880186	1.641749	0.590379
O13	O	-0.006841	0.988752	0.076209
O14	O	0.326493	1.322085	0.409542
O15	O	0.659826	1.655419	0.742876
O16	O	0.109392	0.860871	0.076204
O17	O	0.442725	1.194205	0.409538
O18	O	0.776058	1.527538	0.742871
O19	O	0.097285	1.102954	0.076197
O20	O	0.430619	1.436287	0.409531
O21	O	0.763952	1.769621	0.742864
Cu22	Cu	0.103339	0.981912	0.090124
Cu23	Cu	0.436672	1.315245	0.423457
Cu24	Cu	0.770005	1.648578	0.756790
Cu25	Cu	0.103341	0.981922	-0.090203
Cu26	Cu	0.436674	1.315256	0.243131
Cu27	Cu	0.770007	1.648589	0.576464
O28	O	0.213518	0.975073	0.076193
O29	O	0.546851	1.308407	0.409526
O30	O	0.880185	1.641740	0.742860
C31	C	0.108902	0.829902	-0.000035
C32	C	0.442236	1.163235	0.333298
C33	C	0.775569	1.496568	0.666632
C34	C	0.107432	0.737609	-0.000032
C35	C	0.440765	1.070942	0.333301
C36	C	0.774098	1.404276	0.666635
C37	C	0.104030	0.525269	0.083076
C38	C	0.437364	0.858602	0.416410
C39	C	0.770697	1.191936	0.749743
C40	C	0.102641	0.438551	0.083073
C41	C	0.435974	0.771885	0.416407
C42	C	0.769307	1.105218	0.749740
C43	C	0.102646	0.438571	-0.083170
C44	C	0.435980	0.771905	0.250164
C45	C	0.769313	1.105238	0.583497
C46	C	0.104031	0.525288	-0.083166
C47	C	0.437364	0.858622	0.250168
C48	C	0.770697	1.191955	0.583501
C49	C	0.104727	0.568634	-0.000040
C50	C	0.438060	0.901968	0.333293
C51	C	0.771393	1.235301	0.666627
C52	C	0.101952	0.395200	-0.000047
C53	C	0.435286	0.728533	0.333286
C54	C	0.768619	1.061866	0.666620
C55	C	0.100445	0.301177	-0.000051
C56	C	0.433779	0.634510	0.333282
C57	C	0.767112	0.967843	0.666616
C58	C	0.106232	0.662664	-0.000036
C59	C	0.439566	0.995997	0.333298
C60	C	0.772899	1.329330	0.666631
C61	C	-0.035038	0.988266	-0.000031
C62	C	0.298296	1.321600	0.333302
C63	C	0.631629	1.654933	0.666635
C64	C	-0.119058	0.986796	-0.000031
C65	C	0.214276	1.320129	0.333302
C66	C	0.547609	1.653463	0.666636
C67	C	-0.167571	1.061859	-0.000032
C68	C	0.165762	1.395193	0.333301
C69	C	0.499095	1.728526	0.666635
C70	C	-0.246517	1.060473	-0.000040
C71	C	0.086817	1.393806	0.333293
C72	C	0.420150	1.727139	0.666627
C73	C	-0.276947	0.984022	-0.000041
C74	C	0.056386	1.317355	0.333293
C75	C	0.389720	1.650689	0.666626
C76	C	-0.228427	0.908953	-0.000042
C77	C	0.104906	1.242286	0.333291
C78	C	0.438240	1.575619	0.666624
C79	C	-0.149483	0.910340	-0.000041
C80	C	0.183850	1.243674	0.333292
C81	C	0.517183	1.577007	0.666626
C82	C	-0.546798	0.903356	-0.000050
C83	C	-0.213465	1.236689	0.333284
C84	C	0.119869	1.570022	0.666617
C85	C	-0.625748	0.901974	-0.000048
C86	C	-0.292415	1.235307	0.333285
C87	C	0.040919	1.568641	0.666618
C88	C	-0.643832	1.053488	-0.000049
C89	C	-0.310498	1.386821	0.333285
C90	C	0.022835	1.720155	0.666618
C91	C	-0.564888	1.054876	-0.000047
C92	C	-0.231554	1.388209	0.333286
C93	C	0.101779	1.721542	0.666619
C94	C	-0.516375	0.979807	-0.000054
C95	C	-0.183042	1.313140	0.333279
C96	C	0.150292	1.646474	0.666613
C97	C	-0.430774	0.981311	-0.000047
C98	C	-0.097440	1.314645	0.333286
C99	C	0.235893	1.647978	0.666620
C100	C	-0.362547	0.982517	-0.000041
C101	C	-0.029213	1.315850	0.333292
C102	C	0.304120	1.649183	0.666626
C103	C	0.241717	0.975568	-0.000049
C104	C	0.575050	1.308901	0.333284
C105	C	0.908383	1.642234	0.666617
C106	C	0.325737	0.977038	-0.000056
C107	C	0.659070	1.310372	0.333277
C108	C	0.992403	1.643705	0.666611
C109	C	0.097777	1.133932	-0.000046
C110	C	0.431110	1.467266	0.333287
C111	C	0.764443	1.800599	0.666621
C112	C	0.099247	1.226225	-0.000055
C113	C	0.432581	1.559559	0.333279
C114	C	0.765914	1.892892	0.666612
N115	N	0.103337	0.981911	0.216955
N116	N	0.436670	1.315244	0.550289
N117	N	0.770003	1.648577	0.883622
N118	N	0.103336	0.981930	-0.217034
N119	N	0.436670	1.315264	0.116299
N120	N	0.770003	1.648597	0.449632
C121	C	0.051886	1.038555	0.451964
C122	C	0.385219	1.371888	0.785297
C123	C	0.718553	1.705221	1.118630
C124	C	0.051884	1.038557	0.547945
C125	C	0.385218	1.371891	0.881278
C126	C	0.718551	1.705224	1.214612
C127	C	0.154789	0.925280	0.547951
C128	C	0.488123	1.258613	0.881284
C129	C	0.821456	1.591947	1.214617
C130	C	0.154787	0.925274	0.451971
C131	C	0.488120	1.258608	0.785304
C132	C	0.821454	1.591941	1.118638
C133	C	0.103336	0.981916	0.403980
C134	C	0.436670	1.315250	0.737314
C135	C	0.770003	1.648583	1.070647
C136	C	0.103337	0.981924	0.595941
C137	C	0.436670	1.315258	0.929274
C138	C	0.770003	1.648591	1.262608
C139	C	0.103335	0.981927	0.700008
C140	C	0.436669	1.315260	1.033341
C141	C	0.770002	1.648593	1.366675
C142	C	0.103337	0.981913	0.299906
C143	C	0.436670	1.315247	0.633240
C144	C	0.770003	1.648580	0.966573
H145	H	-0.142802	1.124114	-0.000026
H146	H	0.190531	1.457448	0.333308
H147	H	0.523865	1.790781	0.666641
N148	N	-0.532069	1.137334	-0.000054
N149	N	-0.198736	1.470667	0.333279
N150	N	0.134597	1.804001	0.666612
H151	H	-0.474697	1.126822	-0.000053
H152	H	-0.141364	1.460156	0.333281
H153	H	0.191969	1.793489	0.666614
H154	H	-0.549821	1.170173	0.056470
H155	H	-0.216488	1.503507	0.389803
H156	H	0.116846	1.836840	0.723137
H157	H	0.104597	0.560559	0.150763
H158	H	0.437930	0.893892	0.484096
H159	H	0.771264	1.227225	0.817429
H160	H	-0.683341	1.114613	-0.000048
H161	H	-0.350007	1.447946	0.333285
H162	H	-0.016674	1.781279	0.666619
N163	N	-0.003599	1.099658	0.599697
N164	N	0.329734	1.432992	0.933030
N165	N	0.663068	1.766325	1.266363
H166	H	-0.057323	1.090206	0.583001
H167	H	0.276011	1.423539	0.916335
H168	H	0.609344	1.756873	1.249668
H169	H	0.005214	1.158611	0.582953
H170	H	0.338547	1.491944	0.916286
H171	H	0.671880	1.825277	1.249619
N172	N	0.101886	0.391779	0.172720
N173	N	0.435219	0.725112	0.506053
N174	N	0.768553	1.058446	0.839387
H175	H	0.102004	0.432476	0.225374
H176	H	0.435337	0.765809	0.558708
H177	H	0.768670	1.099142	0.892041
H178	H	0.148472	0.349358	0.176618
H179	H	0.481805	0.682691	0.509951
H180	H	0.815139	1.016025	0.843284
N181	N	0.101895	0.391820	-0.172823
N182	N	0.435228	0.725153	0.160510
N183	N	0.768561	1.058487	0.493844
H184	H	0.100913	0.330304	-0.160215
H185	H	0.434247	0.663637	0.173118
H186	H	0.767580	0.996971	0.506451
H187	H	0.149028	0.400146	-0.209123
H188	H	0.482362	0.733480	0.124210
H189	H	0.815695	1.066813	0.457544
H190	H	-0.109983	0.849216	-0.000040
H191	H	0.223350	1.182549	0.333293
H192	H	0.556683	1.515882	0.666626
N193	N	-0.658572	0.819513	-0.000044
N194	N	-0.325238	1.152846	0.333289
N195	N	0.008095	1.486180	0.666623
H196	H	-0.615860	0.772167	-0.000049
H197	H	-0.282527	1.105500	0.333285
H198	H	0.050806	1.438834	0.666618
H199	H	-0.690933	0.815645	-0.056568
H200	H	-0.357599	1.148978	0.276766
H201	H	-0.024266	1.482311	0.610099
N202	N	-0.003605	1.099643	0.400200
N203	N	0.329728	1.432976	0.733533
N204	N	0.663061	1.766309	1.066867
H205	H	-0.036200	1.135522	0.445166
H206	H	0.297134	1.468855	0.778499
H207	H	0.630467	1.802189	1.111832
H208	H	-0.037074	1.067881	0.360387
H209	H	0.296259	1.401214	0.693720
H210	H	0.629592	1.734548	1.027054
H211	H	0.104596	0.560598	-0.150853
H212	H	0.437929	0.893931	0.182480
H213	H	0.771262	1.227264	0.515814
H214	H	0.196681	0.879164	0.587034
H215	H	0.530014	1.212498	0.920368
H216	H	0.863347	1.545831	1.253701
N217	N	0.210281	0.864175	0.400217
N218	N	0.543614	1.197508	0.733551
N219	N	0.876948	1.530841	1.066884
H220	H	0.264003	0.873637	0.416907
H221	H	0.597337	1.206971	0.750240
H222	H	0.930670	1.540304	1.083573
H223	H	0.202404	0.872792	0.332149
H224	H	0.535738	1.206125	0.665482
H225	H	0.869071	1.539458	0.998816
N226	N	-0.298843	1.141433	-0.000036
N227	N	0.034490	1.474767	0.333298
N228	N	0.367824	1.808100	0.666631
H229	H	-0.267587	1.190075	-0.000027
H230	H	0.065747	1.523408	0.333307
H231	H	0.399080	1.856741	0.666640
H232	H	-0.331994	1.144147	0.056491
H233	H	0.001339	1.477480	0.389825
H234	H	0.334672	1.810814	0.723158
H235	H	-0.507308	0.842230	-0.000055
H236	H	-0.173974	1.175563	0.333278
H237	H	0.159359	1.508897	0.666612
H238	H	-0.253209	0.846705	-0.000049
H239	H	0.080124	1.180038	0.333285
H240	H	0.413457	1.513372	0.666618
