data_functionalizedCrystal
_audit_creation_method	'MofGen! by Chris Wilmer'
_symmetry_space_group_name_H-M	'P1'
_symmetry_Int_Tables_number	1
_symmetry_cell_setting	triclinic
loop_
_symmetry_equiv_pos_as_xyz
  x,y,z
_cell_length_a	12.759400
_cell_length_b	29.839135
_cell_length_c	12.759393
_cell_angle_alpha	89.975241
_cell_angle_beta	89.969212
_cell_angle_gamma	90.015696
loop_
_atom_site_label
_atom_site_type_symbol
_atom_site_fract_x
_atom_site_fract_y
_atom_site_fract_z
Zn1	Zn	-0.418130	0.686849	-0.594170
Zn2	Zn	-0.593850	0.686806	-0.418493
Zn3	Zn	-0.418193	0.611720	-0.418489
Zn4	Zn	-0.593775	0.611717	-0.594115
O5	O	-0.505987	0.649273	-0.506317
O6	O	-0.441444	0.749710	-0.570890
O7	O	-0.570606	0.676829	-0.271472
O8	O	-0.271164	0.621705	-0.441815
O9	O	-0.570545	0.749679	-0.441822
O10	O	-0.271117	0.676902	-0.570887
O11	O	-0.441552	0.621663	-0.271469
O12	O	-0.441480	0.548852	-0.441762
O13	O	-0.570418	0.621700	-0.741143
O14	O	-0.570479	0.548850	-0.570793
O15	O	-0.441372	0.676899	-0.741184
O16	O	-0.740861	0.676826	-0.441769
O17	O	-0.740806	0.621658	-0.570797
C18	C	-0.505979	0.532550	-0.506272
C19	C	-0.506001	0.482616	-0.506278
C20	C	-0.778954	0.649249	-0.506300
C21	C	-0.895731	0.649280	-0.506328
C22	C	-0.438866	0.172986	-0.573622
C23	C	-0.438873	-0.014687	-0.573652
O24	O	-0.381769	-0.038941	-0.630860
N25	N	-0.505988	-0.038169	-0.506355
C26	C	-0.573101	-0.014730	-0.439042
O27	O	-0.630179	-0.039010	-0.381795
C28	C	-0.573088	0.172942	-0.439007
C29	C	-0.505976	0.196422	-0.506316
C30	C	-0.371759	0.196466	-0.640924
C31	C	-0.371762	0.243381	-0.640920
C32	C	-0.438872	0.266817	-0.573614
C33	C	-0.505979	0.243337	-0.506312
C34	C	-0.640194	0.196380	-0.371689
C35	C	-0.640183	0.243301	-0.371685
C36	C	-0.573072	0.266781	-0.438993
C37	C	-0.573092	0.313688	-0.439001
N38	N	-0.505977	0.337170	-0.506298
C39	C	-0.438867	0.313735	-0.573604
C40	C	-0.573105	-0.113261	-0.439066
C41	C	-0.573109	-0.160179	-0.439076
C42	C	-0.438880	-0.160132	-0.573685
C43	C	-0.438881	-0.113214	-0.573679
C44	C	-0.505990	-0.089779	-0.506362
C45	C	-0.438879	0.412260	-0.573591
C46	C	-0.438891	0.459180	-0.573584
C47	C	-0.573116	0.459130	-0.438971
C48	C	-0.573108	0.412214	-0.438982
C49	C	-0.505981	0.388781	-0.506295
O50	O	-0.630158	0.337971	-0.381814
O51	O	-0.381781	0.338022	-0.630826
C52	C	-0.438863	0.126070	-0.573626
C53	C	-0.505970	0.102591	-0.506324
C54	C	-0.573080	0.126026	-0.439018
C55	C	-0.505975	0.055673	-0.506334
C56	C	-0.438865	0.032237	-0.573640
C57	C	-0.371750	0.055719	-0.640936
C58	C	-0.371753	0.102635	-0.640932
C59	C	-0.640195	0.102544	-0.371721
C60	C	-0.640187	0.055629	-0.371732
C61	C	-0.573077	0.032193	-0.439038
C62	C	-0.950489	0.678007	-0.573591
C63	C	-1.060213	0.678028	-0.573616
C64	C	-1.060411	0.620594	-0.439108
C65	C	-0.950689	0.620571	-0.439088
C66	C	-0.950375	0.711168	-0.651245
C67	C	-1.060099	0.711188	-0.651271
C68	C	-0.231954	0.649309	-0.506356
C69	C	-0.115177	0.649324	-0.506373
C70	C	-0.505879	0.649304	-0.780350
C71	C	-0.505833	0.649317	-0.897127
C72	C	-0.505996	0.766451	-0.506362
C73	C	-0.505999	0.816386	-0.506382
C74	C	-0.438596	0.620613	-1.061720
C75	C	-0.438625	0.620602	-0.951996
C76	C	-0.573009	0.678049	-0.951988
C77	C	-0.572973	0.678062	-1.061710
C78	C	-0.361014	0.587445	-1.061724
C79	C	-0.361044	0.587434	-0.951999
C80	C	-0.506018	0.649268	-0.233349
C81	C	-0.505768	0.649341	-0.116573
H82	H	-0.384239	0.478295	-0.628398
O83	O	-0.399595	0.543665	-1.106784
H84	H	-0.469987	0.549930	-1.155714
O85	O	-0.891623	0.589589	-0.366539
H86	H	-0.948275	0.569635	-0.319779
H87	H	-0.384215	0.393187	-0.628400
H88	H	-1.105172	0.597220	-0.384365
H89	H	-0.920558	0.701825	-0.732590
O90	O	-0.299353	0.268700	-0.713500
H91	H	-0.317452	0.259706	-0.795929
O92	O	-1.099491	0.757292	-0.622527
H93	H	-1.186481	0.757281	-0.622584
H94	H	-0.317110	0.036630	-0.695743
H95	H	-0.283757	0.599902	-0.917991
H96	H	-0.627662	0.701459	-1.106368
H97	H	-0.916305	0.744218	-0.622165
H98	H	-0.627724	0.701432	-0.907305
O99	O	-0.253249	0.599832	-1.101229
H100	H	-0.221681	0.572011	-1.149557
H101	H	-0.382837	0.552632	-0.922203
H102	H	-1.094096	0.698707	-0.728539
O103	O	-0.712581	0.030309	-0.299127
H104	H	-0.701317	-0.006254	-0.310432
H105	H	-0.317104	0.177389	-0.695733
H106	H	-0.384231	-0.094100	-0.628486
H107	H	-0.627770	-0.179292	-0.384278
O108	O	-0.366483	-0.185413	-0.646272
H109	H	-0.377760	-0.221981	-0.634955
O110	O	-0.712578	0.127818	-0.299118
H111	H	-0.795054	0.118806	-0.317007
H112	H	-0.627756	-0.094184	-0.384246
O113	O	-0.712564	0.171062	-0.299077
H114	H	-0.759208	0.195248	-0.252267
H115	H	-0.694831	0.262379	-0.316864
H116	H	-0.627768	0.393096	-0.384186
H117	H	-0.317103	0.121748	-0.695741
O118	O	-0.645488	0.484410	-0.366368
H119	H	-0.634196	0.520979	-0.377668
