data_functionalizedCrystal
_audit_creation_method	'MofGen! by Chris Wilmer'
_symmetry_space_group_name_H-M	'P1'
_symmetry_Int_Tables_number	1
_symmetry_cell_setting	triclinic
loop_
_symmetry_equiv_pos_as_xyz
  x,y,z
_cell_length_a	13.032831
_cell_length_b	15.297327
_cell_length_c	13.033109
_cell_angle_alpha	107.902170
_cell_angle_beta	76.665514
_cell_angle_gamma	93.742008
loop_
_atom_site_label
_atom_site_type_symbol
_atom_site_fract_x
_atom_site_fract_y
_atom_site_fract_z
Zn1	Zn	1.587185	-0.634181	-0.919127
Zn2	Zn	1.541562	-0.763090	-0.764422
Zn3	Zn	1.394822	-0.590304	-0.711221
Zn4	Zn	1.386591	-0.763011	-0.919452
O5	O	1.477540	-0.687646	-0.828556
O6	O	1.726493	-0.669677	-0.920734
O7	O	1.506448	-0.721840	-0.605475
O8	O	1.442878	-0.469897	-0.716400
O9	O	1.692974	-0.764386	-0.807073
O10	O	1.584206	-0.502133	-0.869147
O11	O	1.398639	-0.594895	-0.566389
O12	O	1.248370	-0.594818	-0.716715
O13	O	1.428848	-0.764251	-1.071299
O14	O	1.242322	-0.721705	-0.869701
O15	O	1.576224	-0.669600	-1.071060
O16	O	1.498466	-0.889307	-0.807388
O17	O	1.384610	-0.889249	-0.921288
C18	C	1.207656	-0.653492	-0.787471
C19	C	1.092197	-0.638905	-0.769925
C20	C	1.037731	-0.695259	-0.837713
C21	C	0.918398	-0.680185	-0.819580
C22	C	1.435725	-0.922014	-0.870174
C23	C	1.417935	-1.022293	-0.888029
C24	C	1.605153	-1.305013	-0.701377
C25	C	1.621867	-1.210795	-0.684595
C26	C	1.570886	-1.163665	-0.735453
C27	C	1.503187	-1.210763	-0.803094
C28	C	1.486466	-1.304989	-0.819870
C29	C	1.452198	-1.163641	-0.853946
C30	C	1.384500	-1.210738	-0.921587
C31	C	1.367782	-1.304955	-0.938361
C32	C	1.418763	-1.352085	-0.887504
C33	C	1.468919	-1.069414	-0.837170
C34	C	1.350232	-1.069390	-0.955663
C35	C	1.333519	-1.163608	-0.972444
C36	C	1.748478	-0.721935	-0.869801
C37	C	1.863935	-0.736547	-0.887378
C38	C	1.506707	-0.721811	-1.111664
C39	C	1.519136	-0.736370	-1.232307
C40	C	1.519549	-0.452370	-0.786803
C41	C	1.537451	-0.352110	-0.769010
C42	C	1.471336	-0.680051	-1.266755
C43	C	1.484181	-0.695097	-1.391446
C44	C	1.448557	-0.653557	-0.546547
C45	C	1.436374	-0.638770	-0.425889
H46	H	1.050482	-0.579495	-0.698467
O47	O	1.587101	-1.072118	-0.718956
C48	C	1.555331	-1.024768	-0.605267
H49	H	1.557041	-1.073781	-0.555138
H50	H	1.471856	-0.996919	-0.586816
C51	C	1.628979	-0.884255	-0.635291
C52	C	1.631087	-0.944452	-0.573721
H53	H	1.675705	-0.834710	-0.615831
H54	H	1.650380	-0.916155	-0.711886
H55	H	1.559413	-0.861058	-0.619908
H56	H	1.700649	-0.967657	-0.589114
H57	H	1.609700	-0.912554	-0.497127
H58	H	1.312644	-1.343297	-0.993424
O59	O	1.411082	-0.609343	-1.191713
C60	C	1.328099	-0.644355	-1.125075
H61	H	1.350803	-0.715330	-1.125921
H62	H	1.253812	-0.649748	-1.158726
C63	C	1.279245	-0.492267	-1.004643
C64	C	1.307135	-0.579437	-1.005674
H65	H	1.266310	-0.452221	-0.930992
H66	H	1.335150	-0.468677	-1.049540
H67	H	1.217343	-0.496774	-1.032691
H68	H	1.369044	-0.574931	-0.977640
H69	H	1.251240	-0.603024	-0.960769
H70	H	1.405161	-1.428807	-0.901166
O71	O	0.913826	-0.807321	-0.972690
C72	C	0.992953	-0.772396	-1.043279
H73	H	1.017362	-0.701407	-0.995417
H74	H	0.961251	-0.767061	-1.115692
C75	C	1.059261	-0.924539	-1.146005
C76	C	1.089247	-0.837353	-1.087218
H77	H	1.118658	-0.964609	-1.173114
H78	H	1.005949	-0.948070	-1.098451
H79	H	1.032842	-0.920080	-1.206342
H80	H	1.115653	-0.841811	-1.026875
H81	H	1.142566	-0.813825	-1.134763
O82	O	1.267622	-1.209238	-1.038052
C83	C	1.165719	-1.170350	-0.994393
H84	H	1.171429	-1.096649	-0.940167
H85	H	1.115607	-1.212264	-0.942690
C86	C	1.107372	-1.261329	-1.156397
C87	C	1.114386	-1.170805	-1.089803
H88	H	1.075705	-1.261614	-1.215249
H89	H	1.176025	-1.287532	-1.185810
H90	H	1.065614	-1.296248	-1.113299
H91	H	1.156154	-1.135891	-1.132898
H92	H	1.045739	-1.144597	-1.060400
H93	H	1.534617	-0.754458	-1.454264
H94	H	1.524040	-1.031076	-0.782095
H95	H	1.385935	-0.579411	-1.363072
H96	H	1.676985	-1.172451	-0.629521
O97	O	1.579448	-0.807073	-1.307283
C98	C	1.662399	-0.772062	-1.373958
H99	H	1.677993	-0.697728	-1.328104
H100	H	1.639622	-0.775182	-1.454372
C101	C	1.743561	-0.921317	-1.456425
C102	C	1.762719	-0.830020	-1.400102
H103	H	1.805442	-0.957069	-1.472557
H104	H	1.687673	-0.944905	-1.411508
H105	H	1.724578	-0.923904	-1.523430
H106	H	1.781689	-0.827433	-1.333092
H107	H	1.818613	-0.806432	-1.445008
O108	O	1.654754	-1.350875	-0.652138
C109	C	1.718482	-1.421289	-0.733861
H110	H	1.738739	-1.403989	-0.815262
H111	H	1.674037	-1.489089	-0.745413
C112	C	1.795891	-1.451237	-0.597587
C113	C	1.820778	-1.429985	-0.697563
H114	H	1.858990	-1.456605	-0.575196
H115	H	1.752953	-1.403800	-0.542528
H116	H	1.758851	-1.507735	-0.607227
H117	H	1.857805	-1.373483	-0.687919
H118	H	1.863725	-1.477413	-0.752620
O119	O	1.087631	-0.766029	-0.923017
C120	C	1.166761	-0.731105	-0.993603
H121	H	1.191163	-0.660113	-0.945742
H122	H	1.135064	-0.725775	-1.066022
C123	C	1.233079	-0.883247	-1.096317
C124	C	1.263058	-0.796057	-1.037531
H125	H	1.292479	-0.923313	-1.123419
H126	H	1.179766	-0.906777	-1.048765
H127	H	1.206665	-0.878792	-1.156659
H128	H	1.289459	-0.800511	-0.977184
H129	H	1.316378	-0.772529	-1.085075
H130	H	0.876688	-0.620771	-0.748118
H131	H	1.308716	-1.031017	-0.997073
