data_functionalizedCrystal
_audit_creation_method	'MofGen! by Chris Wilmer'
_symmetry_space_group_name_H-M	'P1'
_symmetry_Int_Tables_number	1
_symmetry_cell_setting	triclinic
loop_
_symmetry_equiv_pos_as_xyz
  x,y,z
_cell_length_a	27.732048
_cell_length_b	27.732046
_cell_length_c	26.210047
_cell_angle_alpha	90.001831
_cell_angle_beta	89.996535
_cell_angle_gamma	97.357683
loop_
_atom_site_label
_atom_site_type_symbol
_atom_site_fract_x
_atom_site_fract_y
_atom_site_fract_z
O1	O	0.640931	-0.057510	-0.042370
O2	O	0.500137	-0.066256	-0.042387
O3	O	0.574907	0.008514	-0.042366
O4	O	0.566161	-0.132280	-0.042390
O5	O	0.574893	0.008502	0.042492
O6	O	0.500123	-0.066267	0.042472
O7	O	0.640916	-0.057522	0.042488
Cu8	Cu	0.570518	-0.061896	0.050228
Cu9	Cu	0.570535	-0.061882	-0.050127
O10	O	0.566146	-0.132291	0.042468
C11	C	0.482123	-0.066078	0.000041
C12	C	0.428468	-0.065525	0.000035
C13	C	0.089653	-0.106229	0.000050
C14	C	-0.112007	-0.104178	0.000055
O15	O	-0.143263	-0.141399	0.000071
N16	N	-0.131130	-0.059843	0.000062
C17	C	-0.099835	-0.016017	0.000070
O18	O	-0.120728	0.021740	0.000081
C19	C	0.101823	-0.018069	0.000069
C20	C	0.120944	-0.062407	0.000057
C21	C	0.108774	-0.150563	0.000039
C22	C	0.159186	-0.151076	0.000035
C23	C	0.190477	-0.107253	0.000042
C24	C	0.171356	-0.062919	0.000053
C25	C	0.133117	0.025757	0.000081
C26	C	0.183535	0.025240	0.000082
C27	C	0.202655	-0.019098	0.000071
C28	C	0.253059	-0.019609	0.000056
N29	N	0.272182	-0.063944	0.000050
C30	C	0.240891	-0.107766	0.000043
C31	C	-0.205709	-0.014943	0.000070
C32	C	-0.256124	-0.014430	0.000069
C33	C	-0.268292	-0.102591	0.000055
C34	C	-0.217876	-0.103104	0.000052
C35	C	-0.186586	-0.059278	0.000063
C36	C	0.346760	-0.108839	0.000034
C37	C	0.397177	-0.109347	0.000028
C38	C	0.409341	-0.021186	0.000045
C39	C	0.358928	-0.020678	0.000048
C40	C	0.327639	-0.064508	0.000044
O41	O	0.284343	0.017592	0.000046
O42	O	0.261794	-0.145518	0.000043
C43	C	0.039241	-0.105717	0.000054
C44	C	0.020120	-0.061382	0.000065
C45	C	0.051411	-0.017560	0.000072
C46	C	-0.030294	-0.060869	0.000065
C47	C	-0.061585	-0.104691	0.000057
C48	C	-0.042462	-0.149027	0.000051
C49	C	0.007950	-0.149539	0.000047
C50	C	0.032287	0.026775	0.000079
C51	C	-0.018125	0.027284	0.000083
C52	C	-0.049416	-0.016538	0.000075
C53	C	0.574717	0.026515	0.000065
C54	C	0.574164	0.080170	0.000070
C55	C	0.658931	-0.057699	0.000060
C56	C	0.712585	-0.058252	0.000062
N57	N	0.570510	-0.061905	0.120812
C58	C	0.614870	0.418985	0.000057
C59	C	0.612820	0.620645	0.000055
O60	O	0.650041	0.651901	0.000037
N61	N	0.568485	0.639769	0.000050
C62	C	0.524659	0.608474	0.000044
O63	O	0.486902	0.629367	0.000035
C64	C	0.526710	0.406815	0.000042
C65	C	0.571047	0.387695	0.000052
C66	C	0.659204	0.399864	0.000066
C67	C	0.659716	0.349452	0.000069
C68	C	0.615894	0.318161	0.000064
C69	C	0.571559	0.337283	0.000055
C70	C	0.482884	0.375522	0.000032
C71	C	0.483401	0.325104	0.000030
C72	C	0.527739	0.305984	0.000039
C73	C	0.528249	0.255580	0.000053
N74	N	0.572584	0.236456	0.000057
C75	C	0.616406	0.267747	0.000062
C76	C	0.523586	0.714348	0.000045
C77	C	0.523073	0.764763	0.000046
C78	C	0.611234	0.776930	0.000057
C79	C	0.611746	0.726515	0.000059
C80	C	0.567921	0.695225	0.000049
C81	C	0.617478	0.161878	0.000070
C82	C	0.617986	0.111461	0.000075
C83	C	0.529826	0.099298	0.000063
C84	C	0.529317	0.149710	0.000060
C85	C	0.573148	0.180999	0.000062
O86	O	0.491048	0.224296	0.000064
O87	O	0.654158	0.246844	0.000060
C88	C	0.614358	0.469397	0.000054
C89	C	0.570024	0.488519	0.000045
C90	C	0.526201	0.457228	0.000039
C91	C	0.569511	0.538933	0.000046
C92	C	0.613333	0.570224	0.000051
C93	C	0.657668	0.551100	0.000056
C94	C	0.658180	0.500688	0.000059
C95	C	0.481866	0.476352	0.000035
C96	C	0.481358	0.526764	0.000032
C97	C	0.525180	0.558055	0.000038
C98	C	0.566339	0.849708	0.000042
C99	C	0.566896	0.796054	0.000052
N100	N	0.570548	-0.061869	-0.120710
C101	C	0.603640	-0.028781	0.473335
C102	C	0.603651	-0.028774	0.686993
O103	O	0.631801	-0.000614	0.714623
N104	N	0.570538	-0.061871	0.713706
C105	C	0.537418	-0.094970	0.687000
O106	O	0.509251	-0.123117	0.714623
C107	C	0.537406	-0.094974	0.473343
C108	C	0.570524	-0.061878	0.446633
C109	C	0.636755	0.004312	0.446625
C110	C	0.636754	0.004308	0.393214
C111	C	0.603638	-0.028789	0.366512
C112	C	0.570522	-0.061882	0.393222
C113	C	0.504284	-0.128070	0.446638
C114	C	0.504283	-0.128067	0.393220
C115	C	0.537401	-0.094971	0.366511
C116	C	0.537405	-0.094983	0.313108
N117	N	0.570518	-0.061886	0.286396
C118	C	0.603634	-0.028789	0.313098
C119	C	0.537428	-0.094966	0.799174
C120	C	0.537431	-0.094966	0.852588
C121	C	0.603664	-0.028770	0.852577
C122	C	0.603662	-0.028773	0.799162
C123	C	0.570540	-0.061869	0.772461
C124	C	0.603629	-0.028800	0.200930
C125	C	0.603626	-0.028808	0.147514
C126	C	0.537393	-0.095002	0.147529
C127	C	0.537397	-0.094996	0.200940
C128	C	0.570517	-0.061891	0.227640
O129	O	0.509266	-0.123125	0.285446
O130	O	0.631790	-0.000639	0.285466
C131	C	0.603641	-0.028777	0.526746
C132	C	0.570526	-0.061871	0.553456
C133	C	0.537410	-0.094968	0.526754
C134	C	0.570530	-0.061870	0.606870
C135	C	0.603646	-0.028773	0.633572
C136	C	0.636759	0.004323	0.606860
C137	C	0.636758	0.004320	0.553448
C138	C	0.504297	-0.128064	0.553466
C139	C	0.504301	-0.128058	0.606878
C140	C	0.537418	-0.094961	0.633580
H141	H	0.174749	-0.187180	0.000025
N142	N	0.475254	0.785387	0.000040
H143	H	0.473068	0.806032	0.031497
H144	H	0.447599	0.757885	0.000016
H145	H	0.434827	0.014492	0.000049
H146	H	0.663720	0.031259	0.371470
H147	H	0.663723	0.031266	0.468361
H148	H	0.630597	-0.001858	0.125768
N149	N	-0.302036	-0.149864	0.000073
H150	H	-0.295928	-0.169236	-0.031378
H151	H	-0.336862	-0.142779	0.000102
N152	N	0.482558	0.065549	0.000054
H153	H	0.463191	0.071663	0.031507
H154	H	0.489648	0.030724	0.000036
H155	H	0.446180	0.450879	0.000030
H156	H	0.083301	-0.186251	0.000035
H157	H	-0.271687	0.021674	0.000071
H158	H	0.694285	0.485125	0.000066
N159	N	0.417803	-0.157169	0.000019
H160	H	0.438448	-0.159344	-0.031440
H161	H	0.390303	-0.184825	0.000037
N162	N	0.501708	-0.130669	0.770375
H163	H	0.480441	-0.112348	0.748217
H164	H	0.480768	-0.151626	0.795436
N165	N	0.476315	0.680601	0.000043
H166	H	0.474561	0.659413	-0.031414
H167	H	0.448182	0.700404	0.000062
N168	N	0.501712	-0.130664	0.881390
H169	H	0.480451	-0.112337	0.903554
H170	H	0.520054	-0.151934	0.903520
N171	N	0.707539	0.328834	0.000064
H172	H	0.701221	0.292149	0.000061
H173	H	0.726697	0.340305	0.031521
H174	H	0.023513	-0.185643	0.000038
H175	H	-0.180236	0.020747	0.000079
H176	H	0.477329	-0.155015	0.531730
H177	H	-0.067948	-0.184708	0.000043
H178	H	-0.033688	0.063392	0.000088
N179	N	0.436126	0.291362	0.000029
H180	H	0.434368	0.270178	0.031488
H181	H	0.434400	0.270201	-0.031446
H182	H	0.694892	0.425337	0.000068
N183	N	0.664749	0.195624	0.000075
H184	H	0.684117	0.189507	-0.031377
H185	H	0.684061	0.189492	0.031558
H186	H	0.057760	0.062462	0.000086
N187	N	0.313025	-0.156116	0.000027
H188	H	0.291837	-0.157870	-0.031428
H189	H	0.291868	-0.157854	0.031506
H190	H	0.646916	0.802416	0.000061
N191	N	0.468577	-0.163755	0.635683
H192	H	0.447598	-0.184718	0.610658
H193	H	0.447350	-0.145388	0.657842
N194	N	-0.197255	-0.150924	0.000037
H195	H	-0.224732	-0.178605	0.000031
H196	H	-0.176607	-0.153066	0.031495
H197	H	0.446780	0.391081	0.000021
H198	H	0.654093	0.095896	0.000084
H199	H	0.647850	0.710951	0.000066
H200	H	0.117559	0.061861	0.000091
H201	H	0.493214	0.165279	0.000066
H202	H	0.693350	0.576586	0.000062
N203	N	0.639383	0.006926	0.881385
H204	H	0.673647	0.001595	0.872088
H205	H	0.634313	0.001879	0.919264
N206	N	0.217284	0.072510	0.000098
H207	H	0.197517	0.100672	0.000106
H208	H	0.238468	0.074226	-0.031360
H209	H	0.445250	0.542327	0.000029
H210	H	0.477310	-0.155018	0.371483
N211	N	0.338302	0.027142	0.000051
H212	H	0.365776	0.054825	0.000053
H213	H	0.317651	0.029272	0.031512
N214	N	0.639353	0.006902	0.229722
H215	H	0.660330	0.027862	0.204690
H216	H	0.660583	-0.011459	0.251880
N217	N	0.639381	0.006923	0.770356
H218	H	0.660360	0.027887	0.795381
H219	H	0.621038	0.028168	0.748198
N220	N	0.501686	-0.130698	0.229752
H221	H	0.480709	-0.151668	0.204730
H222	H	0.480454	-0.112340	0.251914
N223	N	0.468555	-0.163758	0.475438
H224	H	0.447575	-0.184717	0.450409
H225	H	0.447330	-0.145389	0.497595
H226	H	0.510431	-0.121951	0.125780
N227	N	0.672478	0.040015	0.524644
H228	H	0.693454	0.060980	0.549671
H229	H	0.654136	0.061261	0.502484
N230	N	0.672480	0.040019	0.635665
H231	H	0.667452	0.034995	0.673554
H232	H	0.667155	0.074274	0.626331
