data_functionalizedCrystal
_audit_creation_method	'MofGen! by Chris Wilmer'
_symmetry_space_group_name_H-M	'P1'
_symmetry_Int_Tables_number	1
_symmetry_cell_setting	triclinic
loop_
_symmetry_equiv_pos_as_xyz
  x,y,z
_cell_length_a	10.540510
_cell_length_b	10.489741
_cell_length_c	9.616153
_cell_angle_alpha	89.998052
_cell_angle_beta	89.992871
_cell_angle_gamma	84.526242
loop_
_atom_site_label
_atom_site_type_symbol
_atom_site_fract_x
_atom_site_fract_y
_atom_site_fract_z
O1	O	1.685936	0.179579	-0.115654
O2	O	1.316520	0.196556	-0.115654
O3	O	1.509634	0.002467	-0.115646
O4	O	1.492822	0.373667	-0.115662
O5	O	1.509607	0.002471	0.115646
O6	O	1.316493	0.196560	0.115637
O7	O	1.685909	0.179583	0.115638
Zn8	Zn	1.501197	0.188072	0.152360
Zn9	Zn	1.501232	0.188067	-0.152376
O10	O	1.492795	0.373671	0.115629
C11	C	1.269203	0.195293	-0.000009
C12	C	1.128252	0.191508	-0.000009
C13	C	0.910813	0.326340	-0.000546
C14	C	1.057409	0.330377	-0.000017
C15	C	1.083469	0.120422	0.132070
C16	C	0.936707	0.117368	0.132172
C17	C	0.936931	0.114471	-0.130849
C18	C	1.083273	0.121058	-0.132587
C19	C	1.508350	-0.045062	-0.000001
C20	C	1.504552	-0.186691	-0.000003
C21	C	1.381679	-0.254803	-0.000014
C22	C	1.439710	-0.346936	0.114025
C23	C	1.439765	-0.346915	-0.114010
C24	C	1.562633	-0.276959	0.114130
C25	C	1.562671	-0.276928	-0.114008
C26	C	1.620791	-0.369034	0.000059
C27	C	1.733226	0.180846	-0.000011
C28	C	1.874176	0.184631	-0.000020
C29	C	1.494078	0.421200	-0.000019
C30	C	1.497877	0.562829	-0.000025
N31	N	1.501182	0.188075	0.360335
N32	N	1.501257	0.188054	-0.360351
C33	C	1.397563	0.291551	0.580700
C34	C	1.397792	0.291938	0.419532
C35	C	1.633911	0.218340	0.418783
C36	C	1.633346	0.219072	0.580001
C37	C	1.473394	0.053994	0.580252
C38	C	1.470347	0.054864	0.419025
H39	H	1.111909	0.172779	-0.230298
O40	O	1.247873	-0.188976	0.000129
H41	H	1.178430	-0.262135	0.001179
O42	O	1.738623	0.121217	0.367988
H43	H	1.831366	0.144763	0.410762
H44	H	1.387708	-0.377934	0.210436
H45	H	1.299171	0.273730	0.380018
H46	H	1.415243	0.390448	0.621194
O47	O	1.631420	-0.236150	0.241990
H48	H	1.633656	-0.130579	0.241024
H49	H	1.378652	0.025187	0.620990
O50	O	1.421524	0.423678	0.368402
H51	H	1.432895	0.487355	0.458828
O52	O	1.754721	-0.434554	0.000134
H53	H	1.805392	-0.406533	0.094888
H54	H	1.130846	0.018189	0.136987
H55	H	1.114318	0.169793	0.230359
H56	H	1.614628	-0.245897	-0.210424
H57	H	1.387770	-0.377869	-0.210430
O58	O	1.266515	0.267833	0.632125
H59	H	1.273882	0.182031	0.700255
O60	O	1.341003	0.024481	0.368435
H61	H	1.351412	-0.065701	0.307369
H62	H	0.913699	0.013502	0.138177
H63	H	0.894400	0.158263	-0.230958
O64	O	1.665621	0.348621	0.629803
H65	H	1.681477	0.410160	0.538738
H66	H	1.712981	0.146726	0.618992
O67	O	1.563746	-0.052072	0.365670
H68	H	1.614270	-0.101206	0.454825
O69	O	0.855246	0.398027	-0.125995
H70	H	0.800916	0.333429	-0.189311
H71	H	1.086772	0.385989	-0.094700
H72	H	0.914765	0.010208	-0.131738
O73	O	1.666905	0.346439	0.365301
H74	H	1.671067	0.344109	0.249984
O75	O	0.853213	0.397600	0.124219
H76	H	0.798605	0.332527	0.186604
O77	O	1.095066	0.404334	0.125705
H78	H	1.008518	0.437357	0.186358
H79	H	1.548997	-0.023039	0.618371
H80	H	1.132330	0.019673	-0.140558
H81	H	0.896485	0.165952	0.230898
