data_functionalizedCrystal
_audit_creation_method	'MofGen! by Chris Wilmer'
_symmetry_space_group_name_H-M	'P1'
_symmetry_Int_Tables_number	1
_symmetry_cell_setting	triclinic
loop_
_symmetry_equiv_pos_as_xyz
  x,y,z
_cell_length_a	6.817900
_cell_length_b	15.866870
_cell_length_c	16.255661
_cell_angle_alpha	112.481265
_cell_angle_beta	103.488922
_cell_angle_gamma	102.655915
loop_
_atom_site_label
_atom_site_type_symbol
_atom_site_fract_x
_atom_site_fract_y
_atom_site_fract_z
V1	V	-4.052302	-0.133532	-0.305528
V2	V	-3.552302	0.366468	0.194472
O3	O	-4.013114	0.005619	-0.257095
O4	O	-3.513114	0.505619	0.242905
O5	O	-4.028858	-0.264004	-0.344425
O6	O	-3.528858	0.235996	0.155575
O7	O	-4.003538	-0.131828	-0.420080
O8	O	-3.503538	0.368172	0.079920
O9	O	-4.038609	-0.127472	-0.180917
O10	O	-3.538609	0.372528	0.319083
V11	V	-4.532744	-0.116847	-0.285644
V12	V	-4.032744	0.383153	0.214356
O13	O	-4.320320	-0.170133	-0.349144
O14	O	-3.820320	0.329867	0.150856
O15	O	-4.714923	-0.080246	-0.242028
O16	O	-4.214923	0.419754	0.257972
O17	O	-4.332981	0.013626	-0.246747
O18	O	-3.832981	0.513626	0.253253
O19	O	-4.689329	-0.255998	-0.334077
O20	O	-4.189329	0.244002	0.165923
O21	O	-4.663834	-0.122906	-0.410255
O22	O	-4.163834	0.377094	0.089745
O23	O	-4.358302	-0.118551	-0.171093
O24	O	-3.858302	0.381449	0.328907
C25	C	-3.879942	-0.295800	-0.350182
C26	C	-3.379942	0.204200	0.149818
C27	C	-3.942057	-0.402465	-0.382749
C28	C	-3.442057	0.097535	0.117251
C29	C	-3.931920	-0.683662	-0.080662
C30	C	-3.431920	-0.183662	0.419338
C31	C	-3.990297	-0.783895	-0.111292
C32	C	-3.490297	-0.283895	0.388708
C33	C	-4.076067	-0.811728	-0.274974
C34	C	-3.576067	-0.311728	0.225026
C35	C	-4.017687	-0.711496	-0.244357
C36	C	-3.517687	-0.211496	0.255643
C37	C	-3.945618	-0.647470	-0.147200
C38	C	-3.445618	-0.147470	0.352800
C39	C	-4.031385	-0.675303	-0.310896
C40	C	-3.531385	-0.175303	0.189104
C41	C	-3.973020	-0.575079	-0.280281
C42	C	-3.473020	-0.075079	0.219719
C43	C	-3.900957	-0.511048	-0.183129
C44	C	-3.400957	-0.011048	0.316871
C45	C	-3.887253	-0.547246	-0.116586
C46	C	-3.387253	-0.047246	0.383414
C47	C	-4.103469	-0.739331	-0.408053
C48	C	-3.603469	-0.239331	0.091947
C49	C	-4.117168	-0.703138	-0.474591
C50	C	-3.617168	-0.203138	0.025409
C51	C	-4.058788	-0.602912	-0.443977
C52	C	-3.558788	-0.102912	0.056023
C53	C	-3.986724	-0.538881	-0.346824
C54	C	-3.486724	-0.038881	0.153176
C55	C	-4.072491	-0.566714	-0.510520
C56	C	-3.572491	-0.066714	-0.010520
C57	C	-4.014126	-0.466491	-0.479906
C58	C	-3.514126	0.033509	0.020094
C59	C	-3.928359	-0.438657	-0.316210
C60	C	-3.428359	0.061343	0.183790
C61	C	-3.847642	-0.127194	-0.446685
C62	C	-3.347642	0.372806	0.053315
C63	C	-3.889220	-0.126665	-0.540600
C64	C	-3.389220	0.373335	-0.040600
C65	C	-3.798563	-0.120335	-0.761444
C66	C	-3.298563	0.379665	-0.261444
C67	C	-3.970636	-0.202032	-0.856407
C68	C	-3.470636	0.297968	-0.356407
C69	C	-3.965414	-0.125671	-0.712539
C70	C	-3.465414	0.374329	-0.212539
C71	C	-3.867453	-0.043038	-0.784922
C72	C	-3.367453	0.456962	-0.284922
C73	C	-4.038997	-0.124707	-0.878622
C74	C	-3.538997	0.375293	-0.378622
C75	C	-4.136983	-0.207441	-0.806294
C76	C	-3.636983	0.292559	-0.306294
C77	C	-4.033723	-0.048376	-0.734772
C78	C	-3.533723	0.451624	-0.234772
C79	C	-4.205937	-0.130096	-0.829722
C80	C	-3.705937	0.369904	-0.329722
C81	C	-3.923020	-0.126227	-0.616863
C82	C	-3.423020	0.373773	-0.116863
C83	C	-4.081410	-0.124158	-0.974299
C84	C	-3.581410	0.375842	-0.474299
C85	C	-4.145241	0.045416	-0.240990
C86	C	-3.645241	0.545416	0.259010
C87	C	-4.062363	0.152080	-0.208429
C88	C	-3.562363	0.652080	0.291571
C89	C	-4.177540	-0.123187	-0.144484
C90	C	-3.677540	0.376813	0.355516
C91	C	-4.115200	-0.123712	-0.050566
C92	C	-3.615200	0.376288	0.449434
H93	H	-3.828535	-0.495111	-0.037470
H94	H	-3.328535	0.004889	0.462530
H95	H	-3.853443	-0.429440	-0.158205
H96	H	-3.353443	0.070560	0.341795
H97	H	-3.869641	-0.386522	-0.237094
H98	H	-3.369641	0.113478	0.262906
H99	H	-3.944413	-0.266995	-0.908759
H100	H	-3.444413	0.233005	-0.408759
H101	H	-3.753906	0.026423	-0.776863
H102	H	-3.253906	0.526423	-0.276863
H103	H	-3.626039	-0.116313	-0.731710
H104	H	-3.126039	0.383687	-0.231710
H105	H	-3.873202	-0.631528	-0.001546
H106	H	-3.373202	-0.131528	0.498454
H107	H	-4.059868	0.016591	-0.682396
H108	H	-3.559868	0.516591	-0.182396
H109	H	-4.250528	-0.276996	-0.814526
H110	H	-3.750528	0.223004	-0.314526
Cl111	Cl	-4.176853	-0.865328	-0.446539
Cl112	Cl	-3.676853	-0.365328	0.053461
H113	H	-4.131196	-0.618859	-0.589626
H114	H	-3.631196	-0.118859	-0.089626
Cl115	Cl	-4.472517	-0.136497	-0.875487
Cl116	Cl	-3.972517	0.363503	-0.375487
H117	H	-4.025313	-0.437024	-0.534089
H118	H	-3.525313	0.062976	-0.034089
Cl119	Cl	-3.973062	-0.829390	-0.027631
Cl120	Cl	-3.473062	-0.329390	0.472369
H121	H	-4.134760	-0.863871	-0.354080
H122	H	-3.634760	-0.363871	0.145920
H123	H	-4.175861	-0.755281	-0.553697
H124	H	-3.675861	-0.255281	-0.053697
