data_functionalizedCrystal
_audit_creation_method	'MofGen! by Chris Wilmer'
_symmetry_space_group_name_H-M	'P1'
_symmetry_Int_Tables_number	1
_symmetry_cell_setting	triclinic
loop_
_symmetry_equiv_pos_as_xyz
  x,y,z
_cell_length_a	16.120530
_cell_length_b	12.645330
_cell_length_c	16.120297
_cell_angle_alpha	92.876762
_cell_angle_beta	90.128140
_cell_angle_gamma	87.113442
loop_
_atom_site_label
_atom_site_type_symbol
_atom_site_fract_x
_atom_site_fract_y
_atom_site_fract_z
Zn1	Zn	1.247482	-0.537081	-0.534595
Zn2	Zn	1.580815	-0.203748	-0.201262
Zn3	Zn	1.914148	0.129586	0.132071
Zn4	Zn	1.254445	-0.705843	-0.395547
Zn5	Zn	1.587779	-0.372509	-0.062214
Zn6	Zn	1.921112	-0.039176	0.271119
Zn7	Zn	1.115471	-0.519167	-0.388512
Zn8	Zn	1.448804	-0.185834	-0.055179
Zn9	Zn	1.782137	0.147500	0.278154
Zn10	Zn	1.108402	-0.704866	-0.527517
Zn11	Zn	1.441735	-0.371533	-0.194183
Zn12	Zn	1.775068	-0.038200	0.139150
O13	O	1.181450	-0.616739	-0.461543
O14	O	1.514783	-0.283406	-0.128210
O15	O	1.848116	0.049927	0.205124
O16	O	1.364772	-0.567373	-0.522057
O17	O	1.698106	-0.234040	-0.188724
O18	O	2.031439	0.099293	0.144610
O19	O	1.241883	-0.673991	-0.278248
O20	O	1.575216	-0.340658	0.055085
O21	O	1.908549	-0.007325	0.388418
O22	O	1.133026	-0.373200	-0.407909
O23	O	1.466359	-0.039867	-0.074575
O24	O	1.799693	0.293467	0.258758
O25	O	1.369888	-0.691362	-0.419899
O26	O	1.703222	-0.358028	-0.086566
O27	O	2.036555	-0.024695	0.246768
O28	O	1.230014	-0.386361	-0.515235
O29	O	1.563347	-0.053028	-0.181902
O30	O	1.896681	0.280305	0.151431
O31	O	1.139779	-0.536842	-0.273080
O32	O	1.473112	-0.203508	0.060254
O33	O	1.806445	0.129825	0.393587
O34	O	0.998166	-0.535895	-0.401045
O35	O	1.331499	-0.202562	-0.067711
O36	O	1.664833	0.130772	0.265622
O37	O	1.120978	-0.689698	-0.644821
O38	O	1.454312	-0.356364	-0.311488
O39	O	1.787645	-0.023031	0.021845
O40	O	0.992972	-0.672327	-0.503171
O41	O	1.326306	-0.338994	-0.169837
O42	O	1.659639	-0.005661	0.163496
O43	O	1.223160	-0.566427	-0.650022
O44	O	1.556493	-0.233093	-0.316689
O45	O	1.889826	0.100240	0.016645
O46	O	1.235028	-0.854056	-0.413035
O47	O	1.568362	-0.520723	-0.079702
O48	O	1.901695	-0.187390	0.253632
O49	O	1.127731	-0.853339	-0.509992
O50	O	1.461064	-0.520006	-0.176659
O51	O	1.794397	-0.186673	0.156674
C52	C	0.965397	-0.602062	-0.450577
C53	C	1.298730	-0.268729	-0.117243
C54	C	1.632063	0.064605	0.216090
C55	C	0.872967	-0.595810	-0.445905
C56	C	1.206300	-0.262477	-0.112572
C57	C	1.539634	0.070857	0.220762
C58	C	1.181390	-0.892164	-0.461528
C59	C	1.514723	-0.558831	-0.128195
C60	C	1.848056	-0.225498	0.205139
C61	C	1.181439	-1.009999	-0.461554
C62	C	1.514772	-0.676666	-0.128220
C63	C	1.848105	-0.343332	0.205113
C64	C	0.703737	-0.584371	-0.437383
C65	C	1.037070	-0.251037	-0.104050
C66	C	1.370403	0.082296	0.229284
C67	C	0.660000	-0.649190	-0.485763
C68	C	0.993334	-0.315856	-0.152430
C69	C	1.326667	0.017477	0.180903
C70	C	0.565835	-0.642825	-0.481022
C71	C	0.899168	-0.309492	-0.147688
C72	C	1.232501	0.023842	0.185645
C73	C	0.797911	-0.590734	-0.442124
C74	C	1.131244	-0.257401	-0.108790
C75	C	1.464577	0.075933	0.224543
C76	C	1.114193	-1.177186	-0.522761
C77	C	1.447526	-0.843853	-0.189428
C78	C	1.780859	-0.510519	0.143906
C79	C	1.113876	-1.054592	-0.522537
C80	C	1.447209	-0.721258	-0.189204
C81	C	1.780542	-0.387925	0.144130
C82	C	1.162161	-1.047614	-0.372717
C83	C	1.495494	-0.714281	-0.039383
C84	C	1.828828	-0.380947	0.293950
C85	C	1.161751	-1.170210	-0.373088
C86	C	1.495084	-0.836876	-0.039755
C87	C	1.828417	-0.503543	0.293578
C88	C	1.268390	-1.184441	-0.488492
C89	C	1.601723	-0.851108	-0.155159
C90	C	1.935056	-0.517774	0.178175
C91	C	1.267753	-1.061915	-0.490381
C92	C	1.601086	-0.728582	-0.157048
C93	C	1.934420	-0.395248	0.176286
C94	C	1.398347	-0.631475	-0.472552
C95	C	1.731680	-0.298141	-0.139219
C96	C	2.065013	0.035192	0.194114
C97	C	1.490775	-0.637754	-0.477244
C98	C	1.824108	-0.304421	-0.143911
C99	C	2.157442	0.028913	0.189423
C100	C	1.170504	-0.629952	-0.678438
C101	C	1.503837	-0.296618	-0.345104
C102	C	1.837170	0.036715	-0.011771
C103	C	1.165839	-0.635582	-0.770865
C104	C	1.499172	-0.302248	-0.437532
C105	C	1.832506	0.031085	-0.104199
C106	C	1.181532	-0.340242	-0.461577
C107	C	1.514865	-0.006908	-0.128244
C108	C	1.848198	0.326425	0.205090
C109	C	1.181567	-0.222415	-0.461592
C110	C	1.514900	0.110919	-0.128258
C111	C	1.848233	0.444252	0.205075
C112	C	1.157292	-0.645836	-0.940091
C113	C	1.490625	-0.312502	-0.606757
C114	C	1.823959	0.020831	-0.273424
C115	C	1.205771	-0.587337	-0.983855
C116	C	1.539105	-0.254003	-0.650522
C117	C	1.872438	0.079330	-0.317188
C118	C	1.201016	-0.593042	-1.078018
C119	C	1.534349	-0.259708	-0.744685
C120	C	1.867682	0.073625	-0.411351
C121	C	1.162047	-0.640132	-0.845919
C122	C	1.495380	-0.306798	-0.512586
C123	C	1.828713	0.026535	-0.179253
C124	C	1.192401	-0.603505	-0.245494
C125	C	1.525735	-0.270172	0.087839
C126	C	1.859068	0.063161	0.421173
C127	C	1.197227	-0.597587	-0.153075
C128	C	1.530560	-0.264254	0.180258
C129	C	1.863894	0.069079	0.513592
H130	H	0.693277	-0.709462	-0.530745
H131	H	1.026611	-0.376129	-0.197412
H132	H	1.359944	-0.042795	0.135921
H133	H	1.125592	-1.211590	-0.588700
H134	H	1.458925	-0.878257	-0.255366
H135	H	1.792258	-0.544924	0.077967
H136	H	1.209874	-1.018501	-0.325700
H137	H	1.543207	-0.685168	0.007633
H138	H	1.876541	-0.351834	0.340967
C139	C	0.658783	-0.502954	-0.376615
C140	C	0.992116	-0.169620	-0.043282
C141	C	1.325450	0.163713	0.290051
N142	N	0.624915	-0.441634	-0.330843
N143	N	0.958248	-0.108301	0.002490
N144	N	1.291581	0.225032	0.335823
C145	C	1.336129	-1.224102	-0.428382
C146	C	1.669462	-0.890769	-0.095048
C147	C	2.002796	-0.557435	0.238285
N148	N	1.387144	-1.253982	-0.383105
N149	N	1.720478	-0.920648	-0.049771
N150	N	2.053811	-0.587315	0.283562
H151	H	1.282372	-1.037930	-0.555782
H152	H	1.615705	-0.704597	-0.222449
H153	H	1.949038	-0.371263	0.110885
H154	H	1.250846	-0.532968	-0.950605
H155	H	1.584180	-0.199635	-0.617271
H156	H	1.917513	0.133699	-0.283938
H157	H	1.049419	-1.020022	-0.504364
H158	H	1.382753	-0.686689	-0.171031
H159	H	1.716086	-0.353356	0.162303
C160	C	1.076185	-1.201507	-0.343007
C161	C	1.409518	-0.868174	-0.009673
C162	C	1.742851	-0.534840	0.323660
N163	N	1.011733	-1.225075	-0.320352
N164	N	1.345066	-0.891741	0.012982
N165	N	1.678400	-0.558408	0.346315
C166	C	1.129471	-1.020592	-0.611340
C167	C	1.462804	-0.687258	-0.278007
C168	C	1.796138	-0.353925	0.055327
N169	N	1.141214	-0.994988	-0.678230
N170	N	1.474547	-0.661655	-0.344897
N171	N	1.807881	-0.328321	-0.011564
H172	H	1.050134	-1.202791	-0.504798
H173	H	1.383467	-0.869458	-0.171465
H174	H	1.716801	-0.536125	0.161868
C175	C	1.225484	-1.210262	-0.309086
C176	C	1.558817	-0.876928	0.024247
C177	C	1.892151	-0.543595	0.357580
N178	N	1.273483	-1.240424	-0.260876
N179	N	1.606816	-0.907090	0.072457
N180	N	1.940150	-0.573757	0.405791
C181	C	1.096399	-0.719277	-0.985009
C182	C	1.429732	-0.385944	-0.651675
C183	C	1.763066	-0.052610	-0.318342
N184	N	1.050536	-0.774593	-1.018851
N185	N	1.383869	-0.441260	-0.685517
N186	N	1.717202	-0.107927	-0.352184
H187	H	1.099513	-1.011500	-0.350136
H188	H	1.432846	-0.678167	-0.016803
H189	H	1.766179	-0.344834	0.316530
H190	H	1.286844	-1.220602	-0.552405
H191	H	1.620177	-0.887269	-0.219072
H192	H	1.953511	-0.553935	0.114261
H193	H	1.320237	-1.032010	-0.449427
H194	H	1.653571	-0.698676	-0.116093
H195	H	1.986904	-0.365343	0.217240
