data_functionalizedCrystal
_audit_creation_method	'MofGen! by Chris Wilmer'
_symmetry_space_group_name_H-M	'P1'
_symmetry_Int_Tables_number	1
_symmetry_cell_setting	triclinic
loop_
_symmetry_equiv_pos_as_xyz
  x,y,z
_cell_length_a	19.188933
_cell_length_b	19.188930
_cell_length_c	17.666332
_cell_angle_alpha	89.989930
_cell_angle_beta	89.991845
_cell_angle_gamma	83.145175
loop_
_atom_site_label
_atom_site_type_symbol
_atom_site_fract_x
_atom_site_fract_y
_atom_site_fract_z
O1	O	0.926149	0.087174	-0.062932
O2	O	0.722838	0.098906	-0.062940
O3	O	0.830361	-0.008616	-0.062921
O4	O	0.818626	0.194696	-0.062951
O5	O	0.830341	-0.008618	0.062976
O6	O	0.722818	0.098904	0.062957
O7	O	0.926129	0.087171	0.062965
Cu8	Cu	0.824472	0.093037	0.074456
Cu9	Cu	0.824495	0.093040	-0.074431
O10	O	0.818607	0.194693	0.062946
C11	C	0.696817	0.098525	0.000008
C12	C	0.619313	0.097384	0.000005
C13	C	0.066068	0.089240	-0.068612
C14	C	0.138892	0.090308	-0.068615
C15	C	0.175299	0.090844	0.000011
C16	C	0.138877	0.090294	0.068645
C17	C	0.066055	0.089219	0.068647
N18	N	0.284311	0.132262	0.051087
N19	N	0.353488	0.133284	0.051081
C20	C	0.394707	0.094082	0.000012
N21	N	0.364134	0.053827	-0.051062
N22	N	0.294950	0.052807	-0.051059
C23	C	0.254262	0.092009	0.000018
C24	C	0.510085	0.095785	-0.068621
C25	C	0.582911	0.096849	-0.068621
C26	C	0.582894	0.096842	0.068641
C27	C	0.510070	0.095771	0.068639
C28	C	0.473669	0.095246	0.000006
C29	C	0.829971	-0.034628	0.000030
C30	C	0.828830	-0.112132	0.000036
C31	C	0.891921	-0.157056	0.000043
C32	C	0.890849	-0.229880	0.000030
C33	C	0.826683	-0.257777	0.000027
C34	C	0.763584	-0.212843	0.000017
C35	C	0.764658	-0.140021	0.000021
N36	N	0.777629	-0.365783	0.042870
N37	N	0.776614	-0.434961	0.042868
C38	C	0.823445	-0.477185	0.000012
N39	N	0.871341	-0.447619	-0.042832
N40	N	0.872358	-0.378434	-0.042826
C41	C	0.825512	-0.336739	0.000022
C42	C	0.885378	-0.601073	0.000004
C43	C	0.884304	-0.673898	-0.000013
C44	C	0.757037	-0.656860	-0.000019
C45	C	0.758113	-0.584037	-0.000010
C46	C	0.822286	-0.556148	0.000005
C47	C	0.952150	0.087553	0.000016
C48	C	1.029655	0.088694	0.000013
C49	C	0.818997	0.220705	-0.000006
C50	C	0.820137	0.298210	-0.000018
N51	N	0.824461	0.093035	0.179176
C52	C	0.866670	0.135281	0.218774
C53	C	0.866680	0.135279	0.298022
C54	C	0.824469	0.093040	0.337668
C55	C	0.782258	0.050785	0.298060
C56	C	0.782254	0.050783	0.218814
N57	N	0.763320	0.091320	0.462106
N58	N	0.763326	0.091326	0.537386
C59	C	0.824481	0.093043	0.576432
N60	N	0.885630	0.094768	0.537354
N61	N	0.885623	0.094765	0.462066
C62	C	0.824470	0.093037	0.423597
C63	C	0.866705	0.135290	0.701960
C64	C	0.866717	0.135283	0.781209
C65	C	0.782288	0.050793	0.781245
C66	C	0.782282	0.050796	0.701998
C67	C	0.824490	0.093048	0.662360
N68	N	0.824506	0.093042	0.820850
H69	H	0.036407	0.088777	0.124531
H70	H	0.935682	-0.710475	-0.000012
H71	H	0.612559	0.097288	-0.124507
C72	C	0.959276	-0.278781	0.000006
C73	C	0.944599	-0.348525	-0.000017
C74	C	1.007615	-0.393590	-0.000048
H75	H	0.985636	-0.270445	0.043903
H76	H	0.985617	-0.270384	-0.043909
H77	H	0.918270	-0.356919	0.043894
H78	H	0.918250	-0.356883	-0.043910
H79	H	1.033956	-0.385192	-0.043963
H80	H	1.033970	-0.385247	0.043850
H81	H	0.997666	-0.440915	-0.000070
C82	C	0.470690	0.095178	-0.143212
C83	C	0.518174	0.095862	-0.203315
C84	C	0.481912	0.095295	-0.272039
H85	H	0.436835	0.135457	-0.146175
H86	H	0.447745	0.054040	-0.146104
H87	H	0.541107	0.136996	-0.200425
H88	H	0.552029	0.055586	-0.200377
H89	H	0.458966	0.054157	-0.274930
H90	H	0.448058	0.135575	-0.274993
H91	H	0.514124	0.095753	-0.312826
C92	C	0.178383	0.091055	-0.143148
C93	C	0.152645	0.150866	-0.184538
C94	C	0.189011	0.151586	-0.253195
H95	H	0.171931	0.050227	-0.171443
H96	H	0.226967	0.091811	-0.133346
H97	H	0.104072	0.150103	-0.194342
H98	H	0.159097	0.191703	-0.156265
H99	H	0.237595	0.152342	-0.243393
H100	H	0.182557	0.110755	-0.281484
H101	H	0.171557	0.192170	-0.281284
C102	C	0.736449	0.005000	0.341235
C103	C	0.745430	0.014097	0.419113
C104	C	0.703236	-0.028066	0.458907
H105	H	0.749550	-0.042834	0.328378
H106	H	0.688626	0.018074	0.328268
H107	H	0.793242	0.001018	0.432075
H108	H	0.732324	0.061922	0.431993
H109	H	0.655413	-0.014992	0.445940
H110	H	0.716341	-0.075898	0.446044
H111	H	0.709319	-0.021895	0.511751
H112	H	0.706738	-0.547459	-0.000011
C113	C	0.736345	0.004895	0.175953
C114	C	0.699368	-0.032088	0.227630
C115	C	0.657062	-0.074358	0.188173
H116	H	0.764978	-0.027365	0.145034
H117	H	0.704085	0.033574	0.145059
H118	H	0.731624	-0.060765	0.258511
H119	H	0.670722	0.000154	0.258551
H120	H	0.624802	-0.045679	0.157279
H121	H	0.685700	-0.106614	0.157256
H122	H	0.631963	-0.099451	0.223230
H123	H	0.901073	0.169693	0.669685
C124	C	0.736372	0.004912	0.659137
C125	C	0.699393	-0.032067	0.710815
C126	C	0.657086	-0.074338	0.671360
H127	H	0.765005	-0.027350	0.628220
H128	H	0.704114	0.033591	0.628240
H129	H	0.731648	-0.060743	0.741698
H130	H	0.670747	0.000177	0.741733
H131	H	0.624828	-0.045660	0.640463
H132	H	0.685725	-0.106596	0.640444
H133	H	0.631986	-0.099429	0.706417
H134	H	0.704792	-0.679573	-0.000025
H135	H	0.711340	-0.235562	0.000013
C136	C	0.912453	0.181265	0.175841
C137	C	0.892985	0.251669	0.195123
C138	C	0.935152	0.294048	0.155596
H139	H	0.906449	0.175311	0.122960
H140	H	0.960272	0.168217	0.188842
H141	H	0.845178	0.264713	0.182117
H142	H	0.898992	0.257645	0.247997
H143	H	0.982971	0.280999	0.168597
H144	H	0.929145	0.288087	0.102717
H145	H	0.921953	0.341820	0.168679
C146	C	0.912569	0.181228	0.824068
C147	C	0.949513	0.218242	0.772389
C148	C	0.991752	0.260581	0.811844
H149	H	0.944852	0.152615	0.854983
H150	H	0.883871	0.213466	0.854967
H151	H	0.978209	0.186008	0.741504
H152	H	0.917248	0.246868	0.741473
H153	H	0.963054	0.292819	0.842743
H154	H	1.024031	0.231963	0.842757
H155	H	1.016819	0.285705	0.776786
H156	H	0.036436	0.088810	-0.124498
C157	C	0.912622	0.181104	0.340932
C158	C	0.983035	0.161691	0.321636
C159	C	1.025375	0.203895	0.361139
H160	H	0.906670	0.175092	0.393816
H161	H	0.899537	0.228917	0.327920
H162	H	0.996116	0.113889	0.334652
H163	H	0.989010	0.167705	0.268758
H164	H	1.012290	0.251708	0.348128
H165	H	1.019416	0.197880	0.414021
H166	H	1.073154	0.190734	0.348047
H167	H	0.168524	0.090729	0.124521
H168	H	0.937631	-0.578365	0.000012
C169	C	0.961570	-0.126735	0.000204
C170	C	0.965903	-0.085450	0.064985
C171	C	1.030056	-0.057513	0.065162
H172	H	0.964709	-0.098627	-0.043647
H173	H	0.999014	-0.163904	0.000245
H174	H	0.928469	-0.048287	0.064937
H175	H	0.962776	-0.113543	0.108847
H176	H	1.067500	-0.094681	0.065203
H177	H	1.033190	-0.029408	0.021308
H178	H	1.033007	-0.029503	0.109118
H179	H	0.480421	0.095329	0.124521
C180	C	0.622309	0.097530	0.143206
C181	C	0.596541	0.157311	0.184615
C182	C	0.632832	0.157960	0.253314
H183	H	0.670901	0.098283	0.133484
H184	H	0.615802	0.056666	0.171449
H185	H	0.603054	0.198164	0.156378
H186	H	0.547954	0.156571	0.194357
H187	H	0.626325	0.117097	0.281557
H188	H	0.681422	0.158711	0.243585
H189	H	0.615349	0.198517	0.281421
H190	H	0.713280	-0.103444	0.000017
H191	H	0.747920	0.016400	0.813524
