data_functionalizedCrystal
_audit_creation_method	'MofGen! by Chris Wilmer'
_symmetry_space_group_name_H-M	'P1'
_symmetry_Int_Tables_number	1
_symmetry_cell_setting	triclinic
loop_
_symmetry_equiv_pos_as_xyz
  x,y,z
_cell_length_a	12.837943
_cell_length_b	10.723024
_cell_length_c	9.798715
_cell_angle_alpha	90.002215
_cell_angle_beta	89.997614
_cell_angle_gamma	90.351595
loop_
_atom_site_label
_atom_site_type_symbol
_atom_site_fract_x
_atom_site_fract_y
_atom_site_fract_z
O1	O	1.377761	-0.324662	-0.113460
O2	O	1.877761	0.175338	0.386540
O3	O	1.075842	-0.308624	-0.113468
O4	O	1.575842	0.191376	0.386532
O5	O	1.233766	-0.135823	-0.113459
O6	O	1.733766	0.364177	0.386541
O7	O	1.219837	-0.497463	-0.113469
O8	O	1.719837	0.002537	0.386531
O9	O	1.233755	-0.135821	0.113523
O10	O	1.733755	0.364179	0.613523
O11	O	1.075831	-0.308622	0.113514
O12	O	1.575831	0.191378	0.613514
O13	O	1.377750	-0.324660	0.113522
O14	O	1.877750	0.175340	0.613522
Zn15	Zn	1.226789	-0.316640	0.149556
Zn16	Zn	1.726789	0.183360	0.649556
Zn17	Zn	1.226803	-0.316644	-0.149503
Zn18	Zn	1.726803	0.183356	0.350497
O19	O	1.219826	-0.497460	0.113513
O20	O	1.719826	0.002540	0.613513
C21	C	1.037177	-0.303205	0.000022
C22	C	1.537177	0.196795	0.500022
C23	C	0.921985	-0.287047	0.000018
C24	C	1.421985	0.212953	0.500018
N25	N	1.226786	-0.316638	0.353656
N26	N	1.726786	0.183362	0.853656
C27	C	1.232747	-0.089212	0.000030
C28	C	1.732747	0.410788	0.500030
C29	C	1.229714	0.049671	0.000026
C30	C	1.729714	0.549671	0.500026
C31	C	0.682408	-0.481303	0.000032
C32	C	1.182408	0.018697	0.500032
C33	C	0.574174	-0.466126	0.000030
C34	C	1.074174	0.033874	0.500030
C35	C	0.597282	-0.241518	0.000022
C36	C	1.097282	0.258482	0.500022
C37	C	0.705515	-0.256694	0.000024
C38	C	1.205515	0.243306	0.500024
C39	C	0.748074	-0.376591	0.000027
C40	C	1.248074	0.123409	0.500027
C41	C	0.856310	-0.391766	0.000019
C42	C	1.356310	0.108234	0.500019
C43	C	0.879415	-0.167159	0.000021
C44	C	1.379415	0.332841	0.500021
C45	C	0.771182	-0.151982	0.000019
C46	C	1.271182	0.348018	0.500019
C47	C	1.416415	-0.330079	0.000029
C48	C	1.916415	0.169921	0.500029
C49	C	1.531607	-0.346237	0.000023
C50	C	2.031607	0.153763	0.500023
C51	C	1.220845	-0.544071	0.000020
C52	C	1.720845	-0.044071	0.500020
C53	C	1.223878	-0.682955	0.000016
C54	C	1.723878	-0.182955	0.500016
C55	C	1.318080	0.115056	0.000026
C56	C	1.818080	0.615056	0.500026
C57	C	1.314948	0.258600	0.000021
C58	C	1.814948	0.758600	0.500021
N59	N	1.226814	-0.316637	-0.353602
N60	N	1.726814	0.183363	0.146398
C61	C	1.293258	-0.243929	0.578592
C62	C	1.793258	0.256071	1.078592
C63	C	1.293244	-0.243928	0.421429
C64	C	1.793244	0.256072	0.921429
H65	H	0.890959	-0.489392	0.000024
H66	H	1.390959	0.010608	0.500024
H67	H	1.390596	0.314817	0.000028
H68	H	1.890596	0.814817	0.500028
F69	F	1.124992	0.243578	0.000025
F70	F	1.624992	0.743578	0.500025
H71	H	1.350127	-0.181675	0.363119
H72	H	1.850127	0.318325	0.863119
F73	F	0.551969	-0.113926	0.000035
F74	F	1.051969	0.386074	0.500035
F75	F	0.727705	-0.608903	0.000019
F76	F	1.227705	-0.108903	0.500019
F77	F	1.127795	0.115398	0.000010
F78	F	1.627795	0.615398	0.500010
H79	H	1.350159	-0.181684	0.636889
H80	H	1.850159	0.318316	1.136889
H81	H	0.520712	-0.551394	0.000038
H82	H	1.020712	-0.051394	0.500038
H83	H	1.169893	-0.378885	0.411957
H84	H	1.669893	0.121115	0.911957
H85	H	0.736515	-0.054366	0.000032
H86	H	1.236515	0.445634	0.500032
H87	H	0.932893	-0.081895	0.000008
H88	H	1.432893	0.418105	0.500008
F89	F	1.419999	0.049330	0.000021
F90	F	1.919999	0.549330	0.500021
F91	F	1.152448	-0.398010	0.570202
F92	F	1.652448	0.101990	1.070202
