data_functionalizedCrystal
_audit_creation_method	'MofGen! by Chris Wilmer'
_symmetry_space_group_name_H-M	'P1'
_symmetry_Int_Tables_number	1
_symmetry_cell_setting	triclinic
loop_
_symmetry_equiv_pos_as_xyz
  x,y,z
_cell_length_a	19.077105
_cell_length_b	19.121111
_cell_length_c	19.076929
_cell_angle_alpha	85.394626
_cell_angle_beta	90.078300
_cell_angle_gamma	89.735527
loop_
_atom_site_label
_atom_site_type_symbol
_atom_site_fract_x
_atom_site_fract_y
_atom_site_fract_z
Zn1	Zn	1.043144	0.339711	-0.454319
Zn2	Zn	1.543144	0.839711	0.045681
Zn3	Zn	1.042767	0.452628	-0.341434
Zn4	Zn	1.542767	0.952628	0.158566
Zn5	Zn	0.930785	0.330310	-0.331728
Zn6	Zn	1.430785	0.830310	0.168272
Zn7	Zn	0.920603	0.452199	-0.454168
Zn8	Zn	1.420603	0.952199	0.045832
O9	O	0.984325	0.393712	-0.395412
O10	O	1.484325	0.893712	0.104588
O11	O	1.141243	0.358804	-0.443469
O12	O	1.641243	0.858804	0.056531
O13	O	1.032015	0.432648	-0.241661
O14	O	1.532015	0.932648	0.258339
O15	O	0.950109	0.233289	-0.343991
O16	O	1.450109	0.733289	0.156009
O17	O	1.140965	0.441763	-0.360533
O18	O	1.640965	0.941763	0.139467
O19	O	1.032659	0.240196	-0.434058
O20	O	1.532659	0.740196	0.065942
O21	O	0.949743	0.342781	-0.234531
O22	O	1.449743	0.842781	0.265469
O23	O	0.831286	0.342364	-0.343845
O24	O	1.331286	0.842364	0.156155
O25	O	0.932755	0.441032	-0.552673
O26	O	1.432755	0.941032	-0.052673
O27	O	0.823805	0.431916	-0.433801
O28	O	1.323805	0.931916	0.066199
O29	O	1.022786	0.358387	-0.552784
O30	O	1.522786	0.858387	-0.052784
O31	O	1.022142	0.550839	-0.360387
O32	O	1.522142	1.050839	0.139613
O33	O	0.932389	0.550523	-0.443213
O34	O	1.432389	1.050523	0.056787
C35	C	0.802097	0.386074	-0.387754
C36	C	1.302097	0.886074	0.112246
C37	C	0.724137	0.382824	-0.384495
C38	C	1.224137	0.882824	0.115505
C39	C	0.683635	0.427987	-0.429732
C40	C	1.183635	0.927987	0.070268
C41	C	0.610384	0.424924	-0.426673
C42	C	1.110384	0.924924	0.073327
C43	C	0.577636	0.376701	-0.378373
C44	C	1.077636	0.876701	0.121627
C45	C	0.618144	0.331534	-0.333135
C46	C	1.118144	0.831534	0.166865
C47	C	0.691393	0.334594	-0.336198
C48	C	1.191393	0.834594	0.163802
C49	C	0.358980	0.362540	-0.364201
C50	C	0.858980	0.862540	0.135799
C51	C	0.285725	0.359485	-0.361140
C52	C	0.785725	0.859485	0.138860
C53	C	0.277970	0.452875	-0.454680
C54	C	0.777970	0.952875	0.045320
C55	C	0.351221	0.455933	-0.457735
C56	C	0.851221	0.955933	0.042265
C57	C	0.391722	0.410763	-0.412499
C58	C	0.891722	0.910763	0.087501
N59	N	0.502762	0.373571	-0.375244
N60	N	1.002762	0.873571	0.124756
N61	N	0.466595	0.413891	-0.415633
N62	N	0.966595	0.913891	0.084367
C63	C	0.976138	0.576162	-0.402853
C64	C	1.476138	1.076162	0.097147
C65	C	0.972699	0.654218	-0.406062
C66	C	1.472699	1.154218	0.093938
C67	C	1.017846	0.691033	-0.364485
C68	C	1.517846	1.191033	0.135515
C69	C	1.014616	0.764376	-0.367508
C70	C	1.514616	1.264376	0.132492
C71	C	0.966234	0.800902	-0.412104
C72	C	1.466234	1.300902	0.087896
C73	C	0.921085	0.764082	-0.453685
C74	C	1.421085	1.264082	0.046315
C75	C	0.924319	0.690741	-0.450666
C76	C	1.424319	1.190741	0.049334
C77	C	0.954132	1.022338	-0.423379
C78	C	1.454132	1.522338	0.076621
C79	C	0.950900	1.095684	-0.426394
C80	C	1.450900	1.595684	0.073606
C81	C	1.044432	1.095973	-0.340218
C82	C	1.544432	1.595973	0.159782
C83	C	1.047659	1.022630	-0.337199
C84	C	1.547659	1.522630	0.162801
C85	C	1.002512	0.985817	-0.378783
C86	C	1.502512	1.485817	0.121217
C87	C	0.962930	0.875870	-0.415193
C88	C	1.462930	1.375870	0.084807
C89	C	1.005821	0.910850	-0.375697
C90	C	1.505821	1.410850	0.124303
C91	C	1.167265	0.401380	-0.403101
C92	C	1.667265	0.901380	0.096899
C93	C	1.245223	0.404648	-0.406377
C94	C	1.745223	0.904648	0.093623
C95	C	0.976677	0.400710	-0.578978
C96	C	1.476677	0.900710	-0.078978
C97	C	0.973418	0.403693	-0.657203
C98	C	1.473418	0.903693	-0.157203
C99	C	0.992556	1.210551	-0.387968
C100	C	1.492556	1.710551	0.112032
C101	C	0.996047	1.132499	-0.384818
C102	C	1.496047	1.632499	0.115182
C103	C	0.950046	0.425139	-1.097523
C104	C	1.450046	0.925139	-0.597523
C105	C	0.953106	0.422326	-1.024021
C106	C	1.453106	0.922326	-0.524021
C107	C	1.001513	0.377895	-0.987332
C108	C	1.501513	0.877895	-0.487332
C109	C	1.046858	0.336269	-1.024148
C110	C	1.546858	0.836269	-0.524148
C111	C	1.043795	0.339079	-1.097647
C112	C	1.543795	0.839079	-0.597647
C113	C	1.015700	0.364876	-0.767518
C114	C	1.515700	0.864876	-0.267518
C115	C	1.018762	0.362071	-0.694014
C116	C	1.518762	0.862071	-0.194014
C117	C	0.925007	0.448127	-0.693892
C118	C	1.425007	0.948127	-0.193892
C119	C	0.921951	0.450936	-0.767394
C120	C	1.421951	0.950936	-0.267394
C121	C	0.967294	0.409307	-0.804202
C122	C	1.467294	0.909307	-0.304202
N123	N	1.004643	0.375021	-0.912202
N124	N	1.504643	0.875021	-0.412202
N125	N	0.964159	0.412178	-0.879331
N126	N	1.464159	0.912178	-0.379331
C127	C	0.991985	0.386692	-0.212560
C128	C	1.491985	0.886692	0.287440
C129	C	0.995389	0.383517	-0.134333
C130	C	1.495389	0.883517	0.365667
H131	H	0.259064	0.320208	-0.321813
H132	H	0.759064	0.820208	0.178187
H133	H	0.887557	0.660767	-0.484523
H134	H	1.387557	1.160767	0.015477
O135	O	0.874958	0.494195	-0.802951
O136	O	1.374958	0.994195	-0.302951
C137	C	0.887902	0.564138	-0.788481
C138	C	1.387902	1.064138	-0.288481
H139	H	0.917028	0.564676	-0.736310
H140	H	1.417028	1.064676	-0.236310
H141	H	0.835973	0.593408	-0.785106
H142	H	1.335973	1.093408	-0.285106
H143	H	0.921170	0.590888	-0.832323
H144	H	1.421170	1.090888	-0.332323
O145	O	0.881063	0.488594	-0.658059
O146	O	1.381063	0.988594	-0.158059
C147	C	0.920727	0.534010	-0.619079
C148	C	1.420727	1.034010	-0.119079
H149	H	0.975454	0.511054	-0.609302
H150	H	1.475454	1.011054	-0.109302
H151	H	0.893893	0.540245	-0.566573
H152	H	1.393893	1.040245	-0.066573
H153	H	0.924908	0.587457	-0.649840
H154	H	1.424908	1.087457	-0.149840
O155	O	0.730768	0.290655	-0.292351
O156	O	1.230768	0.790655	0.207649
C157	C	0.773518	0.248673	-0.332418
C158	C	1.273518	0.748673	0.167582
H159	H	0.749336	0.245613	-0.386759
H160	H	1.249336	0.745613	0.113241
H161	H	0.777823	0.193658	-0.304882
H162	H	1.277823	0.693658	0.195118
H163	H	0.827960	0.272797	-0.338013
H164	H	1.327960	0.772797	0.161987
O165	O	0.874180	0.799645	-0.497048
O166	O	1.374180	1.299645	0.002952
C167	C	0.910311	0.845409	-0.545966
C168	C	1.410311	1.345409	-0.045966
H169	H	0.964034	0.857643	-0.523873
H170	H	1.464034	1.357643	-0.023873
H171	H	0.879067	0.896165	-0.556295
H172	H	1.379067	1.396165	-0.056295
H173	H	0.917050	0.819426	-0.597286
H174	H	1.417050	1.319426	-0.097286
H175	H	1.045216	0.881109	-0.339390
H176	H	1.545216	1.381109	0.160610
H177	H	0.923536	0.905618	-0.451502
H178	H	1.423536	1.405618	0.048498
O179	O	0.902960	0.468316	-1.133049
O180	O	1.402960	0.968316	-0.633049
C181	C	0.863607	0.504460	-1.084795
C182	C	1.363607	1.004460	-0.584795
H183	H	0.864658	0.473592	-1.031133
H184	H	1.364658	0.973592	-0.531133
H185	H	0.807123	0.510443	-1.104010
H186	H	1.307123	1.010443	-0.604010
H187	H	0.887215	0.558572	-1.080222
H188	H	1.387215	1.058572	-0.580222
O189	O	0.570963	0.468824	-0.470511
O190	O	1.070963	0.968824	0.029489
C191	C	0.528237	0.510822	-0.430438
C192	C	1.028237	1.010822	0.069562
H193	H	0.520590	0.483476	-0.375673
H194	H	1.020590	0.983476	0.124327
H195	H	0.475115	0.519218	-0.457318
H196	H	0.975115	1.019218	0.042682
H197	H	0.554455	0.563732	-0.425917
H198	H	1.054455	1.063732	0.074083
O199	O	1.059646	0.324357	-0.803287
O200	O	1.559646	0.824357	-0.303287
C201	C	1.019981	0.278958	-0.842287
C202	C	1.519981	0.778958	-0.342287
H203	H	0.965857	0.271468	-0.817641
H204	H	1.465857	0.771468	-0.317641
H205	H	1.047740	0.226009	-0.841978
H206	H	1.547740	0.726009	-0.341978
H207	H	1.014273	0.302685	-0.898776
H208	H	1.514273	0.802685	-0.398776
O209	O	1.065714	0.318808	-0.658391
O210	O	1.565714	0.818808	-0.158391
C211	C	1.052802	0.248860	-0.672864
C212	C	1.552802	0.748860	-0.172864
H213	H	0.996090	0.243731	-0.690573
H214	H	1.496090	0.743731	-0.190573
H215	H	1.062415	0.212585	-0.623365
H216	H	1.562415	0.712585	-0.123365
H217	H	1.089458	0.233704	-0.716355
H218	H	1.589458	0.733704	-0.216355
H219	H	0.916189	0.456226	-0.994054
H220	H	1.416189	0.956226	-0.494054
O221	O	1.064905	0.655665	-0.321147
O222	O	1.564905	1.155665	0.178853
C223	C	1.104048	0.703889	-0.285087
C224	C	1.604048	1.203889	0.214913
H225	H	1.102948	0.757353	-0.316170
H226	H	1.602948	1.257353	0.183830
H227	H	1.160562	0.684685	-0.279071
H228	H	1.660562	1.184685	0.220929
H229	H	1.080287	0.708624	-0.230862
H230	H	1.580287	1.208624	0.269138
H231	H	1.086270	0.300090	-0.994269
H232	H	1.586270	0.800090	-0.494269
O233	O	1.087914	0.298625	-1.133300
O234	O	1.587914	0.798625	-0.633300
C235	C	1.131285	0.258793	-1.085158
C236	C	1.631285	0.758793	-0.585158
H237	H	1.134605	0.285656	-1.034035
H238	H	1.634605	0.785656	-0.534035
H239	H	1.185997	0.254431	-1.108415
H240	H	1.685997	0.754431	-0.608415
H241	H	1.108326	0.204085	-1.074094
H242	H	1.608326	0.704085	-0.574094
H243	H	0.391947	0.325764	-0.327362
H244	H	0.891947	0.825764	0.172638
O245	O	0.715331	0.474851	-0.476714
O246	O	1.215331	0.974851	0.023286
C247	C	0.663871	0.514066	-0.515973
C248	C	1.163871	1.014066	-0.015973
H249	H	0.612843	0.483220	-0.515099
H250	H	1.112843	0.983220	-0.015099
H251	H	0.682396	0.524640	-0.572606
H252	H	1.182396	1.024640	-0.072606
H253	H	0.654763	0.566049	-0.491963
H254	H	1.154763	1.066049	0.008037
H255	H	1.051379	0.794347	-0.333651
H256	H	1.551379	1.294347	0.166349
H257	H	1.087055	0.992892	-0.300886
H258	H	1.587055	1.492892	0.199114
O259	O	0.382918	0.502797	-0.504717
O260	O	0.882918	1.002797	-0.004717
C261	C	0.331461	0.542016	-0.543976
C262	C	0.831461	1.042016	-0.043976
H263	H	0.280433	0.511171	-0.543108
H264	H	0.780433	1.011171	-0.043108
H265	H	0.349990	0.552595	-0.600607
H266	H	0.849990	1.052595	-0.100607
H267	H	0.322352	0.593996	-0.519961
H268	H	0.822352	1.093996	-0.019961
O269	O	0.238523	0.496674	-0.498593
O270	O	0.738523	0.996674	0.001407
C271	C	0.166848	0.483648	-0.485524
C272	C	0.666848	0.983648	0.014476
H273	H	0.160225	0.428127	-0.459932
H274	H	0.660225	0.928127	0.040068
H275	H	0.136609	0.489339	-0.537268
H276	H	0.636609	0.989339	-0.037268
H277	H	0.145752	0.522945	-0.448807
H278	H	0.645752	1.022945	0.051193
O279	O	0.586223	0.284749	-0.286241
O280	O	1.086223	0.784749	0.213759
C281	C	0.512885	0.291719	-0.293248
C282	C	1.012885	0.791719	0.206752
H283	H	0.499497	0.346407	-0.317997
H284	H	0.999497	0.846407	0.182003
H285	H	0.487449	0.283696	-0.239179
H286	H	0.987449	0.783696	0.260821
H287	H	0.492408	0.250691	-0.328234
H288	H	0.992408	0.750691	0.171766
O289	O	1.088263	1.131844	-0.299905
O290	O	1.588263	1.631844	0.200095
C291	C	1.075027	1.204409	-0.312119
C292	C	1.575027	1.704409	0.187881
H293	H	1.049301	1.215528	-0.365855
H294	H	1.549301	1.715528	0.134145
H295	H	1.126540	1.234256	-0.310752
H296	H	1.626540	1.734256	0.189248
H297	H	1.038540	1.222121	-0.269630
H298	H	1.538540	1.722121	0.230370
H299	H	0.911510	1.125422	-0.462722
H300	H	1.411510	1.625422	0.037278
O301	O	0.910197	0.986689	-0.463786
O302	O	1.410197	1.486689	0.036214
C303	C	0.866809	1.034659	-0.503799
C304	C	1.366809	1.534659	-0.003799
H305	H	0.863309	1.085754	-0.477022
H306	H	1.363309	1.585754	0.022978
H307	H	0.812160	1.011487	-0.508059
H308	H	1.312160	1.511487	-0.008059
H309	H	0.889871	1.045523	-0.558672
H310	H	1.389871	1.545523	-0.058672
