data_functionalizedCrystal
_audit_creation_method	'MofGen! by Chris Wilmer'
_symmetry_space_group_name_H-M	'P1'
_symmetry_Int_Tables_number	1
_symmetry_cell_setting	triclinic
loop_
_symmetry_equiv_pos_as_xyz
  x,y,z
_cell_length_a	14.044220
_cell_length_b	10.868271
_cell_length_c	11.792241
_cell_angle_alpha	90.005281
_cell_angle_beta	91.308853
_cell_angle_gamma	90.000690
loop_
_atom_site_label
_atom_site_type_symbol
_atom_site_fract_x
_atom_site_fract_y
_atom_site_fract_z
O1	O	1.259113	-0.102192	-0.273771
O2	O	1.759113	0.397808	0.226229
O3	O	0.983093	-0.102224	-0.263891
O4	O	1.483093	0.397776	0.236109
O5	O	1.127802	-0.102199	-0.104289
O6	O	1.627802	0.397801	0.395711
O7	O	1.114405	-0.102217	-0.433373
O8	O	1.614405	0.397783	0.066627
O9	O	1.127790	0.102446	-0.104281
O10	O	1.627790	0.602446	0.395719
O11	O	0.983081	0.102421	-0.263883
O12	O	1.483081	0.602421	0.236117
O13	O	1.259101	0.102452	-0.273763
O14	O	1.759101	0.602452	0.226237
Zn15	Zn	1.121089	0.134928	-0.268822
Zn16	Zn	1.621089	0.634928	0.231178
Zn17	Zn	1.121105	-0.134700	-0.268832
Zn18	Zn	1.621105	0.365300	0.231168
O19	O	1.114393	0.102427	-0.433365
O20	O	1.614393	0.602427	0.066635
C21	C	0.947751	0.000095	-0.259563
C22	C	1.447751	0.500095	0.240437
C23	C	0.842459	0.000083	-0.246664
C24	C	1.342459	0.500083	0.253336
N25	N	1.121086	0.318942	-0.268815
N26	N	1.621086	0.818942	0.231185
N27	N	1.121117	-0.318714	-0.268831
N28	N	1.621117	0.181286	0.231169
C29	C	0.649676	0.000109	-0.223082
C30	C	1.149676	0.500109	0.276918
C31	C	0.592513	0.000109	-0.314567
C32	C	1.092513	0.500109	0.185433
C33	C	0.485242	0.000123	-0.301445
C34	C	0.985242	0.500123	0.198555
C35	C	0.756957	0.000095	-0.236202
C36	C	1.256957	0.500095	0.263798
C37	C	1.294444	0.000131	-0.278091
C38	C	1.794444	0.500131	0.221909
C39	C	1.399736	0.000135	-0.290990
C40	C	1.899736	0.500135	0.209010
C41	C	1.126954	0.000123	-0.061915
C42	C	1.626954	0.500123	0.438085
C43	C	1.124435	0.000122	0.064335
C44	C	1.624435	0.500122	0.564335
C45	C	1.121100	0.569949	-0.268829
C46	C	1.621100	1.069949	0.231171
C47	C	1.121089	0.430271	-0.268824
C48	C	1.621089	0.930271	0.231176
C49	C	1.115241	0.000103	-0.475739
C50	C	1.615241	0.500103	0.024261
C51	C	1.117759	0.000096	-0.601989
C52	C	1.617759	0.500096	-0.101989
C53	C	1.119804	0.000101	0.295482
C54	C	1.619804	0.500101	0.795482
C55	C	1.122377	0.000112	0.166855
C56	C	1.622377	0.500112	0.666855
H57	H	0.618054	0.000121	-0.134912
H58	H	1.118054	0.500121	0.365088
C59	C	0.635223	0.000085	-0.433689
C60	C	1.135223	0.500085	0.066311
H61	H	0.585249	0.000092	-0.489364
H62	H	1.085249	0.500092	0.010636
H63	H	0.673376	-0.071285	-0.442595
H64	H	1.173376	0.428715	0.057405
H65	H	0.673386	0.071452	-0.442602
H66	H	1.173386	0.571452	0.057398
