data_functionalizedCrystal
_audit_creation_method	'MofGen! by Chris Wilmer'
_symmetry_space_group_name_H-M	'P1'
_symmetry_Int_Tables_number	1
_symmetry_cell_setting	triclinic
loop_
_symmetry_equiv_pos_as_xyz
  x,y,z
_cell_length_a	10.654544
_cell_length_b	8.559649
_cell_length_c	7.088929
_cell_angle_alpha	84.655305
_cell_angle_beta	96.263084
_cell_angle_gamma	77.131758
loop_
_atom_site_label
_atom_site_type_symbol
_atom_site_fract_x
_atom_site_fract_y
_atom_site_fract_z
O1	O	1.630220	0.240453	-0.159027
O2	O	1.262536	0.261811	-0.159020
O3	O	1.478772	0.018889	-0.159020
O4	O	1.413985	0.483376	-0.159027
O5	O	1.507677	-0.013649	0.158955
O6	O	1.291441	0.229273	0.158955
O7	O	1.659125	0.207915	0.158948
Cu8	Cu	1.477922	0.215623	0.187985
Cu9	Cu	1.443739	0.254103	-0.188057
O10	O	1.442889	0.450837	0.158948
C11	C	1.498134	-0.056855	-0.000035
C12	C	1.512747	-0.234073	-0.000044
C13	C	1.230353	0.243974	-0.000031
C14	C	1.091394	0.239282	-0.000029
C15	C	1.122880	0.203826	0.346638
C16	C	1.073340	0.183899	0.519965
C17	C	0.942777	0.179489	0.519956
C18	C	0.861749	0.195003	0.346602
C19	C	0.911289	0.214930	0.173275
C20	C	1.041857	0.219343	0.173302
C21	C	0.879806	0.250373	-0.173387
C22	C	1.010367	0.254795	-0.173383
C23	C	0.798778	0.265887	-0.346741
C24	C	0.848316	0.285826	-0.520072
C25	C	0.978888	0.290238	-0.520057
C26	C	1.059907	0.274722	-0.346710
C27	C	1.691308	0.225753	-0.000045
C28	C	1.830266	0.230446	-0.000060
C29	C	1.423527	0.526582	-0.000041
C30	C	1.408912	0.703801	-0.000045
N31	N	1.501974	0.188557	0.452473
N32	N	1.419698	0.281157	-0.452545
H33	H	1.308829	-0.213804	-0.000028
H34	H	1.229189	0.207438	0.346662
H35	H	0.782336	0.298446	-0.661203
H36	H	1.139328	0.171264	0.661106
N37	N	1.032321	0.311712	-0.707005
H38	H	0.961177	0.320865	-0.816812
H39	H	1.066096	0.413090	-0.714579
N40	N	0.889875	0.157105	0.707190
H41	H	0.856436	0.055473	0.714520
H42	H	0.961388	0.147778	0.816508
H43	H	1.612826	-0.316461	-0.000039
N44	N	1.306732	0.408255	0.439330
H45	H	1.313510	0.518145	0.474056
H46	H	1.308485	0.406193	0.297414
N47	N	1.614945	0.061454	0.560615
H48	H	1.613254	0.063375	0.702565
H49	H	1.608101	-0.048368	0.525737
H50	H	0.755443	0.191390	0.346611
H51	H	0.692470	0.262283	-0.346736
N52	N	1.200727	0.279480	-0.346715
H53	H	1.218656	0.372355	-0.278675
H54	H	1.257974	0.174747	-0.278681
