data_functionalizedCrystal
_audit_creation_method	'MofGen! by Chris Wilmer'
_symmetry_space_group_name_H-M	'P1'
_symmetry_Int_Tables_number	1
_symmetry_cell_setting	triclinic
loop_
_symmetry_equiv_pos_as_xyz
  x,y,z
_cell_length_a	17.640280
_cell_length_b	12.827893
_cell_length_c	12.827885
_cell_angle_alpha	90.019272
_cell_angle_beta	78.769256
_cell_angle_gamma	101.199338
loop_
_atom_site_label
_atom_site_type_symbol
_atom_site_fract_x
_atom_site_fract_y
_atom_site_fract_z
Zn1	Zn	-0.314632	-1.681787	-0.506827
Zn2	Zn	-0.446826	-1.717023	-0.296785
Zn3	Zn	-0.314670	-1.507038	-0.332090
Zn4	Zn	-0.446767	-1.542340	-0.471501
O5	O	-0.380724	-1.612047	-0.401801
O6	O	-0.332176	-1.832699	-0.478973
O7	O	-0.429336	-1.689141	-0.155221
O8	O	-0.204058	-1.500699	-0.384829
O9	O	-0.429298	-1.858587	-0.324656
O10	O	-0.204030	-1.629086	-0.513207
O11	O	-0.332242	-1.534866	-0.181160
O12	O	-0.332185	-1.365483	-0.350575
O13	O	-0.429198	-1.560865	-0.622434
O14	O	-0.429235	-1.391419	-0.452999
O15	O	-0.332119	-1.663316	-0.648388
O16	O	-0.557424	-1.723371	-0.290402
O17	O	-0.557381	-1.595032	-0.418765
C18	C	-0.380708	-1.340533	-0.401785
C19	C	-0.380721	-1.224383	-0.401798
C20	C	-0.586082	-1.666884	-0.346942
C21	C	-0.673935	-1.690439	-0.323508
C22	C	-0.380648	-1.612098	-0.674391
C23	C	-0.380615	-1.612119	-0.790553
C24	C	-0.962898	-1.433529	-0.580206
C25	C	-1.045449	-1.455665	-0.558153
C26	C	-1.045429	-1.589387	-0.424624
C27	C	-0.962876	-1.567266	-0.446669
C28	C	-0.921617	-1.489335	-0.524461
C29	C	-0.921595	-1.623072	-0.390924
C30	C	-0.839049	-1.600949	-0.412964
C31	C	-0.797784	-1.523019	-0.490750
C32	C	-0.839071	-1.467212	-0.546501
C33	C	-0.962855	-1.700998	-0.313128
C34	C	-0.921574	-1.756804	-0.257382
C35	C	-0.839027	-1.734686	-0.279427
C36	C	-0.797762	-1.656757	-0.357213
C37	C	-0.797740	-1.790494	-0.223676
C38	C	-0.715194	-1.768370	-0.245716
C39	C	-0.715216	-1.634633	-0.379253
C40	C	-0.174563	-1.557024	-0.456897
C41	C	-0.086710	-1.533576	-0.480375
C42	C	-0.380739	-1.884621	-0.401817
C43	C	-0.380746	-2.000776	-0.401824
C44	C	-0.428820	-1.185480	-0.452363
C45	C	-0.428834	-1.065433	-0.452377
C46	C	-0.332568	-1.662820	-0.855183
C47	C	-0.332534	-1.662843	-0.975243
C48	C	-0.380742	-1.612041	-0.130286
C49	C	-0.380552	-1.612162	-0.014184
H50	H	-0.681621	-1.571181	-0.442607
H51	H	-0.291401	-1.706254	-1.030773
H52	H	-0.681583	-1.813813	-0.200321
H53	H	-0.469986	-1.241047	-0.495647
F54	F	-0.482664	-1.021645	-0.508957
H55	H	-0.339568	-1.034275	-0.358527
H56	H	-0.339549	-1.168815	-0.358523
H57	H	-0.291456	-1.706204	-0.821633
H58	H	-0.421720	-1.568722	-0.824106
F59	F	-0.709931	-1.499661	-0.514395
F60	F	-0.795156	-1.384277	-0.629305
F61	F	-0.434327	-1.555429	-0.941609
H62	H	-0.929303	-1.370077	-0.643559
F63	F	-1.089381	-1.396252	-0.617482
F64	F	-0.965493	-1.839742	-0.174595
H65	H	-1.079033	-1.652835	-0.361283
H66	H	-0.831345	-1.853937	-0.160332
F67	F	-1.050709	-1.724571	-0.289701
