data_functionalizedCrystal
_audit_creation_method	'MofGen! by Chris Wilmer'
_symmetry_space_group_name_H-M	'P1'
_symmetry_Int_Tables_number	1
_symmetry_cell_setting	triclinic
loop_
_symmetry_equiv_pos_as_xyz
  x,y,z
_cell_length_a	14.908571
_cell_length_b	14.908178
_cell_length_c	11.169409
_cell_angle_alpha	93.334554
_cell_angle_beta	93.316289
_cell_angle_gamma	89.820760
loop_
_atom_site_label
_atom_site_type_symbol
_atom_site_fract_x
_atom_site_fract_y
_atom_site_fract_z
Zn1	Zn	1.354035	-0.437367	0.748772
Zn2	Zn	1.345252	-0.587766	0.535847
Zn3	Zn	1.203658	-0.428729	0.537235
Zn4	Zn	1.194972	-0.579005	0.725638
O5	O	1.274479	-0.508217	0.636873
O6	O	1.478695	-0.464599	0.729628
O7	O	1.326430	-0.566720	0.368075
O8	O	1.230917	-0.304042	0.575558
O9	O	1.472243	-0.575096	0.573193
O10	O	1.341398	-0.310388	0.730973
O11	O	1.222401	-0.449877	0.369094
O12	O	1.076680	-0.441383	0.553126
O13	O	1.216112	-0.560165	0.896664
O14	O	1.070299	-0.551789	0.691545
O15	O	1.332975	-0.456104	0.913660
O16	O	1.318007	-0.712437	0.550761
O17	O	1.207596	-0.706000	0.690200
C18	C	1.040864	-0.494699	0.619977
C19	C	0.940921	-0.488937	0.612775
C20	C	0.746511	-0.593256	0.743157
C21	C	0.652605	-0.587846	0.736395
C22	C	0.659204	-0.472702	0.592495
C23	C	0.753109	-0.478112	0.599257
C24	C	0.796759	-0.538393	0.674590
C25	C	0.890666	-0.543807	0.681345
C26	C	0.897263	-0.428659	0.537452
C27	C	0.803357	-0.423249	0.530690
C28	C	1.260930	-0.741847	0.617848
C29	C	1.255216	-0.841800	0.609755
C30	C	1.359435	-1.036075	0.756539
C31	C	1.354070	-1.129989	0.748939
C32	C	1.239115	-1.123545	0.586961
C33	C	1.244481	-1.029631	0.594561
C34	C	1.304644	-0.985899	0.679352
C35	C	1.310014	-0.891983	0.686945
C36	C	1.195055	-0.885540	0.524974
C37	C	1.189690	-0.979455	0.517374
C38	C	1.509007	-0.521788	0.653836
C39	C	1.608948	-0.527571	0.661065
C40	C	1.274554	-0.508121	0.949929
C41	C	1.274586	-0.508080	1.083334
C42	C	1.288106	-0.273676	0.656001
C43	C	1.293913	-0.173728	0.664152
C44	C	1.274460	-0.508250	0.325044
C45	C	1.274617	-0.508048	0.191672
H46	H	0.938185	-0.383987	0.481616
C47	C	0.755332	-0.356944	0.447828
N48	N	0.719159	-0.307004	0.385413
C49	C	1.425617	-0.987968	0.849804
N50	N	1.475465	-0.951735	0.920055
C51	C	1.414350	-1.185180	0.833845
N52	N	1.459756	-1.226750	0.897799
C53	C	1.173048	-1.171673	0.493566
N54	N	1.123326	-1.207926	0.423168
H55	H	1.140704	-1.015074	0.448343
C56	C	1.134781	-0.830339	0.440062
N57	N	1.089385	-0.788760	0.376107
H58	H	0.926204	-0.592892	0.742683
C59	C	1.376193	-0.843879	0.780216
N60	N	1.426039	-0.807650	0.850474
C61	C	0.794528	-0.659567	0.826018
N62	N	0.830693	-0.709513	0.888432
H63	H	0.611696	-0.632520	0.792232
H64	H	0.623648	-0.423619	0.531171
