data_functionalizedCrystal
_audit_creation_method	'MofGen! by Chris Wilmer'
_symmetry_space_group_name_H-M	'P1'
_symmetry_Int_Tables_number	1
_symmetry_cell_setting	triclinic
loop_
_symmetry_equiv_pos_as_xyz
  x,y,z
_cell_length_a	10.685976
_cell_length_b	12.594516
_cell_length_c	10.686551
_cell_angle_alpha	85.596700
_cell_angle_beta	89.651515
_cell_angle_gamma	85.652562
loop_
_atom_site_label
_atom_site_type_symbol
_atom_site_fract_x
_atom_site_fract_y
_atom_site_fract_z
Zn1	Zn	1.972196	-0.514681	-0.561907
Zn2	Zn	1.955964	-0.705230	-0.352162
Zn3	Zn	1.746324	-0.512683	-0.368283
Zn4	Zn	1.762402	-0.678027	-0.577988
O5	O	1.859221	-0.602655	-0.465085
O6	O	2.145577	-0.552179	-0.520608
O7	O	1.914632	-0.690236	-0.178759
O8	O	1.776350	-0.364005	-0.393984
O9	O	2.133651	-0.692174	-0.366509
O10	O	1.942298	-0.365474	-0.536239
O11	O	1.760611	-0.548772	-0.190603
O12	O	1.572922	-0.522395	-0.409577
O13	O	1.803754	-0.645811	-0.751396
O14	O	1.584735	-0.643873	-0.563646
O15	O	1.957888	-0.525802	-0.739582
O16	O	1.930223	-0.850564	-0.382102
O17	O	1.788014	-0.830579	-0.548015
C18	C	1.533315	-0.579966	-0.490106
C19	C	1.393893	-0.570283	-0.500840
C20	C	1.859138	-0.879191	-0.465079
C21	C	1.859221	-0.997500	-0.465110
C22	C	1.781861	-1.055925	-0.555292
C23	C	1.742510	-1.131511	-0.443174
C24	C	1.898687	-1.132719	-0.577238
C25	C	1.819805	-1.071528	-0.352936
C26	C	1.976041	-1.072729	-0.487073
C27	C	1.936728	-1.148291	-0.374873
C28	C	2.186401	-0.625434	-0.439967
C29	C	2.325825	-0.635141	-0.429263
C30	C	1.884425	-0.582995	-0.792278
C31	C	1.895166	-0.574617	-0.931708
C32	C	1.859341	-0.325040	-0.465116
C33	C	1.859392	-0.206737	-0.465129
C34	C	1.834187	-0.622167	-0.139160
C35	C	1.823690	-0.630263	0.000288
H36	H	1.345507	-0.507350	-0.570340
H37	H	1.964586	-0.520568	-0.980161
O38	O	1.740720	-0.694680	-0.942079
C39	C	1.524253	-0.733865	-0.918069
C40	C	1.618080	-0.660842	-0.983455
H41	H	1.425076	-0.706520	-0.951476
H42	H	1.548107	-0.819702	-0.942098
H43	H	1.530116	-0.729389	-0.812144
H44	H	1.612268	-0.665226	-1.089392
H45	H	1.594196	-0.575037	-0.959323
O46	O	1.383500	-0.710373	-0.346486
C47	C	1.418994	-0.897788	-0.282126
C48	C	1.353630	-0.812702	-0.375968
H49	H	1.394847	-0.980538	-0.305912
H50	H	1.524941	-0.892581	-0.287948
H51	H	1.385512	-0.883219	-0.182976
H52	H	1.387009	-0.827215	-0.475159
H53	H	1.247693	-0.817930	-0.370036
H54	H	1.643798	-1.157558	-0.424616
O55	O	1.703480	-1.008001	-0.646034
C56	C	1.491846	-0.983480	-0.725406
C57	C	1.580468	-1.037801	-0.622555
H58	H	1.392377	-1.007571	-0.706474
H59	H	1.493075	-0.893064	-0.725143
H60	H	1.524505	-1.009651	-0.820806
H61	H	1.547871	-1.011717	-0.527104
H62	H	1.579229	-1.128208	-0.622929
O63	O	1.779748	-1.039550	-0.239800
C64	C	1.611767	-1.033771	-0.088448
C65	C	1.656988	-1.070071	-0.216575
H66	H	1.512502	-1.058413	-0.069642
H67	H	1.677252	-1.072732	-0.011496
H68	H	1.612047	-0.943214	-0.089391
H69	H	1.656705	-1.160617	-0.215756
H70	H	1.591493	-1.031031	-0.293472
O71	O	2.014691	-1.196158	-0.283744
C72	C	2.034353	-1.314395	-0.095493
C73	C	1.945937	-1.260273	-0.198638
H74	H	1.978795	-1.366227	-0.026644
H75	H	2.111797	-1.366332	-0.139983
H76	H	2.077915	-1.250623	-0.043442
H77	H	1.902285	-1.323973	-0.250725
H78	H	1.868566	-1.208314	-0.154073
O79	O	2.093845	-1.041823	-0.509347
C80	C	2.309871	-1.097183	-0.551212
C81	C	2.176513	-1.132331	-0.526011
H82	H	2.376749	-1.170342	-0.564666
H83	H	2.309421	-1.040346	-0.639566
H84	H	2.342183	-1.054836	-0.467964
H85	H	2.144119	-1.174723	-0.609183
H86	H	2.177037	-1.189117	-0.437612
O87	O	1.938295	-1.164830	-0.690457
C88	C	1.901334	-1.153968	-0.913446
C89	C	1.856370	-1.117505	-0.785309
H90	H	1.835105	-1.115740	-0.990165
H91	H	2.000190	-1.128622	-0.933003
H92	H	1.901952	-1.244608	-0.912013
H93	H	1.855672	-1.026869	-0.786648
H94	H	1.757540	-1.142930	-0.765802
