data_functionalizedCrystal
_audit_creation_method	'MofGen! by Chris Wilmer'
_symmetry_space_group_name_H-M	'P1'
_symmetry_Int_Tables_number	1
_symmetry_cell_setting	triclinic
loop_
_symmetry_equiv_pos_as_xyz
  x,y,z
_cell_length_a	23.532407
_cell_length_b	22.010155
_cell_length_c	23.532409
_cell_angle_alpha	90.007292
_cell_angle_beta	82.849119
_cell_angle_gamma	89.996931
loop_
_atom_site_label
_atom_site_type_symbol
_atom_site_fract_x
_atom_site_fract_y
_atom_site_fract_z
O1	O	0.755264	-0.050445	0.069127
O2	O	1.088598	0.282888	0.402460
O3	O	1.421931	0.616221	0.735793
O4	O	0.589401	-0.050463	0.079130
O5	O	0.922734	0.282871	0.412463
O6	O	1.256068	0.616204	0.745797
O7	O	0.677334	-0.050454	-0.008803
O8	O	1.010667	0.282879	0.324530
O9	O	1.344000	0.616212	0.657863
O10	O	0.667332	-0.050454	0.157060
O11	O	1.000665	0.282879	0.490393
O12	O	1.333998	0.616213	0.823727
O13	O	0.677318	0.050596	-0.008790
O14	O	1.010651	0.383929	0.324543
O15	O	1.343984	0.717263	0.657877
O16	O	0.589385	0.050588	0.079143
O17	O	0.922718	0.383921	0.412477
O18	O	1.256052	0.717254	0.745810
O19	O	0.755248	0.050605	0.069140
O20	O	1.088582	0.383938	0.402473
O21	O	1.421915	0.717272	0.735807
Cu22	Cu	0.672315	0.059823	0.074143
Cu23	Cu	1.005649	0.393156	0.407476
Cu24	Cu	1.338982	0.726490	0.740809
Cu25	Cu	0.672334	-0.059681	0.074127
Cu26	Cu	1.005667	0.273653	0.407461
Cu27	Cu	1.339001	0.606986	0.740794
O28	O	0.667316	0.050596	0.157073
O29	O	1.000649	0.383930	0.490407
O30	O	1.333982	0.717263	0.823740
C31	C	0.568177	0.000060	0.078882
C32	C	0.901510	0.333393	0.412215
C33	C	1.234844	0.666727	0.745549
C34	C	0.504960	0.000053	0.078116
C35	C	0.838293	0.333387	0.411449
C36	C	1.171627	0.666720	0.744783
C37	C	0.105857	0.000081	0.125349
C38	C	0.439190	0.333414	0.458683
C39	C	0.772524	0.666748	0.792016
C40	C	0.046457	0.000085	0.124638
C41	C	0.379790	0.333418	0.457971
C42	C	0.713124	0.666751	0.791305
O43	O	0.009713	0.000107	0.168424
O44	O	0.343046	0.333440	0.501757
O45	O	0.676379	0.666774	0.835090
N46	N	0.023830	0.000084	0.072362
N47	N	0.357164	0.333417	0.405695
N48	N	0.690497	0.666750	0.739028
C49	C	0.060608	0.000085	0.020794
C50	C	0.393941	0.333418	0.354127
C51	C	0.727274	0.666752	0.687460
O52	O	0.035908	0.000085	-0.023737
O53	O	0.369241	0.333418	0.309596
O54	O	0.702574	0.666752	0.642930
C55	C	0.120007	0.000086	0.021506
C56	C	0.453340	0.333419	0.354839
C57	C	0.786673	0.666752	0.688172
C58	C	0.142630	0.000081	0.073785
C59	C	0.475963	0.333414	0.407119
C60	C	0.809296	0.666747	0.740452
C61	C	0.128481	0.000077	0.177625
C62	C	0.461814	0.333410	0.510958
C63	C	0.795147	0.666743	0.844291
C64	C	0.187877	0.000072	0.178336
C65	C	0.521210	0.333405	0.511669
C66	C	0.854544	0.666739	0.845003
C67	C	0.224649	0.000071	0.126772
C68	C	0.557983	0.333405	0.460105
C69	C	0.891316	0.666738	0.793438
C70	C	0.202026	0.000076	0.074496
C71	C	0.535359	0.333409	0.407830
C72	C	0.868692	0.666742	0.741163
C73	C	0.156783	0.000091	-0.030062
C74	C	0.490116	0.333425	0.303271
C75	C	0.823449	0.666758	0.636605
C76	C	0.216185	0.000092	-0.029345
C77	C	0.549519	0.333426	0.303988
C78	C	0.882852	0.666759	0.637321
C79	C	0.238808	0.000087	0.022934
C80	C	0.572142	0.333421	0.356268
C81	C	0.905475	0.666754	0.689601
C82	C	0.298195	0.000070	0.023643
C83	C	0.631528	0.333404	0.356977
C84	C	0.964861	0.666737	0.690310
N85	N	0.320821	0.000071	0.075920
N86	N	0.654154	0.333405	0.409253
N87	N	0.987488	0.666738	0.742586
C88	C	0.284049	0.000072	0.127484
C89	C	0.617382	0.333405	0.460817
C90	C	0.950715	0.666739	0.794151
C91	C	-0.064135	0.000085	0.019302
C92	C	0.269198	0.333418	0.352635
C93	C	0.602532	0.666751	0.685969
C94	C	-0.123533	0.000080	0.018589
C95	C	0.209800	0.333413	0.351923
C96	C	0.543134	0.666746	0.685256
C97	C	-0.137679	0.000081	0.122434
C98	C	0.195654	0.333414	0.455767
C99	C	0.528987	0.666747	0.789101
C100	C	-0.078280	0.000081	0.123146
C101	C	0.255053	0.333415	0.456480
C102	C	0.588386	0.666748	0.789813
C103	C	-0.041508	0.000086	0.071578
C104	C	0.291825	0.333419	0.404912
C105	C	0.625158	0.666752	0.738245
C106	C	0.408785	0.000061	0.128974
C107	C	0.742119	0.333395	0.462307
C108	C	1.075452	0.666728	0.795640
C109	C	0.468187	0.000054	0.129680
C110	C	0.801521	0.333387	0.463014
C111	C	1.134854	0.666721	0.796347
C112	C	0.482329	0.000056	0.025836
C113	C	0.815662	0.333389	0.359169
C114	C	1.148995	0.666723	0.692503
C115	C	0.422932	0.000060	0.025129
C116	C	0.756265	0.333394	0.358462
C117	C	1.089599	0.666727	0.691796
C118	C	0.386161	0.000065	0.076702
C119	C	0.719494	0.333398	0.410036
C120	C	1.052828	0.666732	0.743369
O121	O	0.334973	0.000051	-0.020119
O122	O	0.668307	0.333384	0.313214
O123	O	1.001640	0.666717	0.646547
O124	O	0.308757	0.000080	0.172007
O125	O	0.642090	0.333413	0.505340
O126	O	0.975423	0.666747	0.838674
C127	C	0.677071	0.000069	-0.030013
C128	C	1.010404	0.333403	0.303321
C129	C	1.343737	0.666736	0.636654
C130	C	0.676304	0.000065	-0.093230
C131	C	1.009638	0.333398	0.240104
C132	C	1.342971	0.666731	0.573437
C133	C	0.776472	0.000081	0.069388
C134	C	1.109806	0.333414	0.402721
C135	C	1.443139	0.666747	0.736055
C136	C	0.839689	0.000083	0.070154
C137	C	1.173023	0.333417	0.403487
C138	C	1.506356	0.666750	0.736821
N139	N	0.672306	0.143875	0.074153
N140	N	1.005639	0.477209	0.407487
N141	N	1.338973	0.810542	0.740820
N142	N	0.672348	-0.143733	0.074112
N143	N	1.005681	0.189600	0.407445
N144	N	1.339014	0.522933	0.740779
C145	C	0.711273	0.563659	0.035196
C146	C	1.044606	0.896992	0.368529
C147	C	1.377940	1.230325	0.701863
C148	C	0.711276	0.627266	0.035192
C149	C	1.044609	0.960599	0.368525
C150	C	1.377942	1.293933	0.701859
O151	O	0.744384	0.660161	0.002076
O152	O	1.077717	0.993494	0.335410
O153	O	1.411050	1.326827	0.668743
N154	N	0.672334	0.659083	0.074115
N155	N	1.005667	0.992416	0.407449
N156	N	1.339000	1.325749	0.740782
C157	C	0.633383	0.627288	0.113041
C158	C	0.966716	0.960621	0.446375
C159	C	1.300050	1.293955	0.779708
O160	O	0.600260	0.660191	0.146148
O161	O	0.933593	0.993524	0.479481
O162	O	1.266927	1.326858	0.812815
C163	C	0.633378	0.563682	0.113042
C164	C	0.966711	0.897015	0.446375
C165	C	1.300045	1.230348	0.779709
C166	C	0.672326	0.531868	0.074120
C167	C	1.005660	0.865202	0.407453
C168	C	1.338993	1.198535	0.740787
C169	C	0.750217	0.531845	-0.003723
C170	C	1.083551	0.865179	0.329610
C171	C	1.416884	1.198512	0.662943
C172	C	0.750215	0.468242	-0.003719
C173	C	1.083549	0.801575	0.329615
C174	C	1.416882	1.134909	0.662948
C175	C	0.711269	0.436452	0.035205
C176	C	1.044602	0.769785	0.368539
C177	C	1.377935	1.103119	0.701872
C178	C	0.672324	0.468265	0.074125
C179	C	1.005657	0.801599	0.407458
C180	C	1.338991	1.134932	0.740791
C181	C	0.594425	0.531888	0.151965
C182	C	0.927758	0.865222	0.485298
C183	C	1.261092	1.198555	0.818631
C184	C	0.594423	0.468277	0.151962
C185	C	0.927757	0.801611	0.485295
C186	C	1.261090	1.134944	0.818629
C187	C	0.633371	0.436464	0.113040
C188	C	0.966705	0.769798	0.446373
C189	C	1.300038	1.103131	0.779707
C190	C	0.633375	0.372872	0.113054
C191	C	0.966709	0.706205	0.446387
C192	C	1.300042	1.039539	0.779720
N193	N	0.672317	0.341056	0.074130
N194	N	1.005650	0.674389	0.407464
N195	N	1.338984	1.007722	0.740797
C196	C	0.711264	0.372846	0.035206
C197	C	1.044597	0.706179	0.368540
C198	C	1.377930	1.039512	0.701873
C199	C	0.633396	0.760866	0.113036
C200	C	0.966729	1.094199	0.446369
C201	C	1.300062	1.427532	0.779703
C202	C	0.633403	0.824471	0.113038
C203	C	0.966736	1.157804	0.446372
C204	C	1.300069	1.491138	0.779705
C205	C	0.711295	0.824445	0.035188
C206	C	1.044628	1.157778	0.368522
C207	C	1.377961	1.491111	0.701855
C208	C	0.711290	0.760838	0.035189
C209	C	1.044623	1.094172	0.368522
C210	C	1.377957	1.427505	0.701856
C211	C	0.672337	0.729049	0.074113
C212	C	1.005671	1.062383	0.407446
C213	C	1.339004	1.395716	0.740779
C214	C	0.711257	0.239274	0.035219
C215	C	1.044590	0.572608	0.368553
C216	C	1.377923	0.905941	0.701886
C217	C	0.711253	0.175665	0.035229
C218	C	1.044586	0.508999	0.368563
C219	C	1.377919	0.842332	0.701896
C220	C	0.633359	0.175697	0.113077
C221	C	0.966692	0.509031	0.446411
C222	C	1.300026	0.842364	0.779744
C223	C	0.633365	0.239301	0.113070
C224	C	0.966698	0.572634	0.446403
C225	C	1.300031	0.905967	0.779736
C226	C	0.672316	0.271088	0.074136
C227	C	1.005649	0.604421	0.407469
C228	C	1.338982	0.937754	0.740803
O229	O	0.600283	0.339937	0.146151
O230	O	0.933616	0.673270	0.479484
O231	O	1.266949	1.006604	0.812817
O232	O	0.744376	0.339935	0.002100
O233	O	1.077710	0.673268	0.335433
O234	O	1.411043	1.006602	0.668767
C235	C	0.673054	-0.055021	-0.366482
C236	C	1.006387	0.278313	-0.033148
C237	C	1.339721	0.611646	0.300185
C238	C	0.673766	-0.055021	-0.307082
C239	C	1.007099	0.278313	0.026252
C240	C	1.340432	0.611646	0.359585
O241	O	0.674161	-0.101865	-0.276363
O242	O	1.007494	0.231469	0.056970
O243	O	1.340828	0.564802	0.390304
N244	N	0.674109	0.000063	-0.277372
N245	N	1.007443	0.333396	0.055961
N246	N	1.340776	0.666729	0.389294
C247	C	0.673747	0.055150	-0.307067
C248	C	1.007080	0.388483	0.026266
C249	C	1.340414	0.721816	0.359600
O250	O	0.674105	0.102003	-0.276343
O251	O	1.007438	0.435336	0.056991
O252	O	1.340772	0.768669	0.390324
C253	C	0.673039	0.055149	-0.366467
C254	C	1.006373	0.388483	-0.033133
C255	C	1.339706	0.721816	0.300200
C256	C	0.672690	0.000062	-0.396172
C257	C	1.006023	0.333395	-0.062839
C258	C	1.339357	0.666729	0.270494
C259	C	0.672705	-0.110103	-0.396187
C260	C	1.006039	0.223230	-0.062854
C261	C	1.339372	0.556563	0.270479
C262	C	0.671993	-0.110103	-0.455583
C263	C	1.005326	0.223230	-0.122250
C264	C	1.338659	0.556564	0.211083
C265	C	0.671629	-0.055020	-0.485274
C266	C	1.004962	0.278313	-0.151940
C267	C	1.338295	0.611646	0.181393
C268	C	0.671977	0.000062	-0.455568
C269	C	1.005311	0.333396	-0.122235
C270	C	1.338644	0.666729	0.211099
C271	C	0.672681	0.110236	-0.396161
C272	C	1.006014	0.443569	-0.062828
C273	C	1.339348	0.776902	0.270506
C274	C	0.671974	0.110230	-0.455565
C275	C	1.005307	0.443564	-0.122231
C276	C	1.338641	0.776897	0.211102
C277	C	0.671625	0.055143	-0.485270
C278	C	1.004958	0.388477	-0.151937
C279	C	1.338291	0.721810	0.181396
C280	C	0.670901	0.055146	-0.544654
C281	C	1.004234	0.388479	-0.211321
C282	C	1.337567	0.721812	0.122012
N283	N	0.670557	0.000062	-0.574364
N284	N	1.003891	0.333395	-0.241030
N285	N	1.337224	0.666729	0.092303
C286	C	0.670921	-0.055021	-0.544673
C287	C	1.004255	0.278313	-0.211340
C288	C	1.337588	0.611646	0.121993
C289	C	0.675234	0.055147	-0.182324
C290	C	1.008567	0.388480	0.151009
C291	C	1.341900	0.721814	0.484343
C292	C	0.675937	0.055148	-0.122925
C293	C	1.009271	0.388481	0.210409
C294	C	1.342604	0.721815	0.543742
C295	C	0.675957	-0.055023	-0.122944
C296	C	1.009290	0.278311	0.210390
C297	C	1.342624	0.611644	0.543723
C298	C	0.675250	-0.055023	-0.182343
C299	C	1.008583	0.278310	0.150990
C300	C	1.341916	0.611643	0.484323
C301	C	0.674890	0.000063	-0.212033
C302	C	1.008224	0.333397	0.121300
C303	C	1.341557	0.666730	0.454633
C304	C	0.669424	-0.055016	-0.669409
C305	C	1.002757	0.278317	-0.336076
C306	C	1.336091	0.611651	-0.002743
C307	C	0.668709	-0.055011	-0.728810
C308	C	1.002042	0.278322	-0.395477
C309	C	1.335376	0.611656	-0.062143
C310	C	0.668692	0.055160	-0.728786
C311	C	1.002025	0.388493	-0.395453
C312	C	1.335359	0.721826	-0.062120
C313	C	0.669404	0.055155	-0.669390
C314	C	1.002738	0.388488	-0.336057
C315	C	1.336071	0.721821	-0.002724
C316	C	0.669772	0.000062	-0.639703
C317	C	1.003105	0.333395	-0.306370
C318	C	1.336439	0.666729	0.026963
O319	O	0.670507	0.101965	-0.575411
O320	O	1.003841	0.435299	-0.242078
O321	O	1.337174	0.768632	0.091256
O322	O	0.670571	-0.101866	-0.575406
O323	O	1.003904	0.231468	-0.242073
O324	O	1.337237	0.564801	0.091261
C325	C	0.667579	0.000071	0.178283
C326	C	1.000912	0.333405	0.511616
C327	C	1.334245	0.666738	0.844949
C328	C	0.668345	0.000072	0.241500
C329	C	1.001678	0.333405	0.574833
C330	C	1.335012	0.666739	0.908166
H331	H	0.378853	0.000067	0.170970
H332	H	0.712186	0.333400	0.504303
H333	H	1.045519	0.666734	0.837636
H334	H	0.601655	0.265203	0.144769
H335	H	0.934988	0.598537	0.478102
H336	H	1.268322	0.931870	0.811436
H337	H	-0.141947	0.000074	-0.023982
H338	H	0.191386	0.333408	0.309352
H339	H	0.524720	0.666741	0.642685
O340	O	0.674988	-0.108498	-0.211266
O341	O	1.008321	0.224835	0.122068
O342	O	1.341654	0.558168	0.455401
C343	C	0.723916	-0.111809	-0.252333
C344	C	1.057249	0.221525	0.081000
C345	C	1.390582	0.554858	0.414334
H346	H	0.740251	-0.063984	-0.263476
H347	H	1.073584	0.269349	0.069857
H348	H	1.406918	0.602682	0.403190
H349	H	0.712326	-0.135134	-0.292590
H350	H	1.045660	0.198199	0.040744
H351	H	1.378993	0.531533	0.374077
H352	H	0.758734	-0.138984	-0.234142
H353	H	1.092067	0.194349	0.099191
H354	H	1.425401	0.527682	0.432525
O355	O	0.676205	-0.108505	-0.094037
O356	O	1.009538	0.224829	0.239297
O357	O	1.342871	0.558162	0.572630
C358	C	0.627261	-0.111789	-0.052988
C359	C	0.960594	0.221544	0.280345
C360	C	1.293928	0.554878	0.613678
H361	H	0.610943	-0.063956	-0.041835
H362	H	0.944276	0.269378	0.291498
H363	H	1.277610	0.602711	0.624831
H364	H	0.638823	-0.135128	-0.012733
H365	H	0.972156	0.198205	0.320601
H366	H	1.305490	0.531538	0.653934
H367	H	0.592440	-0.138939	-0.071203
H368	H	0.925773	0.194395	0.262130
H369	H	1.259107	0.527728	0.595464
O370	O	0.671699	-0.163669	-0.484353
O371	O	1.005033	0.169664	-0.151020
O372	O	1.338366	0.502997	0.182313
C373	C	0.672168	-0.212280	-0.445400
C374	C	1.005501	0.121053	-0.112066
C375	C	1.338835	0.454387	0.221267
H376	H	0.690688	-0.196114	-0.405508
H377	H	1.024021	0.137220	-0.072175
H378	H	1.357355	0.470553	0.261158
H379	H	0.699640	-0.250795	-0.466324
H380	H	1.032974	0.082539	-0.132991
H381	H	1.366307	0.415872	0.200342
H382	H	0.626556	-0.229240	-0.432868
H383	H	0.959889	0.104093	-0.099534
H384	H	1.293222	0.437426	0.233799
O385	O	0.134886	0.000020	-0.080884
O386	O	0.468219	0.333353	0.252450
O387	O	0.801552	0.666687	0.585783
C388	C	0.153701	-0.052318	-0.112302
C389	C	0.487034	0.281015	0.221032
C390	C	0.820367	0.614349	0.554365
H391	H	0.194811	-0.069773	-0.097015
H392	H	0.528145	0.263560	0.236318
H393	H	0.861478	0.596894	0.569652
H394	H	0.162218	-0.040539	-0.159772
H395	H	0.495551	0.292794	0.173561
H396	H	0.828884	0.626128	0.506895
H397	H	0.119289	-0.088963	-0.105524
H398	H	0.452622	0.244370	0.227809
H399	H	0.785955	0.577704	0.561142
O400	O	0.251963	0.000013	-0.079403
O401	O	0.585296	0.333346	0.253931
O402	O	0.918629	0.666680	0.587264
C403	C	0.286735	-0.052332	-0.082116
C404	C	0.620069	0.281001	0.251218
C405	C	0.953402	0.614335	0.584551
H406	H	0.289494	-0.069783	-0.036932
H407	H	0.622828	0.263551	0.296401
H408	H	0.956161	0.596884	0.629734
H409	H	0.331498	-0.040564	-0.103591
H410	H	0.664832	0.292770	0.229743
H411	H	0.998165	0.626103	0.563076
H412	H	0.267333	-0.088976	-0.108017
H413	H	0.600666	0.244357	0.225316
H414	H	0.934000	0.577691	0.558650
H415	H	0.743004	0.734940	0.003495
H416	H	1.076338	1.068273	0.336828
H417	H	1.409671	1.401607	0.670162
O418	O	0.556666	0.562810	0.189826
O419	O	0.889999	0.896144	0.523160
O420	O	1.223332	1.229477	0.856493
C421	C	0.586952	0.599620	0.224806
C422	C	0.920286	0.932953	0.558139
C423	C	1.253619	1.266287	0.891473
H424	H	0.631859	0.580454	0.225548
H425	H	0.965193	0.913788	0.558881
H426	H	1.298526	1.247121	0.892214
H427	H	0.563451	0.600345	0.270189
H428	H	0.896785	0.933679	0.603522
H429	H	1.230118	1.267012	0.936856
H430	H	0.590037	0.647824	0.206968
H431	H	0.923370	0.981158	0.540302
H432	H	1.256703	1.314491	0.873635
O433	O	0.672948	-0.163587	-0.367290
O434	O	1.006282	0.169746	-0.033957
O435	O	1.339615	0.503080	0.299376
C436	C	0.624001	-0.166877	-0.326247
C437	C	0.957334	0.166456	0.007087
C438	C	1.290668	0.499789	0.340420
H439	H	0.607688	-0.119045	-0.315081
H440	H	0.941021	0.214289	0.018252
H441	H	1.274354	0.547622	0.351585
H442	H	0.635557	-0.190232	-0.285996
H443	H	0.968890	0.143101	0.047337
H444	H	1.302224	0.476434	0.380671
H445	H	0.589179	-0.194015	-0.344472
H446	H	0.922512	0.139318	-0.011139
H447	H	1.255846	0.472652	0.322194
H448	H	0.743007	0.850340	0.003493
H449	H	1.076340	1.183673	0.336827
H450	H	1.409673	1.517006	0.670160
O451	O	0.749070	0.270081	-0.002677
O452	O	1.082403	0.603414	0.330656
O453	O	1.415736	0.936747	0.663990
C454	C	0.740124	0.254534	-0.059007
C455	C	1.073457	0.587867	0.274327
C456	C	1.406790	0.921201	0.607660
H457	H	0.718166	0.208356	-0.058818
H458	H	1.051499	0.541689	0.274515
H459	H	1.384832	0.875022	0.607849
H460	H	0.783091	0.252342	-0.087270
H461	H	1.116424	0.585675	0.246063
H462	H	1.449757	0.919008	0.579397
H463	H	0.711882	0.290333	-0.076481
H464	H	1.045215	0.623666	0.256852
H465	H	1.378549	0.956999	0.590185
O466	O	-0.056238	0.000160	0.173894
O467	O	0.277095	0.333493	0.507227
O468	O	0.610429	0.666826	0.840560
C469	C	-0.022320	0.052503	0.177432
C470	C	0.311013	0.385836	0.510765
C471	C	0.644347	0.719169	0.844098
H472	H	-0.007276	0.069954	0.132462
H473	H	0.326057	0.403287	0.465796
H474	H	0.659390	0.736621	0.799129
H475	H	0.016454	0.040732	0.199909
H476	H	0.349787	0.374065	0.533242
H477	H	0.683121	0.707399	0.866575
H478	H	-0.048709	0.089147	0.202784
H479	H	0.284625	0.422481	0.536118
H480	H	0.617958	0.755814	0.869451
H481	H	0.601651	0.149804	0.144770
H482	H	0.934984	0.483137	0.478104
H483	H	1.268317	0.816471	0.811437
H484	H	0.668422	-0.099871	-0.752993
H485	H	1.001756	0.233462	-0.419660
H486	H	1.335089	0.566795	-0.086327
O487	O	0.788032	0.562653	-0.041614
O488	O	1.121365	0.895986	0.291719
O489	O	1.454699	1.229320	0.625053
C490	C	0.779089	0.547110	-0.097945
C491	C	1.112422	0.880444	0.235388
C492	C	1.445755	1.213777	0.568721
H493	H	0.757124	0.500936	-0.097760
H494	H	1.090457	0.834269	0.235574
H495	H	1.423791	1.167602	0.568907
H496	H	0.822057	0.544912	-0.126205
H497	H	1.155391	0.878245	0.207128
H498	H	1.488724	1.211578	0.540461
H499	H	0.750854	0.582915	-0.115422
H500	H	1.084187	0.916248	0.217911
H501	H	1.417521	1.249581	0.551245
H502	H	0.562702	0.442398	0.183658
H503	H	0.896035	0.775731	0.516991
H504	H	1.229368	1.109065	0.850324
H505	H	0.404512	0.000055	-0.017441
H506	H	0.737845	0.333389	0.315892
H507	H	1.071178	0.666722	0.649225
H508	H	0.669724	-0.099878	-0.645245
H509	H	1.003057	0.233456	-0.311912
H510	H	1.336391	0.566789	0.021422
H511	H	0.512279	0.000053	-0.016146
H512	H	0.845613	0.333387	0.317187
H513	H	1.178946	0.666720	0.650520
O514	O	0.676347	0.108621	-0.094020
O515	O	1.009680	0.441955	0.239314
O516	O	1.343013	0.775288	0.572647
C517	C	0.726095	0.111936	-0.066394
C518	C	1.059428	0.445270	0.266939
C519	C	1.392761	0.778603	0.600272
H520	H	0.742656	0.064114	-0.059737
H521	H	1.075990	0.397447	0.273596
H522	H	1.409323	0.730781	0.606929
H523	H	0.715496	0.135255	-0.023113
H524	H	1.048830	0.468588	0.310221
H525	H	1.382163	0.801921	0.643554
H526	H	0.760358	0.139121	-0.093993
H527	H	1.093691	0.472454	0.239340
H528	H	1.427024	0.805788	0.572674
O529	O	0.669649	0.108700	-0.640574
O530	O	1.002983	0.442033	-0.307241
O531	O	1.336316	0.775366	0.026092
C532	C	0.620125	0.142187	-0.648348
C533	C	0.953459	0.475520	-0.315014
C534	C	1.286792	0.808853	0.018319
H535	H	0.603172	0.126525	-0.689241
H536	H	0.936505	0.459858	-0.355908
H537	H	1.269838	0.793192	-0.022574
H538	H	0.631174	0.192584	-0.651875
H539	H	0.964508	0.525917	-0.318541
H540	H	1.297841	0.859251	0.014792
H541	H	0.585985	0.134531	-0.610215
H542	H	0.919318	0.467864	-0.276881
H543	H	1.252651	0.801197	0.056452
H544	H	0.674936	0.100008	-0.206493
H545	H	1.008270	0.433341	0.126840
H546	H	1.341603	0.766675	0.460174
H547	H	0.742971	0.149765	0.003534
H548	H	1.076304	0.483098	0.336868
H549	H	1.409638	0.816432	0.670201
H550	H	0.601694	0.850369	0.144738
H551	H	0.935027	1.183702	0.478072
H552	H	1.268360	1.517036	0.811405
H553	H	-0.034198	0.000083	-0.022693
H554	H	0.299136	0.333416	0.310640
H555	H	0.632469	0.666750	0.643973
H556	H	0.781929	0.442344	-0.035414
H557	H	1.115262	0.775677	0.297920
H558	H	1.448595	1.109010	0.631253
O559	O	0.490187	-0.000061	0.180454
O560	O	0.823521	0.333272	0.513787
O561	O	1.156854	0.666606	0.847121
C562	C	0.524131	-0.052393	0.183961
C563	C	0.857464	0.280940	0.517294
C564	C	1.190797	0.614273	0.850627
H565	H	0.510248	-0.088967	0.154272
H566	H	0.843581	0.244366	0.487605
H567	H	1.176915	0.577699	0.820939
H568	H	0.518540	-0.069965	0.229887
H569	H	0.851874	0.263369	0.563220
H570	H	1.185207	0.596702	0.896553
H571	H	0.571051	-0.040566	0.170560
H572	H	0.904384	0.292767	0.503893
H573	H	1.237717	0.626101	0.837226
O574	O	0.595539	0.730083	0.150910
O575	O	0.928872	1.063416	0.484244
O576	O	1.262205	1.396749	0.817577
C577	C	0.561164	0.771810	0.185252
C578	C	0.894497	1.105143	0.518585
C579	C	1.227831	1.438477	0.851918
H580	H	0.584516	0.817146	0.185769
H581	H	0.917850	1.150479	0.519102
H582	H	1.251183	1.483813	0.852435
H583	H	0.552216	0.753447	0.230782
H584	H	0.885550	1.086780	0.564115
H585	H	1.218883	1.420113	0.897448
H586	H	0.518964	0.778579	0.166975
H587	H	0.852297	1.111912	0.500309
H588	H	1.185630	1.445246	0.833642
H589	H	0.672972	0.155094	-0.371986
H590	H	1.006305	0.488427	-0.038652
H591	H	1.339638	0.821760	0.294681
O592	O	0.671599	0.163798	-0.484313
O593	O	1.004932	0.497131	-0.150980
O594	O	1.338266	0.830465	0.182354
C595	C	0.672074	0.212413	-0.445354
C596	C	1.005408	0.545747	-0.112020
C597	C	1.338741	0.879080	0.221313
H598	H	0.654551	0.196260	-0.400558
H599	H	0.987885	0.529593	-0.067225
H600	H	1.321218	0.862927	0.266109
H601	H	0.644211	0.250939	-0.458740
H602	H	0.977544	0.584272	-0.125406
H603	H	1.310878	0.917605	0.207927
H604	H	0.717843	0.229353	-0.445260
H605	H	1.051177	0.562686	-0.111927
H606	H	1.384510	0.896019	0.221407
O607	O	0.668418	0.108704	-0.757580
O608	O	1.001751	0.442038	-0.424247
O609	O	1.335085	0.775371	-0.090913
C610	C	0.717927	0.142208	-0.749794
C611	C	1.051260	0.475542	-0.416461
C612	C	1.384593	0.808875	-0.083127
H613	H	0.734887	0.126549	-0.708906
H614	H	1.068221	0.459882	-0.375573
H615	H	1.401554	0.793216	-0.042240
H616	H	0.706855	0.192601	-0.746249
H617	H	1.040188	0.525935	-0.412915
H618	H	1.373521	0.859268	-0.079582
H619	H	0.752071	0.134568	-0.787930
H620	H	1.085405	0.467901	-0.454596
H621	H	1.418738	0.801234	-0.121263
O622	O	0.209754	0.000101	0.229171
O623	O	0.543087	0.333435	0.562504
O624	O	0.876420	0.666768	0.895838
C625	C	0.164551	0.000090	0.274524
C626	C	0.497884	0.333423	0.607857
C627	C	0.831218	0.666756	0.941190
H628	H	0.124285	0.019218	0.258788
H629	H	0.457619	0.352551	0.592121
H630	H	0.790952	0.685885	0.925455
H631	H	0.176756	0.029431	0.311047
H632	H	0.510089	0.362765	0.644380
H633	H	0.843423	0.696098	0.977714
H634	H	0.156060	-0.048388	0.290410
H635	H	0.489393	0.284945	0.623743
H636	H	0.822726	0.618279	0.957076
H637	H	0.098546	0.000079	0.219617
H638	H	0.431879	0.333413	0.552950
H639	H	0.765212	0.666746	0.886284
H640	H	-0.167631	0.000084	0.164421
H641	H	0.165702	0.333417	0.497754
H642	H	0.499036	0.666751	0.831087
