data_functionalizedCrystal
_audit_creation_method	'MofGen! by Chris Wilmer'
_symmetry_space_group_name_H-M	'P1'
_symmetry_Int_Tables_number	1
_symmetry_cell_setting	triclinic
loop_
_symmetry_equiv_pos_as_xyz
  x,y,z
_cell_length_a	16.625548
_cell_length_b	18.101395
_cell_length_c	16.625539
_cell_angle_alpha	89.974216
_cell_angle_beta	89.982945
_cell_angle_gamma	90.032172
loop_
_atom_site_label
_atom_site_type_symbol
_atom_site_fract_x
_atom_site_fract_y
_atom_site_fract_z
Zn1	Zn	1.232604	-0.294821	-0.455913
Zn2	Zn	1.482604	-0.044821	-0.205913
Zn3	Zn	1.732604	0.205179	0.044087
Zn4	Zn	1.982604	0.455179	0.294087
Zn5	Zn	1.232495	-0.418666	-0.321082
Zn6	Zn	1.482495	-0.168666	-0.071082
Zn7	Zn	1.732495	0.081334	0.178918
Zn8	Zn	1.982495	0.331334	0.428918
Zn9	Zn	1.097774	-0.294845	-0.321094
Zn10	Zn	1.347774	-0.044845	-0.071094
Zn11	Zn	1.597774	0.205155	0.178906
Zn12	Zn	1.847774	0.455155	0.428906
Zn13	Zn	1.097716	-0.418627	-0.455872
Zn14	Zn	1.347716	-0.168627	-0.205872
Zn15	Zn	1.597716	0.081373	0.044128
Zn16	Zn	1.847716	0.331373	0.294128
O17	O	1.165147	-0.356740	-0.388490
O18	O	1.415147	-0.106740	-0.138490
O19	O	1.665147	0.143260	0.111510
O20	O	1.915147	0.393260	0.361510
O21	O	1.345422	-0.311255	-0.438040
O22	O	1.595422	-0.061255	-0.188040
O23	O	1.845422	0.188745	0.061960
O24	O	2.095422	0.438745	0.311960
O25	O	1.214603	-0.402267	-0.208251
O26	O	1.464603	-0.152267	0.041749
O27	O	1.714603	0.097733	0.291749
O28	O	1.964603	0.347733	0.541749
O29	O	1.115730	-0.191209	-0.339000
O30	O	1.365730	0.058791	-0.089000
O31	O	1.615730	0.308791	0.161000
O32	O	1.865730	0.558791	0.411000
O33	O	1.345342	-0.402244	-0.338980
O34	O	1.595342	-0.152244	-0.088980
O35	O	1.845342	0.097756	0.161020
O36	O	2.095342	0.347756	0.411020
O37	O	1.214789	-0.191191	-0.438051
O38	O	1.464789	0.058809	-0.188051
O39	O	1.714789	0.308809	0.061949
O40	O	1.964789	0.558809	0.311949
O41	O	1.115624	-0.311296	-0.208260
O42	O	1.365624	-0.061296	0.041740
O43	O	1.615624	0.188704	0.291740
O44	O	1.865624	0.438704	0.541740
O45	O	0.984934	-0.311259	-0.338960
O46	O	1.234934	-0.061259	-0.088960
O47	O	1.484934	0.188741	0.161040
O48	O	1.734934	0.438741	0.411040
O49	O	1.115630	-0.402178	-0.568710
O50	O	1.365630	-0.152178	-0.318710
O51	O	1.615630	0.097822	-0.068710
O52	O	1.865630	0.347822	0.181290
O53	O	0.984891	-0.402201	-0.437981
O54	O	1.234891	-0.152201	-0.187981
O55	O	1.484891	0.097799	0.062019
O56	O	1.734891	0.347799	0.312019
O57	O	1.214732	-0.311218	-0.568740
O58	O	1.464732	-0.061218	-0.318740
O59	O	1.714732	0.188782	-0.068740
O60	O	1.964732	0.438782	0.181260
O61	O	1.214547	-0.522294	-0.338940
O62	O	1.464547	-0.272294	-0.088940
O63	O	1.714547	-0.022294	0.161060
O64	O	1.964547	0.227706	0.411060
O65	O	1.115525	-0.522265	-0.437969
O66	O	1.365525	-0.272265	-0.187969
O67	O	1.615525	-0.022265	0.062031
O68	O	1.865525	0.227735	0.312031
C69	C	0.955657	-0.356729	-0.388467
C70	C	1.205657	-0.106729	-0.138467
C71	C	1.455657	0.143271	0.111533
C72	C	1.705657	0.393271	0.361533
C73	C	0.866035	-0.356742	-0.388477
C74	C	1.116035	-0.106742	-0.138477
C75	C	1.366035	0.143258	0.111523
C76	C	1.616035	0.393258	0.361523
C77	C	0.537860	-0.356747	-0.388511
C78	C	0.787860	-0.106747	-0.138511
C79	C	1.037860	0.143253	0.111489
C80	C	1.287860	0.393253	0.361489
C81	C	0.629168	-0.356744	-0.388499
C82	C	0.879168	-0.106744	-0.138499
C83	C	1.129168	0.143256	0.111501
C84	C	1.379168	0.393256	0.361501
C85	C	0.701945	-0.356745	-0.388494
C86	C	0.951945	-0.106745	-0.138494
C87	C	1.201945	0.143255	0.111506
C88	C	1.451945	0.393255	0.361506
C89	C	0.793259	-0.356741	-0.388483
C90	C	1.043259	-0.106741	-0.138483
C91	C	1.293259	0.143259	0.111517
C92	C	1.543259	0.393259	0.361517
C93	C	1.165040	-0.549150	-0.388466
C94	C	1.415040	-0.299150	-0.138466
C95	C	1.665040	-0.049150	0.111534
C96	C	1.915040	0.200850	0.361534
C97	C	1.165067	-0.631464	-0.388483
C98	C	1.415067	-0.381464	-0.138483
C99	C	1.665067	-0.131464	0.111517
C100	C	1.915067	0.118536	0.361517
C101	C	1.165244	-0.930555	-0.388527
C102	C	1.415244	-0.680555	-0.138527
C103	C	1.665244	-0.430555	0.111473
C104	C	1.915244	-0.180555	0.361473
C105	C	1.103087	-0.899243	-0.450988
C106	C	1.353087	-0.649243	-0.200988
C107	C	1.603087	-0.399243	0.049012
C108	C	1.853087	-0.149243	0.299012
C109	C	1.102791	-0.813625	-0.450793
C110	C	1.352791	-0.563625	-0.200793
C111	C	1.602791	-0.313625	0.049207
C112	C	1.852791	-0.063625	0.299207
C113	C	1.165156	-0.782173	-0.388506
C114	C	1.415156	-0.532173	-0.138506
C115	C	1.665156	-0.282173	0.111494
C116	C	1.915156	-0.032173	0.361494
C117	C	1.142154	-0.813322	-0.303528
C118	C	1.392154	-0.563322	-0.053528
C119	C	1.642154	-0.313322	0.196472
C120	C	1.892154	-0.063322	0.446472
C121	C	1.141754	-0.898968	-0.303901
C122	C	1.391754	-0.648968	-0.053901
C123	C	1.641754	-0.398968	0.196099
C124	C	1.891754	-0.148968	0.446099
C125	C	1.250539	-0.898898	-0.410295
C126	C	1.500539	-0.648898	-0.160295
C127	C	1.750539	-0.398898	0.089705
C128	C	2.000539	-0.148898	0.339705
C129	C	1.250038	-0.813247	-0.412159
C130	C	1.500038	-0.563247	-0.162159
C131	C	1.750038	-0.313247	0.087841
C132	C	2.000038	-0.063247	0.337841
C133	C	1.165108	-0.698313	-0.388489
C134	C	1.415108	-0.448313	-0.138489
C135	C	1.665108	-0.198313	0.111511
C136	C	1.915108	0.051687	0.361511
C137	C	1.165290	-1.014415	-0.388538
C138	C	1.415290	-0.764415	-0.138538
C139	C	1.665290	-0.514415	0.111462
C140	C	1.915290	-0.264415	0.361462
C141	C	1.375456	-0.356751	-0.388513
C142	C	1.625456	-0.106751	-0.138513
C143	C	1.875456	0.143249	0.111487
C144	C	2.125456	0.393249	0.361487
C145	C	1.465077	-0.356756	-0.388523
C146	C	1.715077	-0.106756	-0.138523
C147	C	1.965077	0.143244	0.111477
C148	C	2.215077	0.393244	0.361477
C149	C	1.165187	-0.356691	-0.598799
C150	C	1.415187	-0.106691	-0.348799
C151	C	1.665187	0.143309	-0.098799
C152	C	1.915187	0.393309	0.151201
C153	C	1.165204	-0.356670	-0.688420
C154	C	1.415204	-0.106670	-0.438420
C155	C	1.665204	0.143330	-0.188420
C156	C	1.915204	0.393330	0.061580
C157	C	1.165278	-0.163578	-0.388531
C158	C	1.415278	0.086422	-0.138531
C159	C	1.665278	0.336422	0.111469
C160	C	1.915278	0.586422	0.361469
C161	C	1.165333	-0.081264	-0.388549
C162	C	1.415333	0.168736	-0.138549
C163	C	1.665333	0.418736	0.111451
C164	C	1.915333	0.668736	0.361451
C165	C	1.165217	-0.356654	-0.761203
C166	C	1.415217	-0.106654	-0.511203
C167	C	1.665217	0.143346	-0.261203
C168	C	1.915217	0.393346	-0.011203
C169	C	1.165236	-0.356626	-0.852511
C170	C	1.415236	-0.106626	-0.602511
C171	C	1.665236	0.143374	-0.352511
C172	C	1.915236	0.393374	-0.102511
C173	C	1.165255	-0.356600	-0.925288
C174	C	1.415255	-0.106600	-0.675288
C175	C	1.665255	0.143400	-0.425288
C176	C	1.915255	0.393400	-0.175288
C177	C	1.165275	-0.356573	-1.016602
C178	C	1.415275	-0.106573	-0.766602
C179	C	1.665275	0.143427	-0.516602
C180	C	1.915275	0.393427	-0.266602
C181	C	1.165154	-0.356735	-0.178999
C182	C	1.415154	-0.106735	0.071001
C183	C	1.665154	0.143265	0.321001
C184	C	1.915154	0.393265	0.571001
C185	C	1.165294	-0.356547	-0.089378
C186	C	1.415294	-0.106547	0.160622
C187	C	1.665294	0.143453	0.410622
C188	C	1.915294	0.393453	0.660622
H189	H	1.117182	-0.792562	-0.513803
H190	H	1.367182	-0.542562	-0.263803
H191	H	1.617182	-0.292562	-0.013803
H192	H	1.867182	-0.042562	0.236197
H193	H	1.271511	-0.920447	-0.471205
H194	H	1.521511	-0.670447	-0.221205
H195	H	1.771511	-0.420447	0.028795
H196	H	2.021511	-0.170447	0.278795
C197	C	1.066005	-0.744173	-0.206666
C198	C	1.316005	-0.494173	0.043334
C199	C	1.566005	-0.244173	0.293334
C200	C	1.816005	0.005827	0.543334
C201	C	1.058871	-0.784465	-0.278187
C202	C	1.308871	-0.534465	-0.028187
C203	C	1.558871	-0.284465	0.221813
C204	C	1.808871	-0.034465	0.471813
H205	H	1.014589	-0.726356	-0.191029
H206	H	1.264589	-0.476356	0.058971
H207	H	1.514589	-0.226356	0.308971
H208	H	1.764589	0.023644	0.558971
H209	H	1.086888	-0.775206	-0.165604
H210	H	1.336888	-0.525206	0.084396
H211	H	1.586888	-0.275206	0.334396
H212	H	1.836888	-0.025206	0.584396
H213	H	1.101369	-0.703624	-0.214866
H214	H	1.351369	-0.453624	0.035134
H215	H	1.601369	-0.203624	0.285134
H216	H	1.851369	0.046376	0.535134
H217	H	1.023512	-0.825018	-0.269985
H218	H	1.273512	-0.575018	-0.019985
H219	H	1.523512	-0.325018	0.230015
H220	H	1.773512	-0.075018	0.480015
H221	H	1.037977	-0.753430	-0.319258
H222	H	1.287977	-0.503430	-0.069258
H223	H	1.537977	-0.253430	0.180742
H224	H	1.787977	-0.003430	0.430742
H225	H	1.040248	-0.920830	-0.436750
H226	H	1.290248	-0.670830	-0.186750
H227	H	1.540248	-0.420830	0.063250
H228	H	1.790248	-0.170830	0.313250
C229	C	0.966384	-0.846678	-0.419770
C230	C	1.216384	-0.596678	-0.169770
C231	C	1.466384	-0.346678	0.080230
C232	C	1.716384	-0.096678	0.330230
C233	C	1.017447	-0.786048	-0.431313
C234	C	1.267447	-0.536048	-0.181313
C235	C	1.517447	-0.286048	0.068687
C236	C	1.767447	-0.036048	0.318687
H237	H	0.913696	-0.829651	-0.407736
H238	H	1.163696	-0.579651	-0.157736
H239	H	1.413696	-0.329651	0.092264
H240	H	1.663696	-0.079651	0.342264
H241	H	0.965057	-0.875673	-0.467353
H242	H	1.215057	-0.625673	-0.217353
H243	H	1.465057	-0.375673	0.032647
H244	H	1.715057	-0.125673	0.282647
H245	H	0.985763	-0.875819	-0.376383
H246	H	1.235763	-0.625819	-0.126383
H247	H	1.485763	-0.375819	0.123617
H248	H	1.735763	-0.125819	0.373617
H249	H	0.998071	-0.756909	-0.474705
H250	H	1.248071	-0.506909	-0.224705
H251	H	1.498071	-0.256909	0.025295
H252	H	1.748071	-0.006909	0.275295
H253	H	1.018770	-0.757040	-0.383725
H254	H	1.268770	-0.507040	-0.133725
H255	H	1.518770	-0.257040	0.116275
H256	H	1.768770	-0.007040	0.366275
H257	H	1.079403	-0.919011	-0.285461
H258	H	1.329403	-0.669011	-0.035461
H259	H	1.579403	-0.419011	0.214539
H260	H	1.829403	-0.169011	0.464539
H261	H	1.298798	-0.791833	-0.369981
H262	H	1.548798	-0.541833	-0.119981
H263	H	1.798798	-0.291833	0.130019
H264	H	2.048798	-0.041833	0.380019
H265	H	1.185063	-0.919683	-0.255776
H266	H	1.435063	-0.669683	-0.005776
H267	H	1.685063	-0.419683	0.244224
H268	H	1.935063	-0.169683	0.494224
H269	H	1.296849	-0.919146	-0.364802
H270	H	1.546849	-0.669146	-0.114802
H271	H	1.796849	-0.419146	0.135198
H272	H	2.046849	-0.169146	0.385198
H273	H	1.186003	-0.792950	-0.255720
H274	H	1.436003	-0.542950	-0.005720
H275	H	1.686003	-0.292950	0.244280
H276	H	1.936003	-0.042950	0.494280
C277	C	1.349191	-0.813797	-0.517190
C278	C	1.599191	-0.563797	-0.267190
C279	C	1.849191	-0.313797	-0.017190
C280	C	2.099191	-0.063797	0.232810
C281	C	1.273441	-0.785797	-0.496603
C282	C	1.523441	-0.535797	-0.246603
C283	C	1.773441	-0.285797	0.003397
C284	C	2.023441	-0.035797	0.253397
H285	H	1.363626	-0.796862	-0.569331
H286	H	1.613626	-0.546862	-0.319331
H287	H	1.863626	-0.296862	-0.069331
H288	H	2.113626	-0.046862	0.180669
H289	H	1.387915	-0.797269	-0.479246
H290	H	1.637915	-0.547269	-0.229246
H291	H	1.887915	-0.297269	0.020754
H292	H	2.137915	-0.047269	0.270754
H293	H	1.347397	-0.866251	-0.516967
H294	H	1.597397	-0.616251	-0.266967
H295	H	1.847397	-0.366251	-0.016967
H296	H	2.097397	-0.116251	0.233033
H297	H	1.275237	-0.733343	-0.496820
H298	H	1.525237	-0.483343	-0.246820
H299	H	1.775237	-0.233343	0.003180
H300	H	2.025237	0.016657	0.253180
H301	H	1.234707	-0.802321	-0.534557
H302	H	1.484707	-0.552321	-0.284557
H303	H	1.734707	-0.302321	-0.034557
H304	H	1.984707	-0.052321	0.215443
C305	C	1.190269	-0.972589	-0.533860
C306	C	1.440269	-0.722589	-0.283860
C307	C	1.690269	-0.472589	-0.033860
C308	C	1.940269	-0.222589	0.216140
C309	C	1.122307	-0.926990	-0.536327
C310	C	1.372307	-0.676990	-0.286327
C311	C	1.622307	-0.426990	-0.036327
C312	C	1.872307	-0.176990	0.213673
H313	H	1.202130	-0.989727	-0.586546
H314	H	1.452130	-0.739727	-0.336546
H315	H	1.702130	-0.489727	-0.086546
H316	H	1.952130	-0.239727	0.163454
H317	H	1.234767	-0.945382	-0.513692
H318	H	1.484767	-0.695382	-0.263692
H319	H	1.734767	-0.445382	-0.013692
H320	H	1.984767	-0.195382	0.236308
H321	H	1.179993	-1.013590	-0.499677
H322	H	1.429993	-0.763590	-0.249677
H323	H	1.679993	-0.513590	0.000323
H324	H	1.929993	-0.263590	0.250323
H325	H	1.132585	-0.885987	-0.570506
H326	H	1.382585	-0.635987	-0.320506
H327	H	1.632585	-0.385987	-0.070506
H328	H	1.882585	-0.135987	0.179494
H329	H	1.077799	-0.954198	-0.556506
H330	H	1.327799	-0.704198	-0.306506
H331	H	1.577799	-0.454198	-0.056506
H332	H	1.827799	-0.204198	0.193494
