data_functionalizedCrystal
_audit_creation_method	'MofGen! by Chris Wilmer'
_symmetry_space_group_name_H-M	'P1'
_symmetry_Int_Tables_number	1
_symmetry_cell_setting	triclinic
loop_
_symmetry_equiv_pos_as_xyz
  x,y,z
_cell_length_a	19.121102
_cell_length_b	19.121175
_cell_length_c	19.121063
_cell_angle_alpha	85.048230
_cell_angle_beta	89.873098
_cell_angle_gamma	85.212968
loop_
_atom_site_label
_atom_site_type_symbol
_atom_site_fract_x
_atom_site_fract_y
_atom_site_fract_z
Zn1	Zn	1.078480	-0.457776	0.345237
Zn2	Zn	1.411813	-0.124442	0.678570
Zn3	Zn	1.745147	0.208891	1.011903
Zn4	Zn	1.068784	-0.344694	0.457452
Zn5	Zn	1.402117	-0.011360	0.790786
Zn6	Zn	1.735451	0.321973	1.124119
Zn7	Zn	0.956233	-0.334686	0.334783
Zn8	Zn	1.289566	-0.001353	0.668116
Zn9	Zn	1.622900	0.331980	1.001450
Zn10	Zn	0.956186	-0.457304	0.457406
Zn11	Zn	1.289519	-0.123971	0.790739
Zn12	Zn	1.622852	0.209363	1.124073
O13	O	1.014921	-0.398615	0.398719
O14	O	1.348254	-0.065282	0.732053
O15	O	1.681587	0.268052	1.065386
O16	O	1.175477	-0.447161	0.364516
O17	O	1.508811	-0.113827	0.697850
O18	O	1.842144	0.219506	1.031183
O19	O	1.049816	-0.244725	0.436824
O20	O	1.383149	0.088608	0.770158
O21	O	1.716482	0.421941	1.103491
O22	O	0.976527	-0.347024	0.237889
O23	O	1.309860	-0.013690	0.571222
O24	O	1.643193	0.319643	0.904556
O25	O	1.168354	-0.364080	0.446961
O26	O	1.501687	-0.030747	0.780294
O27	O	1.835020	0.302587	1.113627
O28	O	1.066341	-0.437457	0.245569
O29	O	1.399674	-0.104124	0.578903
O30	O	1.733008	0.229210	0.912236
O31	O	0.967125	-0.237373	0.346700
O32	O	1.300458	0.095961	0.680033
O33	O	1.633792	0.429294	1.013367
O34	O	0.857943	-0.346566	0.346655
O35	O	1.191276	-0.013233	0.679988
O36	O	1.524610	0.320100	1.013322
O37	O	0.976446	-0.556008	0.446882
O38	O	1.309780	-0.222674	0.780215
O39	O	1.643113	0.110659	1.113549
O40	O	0.857908	-0.436653	0.436746
O41	O	1.191242	-0.103320	0.770079
O42	O	1.524575	0.230014	1.103412
O43	O	1.066295	-0.556354	0.364472
O44	O	1.399629	-0.223021	0.697805
O45	O	1.732962	0.110312	1.031138
O46	O	1.049770	-0.363622	0.555727
O47	O	1.383103	-0.030289	0.889060
O48	O	1.716436	0.303044	1.222393
O49	O	0.967044	-0.446357	0.555693
O50	O	1.300378	-0.113023	0.889026
O51	O	1.633711	0.220310	1.222359
C52	C	0.832442	-0.390473	0.390561
C53	C	1.165775	-0.057140	0.723895
C54	C	1.499109	0.276194	1.057228
C55	C	0.754377	-0.387007	0.387089
C56	C	1.087710	-0.053674	0.720422
C57	C	1.421043	0.279660	1.053756
C58	C	0.717696	-0.432214	0.432428
C59	C	1.051029	-0.098881	0.765761
C60	C	1.384363	0.234453	1.099094
C61	C	0.644346	-0.428961	0.429156
C62	C	0.977679	-0.095627	0.762489
C63	C	1.311013	0.237706	1.095823
C64	C	0.607678	-0.380496	0.380548
C65	C	0.941011	-0.047163	0.713882
C66	C	1.274344	0.286170	1.047215
C67	C	0.644364	-0.335287	0.335205
C68	C	0.977697	-0.001954	0.668538
C69	C	1.311030	0.331379	1.001872
C70	C	0.717713	-0.338545	0.338474
C71	C	1.051046	-0.005211	0.671807
C72	C	1.384379	0.328122	1.005141
C73	C	0.386212	-0.368321	0.368326
C74	C	0.719545	-0.034988	0.701659
C75	C	1.052878	0.298346	1.034992
C76	C	0.312858	-0.365066	0.365061
C77	C	0.646191	-0.031732	0.698395
C78	C	0.979524	0.301601	1.031728
C79	C	0.312845	-0.458740	0.459012
C80	C	0.646179	-0.125407	0.792345
C81	C	0.979512	0.207926	1.125679
C82	C	0.386195	-0.461990	0.462279
C83	C	0.719529	-0.128657	0.795613
C84	C	1.052862	0.204676	1.128946
C85	C	0.422875	-0.416784	0.416933
C86	C	0.756208	-0.083451	0.750267
C87	C	1.089542	0.249883	1.083600
C88	C	0.532702	-0.377168	0.377205
C89	C	0.866035	-0.043835	0.710538
C90	C	1.199369	0.289499	1.043871
C91	C	0.497850	-0.420116	0.420275
C92	C	0.831183	-0.086783	0.753608
C93	C	1.164516	0.246550	1.086941
C94	C	1.022447	-0.582473	0.406838
C95	C	1.355780	-0.249139	0.740171
C96	C	1.689114	0.084194	1.073504
C97	C	1.025654	-0.660822	0.410297
C98	C	1.358988	-0.327488	0.743631
C99	C	1.692321	0.005845	1.076964
C100	C	0.984110	-0.693802	0.365001
C101	C	1.317444	-0.360469	0.698334
C102	C	1.650777	-0.027135	1.031667
C103	C	0.987121	-0.767419	0.368257
C104	C	1.320455	-0.434086	0.701590
C105	C	1.653788	-0.100753	1.034924
C106	C	1.031680	-0.808055	0.416807
C107	C	1.365013	-0.474722	0.750140
C108	C	1.698347	-0.141389	1.083474
C109	C	1.073225	-0.775070	0.462109
C110	C	1.406559	-0.441737	0.795442
C111	C	1.739892	-0.108404	1.128775
C112	C	1.070210	-0.701454	0.458855
C113	C	1.403544	-0.368121	0.792188
C114	C	1.736877	-0.034787	1.125522
C115	C	1.042933	-1.030520	0.428981
C116	C	1.376267	-0.697187	0.762314
C117	C	1.709600	-0.363854	1.095647
C118	C	1.045947	-1.104141	0.432229
C119	C	1.379280	-0.770808	0.765563
C120	C	1.712613	-0.437475	1.098896
C121	C	0.959841	-1.096485	0.338378
C122	C	1.293174	-0.763152	0.671711
C123	C	1.626508	-0.429819	1.005045
C124	C	0.956833	-1.022868	0.335126
C125	C	1.290167	-0.689535	0.668460
C126	C	1.623500	-0.356201	1.001793
C127	C	0.998376	-0.989889	0.380430
C128	C	1.331709	-0.656556	0.713763
C129	C	1.665043	-0.323223	1.047097
C130	C	1.034760	-0.883304	0.420135
C131	C	1.368093	-0.549971	0.753468
C132	C	1.701427	-0.216638	1.086802
C133	C	0.995292	-0.914642	0.377105
C134	C	1.328625	-0.581308	0.710438
C135	C	1.661958	-0.247975	1.043772
C136	C	1.198112	-0.406789	0.406910
C137	C	1.531445	-0.073456	0.740243
C138	C	1.864778	0.259877	1.073577
C139	C	1.276177	-0.410273	0.410400
C140	C	1.609510	-0.076939	0.743733
C141	C	1.942844	0.256394	1.077067
C142	C	1.007370	-0.406040	0.581194
C143	C	1.340703	-0.072707	0.914528
C144	C	1.674036	0.260626	1.247861
C145	C	1.004204	-0.409244	0.659262
C146	C	1.337538	-0.075910	0.992595
C147	C	1.670871	0.257423	1.325928
C148	C	1.007466	-0.215472	0.390584
C149	C	1.340799	0.117861	0.723917
C150	C	1.674133	0.451194	1.057251
C151	C	1.004403	-0.137122	0.386933
C152	C	1.337736	0.196212	0.720266
C153	C	1.671069	0.529545	1.053599
C154	C	1.022521	-0.391177	0.215534
C155	C	1.355854	-0.057843	0.548867
C156	C	1.689187	0.275490	0.882200
C157	C	1.025760	-0.388007	0.137471
C158	C	1.359093	-0.054674	0.470804
C159	C	1.692426	0.278660	0.804137
C160	C	1.045825	-0.367712	0.695936
C161	C	1.379158	-0.034379	1.029269
C162	C	1.712491	0.298955	1.362602
C163	C	1.042852	-0.370729	0.769289
C164	C	1.376185	-0.037396	1.102622
C165	C	1.709519	0.295938	1.435955
C166	C	0.998255	-0.415274	0.805966
C167	C	1.331589	-0.081941	1.139300
C168	C	1.664922	0.251393	1.472633
C169	C	0.956634	-0.456810	0.769287
C170	C	1.289967	-0.123477	1.102621
C171	C	1.623300	0.209856	1.435954
C172	C	0.959610	-0.453797	0.695936
C173	C	1.292943	-0.120463	1.029269
C174	C	1.626277	0.212870	1.362603
C175	C	0.987115	-0.426530	1.027440
C176	C	1.320448	-0.093196	1.360774
C177	C	1.653781	0.240137	1.694107
C178	C	0.984139	-0.429539	1.100797
C179	C	1.317473	-0.096205	1.434130
C180	C	1.650806	0.237128	1.767463
C181	C	1.070359	-0.343458	1.100793
C182	C	1.403693	-0.010124	1.434126
C183	C	1.737026	0.323209	1.767460
C184	C	1.073329	-0.340445	1.027440
C185	C	1.406662	-0.007112	1.360773
C186	C	1.739996	0.326222	1.694107
C187	C	1.031710	-0.381984	0.990768
C188	C	1.365043	-0.048651	1.324101
C189	C	1.698377	0.284683	1.657435
C190	C	0.995214	-0.418357	0.880945
C191	C	1.328548	-0.085024	1.214278
C192	C	1.661881	0.248310	1.547611
C193	C	1.034755	-0.378904	0.915791
C194	C	1.368088	-0.045571	1.249124
C195	C	1.701422	0.287763	1.582458
H196	H	0.747577	-0.301736	0.301551
H197	H	1.080911	0.031597	0.634884
H198	H	1.414244	0.364931	0.968218
H199	H	1.082235	-1.137226	0.471766
H200	H	1.415568	-0.803892	0.805099
H201	H	1.748901	-0.470559	1.138432
F202	F	0.536876	-0.471695	0.472004
F203	F	0.870209	-0.138361	0.805337
F204	F	1.203543	0.194972	1.138670
F205	F	0.936664	-0.476944	1.139830
F206	F	1.269997	-0.143611	1.473163
F207	F	1.603330	0.189723	1.806496
H208	H	0.953225	-0.460351	0.997588
H209	H	1.286559	-0.127018	1.330921
H210	H	1.619892	0.206316	1.664254
H211	H	1.104244	-0.309640	1.130660
H212	H	1.437577	0.023693	1.463993
H213	H	1.770911	0.357026	1.797326
H214	H	1.076752	-1.003678	0.465878
H215	H	1.410086	-0.670345	0.799211
H216	H	1.743419	-0.337011	1.132545
F217	F	0.947752	-0.465764	0.919986
F218	F	1.281085	-0.132430	1.253319
F219	F	1.614418	0.200903	1.586653
H220	H	1.071039	-0.916398	0.459665
H221	H	1.404373	-0.583065	0.792999
H222	H	1.737706	-0.249732	1.126332
H223	H	0.614503	-0.295829	0.295625
H224	H	0.947836	0.037504	0.628958
H225	H	1.281169	0.370837	0.962292
F226	F	0.909174	-0.504223	0.808325
F227	F	1.242507	-0.170890	1.141658
F228	F	1.575841	0.162444	1.474991
H229	H	0.502838	-0.337707	0.337630
H230	H	0.836172	-0.004373	0.670963
H231	H	1.169505	0.328960	1.004296
F232	F	1.120803	-0.293042	0.988411
F233	F	1.454136	0.040291	1.321744
F234	F	1.787470	0.373625	1.655078
H235	H	1.071069	-0.342638	0.885926
H236	H	1.404402	-0.009305	1.219260
H237	H	1.737735	0.324029	1.552593
F238	F	0.756715	-0.483794	0.484166
F239	F	1.090048	-0.150460	0.817500
F240	F	1.423381	0.182873	1.150833
F241	F	0.605311	-0.477077	0.477412
F242	F	0.938644	-0.143743	0.810745
F243	F	1.271978	0.189590	1.144078
F244	F	1.093287	-0.320296	0.656907
F245	F	1.426620	0.013037	0.990240
F246	F	1.759953	0.346371	1.323573
H247	H	0.416046	-0.501454	0.501862
H248	H	0.749379	-0.168120	0.835196
H249	H	1.082712	0.165213	1.168529
F250	F	0.942877	-0.802516	0.320070
F251	F	1.276211	-0.469183	0.653404
F252	F	1.609544	-0.135849	0.986737
H253	H	0.947830	-0.660721	0.325462
H254	H	1.281163	-0.327388	0.658795
H255	H	1.614497	0.005946	0.992129
H256	H	0.282973	-0.495546	0.495929
H257	H	0.616306	-0.162212	0.829262
H258	H	0.949639	0.171121	1.162596
H259	H	0.283005	-0.325604	0.325472
H260	H	0.616338	0.007729	0.658805
H261	H	0.949671	0.341063	0.992138
F262	F	0.909409	-0.979625	0.283451
F263	F	1.242742	-0.646292	0.616785
F264	F	1.576076	-0.312959	0.950118
H265	H	1.109502	-0.808162	0.501643
H266	H	1.442836	-0.474829	0.834976
H267	H	1.776169	-0.141495	1.168309
F268	F	0.425240	-0.320210	0.320062
F269	F	0.758573	0.013124	0.653396
F270	F	1.091906	0.346457	0.986729
F271	F	0.915630	-1.131589	0.290168
F272	F	1.248963	-0.798256	0.623501
F273	F	1.582296	-0.464922	0.956834
H274	H	0.959010	-0.881553	0.337578
H275	H	1.292343	-0.548219	0.670911
H276	H	1.625676	-0.214886	1.004245
F277	F	1.114425	-0.666355	0.507069
F278	F	1.447758	-0.333021	0.840402
F279	F	1.781091	0.000312	1.173735
H280	H	1.076743	-0.336909	0.799145
H281	H	1.410076	-0.003576	1.132479
H282	H	1.743410	0.329758	1.465812
F283	F	0.915314	-0.498002	0.656905
F284	F	1.248647	-0.164669	0.990239
F285	F	1.581981	0.168664	1.323572
