data_functionalizedCrystal
_audit_creation_method	'MofGen! by Chris Wilmer'
_symmetry_space_group_name_H-M	'P1'
_symmetry_Int_Tables_number	1
_symmetry_cell_setting	triclinic
loop_
_symmetry_equiv_pos_as_xyz
  x,y,z
_cell_length_a	19.288840
_cell_length_b	10.654541
_cell_length_c	17.766277
_cell_angle_alpha	89.993913
_cell_angle_beta	89.983415
_cell_angle_gamma	83.804972
loop_
_atom_site_label
_atom_site_type_symbol
_atom_site_fract_x
_atom_site_fract_y
_atom_site_fract_z
O1	O	0.922388	0.156507	-0.062720
O2	O	0.720264	0.177673	-0.062694
O3	O	0.825974	-0.015750	-0.062703
O4	O	0.816678	0.349930	-0.062711
O5	O	0.825955	-0.015760	0.062486
O6	O	0.720245	0.177663	0.062495
O7	O	0.922369	0.156497	0.062469
Cu8	Cu	0.821305	0.167079	0.073913
Cu9	Cu	0.821328	0.167091	-0.074137
O10	O	0.816659	0.349920	0.062478
C11	C	0.694373	0.176992	-0.000096
C12	C	0.617255	0.174963	-0.000086
C13	C	0.581056	0.173994	-0.068328
C14	C	0.508596	0.172074	-0.068337
C15	C	0.472341	0.171098	-0.000100
C16	C	0.508549	0.172074	0.068151
C17	C	0.581006	0.174007	0.068158
C18	C	0.362504	0.094477	0.052170
C19	C	0.290049	0.092536	0.052160
C20	C	0.248858	0.165142	-0.000120
C21	C	0.280133	0.239673	-0.052402
C22	C	0.352590	0.241606	-0.052395
C23	C	0.393773	0.169003	-0.000101
C24	C	0.134090	0.162093	-0.068377
C25	C	0.061628	0.160180	-0.068383
C26	C	0.061583	0.160168	0.068107
C27	C	0.134042	0.162093	0.068111
C28	C	0.170291	0.163049	-0.000133
C29	C	0.825282	-0.062538	-0.000109
C30	C	0.823241	-0.201938	-0.000110
C31	C	0.949647	-0.232635	-0.000117
C32	C	1.011888	-0.313472	-0.000118
C33	C	1.009966	-0.444448	-0.000120
C34	C	0.945796	-0.494589	-0.000123
C35	C	0.883555	-0.413753	-0.000121
C36	C	0.885484	-0.282775	-0.000117
C37	C	0.757151	-0.383056	-0.000120
C38	C	0.759071	-0.252079	-0.000112
C39	C	0.692981	-0.433197	-0.000123
C40	C	0.630738	-0.352360	-0.000115
C41	C	0.632663	-0.221376	-0.000112
C42	C	0.696830	-0.171242	-0.000111
C43	C	0.948260	0.157178	-0.000131
C44	C	1.025378	0.159207	-0.000146
C45	C	0.817351	0.396708	-0.000118
C46	C	0.819392	0.536108	-0.000122
N47	N	0.821295	0.167070	0.178043
N48	N	0.821344	0.167090	-0.178268
C49	C	0.868119	0.081465	0.217426
C50	C	0.868123	0.081459	0.296228
C51	C	0.821309	0.167080	0.335643
C52	C	0.774477	0.252692	0.296251
C53	C	0.774469	0.252687	0.217451
C54	C	0.812759	0.281503	0.460480
C55	C	0.812771	0.281509	0.539278
C56	C	0.821328	0.167095	0.578690
C57	C	0.829887	0.052670	0.539293
C58	C	0.829880	0.052665	0.460492
C59	C	0.821312	0.167095	0.421089
C60	C	0.868159	0.081476	0.703519
C61	C	0.868158	0.081469	0.782322
C62	C	0.774515	0.252713	0.782344
C63	C	0.774513	0.252710	0.703542
C64	C	0.821338	0.167093	0.664134
H65	H	0.246597	0.298801	-0.094971
O66	O	1.074236	-0.264821	-0.000250
C67	C	1.112238	-0.306175	-0.065079
H68	H	1.074739	-0.333195	-0.110395
H69	H	1.142176	-0.226996	-0.086842
H70	H	1.150528	-0.391772	-0.050423
O71	O	0.913714	-0.001739	0.820464
C72	C	0.955028	-0.077320	0.768780
H73	H	0.956050	-0.025837	0.712604
H74	H	1.010405	-0.096728	0.791527
H75	H	0.932037	-0.170511	0.760416
H76	H	1.060648	-0.510267	-0.000128
O77	O	0.729031	0.336037	0.334452
C78	C	0.740921	0.460299	0.315192
H79	H	0.767687	0.460014	0.257967
H80	H	0.689008	0.522386	0.312512
H81	H	0.775681	0.498978	0.359523
O82	O	0.838062	-0.058526	0.422264
C83	C	0.783757	-0.131128	0.441574
H84	H	0.737160	-0.066263	0.463250
H85	H	0.767647	-0.184045	0.389769
H86	H	0.802549	-0.201784	0.487317
O87	O	0.259654	0.019982	0.102841
C88	C	0.223678	-0.068824	0.064294
H89	H	0.246649	-0.084711	0.005502
H90	H	0.229143	-0.161871	0.096545
H91	H	0.166154	-0.031703	0.059665
H92	H	0.836855	-0.040498	0.571379
H93	H	0.163604	0.162885	-0.123945
O94	O	0.944018	-0.621841	-0.000232
C95	C	0.978042	-0.673990	-0.065084
H96	H	1.016059	-0.607463	-0.086697
H97	H	1.007824	-0.769164	-0.050511
H98	H	0.937757	-0.687513	-0.110483
O99	O	0.913624	-0.001831	0.179263
C100	C	0.954965	-0.077371	0.230928
H101	H	0.926488	-0.078646	0.287112
H102	H	0.965080	-0.177715	0.208168
H103	H	1.006755	-0.036838	0.239281
H104	H	0.805779	0.374679	0.428397
H105	H	0.691420	-0.539846	-0.000129
O106	O	0.698611	-0.043991	-0.000207
C107	C	0.664620	0.008196	-0.065052
H108	H	0.626611	-0.058314	-0.086671
H109	H	0.634834	0.103365	-0.050469
H110	H	0.704928	0.021739	-0.110451
H111	H	0.906285	0.011757	0.671431
O112	O	0.568470	-0.401275	-0.000086
C113	C	0.580121	-0.534211	-0.000116
H114	H	0.634171	-0.565293	0.023581
H115	H	0.539018	-0.574206	0.036227
H116	H	0.576594	-0.570631	-0.060178
O117	O	0.572136	-0.143033	-0.000079
C118	C	0.515092	-0.215382	-0.000104
H119	H	0.532244	-0.313250	0.023594
H120	H	0.471432	-0.166817	0.036240
H121	H	0.495473	-0.224582	-0.060165
H122	H	0.378051	0.302294	-0.094963
O123	O	0.729009	0.335714	0.820705
C124	C	0.685831	0.268664	0.866294
H125	H	0.713025	0.170266	0.878097
H126	H	0.675096	0.321135	0.921706
H127	H	0.634457	0.260372	0.835944
O128	O	0.913642	-0.001530	0.334574
C129	C	0.956825	0.065532	0.380115
H130	H	0.929629	0.163929	0.391923
H131	H	0.967571	0.013068	0.435527
H132	H	1.008193	0.073827	0.349721
H133	H	0.479025	0.171283	0.123710
O134	O	0.026573	0.159186	-0.134745
C135	C	0.074107	0.160473	-0.194972
H136	H	0.128437	0.122100	-0.174957
H137	H	0.057310	0.098956	-0.242697
H138	H	0.075010	0.261401	-0.215963
H139	H	0.610479	0.174797	0.123731
O140	O	0.169229	0.163239	0.134383
C141	C	0.203802	0.273075	0.138463
H142	H	0.176839	0.348502	0.099738
H143	H	0.202138	0.309584	0.198821
H144	H	0.260384	0.249955	0.120132
O145	O	0.026464	0.159053	0.134443
C146	C	0.051499	0.050768	0.175952
H147	H	0.106565	0.015919	0.156549
H148	H	0.052306	0.075284	0.238381
H149	H	0.015871	-0.026459	0.166492
O150	O	0.402414	0.023816	0.102985
C151	C	0.359275	-0.042367	0.149131
H152	H	0.308234	-0.052616	0.118568
H153	H	0.386842	-0.139960	0.162328
H154	H	0.347865	0.011954	0.203813
O155	O	0.729007	0.336000	0.665398
C156	C	0.687676	0.411551	0.717082
H157	H	0.716163	0.412838	0.773241
H158	H	0.677558	0.511891	0.694309
H159	H	0.635887	0.371022	0.725487
H160	H	0.951218	-0.125988	-0.000105
O161	O	0.804420	0.392768	0.577429
C162	C	0.796873	0.493752	0.525749
H163	H	0.777620	0.459103	0.469590
H164	H	0.757525	0.572087	0.548528
H165	H	0.849370	0.531723	0.517339
H166	H	0.610565	0.174773	-0.123898
O167	O	0.473533	0.171080	-0.134698
C168	C	0.521062	0.172379	-0.194929
H169	H	0.575395	0.134007	-0.174920
H170	H	0.504264	0.110865	-0.242655
H171	H	0.521961	0.273310	-0.215916
H172	H	0.736339	0.322399	0.185384
