data_functionalizedCrystal
_audit_creation_method	'MofGen! by Chris Wilmer'
_symmetry_space_group_name_H-M	'P1'
_symmetry_Int_Tables_number	1
_symmetry_cell_setting	triclinic
loop_
_symmetry_equiv_pos_as_xyz
  x,y,z
_cell_length_a	31.640172
_cell_length_b	14.628931
_cell_length_c	14.628931
_cell_angle_alpha	60.000000
_cell_angle_beta	90.004023
_cell_angle_gamma	59.998250
loop_
_atom_site_label
_atom_site_type_symbol
_atom_site_fract_x
_atom_site_fract_y
_atom_site_fract_z
Zr1	Zr	0.407183	1.000467	-0.119845
O2	O	0.339693	1.191191	-0.265825
O3	O	0.427872	0.809756	-0.075094
O4	O	0.427872	1.000461	-0.265799
O5	O	0.339693	1.000486	0.075312
O6	O	0.497429	1.000442	-0.265779
O7	O	0.339693	1.000486	-0.075119
O8	O	0.497429	0.659306	0.075358
O9	O	0.339693	1.341623	-0.265825
O10	O	0.488605	0.888179	-0.055993
O11	O	0.436695	0.888194	0.056257
O12	O	0.436696	1.112725	-0.168274
O13	O	0.384786	1.112739	-0.056023
Zr14	Zr	0.518118	1.000438	0.120108
Zr15	Zr	0.518118	1.000437	-0.119813
Zr16	Zr	0.407183	1.000468	0.120076
Zr17	Zr	0.407183	1.240389	-0.119845
Zr18	Zr	0.518118	0.760516	0.120109
O19	O	0.497429	1.191149	0.075357
O20	O	0.497429	1.191148	-0.265780
O21	O	0.339693	1.191192	0.075312
O22	O	0.585607	0.809714	0.266089
O23	O	0.585608	0.809713	-0.075048
O24	O	0.427872	0.809757	0.266043
O25	O	0.585608	1.000419	-0.075049
O26	O	0.497429	1.000444	0.266063
O27	O	0.427872	1.000463	0.266043
O28	O	0.585608	1.000419	0.075383
O29	O	0.427872	1.341599	-0.265800
O30	O	0.497428	0.659306	0.266064
O31	O	0.585607	0.659282	0.266089
O32	O	0.585607	0.659282	0.075384
O33	O	0.339693	1.341623	-0.075120
O34	O	0.427872	1.341599	-0.075094
O35	O	0.488605	0.888180	0.168538
O36	O	0.540515	0.888166	0.056287
O37	O	0.488605	1.112711	-0.055994
O38	O	0.436696	1.112725	0.056257
C39	C	0.462650	0.700347	0.000132
C40	C	0.462650	0.598494	0.000132
C41	C	0.488401	0.553078	-0.055551
C42	C	0.488401	0.447807	-0.055552
C43	C	0.323887	1.000490	0.000092
C44	C	0.276792	1.000503	0.000078
C45	C	0.011882	0.883230	0.058764
C46	C	-0.165103	0.883208	0.058786
O47	O	-0.164944	0.783524	0.108672
N48	N	-0.214329	1.000417	0.000175
C49	C	-0.219308	1.117640	-0.058439
O50	O	-0.265238	1.217333	-0.108282
C51	C	-0.042323	1.117661	-0.058454
C52	C	0.006902	1.000444	0.000151
C53	C	0.061105	0.766022	0.117366
C54	C	0.105349	0.766029	0.117354
C55	C	0.100369	0.883244	0.058742
C56	C	0.051146	1.000451	0.000140
C57	C	-0.047302	1.234883	-0.117062
C58	C	-0.003051	1.234878	-0.117058
C59	C	0.046174	1.117661	-0.058452
C60	C	0.090409	1.117672	-0.058484
N61	N	0.139635	1.000463	0.000127
C62	C	0.144615	0.883248	0.058740
C63	C	-0.312225	1.117621	-0.058429
C64	C	-0.356471	1.117616	-0.058427
C65	C	-0.302263	0.883183	0.058800
C66	C	-0.258017	0.883189	0.058791
C67	C	-0.262999	1.000412	0.000182
C68	C	0.237527	0.883272	0.058711
C69	C	0.281772	0.883289	0.058691
C70	C	0.227560	1.117721	-0.058531
C71	C	0.183319	1.117705	-0.058516
C72	C	0.188306	1.000469	0.000113
O73	O	0.090290	1.217303	-0.108333
O74	O	0.190550	0.783570	0.108595
C75	C	-0.032361	0.883223	0.058775
C76	C	-0.081584	1.000431	0.000173
C77	C	-0.086564	1.117645	-0.058439
C78	C	-0.125830	1.000426	0.000175
C79	C	-0.120851	0.883211	0.058788
C80	C	-0.071625	0.766002	0.117399
C81	C	-0.027381	0.766009	0.117388
C82	C	-0.135790	1.234854	-0.117050
C83	C	-0.180031	1.234838	-0.117036
C84	C	-0.175051	1.117624	-0.058423
C85	C	0.601414	1.000415	0.000172
C86	C	0.648509	1.000402	0.000185
C87	C	0.462651	1.000451	-0.299973
C88	C	0.462651	1.000451	-0.401826
C89	C	0.462651	1.300558	0.000131
C90	C	0.462651	1.402411	0.000131
C91	C	0.436900	1.111841	-0.502934
C92	C	0.436900	1.111843	-0.608205
C93	C	0.462650	1.000453	0.300237
C94	C	0.462650	1.000454	0.402089
C95	C	0.601413	0.700309	0.000172
C96	C	0.648508	0.598443	0.000186
C97	C	0.462650	0.700348	0.300237
C98	C	0.462650	0.598495	0.402090
C99	C	0.601413	0.700310	0.300277
C100	C	0.648508	0.598445	0.402144
C101	C	0.323887	1.300595	-0.300013
C102	C	0.276793	1.402460	-0.401880
C103	C	0.323887	1.300595	0.000091
C104	C	0.276792	1.402461	0.000078
C105	C	0.462651	1.300557	-0.299973
C106	C	0.462651	1.402409	-0.401826
C107	C	0.643528	0.550613	-0.058427
C108	C	0.687775	0.454913	-0.058436
C109	C	0.737001	0.407038	0.000174
C110	C	0.741980	0.454877	0.058789
C111	C	0.697734	0.550583	0.058791
C112	C	0.697725	0.550600	0.391388
C113	C	0.741980	0.454900	0.487093
C114	C	0.737017	0.407040	0.593553
C115	C	0.687794	0.454894	0.604307
C116	C	0.643541	0.550599	0.508603
C117	C	0.227575	1.450316	-0.391124
C118	C	0.183320	1.546046	-0.486829
C119	C	0.188284	1.593912	-0.593289
C120	C	0.237506	1.546051	-0.604043
C121	C	0.281760	1.450330	-0.508339
C122	C	0.281772	1.450301	0.058681
C123	C	0.237526	1.546028	0.058664
C124	C	0.188300	1.593907	0.000050
C125	C	0.183321	1.546063	-0.058560
C126	C	0.227567	1.450344	-0.058549
C127	C	0.488400	0.553079	0.503198
C128	C	0.488401	0.447809	0.608470
H129	H	0.241595	0.787808	0.106454
O130	O	0.784752	0.303803	0.696770
H131	H	0.784724	0.216599	0.747303
O132	O	0.703112	0.602140	0.122037
H133	H	0.684255	0.707713	0.062892
O134	O	0.130225	1.597705	-0.121770
H135	H	0.125715	1.641322	-0.211845
O136	O	0.140551	1.697169	-0.696511
H137	H	0.105495	1.722395	-0.671135
O138	O	0.433437	0.546802	0.063273
H139	H	0.460804	0.441219	0.128015
O140	O	0.682394	0.403324	-0.121653
H141	H	0.701244	0.421709	-0.186444
H142	H	0.782055	0.415947	0.478317
O143	O	0.795077	0.403220	0.122005
H144	H	0.799590	0.483535	0.088147
O145	O	0.682443	0.403251	0.719134
H146	H	0.721487	0.328650	0.783866
H147	H	0.241542	1.585036	-0.690734
O148	O	0.590456	0.602174	0.520209
H149	H	0.594445	0.552792	0.610318
H150	H	0.223524	1.411350	-0.304447
O151	O	0.130234	1.597634	-0.475219
H152	H	0.134222	1.548240	-0.385110
H153	H	0.701777	0.589554	0.304711
H154	H	0.414851	1.207207	-0.694942
O155	O	0.334845	1.398698	-0.519945
H156	H	0.330856	1.448059	-0.610055
H157	H	0.773025	0.329107	0.000164
H158	H	0.510449	0.592123	-0.103219
O159	O	0.433453	0.454139	0.063289
H160	H	0.391797	0.497820	0.029433
O161	O	0.491867	0.874115	-0.390370
H162	H	0.476225	0.817862	-0.343927
H163	H	0.484695	0.905084	-0.511177
H164	H	0.603450	0.589592	-0.106168
H165	H	0.510444	0.592136	0.511825
O166	O	0.433506	0.454006	0.483288
H167	H	0.414668	0.404679	0.491767
O168	O	0.334861	1.398697	0.121888
H169	H	0.339363	1.355118	0.211957
H170	H	0.241590	1.584967	0.106395
H171	H	0.152276	1.671847	0.000050
O172	O	0.517601	0.396089	-0.118714
H173	H	0.559255	0.352434	-0.084863
O174	O	0.517605	0.396088	0.723356
H175	H	0.513020	0.321528	0.788011
H176	H	0.321853	0.787832	0.106418
H177	H	0.223505	1.411395	-0.106268
O178	O	0.433455	0.546753	0.390658
H179	H	0.403527	0.565105	0.431500
H180	H	0.065169	0.670567	0.165101
O181	O	0.158440	0.639603	0.180572
H182	H	0.154461	0.558107	0.221333
H183	H	-0.217938	0.787741	0.106523
H184	H	0.414857	1.207203	-0.511560
H185	H	-0.298215	0.787742	0.106518
H186	H	-0.396549	1.213066	-0.106164
H187	H	-0.087377	1.330334	-0.164783
O188	O	-0.317599	1.244056	-0.121668
H189	H	-0.339091	1.300283	-0.087826
O190	O	-0.008425	1.361313	-0.180282
H191	H	-0.050088	1.442810	-0.221037
H192	H	0.143237	1.213152	-0.106252
O193	O	0.222193	1.244143	-0.121883
H194	H	0.261232	1.224444	-0.112078
H195	H	-0.067577	0.670562	0.165117
O196	O	0.025710	0.639582	0.180603
H197	H	0.021731	0.558086	0.221363
O198	O	-0.233125	1.361272	-0.180255
H199	H	-0.237621	1.417466	-0.146381
O200	O	-0.141165	1.361284	-0.180283
H201	H	-0.182829	1.442775	-0.221040
