data_functionalizedCrystal
_audit_creation_method	'MofGen! by Chris Wilmer'
_symmetry_space_group_name_H-M	'P1'
_symmetry_Int_Tables_number	1
_symmetry_cell_setting	triclinic
loop_
_symmetry_equiv_pos_as_xyz
  x,y,z
_cell_length_a	8.634740
_cell_length_b	10.489716
_cell_length_c	9.565339
_cell_angle_alpha	89.994974
_cell_angle_beta	90.004213
_cell_angle_gamma	92.549721
loop_
_atom_site_label
_atom_site_type_symbol
_atom_site_fract_x
_atom_site_fract_y
_atom_site_fract_z
O1	O	2.050641	0.416414	0.116236
O2	O	1.601305	0.381495	0.116240
O3	O	1.836217	0.214536	0.116243
O4	O	1.815728	0.583373	0.116233
O5	O	1.836197	0.214549	-0.116277
O6	O	1.601285	0.381508	-0.116280
O7	O	2.050620	0.416427	-0.116284
Zn8	Zn	1.825949	0.398969	-0.153200
Zn9	Zn	1.825976	0.398953	0.153155
O10	O	1.815708	0.583386	-0.116287
C11	C	1.543757	0.373591	-0.000020
C12	C	1.372315	0.350005	-0.000018
C13	C	1.834667	0.166833	-0.000013
C14	C	1.830062	0.024671	-0.000000
C15	C	1.974117	-0.056392	-0.000014
C16	C	1.898005	-0.142537	0.114627
C17	C	1.897952	-0.142492	-0.114619
C18	C	1.754010	-0.059601	0.114736
C19	C	1.753978	-0.059549	-0.114614
C20	C	1.677759	-0.145656	0.000056
C21	C	2.108168	0.424331	-0.000022
C22	C	2.279610	0.447917	-0.000015
C23	C	1.817258	0.631089	-0.000028
C24	C	1.821863	0.773251	-0.000032
N25	N	1.825943	0.398981	-0.362279
C26	C	1.718207	0.476998	-0.546653
C27	C	1.685711	0.358106	-0.453424
C28	C	1.858370	0.517856	-0.453439
C29	C	1.793428	0.279973	-0.546587
C30	C	1.966149	0.439806	-0.546611
C31	C	1.933710	0.320837	-0.453424
N32	N	1.825995	0.398932	0.362235
H33	H	1.331401	0.549787	-0.000030
H34	H	1.320517	0.248128	0.000025
H35	H	2.099421	-0.017267	0.000101
C36	C	2.126246	0.486541	-0.601971
N37	N	2.246829	0.521758	-0.643674
C38	C	1.671878	-0.010223	-0.245560
N39	N	1.610047	0.026926	-0.344199
C40	C	1.895401	0.653698	-0.398168
N41	N	1.923282	0.756017	-0.356544
C42	C	1.980172	-0.191843	0.245558
N43	N	2.042071	-0.228980	0.344168
H44	H	1.958785	-0.178944	-0.211537
C45	C	1.508355	-0.198201	0.000139
N46	N	1.380761	-0.237780	0.000209
C47	C	1.671930	-0.010579	0.245828
N48	N	1.610116	0.026348	0.344568
H49	H	1.627015	0.542900	-0.587588
C50	C	1.525561	0.311423	-0.398118
N51	N	1.404932	0.276269	-0.356464
H52	H	1.765884	0.179384	-0.587333
H53	H	2.024844	0.254757	-0.412748
