data_functionalizedCrystal
_audit_creation_method	'MofGen! by Chris Wilmer'
_symmetry_space_group_name_H-M	'P1'
_symmetry_Int_Tables_number	1
_symmetry_cell_setting	triclinic
loop_
_symmetry_equiv_pos_as_xyz
  x,y,z
_cell_length_a	12.837943
_cell_length_b	14.519709
_cell_length_c	12.996460
_cell_angle_alpha	90.005823
_cell_angle_beta	89.991973
_cell_angle_gamma	89.254542
loop_
_atom_site_label
_atom_site_type_symbol
_atom_site_fract_x
_atom_site_fract_y
_atom_site_fract_z
O1	O	1.375881	0.239786	0.085553
O2	O	1.074054	0.227941	0.085559
O3	O	1.232970	0.100316	0.085547
O4	O	1.216965	0.367410	0.085566
O5	O	1.232990	0.100310	-0.085587
O6	O	1.074074	0.227935	-0.085575
O7	O	1.375902	0.239780	-0.085580
Cu8	Cu	1.224990	0.233856	-0.101203
Cu9	Cu	1.224966	0.233864	0.101182
O10	O	1.216985	0.367404	-0.085568
C11	C	1.035436	0.223936	-0.000007
C12	C	0.920337	0.212002	-0.000005
C13	C	1.232234	0.065889	-0.000020
C14	C	1.229999	-0.036685	-0.000021
C15	C	0.679644	0.355473	-0.000010
C16	C	0.571498	0.344264	-0.000009
C17	C	0.595895	0.178376	-0.000010
C18	C	0.704041	0.189585	-0.000011
C19	C	0.745912	0.278136	-0.000009
C20	C	0.854061	0.289344	-0.000003
C21	C	0.878456	0.123458	-0.000011
C22	C	0.770309	0.112249	-0.000010
C23	C	1.221770	-0.412292	0.000006
C24	C	1.224055	-0.307787	-0.000002
C25	C	1.225884	-0.224492	-0.000008
C26	C	1.228170	-0.119980	-0.000014
C27	C	1.414519	0.243784	-0.000012
C28	C	1.529619	0.255718	-0.000007
C29	C	1.217721	0.401831	0.000001
C30	C	1.219956	0.504406	0.000008
N31	N	1.224949	0.233863	0.243529
N32	N	1.225014	0.233851	-0.243551
C33	C	1.224952	0.233864	0.336635
C34	C	1.224967	0.233863	0.453440
C35	C	1.224984	0.233858	0.546539
C36	C	1.224997	0.233856	0.663351
H37	H	0.713736	0.427574	-0.000007
C38	C	0.499721	0.428345	0.000048
C39	C	0.559543	0.508288	0.000074
C40	C	0.493458	0.585764	0.000139
H41	H	0.457009	0.427546	-0.059612
H42	H	0.457035	0.427477	0.059752
H43	H	0.602211	0.509156	-0.059623
H44	H	0.602252	0.509117	0.059730
H45	H	0.450772	0.584896	0.059843
H46	H	0.450750	0.584956	-0.059522
H47	H	0.534037	0.640014	0.000167
C48	C	0.899323	0.385558	-0.000056
C49	C	0.818136	0.450885	-0.000087
C50	C	0.859788	0.539528	-0.000153
H51	H	0.940980	0.393518	0.059605
H52	H	0.940983	0.393418	-0.059759
H53	H	0.776494	0.443028	0.059610
H54	H	0.776472	0.442955	-0.059744
H55	H	0.901447	0.547389	-0.059856
H56	H	0.901444	0.547479	0.059509
H57	H	0.804709	0.583864	-0.000183
H58	H	0.561784	0.106282	-0.000096
H59	H	0.736203	0.040153	-0.000023
H60	H	0.932423	0.060484	-0.000003
