data_functionalizedCrystal
_audit_creation_method	'MofGen! by Chris Wilmer'
_symmetry_space_group_name_H-M	'P1'
_symmetry_Int_Tables_number	1
_symmetry_cell_setting	triclinic
loop_
_symmetry_equiv_pos_as_xyz
  x,y,z
_cell_length_a	23.532407
_cell_length_b	23.532409
_cell_length_c	11.295483
_cell_angle_alpha	94.072292
_cell_angle_beta	85.925856
_cell_angle_gamma	82.849119
loop_
_atom_site_label
_atom_site_type_symbol
_atom_site_fract_x
_atom_site_fract_y
_atom_site_fract_z
O1	O	0.759112	0.065284	-0.098868
O2	O	1.259112	0.565284	0.401132
O3	O	0.593250	0.075286	-0.098902
O4	O	1.093250	0.575286	0.401098
O5	O	0.681182	-0.012647	-0.098886
O6	O	1.181182	0.487353	0.401114
O7	O	0.671180	0.153216	-0.098885
O8	O	1.171180	0.653216	0.401115
O9	O	0.673459	-0.004935	0.099163
O10	O	1.173459	0.495065	0.599163
O11	O	0.585527	0.082997	0.099147
O12	O	1.085527	0.582997	0.599147
O13	O	0.751389	0.072995	0.099181
O14	O	1.251389	0.572995	0.599181
Cu15	Cu	0.667752	0.078700	0.117247
Cu16	Cu	1.167752	0.578700	0.617247
Cu17	Cu	0.676886	0.069581	-0.116969
Cu18	Cu	1.176886	0.569581	0.383031
O19	O	0.663457	0.160928	0.099164
O20	O	1.163457	0.660928	0.599164
C21	C	0.568172	0.078886	0.000118
C22	C	1.068172	0.578886	0.500118
C23	C	0.504956	0.078120	0.000105
C24	C	1.004956	0.578120	0.500105
C25	C	0.677065	-0.030007	0.000136
C26	C	1.177065	0.469993	0.500136
C27	C	0.676299	-0.093225	0.000127
C28	C	1.176299	0.406775	0.500127
C29	C	0.677251	-0.370673	-0.107836
C30	C	1.177251	0.129327	0.392164
C31	C	0.677962	-0.311273	-0.107836
C32	C	1.177962	0.188727	0.392164
O33	O	0.681930	-0.284123	-0.199645
O34	O	1.181930	0.215877	0.300355
N35	N	0.674104	-0.277368	0.000123
N36	N	1.174104	0.222632	0.500123
C37	C	0.669541	-0.302866	0.108089
C38	C	1.169541	0.197134	0.608089
O39	O	0.666325	-0.268572	0.199916
O40	O	1.166325	0.231428	0.699916
C41	C	0.668833	-0.362265	0.108087
C42	C	1.168833	0.137735	0.608087
C43	C	0.672685	-0.396167	0.000122
C44	C	1.172685	0.103833	0.500122
C45	C	0.681103	-0.404575	-0.215792
C46	C	1.181103	0.095425	0.284208
C47	C	0.680390	-0.463971	-0.215792
C48	C	1.180390	0.036029	0.284208
C49	C	0.675825	-0.489465	-0.107835
C50	C	1.175825	0.010535	0.392165
C51	C	0.671973	-0.455563	0.000122
C52	C	1.171973	0.044437	0.500122
C53	C	0.664273	-0.387763	0.216052
C54	C	1.164273	0.112237	0.716052
C55	C	0.663567	-0.447167	0.216041
C56	C	1.163567	0.052833	0.716041
C57	C	0.667419	-0.481069	0.108076
C58	C	1.167419	0.018931	0.608076
C59	C	0.666695	-0.540453	0.108080
C60	C	1.166695	-0.040453	0.608080
N61	N	0.670552	-0.574359	0.000122
N62	N	1.170552	-0.074359	0.500122
C63	C	0.675118	-0.548865	-0.107836
C64	C	1.175118	-0.048865	0.392164
C65	C	0.671028	-0.178123	0.108083
C66	C	1.171028	0.321877	0.608083
C67	C	0.671731	-0.118723	0.108085
C68	C	1.171731	0.381277	0.608085
C69	C	0.680154	-0.127135	-0.107840
C70	C	1.180154	0.372865	0.392160
C71	C	0.679446	-0.186535	-0.107841
C72	C	1.179446	0.313465	0.392159
C73	C	0.674885	-0.212028	0.000124
C74	C	1.174885	0.287972	0.500124
C75	C	0.673620	-0.673600	-0.107826
C76	C	1.173620	-0.173600	0.392174
C77	C	0.672905	-0.733001	-0.107816
C78	C	1.172905	-0.233001	0.392184
C79	C	0.664485	-0.724584	0.108108
C80	C	1.164485	-0.224584	0.608108
C81	C	0.665197	-0.665189	0.108098
C82	C	1.165197	-0.165189	0.608098
C83	C	0.669767	-0.639699	0.000122
C84	C	1.169767	-0.139699	0.500122
O85	O	0.662730	-0.567643	0.199843
O86	O	1.162730	-0.067643	0.699843
O87	O	0.678340	-0.583166	-0.199647
O88	O	1.178340	-0.083166	0.300353
C89	C	0.105851	0.125356	0.000159
C90	C	0.605851	0.625356	0.500159
C91	C	0.046450	0.124644	0.000166
C92	C	0.546450	0.624644	0.500166
O93	O	0.009705	0.168432	0.000210
O94	O	0.509705	0.668432	0.500210
N95	N	0.023824	0.072368	0.000164
N96	N	0.523824	0.572368	0.500164
C97	C	0.060601	0.020800	0.000166
C98	C	0.560601	0.520800	0.500166
O99	O	0.035901	-0.023730	0.000166
O100	O	0.535901	0.476270	0.500166
C101	C	0.120000	0.021512	0.000168
C102	C	0.620000	0.521512	0.500168
C103	C	0.142624	0.073791	0.000158
C104	C	0.642624	0.573791	0.500158
C105	C	0.128475	0.177631	0.000150
C106	C	0.628475	0.677631	0.500150
C107	C	0.187871	0.178342	0.000141
C108	C	0.687871	0.678342	0.500141
C109	C	0.224644	0.126777	0.000140
C110	C	0.724644	0.626777	0.500140
C111	C	0.202020	0.074502	0.000148
C112	C	0.702020	0.574502	0.500148
C113	C	0.156776	-0.030055	0.000179
C114	C	0.656776	0.469945	0.500179
C115	C	0.216178	-0.029338	0.000181
C116	C	0.716178	0.470662	0.500181
C117	C	0.238802	0.022941	0.000171
C118	C	0.738802	0.522941	0.500171
C119	C	0.298189	0.023649	0.000138
C120	C	0.798189	0.523649	0.500138
N121	N	0.320816	0.075925	0.000140
N122	N	0.820816	0.575925	0.500140
C123	C	0.284043	0.127489	0.000141
C124	C	0.784043	0.627489	0.500141
C125	C	-0.064141	0.019309	0.000166
C126	C	0.435859	0.519309	0.500166
C127	C	-0.123539	0.018596	0.000156
C128	C	0.376461	0.518596	0.500156
C129	C	-0.137686	0.122440	0.000158
C130	C	0.362314	0.622440	0.500158
C131	C	-0.078287	0.123152	0.000159
C132	C	0.421713	0.623152	0.500159
C133	C	-0.041515	0.071585	0.000168
C134	C	0.458485	0.571585	0.500168
C135	C	0.408781	0.128978	0.000120
C136	C	0.908781	0.628978	0.500120
C137	C	0.468183	0.129684	0.000106
C138	C	0.968183	0.629684	0.500106
C139	C	0.482324	0.025840	0.000110
C140	C	0.982324	0.525840	0.500110
C141	C	0.422927	0.025133	0.000118
C142	C	0.922927	0.525133	0.500118
C143	C	0.386156	0.076707	0.000127
C144	C	0.886156	0.576707	0.500127
O145	O	0.334970	-0.020116	0.000099
O146	O	0.834970	0.479884	0.500099
O147	O	0.308751	0.172013	0.000157
O148	O	0.808751	0.672013	0.500157
C149	C	0.776466	0.069394	0.000158
C150	C	1.276466	0.569394	0.500158
C151	C	0.839683	0.070160	0.000163
C152	C	1.339683	0.570160	0.500163
C153	C	0.667573	0.178288	0.000140
C154	C	1.167573	0.678288	0.500140
C155	C	0.668339	0.241505	0.000141
C156	C	1.168339	0.741505	0.500141
N157	N	0.661333	0.085114	0.281983
N158	N	1.161333	0.585114	0.781983
N159	N	0.683310	0.063162	-0.281704
N160	N	1.183310	0.563162	0.218296
C161	C	0.729525	0.016959	0.531285
C162	C	1.229525	0.516959	1.031285
C163	C	0.724677	0.021810	0.655948
C164	C	1.224677	0.521810	1.155948
C165	C	0.646787	0.099664	0.655973
C166	C	1.146787	0.599664	1.155973
C167	C	0.651635	0.094813	0.531310
C168	C	1.151635	0.594813	1.031310
C169	C	0.693006	0.053460	0.468971
C170	C	1.193006	0.553460	0.968971
C171	C	0.697855	0.048612	0.344305
C172	C	1.197855	0.548612	0.844305
C173	C	0.619964	0.126463	0.344333
C174	C	1.119964	0.626463	0.844333
C175	C	0.615116	0.131314	0.468996
C176	C	1.115116	0.631314	0.968996
H177	H	0.676040	-0.760602	-0.195739
H178	H	1.176040	-0.260602	0.304261
Cl179	Cl	0.659424	-0.345156	0.351789
Cl180	Cl	1.159424	0.154844	0.851789
H181	H	0.246115	-0.071332	0.000189
H182	H	0.746115	0.428668	0.500189
H183	H	0.404507	-0.017437	0.000109
H184	H	0.904507	0.482563	0.500109
Cl185	Cl	0.528563	-0.038980	0.000114
Cl186	Cl	1.028563	0.461020	0.500114
Cl187	Cl	-0.017919	-0.045527	0.000163
Cl188	Cl	0.482081	0.454473	0.500163
Cl189	Cl	0.657835	-0.479212	0.351778
Cl190	Cl	1.157835	0.020788	0.851778
Cl191	Cl	0.781538	-0.035021	0.452913
Cl192	Cl	1.281538	0.464979	0.952913
Cl193	Cl	0.574055	0.172355	0.265984
Cl194	Cl	1.074055	0.672355	0.765984
H195	H	0.731543	0.014941	0.293550
H196	H	1.231543	0.514941	0.793550
H197	H	0.206286	0.220913	0.000132
H198	H	0.706286	0.720913	0.500132
H199	H	0.581431	0.164982	0.519767
H200	H	1.081431	0.664982	1.019767
Cl201	Cl	0.660354	-0.622568	0.243828
Cl202	Cl	1.160354	-0.122568	0.743828
Cl203	Cl	0.666874	-0.076109	0.243819
Cl204	Cl	1.166874	0.423891	0.743819
H205	H	0.677342	-0.652854	-0.195751
H206	H	1.177342	-0.152854	0.304249
H207	H	0.754414	-0.007913	0.706680
H208	H	1.254414	0.492087	1.206680
H209	H	-0.059871	0.165723	0.000158
H210	H	0.440129	0.665723	0.500158
Cl211	Cl	0.685241	-0.506584	-0.351528
Cl212	Cl	1.185241	-0.006584	0.148472
H213	H	-0.141953	-0.023976	0.000145
H214	H	0.358047	0.476024	0.500145
Cl215	Cl	0.686843	-0.372537	-0.351529
Cl216	Cl	1.186843	0.127463	0.148471
Cl217	Cl	0.684291	-0.229149	-0.243574
Cl218	Cl	1.184291	0.270851	0.256426
Cl219	Cl	0.594776	0.151643	0.734355
Cl220	Cl	1.094776	0.651643	1.234355
Cl221	Cl	-0.183925	0.187265	0.000166
Cl222	Cl	0.316075	0.687265	0.500166
H223	H	0.660766	-0.745352	0.196004
H224	H	1.160766	-0.245352	0.696004
H225	H	0.138367	-0.072626	0.000188
H226	H	0.638367	0.427374	0.500188
Cl227	Cl	0.496620	0.195412	0.000090
Cl228	Cl	0.996620	0.695412	0.500090
Cl229	Cl	0.362563	0.193815	0.000130
Cl230	Cl	0.862563	0.693815	0.500130
Cl231	Cl	0.082256	0.242463	0.000149
Cl232	Cl	0.582256	0.742463	0.500149
H233	H	0.683869	-0.106367	-0.195745
H234	H	1.183869	0.393633	0.304255
H235	H	0.667309	-0.198874	0.196006
H236	H	1.167309	0.301126	0.696006
