data_functionalizedCrystal
_audit_creation_method	'MofGen! by Chris Wilmer'
_symmetry_space_group_name_H-M	'P1'
_symmetry_Int_Tables_number	1
_symmetry_cell_setting	triclinic
loop_
_symmetry_equiv_pos_as_xyz
  x,y,z
_cell_length_a	19.188933
_cell_length_b	17.666332
_cell_length_c	19.288865
_cell_angle_alpha	90.011714
_cell_angle_beta	83.140908
_cell_angle_gamma	90.007939
loop_
_atom_site_label
_atom_site_type_symbol
_atom_site_fract_x
_atom_site_fract_y
_atom_site_fract_z
O1	O	0.926142	0.062932	0.086724
O2	O	1.259475	0.396265	0.420058
O3	O	1.592809	0.729598	0.753391
O4	O	0.722830	0.062940	0.098397
O5	O	1.056163	0.396273	0.431730
O6	O	1.389497	0.729607	0.765063
O7	O	0.830361	0.062921	-0.008569
O8	O	1.163694	0.396254	0.324764
O9	O	1.497028	0.729587	0.658097
O10	O	0.818611	0.062951	0.193690
O11	O	1.151945	0.396284	0.527024
O12	O	1.485278	0.729618	0.860357
O13	O	0.830342	-0.062976	-0.008575
O14	O	1.163675	0.270357	0.324758
O15	O	1.497009	0.603691	0.658092
O16	O	0.722811	-0.062957	0.098391
O17	O	1.056145	0.270377	0.431724
O18	O	1.389478	0.603710	0.765058
O19	O	0.926123	-0.062965	0.086719
O20	O	1.259457	0.270368	0.420052
O21	O	1.592790	0.603702	0.753385
Cu22	Cu	0.824466	-0.074456	0.092554
Cu23	Cu	1.157799	0.258877	0.425888
Cu24	Cu	1.491132	0.592210	0.759221
Cu25	Cu	0.824488	0.074431	0.092561
Cu26	Cu	1.157821	0.407765	0.425894
Cu27	Cu	1.491155	0.741098	0.759228
O28	O	0.818593	-0.062946	0.193685
O29	O	1.151926	0.270388	0.527018
O30	O	1.485259	0.603721	0.860351
C31	C	0.696810	-0.000008	0.098015
C32	C	1.030143	0.333326	0.431349
C33	C	1.363476	0.666659	0.764682
C34	C	0.619305	-0.000005	0.096880
C35	C	0.952639	0.333328	0.430213
C36	C	1.285972	0.666662	0.763547
N37	N	0.824455	-0.179176	0.092549
N38	N	1.157788	0.154158	0.425882
N39	N	1.491122	0.487491	0.759216
C40	C	0.066061	0.068612	0.088780
C41	C	0.399394	0.401945	0.422113
C42	C	0.732728	0.735279	0.755447
C43	C	0.138885	0.068615	0.089843
C44	C	0.472218	0.401948	0.423176
C45	C	0.805552	0.735282	0.756509
C46	C	0.175292	-0.000011	0.090374
C47	C	0.508625	0.333322	0.423708
C48	C	0.841958	0.666656	0.757041
C49	C	0.138871	-0.068645	0.089825
C50	C	0.472204	0.264688	0.423158
C51	C	0.805537	0.598021	0.756492
C52	C	0.066049	-0.068646	0.088756
C53	C	0.399382	0.264687	0.422089
C54	C	0.732715	0.598020	0.755422
N55	N	0.284301	-0.051086	0.131576
N56	N	0.617634	0.282247	0.464910
N57	N	0.950968	0.615580	0.798243
N58	N	0.353479	-0.051081	0.132594
N59	N	0.686812	0.282253	0.465927
N60	N	1.020145	0.615586	0.799260
C61	C	0.394700	-0.000012	0.093595
C62	C	0.728034	0.333321	0.426929
C63	C	1.061367	0.666655	0.760262
N64	N	0.364130	0.051063	0.053550
N65	N	0.697463	0.384396	0.386883
N66	N	1.030796	0.717729	0.720216
N67	N	0.294945	0.051059	0.052535
N68	N	0.628279	0.384392	0.385868
N69	N	0.961612	0.717726	0.719202
C70	C	0.254255	-0.000017	0.091534
C71	C	0.587588	0.333316	0.424867
C72	C	0.920922	0.666649	0.758200
C73	C	0.510077	0.068621	0.095292
C74	C	0.843411	0.401955	0.428625
C75	C	1.176744	0.735288	0.761958
C76	C	0.582904	0.068622	0.096350
C77	C	0.916237	0.401955	0.429683
C78	C	1.249570	0.735288	0.763017
C79	C	0.582887	-0.068641	0.096339
C80	C	0.916220	0.264693	0.429673
C81	C	1.249554	0.598026	0.763006
C82	C	0.510063	-0.068639	0.095274
C83	C	0.843396	0.264694	0.428607
C84	C	1.176730	0.598028	0.761941
C85	C	0.473662	-0.000006	0.094754
C86	C	0.806996	0.333328	0.428087
C87	C	1.140329	0.666661	0.761420
C88	C	0.872085	-0.218794	0.045208
C89	C	1.205418	0.114539	0.378541
C90	C	1.538752	0.447873	0.711874
C91	C	0.872089	-0.298042	0.045204
C92	C	1.205422	0.035292	0.378538
C93	C	1.538756	0.368625	0.711871
C94	C	0.824470	-0.337668	0.092554
C95	C	1.157803	-0.004335	0.425888
C96	C	1.491137	0.328999	0.759221
C97	C	0.776831	-0.298040	0.139899
C98	C	1.110164	0.035293	0.473233
C99	C	1.443498	0.368627	0.806566
C100	C	0.776824	-0.218794	0.139897
C101	C	1.110157	0.114539	0.473230
C102	C	1.443490	0.447873	0.806563
N103	N	0.815389	-0.462077	0.154042
N104	N	1.148722	-0.128744	0.487375
N105	N	1.482056	0.204590	0.820709
N106	N	0.815400	-0.537357	0.154042
N107	N	1.148734	-0.204024	0.487376
N108	N	1.482067	0.129309	0.820709
C109	C	0.824488	-0.576432	0.092564
C110	C	1.157822	-0.243099	0.425897
C111	C	1.491155	0.090235	0.759231
N112	N	0.833578	-0.537382	0.031084
N113	N	1.166912	-0.204049	0.364417
N114	N	1.500245	0.129285	0.697750
N115	N	0.833571	-0.462094	0.031084
N116	N	1.166904	-0.128761	0.364417
N117	N	1.500237	0.204572	0.697751
C118	C	0.824472	-0.423597	0.092562
C119	C	1.157806	-0.090264	0.425896
C120	C	1.491139	0.243070	0.759229
C121	C	0.872125	-0.701979	0.045215
C122	C	1.205459	-0.368646	0.378548
C123	C	1.538792	-0.035313	0.711882
C124	C	0.872124	-0.781229	0.045211
C125	C	1.205458	-0.447895	0.378544
C126	C	1.538791	-0.114562	0.711877
C127	C	0.776870	-0.781225	0.139912
C128	C	1.110203	-0.447892	0.473245
C129	C	1.443536	-0.114559	0.806579
C130	C	0.776867	-0.701978	0.139910
C131	C	1.110200	-0.368645	0.473244
C132	C	1.443534	-0.035311	0.806577
C133	C	0.824499	-0.662360	0.092563
C134	C	1.157832	-0.329026	0.425896
C135	C	1.491165	0.004307	0.759229
C136	C	0.952144	-0.000016	0.087100
C137	C	1.285477	0.333318	0.420433
C138	C	1.618810	0.666651	0.753766
C139	C	1.029648	-0.000013	0.088235
C140	C	1.362981	0.333320	0.421568
C141	C	1.696315	0.666653	0.754902
C142	C	0.829973	-0.000030	-0.034449
C143	C	1.163307	0.333303	0.298885
C144	C	1.496640	0.666637	0.632218
C145	C	0.828839	-0.000037	-0.111552
C146	C	1.162172	0.333297	0.221781
C147	C	1.495505	0.666630	0.555114
N148	N	0.824504	0.179151	0.092561
N149	N	1.157837	0.512484	0.425894
N150	N	1.491171	0.845817	0.759227
C151	C	0.891933	-0.000043	-0.156244
C152	C	1.225266	0.333290	0.177090
C153	C	1.558599	0.666624	0.510423
C154	C	0.890867	-0.000031	-0.228691
C155	C	1.224200	0.333303	0.104643
C156	C	1.557533	0.666636	0.437976
C157	C	0.826703	-0.000028	-0.256443
C158	C	1.160036	0.333306	0.076890
C159	C	1.493369	0.666639	0.410223
C160	C	0.763600	-0.000017	-0.211742
C161	C	1.096933	0.333316	0.121591
C162	C	1.430267	0.666649	0.454924
C163	C	0.764668	-0.000022	-0.139297
C164	C	1.098001	0.333312	0.194036
C165	C	1.431335	0.666645	0.527370
C166	C	0.776256	-0.044125	-0.364737
C167	C	1.109589	0.289209	-0.031404
C168	C	1.442922	0.622542	0.301930
C169	C	0.775190	-0.044125	-0.437182
C170	C	1.108524	0.289208	-0.103848
C171	C	1.441857	0.622542	0.229485
C172	C	0.823406	-0.000011	-0.479889
C173	C	1.156739	0.333323	-0.146556
C174	C	1.490073	0.666656	0.186777
C175	C	0.872699	0.044094	-0.450145
C176	C	1.206032	0.377427	-0.116812
C177	C	1.539365	0.710761	0.216521
C178	C	0.873767	0.044090	-0.377700
C179	C	1.207100	0.377423	-0.044366
C180	C	1.540433	0.710756	0.288967
C181	C	0.825537	-0.000022	-0.334998
C182	C	1.158871	0.333311	-0.001664
C183	C	1.492204	0.666644	0.331669
C184	C	0.885348	-0.000003	-0.603137
C185	C	1.218682	0.333331	-0.269803
C186	C	1.552015	0.666664	0.063530
C187	C	0.884279	0.000014	-0.675585
C188	C	1.217613	0.333347	-0.342251
C189	C	1.550946	0.666681	-0.008918
C190	C	0.757011	0.000020	-0.658635
C191	C	1.090345	0.333353	-0.325302
C192	C	1.423678	0.666687	0.008032
C193	C	0.758082	0.000011	-0.586188
C194	C	1.091415	0.333344	-0.252855
C195	C	1.424749	0.666677	0.080478
C196	C	0.822252	-0.000004	-0.558444
C197	C	1.155586	0.333329	-0.225110
C198	C	1.488919	0.666662	0.108223
C199	C	0.818980	0.000007	0.219564
C200	C	1.152313	0.333340	0.552897
C201	C	1.485647	0.666673	0.886231
C202	C	0.820115	0.000018	0.296668
C203	C	1.153448	0.333352	0.630001
C204	C	1.486782	0.666685	0.963334
H205	H	0.036428	0.124498	0.088353
H206	H	0.369762	0.457832	0.421687
H207	H	0.703095	0.791165	0.755020
H208	H	0.913901	0.080002	-0.353485
H209	H	1.247235	0.413336	-0.020152
H210	H	1.580568	0.746669	0.313182
O211	O	0.722026	-0.091694	-0.469257
O212	O	1.055360	0.241640	-0.135924
O213	O	1.388693	0.574973	0.197409
H214	H	0.749781	-0.133122	-0.506027
H215	H	1.083114	0.200212	-0.172694
H216	H	1.416447	0.533545	0.160640
H217	H	0.480439	0.124507	0.094866
H218	H	0.813772	0.457840	0.428199
H219	H	1.147105	0.791173	0.761532
H220	H	0.612550	0.124507	0.096788
H221	H	0.945884	0.457840	0.430122
H222	H	1.279217	0.791173	0.763455
O223	O	0.622142	-0.142662	0.096915
O224	O	0.955475	0.190671	0.430248
O225	O	1.288808	0.524004	0.763581
H226	H	0.678897	-0.131134	0.097754
H227	H	1.012230	0.202199	0.431088
H228	H	1.345564	0.535533	0.764421
H229	H	0.711357	-0.000013	-0.234343
H230	H	1.044691	0.333320	0.098990
H231	H	1.378024	0.666654	0.432323
O232	O	0.952337	0.000010	-0.723788
O233	O	1.285671	0.333343	-0.390455
O234	O	1.619004	0.666676	-0.057122
H235	H	0.940816	0.000025	-0.778826
H236	H	1.274150	0.333359	-0.445493
H237	H	1.607483	0.666692	-0.112160
H238	H	0.738085	-0.669718	0.178463
H239	H	1.071418	-0.336385	0.511796
H240	H	1.404752	-0.003052	0.845129
O241	O	0.724249	-0.091714	-0.318680
O242	O	1.057583	0.241619	0.014653
O243	O	1.390916	0.574952	0.347987
H244	H	0.733269	-0.084305	-0.263307
H245	H	1.066602	0.249029	0.070026
H246	H	1.399935	0.582362	0.403359
H247	H	0.910868	-0.186539	0.006653
H248	H	1.244201	0.146794	0.339986
H249	H	1.577534	0.480128	0.673320
O250	O	0.961142	-0.000038	-0.126317
O251	O	1.294475	0.333296	0.207017
O252	O	1.627808	0.666629	0.540350
H253	H	1.004836	-0.000029	-0.169570
H254	H	1.338170	0.333304	0.163764
H255	H	1.671503	0.666638	0.497097
O256	O	0.725482	-0.340779	0.190981
O257	O	1.058816	-0.007446	0.524314
O258	O	1.392149	0.325888	0.857647
H259	H	0.692360	-0.299912	0.223902
H260	H	1.025693	0.033421	0.557235
H261	H	1.359026	0.366754	0.890569
O262	O	0.923476	-0.659229	-0.005860
O263	O	1.256809	-0.325896	0.327473
O264	O	1.590143	0.007438	0.660806
H265	H	0.977881	-0.674416	0.002840
H266	H	1.311214	-0.341083	0.336173
H267	H	1.644548	-0.007749	0.669506
H268	H	0.480415	-0.124521	0.094833
H269	H	0.813748	0.208812	0.428166
H270	H	1.147082	0.542146	0.761499
O271	O	0.687806	0.000022	-0.688562
O272	O	1.021139	0.333356	-0.355229
O273	O	1.354472	0.666689	-0.021895
H274	H	0.644110	0.000027	-0.645310
H275	H	0.977443	0.333360	-0.311977
H276	H	1.310777	0.666693	0.021357
H277	H	0.168518	-0.124521	0.090257
H278	H	0.501851	0.208812	0.423590
H279	H	0.835185	0.542146	0.756923
H280	H	0.942247	-0.000033	-0.265085
H281	H	1.275580	0.333300	0.068248
H282	H	1.608914	0.666634	0.401581
O283	O	0.923470	-0.340788	-0.005851
O284	O	1.256803	-0.007455	0.327482
O285	O	1.590137	0.325879	0.660816
H286	H	0.956593	-0.299925	-0.038771
H287	H	1.289926	0.033408	0.294563
H288	H	1.623260	0.366741	0.627896
O289	O	0.696614	-0.000028	-0.091087
O290	O	1.029948	0.333305	0.242246
O291	O	1.363281	0.666639	0.575580
H292	H	0.651816	-0.000029	-0.122553
H293	H	0.985149	0.333304	0.210781
H294	H	1.318482	0.666637	0.544114
H295	H	0.706704	0.000012	-0.549800
H296	H	1.040037	0.333345	-0.216466
H297	H	1.373370	0.666678	0.116867
H298	H	0.911960	0.080016	-0.484917
H299	H	1.245294	0.413350	-0.151584
H300	H	1.578627	0.746683	0.181750
H301	H	0.738037	-0.186536	0.178449
H302	H	1.071370	0.146797	0.511782
H303	H	1.404703	0.480131	0.845115
O304	O	0.923506	-0.823966	-0.005845
O305	O	1.256840	-0.490633	0.327488
O306	O	1.590173	-0.157299	0.660821
H307	H	0.956631	-0.783100	-0.038760
H308	H	1.289964	-0.449767	0.294574
H309	H	1.623297	-0.116433	0.627907
O310	O	0.725510	-0.823942	0.190997
O311	O	1.058844	-0.490608	0.524331
O312	O	1.392177	-0.157275	0.857664
H313	H	0.691668	-0.860070	0.161856
H314	H	1.025001	-0.526737	0.495190
H315	H	1.358335	-0.193404	0.828523
O316	O	0.178172	0.142634	0.090439
O317	O	0.511505	0.475967	0.423772
O318	O	0.844839	0.809301	0.757106
H319	H	0.140625	0.190358	0.089902
H320	H	0.473958	0.523691	0.423236
H321	H	0.807292	0.857024	0.756569
O322	O	0.026680	-0.142616	0.088232
O323	O	0.360013	0.190717	0.421566
O324	O	0.693346	0.524051	0.754899
H325	H	0.046944	-0.175608	0.041126
H326	H	0.380277	0.157725	0.374459
H327	H	0.713610	0.491058	0.707793
O328	O	0.954556	-0.000004	-0.573203
O329	O	1.287889	0.333330	-0.239870
O330	O	1.621222	0.666663	0.093464
H331	H	0.998252	0.000008	-0.616454
H332	H	1.331585	0.333342	-0.283121
H333	H	1.664918	0.666675	0.050212
