data_functionalizedCrystal
_audit_creation_method	'MofGen! by Chris Wilmer'
_symmetry_space_group_name_H-M	'P1'
_symmetry_Int_Tables_number	1
_symmetry_cell_setting	triclinic
loop_
_symmetry_equiv_pos_as_xyz
  x,y,z
_cell_length_a	19.377372
_cell_length_b	19.376997
_cell_length_c	12.970454
_cell_angle_alpha	68.964568
_cell_angle_beta	89.999359
_cell_angle_gamma	82.421080
loop_
_atom_site_label
_atom_site_type_symbol
_atom_site_fract_x
_atom_site_fract_y
_atom_site_fract_z
Zr1	Zr	0.764620	0.842048	-0.022590
O2	O	0.689449	0.938375	-0.131323
O3	O	0.768540	0.725025	-0.016916
O4	O	0.796120	0.851197	-0.192120
O5	O	0.661869	0.812204	0.213548
O6	O	0.902018	0.881956	-0.208615
O7	O	0.661870	0.812204	0.043881
O8	O	0.852683	0.656258	0.104793
O9	O	0.711204	1.037902	-0.099860
O10	O	0.872348	0.803779	0.006610
O11	O	0.793317	0.780824	0.145541
O12	O	0.825788	0.929375	-0.060739
O13	O	0.746757	0.906420	0.078191
Zr14	Zr	0.933515	0.891106	0.221701
Zr15	Zr	0.933516	0.891105	-0.048898
Zr16	Zr	0.764619	0.842049	0.248009
Zr17	Zr	0.799317	1.000782	0.027590
Zr18	Zr	0.898818	0.732372	0.171522
O19	O	0.929595	1.008129	0.216028
O20	O	0.929597	1.008128	-0.168729
O21	O	0.689448	0.938376	0.253434
O22	O	1.008686	0.794779	0.330434
O23	O	1.008687	0.794778	-0.054323
O24	O	0.768538	0.725026	0.367841
O25	O	1.036266	0.920950	-0.014437
O26	O	0.902016	0.881957	0.391232
O27	O	0.796117	0.851198	0.407727
O28	O	1.036266	0.920950	0.155230
O29	O	0.845453	1.076896	-0.120771
O30	O	0.852682	0.656258	0.319883
O31	O	0.986931	0.695252	0.298971
O32	O	0.986932	0.695252	0.083881
O33	O	0.711203	1.037902	0.115230
O34	O	0.845453	1.076896	0.094319
O35	O	0.872347	0.803779	0.259851
O36	O	0.951378	0.826734	0.120920
O37	O	0.904819	0.952330	0.053571
O38	O	0.825787	0.929375	0.192501
C39	C	0.805668	0.668026	0.036789
C40	C	0.790938	0.600639	0.015486
C41	C	0.723826	0.543542	-0.081586
C42	C	0.737672	0.606858	-0.061561
C43	C	0.830383	0.531097	0.072535
C44	C	0.816547	0.467774	0.052517
C45	C	0.763267	0.474003	-0.024544
C46	C	0.855988	0.398235	0.109559
C47	C	0.842151	0.334918	0.089547
C48	C	0.788872	0.341139	0.012492
C49	C	0.749430	0.410686	-0.044556
C50	C	0.909264	0.392007	0.186626
C51	C	0.948705	0.322468	0.243668
C52	C	0.934872	0.259150	0.223650
C53	C	0.881593	0.265371	0.146595
C54	C	0.974314	0.189603	0.280699
C55	C	0.960477	0.126286	0.260686
C56	C	0.867756	0.202054	0.126583
C57	C	0.637805	0.805214	0.132463
C58	C	0.566105	0.784389	0.143631
C59	C	0.208776	1.043686	0.004580
C60	C	0.141409	1.024100	0.015085
C61	C	0.190023	0.892987	0.085392
C62	C	0.257395	0.912563	0.074898
C63	C	0.266766	0.987913	0.034490
C64	C	0.315385	0.856790	0.104809
C65	C	0.382752	0.876364	0.094310
C66	C	0.392129	0.951711	0.053901
C67	C	0.334132	1.007487	0.023991
C68	C	0.306013	0.781439	0.145209
C69	C	0.364003	0.725667	0.175120
C70	C	0.431371	0.745240	0.164629
C71	C	0.440748	0.820587	0.124220
C72	C	0.489368	0.689464	0.194538
C73	C	0.556734	0.709038	0.184039
C74	C	0.508115	0.840161	0.113721
C75	C	1.060330	0.927940	0.066649
C76	C	1.132031	0.948765	0.055480
C77	C	0.849069	0.866576	-0.238922
C78	C	0.849069	0.866576	-0.353799
C79	C	0.892468	1.065128	0.162323
C80	C	0.907197	1.132515	0.183625
C81	C	0.849066	0.866578	0.438034
C82	C	0.849066	0.866578	0.552910
C83	C	1.016930	0.729388	0.003881
C84	C	1.073901	0.682828	-0.028589
C85	C	0.805667	0.668026	0.375267
C86	C	0.790937	0.600640	0.468841
C87	C	1.016929	0.729389	0.342360
C88	C	1.073900	0.682828	0.424765
C89	C	0.681206	1.003765	-0.143248
C90	C	0.624236	1.050326	-0.225654
C91	C	0.681205	1.003766	0.195230
C92	C	0.624234	1.050326	0.227701
C93	C	0.892469	1.065128	-0.176155
C94	C	0.907199	1.132514	-0.269729
C95	C	1.059402	0.648980	-0.103518
C96	C	1.112928	0.605238	-0.134050
C97	C	1.180951	0.595341	-0.089645
C98	C	1.195450	0.629194	-0.014712
C99	C	1.141926	0.672939	0.015812
C100	C	0.825272	0.580977	0.572464
C101	C	0.811431	0.517668	0.660400
C102	C	0.763257	0.474021	0.644708
C103	C	0.728918	0.493688	0.541075
C104	C	0.742756	0.556999	0.453143
C105	C	1.141914	0.672947	0.390942
C106	C	1.195452	0.629210	0.468362
C107	C	1.180974	0.595349	0.579603
C108	C	1.112953	0.605234	0.613427
C109	C	1.059417	0.648976	0.536009
C110	C	0.556223	1.060214	-0.191828
C111	C	0.502689	1.103972	-0.269242
C112	C	0.517168	1.137835	-0.380482
C113	C	0.585188	1.127946	-0.414307
C114	C	0.638722	1.084194	-0.336892
C115	C	0.638734	1.084181	0.302621
C116	C	0.585212	1.127940	0.333128
C117	C	0.517190	1.137840	0.288720
C118	C	0.502690	1.103983	0.213791
C119	C	0.556213	1.060229	0.183279
C120	C	0.955376	1.176144	-0.254005
C121	C	0.969230	1.239457	-0.341922
C122	C	0.934902	1.259141	-0.445561
C123	C	0.886722	1.215505	-0.461284
C124	C	0.872873	1.152190	-0.373370
H125	H	0.824376	0.207129	0.063822
C126	C	1.270272	0.618290	0.034147
H127	H	1.271249	0.644713	0.083146
H128	H	1.285186	0.566640	0.073420
H129	H	1.300541	0.636800	-0.023985
H130	H	0.694117	1.076125	0.338795
H131	H	0.714796	0.573000	0.368770
C132	C	0.748042	0.404379	0.741435
H133	H	0.714431	0.381199	0.717258
H134	H	0.789806	0.370251	0.766460
H135	H	0.730490	0.418730	0.800260
H136	H	0.544419	1.032642	-0.101257
H137	H	1.004020	0.657038	-0.139697
C138	C	0.458321	1.185967	0.322295
H139	H	0.476704	1.204704	0.373283
H140	H	0.438640	1.226519	0.258457
H141	H	0.423307	1.156360	0.355883
C142	C	0.675932	0.445671	0.523821
H143	H	0.657457	0.466447	0.449514
H144	H	0.698481	0.396238	0.538750
H145	H	0.639162	0.444716	0.572546
C146	C	0.878261	0.628983	0.589741
H147	H	0.881595	0.669505	0.522536
H148	H	0.863283	0.647769	0.645567
H149	H	0.922601	0.599290	0.611771
C150	C	0.819868	1.104210	-0.390675
H151	H	0.801405	1.125011	-0.464988
H152	H	0.842395	1.054771	-0.375765
H153	H	0.783091	1.103263	-0.341962
H154	H	0.473571	1.173459	-0.443507
H155	H	0.182383	0.831637	0.118289
C156	C	1.157854	0.710190	0.268586
H157	H	1.206033	0.698041	0.259547
H158	H	1.131025	0.692676	0.224271
H159	H	1.146353	0.762834	0.246461
H160	H	1.250834	0.621167	0.440803
H161	H	1.101110	0.577678	-0.195063
C162	C	0.231913	0.759904	0.156757
H163	H	0.234637	0.707041	0.185091
H164	H	0.207693	0.779685	0.205948
H165	H	0.207697	0.779690	0.086342
C166	C	0.518431	0.923045	0.069140
H167	H	0.566858	0.926711	0.067136
H168	H	0.497393	0.946707	-0.003385
H169	H	0.497415	0.946846	0.116143
H170	H	0.597031	1.155500	0.394142
H171	H	0.596970	1.155524	-0.504888
C172	C	0.353690	0.642787	0.219571
H173	H	0.305263	0.639116	0.221547
H174	H	0.374721	0.619051	0.172506
H175	H	0.374716	0.619064	0.292103
H176	H	0.447308	1.112014	-0.241681
C177	C	0.950138	1.328788	-0.542259
H178	H	0.922799	1.334264	-0.606241
H179	H	0.938854	1.371770	-0.523199
H180	H	0.998166	1.323288	-0.557003
H181	H	0.777605	0.289580	-0.003797
H182	H	0.447300	1.112051	0.177641
C183	C	1.239822	0.547215	-0.123217
H184	H	1.282415	0.546167	-0.086047
H185	H	1.229019	0.497819	-0.103451
H186	H	1.244359	0.567977	-0.200873
C187	C	1.032913	0.182755	0.365469
H188	H	1.054418	0.132269	0.396582
H189	H	1.066629	0.213550	0.329677
H190	H	1.013837	0.198209	0.422463
H191	H	1.224573	0.559734	0.642631
H192	H	0.706050	0.415762	-0.107317
C193	C	0.848961	1.237169	-0.575285
H194	H	0.864108	1.281132	-0.625379
H195	H	0.859388	1.197642	-0.602317
H196	H	0.800084	1.246119	-0.568490
C197	C	0.713528	1.073289	-0.374117
H198	H	0.743342	1.042379	-0.312090
H199	H	0.714005	1.050307	-0.427694
H200	H	0.729390	1.120454	-0.405526
C201	C	0.984602	0.659830	0.573224
H202	H	0.983651	0.633390	0.650561
H203	H	0.969657	0.711471	0.557132
H204	H	0.954341	0.641306	0.534953
C205	C	0.540252	1.022983	0.100881
H206	H	0.492073	1.035142	0.078820
H207	H	0.567080	1.040484	0.037780
H208	H	0.551742	0.970337	0.135224
H209	H	1.008460	1.274980	-0.329097
C210	C	0.665219	0.550389	-0.166353
H211	H	0.643707	0.600873	-0.197459
H212	H	0.684284	0.534926	-0.223339
H213	H	0.631502	0.519597	-0.130539
C214	C	0.694282	0.683351	-0.124313
H215	H	0.660573	0.677990	-0.173075
H216	H	0.671364	0.701959	-0.072895
H217	H	0.724145	0.717295	-0.165698
H218	H	0.481727	0.628114	0.227428
H219	H	0.873761	0.526035	0.135280
C220	C	0.993145	1.154501	-0.140015
H221	H	1.023825	1.189555	-0.143260
H222	H	0.959810	1.154539	-0.086328
H223	H	1.019117	1.106060	-0.120145
C224	C	0.924488	0.461652	0.208644
H225	H	0.961861	0.447982	0.262718
H226	H	0.936891	0.497634	0.142015
H227	H	0.884102	0.482300	0.234806
C228	C	1.007312	0.315624	0.328423
H229	H	1.009908	0.363294	0.332168
H230	H	0.997709	0.282013	0.399092
H231	H	1.050484	0.297353	0.306281
H232	H	1.153740	0.700493	0.076830
H233	H	0.992593	0.069663	0.307138
H234	H	0.446984	0.967647	0.045351
H235	H	0.839399	0.501665	0.744774
C236	C	0.620525	0.647690	0.216953
H237	H	0.605296	0.600011	0.242535
H238	H	0.647820	0.652596	0.154527
H239	H	0.647810	0.652609	0.274123
H240	H	0.341761	1.068846	-0.008876
H241	H	0.216404	1.105044	-0.028288
H242	H	0.094191	1.069522	-0.009278
H243	H	1.101174	0.577659	0.704009
