data_functionalizedCrystal
_audit_creation_method	'MofGen! by Chris Wilmer'
_symmetry_space_group_name_H-M	'P1'
_symmetry_Int_Tables_number	1
_symmetry_cell_setting	triclinic
loop_
_symmetry_equiv_pos_as_xyz
  x,y,z
_cell_length_a	18.050589
_cell_length_b	19.077236
_cell_length_c	19.077174
_cell_angle_alpha	85.294282
_cell_angle_beta	92.276796
_cell_angle_gamma	92.321157
loop_
_atom_site_label
_atom_site_type_symbol
_atom_site_fract_x
_atom_site_fract_y
_atom_site_fract_z
Zn1	Zn	-0.268141	1.093723	-0.441989
Zn2	Zn	-0.018141	1.343723	-0.191989
Zn3	Zn	0.231859	1.593723	0.058011
Zn4	Zn	0.481859	1.843723	0.308011
Zn5	Zn	-0.387542	1.088901	-0.324108
Zn6	Zn	-0.137542	1.338901	-0.074108
Zn7	Zn	0.112458	1.588901	0.175892
Zn8	Zn	0.362458	1.838901	0.425892
Zn9	Zn	-0.268152	0.971104	-0.319372
Zn10	Zn	-0.018152	1.221104	-0.069372
Zn11	Zn	0.231848	1.471104	0.180628
Zn12	Zn	0.481848	1.721104	0.430628
Zn13	Zn	-0.397080	0.975791	-0.437213
Zn14	Zn	-0.147080	1.225791	-0.187213
Zn15	Zn	0.102920	1.475791	0.062787
Zn16	Zn	0.352920	1.725791	0.312787
O17	O	-0.330229	1.032379	-0.380671
O18	O	-0.080229	1.282379	-0.130671
O19	O	0.169771	1.532379	0.119329
O20	O	0.419771	1.782379	0.369329
O21	O	-0.279983	1.191736	-0.430333
O22	O	-0.029983	1.441736	-0.180333
O23	O	0.220017	1.691736	0.069667
O24	O	0.470017	1.941736	0.319667
O25	O	-0.367717	1.069295	-0.224829
O26	O	-0.117717	1.319295	0.025171
O27	O	0.132283	1.569295	0.275171
O28	O	0.382283	1.819295	0.525171
O29	O	-0.164224	0.987426	-0.335654
O30	O	0.085776	1.237426	-0.085654
O31	O	0.335776	1.487426	0.164346
O32	O	0.585776	1.737426	0.414346
O33	O	-0.367706	1.188194	-0.343726
O34	O	-0.117706	1.438194	-0.093726
O35	O	0.132294	1.688194	0.156274
O36	O	0.382294	1.938194	0.406274
O37	O	-0.164216	1.077514	-0.425741
O38	O	0.085784	1.327514	-0.175741
O39	O	0.335784	1.577514	0.074259
O40	O	0.585784	1.827514	0.324259
O41	O	-0.280002	0.982751	-0.221350
O42	O	-0.030002	1.232751	0.028650
O43	O	0.219998	1.482751	0.278650
O44	O	0.469998	1.732751	0.528650
O45	O	-0.289251	0.873072	-0.331023
O46	O	-0.039251	1.123072	-0.081023
O47	O	0.210749	1.373072	0.168977
O48	O	0.460749	1.623072	0.418977
O49	O	-0.383963	0.995414	-0.536497
O50	O	-0.133963	1.245414	-0.286497
O51	O	0.116037	1.495414	-0.036497
O52	O	0.366037	1.745414	0.213503
O53	O	-0.383974	0.876516	-0.417600
O54	O	-0.133974	1.126516	-0.167600
O55	O	0.116026	1.376516	0.082400
O56	O	0.366026	1.626516	0.332400
O57	O	-0.289232	1.082058	-0.540006
O58	O	-0.039232	1.332058	-0.290006
O59	O	0.210768	1.582058	-0.040006
O60	O	0.460768	1.832058	0.209994
O61	O	-0.492733	1.073840	-0.339095
O62	O	-0.242733	1.323840	-0.089095
O63	O	0.007267	1.573840	0.160905
O64	O	0.257267	1.823840	0.410905
O65	O	-0.499741	0.990738	-0.422193
O66	O	-0.249741	1.240738	-0.172193
O67	O	0.000259	1.490738	0.077807
O68	O	0.250259	1.740738	0.327807
C69	C	-0.337649	0.849214	-0.373280
C70	C	-0.087649	1.099214	-0.123280
C71	C	0.162351	1.349214	0.126720
C72	C	0.412351	1.599214	0.376720
C73	C	-0.340842	0.770856	-0.370135
C74	C	-0.090842	1.020856	-0.120135
C75	C	0.159158	1.270856	0.129865
C76	C	0.409158	1.520856	0.379865
C77	C	-0.296748	0.735891	-0.413818
C78	C	-0.046748	0.985891	-0.163818
C79	C	0.203252	1.235891	0.086182
C80	C	0.453252	1.485891	0.336182
C81	C	-0.299745	0.662265	-0.410857
C82	C	-0.049745	0.912265	-0.160857
C83	C	0.200255	1.162265	0.089143
C84	C	0.450255	1.412265	0.339143
C85	C	-0.346840	0.623606	-0.364216
C86	C	-0.096840	0.873606	-0.114216
C87	C	0.153160	1.123606	0.135784
C88	C	0.403160	1.373606	0.385784
C89	C	-0.390936	0.658575	-0.320528
C90	C	-0.140936	0.908575	-0.070528
C91	C	0.109064	1.158575	0.179472
C92	C	0.359064	1.408575	0.429472
C93	C	-0.387935	0.732200	-0.323486
C94	C	-0.137935	0.982200	-0.073486
C95	C	0.112065	1.232200	0.176514
C96	C	0.362065	1.482200	0.426514
C97	C	-0.360700	0.403213	-0.350523
C98	C	-0.110700	0.653213	-0.100523
C99	C	0.139300	0.903213	0.149477
C100	C	0.389300	1.153213	0.399477
C101	C	-0.363700	0.329584	-0.347570
C102	C	-0.113700	0.579584	-0.097570
C103	C	0.136300	0.829584	0.152430
C104	C	0.386300	1.079584	0.402430
C105	C	-0.272507	0.333278	-0.437898
C106	C	-0.022507	0.583278	-0.187898
C107	C	0.227493	0.833278	0.062102
C108	C	0.477493	1.083278	0.312102
C109	C	-0.269513	0.406904	-0.440854
C110	C	-0.019513	0.656904	-0.190854
C111	C	0.230487	0.906904	0.059146
C112	C	0.480487	1.156904	0.309146
C113	C	-0.313606	0.441868	-0.397164
C114	C	-0.063606	0.691868	-0.147164
C115	C	0.186394	0.941868	0.102836
C116	C	0.436394	1.191868	0.352836
N117	N	-0.349906	0.548348	-0.361190
N118	N	-0.099906	0.798348	-0.111190
N119	N	0.150094	1.048348	0.138810
N120	N	0.400094	1.298348	0.388810
N121	N	-0.310536	0.517124	-0.400188
N122	N	-0.060536	0.767124	-0.150188
N123	N	0.189464	1.017124	0.099812
N124	N	0.439464	1.267124	0.349812
C125	C	-0.523184	1.032294	-0.380656
C126	C	-0.273184	1.282294	-0.130656
C127	C	-0.023184	1.532294	0.119344
C128	C	0.226816	1.782294	0.369344
C129	C	-0.605729	1.032323	-0.380675
C130	C	-0.355729	1.282323	-0.130675
C131	C	-0.105729	1.532323	0.119325
C132	C	0.144271	1.782323	0.369325
C133	C	-0.809015	0.987178	-0.425849
C134	C	-0.559015	1.237178	-0.175849
C135	C	-0.309015	1.487178	0.074151
C136	C	-0.059015	1.737178	0.324151
C137	C	-0.856535	0.967413	-0.360830
C138	C	-0.606535	1.217413	-0.110830
C139	C	-0.356535	1.467413	0.139170
C140	C	-0.106535	1.717413	0.389170
C141	C	-0.756857	1.032392	-0.380687
C142	C	-0.506857	1.282392	-0.130687
C143	C	-0.256857	1.532392	0.119313
C144	C	-0.006857	1.782392	0.369313
C145	C	-0.856418	1.052192	-0.445715
C146	C	-0.606418	1.302192	-0.195715
C147	C	-0.356418	1.552192	0.054285
C148	C	-0.106418	1.802192	0.304285
C149	C	-0.902840	1.032459	-0.380704
C150	C	-0.652840	1.282459	-0.130704
C151	C	-0.402840	1.532459	0.119296
C152	C	-0.152840	1.782459	0.369296
C153	C	-0.803289	1.012592	-0.315633
C154	C	-0.553289	1.262592	-0.065633
C155	C	-0.303289	1.512592	0.184367
C156	C	-0.053289	1.762592	0.434367
C157	C	-0.803169	1.097403	-0.400562
C158	C	-0.553169	1.347403	-0.150562
C159	C	-0.303169	1.597403	0.099438
C160	C	-0.053169	1.847403	0.349438
C161	C	-0.850664	1.077661	-0.335500
C162	C	-0.600664	1.327661	-0.085500
C163	C	-0.350664	1.577661	0.164500
C164	C	-0.100664	1.827661	0.414500
C165	C	-0.672760	1.032352	-0.380678
C166	C	-0.422760	1.282352	-0.130678
C167	C	-0.172760	1.532352	0.119322
C168	C	0.077240	1.782352	0.369322
C169	C	-0.986935	1.032498	-0.380706
C170	C	-0.736935	1.282498	-0.130706
C171	C	-0.486935	1.532498	0.119294
C172	C	-0.236935	1.782498	0.369294
C173	C	-0.136520	1.032485	-0.380702
C174	C	0.113480	1.282485	-0.130702
C175	C	0.363480	1.532485	0.119298
C176	C	0.613480	1.782485	0.369298
C177	C	-0.053973	1.032530	-0.380715
C178	C	0.196027	1.282530	-0.130715
C179	C	0.446027	1.532530	0.119285
C180	C	0.696027	1.782530	0.369285
C181	C	-0.337660	1.039797	-0.564546
C182	C	-0.087660	1.289797	-0.314546
C183	C	0.162340	1.539797	-0.064546
C184	C	0.412340	1.789797	0.185454
C185	C	-0.340827	1.042957	-0.642902
C186	C	-0.090827	1.292957	-0.392902
C187	C	0.159173	1.542957	-0.142902
C188	C	0.409173	1.792957	0.107098
C189	C	-0.322780	1.216260	-0.388091
C190	C	-0.072780	1.466260	-0.138091
C191	C	0.177220	1.716260	0.111909
C192	C	0.427220	1.966260	0.361909
C193	C	-0.319605	1.294619	-0.391252
C194	C	-0.069605	1.544619	-0.141252
C195	C	0.180395	1.794619	0.108748
C196	C	0.430395	2.044619	0.358748
C197	C	-0.296647	0.999385	-0.677903
C198	C	-0.046647	1.249385	-0.427903
C199	C	0.203353	1.499385	-0.177903
C200	C	0.453353	1.749385	0.072097
C201	C	-0.299629	1.002352	-0.751527
C202	C	-0.049629	1.252352	-0.501527
C203	C	0.200371	1.502352	-0.251527
C204	C	0.450371	1.752352	-0.001527
C205	C	-0.346787	1.048896	-0.790150
C206	C	-0.096787	1.298896	-0.540150
C207	C	0.153213	1.548896	-0.290150
C208	C	0.403213	1.798896	-0.040150
C209	C	-0.390972	1.092470	-0.755145
C210	C	-0.140972	1.342470	-0.505145
C211	C	0.109028	1.592470	-0.255145
C212	C	0.359028	1.842470	-0.005145
C213	C	-0.387993	1.089499	-0.681522
C214	C	-0.137993	1.339499	-0.431522
C215	C	0.112007	1.589499	-0.181522
C216	C	0.362007	1.839499	0.068478
C217	C	-0.360596	1.062610	-1.010534
C218	C	-0.110596	1.312610	-0.760534
C219	C	0.139404	1.562610	-0.510534
C220	C	0.389404	1.812610	-0.260534
C221	C	-0.363569	1.065580	-1.084162
C222	C	-0.113569	1.315580	-0.834162
C223	C	0.136431	1.565580	-0.584162
C224	C	0.386431	1.815580	-0.334162
C225	C	-0.272227	0.975461	-1.080539
C226	C	-0.022227	1.225461	-0.830539
C227	C	0.227773	1.475461	-0.580539
C228	C	0.477773	1.725461	-0.330539
C229	C	-0.269249	0.972497	-1.006915
C230	C	-0.019249	1.222497	-0.756915
C231	C	0.230751	1.472497	-0.506915
C232	C	0.480751	1.722497	-0.256915
C233	C	-0.313437	1.016068	-0.971916
C234	C	-0.063437	1.266068	-0.721916
C235	C	0.186563	1.516068	-0.471916
C236	C	0.436563	1.766068	-0.221916
N237	N	-0.349834	1.051931	-0.865406
N238	N	-0.099834	1.301931	-0.615406
N239	N	0.150166	1.551931	-0.365406
N240	N	0.400166	1.801931	-0.115406
N241	N	-0.310393	1.013029	-0.896661
N242	N	-0.060393	1.263029	-0.646661
N243	N	0.189607	1.513029	-0.396661
N244	N	0.439607	1.763029	-0.146661
C245	C	-0.322771	1.025032	-0.197513
C246	C	-0.072771	1.275032	0.052487
C247	C	0.177229	1.525032	0.302487
C248	C	0.427229	1.775032	0.552487
C249	C	-0.319389	1.022008	-0.119162
C250	C	-0.069389	1.272008	0.130838
C251	C	0.180611	1.522008	0.380838
C252	C	0.430611	1.772008	0.630838
H253	H	-0.258400	0.767363	-0.451800
H254	H	-0.008400	1.017363	-0.201800
H255	H	0.241600	1.267363	0.048200
H256	H	0.491600	1.517363	0.298200
H257	H	-0.396605	0.431671	-0.314948
H258	H	-0.146605	0.681671	-0.064948
H259	H	0.103395	0.931671	0.185052
H260	H	0.353395	1.181671	0.435052
Cl261	Cl	-0.892626	0.882575	-0.334879
Cl262	Cl	-0.642626	1.132575	-0.084879
Cl263	Cl	-0.392626	1.382575	0.165121
Cl264	Cl	-0.142626	1.632575	0.415121
H265	H	-0.402054	0.298109	-0.309589
H266	H	-0.152054	0.548109	-0.059589
H267	H	0.097946	0.798109	0.190411
H268	H	0.347946	1.048109	0.440411
H269	H	-0.236252	0.939987	-1.109043
H270	H	0.013748	1.189987	-0.859043
H271	H	0.263748	1.439987	-0.609043
H272	H	0.513748	1.689987	-0.359043
H273	H	-0.423964	1.124985	-0.653026
H274	H	-0.173964	1.374985	-0.403026
H275	H	0.076036	1.624985	-0.153026
H276	H	0.326036	1.874985	0.096974
H277	H	-0.790601	0.948880	-0.463982
H278	H	-0.540601	1.198880	-0.213982
H279	H	-0.290601	1.448880	0.036018
H280	H	-0.040601	1.698880	0.286018
Cl281	Cl	-0.767053	1.182220	-0.426540
Cl282	Cl	-0.517053	1.432220	-0.176540
Cl283	Cl	-0.267053	1.682220	0.073460
Cl284	Cl	-0.017053	1.932220	0.323460
Cl285	Cl	-0.892356	1.078007	-0.530608
Cl286	Cl	-0.642356	1.328007	-0.280608
Cl287	Cl	-0.392356	1.578007	-0.030608
Cl288	Cl	-0.142356	1.828007	0.219392
H289	H	-0.401972	1.103484	-1.115607
H290	H	-0.151972	1.353484	-0.865607
H291	H	0.098028	1.603484	-0.615607
H292	H	0.348028	1.853484	-0.365607
H293	H	-0.263840	0.633800	-0.446429
H294	H	-0.013840	0.883800	-0.196429
H295	H	0.236160	1.133800	0.053571
H296	H	0.486160	1.383800	0.303571
Cl297	Cl	-0.210310	0.455500	-0.499496
Cl298	Cl	0.039690	0.705500	-0.249496
Cl299	Cl	0.289690	0.955500	0.000504
Cl300	Cl	0.539690	1.205500	0.250504
Cl301	Cl	-0.217077	0.289320	-0.492817
Cl302	Cl	0.032923	0.539320	-0.242817
Cl303	Cl	0.282923	0.789320	0.007183
Cl304	Cl	0.532923	1.039320	0.257183
Cl305	Cl	-0.443371	0.776156	-0.268569
Cl306	Cl	-0.193371	1.026156	-0.018569
Cl307	Cl	0.056629	1.276156	0.231431
Cl308	Cl	0.306629	1.526156	0.481431
Cl309	Cl	-0.450138	0.609974	-0.261890
Cl310	Cl	-0.200138	0.859974	-0.011890
Cl311	Cl	0.049862	1.109974	0.238110
Cl312	Cl	0.299862	1.359974	0.488110
Cl313	Cl	-0.767501	0.986680	-0.230709
Cl314	Cl	-0.517501	1.236680	0.019291
Cl315	Cl	-0.267501	1.486680	0.269291
Cl316	Cl	-0.017501	1.736680	0.519291
Cl317	Cl	-0.237355	0.940874	-0.629355
Cl318	Cl	0.012645	1.190874	-0.379355
Cl319	Cl	0.262645	1.440874	-0.129355
Cl320	Cl	0.512645	1.690874	0.120645
H321	H	-0.263656	0.966869	-0.780020
H322	H	-0.013656	1.216869	-0.530020
H323	H	0.236344	1.466869	-0.280020
H324	H	0.486344	1.716869	-0.030020
Cl325	Cl	-0.416140	1.117392	-0.966545
Cl326	Cl	-0.166140	1.367392	-0.716545
Cl327	Cl	0.083860	1.617392	-0.466545
Cl328	Cl	0.333860	1.867392	-0.216545
Cl329	Cl	-0.450262	1.150978	-0.803699
Cl330	Cl	-0.200262	1.400978	-0.553699
Cl331	Cl	0.049738	1.650978	-0.303699
Cl332	Cl	0.299738	1.900978	-0.053699
Cl333	Cl	-0.878879	1.136738	-0.276478
Cl334	Cl	-0.628879	1.386738	-0.026478
Cl335	Cl	-0.378879	1.636738	0.223522
Cl336	Cl	-0.128879	1.886738	0.473522
H337	H	-0.230850	0.934594	-0.975472
H338	H	0.019150	1.184594	-0.725472
H339	H	0.269150	1.434594	-0.475472
H340	H	0.519150	1.684594	-0.225472
