data_functionalizedCrystal
_audit_creation_method	'MofGen! by Chris Wilmer'
_symmetry_space_group_name_H-M	'P1'
_symmetry_Int_Tables_number	1
_symmetry_cell_setting	triclinic
loop_
_symmetry_equiv_pos_as_xyz
  x,y,z
_cell_length_a	19.188930
_cell_length_b	14.044220
_cell_length_c	12.503552
_cell_angle_alpha	93.839943
_cell_angle_beta	93.525087
_cell_angle_gamma	91.833172
loop_
_atom_site_label
_atom_site_type_symbol
_atom_site_fract_x
_atom_site_fract_y
_atom_site_fract_z
O1	O	0.937482	-0.112792	0.089673
O2	O	0.735196	-0.128723	0.089600
O3	O	0.833302	0.017214	0.089625
O4	O	0.839376	-0.258729	0.089649
O5	O	0.825916	0.006229	-0.089019
O6	O	0.727809	-0.139708	-0.089044
O7	O	0.930096	-0.123777	-0.088971
Cu8	Cu	0.828278	-0.132745	-0.105319
Cu9	Cu	0.837014	-0.119754	0.105948
O10	O	0.831989	-0.269713	-0.088996
C11	C	0.705458	-0.133700	0.000269
C12	C	0.627852	-0.132153	0.000240
C13	C	0.826951	0.047025	0.000302
C14	C	0.819022	0.152218	0.000297
N15	N	0.822139	-0.141882	-0.253914
C16	C	0.588455	-0.217782	0.000265
C17	C	0.515538	-0.216327	0.000276
C18	C	0.482022	-0.129237	0.000285
C19	C	0.521428	-0.043597	0.000255
C20	C	0.594343	-0.045056	0.000233
N21	N	0.372261	-0.058927	0.061123
N22	N	0.302995	-0.057547	0.061147
C23	C	0.262332	-0.124838	0.000351
N24	N	0.293553	-0.193574	-0.060457
N25	N	0.362826	-0.194956	-0.060476
C26	C	0.402958	-0.127646	0.000309
C27	C	0.143870	-0.208894	0.000386
C28	C	0.070951	-0.207436	0.000391
C29	C	0.076843	-0.034704	0.000381
C30	C	0.149760	-0.036165	0.000365
C31	C	0.183269	-0.123263	0.000373
C32	C	0.959834	-0.118799	0.000363
C33	C	1.037440	-0.120345	0.000398
C34	C	0.838341	-0.299524	0.000330
C35	C	0.846270	-0.404716	0.000341
C36	C	0.804527	0.344819	0.000308
C37	C	0.860762	0.402687	0.000331
C38	C	0.852697	0.509858	0.000337
C39	C	0.812591	0.237639	0.000302
C40	C	0.852185	-0.097167	-0.526339
C41	C	0.813113	-0.155322	-0.473025
C42	C	0.818136	-0.147842	-0.351100
C43	C	0.847163	-0.104646	-0.648275
N44	N	0.843158	-0.110610	0.254543
H45	H	0.483454	-0.286058	0.000293
H46	H	0.181838	0.033563	0.000351
H47	H	0.914967	0.371747	0.000423
H48	H	0.889406	-0.041766	-0.480419
H49	H	0.775891	-0.210728	-0.518950
O50	O	0.620891	-0.302472	0.000213
C51	C	0.570477	-0.377737	0.000262
H52	H	0.517955	-0.353456	-0.033541
H53	H	0.587323	-0.441751	-0.051607
H54	H	0.565387	-0.398867	0.085972
O55	O	0.488849	0.040990	0.000458
C56	C	0.450689	0.052680	0.092981
H57	H	0.473686	0.007209	0.157644
H58	H	0.453760	0.130990	0.124031
H59	H	0.393766	0.029296	0.072086
H60	H	0.626420	0.024676	0.000214
H61	H	0.171153	-0.279816	0.000376
H62	H	0.038874	-0.277168	0.000404
O63	O	0.044185	0.049817	0.000439
C64	C	-0.028622	0.032743	0.000434
H65	H	-0.039704	-0.039201	0.034260
H66	H	-0.052294	0.091641	0.052306
H67	H	-0.052742	0.031983	-0.085265
O68	O	0.739916	0.381882	0.000232
C69	C	0.746147	0.482188	0.000267
H70	H	0.797805	0.503428	-0.033525
H71	H	0.701051	0.509283	-0.051620
H72	H	0.744623	0.514963	0.085970
