data_functionalizedCrystal
_audit_creation_method	'MofGen! by Chris Wilmer'
_symmetry_space_group_name_H-M	'P1'
_symmetry_Int_Tables_number	1
_symmetry_cell_setting	triclinic
loop_
_symmetry_equiv_pos_as_xyz
  x,y,z
_cell_length_a	16.109301
_cell_length_b	27.731996
_cell_length_c	14.586319
_cell_angle_alpha	89.990257
_cell_angle_beta	89.999213
_cell_angle_gamma	83.041434
loop_
_atom_site_label
_atom_site_type_symbol
_atom_site_fract_x
_atom_site_fract_y
_atom_site_fract_z
O1	O	1.102342	0.062132	-0.076195
O2	O	1.602342	0.562132	0.423805
O3	O	0.860181	0.069864	-0.076211
O4	O	1.360181	0.569864	0.423789
O5	O	0.988805	-0.004369	-0.076182
O6	O	1.488805	0.495631	0.423818
O7	O	0.973718	0.136365	-0.076223
O8	O	1.473718	0.636365	0.423777
O9	O	0.988796	-0.004370	0.076298
O10	O	1.488796	0.495630	0.576298
O11	O	0.860172	0.069863	0.076270
O12	O	1.360172	0.569863	0.576270
O13	O	1.102333	0.062130	0.076286
O14	O	1.602333	0.562130	0.576286
Cu15	Cu	0.981252	0.065996	0.090201
Cu16	Cu	1.481252	0.565996	0.590201
Cu17	Cu	0.981262	0.065998	-0.090125
Cu18	Cu	1.481262	0.565998	0.409875
O19	O	0.973709	0.136364	0.076258
O20	O	1.473709	0.636364	0.576258
C21	C	0.829206	0.069550	0.000028
C22	C	1.329206	0.569550	0.500028
C23	C	0.736923	0.068611	0.000023
C24	C	1.236923	0.568611	0.500023
C25	C	0.514118	0.110476	0.000021
C26	C	1.014118	0.610476	0.500021
C27	C	0.427409	0.109590	0.000027
C28	C	0.927409	0.609590	0.500027
C29	C	0.448402	0.021515	0.000049
C30	C	0.948402	0.521515	0.500049
C31	C	0.535110	0.022401	0.000049
C32	C	1.035110	0.522401	0.500049
C33	C	0.567965	0.066883	0.000031
C34	C	1.067965	0.566883	0.500031
C35	C	0.394549	0.065111	0.000037
C36	C	0.894549	0.565111	0.500037
C37	C	0.300535	0.064150	0.000043
C38	C	0.800535	0.564150	0.500043
C39	C	0.661985	0.067845	0.000026
C40	C	1.161985	0.567845	0.500026
C41	C	0.988491	-0.022379	0.000061
C42	C	1.488491	0.477621	0.500061
C43	C	0.987557	-0.076039	0.000070
C44	C	1.487557	0.423961	0.500070
C45	C	0.981689	-0.408779	-0.083092
C46	C	1.481689	0.091221	0.416908
C47	C	0.978144	-0.610452	-0.083108
C48	C	1.478144	-0.110452	0.416892
O49	O	0.977654	-0.636524	-0.153797
O50	O	1.477654	-0.136524	0.346203
N51	N	0.977699	-0.635672	0.000008
N52	N	1.477699	-0.135672	0.500008
C53	C	0.978135	-0.610469	0.083135
C54	C	1.478135	-0.110469	0.583135
O55	O	0.977666	-0.636547	0.153830
O56	O	1.477666	-0.136547	0.653830
C57	C	0.981673	-0.408797	0.083150
C58	C	1.481673	0.091203	0.583150
C59	C	0.982127	-0.383581	0.000028
C60	C	1.482127	0.116419	0.500028
C61	C	0.982141	-0.383563	-0.166207
C62	C	1.482141	0.116437	0.333793
C63	C	0.983032	-0.333148	-0.166202
C64	C	1.483032	0.166852	0.333798
C65	C	0.983470	-0.307949	-0.083082
C66	C	1.483470	0.192051	0.416918
C67	C	0.983018	-0.333166	0.000033
C68	C	1.483018	0.166834	0.500033
C69	C	0.982103	-0.383595	0.166275
C70	C	1.482103	0.116405	0.666275
C71	C	0.982986	-0.333174	0.166272
C72	C	1.482986	0.166826	0.666272
C73	C	0.983439	-0.307957	0.083150
C74	C	1.483439	0.192043	0.583150
C75	C	0.984346	-0.257552	0.083158
C76	C	1.484346	0.242448	0.583158
N77	N	0.984792	-0.232333	0.000042
N78	N	1.484792	0.267667	0.500042
C79	C	0.984353	-0.257531	-0.083079
C80	C	1.484353	0.242469	0.416921
C81	C	0.976278	-0.716351	0.083121
C82	C	1.476278	-0.216351	0.583121
C83	C	0.975395	-0.766769	0.083117
C84	C	1.475395	-0.266769	0.583117
C85	C	0.975403	-0.766748	-0.083126
C86	C	1.475403	-0.266748	0.416874
C87	C	0.976292	-0.716329	-0.083122
C88	C	1.476292	-0.216329	0.416878
C89	C	0.976723	-0.691131	0.000004
C90	C	1.476723	-0.191131	0.500004
C91	C	0.986225	-0.151656	-0.083062
C92	C	1.486225	0.348344	0.416938
C93	C	0.987119	-0.101237	-0.083050
C94	C	1.487119	0.398763	0.416950
C95	C	0.987107	-0.101262	0.083193
C96	C	1.487107	0.398738	0.583193
C97	C	0.986217	-0.151677	0.083181
C98	C	1.486217	0.348323	0.583181
C99	C	0.985773	-0.176873	0.000046
C100	C	1.485773	0.323127	0.500046
O101	O	0.984828	-0.231448	0.153810
O102	O	1.484828	0.268552	0.653810
O103	O	0.984804	-0.231443	-0.153763
O104	O	1.484804	0.268557	0.346237
C105	C	0.980798	-0.459194	-0.083097
C106	C	1.480798	0.040806	0.416903
C107	C	0.980345	-0.484410	0.000018
C108	C	1.480345	0.015590	0.500018
C109	C	0.980784	-0.459212	0.083138
C110	C	1.480784	0.040788	0.583138
C111	C	0.979462	-0.534828	0.000015
C112	C	1.479462	-0.034828	0.500015
C113	C	0.979024	-0.560027	-0.083105
C114	C	1.479024	-0.060027	0.416895
C115	C	0.979469	-0.534807	-0.166222
C116	C	1.479469	-0.034807	0.333778
C117	C	0.980360	-0.484392	-0.166217
C118	C	1.480360	0.015608	0.333783
C119	C	0.980339	-0.484431	0.166255
C120	C	1.480339	0.015569	0.666255
C121	C	0.979449	-0.534846	0.166243
C122	C	1.479449	-0.034846	0.666243
C123	C	0.979011	-0.560045	0.083123
C124	C	1.479011	-0.060045	0.583123
C125	C	1.133308	0.062444	0.000045
C126	C	1.633308	0.562444	0.500045
C127	C	1.225591	0.063383	0.000045
C128	C	1.725591	0.563383	0.500045
C129	C	0.974023	0.154373	0.000012
C130	C	1.474023	0.654373	0.500012
C131	C	0.974957	0.208033	-0.000003
C132	C	1.474957	0.708033	0.499997
N133	N	0.981250	0.065995	0.217033
N134	N	1.481250	0.565995	0.717033
N135	N	0.981270	0.065995	-0.216957
N136	N	1.481270	0.565995	0.283043
C137	C	1.038224	0.033136	0.452052
C138	C	1.538224	0.533136	0.952052
C139	C	1.038226	0.033135	0.548033
C140	C	1.538226	0.533135	1.048033
C141	C	0.924291	0.098856	0.548017
C142	C	1.424291	0.598856	1.048017
C143	C	0.924285	0.098855	0.452038
C144	C	1.424285	0.598855	0.952038
C145	C	0.981256	0.065995	0.404057
C146	C	1.481256	0.565995	0.904057
C147	C	0.981264	0.065995	0.596018
C148	C	1.481264	0.565995	1.096018
C149	C	0.981267	0.065994	0.700085
C150	C	1.481267	0.565994	1.200085
C151	C	0.981253	0.065995	0.299984
C152	C	1.481253	0.565995	0.799984
H153	H	0.987490	-0.080708	-0.150740
H154	H	1.487490	0.419292	0.349260
Cl155	Cl	0.852660	0.140164	0.391696
Cl156	Cl	1.352660	0.640164	0.891696
H157	H	0.383570	0.145087	0.000021
H158	H	0.883570	0.645087	0.500021
Cl159	Cl	0.555419	0.166396	0.000004
Cl160	Cl	1.055419	0.666396	0.500004
H161	H	0.981735	-0.404118	0.233962
H162	H	1.481735	0.095882	0.733962
H163	H	0.980729	-0.463866	-0.233904
H164	H	1.480729	0.036134	0.266096
Cl165	Cl	0.985669	-0.183323	-0.187576
Cl166	Cl	1.485669	0.316677	0.312424
H167	H	0.983324	-0.312659	0.233965
H168	H	1.483324	0.187341	0.733965
H169	H	0.980697	-0.463920	0.233943
H170	H	1.480697	0.036080	0.733943
Cl171	Cl	0.978922	-0.566495	-0.270715
Cl172	Cl	1.478922	-0.066495	0.229285
H173	H	1.084613	0.006377	0.587107
H174	H	1.584613	0.506377	1.087107
Cl175	Cl	0.407092	-0.034402	0.000066
Cl176	Cl	0.907092	0.465598	0.500066
H177	H	0.985855	-0.172210	0.150866
H178	H	1.485855	0.327790	0.650866
H179	H	0.979086	-0.555374	0.233936
H180	H	1.479086	-0.055374	0.733936
Cl181	Cl	0.602808	-0.032405	0.000069
Cl182	Cl	1.102808	0.467595	0.500069
Cl183	Cl	0.983594	-0.301454	-0.270704
Cl184	Cl	1.483594	0.198546	0.229296
H185	H	1.084612	0.006379	0.412988
H186	H	1.584612	0.506379	0.912988
Cl187	Cl	0.852677	0.140165	0.608339
Cl188	Cl	1.352677	0.640165	1.108339
Cl189	Cl	0.981592	-0.415232	-0.270716
Cl190	Cl	1.481592	0.084768	0.229284
Cl191	Cl	0.976859	-0.684634	-0.187621
Cl192	Cl	1.476859	-0.184634	0.312379
H193	H	0.975047	-0.787273	-0.150806
H194	H	1.475047	-0.287273	0.349194
H195	H	0.975038	-0.787296	0.150803
H196	H	1.475038	-0.287296	0.650803
H197	H	0.976633	-0.695839	0.150816
H198	H	1.476633	-0.195839	0.650816
H199	H	0.987467	-0.080737	0.150867
H200	H	1.487467	0.419263	0.650867
