data_functionalizedCrystal
_audit_creation_method	'MofGen! by Chris Wilmer'
_symmetry_space_group_name_H-M	'P1'
_symmetry_Int_Tables_number	1
_symmetry_cell_setting	triclinic
loop_
_symmetry_equiv_pos_as_xyz
  x,y,z
_cell_length_a	16.959455
_cell_length_b	21.295417
_cell_length_c	16.959447
_cell_angle_alpha	89.964807
_cell_angle_beta	89.985678
_cell_angle_gamma	90.027454
loop_
_atom_site_label
_atom_site_type_symbol
_atom_site_fract_x
_atom_site_fract_y
_atom_site_fract_z
Zn1	Zn	1.208326	-0.250648	-0.446882
Zn2	Zn	1.708326	0.249352	0.053118
Zn3	Zn	1.208225	-0.355925	-0.314692
Zn4	Zn	1.708225	0.144075	0.185308
Zn5	Zn	1.076155	-0.250668	-0.314719
Zn6	Zn	1.576155	0.249332	0.185281
Zn7	Zn	1.076096	-0.355878	-0.446831
Zn8	Zn	1.576096	0.144122	0.053169
O9	O	1.142200	-0.303280	-0.380781
O10	O	1.642200	0.196720	0.119219
O11	O	1.318924	-0.264625	-0.429357
O12	O	1.818924	0.235375	0.070643
O13	O	1.190688	-0.341990	-0.204085
O14	O	1.690688	0.158010	0.295915
O15	O	1.093755	-0.162576	-0.332284
O16	O	1.593755	0.337424	0.167716
O17	O	1.318849	-0.341971	-0.332237
O18	O	1.818849	0.158029	0.167763
O19	O	1.190861	-0.162561	-0.429383
O20	O	1.690861	0.337439	0.070617
O21	O	1.093657	-0.264658	-0.204105
O22	O	1.593657	0.235342	0.295895
O23	O	0.965536	-0.264613	-0.332234
O24	O	1.465536	0.235387	0.167766
O25	O	1.093654	-0.341891	-0.557448
O26	O	1.593654	0.158109	-0.057448
O27	O	0.965493	-0.341910	-0.429296
O28	O	1.465493	0.158090	0.070704
O29	O	1.190803	-0.264579	-0.557486
O30	O	1.690803	0.235421	-0.057486
O31	O	1.190630	-0.444008	-0.332188
O32	O	1.690630	0.055992	0.167812
O33	O	1.093555	-0.443973	-0.429269
O34	O	1.593555	0.056027	0.070731
C35	C	0.936834	-0.303259	-0.380763
C36	C	1.436834	0.196741	0.119237
C37	C	0.848978	-0.303265	-0.380774
C38	C	1.348978	0.196735	0.119226
C39	C	0.477500	-0.262998	-0.330347
C40	C	0.977500	0.237002	0.169653
C41	C	0.477504	-0.343613	-0.431261
C42	C	0.977504	0.156387	0.068739
C43	C	0.560050	-0.343604	-0.431256
C44	C	1.060050	0.156396	0.068744
C45	C	0.601325	-0.303292	-0.380795
C46	C	1.101325	0.196708	0.119205
C47	C	0.560054	-0.262989	-0.330339
C48	C	1.060054	0.237011	0.169661
C49	C	0.601327	-0.383911	-0.481705
C50	C	1.101327	0.116089	0.018295
C51	C	0.683877	-0.383904	-0.481702
C52	C	1.183877	0.116096	0.018298
C53	C	0.725154	-0.343588	-0.431244
C54	C	1.225154	0.156412	0.068756
C55	C	0.683878	-0.303283	-0.380787
C56	C	1.183878	0.196717	0.119213
C57	C	0.725153	-0.262971	-0.330326
C58	C	1.225153	0.237029	0.169674
C59	C	0.683879	-0.222662	-0.279871
C60	C	1.183879	0.277338	0.220129
C61	C	0.601330	-0.222673	-0.279881
C62	C	1.101330	0.277327	0.220119
C63	C	0.807702	-0.343577	-0.431235
C64	C	1.307702	0.156423	0.068765
C65	C	0.807707	-0.262962	-0.330318
C66	C	1.307707	0.237038	0.169682
C67	C	1.142097	-0.466831	-0.380737
C68	C	1.642097	0.033169	0.119263
C69	C	1.142125	-0.536799	-0.380745
C70	C	1.642125	-0.036799	0.119255
C71	C	1.192717	-0.569663	-0.330246
C72	C	1.692717	-0.069663	0.169754
C73	C	1.192754	-0.635406	-0.330264
C74	C	1.692754	-0.135406	0.169736
C75	C	1.142185	-0.668282	-0.380772
C76	C	1.642185	-0.168282	0.119228
C77	C	1.091589	-0.635410	-0.431281
C78	C	1.591589	-0.135410	0.068719
C79	C	1.091559	-0.569669	-0.431267
C80	C	1.591559	-0.069669	0.068733
N81	N	1.073038	-0.771544	-0.386792
N82	N	1.573038	-0.271544	0.113208
N83	N	1.073069	-0.833996	-0.386800
N84	N	1.573069	-0.333996	0.113200
C85	C	1.142273	-0.866357	-0.380818
C86	C	1.642273	-0.366357	0.119182
N87	N	1.211448	-0.833907	-0.374811
N88	N	1.711448	-0.333907	0.125189
N89	N	1.211416	-0.771449	-0.374798
N90	N	1.711416	-0.271449	0.125202
C91	C	1.142212	-0.739567	-0.380793
C92	C	1.642212	-0.239567	0.119207
C93	C	1.192910	-0.970506	-0.330335
C94	C	1.692910	-0.470506	0.169665
C95	C	1.192948	-1.036249	-0.330359
C96	C	1.692948	-0.536249	0.169641
C97	C	1.091777	-1.036253	-0.431371
C98	C	1.591777	-0.536253	0.068629
C99	C	1.091745	-0.970510	-0.431352
C100	C	1.591745	-0.470510	0.068648
C101	C	1.142311	-0.937641	-0.380830
C102	C	1.642311	-0.437641	0.119170
C103	C	1.348369	-0.303301	-0.380800
C104	C	1.848369	0.196699	0.119200
C105	C	1.436225	-0.303310	-0.380808
C106	C	1.936225	0.196690	0.119192
C107	C	1.142233	-0.303228	-0.586949
C108	C	1.642233	0.196772	-0.086949
C109	C	1.142247	-0.303205	-0.674806
C110	C	1.642247	0.196795	-0.174806
C111	C	1.142326	-0.139089	-0.380842
C112	C	1.642326	0.360911	0.119158
C113	C	1.142379	-0.069121	-0.380868
C114	C	1.642379	0.430879	0.119132
C115	C	1.091760	-0.343392	-1.046265
C116	C	1.591760	0.156608	-0.546265
C117	C	1.192923	-0.262886	-1.046299
C118	C	1.692923	0.237114	-0.546299
C119	C	1.192902	-0.262900	-0.963753
C120	C	1.692902	0.237100	-0.463753
C121	C	1.142310	-0.303160	-0.922459
C122	C	1.642310	0.196840	-0.422459
C123	C	1.091740	-0.343407	-0.963711
C124	C	1.591740	0.156593	-0.463711
C125	C	1.243478	-0.222658	-0.922495
C126	C	1.743478	0.277342	-0.422495
C127	C	1.243459	-0.222670	-0.839944
C128	C	1.743459	0.277330	-0.339944
C129	C	1.192863	-0.262928	-0.798648
C130	C	1.692863	0.237072	-0.298648
C131	C	1.142289	-0.303176	-0.839906
C132	C	1.642289	0.196824	-0.339906
C133	C	1.091698	-0.343437	-0.798612
C134	C	1.591698	0.156563	-0.298612
C135	C	1.041120	-0.383682	-0.839867
C136	C	1.541120	0.116318	-0.339867
C137	C	1.041143	-0.383665	-0.922416
C138	C	1.541143	0.116335	-0.422416
C139	C	1.192839	-0.262945	-0.716100
C140	C	1.692839	0.237055	-0.216100
C141	C	1.091677	-0.343453	-0.716058
C142	C	1.591677	0.156547	-0.216058
C143	C	1.142213	-0.303286	-0.175415
C144	C	1.642213	0.196714	0.324585
C145	C	1.142352	-0.303131	-0.087559
C146	C	1.642352	0.196869	0.412441
H147	H	0.567717	-0.189857	-0.238803
H148	H	1.067717	0.310143	0.261197
H149	H	1.234021	-0.230179	-0.682513
H150	H	1.734021	0.269821	-0.182513
O151	O	1.037206	-0.386796	-1.090753
O152	O	1.537206	0.113204	-0.590753
H153	H	1.045717	-0.380025	-1.155092
H154	H	1.545717	0.119975	-0.655092
O155	O	0.852218	-0.219487	-0.275879
O156	O	1.352218	0.280513	0.224121
H157	H	0.836398	-0.170096	-0.289544
H158	H	1.336398	0.329904	0.210456
H159	H	1.233892	-0.542903	-0.289110
H160	H	1.733892	-0.042903	0.210890
H161	H	1.234117	-0.230111	-1.079925
H162	H	1.734117	0.269889	-0.579925
H163	H	0.443893	-0.376437	-0.472339
H164	H	0.943893	0.123563	0.027661
O165	O	1.247458	-0.935041	-0.275867
O166	O	1.747458	-0.435041	0.224133
H167	H	1.233965	-0.947705	-0.213817
H168	H	1.733965	-0.447705	0.286183
H169	H	0.443891	-0.230178	-0.289270
H170	H	0.943891	0.269822	0.210730
O171	O	0.556813	-0.427387	-0.536131
O172	O	1.056813	0.072613	-0.036131
H173	H	0.492478	-0.420614	-0.527667
H174	H	0.992478	0.079386	-0.027667
H175	H	1.234151	-1.063006	-0.289238
H176	H	1.734151	-0.563006	0.210762
O177	O	1.298027	-0.179237	-0.967051
O178	O	1.798027	0.320763	-0.467051
H179	H	1.360058	-0.190040	-0.951227
H180	H	1.860058	0.309960	-0.451227
H181	H	1.284642	-0.189899	-0.806360
H182	H	1.784642	0.310101	-0.306360
O183	O	0.728389	-0.427373	-0.536125
O184	O	1.228389	0.072627	-0.036125
H185	H	0.766023	-0.399229	-0.576398
H186	H	1.266023	0.100771	-0.076398
H187	H	1.050361	-0.542911	-0.472390
H188	H	1.550361	-0.042911	0.027610
O189	O	1.037039	-0.670869	-0.485748
O190	O	1.537039	-0.170869	0.014252
H191	H	1.072400	-0.700780	-0.525995
H192	H	1.572400	-0.200780	-0.025995
H193	H	0.717496	-0.189843	-0.238783
H194	H	1.217496	0.310157	0.261217
O195	O	1.037228	-1.071701	-0.485847
O196	O	1.537228	-0.571701	0.014153
H197	H	1.045743	-1.122937	-0.477370
H198	H	1.545743	-0.622937	0.022630
O199	O	1.037158	-0.935058	-0.485798
O200	O	1.537158	-0.435058	0.014202
H201	H	1.001990	-0.968961	-0.520915
H202	H	1.501990	-0.468961	-0.020915
H203	H	1.233954	-0.662168	-0.289142
H204	H	1.733954	-0.162168	0.210858
O205	O	0.852223	-0.387045	-0.485648
O206	O	1.352223	0.112955	0.014352
H207	H	0.809653	-0.415076	-0.520739
H208	H	1.309653	0.084924	-0.020739
H209	H	1.050471	-0.376232	-0.682442
H210	H	1.550471	0.123768	-0.182442
H211	H	0.999968	-0.416433	-0.956013
H212	H	1.499968	0.083567	-0.456013
O213	O	0.986550	-0.427105	-0.795327
O214	O	1.486550	0.072895	-0.295327
H215	H	0.995035	-0.420350	-0.730996
H216	H	1.495035	0.079650	-0.230996
