data_functionalizedCrystal
_audit_creation_method	'MofGen! by Chris Wilmer'
_symmetry_space_group_name_H-M	'P1'
_symmetry_Int_Tables_number	1
_symmetry_cell_setting	triclinic
loop_
_symmetry_equiv_pos_as_xyz
  x,y,z
_cell_length_a	14.519709
_cell_length_b	14.519731
_cell_length_c	7.681481
_cell_angle_alpha	84.245782
_cell_angle_beta	95.739713
_cell_angle_gamma	83.684499
loop_
_atom_site_label
_atom_site_type_symbol
_atom_site_fract_x
_atom_site_fract_y
_atom_site_fract_z
O1	O	1.215185	0.129594	-0.146206
O2	O	1.548519	0.462927	0.187127
O3	O	1.881852	0.796260	0.520460
O4	O	0.946706	0.143833	-0.146261
O5	O	1.280040	0.477166	0.187073
O6	O	1.613373	0.810500	0.520406
O7	O	1.088055	0.002475	-0.146216
O8	O	1.421388	0.335809	0.187117
O9	O	1.754721	0.669142	0.520451
O10	O	1.073837	0.270951	-0.146251
O11	O	1.407170	0.604285	0.187082
O12	O	1.740503	0.937618	0.520416
O13	O	1.105452	-0.014963	0.146647
O14	O	1.438786	0.318370	0.479981
O15	O	1.772119	0.651704	0.813314
O16	O	0.964104	0.126395	0.146603
O17	O	1.297437	0.459728	0.479936
O18	O	1.630770	0.793062	0.813269
O19	O	1.232583	0.112155	0.146657
O20	O	1.565916	0.445489	0.479990
O21	O	1.899249	0.778822	0.813324
Zn22	Zn	1.101106	0.116506	0.193128
Zn23	Zn	1.434439	0.449840	0.526462
Zn24	Zn	1.767772	0.783173	0.859795
Zn25	Zn	1.078183	0.139482	-0.192732
Zn26	Zn	1.411517	0.472815	0.140602
Zn27	Zn	1.744850	0.806149	0.473935
O28	O	1.091234	0.253513	0.146612
O29	O	1.424568	0.586847	0.479946
O30	O	1.757901	0.920180	0.813279
C31	C	0.921045	0.134451	0.000164
C32	C	1.254378	0.467784	0.333498
C33	C	1.587711	0.801118	0.666831
C34	C	0.818662	0.132464	0.000144
C35	C	1.151995	0.465797	0.333477
C36	C	1.485329	0.799131	0.666811
C37	C	1.096087	-0.040603	0.000216
C38	C	1.429421	0.292730	0.333549
C39	C	1.762754	0.626063	0.666883
C40	C	1.094091	-0.142984	0.000217
C41	C	1.427425	0.190350	0.333550
C42	C	1.760758	0.523683	0.666883
C43	C	0.443771	0.125140	0.000225
C44	C	0.777104	0.458473	0.333558
C45	C	1.110437	0.791806	0.666892
C46	C	0.548077	0.127174	0.000202
C47	C	0.881411	0.460507	0.333535
C48	C	1.214744	0.793840	0.666869
C49	C	0.631213	0.128802	0.000183
C50	C	0.964546	0.462135	0.333516
C51	C	1.297880	0.795468	0.666850
C52	C	0.735526	0.130836	0.000163
C53	C	1.068860	0.464169	0.333496
C54	C	1.402193	0.797503	0.666830
C55	C	1.092469	-0.226128	0.000212
C56	C	1.425803	0.107206	0.333546
C57	C	1.759136	0.440539	0.666879
C58	C	1.090442	-0.330435	0.000198
C59	C	1.423775	0.002898	0.333532
C60	C	1.757109	0.336231	0.666865
C61	C	1.088833	-0.413574	0.000187
C62	C	1.422166	-0.080241	0.333520
C63	C	1.755499	0.253093	0.666853
C64	C	1.086806	-0.517889	0.000176
C65	C	1.420139	-0.184555	0.333509
C66	C	1.753472	0.148778	0.666843
C67	C	1.258244	0.121538	0.000228
C68	C	1.591577	0.454871	0.333562
C69	C	1.924911	0.788204	0.666895
C70	C	1.360626	0.123525	0.000237
C71	C	1.693959	0.456859	0.333570
C72	C	2.027293	0.790192	0.666904
C73	C	1.083201	0.296592	0.000177
C74	C	1.416535	0.629925	0.333510
C75	C	1.749868	0.963259	0.666843
C76	C	1.085197	0.398973	0.000164
C77	C	1.418530	0.732306	0.333498
C78	C	1.751863	1.065640	0.666831
N79	N	1.116756	0.100826	0.456467
N80	N	1.450089	0.434159	0.789801
N81	N	1.783423	0.767492	1.123134
N82	N	1.062540	0.155156	-0.456071
N83	N	1.395874	0.488489	-0.122738
N84	N	1.729207	0.821822	0.210596
H85	H	1.007197	0.210610	0.468715
H86	H	1.340530	0.543943	0.802048
H87	H	1.673864	0.877277	1.135381
H88	H	1.172110	0.045374	0.531691
H89	H	1.505443	0.378707	0.865024
H90	H	1.838776	0.712041	1.198357
