data_functionalizedCrystal
_audit_creation_method	'MofGen! by Chris Wilmer'
_symmetry_space_group_name_H-M	'P1'
_symmetry_Int_Tables_number	1
_symmetry_cell_setting	triclinic
loop_
_symmetry_equiv_pos_as_xyz
  x,y,z
_cell_length_a	19.188930
_cell_length_b	19.188930
_cell_length_c	17.666332
_cell_angle_alpha	89.988397
_cell_angle_beta	90.023234
_cell_angle_gamma	96.855221
loop_
_atom_site_label
_atom_site_type_symbol
_atom_site_fract_x
_atom_site_fract_y
_atom_site_fract_z
O1	O	0.926150	-0.087169	0.063200
O2	O	1.426150	0.412831	0.563200
O3	O	0.722838	-0.098903	0.063149
O4	O	1.222838	0.401097	0.563149
O5	O	0.830361	0.008620	0.063161
O6	O	1.330361	0.508620	0.563161
O7	O	0.818627	-0.194692	0.063188
O8	O	1.318627	0.305308	0.563188
O9	O	0.830342	0.008625	-0.062735
O10	O	1.330342	0.508625	0.437265
O11	O	0.722820	-0.098897	-0.062747
O12	O	1.222820	0.401103	0.437253
O13	O	0.926131	-0.087163	-0.062697
O14	O	1.426131	0.412837	0.437303
Cu15	Cu	0.824473	-0.093030	-0.074217
Cu16	Cu	1.324473	0.406970	0.425783
Cu17	Cu	0.824496	-0.093036	0.074670
Cu18	Cu	1.324496	0.406964	0.574670
O19	O	0.818608	-0.194686	-0.062709
O20	O	1.318608	0.305314	0.437291
C21	C	0.696818	-0.098520	0.000194
C22	C	1.196818	0.401480	0.500194
C23	C	0.619313	-0.097380	0.000174
C24	C	1.119313	0.402620	0.500174
C25	C	0.829972	0.034634	0.000211
C26	C	1.329972	0.534634	0.500211
C27	C	0.828831	0.112138	0.000204
C28	C	1.328831	0.612138	0.500204
N29	N	0.824463	-0.093025	-0.178937
N30	N	1.324463	0.406975	0.321063
C31	C	0.574389	-0.160470	0.000194
C32	C	1.074389	0.339530	0.500194
C33	C	0.501566	-0.159399	0.000203
C34	C	1.001566	0.340601	0.500203
C35	C	0.473669	-0.095233	0.000206
C36	C	0.973669	0.404767	0.500206
C37	C	0.518603	-0.032133	0.000181
C38	C	1.018603	0.467867	0.500181
C39	C	0.591425	-0.033207	0.000166
C40	C	1.091425	0.466793	0.500166
N41	N	0.365695	-0.046188	0.043078
N42	N	0.865695	0.453812	0.543078
N43	N	0.296517	-0.045172	0.043095
N44	N	0.796517	0.454828	0.543095
C45	C	0.254260	-0.091994	0.000252
C46	C	0.754260	0.408006	0.500252
N47	N	0.283795	-0.139881	-0.042599
N48	N	0.783795	0.360119	0.457401
N49	N	0.352979	-0.140899	-0.042612
N50	N	0.852979	0.359101	0.457388
C51	C	0.394707	-0.094062	0.000222
C52	C	0.894707	0.405938	0.500222
C53	C	0.130372	-0.153928	0.000280
C54	C	0.630372	0.346072	0.500280
C55	C	0.057547	-0.152853	0.000283
C56	C	0.557547	0.347147	0.500283
C57	C	0.074586	-0.025586	0.000270
C58	C	0.574586	0.474414	0.500270
C59	C	0.147409	-0.026662	0.000258
C60	C	0.647409	0.473338	0.500258
C61	C	0.175298	-0.090835	0.000267
C62	C	0.675298	0.409165	0.500267
C63	C	0.952151	-0.087546	0.000260
C64	C	1.452151	0.412454	0.500260
C65	C	1.029656	-0.088687	0.000285
C66	C	1.529656	0.411313	0.500285
C67	C	0.818997	-0.220700	0.000244
C68	C	1.318997	0.279300	0.500244
C69	C	0.820138	-0.298204	0.000255
C70	C	1.320138	0.201796	0.500255
C71	C	0.891922	0.157062	0.000216
C72	C	1.391922	0.657062	0.500216
C73	C	0.890850	0.229886	0.000228
C74	C	1.390850	0.729886	0.500228
C75	C	0.826684	0.257782	0.000212
C76	C	1.326684	0.757782	0.500212
C77	C	0.763585	0.212849	0.000205
C78	C	1.263585	0.712849	0.500205
C79	C	0.764658	0.140026	0.000200
C80	C	1.264658	0.640026	0.500200
N81	N	0.777630	0.365789	-0.042645
N82	N	1.277630	0.865789	0.457355
N83	N	0.776615	0.434968	-0.042642
N84	N	1.276615	0.934968	0.457358
C85	C	0.823446	0.477191	0.000227
C86	C	1.323446	0.977191	0.500227
N87	N	0.871341	0.447624	0.043084
N88	N	1.371341	0.947624	0.543084
N89	N	0.872359	0.378439	0.043079
N90	N	1.372359	0.878439	0.543079
C91	C	0.825513	0.336745	0.000218
C92	C	1.325513	0.836745	0.500218
C93	C	0.885379	0.601079	0.000253
C94	C	1.385379	1.101079	0.500253
C95	C	0.884305	0.673904	0.000270
C96	C	1.384305	1.173904	0.500270
C97	C	0.757038	0.656865	0.000239
C98	C	1.257038	1.156865	0.500239
C99	C	0.758114	0.584042	0.000230
C100	C	1.258114	1.084042	0.500230
C101	C	0.822287	0.556154	0.000233
C102	C	1.322287	1.056154	0.500233
C103	C	0.872089	-0.045437	-0.218541
C104	C	1.372089	0.454563	0.281459
C105	C	0.872093	-0.045433	-0.297789
C106	C	1.372093	0.454567	0.202211
C107	C	0.824478	-0.093030	-0.337429
C108	C	1.324478	0.406970	0.162571
C109	C	0.776842	-0.140621	-0.297815
C110	C	1.276842	0.359379	0.202185
C111	C	0.776835	-0.140619	-0.218569
C112	C	1.276835	0.359381	0.281431
N113	N	0.815401	-0.154837	-0.461841
N114	N	1.315401	0.345163	0.038159
N115	N	0.815413	-0.154837	-0.537121
N116	N	1.315413	0.345163	-0.037121
C117	C	0.824496	-0.093040	-0.576193
C118	C	1.324496	0.406960	-0.076193
N119	N	0.833582	-0.031239	-0.537140
N120	N	1.333582	0.468761	-0.037140
N121	N	0.833574	-0.031240	-0.461853
N122	N	1.333574	0.468760	0.038147
C123	C	0.824480	-0.093038	-0.423358
C124	C	1.324480	0.406962	0.076642
C125	C	0.872130	-0.045444	-0.701727
C126	C	1.372130	0.454556	-0.201727
C127	C	0.872129	-0.045440	-0.780976
C128	C	1.372129	0.454560	-0.280976
C129	C	0.776881	-0.140634	-0.781000
C130	C	1.276881	0.359366	-0.281000
C131	C	0.776878	-0.140632	-0.701753
C132	C	1.276878	0.359368	-0.201753
C133	C	0.824506	-0.093038	-0.662121
C134	C	1.324506	0.406962	-0.162121
N135	N	0.824512	-0.093036	0.179390
N136	N	1.324512	0.406964	0.679390
H137	H	0.597091	-0.212725	0.000203
H138	H	1.097091	0.287275	0.500203
H139	H	0.704792	0.679578	0.000230
H140	H	1.204792	1.179578	0.500230
O141	O	0.923506	0.005892	-0.823688
O142	O	1.423506	0.505892	-0.323688
H143	H	0.894232	0.039765	-0.859810
H144	H	1.394232	0.539765	-0.359810
O145	O	0.160454	-0.223141	0.000274
O146	O	0.660454	0.276859	0.500274
H147	H	0.193246	-0.226684	0.051585
H148	H	0.693246	0.273316	0.551585
H149	H	0.942228	0.266470	0.000241
H150	H	1.442228	0.766470	0.500241
O151	O	0.725495	-0.191963	-0.340572
O152	O	1.225495	0.308037	0.159428
H153	H	0.734224	-0.246368	-0.325333
H154	H	1.234224	0.253632	0.174667
O155	O	0.954590	0.570994	0.000274
O156	O	1.454590	1.070994	0.500274
H157	H	0.984896	0.589073	-0.051024
H158	H	1.484896	1.089073	0.448976
O159	O	0.725545	-0.191991	-0.823748
O160	O	1.225545	0.308009	-0.323748
H161	H	0.692432	-0.225090	-0.782891
H162	H	1.192432	0.274910	-0.282891
O163	O	0.952356	0.722364	0.000276
O164	O	1.452356	1.222364	0.500276
H165	H	0.997156	0.690734	0.000269
H166	H	1.497156	1.190734	0.500269
H167	H	0.738099	-0.179386	-0.669505
H168	H	1.238099	0.320614	-0.169505
H169	H	0.183988	0.024713	0.000246
H170	H	0.683988	0.524713	0.500246
O171	O	0.696604	0.091572	0.000177
O172	O	1.196604	0.591572	0.500177
H173	H	0.694052	0.057975	0.051488
H174	H	1.194052	0.557975	0.551488
O175	O	0.923471	0.005916	-0.658978
O176	O	1.423471	0.505916	-0.158978
H177	H	0.915464	-0.002075	-0.597218
H178	H	1.415464	0.497925	-0.097218
O179	O	0.009087	-0.220904	0.000302
O180	O	0.509087	0.279096	0.500302
H181	H	0.040718	-0.265704	0.000312
H182	H	0.540718	0.234296	0.500312
O183	O	0.694375	0.242930	0.000179
O184	O	1.194375	0.742930	0.500179
H185	H	0.704227	0.301116	0.000174
H186	H	1.204227	0.801116	0.500174
O187	O	0.690066	0.535581	0.000198
O188	O	1.190066	1.035581	0.500198
H189	H	0.645266	0.567211	0.000180
H190	H	1.145266	1.067211	0.500180
H191	H	0.464982	-0.210776	0.000217
H192	H	0.964982	0.289224	0.500217
H193	H	0.495885	0.020111	0.000194
H194	H	0.995885	0.520111	0.500194
H195	H	0.910869	-0.006681	-0.186275
H196	H	1.410869	0.493319	0.313725
O197	O	0.044510	0.043625	0.000273
O198	O	0.544510	0.543625	0.500273
H199	H	-0.013676	0.033773	0.000291
H200	H	0.486324	0.533773	0.500291
O201	O	0.725470	-0.191953	-0.175845
O202	O	1.225470	0.308047	0.324155
H203	H	0.692361	-0.225053	-0.216719
H204	H	1.192361	0.274947	0.283281
H205	H	0.628003	0.018171	0.000150
H206	H	1.128003	0.518171	0.500150
O207	O	0.923470	0.005888	-0.340520
O208	O	1.423470	0.505888	0.159480
H209	H	0.956591	0.038979	-0.299648
H210	H	1.456591	0.538979	0.200352
H211	H	0.944176	0.134360	0.000222
H212	H	1.444176	0.634360	0.500222
