data_functionalizedCrystal
_audit_creation_method	'MofGen! by Chris Wilmer'
_symmetry_space_group_name_H-M	'P1'
_symmetry_Int_Tables_number	1
_symmetry_cell_setting	triclinic
loop_
_symmetry_equiv_pos_as_xyz
  x,y,z
_cell_length_a	19.121112
_cell_length_b	19.121063
_cell_length_c	19.120904
_cell_angle_alpha	94.741613
_cell_angle_beta	89.911155
_cell_angle_gamma	89.873133
loop_
_atom_site_label
_atom_site_type_symbol
_atom_site_fract_x
_atom_site_fract_y
_atom_site_fract_z
Zn1	Zn	1.039579	0.343505	0.456027
Zn2	Zn	1.289579	0.593505	0.706027
Zn3	Zn	1.539579	0.843505	0.956027
Zn4	Zn	1.789579	1.093505	1.206027
Zn5	Zn	1.039492	0.456148	0.343374
Zn6	Zn	1.289492	0.706148	0.593374
Zn7	Zn	1.539492	0.956148	0.843374
Zn8	Zn	1.789492	1.206148	1.093374
Zn9	Zn	0.927792	0.333517	0.333406
Zn10	Zn	1.177792	0.583517	0.583406
Zn11	Zn	1.427792	0.833517	0.833406
Zn12	Zn	1.677792	1.083517	1.083406
Zn13	Zn	0.917325	0.455676	0.455559
Zn14	Zn	1.167325	0.705676	0.705559
Zn15	Zn	1.417325	0.955676	0.955559
Zn16	Zn	1.667325	1.205676	1.205559
O17	O	0.981047	0.397212	0.397092
O18	O	1.231047	0.647212	0.647092
O19	O	1.481047	0.897212	0.897092
O20	O	1.731047	1.147212	1.147092
O21	O	1.137478	0.362825	0.445451
O22	O	1.387478	0.612825	0.695451
O23	O	1.637478	0.862825	0.945451
O24	O	1.887478	1.112825	1.195451
O25	O	1.029019	0.435899	0.243785
O26	O	1.279019	0.685899	0.493785
O27	O	1.529019	0.935899	0.743785
O28	O	1.779019	1.185899	0.993785
O29	O	0.947037	0.236577	0.345696
O30	O	1.197037	0.486577	0.595696
O31	O	1.447037	0.736577	0.845696
O32	O	1.697037	0.986577	1.095696
O33	O	1.137414	0.445584	0.362686
O34	O	1.387414	0.695584	0.612686
O35	O	1.637414	0.945584	0.862686
O36	O	1.887414	1.195584	1.112686
O37	O	1.029167	0.243915	0.435786
O38	O	1.279167	0.493915	0.685786
O39	O	1.529167	0.743915	0.935786
O40	O	1.779167	0.993915	1.185786
O41	O	0.946953	0.345802	0.236461
O42	O	1.196953	0.595802	0.486461
O43	O	1.446953	0.845802	0.736461
O44	O	1.696953	1.095802	0.986461
O45	O	0.828492	0.345344	0.345242
O46	O	1.078492	0.595344	0.595242
O47	O	1.328492	0.845344	0.845242
O48	O	1.578492	1.095344	1.095242
O49	O	0.929198	0.444779	0.553888
O50	O	1.179198	0.694779	0.803888
O51	O	1.429198	0.944779	1.053888
O52	O	1.679198	1.194779	1.303888
O53	O	0.820802	0.435094	0.434987
O54	O	1.070802	0.685094	0.684987
O55	O	1.320802	0.935094	0.934987
O56	O	1.570802	1.185094	1.184987
O57	O	1.019017	0.362368	0.554232
O58	O	1.269017	0.612368	0.804232
O59	O	1.519017	0.862368	1.054232
O60	O	1.769017	1.112368	1.304232
O61	O	1.018870	0.554351	0.362231
O62	O	1.268870	0.804351	0.612231
O63	O	1.518870	1.054351	0.862231
O64	O	1.768870	1.304351	1.112231
O65	O	0.929114	0.554005	0.444653
O66	O	1.179114	0.804005	0.694653
O67	O	1.429114	1.054005	0.944653
O68	O	1.679114	1.304005	1.194653
C69	C	0.799260	0.389085	0.388983
C70	C	1.049260	0.639085	0.638983
C71	C	1.299260	0.889085	0.888983
C72	C	1.549260	1.139085	1.138983
C73	C	0.721489	0.385625	0.385531
C74	C	0.971489	0.635625	0.635531
C75	C	1.221489	0.885625	0.885531
C76	C	1.471489	1.135625	1.135531
C77	C	0.281836	0.363681	0.363667
C78	C	0.531836	0.613681	0.613667
C79	C	0.781836	0.863681	0.863667
C80	C	1.031836	1.113681	1.113667
C81	C	0.354909	0.366935	0.366914
C82	C	0.604909	0.616935	0.616914
C83	C	0.854909	0.866935	0.866914
C84	C	1.104909	1.116935	1.116914
C85	C	0.387458	0.415361	0.415193
C86	C	0.637458	0.665361	0.665193
C87	C	0.887458	0.915361	0.915193
C88	C	1.137458	1.165361	1.165193
C89	C	0.346929	0.460531	0.460233
C90	C	0.596929	0.710531	0.710233
C91	C	0.846929	0.960531	0.960233
C92	C	1.096929	1.210531	1.210233
C93	C	0.273857	0.457272	0.456989
C94	C	0.523857	0.707272	0.706989
C95	C	0.773857	0.957272	0.956989
C96	C	1.023857	1.207272	1.206989
C97	C	0.607889	0.427537	0.427326
C98	C	0.857889	0.677537	0.677326
C99	C	1.107889	0.927537	0.927326
C100	C	1.357889	1.177537	1.177326
C101	C	0.680966	0.430793	0.430566
C102	C	0.930966	0.680793	0.680566
C103	C	1.180966	0.930793	0.930566
C104	C	1.430966	1.180793	1.180566
C105	C	0.688941	0.337196	0.337247
C106	C	0.938941	0.587196	0.587247
C107	C	1.188941	0.837196	0.837247
C108	C	1.438941	1.087196	1.087247
C109	C	0.615867	0.333945	0.334005
C110	C	0.865867	0.583945	0.584005
C111	C	1.115867	0.833945	0.834005
C112	C	1.365867	1.083945	1.084005
C113	C	0.575345	0.379112	0.379047
C114	C	0.825345	0.629112	0.629047
C115	C	1.075345	0.879112	0.879047
C116	C	1.325345	1.129112	1.129047
C117	C	0.462151	0.418690	0.418512
C118	C	0.712151	0.668690	0.668512
C119	C	0.962151	0.918690	0.918512
C120	C	1.212151	1.168690	1.168512
C121	C	0.500654	0.375779	0.375731
C122	C	0.750654	0.625779	0.625731
C123	C	1.000654	0.875779	0.875731
C124	C	1.250654	1.125779	1.125731
C125	C	0.972865	0.579659	0.404489
C126	C	1.222865	0.829659	0.654489
C127	C	1.472865	1.079659	0.904489
C128	C	1.722865	1.329659	1.154489
C129	C	0.969427	0.657714	0.407680
C130	C	1.219427	0.907714	0.657680
C131	C	1.469427	1.157714	0.907680
C132	C	1.719427	1.407714	1.157680
C133	C	0.972950	0.404635	0.580252
C134	C	1.222950	0.654635	0.830252
C135	C	1.472950	0.904635	1.080252
C136	C	1.722950	1.154635	1.330252
C137	C	0.969499	0.407798	0.658304
C138	C	1.219499	0.657798	0.908304
C139	C	1.469499	0.907798	1.158304
C140	C	1.719499	1.157798	1.408304
C141	C	1.163543	0.405371	0.405233
C142	C	1.413543	0.655371	0.655233
C143	C	1.663543	0.905371	0.905233
C144	C	1.913543	1.155371	1.155233
C145	C	1.241312	0.408848	0.408702
C146	C	1.491312	0.658848	0.658702
C147	C	1.741312	0.908848	0.908702
C148	C	1.991312	1.158848	1.158702
C149	C	0.989279	0.214054	0.389681
C150	C	1.239279	0.464054	0.639681
C151	C	1.489279	0.714054	0.889681
C152	C	1.739279	0.964054	1.139681
C153	C	0.992787	0.136003	0.386524
C154	C	1.242787	0.386003	0.636524
C155	C	1.492787	0.636003	0.886524
C156	C	1.742787	0.886003	1.136524
C157	C	1.014577	0.694545	0.366305
C158	C	1.264577	0.944545	0.616305
C159	C	1.514577	1.194545	0.866305
C160	C	1.764577	1.444545	1.116305
C161	C	1.011348	0.767887	0.369311
C162	C	1.261348	1.017887	0.619311
C163	C	1.511348	1.267887	0.869311
C164	C	1.761348	1.517887	1.119311
C165	C	0.962966	0.804396	0.413688
C166	C	1.212966	1.054396	0.663688
C167	C	1.462966	1.304396	0.913688
C168	C	1.712966	1.554396	1.163688
C169	C	0.917815	0.767560	0.455067
C170	C	1.167815	1.017560	0.705067
C171	C	1.417815	1.267560	0.955067
C172	C	1.667815	1.517560	1.205067
C173	C	0.921047	0.694220	0.452065
C174	C	1.171047	0.944220	0.702065
C175	C	1.421047	1.194220	0.952065
C176	C	1.671047	1.444220	1.202065
C177	C	0.950869	1.025827	0.424901
C178	C	1.200869	1.275827	0.674901
C179	C	1.450869	1.525827	0.924901
C180	C	1.700869	1.775827	1.174901
C181	C	0.947638	1.099172	0.427898
C182	C	1.197638	1.349172	0.677898
C183	C	1.447638	1.599172	0.927898
C184	C	1.697638	1.849172	1.177898
C185	C	1.041173	1.099494	0.342143
C186	C	1.291173	1.349494	0.592143
C187	C	1.541173	1.599494	0.842143
C188	C	1.791173	1.849494	1.092143
C189	C	1.044398	1.026152	0.339142
C190	C	1.294398	1.276152	0.589142
C191	C	1.544398	1.526152	0.839142
C192	C	1.794398	1.776152	1.089142
C193	C	0.999249	0.989323	0.380523
C194	C	1.249249	1.239323	0.630523
C195	C	1.499249	1.489323	0.880523
C196	C	1.749249	1.739323	1.130523
C197	C	0.959663	0.879362	0.416759
C198	C	1.209663	1.129362	0.666759
C199	C	1.459663	1.379362	0.916759
C200	C	1.709663	1.629362	1.166759
C201	C	1.002556	0.914358	0.377455
C202	C	1.252556	1.164358	0.627455
C203	C	1.502556	1.414358	0.877455
C204	C	1.752556	1.664358	1.127455
C205	C	0.989155	0.389769	0.214643
C206	C	1.239155	0.639769	0.464643
C207	C	1.489155	0.889769	0.714643
C208	C	1.739155	1.139769	0.964643
C209	C	0.992750	0.386414	0.136590
C210	C	1.242750	0.636414	0.386590
C211	C	1.492750	0.886414	0.636590
C212	C	1.742750	1.136414	0.886590
C213	C	1.014640	0.366379	0.695153
C214	C	1.264640	0.616379	0.945153
C215	C	1.514640	0.866379	1.195153
C216	C	1.764640	1.116379	1.445153
C217	C	1.011389	0.369348	0.768491
C218	C	1.261389	0.619348	1.018491
C219	C	1.511389	0.869348	1.268491
C220	C	1.761389	1.119348	1.518491
C221	C	0.963001	0.413741	0.804978
C222	C	1.213001	0.663741	1.054978
C223	C	1.463001	0.913741	1.304978
C224	C	1.713001	1.163741	1.554978
C225	C	0.917855	0.455161	0.768124
C226	C	1.167855	0.705161	1.018124
C227	C	1.417855	0.955161	1.268124
C228	C	1.667855	1.205161	1.518124
C229	C	0.921103	0.452188	0.694787
C230	C	1.171103	0.702188	0.944787
C231	C	1.421103	0.952188	1.194787
C232	C	1.671103	1.202188	1.444787
C233	C	0.950852	0.424861	1.026399
C234	C	1.200852	0.674861	1.276399
C235	C	1.450852	0.924861	1.526399
C236	C	1.700852	1.174861	1.776399
C237	C	0.947609	0.427833	1.099740
C238	C	1.197609	0.677833	1.349740
C239	C	1.447609	0.927833	1.599740
C240	C	1.697609	1.177833	1.849740
C241	C	1.041143	0.342018	1.100103
C242	C	1.291143	0.592018	1.350103
C243	C	1.541143	0.842018	1.600103
C244	C	1.791143	1.092018	1.850103
C245	C	1.044389	0.339052	1.026765
C246	C	1.294389	0.589052	1.276765
C247	C	1.544389	0.839052	1.526765
C248	C	1.794389	1.089052	1.776765
C249	C	0.999241	0.380470	0.989916
C250	C	1.249241	0.630470	1.239916
C251	C	1.499241	0.880470	1.489916
C252	C	1.749241	1.130470	1.739916
C253	C	0.959678	0.416778	0.879942
C254	C	1.209678	0.666778	1.129942
C255	C	1.459678	0.916778	1.379942
C256	C	1.709678	1.166778	1.629942
C257	C	1.002560	0.377428	0.914954
C258	C	1.252560	0.627428	1.164954
C259	C	1.502560	0.877428	1.414954
C260	C	1.752560	1.127428	1.664954
H261	H	0.373436	0.499957	0.499546
H262	H	0.623436	0.749957	0.749546
H263	H	0.873436	0.999957	0.999546
H264	H	1.123436	1.249957	1.249546
F265	F	0.715605	0.482338	0.481953
F266	F	0.965605	0.732338	0.731953
F267	F	1.215605	0.982338	0.981953
F268	F	1.465605	1.232338	1.231953
H269	H	1.083794	0.302905	0.997062
H270	H	1.333794	0.552905	1.247062
H271	H	1.583794	0.802905	1.497062
H272	H	1.833794	1.052905	1.747062
F273	F	0.873056	0.496271	0.655570
F274	F	1.123056	0.746271	0.905570
F275	F	1.373056	0.996271	1.155570
F276	F	1.623056	1.246271	1.405570
F277	F	0.564771	0.475611	0.475262
F278	F	0.814771	0.725611	0.725262
F279	F	1.064771	0.975611	0.975262
F280	F	1.314771	1.225611	1.225262
F281	F	1.054049	0.875501	0.330231
F282	F	1.304049	1.125501	0.580231
F283	F	1.554049	1.375501	0.830231
F284	F	1.804049	1.625501	1.080231
H285	H	1.077899	0.308297	1.130112
H286	H	1.327899	0.558297	1.380112
H287	H	1.577899	0.808297	1.630112
H288	H	1.827899	1.058297	1.880112
H289	H	1.077931	1.129488	0.308453
H290	H	1.327931	1.379488	0.558453
H291	H	1.577931	1.629488	0.808453
H292	H	1.827931	1.879488	1.058453
F293	F	0.866326	0.806418	0.502300
F294	F	1.116326	1.056418	0.752300
F295	F	1.366326	1.306418	1.002300
F296	F	1.616326	1.556418	1.252300
H297	H	1.083795	0.996428	0.303006
H298	H	1.333795	1.246428	0.553006
H299	H	1.583795	1.496428	0.803006
H300	H	1.833795	1.746428	1.053006
H301	H	1.048113	0.797871	0.335619
H302	H	1.298113	1.047871	0.585619
H303	H	1.548113	1.297871	0.835619
H304	H	1.798113	1.547871	1.085619
H305	H	0.884283	0.664233	0.485757
H306	H	1.134283	0.914233	0.735757
H307	H	1.384283	1.164233	0.985757
H308	H	1.634283	1.414233	1.235757
F309	F	1.054051	0.330177	0.876120
F310	F	1.304051	0.580177	1.126120
F311	F	1.554051	0.830177	1.376120
F312	F	1.804051	1.080177	1.626120
F313	F	0.902816	0.986640	0.468943
F314	F	1.152816	1.236640	0.718943
F315	F	1.402816	1.486640	0.968943
F316	F	1.652816	1.736640	1.218943
F317	F	0.908172	0.918224	0.463986
F318	F	1.158172	1.168224	0.713986
F319	F	1.408172	1.418224	0.963986
F320	F	1.658172	1.668224	1.213986
H321	H	1.054045	0.330232	0.665451
H322	H	1.304045	0.580232	0.915451
H323	H	1.554045	0.830232	1.165451
H324	H	1.804045	1.080232	1.415451
H325	H	0.908247	1.128897	0.464048
H326	H	1.158247	1.378897	0.714048
H327	H	1.408247	1.628897	0.964048
H328	H	1.658247	1.878897	1.214048
H329	H	0.255340	0.324247	0.324352
H330	H	0.505340	0.574247	0.574352
H331	H	0.755340	0.824247	0.824352
H332	H	1.005340	1.074247	1.074352
H333	H	0.908203	0.463984	1.129446
H334	H	1.158203	0.713984	1.379446
H335	H	1.408203	0.963984	1.629446
H336	H	1.658203	1.213984	1.879446
F337	F	1.059457	0.325289	0.807708
F338	F	1.309457	0.575289	1.057708
F339	F	1.559457	0.825289	1.307708
F340	F	1.809457	1.075289	1.557708
H341	H	0.920283	0.452926	0.909658
H342	H	1.170283	0.702926	1.159658
H343	H	1.420283	0.952926	1.409658
H344	H	1.670283	1.202926	1.659658
F345	F	0.230730	0.505344	0.504923
F346	F	0.480730	0.755344	0.754923
F347	F	0.730730	1.005344	1.004923
F348	F	0.980730	1.255344	1.254923
F349	F	1.066068	0.655695	0.319069
F350	F	1.316068	0.905695	0.569069
F351	F	1.566068	1.155695	0.819069
F352	F	1.816068	1.405695	1.069069
F353	F	0.902801	0.468943	0.987191
F354	F	1.152801	0.718943	1.237191
F355	F	1.402801	0.968943	1.487191
F356	F	1.652801	1.218943	1.737191
H357	H	0.878454	0.491304	0.797837
H358	H	1.128454	0.741304	1.047837
H359	H	1.378454	0.991304	1.297837
H360	H	1.628454	1.241304	1.547837
F361	F	0.732072	0.289127	0.289316
F362	F	0.982072	0.539127	0.539316
F363	F	1.232072	0.789127	0.789316
F364	F	1.482072	1.039127	1.039316
H365	H	0.589371	0.294516	0.294686
H366	H	0.839371	0.544516	0.544686
H367	H	1.089371	0.794516	0.794686
H368	H	1.339371	1.044516	1.044686
F369	F	0.398034	0.318857	0.318986
F370	F	0.648034	0.568857	0.568986
F371	F	0.898034	0.818857	0.818986
F372	F	1.148034	1.068857	1.068986
H373	H	0.488660	0.458121	0.457819
H374	H	0.738660	0.708121	0.707819
H375	H	0.988660	0.958121	0.957819
H376	H	1.238660	1.208121	1.207819
F377	F	0.466011	0.324239	0.324353
F378	F	0.716011	0.574239	0.574353
F379	F	0.966011	0.824239	0.824353
F380	F	1.216011	1.074239	1.074353
