data_functionalizedCrystal
_audit_creation_method	'MofGen! by Chris Wilmer'
_symmetry_space_group_name_H-M	'P1'
_symmetry_Int_Tables_number	1
_symmetry_cell_setting	triclinic
loop_
_symmetry_equiv_pos_as_xyz
  x,y,z
_cell_length_a	14.044220
_cell_length_b	14.044220
_cell_length_c	13.101039
_cell_angle_alpha	86.332523
_cell_angle_beta	86.340132
_cell_angle_gamma	86.811122
loop_
_atom_site_label
_atom_site_type_symbol
_atom_site_fract_x
_atom_site_fract_y
_atom_site_fract_z
O1	O	1.281968	-0.225348	-0.085109
O2	O	1.005298	-0.217041	-0.085135
O3	O	1.139480	-0.082860	-0.085112
O4	O	1.147787	-0.359530	-0.085132
O5	O	1.129854	-0.092504	0.085316
O6	O	0.995673	-0.226686	0.085293
O7	O	1.272343	-0.234993	0.085319
Zn8	Zn	1.132479	-0.232371	0.112365
Zn9	Zn	1.145162	-0.219663	-0.112181
O10	O	1.138161	-0.369175	0.085296
C11	C	0.964864	-0.218228	0.000076
C12	C	0.858722	-0.207383	0.000066
C13	C	0.664383	-0.187558	0.000088
C14	C	0.613253	-0.264472	0.000087
C15	C	0.505116	-0.253441	0.000099
C16	C	0.772529	-0.198587	0.000076
C17	C	1.131031	-0.052060	0.000102
C18	C	1.120187	0.054083	0.000102
C19	C	1.312777	-0.233806	0.000106
C20	C	1.418920	-0.244651	0.000109
C21	C	1.146610	-0.399974	0.000080
C22	C	1.157455	-0.506116	0.000073
N23	N	1.123831	-0.241043	0.265612
C24	C	1.100362	0.248421	0.000086
C25	C	1.177276	0.299551	0.000090
C26	C	1.166245	0.407688	0.000080
C27	C	1.111391	0.140275	0.000095
N28	N	1.153817	-0.210984	-0.265428
C29	C	1.112065	-0.252851	0.474653
C30	C	1.165580	-0.199179	0.525538
C31	C	1.159034	-0.205749	0.641855
C32	C	1.118610	-0.246282	0.358325
H33	H	1.251413	0.262115	0.000028
H34	H	0.626945	-0.113431	0.000099
O35	O	1.051492	-0.313430	0.527003
C36	C	0.984731	-0.260841	0.589054
H37	H	1.015427	-0.190190	0.604993
H38	H	0.915889	-0.246186	0.547793
C39	C	0.925633	-0.405403	0.671466
C40	C	0.963338	-0.318632	0.691050
H41	H	0.912433	-0.441051	0.734380
H42	H	0.970609	-0.440834	0.629659
H43	H	0.868269	-0.393177	0.637079
H44	H	1.020707	-0.330858	0.725424
H45	H	0.918372	-0.283203	0.732865
O46	O	1.011867	0.292960	0.000216
C47	C	0.957012	0.261258	0.088496
H48	H	0.987093	0.188284	0.117928
H49	H	0.959808	0.314439	0.150300
C50	C	0.815735	0.342991	0.025535
C51	C	0.852676	0.253359	0.061679
H52	H	0.751375	0.338122	0.008996
H53	H	0.852692	0.364353	-0.033940
H54	H	0.818073	0.387299	0.077045
H55	H	0.850348	0.209055	0.010165
H56	H	0.815716	0.231989	0.121144
H57	H	1.216314	-0.148295	0.481744
H58	H	0.650693	-0.338605	0.000077
