data_functionalizedCrystal
_audit_creation_method	'MofGen! by Chris Wilmer'
_symmetry_space_group_name_H-M	'P1'
_symmetry_Int_Tables_number	1
_symmetry_cell_setting	triclinic
loop_
_symmetry_equiv_pos_as_xyz
  x,y,z
_cell_length_a	22.863218
_cell_length_b	22.862586
_cell_length_c	22.858745
_cell_angle_alpha	60.006856
_cell_angle_beta	60.013818
_cell_angle_gamma	59.991795
loop_
_atom_site_label
_atom_site_type_symbol
_atom_site_fract_x
_atom_site_fract_y
_atom_site_fract_z
O1	O	0.081006	-0.854581	0.714630
O2	O	0.581006	-0.354581	1.214630
O3	O	0.030492	-0.665350	0.575795
O4	O	0.530492	-0.165350	1.075795
O5	O	0.150314	-0.785089	0.575706
O6	O	0.650314	-0.285089	1.075706
O7	O	-0.038816	-0.734841	0.714718
O8	O	0.461184	-0.234841	1.214718
O9	O	0.190066	-0.745348	0.615369
O10	O	0.690066	-0.245348	1.115369
O11	O	0.070244	-0.625609	0.615458
O12	O	0.570244	-0.125609	1.115458
O13	O	0.120758	-0.814840	0.754293
O14	O	0.620758	-0.314840	1.254293
Zn15	Zn	0.101812	-0.713914	0.691173
Zn16	Zn	0.601812	-0.213914	1.191173
Zn17	Zn	0.049438	-0.766275	0.638915
Zn18	Zn	0.549438	-0.266275	1.138915
O19	O	0.000936	-0.695100	0.754381
O20	O	0.500936	-0.195100	1.254381
N21	N	0.137558	-0.678184	0.726840
N22	N	0.637558	-0.178184	1.226840
N23	N	0.013698	-0.802011	0.603247
N24	N	0.513698	-0.302011	1.103247
C25	C	0.187224	-0.518558	0.776483
C26	C	0.687224	-0.018558	1.276483
C27	C	0.187235	-0.628552	0.776467
C28	C	0.687235	-0.128552	1.276467
C29	C	0.214753	-0.601061	0.803961
C30	C	0.714753	-0.101061	1.303961
C31	C	0.334724	-0.580392	0.740801
C32	C	0.834724	-0.080392	1.240801
C33	C	0.409718	-0.605392	0.715784
C34	C	0.909718	-0.105392	1.215784
C35	C	0.409746	-0.726732	0.762051
C36	C	0.909746	-0.226732	1.262051
C37	C	0.334754	-0.701730	0.787070
C38	C	0.834754	-0.201730	1.287070
C39	C	0.205297	-0.481049	0.702756
C40	C	0.705297	0.018951	1.202756
C41	C	0.180267	-0.406048	0.677779
C42	C	0.680267	0.093952	1.177779
C43	C	0.119099	-0.406071	0.800259
C44	C	0.619099	0.093929	1.300259
C45	C	0.144128	-0.481071	0.825236
C46	C	0.644128	0.018929	1.325236
C47	C	0.113501	-0.610437	0.794610
C48	C	0.613501	-0.110437	1.294610
C49	C	0.088492	-0.635428	0.769607
C50	C	0.588492	-0.135428	1.269607
C51	C	0.210943	-0.696652	0.708337
C52	C	0.710943	-0.196652	1.208337
C53	C	0.235956	-0.671660	0.733331
C54	C	0.735956	-0.171660	1.233331
C55	C	0.113585	-0.610461	0.923980
C56	C	0.613585	-0.110461	1.423980
C57	C	0.088635	-0.635476	0.998978
C58	C	0.588635	-0.135476	1.498978
C59	C	0.211128	-0.696714	0.998930
C60	C	0.711128	-0.196714	1.498930
C61	C	0.236077	-0.671700	0.923930
C62	C	0.736077	-0.171700	1.423930
C63	C	0.187303	-0.628571	0.886457
C64	C	0.687303	-0.128571	1.386457
C65	C	0.297246	-0.628559	0.776441
C66	C	0.797246	-0.128559	1.276441
C67	C	-0.117796	-0.823430	0.581283
C68	C	0.382204	-0.323430	1.081283
C69	C	-0.007671	-0.823587	0.471446
C70	C	0.492329	-0.323587	0.971446
C71	C	-0.007879	-0.933535	0.581483
C72	C	0.492121	-0.433535	1.081483
C73	C	-0.007861	-0.823583	0.581554
C74	C	0.492139	-0.323583	1.081554
C75	C	-0.035301	-0.851035	0.553942
C76	C	0.464699	-0.351035	1.053942
N77	N	0.446162	-0.678198	0.726752
N78	N	0.946162	-0.178198	1.226752
O79	O	0.691234	-0.690164	0.550341
O80	O	1.191234	-0.190164	1.050341
O81	O	0.691462	-0.829422	0.739388
O82	O	1.191462	-0.329422	1.239388
O83	O	0.691373	-0.829102	0.619485
O84	O	1.191373	-0.329102	1.119485
O85	O	0.691323	-0.690484	0.670244
O86	O	1.191323	-0.190484	1.170244
O87	O	0.572233	-0.789455	0.659278
O88	O	1.072233	-0.289455	1.159278
O89	O	0.572322	-0.789775	0.779181
O90	O	1.072322	-0.289775	1.279181
O91	O	0.572094	-0.650517	0.590134
O92	O	1.072094	-0.150517	1.090134
Zn93	Zn	0.553292	-0.713851	0.690976
Zn94	Zn	1.053292	-0.213851	1.190976
Zn95	Zn	0.710264	-0.766088	0.638547
Zn96	Zn	1.210264	-0.266088	1.138547
O97	O	0.572183	-0.650837	0.710037
O98	O	1.072183	-0.150837	1.210037
N99	N	0.817394	-0.801741	0.602763
N100	N	1.317394	-0.301741	1.102763
N101	N	0.137538	-0.369628	0.726874
N102	N	0.637538	0.130372	1.226874
O103	O	-0.038795	-0.124419	0.714761
O104	O	0.461205	0.375581	1.214761
O105	O	0.150256	-0.124417	0.575522
O106	O	0.650256	0.375583	1.075522
O107	O	0.030331	-0.124432	0.575860
O108	O	0.530331	0.375568	1.075860
O109	O	0.081131	-0.124404	0.714423
O110	O	0.581131	0.375596	1.214423
O111	O	0.070086	-0.243584	0.615573
O112	O	0.570086	0.256416	1.115573
O113	O	0.190011	-0.243569	0.615236
O114	O	0.690011	0.256431	1.115236
O115	O	0.000960	-0.243571	0.754474
O116	O	0.500960	0.256429	1.254474
Zn117	Zn	0.101797	-0.262488	0.691160
Zn118	Zn	0.601797	0.237512	1.191160
Zn119	Zn	0.049419	-0.105500	0.638836
Zn120	Zn	0.549419	0.394500	1.138836
O121	O	0.120885	-0.243556	0.754137
O122	O	0.620885	0.256444	1.254137
N123	N	0.013669	0.001640	0.603123
N124	N	0.513669	0.501640	1.103123
N125	N	0.137749	-0.678230	1.035381
N126	N	0.637749	-0.178230	1.535381
O127	O	0.125655	-0.854547	1.280566
O128	O	0.625655	-0.354547	1.780566
O129	O	-0.013567	-0.665426	1.280590
O130	O	0.486433	-0.165426	1.780590
O131	O	-0.013245	-0.785328	1.280537
O132	O	0.486755	-0.285328	1.780537
O133	O	0.125333	-0.734644	1.280618
O134	O	0.625333	-0.234644	1.780618
O135	O	0.026456	-0.745599	1.161392
O136	O	0.526456	-0.245599	1.661392
O137	O	0.026134	-0.625697	1.161444
O138	O	0.526134	-0.125697	1.661444
O139	O	0.165355	-0.814817	1.161420
O140	O	0.665355	-0.314817	1.661420
Zn141	Zn	0.102048	-0.713949	1.142516
Zn142	Zn	0.602048	-0.213949	1.642516
Zn143	Zn	0.049740	-0.766294	1.299495
Zn144	Zn	0.549740	-0.266294	1.799495
O145	O	0.165033	-0.694915	1.161473
O146	O	0.665033	-0.194915	1.661473
N147	N	0.014038	-0.802020	1.406629
N148	N	0.514038	-0.302020	1.906629
C149	C	0.045634	-0.621635	0.576499
C150	C	0.545634	-0.121635	1.076499
C151	C	0.194019	-0.769918	0.576389
C152	C	0.694019	-0.269918	1.076389
C153	C	0.105616	-0.858555	0.753588
C154	C	0.605616	-0.358555	1.253588
C155	C	-0.042769	-0.710272	0.753698
C156	C	0.457231	-0.210272	1.253698
C157	C	0.631920	-0.828776	0.783102
C158	C	1.131920	-0.328776	1.283102
C159	C	0.631811	-0.828380	0.634616
C160	C	1.131811	-0.328380	1.134616
C161	C	0.631633	-0.651162	0.546422
C162	C	1.131633	-0.151162	1.046422
C163	C	0.631745	-0.651559	0.694907
C164	C	1.131745	-0.151559	1.194907
C165	C	0.193900	-0.183846	0.576155
C166	C	0.693900	0.316154	1.076155
C167	C	0.045437	-0.184012	0.576622
C168	C	0.545437	0.315988	1.076622
C169	C	-0.042734	-0.183994	0.753792
C170	C	0.457266	0.316006	1.253792
C171	C	0.105780	-0.183977	0.753375
C172	C	0.605780	0.316023	1.253375
C173	C	-0.012889	-0.621735	1.221020
C174	C	0.487111	-0.121735	1.721020
C175	C	-0.012483	-0.770211	1.220931
C176	C	0.487517	-0.270211	1.720931
C177	C	0.164678	-0.858508	1.220991
C178	C	0.664678	-0.358508	1.720991
C179	C	0.164280	-0.710023	1.221052
C180	C	0.664280	-0.210023	1.721052
H181	H	0.073862	-0.575336	0.893474
H182	H	0.573862	-0.075336	1.393474
O183	O	0.258771	-0.782583	0.524217
O184	O	0.758771	-0.282583	1.024217
C185	C	0.258837	-0.720965	0.462497
C186	C	0.758837	-0.220965	0.962497
H187	H	0.201393	-0.686841	0.463272
H188	H	0.701393	-0.186841	0.963272
H189	H	0.290693	-0.737644	0.412688
H190	H	0.790693	-0.237644	0.912688
H191	H	0.284480	-0.688587	0.461623
H192	H	0.784480	-0.188587	0.961623
H193	H	0.116407	-0.912913	0.797192
H194	H	0.616407	-0.412913	1.297192
O195	O	0.118621	-0.183940	0.805379
O196	O	0.618621	0.316060	1.305379
C197	C	0.057131	-0.183959	0.867211
C198	C	0.557131	0.316041	1.367211
H199	H	0.007865	-0.161406	0.851576
H200	H	0.507865	0.338594	1.351576
H201	H	0.050869	-0.149363	0.893887
H202	H	0.550869	0.350637	1.393887
H203	H	0.062936	-0.241122	0.906170
H204	H	0.562936	0.258878	1.406170
O205	O	-0.064969	-0.556909	1.221058
O206	O	0.435031	-0.056909	1.721058
C207	C	-0.039178	-0.512331	1.221069
C208	C	0.460822	-0.012331	1.721069
H209	H	0.006810	-0.546789	1.243635
H210	H	0.506810	-0.046789	1.743635
H211	H	-0.084197	-0.478005	1.255665
H212	H	0.415803	0.021995	1.755665
H213	H	-0.019292	-0.476152	1.163916
H214	H	0.480708	0.023848	1.663916
H215	H	-0.097093	-0.699562	0.797349
H216	H	0.402907	-0.199562	1.297349
H217	H	-0.097027	-0.183996	0.797505
H218	H	0.402973	0.316004	1.297505
O219	O	-0.064312	-0.783225	1.220810
O220	O	0.435688	-0.283225	1.720810
C221	C	-0.038218	-0.853649	1.220788
C222	C	0.461782	-0.353649	1.720788
H223	H	0.022802	-0.872524	1.198280
H224	H	0.522802	-0.372524	1.698280
H225	H	-0.059993	-0.854652	1.186135
H226	H	0.440007	-0.354652	1.686135
H227	H	-0.056362	-0.890715	1.277930
H228	H	0.443638	-0.390715	1.777930
O229	O	0.032843	-0.556758	0.524495
O230	O	0.532843	-0.056758	1.024495
C231	C	0.082006	-0.524950	0.505189
C232	C	0.582006	-0.024950	1.005189
H233	H	0.102969	-0.548677	0.551114
H234	H	0.602969	-0.048677	1.051114
H235	H	0.054143	-0.464686	0.493487
H236	H	0.554143	0.035314	0.993487
H237	H	0.128658	-0.535766	0.455357
H238	H	0.628658	-0.035766	0.955357
O239	O	0.216738	-0.923354	1.221012
O240	O	0.716738	-0.423354	1.721012
C241	C	0.190961	-0.967918	1.220959
C242	C	0.690961	-0.467918	1.720959
H243	H	0.129941	-0.948506	1.243508
H244	H	0.629941	-0.448506	1.743508
H245	H	0.212931	-1.025314	1.255540
H246	H	0.712931	-0.525314	1.755540
H247	H	0.209165	-0.965971	1.163790
H248	H	0.709165	-0.465971	1.663790
O249	O	0.631959	-0.880398	0.621654
O250	O	1.131959	-0.380398	1.121654
C251	C	0.693698	-0.940794	0.629585
C252	C	1.193698	-0.440794	1.129585
H253	H	0.736813	-0.923620	0.621806
H254	H	1.236813	-0.423620	1.121806
H255	H	0.714394	-0.966199	0.587843
H256	H	1.214394	-0.466199	1.087843
H257	H	0.679812	-0.981399	0.685519
H258	H	1.179812	-0.481399	1.185519
O259	O	0.216154	-0.696964	1.221039
O260	O	0.716154	-0.196964	1.721039
C261	C	0.190055	-0.626546	1.221075
C262	C	0.690055	-0.126546	1.721075
H263	H	0.144065	-0.592639	1.198514
H264	H	0.644065	-0.092639	1.698514
H265	H	0.234917	-0.602453	1.186497
H266	H	0.734917	-0.102453	1.686497
H267	H	0.170081	-0.627602	1.278242
H268	H	0.670081	-0.127602	1.778242
H269	H	0.631558	-0.607440	0.492131
H270	H	1.131558	-0.107440	0.992131
O271	O	0.017003	-0.617900	1.035341
O272	O	0.517003	-0.117900	1.535341
C273	C	-0.014160	-0.643552	1.017036
C274	C	0.485840	-0.143552	1.517036
H275	H	0.021372	-0.650899	0.962577
H276	H	0.521372	-0.150899	1.462577
H277	H	-0.069333	-0.603347	1.014489
H278	H	0.430667	-0.103347	1.514489
H279	H	-0.019719	-0.697149	1.059239
H280	H	0.480281	-0.197149	1.559239
O281	O	0.258605	-0.738615	1.035214
O282	O	0.758605	-0.238615	1.535214
C283	C	0.329020	-0.749213	0.986009
C284	C	0.829020	-0.249213	1.486009
H285	H	0.328850	-0.740828	0.932556
H286	H	0.828850	-0.240828	1.432556
H287	H	0.364656	-0.806093	1.007654
H288	H	0.864656	-0.306093	1.507654
H289	H	0.350495	-0.709289	0.978028
H290	H	0.850495	-0.209289	1.478028
O291	O	0.632025	-0.880867	0.847903
O292	O	1.132025	-0.380867	1.347903
C293	C	0.632020	-0.855067	0.892496
C294	C	1.132020	-0.355067	1.392496
H295	H	0.654525	-0.809057	0.858055
H296	H	1.154525	-0.309057	1.358055
H297	H	0.666659	-0.900080	0.926790
H298	H	1.166659	-0.400080	1.426790
H299	H	0.574872	-0.835202	0.928701
H300	H	1.074872	-0.335202	1.428701
H301	H	0.631735	-0.608016	0.705768
H302	H	1.131735	-0.108016	1.205768
O303	O	0.258565	-0.183416	0.523938
O304	O	0.758565	0.316584	1.023938
C305	C	0.303125	-0.183288	0.549676
C306	C	0.803125	0.316712	1.049676
H307	H	0.268668	-0.160963	0.595829
H308	H	0.768668	0.339037	1.095829
H309	H	0.337166	-0.148421	0.504694
H310	H	0.837166	0.351579	1.004694
H311	H	0.339573	-0.240376	0.569317
H312	H	0.839573	0.259624	1.069317
O313	O	0.016861	-0.617925	0.787351
O314	O	0.516861	-0.117925	1.287351
C315	C	-0.014239	-0.643580	0.862471
C316	C	0.485761	-0.143580	1.362471
H317	H	0.028491	-0.689836	0.886622
H318	H	0.528491	-0.189836	1.386622
H319	H	-0.058440	-0.663056	0.876835
H320	H	0.441560	-0.163056	1.376835
H321	H	-0.037915	-0.598594	0.884700
H322	H	0.462085	-0.098594	1.384700
O323	O	0.307675	-0.689171	0.887403
O324	O	0.807675	-0.189171	1.387403
C325	C	0.325774	-0.626155	0.844040
C326	C	0.825774	-0.126155	1.344040
H327	H	0.276336	-0.579026	0.832826
H328	H	0.776336	-0.079026	1.332826
H329	H	0.369241	-0.632858	0.791291
H330	H	0.869241	-0.132858	1.291291
H331	H	0.346380	-0.615625	0.872936
H332	H	0.846380	-0.115625	1.372936
O333	O	0.032490	-0.184163	0.524752
O334	O	0.532490	0.315837	1.024752
C335	C	0.015631	-0.245875	0.549456
C336	C	0.515631	0.254125	1.049456
H337	H	0.038764	-0.288987	0.593946
H338	H	0.538764	0.211013	1.093946
H339	H	0.039531	-0.266613	0.503334
H340	H	0.539531	0.233387	1.003334
H341	H	-0.045034	-0.231930	0.571061
H342	H	0.454966	0.268070	1.071061
O343	O	0.066143	-0.568458	0.836401
O344	O	0.566143	-0.068458	1.336401
C345	C	0.022740	-0.505559	0.798559
C346	C	0.522740	-0.005559	1.298559
H347	H	0.051668	-0.495120	0.738554
H348	H	0.551668	0.004880	1.238554
H349	H	0.011403	-0.458322	0.811987
H350	H	0.511403	0.041678	1.311987
H351	H	-0.029946	-0.512370	0.814535
H352	H	0.470054	-0.012370	1.314535
H353	H	0.295996	-0.686402	0.718551
H354	H	0.795996	-0.186402	1.218551
O355	O	0.258311	-0.738416	0.666334
O356	O	0.758311	-0.238416	1.166334
C357	C	0.301642	-0.700533	0.603451
C358	C	0.801642	-0.200533	1.103451
H359	H	0.272656	-0.640532	0.593046
H360	H	0.772656	-0.140532	1.093046
H361	H	0.312972	-0.713937	0.556197
H362	H	0.812972	-0.213937	1.056197
H363	H	0.354337	-0.716496	0.610258
H364	H	0.854337	-0.216496	1.110258
O365	O	0.298456	-0.748615	0.821647
O366	O	0.798456	-0.248615	1.321647
C367	C	0.347647	-0.818560	0.825672
C368	C	0.847647	-0.318560	1.325672
H369	H	0.401088	-0.815707	0.781368
H370	H	0.901088	-0.315707	1.281368
H371	H	0.325970	-0.849338	0.818886
H372	H	0.825970	-0.349338	1.318886
H373	H	0.355658	-0.847194	0.880016
H374	H	0.855658	-0.347194	1.380016
H375	H	0.440232	-0.566167	0.686761
H376	H	0.940232	-0.066167	1.186761
O377	O	0.446298	-0.797785	0.772283
O378	O	0.946298	-0.297785	1.272283
C379	C	0.520526	-0.809524	0.742576
C380	C	1.020526	-0.309524	1.242576
H381	H	0.530742	-0.757910	0.699589
H382	H	1.030742	-0.257910	1.199589
H383	H	0.549021	-0.853345	0.717649
H384	H	1.049021	-0.353345	1.217649
H385	H	0.541837	-0.826811	0.786465
H386	H	1.041837	-0.326811	1.286465
H387	H	0.304191	-0.520811	0.732143
H388	H	0.804191	-0.020811	1.232143
H389	H	0.194981	-0.375507	0.617742
H390	H	0.694981	0.124493	1.117742
O391	O	0.247122	-0.517353	0.655304
O392	O	0.747122	-0.017353	1.155304
C393	C	0.257712	-0.468161	0.584873
C394	C	0.757712	0.031839	1.084873
H395	H	0.212487	-0.414701	0.585028
H396	H	0.712487	0.085299	1.085028
H397	H	0.258078	-0.489823	0.549271
H398	H	0.758078	0.010177	1.049271
H399	H	0.311132	-0.460181	0.563367
H400	H	0.811132	0.039819	1.063367
H401	H	0.129402	-0.511613	0.885274
H402	H	0.629402	-0.011613	1.385274
O403	O	0.077225	-0.369763	0.847712
O404	O	0.577225	0.130237	1.347712
C405	C	0.066668	-0.418953	0.918144
C406	C	0.566668	0.081047	1.418144
H407	H	0.075053	-0.472415	0.918009
H408	H	0.575053	0.027585	1.418009
H409	H	0.009804	-0.397292	0.953772
H410	H	0.509804	0.102708	1.453772
H411	H	0.106610	-0.426927	0.939606
H412	H	0.606610	0.073073	1.439606
