data_functionalizedCrystal
_audit_creation_method	'MofGen! by Chris Wilmer'
_symmetry_space_group_name_H-M	'P1'
_symmetry_Int_Tables_number	1
_symmetry_cell_setting	triclinic
loop_
_symmetry_equiv_pos_as_xyz
  x,y,z
_cell_length_a	19.077105
_cell_length_b	12.759399
_cell_length_c	19.076919
_cell_angle_alpha	92.278021
_cell_angle_beta	89.923776
_cell_angle_gamma	92.287858
loop_
_atom_site_label
_atom_site_type_symbol
_atom_site_fract_x
_atom_site_fract_y
_atom_site_fract_z
Zn1	Zn	1.058322	0.508277	0.440455
Zn2	Zn	1.062979	0.677204	0.322960
Zn3	Zn	0.945538	0.494202	0.318247
Zn4	Zn	0.940801	0.676570	0.435713
O5	O	1.001910	0.589063	0.379344
O6	O	1.157272	0.536841	0.428826
O7	O	1.051332	0.647303	0.224004
O8	O	0.960533	0.349051	0.334470
O9	O	1.160694	0.660951	0.342503
O10	O	1.043395	0.359391	0.424256
O11	O	0.965049	0.512853	0.220541
O12	O	0.846577	0.512239	0.329872
O13	O	0.952458	0.659871	0.534674
O14	O	0.843097	0.646224	0.416174
O15	O	1.038801	0.536226	0.538158
O16	O	1.046738	0.824138	0.337905
O17	O	0.956974	0.823673	0.420744
C18	C	0.819341	0.577636	0.371997
C19	C	0.741236	0.572773	0.368871
C20	C	0.702751	0.640345	0.412265
C21	C	0.629363	0.635762	0.409331
C22	C	0.594462	0.563613	0.362999
C23	C	0.632952	0.496034	0.319604
C24	C	0.706338	0.500612	0.322542
C25	C	0.375172	0.542425	0.349405
C26	C	0.301781	0.537854	0.346469
C27	C	0.298198	0.677582	0.436197
C28	C	0.371585	0.682158	0.439128
C29	C	0.410069	0.614575	0.395735
N30	N	0.519448	0.558929	0.359998
N31	N	0.485081	0.619254	0.398741
C32	C	1.001866	0.862028	0.379338
C33	C	1.001910	0.978808	0.379361
C34	C	1.048697	1.033884	0.336281
C35	C	1.048738	1.143612	0.336308
C36	C	0.955199	1.143179	0.422498
C37	C	0.955162	1.033453	0.422474
C38	C	1.095446	0.979239	0.293168
C39	C	1.142236	1.034315	0.250083
C40	C	1.142277	1.144043	0.250111
C41	C	1.095528	1.198695	0.293223
C42	C	1.185192	0.600536	0.386719
C43	C	1.263296	0.605425	0.389862
C44	C	0.994582	0.599548	0.562625
C45	C	0.991459	0.604016	0.640728
C46	C	1.001970	1.315036	0.379376
C47	C	1.001988	1.198262	0.379413
C48	C	1.009250	0.578546	0.196778
C49	C	1.012509	0.573791	0.118680
C50	C	1.034943	0.541742	0.679236
C51	C	1.032000	0.545936	0.752622
C52	C	0.985576	0.612409	0.787499
C53	C	0.942087	0.674684	0.748986
C54	C	0.945027	0.670485	0.675601
C55	C	0.971960	0.631867	1.006782
C56	C	0.969025	0.636064	1.080172
C57	C	1.058938	0.507314	1.083803
C58	C	1.061876	0.503125	1.010417
C59	C	1.018385	0.565396	0.971910
N60	N	0.982568	0.616699	0.862512
N61	N	1.021389	0.561099	0.896899
H62	H	0.399997	0.740912	0.476854
H63	H	1.099682	0.448998	0.982026
H64	H	1.180381	1.188883	0.215034
C65	C	0.903772	1.203300	0.469911
N66	N	0.865033	1.248583	0.505620
C67	C	0.417495	0.468088	0.301667
N68	N	0.449375	0.412095	0.265708
C69	C	1.106767	0.438806	1.126167
N70	N	1.142790	0.387198	1.158075
H71	H	1.180302	0.989811	0.214987
C72	C	0.587034	0.710117	0.457054
N73	N	0.555152	0.766130	0.492996
C74	C	0.917950	0.709189	1.118535
N75	N	0.879483	0.764265	1.147430
H76	H	0.917064	0.988611	0.457555
C77	C	0.741136	0.719717	0.463233
N78	N	0.770045	0.779499	0.501626
H79	H	0.266856	0.732602	0.471525
C80	C	1.095415	0.858537	0.293144
N81	N	1.095393	0.767625	0.293130
C82	C	0.924115	0.700365	0.964433
N83	N	0.888075	0.751959	0.932534
C84	C	1.086013	0.468615	0.640879
N85	N	1.124478	0.413530	0.611990
C86	C	0.748671	0.426280	0.274805
N87	N	0.780555	0.370289	0.238848
H88	H	1.067411	0.495229	0.783973
C89	C	0.263391	0.458479	0.295500
N90	N	0.234475	0.398698	0.257111
H91	H	1.095570	1.288044	0.293247
H92	H	0.904285	0.728804	0.777388
H93	H	0.604529	0.437284	0.281883
H94	H	0.909610	0.721183	0.644248
