data_functionalizedCrystal
_audit_creation_method	'MofGen! by Chris Wilmer'
_symmetry_space_group_name_H-M	'P1'
_symmetry_Int_Tables_number	1
_symmetry_cell_setting	triclinic
loop_
_symmetry_equiv_pos_as_xyz
  x,y,z
_cell_length_a	27.732048
_cell_length_b	19.188930
_cell_length_c	18.266242
_cell_angle_alpha	90.022918
_cell_angle_beta	90.011317
_cell_angle_gamma	82.893716
loop_
_atom_site_label
_atom_site_type_symbol
_atom_site_fract_x
_atom_site_fract_y
_atom_site_fract_z
O1	O	-0.060348	-0.925764	-0.061124
O2	O	-0.068472	-0.722401	-0.061075
O3	O	0.005968	-0.830399	-0.061087
O4	O	-0.134787	-0.817767	-0.061112
O5	O	0.005971	-0.830381	0.060675
O6	O	-0.068468	-0.722383	0.060687
O7	O	-0.060344	-0.925746	0.060638
Zn8	Zn	-0.064405	-0.824062	0.079995
Zn9	Zn	-0.064410	-0.824086	-0.080432
O10	O	-0.134783	-0.817749	0.060650
C11	C	-0.068207	-0.696383	-0.000187
C12	C	-0.067417	-0.618883	-0.000168
C13	C	0.023977	-0.830125	-0.000204
C14	C	0.077635	-0.829326	-0.000198
C15	C	-0.152793	-0.818023	-0.000235
C16	C	-0.206450	-0.818821	-0.000246
C17	C	0.416270	-0.888119	-0.000250
C18	C	0.617939	-0.885157	-0.000259
O19	O	0.649030	-0.938918	-0.000304
N20	N	0.637258	-0.821118	-0.000243
C21	C	0.606157	-0.757816	-0.000229
O22	O	0.627217	-0.703280	-0.000223
C23	C	0.404489	-0.760780	-0.000225
C24	C	0.385173	-0.824822	-0.000234
C25	C	0.396953	-0.952156	-0.000259
C26	C	0.346539	-0.952896	-0.000253
C27	C	0.315441	-0.889599	-0.000237
C28	C	0.334759	-0.825562	-0.000227
C29	C	0.373389	-0.697478	-0.000216
C30	C	0.322969	-0.698225	-0.000217
C31	C	0.303653	-0.762267	-0.000226
C32	C	0.253247	-0.763005	-0.000205
N33	N	0.233928	-0.827043	-0.000221
C34	C	0.265025	-0.890340	-0.000237
C35	C	0.712036	-0.756265	-0.000230
C36	C	0.762452	-0.755524	-0.000230
C37	C	0.774231	-0.882865	-0.000261
C38	C	0.723813	-0.883605	-0.000256
C39	C	0.692716	-0.820303	-0.000246
C40	C	0.159151	-0.891889	-0.000223
C41	C	0.108732	-0.892623	-0.000214
C42	C	0.096958	-0.765283	-0.000186
C43	C	0.147373	-0.764549	-0.000192
C44	C	0.178468	-0.827857	-0.000213
O45	O	0.222127	-0.709272	-0.000168
O46	O	0.243956	-0.944868	-0.000259
C47	C	0.466684	-0.887379	-0.000256
C48	C	0.486001	-0.823342	-0.000246
C49	C	0.454904	-0.760045	-0.000230
C50	C	0.536418	-0.822601	-0.000246
C51	C	0.567515	-0.885898	-0.000262
C52	C	0.548195	-0.949936	-0.000278
C53	C	0.497781	-0.950676	-0.000272
C54	C	0.474223	-0.696007	-0.000214
C55	C	0.524638	-0.695272	-0.000220
C56	C	0.555735	-0.758569	-0.000236
C57	C	-0.060609	-0.951765	-0.000251
C58	C	-0.061399	-1.029264	-0.000275
N59	N	-0.064402	-0.824051	0.189482
C60	C	-0.111096	-0.573681	-0.000187
C61	C	-0.110354	-0.500862	-0.000195
C62	C	-0.065931	-0.473249	-0.000199
C63	C	-0.022246	-0.518461	-0.000175
C64	C	-0.022990	-0.591278	-0.000160
N65	N	-0.031976	-0.365491	-0.041663
N66	N	-0.031273	-0.296317	-0.041679
C67	C	-0.063689	-0.253854	-0.000243
N68	N	-0.096842	-0.283177	0.041201
N69	N	-0.097546	-0.352358	0.041213
C70	C	-0.065120	-0.394291	-0.000215
C71	C	-0.106566	-0.129692	-0.000270
C72	C	-0.105822	-0.056872	-0.000273
C73	C	-0.017714	-0.074473	-0.000261
C74	C	-0.018459	-0.147292	-0.000250
C75	C	-0.062886	-0.174897	-0.000258
N76	N	-0.064410	-0.824103	-0.189919
C77	C	-0.031456	-0.871887	0.227785
C78	C	-0.031454	-0.871892	0.304430
C79	C	-0.064406	-0.824066	0.342769
C80	C	-0.097354	-0.776220	0.304456
C81	C	-0.097352	-0.776213	0.227813
N82	N	-0.107196	-0.814718	0.463095
N83	N	-0.107196	-0.814729	0.535903
C84	C	-0.064413	-0.824086	0.573691
N85	N	-0.021627	-0.833444	0.535921
N86	N	-0.021628	-0.833436	0.463106
C87	C	-0.064411	-0.824069	0.425876
C88	C	-0.031462	-0.871930	0.695102
C89	C	-0.031459	-0.871929	0.771748
C90	C	-0.097363	-0.776261	0.771772
C91	C	-0.097362	-0.776258	0.695127
C92	C	-0.064412	-0.824096	0.656797
H93	H	0.093007	-0.944776	-0.000219
H94	H	-0.004625	-0.910838	0.196579
H95	H	-0.141392	-0.020068	-0.000285
C96	C	0.004369	-0.923759	0.813375
C97	C	0.033909	-0.886899	0.857389
C98	C	0.066924	-0.934622	0.895739
H99	H	-0.012914	-0.952652	0.843314
H100	H	0.024019	-0.952236	0.779589
H101	H	0.014262	-0.858434	0.891171
H102	H	0.051203	-0.858009	0.827468
H103	H	0.086573	-0.963099	0.861952
H104	H	0.049636	-0.963512	0.925674
H105	H	0.086973	-0.909619	0.925601
C106	C	0.289288	-0.629420	-0.000169
C107	C	0.317001	-0.573183	-0.000144
C108	C	0.285992	-0.509791	-0.000088
H109	H	0.269358	-0.626969	-0.042616
H110	H	0.269389	-0.627012	0.042312
H111	H	0.336891	-0.575589	-0.042620
H112	H	0.336930	-0.575610	0.042300
H113	H	0.266092	-0.507383	0.042392
H114	H	0.266063	-0.507347	-0.042536
H115	H	0.304790	-0.471626	-0.000064
H116	H	-0.124191	-0.737318	0.802987
C117	C	0.025970	-0.488445	-0.000332
C118	C	0.028974	-0.447207	-0.062996
C119	C	0.073389	-0.419554	-0.063167
H120	H	0.028141	-0.460331	0.042072
H121	H	0.051893	-0.525779	-0.000359
H122	H	0.003059	-0.409878	-0.062963
H123	H	0.026813	-0.475306	-0.105410
H124	H	0.099312	-0.456888	-0.063193
H125	H	0.075555	-0.391443	-0.020760
H126	H	0.075435	-0.391577	-0.105686
H127	H	0.422268	-1.003703	-0.000275
H128	H	-0.124191	-0.737308	0.663939
H129	H	0.017109	-0.184097	-0.000238
C130	C	-0.154849	-0.159534	-0.000233
C131	C	-0.192943	-0.104357	-0.000224
C132	C	-0.237428	-0.131818	-0.000180
H133	H	-0.157041	-0.187584	-0.042678
H134	H	-0.156994	-0.187532	0.042250
H135	H	-0.190799	-0.076370	-0.042702
H136	H	-0.190767	-0.076302	0.042218
H137	H	-0.239573	-0.159816	0.042303
H138	H	-0.239616	-0.159868	-0.042626
H139	H	-0.263280	-0.094385	-0.000167
C140	C	0.192827	-0.960698	-0.000205
C141	C	0.165110	-1.016930	-0.000192
C142	C	0.196115	-1.080326	-0.000160
H143	H	0.212744	-0.963170	-0.042656
H144	H	0.212738	-0.963090	0.042272
H145	H	0.145206	-1.014539	-0.042664
H146	H	0.145193	-1.014481	0.042256
H147	H	0.216026	-1.082718	0.042316
H148	H	0.216031	-1.082791	-0.042612
H149	H	0.177313	-1.118487	-0.000145
H150	H	0.708089	-0.935754	-0.000264
C151	C	0.004376	-0.923780	0.653489
C152	C	0.051868	-0.912988	0.672103
C153	C	0.084886	-0.960732	0.633767
H154	H	-0.000732	-0.970352	0.665985
H155	H	-0.000328	-0.916907	0.602355
H156	H	0.056570	-0.919867	0.723226
H157	H	0.056992	-0.866426	0.659606
H158	H	0.080182	-0.953859	0.582633
H159	H	0.079774	-1.007301	0.646265
H160	H	0.117113	-0.953412	0.646386
H161	H	0.330816	-1.005046	-0.000263
C162	C	0.030554	-0.044600	-0.000377
C163	C	0.056953	-0.067671	-0.063004
C164	C	0.101424	-0.040172	-0.063128
H165	H	0.024812	0.005239	-0.000425
H166	H	0.048560	-0.060148	0.042067
H167	H	0.038952	-0.052119	-0.105437
H168	H	0.062709	-0.117506	-0.062970
H169	H	0.119430	-0.055720	-0.020684
H170	H	0.095677	0.009666	-0.063174
H171	H	0.119343	-0.055826	-0.105616
C172	C	0.783327	-0.685920	-0.000249
C173	C	0.745297	-0.630651	-0.000256
C174	C	0.764506	-0.566519	-0.000289
H175	H	0.802748	-0.682873	0.042200
H176	H	0.802730	-0.682951	-0.042728
H177	H	0.725903	-0.633618	0.042218
H178	H	0.725873	-0.633674	-0.042702
H179	H	0.783909	-0.563550	-0.042767
H180	H	0.783926	-0.563479	0.042161
H181	H	0.738706	-0.529011	-0.000300
C182	C	0.476907	-1.020281	-0.000325
C183	C	0.514940	-1.075548	-0.000360
C184	C	0.495733	-1.139681	-0.000420
H185	H	0.457498	-1.023317	0.042125
H186	H	0.457494	-1.023265	-0.042803
H187	H	0.534345	-1.072566	0.042115
H188	H	0.534352	-1.072535	-0.042806
H189	H	0.476320	-1.142665	-0.042898
H190	H	0.476324	-1.142710	0.042030
H191	H	0.521535	-1.177187	-0.000450
H192	H	0.163101	-0.712400	-0.000164
H193	H	-0.004625	-0.910847	0.335623
C194	C	0.678255	-0.687553	-0.000365
C195	C	0.648967	-0.684247	-0.063017
C196	C	0.617849	-0.620956	-0.063167
H197	H	0.658301	-0.685117	0.042047
H198	H	0.696970	-0.649294	-0.000393
H199	H	0.630253	-0.722495	-0.062982
H200	H	0.668907	-0.686671	-0.105439
H201	H	0.636565	-0.582697	-0.063196
H202	H	0.597899	-0.618525	-0.020753
H203	H	0.597977	-0.618701	-0.105679
C204	C	-0.133109	-0.724374	0.346209
C205	C	-0.126069	-0.734632	0.421530
C206	C	-0.159002	-0.686886	0.460014
H207	H	-0.127970	-0.677802	0.333766
H208	H	-0.165367	-0.731609	0.333673
H209	H	-0.093819	-0.727391	0.434060
H210	H	-0.131212	-0.781194	0.433995
H211	H	-0.191260	-0.694121	0.447478
H212	H	-0.153860	-0.640318	0.447565
H213	H	-0.154233	-0.693844	0.511123
C214	C	0.394417	-0.627994	-0.000330
C215	C	0.423015	-0.623867	-0.062969
C216	C	0.442397	-0.559868	-0.063097
H217	H	0.368719	-0.590351	-0.000363
H218	H	0.413873	-0.625030	0.042106
H219	H	0.403559	-0.626824	-0.105394
H220	H	0.448721	-0.661495	-0.062949
H221	H	0.461853	-0.556904	-0.020661
H222	H	0.416695	-0.522230	-0.063128
H223	H	0.461806	-0.557062	-0.105593
C224	C	0.582045	-1.018585	-0.000335
C225	C	0.630330	-1.004220	-0.000357
C226	C	0.661527	-1.067438	-0.000425
H227	H	0.576277	-1.044918	0.042107
H228	H	0.576226	-1.044877	-0.042821
H229	H	0.636146	-0.977939	0.042124
H230	H	0.636113	-0.977898	-0.042796
H231	H	0.655708	-1.093730	-0.042910
H232	H	0.655754	-1.093765	0.042018
H233	H	0.694291	-1.057700	-0.000447
H234	H	-0.124181	-0.737257	0.196625
C235	C	0.545634	-0.625756	-0.000061
C236	C	0.574237	-0.621580	0.062585
C237	C	0.593579	-0.557551	0.062753
H238	H	0.565081	-0.622760	-0.042477
H239	H	0.519903	-0.588147	-0.000014
H240	H	0.599965	-0.659178	0.062531
H241	H	0.554801	-0.624563	0.105011
H242	H	0.567848	-0.519942	0.062801
H243	H	0.613024	-0.554561	0.020335
H244	H	0.612985	-0.554706	0.105261
H245	H	0.799559	-0.934404	-0.000274
H246	H	0.071630	-0.713749	-0.000171
C247	C	-0.157793	-0.451806	-0.000374
C248	C	-0.184542	-0.464234	-0.063033
C249	C	-0.228242	-0.419052	-0.063230
H250	H	-0.176077	-0.460052	0.042033
H251	H	-0.151006	-0.404475	-0.000424
H252	H	-0.191330	-0.511554	-0.062977
H253	H	-0.166272	-0.455983	-0.105450
H254	H	-0.221455	-0.371721	-0.063280
H255	H	-0.246522	-0.427303	-0.020820
H256	H	-0.246394	-0.427474	-0.105746
C257	C	0.024488	-0.640245	-0.000182
C258	C	0.063552	-0.600481	-0.000203
C259	C	0.107296	-0.645566	-0.000235
H260	H	0.026099	-0.669012	0.042271
H261	H	0.026053	-0.669028	-0.042657
H262	H	0.061987	-0.571710	0.042267
H263	H	0.061957	-0.571716	-0.042653
H264	H	0.108861	-0.674349	-0.042709
H265	H	0.108902	-0.674332	0.042219
H266	H	0.133806	-0.618594	-0.000256
H267	H	0.448908	-0.644461	-0.000203
H268	H	-0.147272	-0.596152	-0.000195
