data_functionalizedCrystal
_audit_creation_method	'MofGen! by Chris Wilmer'
_symmetry_space_group_name_H-M	'P1'
_symmetry_Int_Tables_number	1
_symmetry_cell_setting	triclinic
loop_
_symmetry_equiv_pos_as_xyz
  x,y,z
_cell_length_a	11.026607
_cell_length_b	16.974800
_cell_length_c	15.455301
_cell_angle_alpha	90.649571
_cell_angle_beta	87.654993
_cell_angle_gamma	95.962169
loop_
_atom_site_label
_atom_site_type_symbol
_atom_site_fract_x
_atom_site_fract_y
_atom_site_fract_z
O1	O	0.154339	1.070985	0.003080
O2	O	0.487673	1.404318	0.336413
O3	O	0.821006	1.737651	0.669746
O4	O	0.175098	0.844414	-0.012832
O5	O	0.508431	1.177748	0.320501
O6	O	0.841765	1.511081	0.653834
O7	O	-0.011815	0.938921	-0.006192
O8	O	0.321518	1.272255	0.327141
O9	O	0.654852	1.605588	0.660475
O10	O	0.341252	0.976478	-0.003561
O11	O	0.674586	1.309811	0.329773
O12	O	1.007919	1.643144	0.663106
O13	O	-0.021254	0.931411	0.137543
O14	O	0.312079	1.264744	0.470877
O15	O	0.645412	1.598077	0.804210
O16	O	0.165659	0.836904	0.130903
O17	O	0.498992	1.170237	0.464236
O18	O	0.832325	1.503570	0.797570
O19	O	0.144900	1.063474	0.146815
O20	O	0.478233	1.396807	0.480148
O21	O	0.811567	1.730141	0.813482
Cu22	Cu	0.154418	0.949503	0.151983
Cu23	Cu	0.487751	1.282836	0.485316
Cu24	Cu	0.821084	1.616170	0.818650
Cu25	Cu	0.165581	0.958385	-0.018000
Cu26	Cu	0.498914	1.291719	0.315333
Cu27	Cu	0.832247	1.625052	0.648666
O28	O	0.331813	0.968967	0.140175
O29	O	0.665147	1.302300	0.473508
O30	O	0.998480	1.635634	0.806841
C31	C	0.169767	0.811202	0.056967
C32	C	0.503101	1.144535	0.390300
C33	C	0.836434	1.477869	0.723633
C34	C	0.167932	0.723428	0.050802
C35	C	0.501266	1.056762	0.384135
C36	C	0.834599	1.390095	0.717469
C37	C	0.161922	0.678102	0.126258
C38	C	0.495255	1.011435	0.459591
C39	C	0.828589	1.344769	0.792925
C40	C	0.160178	0.595628	0.120468
C41	C	0.493512	0.928961	0.453802
C42	C	0.826845	1.262294	0.787135
C43	C	0.164454	0.558482	0.039222
C44	C	0.497787	0.891815	0.372555
C45	C	0.831121	1.225149	0.705888
C46	C	0.170461	0.603814	-0.036240
C47	C	0.503795	0.937147	0.297093
C48	C	0.837128	1.270481	0.630427
C49	C	0.172196	0.686286	-0.030449
C50	C	0.505530	1.019619	0.302884
C51	C	0.838863	1.352953	0.636217
C52	C	0.159809	0.312265	0.013502
C53	C	0.493142	0.645598	0.346835
C54	C	0.826475	0.978931	0.680169
C55	C	0.158077	0.229787	0.007717
C56	C	0.491410	0.563120	0.341050
C57	C	0.824743	0.896453	0.674384
C58	C	0.147792	0.221606	0.164426
C59	C	0.481125	0.554940	0.497759
C60	C	0.814458	0.888273	0.831093
C61	C	0.149534	0.304081	0.170209
C62	C	0.482868	0.637414	0.503543
C63	C	0.816201	0.970747	0.836876
C64	C	0.155535	0.349405	0.094748
C65	C	0.488868	0.682739	0.428081
C66	C	0.822202	1.016072	0.761414
N67	N	0.162675	0.474180	0.033302
N68	N	0.496009	0.807514	0.366635
N69	N	0.829342	1.140847	0.699968
N70	N	0.157305	0.433705	0.100669
N71	N	0.490638	0.767038	0.434002
N72	N	0.823971	1.100371	0.767335
C73	C	-0.061701	0.928238	0.065188
C74	C	0.271632	1.261571	0.398521
C75	C	0.604965	1.594904	0.731855
C76	C	-0.196284	0.907584	0.063734
C77	C	0.137050	1.240917	0.397068
C78	C	0.470383	1.574251	0.730401
C79	C	-0.270452	0.964613	0.067738
C80	C	0.062881	1.297946	0.401072
C81	C	0.396214	1.631279	0.734405
C82	C	-0.409550	0.943268	0.066236
C83	C	-0.076217	1.276601	0.399569
C84	C	0.257116	1.609934	0.732903
C85	C	0.381700	0.979651	0.068793
C86	C	0.715033	1.312984	0.402126
C87	C	1.048366	1.646317	0.735459
C88	C	0.516282	1.000305	0.070241
C89	C	0.849616	1.333638	0.403574
C90	C	1.182949	1.666971	0.736907
C91	C	0.150231	1.096686	0.077014
C92	C	0.483564	1.430020	0.410348
C93	C	0.816898	1.763353	0.743681
C94	C	0.152066	1.184461	0.083173
C95	C	0.485400	1.517794	0.416506
C96	C	0.818733	1.851127	0.749840
N97	N	0.146565	0.943261	0.271541
N98	N	0.479899	1.276595	0.604874
N99	N	0.813232	1.609928	0.938208
N100	N	0.173423	0.964632	-0.137558
N101	N	0.506757	1.297965	0.195775
N102	N	0.840090	1.631299	0.529109
C103	C	0.216871	0.999109	0.320852
C104	C	0.550205	1.332442	0.654186
C105	C	0.883538	1.665775	0.987519
C106	C	0.210925	0.994398	0.411330
C107	C	0.544259	1.327731	0.744663
C108	C	0.877592	1.661065	1.077996
C109	C	0.134679	0.933836	0.452494
C110	C	0.468012	1.267169	0.785827
C111	C	0.801346	1.600502	1.119161
C112	C	0.064365	0.877986	0.403176
C113	C	0.397698	1.211319	0.736509
C114	C	0.731032	1.544652	1.069843
C115	C	0.070305	0.882700	0.312700
C116	C	0.403639	1.216034	0.646034
C117	C	0.736972	1.549367	0.979367
C118	C	0.109050	0.913497	0.722649
C119	C	0.442383	1.246830	1.055982
C120	C	0.775716	1.580163	1.389315
C121	C	0.103117	0.908784	0.813131
C122	C	0.436451	1.242118	1.146464
C123	C	0.769784	1.575451	1.479797
C124	C	0.249676	1.025198	0.821278
C125	C	0.583010	1.358532	1.154612
C126	C	0.916343	1.691865	1.487945
C127	C	0.255616	1.029905	0.730800
C128	C	0.588949	1.363238	1.064134
C129	C	0.922282	1.696572	1.397467
C130	C	0.185297	0.974057	0.681491
C131	C	0.518630	1.307391	1.014824
C132	C	0.851963	1.640724	1.348157
N133	N	0.128602	0.929017	0.544976
N134	N	0.461936	1.262351	0.878310
N135	N	0.795269	1.595684	1.211643
N136	N	0.191368	0.978879	0.589010
N137	N	0.524701	1.312213	0.922344
N138	N	0.858034	1.645546	1.255677
H139	H	0.146047	0.334319	0.236369
H140	H	0.479380	0.667652	0.569702
H141	H	0.812714	1.000985	0.903036
H142	H	-0.444241	1.064939	0.074715
H143	H	-0.110908	1.398273	0.408048
H144	H	0.222426	1.731606	0.741381
H145	H	0.164691	0.349158	-0.047945
H146	H	0.498024	0.682491	0.285389
H147	H	0.831358	1.015825	0.618722
H148	H	-0.235763	0.842958	0.059190
H149	H	0.097570	1.176291	0.392523
H150	H	0.430904	1.509624	0.725857
H151	H	0.306925	1.070667	0.861436
H152	H	0.640258	1.404000	1.194769
H153	H	0.973592	1.737333	1.528103
Br154	Br	-0.039119	0.795795	0.459041
Br155	Br	0.294215	1.129129	0.792374
Br156	Br	0.627548	1.462462	1.125707
H157	H	0.278967	1.048421	0.287343
H158	H	0.612300	1.381755	0.620676
H159	H	0.945633	1.715088	0.954010
Br160	Br	0.180343	0.747801	-0.132858
Br161	Br	0.513676	1.081134	0.200475
Br162	Br	0.847009	1.414468	0.533809
Br163	Br	0.139645	0.160091	0.266832
Br164	Br	0.472979	0.493424	0.600166
Br165	Br	0.806312	0.826757	0.933499
Br166	Br	0.163889	0.179375	-0.102554
Br167	Br	0.497222	0.512709	0.230780
Br168	Br	0.830555	0.846042	0.564113
Br169	Br	-0.475332	0.835544	0.058658
Br170	Br	-0.141999	1.168878	0.391991
Br171	Br	0.191335	1.502211	0.725325
Br172	Br	0.152041	0.534117	0.222878
Br173	Br	0.485374	0.867451	0.556211
Br174	Br	0.818707	1.200784	0.889545
Br175	Br	0.306345	1.070195	0.478250
Br176	Br	0.639678	1.403528	0.811583
Br177	Br	0.973011	1.736861	1.144916
H178	H	0.041029	0.859463	0.846643
H179	H	0.374362	1.192797	1.179977
H180	H	0.707695	1.526130	1.513310
Br181	Br	0.176211	0.553400	-0.146505
Br182	Br	0.509544	0.886733	0.186828
Br183	Br	0.842877	1.220066	0.520162
Br184	Br	0.156131	0.728507	0.236527
Br185	Br	0.489465	1.061840	0.569860
Br186	Br	0.822798	1.395173	0.903194
H187	H	0.051790	0.868021	0.682511
H188	H	0.385124	1.201355	1.015845
H189	H	0.718457	1.534688	1.349178
H190	H	-0.230973	1.029239	0.072282
H191	H	0.102361	1.362573	0.405616
H192	H	0.435694	1.695906	0.738949
Br193	Br	0.359158	1.112068	0.674939
Br194	Br	0.692491	1.445402	1.008272
Br195	Br	1.025824	1.778735	1.341605
Br196	Br	-0.025131	0.806913	0.245777
Br197	Br	0.308202	1.140247	0.579110
Br198	Br	0.641535	1.473580	0.912444
