data_functionalizedCrystal
_audit_creation_method	'MofGen! by Chris Wilmer'
_symmetry_space_group_name_H-M	'P1'
_symmetry_Int_Tables_number	1
_symmetry_cell_setting	triclinic
loop_
_symmetry_equiv_pos_as_xyz
  x,y,z
_cell_length_a	18.878441
_cell_length_b	14.560438
_cell_length_c	14.560438
_cell_angle_alpha	59.996693
_cell_angle_beta	90.000055
_cell_angle_gamma	60.002079
loop_
_atom_site_label
_atom_site_type_symbol
_atom_site_fract_x
_atom_site_fract_y
_atom_site_fract_z
Zr1	Zr	0.682383	1.005347	-0.120621
O2	O	0.569278	1.196953	-0.267277
O3	O	0.717055	0.813740	-0.075654
O4	O	0.717052	1.005351	-0.267271
O5	O	0.569284	1.005339	0.075481
O6	O	0.833620	1.005357	-0.267276
O7	O	0.569281	1.005341	-0.075660
O8	O	0.833625	0.662599	0.075491
O9	O	0.569279	1.348097	-0.267286
O10	O	0.818836	0.892556	-0.056491
O11	O	0.731845	0.892550	0.056308
O12	O	0.731842	1.118147	-0.169296
O13	O	0.644851	1.118141	-0.056498
Zr14	Zr	0.868300	1.005352	0.120423
Zr15	Zr	0.868295	1.005356	-0.120629
Zr16	Zr	0.682388	1.005343	0.120431
Zr17	Zr	0.682385	1.246404	-0.120636
Zr18	Zr	0.868299	0.764295	0.120439
O19	O	0.833628	1.196959	0.075457
O20	O	0.833621	1.196965	-0.267288
O21	O	0.569285	1.196947	0.075468
O22	O	0.981405	0.813747	0.267079
O23	O	0.981398	0.813752	-0.075666
O24	O	0.717062	0.813734	0.267091
O25	O	0.981399	1.005360	-0.075678
O26	O	0.833631	1.005348	0.267073
O27	O	0.717063	1.005342	0.267079
O28	O	0.981402	1.005358	0.075463
O29	O	0.717054	1.348103	-0.267293
O30	O	0.833629	0.662596	0.267096
O31	O	0.981404	0.662603	0.267089
O32	O	0.981400	0.662606	0.075485
O33	O	0.569283	1.348093	-0.075682
O34	O	0.717058	1.348100	-0.075689
O35	O	0.818841	0.892552	0.169099
O36	O	0.905832	0.892558	0.056300
O37	O	0.818838	1.118150	-0.056505
O38	O	0.731847	1.118144	0.056293
C39	C	0.775340	0.703824	-0.000079
C40	C	0.775339	0.601489	-0.000073
C41	C	0.711118	0.636702	-0.083352
C42	C	0.711122	0.540562	-0.083381
C43	C	0.839572	0.373998	0.083159
C44	C	0.839571	0.470137	0.083183
C45	C	0.542794	1.005339	-0.000088
C46	C	0.463869	1.005335	-0.000085
C47	C	0.472198	0.887580	0.058794
C48	C	0.398037	0.887584	0.058795
C49	C	0.315548	1.005345	-0.000091
C50	C	0.307221	1.123110	-0.058972
C51	C	0.381381	1.123104	-0.058965
C52	C	0.152651	1.123113	-0.058983
C53	C	0.078485	1.123119	-0.058991
C54	C	0.169307	0.887593	0.058777
C55	C	0.243467	0.887588	0.058783
C56	C	0.235134	1.005353	-0.000099
C57	C	1.007889	1.005360	-0.000109
C58	C	1.086814	1.005364	-0.000112
C59	C	0.775336	1.005355	-0.301618
C60	C	0.775334	1.005356	-0.403951
C61	C	0.775343	1.306875	-0.000118
C62	C	0.775344	1.409210	-0.000125
C63	C	0.729925	1.123111	-0.510911
C64	C	0.729935	1.123105	-0.607059
C65	C	0.820764	0.887579	-0.489275
C66	C	0.820759	0.887587	-0.393129
C67	C	0.775348	1.005345	0.301421
C68	C	0.775350	1.005343	0.403754
C69	C	1.007888	0.703835	-0.000089
C70	C	1.086812	0.601504	-0.000086
C71	C	0.775346	0.703819	0.301440
C72	C	0.775347	0.601482	0.403780
C73	C	1.007894	0.703830	0.301430
C74	C	1.086820	0.601497	0.403766
C75	C	0.542790	1.306869	-0.301627
C76	C	0.463864	1.409203	-0.403963
C77	C	0.542796	1.306864	-0.000108
C78	C	0.463871	1.409196	-0.000111
C79	C	0.775337	1.306880	-0.301638
C80	C	0.775336	1.409217	-0.403977
C81	C	1.078465	0.553446	-0.058971
C82	C	1.152615	0.457309	-0.058990
C83	C	1.235112	0.409223	-0.000118
C84	C	1.243457	0.457289	0.058768
C85	C	1.169308	0.553432	0.058780
C86	C	1.169300	0.553443	0.392944
C87	C	1.243467	0.457304	0.489091
C88	C	1.235151	0.409213	0.596058
C89	C	1.152661	0.457276	0.606877
C90	C	1.078497	0.553420	0.510732
C91	C	0.381383	1.457268	-0.393142
C92	C	0.307216	1.553437	-0.489288
C93	C	0.315532	1.601533	-0.596255
C94	C	0.398022	1.553463	-0.607074
C95	C	0.472187	1.457303	-0.510929
C96	C	0.472219	1.457263	0.058763
C97	C	0.398068	1.553427	0.058756
C98	C	0.315572	1.601516	-0.000119
C99	C	0.307226	1.553445	-0.059001
C100	C	0.381376	1.457289	-0.058999
C101	C	0.820758	0.553403	0.510735
C102	C	0.820749	0.457256	0.606890
C103	C	0.729918	0.457271	0.489121
C104	C	0.729922	0.553423	0.392968
H105	H	0.891866	0.267042	0.150944
Cl106	Cl	0.203509	1.613908	-0.133005
Cl107	Cl	1.142103	0.396897	-0.133019
H108	H	1.176116	0.592548	0.106737
Cl109	Cl	-0.025215	1.271164	-0.133029
H110	H	0.692939	0.592573	0.305875
Cl111	Cl	0.203520	1.271153	-0.132992
Cl112	Cl	0.575895	0.739528	0.132820
Cl113	Cl	0.630373	0.801826	-0.188020
H114	H	1.295482	0.330936	-0.000136
H115	H	0.891872	0.441454	0.151001
Cl116	Cl	0.672819	0.396844	0.475540
Cl117	Cl	0.408513	0.739542	0.132830
Cl118	Cl	0.179782	0.739546	0.132796
H119	H	1.310627	0.418180	0.480261
Cl120	Cl	0.347167	0.739543	0.132805
H121	H	0.145859	1.219010	-0.106910
H122	H	0.404880	1.592550	0.106709
H123	H	0.857741	0.791691	-0.306032
Cl124	Cl	0.370908	1.271146	-0.132983
H125	H	1.310636	0.418124	0.106699
Cl126	Cl	0.974763	0.613882	-0.132996
Cl127	Cl	0.877859	0.739535	-0.475681
H128	H	1.176088	0.592584	0.305855
Cl129	Cl	0.408462	1.613935	-0.741556
Cl130	Cl	0.630383	0.584838	-0.188081
Cl131	Cl	1.328396	0.288342	0.716917
H132	H	1.145903	0.418107	0.693982
H133	H	1.011340	0.592533	0.519559
Cl134	Cl	0.877861	0.613821	0.524329
H135	H	0.692937	1.219006	-0.519728
Cl136	Cl	0.370905	1.396824	-0.258681
Cl137	Cl	0.203526	1.613842	-0.475661
Cl138	Cl	0.672848	1.271146	-0.741522
Cl139	Cl	0.222287	1.722420	-0.717114
H140	H	0.539344	1.418169	-0.519754
H141	H	0.539385	1.418116	0.106714
Cl142	Cl	0.222362	1.722397	-0.000106
H143	H	0.374567	1.418156	-0.106939
Cl144	Cl	0.877837	0.396822	0.741347
