data_functionalizedCrystal
_audit_creation_method	'MofGen! by Chris Wilmer'
_symmetry_space_group_name_H-M	'P1'
_symmetry_Int_Tables_number	1
_symmetry_cell_setting	triclinic
loop_
_symmetry_equiv_pos_as_xyz
  x,y,z
_cell_length_a	10.654547
_cell_length_b	23.532407
_cell_length_c	22.010155
_cell_angle_alpha	90.000423
_cell_angle_beta	90.009258
_cell_angle_gamma	83.667366
loop_
_atom_site_label
_atom_site_type_symbol
_atom_site_fract_x
_atom_site_fract_y
_atom_site_fract_z
O1	O	1.665315	0.079985	0.050543
O2	O	1.299595	0.087603	0.050542
O3	O	1.493483	0.000934	0.050531
O4	O	1.471427	0.166654	0.050553
O5	O	1.493448	0.000947	-0.050519
O6	O	1.299560	0.087616	-0.050508
O7	O	1.665280	0.079998	-0.050508
Cu8	Cu	1.482417	0.083808	-0.059735
Cu9	Cu	1.482458	0.083793	0.059769
O10	O	1.471392	0.166667	-0.050497
C11	C	1.252798	0.087050	0.000017
C12	C	1.113407	0.085375	0.000016
C13	C	0.851526	0.082205	0.110192
C14	C	0.917038	0.082985	0.165274
C15	C	1.048006	0.084563	0.165273
C16	C	1.113465	0.085359	0.110183
C17	C	1.047952	0.084578	0.055100
C18	C	0.916981	0.083002	0.055108
C19	C	1.047895	0.084595	-0.055067
C20	C	0.916926	0.083021	-0.055067
C21	C	1.113354	0.085391	-0.110157
C22	C	1.047840	0.084614	-0.165241
C23	C	0.916865	0.083037	-0.165237
C24	C	0.851414	0.082241	-0.110149
C25	C	1.492904	-0.020279	0.000004
C26	C	1.491216	-0.083507	-0.000000
C27	C	1.595363	-0.481931	0.000033
C28	C	1.593794	-0.541342	0.000038
O29	O	1.690339	-0.577457	0.000060
N30	N	1.478528	-0.564719	0.000037
C31	C	1.364822	-0.528683	0.000038
O32	O	1.266635	-0.554023	0.000039
C33	C	1.366393	-0.469274	0.000038
C34	C	1.481666	-0.445900	0.000032
C35	C	1.710627	-0.458556	0.000028
C36	C	1.712195	-0.399150	0.000023
C37	C	1.598499	-0.363118	0.000022
C38	C	1.483235	-0.386493	0.000027
C39	C	1.252689	-0.433239	0.000043
C40	C	1.254269	-0.373826	0.000044
C41	C	1.369543	-0.350452	0.000038
C42	C	1.371106	-0.291055	0.000020
N43	N	1.486373	-0.267677	0.000021
C44	C	1.600069	-0.303709	0.000021
C45	C	1.361534	-0.653447	0.000040
C46	C	1.359963	-0.712855	0.000036
C47	C	1.588935	-0.725510	0.000036
C48	C	1.590505	-0.666100	0.000036
C49	C	1.476800	-0.630069	0.000040
C50	C	1.603354	-0.178951	0.000009
C51	C	1.604912	-0.119539	0.000001
C52	C	1.375940	-0.106889	0.000003
C53	C	1.374382	-0.166296	0.000008
C54	C	1.488099	-0.202326	0.000013
O55	O	1.274612	-0.254905	0.000000
O56	O	1.698240	-0.278361	0.000029
C57	C	1.712078	0.080551	0.000019
C58	C	1.851468	0.082225	0.000024
C59	C	1.471971	0.187880	0.000031
C60	C	1.473660	0.251108	0.000040
N61	N	1.482397	0.083819	-0.143787
C62	C	1.568317	0.045421	-0.563571
C63	C	1.568323	0.045417	-0.627179
O64	O	1.641325	0.012778	-0.660075
N65	N	1.482458	0.083781	-0.658994
C66	C	1.396573	0.122147	-0.627199
O67	O	1.323538	0.154777	-0.660101
C68	C	1.396562	0.122148	-0.563592
C69	C	1.482441	0.083785	-0.531780
C70	C	1.654188	0.007062	-0.531759
C71	C	1.654184	0.007066	-0.468156
C72	C	1.568308	0.045431	-0.436365
C73	C	1.482436	0.083790	-0.468177
C74	C	1.310672	0.160510	-0.531798
C75	C	1.310668	0.160507	-0.468187
C76	C	1.396547	0.122145	-0.436375
C77	C	1.396556	0.122159	-0.372783
N78	N	1.482421	0.083796	-0.340967
C79	C	1.568297	0.045431	-0.372759
C80	C	1.396601	0.122142	-0.760777
C81	C	1.396616	0.122144	-0.824382
C82	C	1.568365	0.045414	-0.824358
C83	C	1.568354	0.045415	-0.760751
C84	C	1.482466	0.083778	-0.728961
C85	C	1.568281	0.045445	-0.239187
C86	C	1.568273	0.045454	-0.175578
C87	C	1.396520	0.122182	-0.175608
C88	C	1.396533	0.122175	-0.239211
C89	C	1.482418	0.083801	-0.270999
O90	O	1.323588	0.154781	-0.339847
O91	O	1.641309	0.012801	-0.339849
N92	N	1.482489	0.083778	0.143821
H93	H	0.863532	0.082404	-0.210092
C94	C	1.302057	0.164379	-0.140626
N95	N	1.230899	0.196159	-0.114275
C96	C	1.233153	-0.738560	0.000034
N97	N	1.137635	-0.757918	0.000037
H98	H	1.326614	0.153419	-0.265113
H99	H	1.101148	0.085258	-0.210091
C100	C	1.731727	-0.093831	-0.000004
N101	N	1.827242	-0.074471	-0.000005
H102	H	1.684371	-0.647074	0.000032
C103	C	0.707346	0.080506	-0.110140
N104	N	0.598833	0.079197	-0.110131
C105	C	1.257539	0.087072	0.110185
N106	N	1.366060	0.088357	0.110185
H107	H	1.695953	-0.208280	0.000015
C108	C	1.839007	-0.373447	0.000023
N109	N	1.934528	-0.354091	0.000026
C110	C	1.662746	0.003249	-0.140589
N111	N	1.733898	-0.028540	-0.114237
H112	H	1.803218	-0.487888	0.000031
C113	C	1.662763	0.003233	-0.274145
N114	N	1.733932	-0.028558	-0.300475
C115	C	1.748645	-0.035142	-0.433171
N116	N	1.819793	-0.066937	-0.406825
C117	C	1.125876	-0.458936	0.000054
N118	N	1.030354	-0.478290	0.000064
C119	C	1.247576	-0.192009	0.000010
N120	N	1.152063	-0.211371	0.000019
C121	C	0.707457	0.080473	0.110198
N122	N	0.598942	0.079169	0.110205
H123	H	1.268936	-0.624113	0.000038
H124	H	1.161675	-0.344492	0.000048
C125	C	1.250881	-0.067244	0.000007
N126	N	1.156685	-0.037381	0.000015
C127	C	1.714004	-0.765156	0.000044
N128	N	1.808199	-0.795019	0.000050
C129	C	1.748658	-0.035150	-0.566720
N130	N	1.819821	-0.066946	-0.593047
H131	H	0.863728	0.082335	0.210128
H132	H	1.219996	0.086671	-0.110154
C133	C	1.662819	0.003210	-0.725764
N134	N	1.733971	-0.028582	-0.699415
H135	H	1.638289	0.014175	-0.850254
C136	C	1.120071	0.085421	0.225866
N137	N	1.174351	0.086069	0.271505
H138	H	1.326699	0.153388	-0.850279
H139	H	1.326663	0.153387	-0.734896
C140	C	1.216187	0.202708	-0.566777
N141	N	1.145010	0.234492	-0.593122
H142	H	1.240723	0.191747	-0.442307
