data_functionalizedCrystal
_audit_creation_method	'MofGen! by Chris Wilmer'
_symmetry_space_group_name_H-M	'P1'
_symmetry_Int_Tables_number	1
_symmetry_cell_setting	triclinic
loop_
_symmetry_equiv_pos_as_xyz
  x,y,z
_cell_length_a	17.019383
_cell_length_b	17.038272
_cell_length_c	14.421503
_cell_angle_alpha	89.995673
_cell_angle_beta	93.883595
_cell_angle_gamma	87.246883
loop_
_atom_site_label
_atom_site_type_symbol
_atom_site_fract_x
_atom_site_fract_y
_atom_site_fract_z
O1	O	1.053363	0.099636	0.161143
O2	O	1.553363	0.599636	0.661143
O3	O	0.824551	0.112327	0.142892
O4	O	1.324551	0.612327	0.642892
O5	O	0.937597	-0.007832	0.151902
O6	O	1.437597	0.492168	0.651902
O7	O	0.940317	0.219796	0.152133
O8	O	1.440317	0.719796	0.652133
O9	O	0.937578	-0.007815	-0.002323
O10	O	1.437578	0.492185	0.497677
O11	O	0.824532	0.112345	-0.011333
O12	O	1.324532	0.612345	0.488667
O13	O	1.053344	0.099654	0.006918
O14	O	1.553344	0.599654	0.506918
Cu15	Cu	0.938936	0.106001	-0.016289
Cu16	Cu	1.438936	0.606001	0.483711
Cu17	Cu	0.938959	0.105980	0.166100
Cu18	Cu	1.438959	0.605980	0.666100
O19	O	0.940298	0.219814	-0.002091
O20	O	1.440298	0.719814	0.497909
C21	C	0.795120	0.111853	0.063433
C22	C	1.295120	0.611853	0.563433
C23	C	0.707454	0.110405	0.056440
C24	C	1.207454	0.610405	0.556440
C25	C	0.666271	0.109717	0.137216
C26	C	1.166271	0.609717	0.637216
C27	C	0.583898	0.108369	0.130631
C28	C	1.083898	0.608369	0.630631
C29	C	0.542709	0.107703	0.043270
C30	C	1.042709	0.607703	0.543270
C31	C	0.583898	0.108394	-0.037511
C32	C	1.083898	0.608394	0.462489
C33	C	0.666269	0.109748	-0.030926
C34	C	1.166269	0.609748	0.469074
C35	C	0.294001	0.103621	0.019182
C36	C	0.794001	0.603621	0.519182
C37	C	0.211624	0.102265	0.012603
C38	C	0.711624	0.602265	0.512603
C39	C	0.211630	0.102241	0.180746
C40	C	0.711630	0.602241	0.680746
C41	C	0.294003	0.103590	0.187324
C42	C	0.794003	0.603590	0.687324
C43	C	0.335184	0.104285	0.106542
C44	C	0.835184	0.604285	0.606542
C45	C	0.458511	0.106322	0.036538
C46	C	0.958511	0.606322	0.536538
C47	C	0.419380	0.105671	0.113275
C48	C	0.919380	0.605671	0.613275
C49	C	0.935114	-0.036950	0.074592
C50	C	1.435114	0.463050	0.574592
C51	C	0.927734	-0.123737	0.074004
C52	C	1.427734	0.376263	0.574004
C53	C	0.995493	-0.173906	0.079408
C54	C	1.495493	0.326094	0.579408
C55	C	0.988554	-0.255451	0.078863
C56	C	1.488554	0.244549	0.578863
C57	C	0.913854	-0.286825	0.072908
C58	C	1.413854	0.213175	0.572908
C59	C	0.846089	-0.236649	0.067506
C60	C	1.346089	0.263351	0.567506
C61	C	0.853029	-0.155106	0.068057
C62	C	1.353029	0.344894	0.568057
C63	C	0.889337	-0.532563	0.070965
C64	C	1.389337	-0.032563	0.570965
C65	C	0.882402	-0.614112	0.070411
C66	C	1.382402	-0.114112	0.570411
C67	C	1.024867	-0.632909	0.081769
C68	C	1.524867	-0.132909	0.581769
C69	C	1.031800	-0.551363	0.082315
C70	C	1.531800	-0.051363	0.582315
C71	C	0.964036	-0.501194	0.076918
C72	C	1.464036	-0.001194	0.576918
C73	C	0.906759	-0.370177	0.072348
C74	C	1.406759	0.129823	0.572348
C75	C	0.971131	-0.417844	0.077485
C76	C	1.471131	0.082156	0.577485
C77	C	1.082775	0.100128	0.086380
C78	C	1.582775	0.600128	0.586380
C79	C	1.170441	0.101576	0.093379
C80	C	1.670441	0.601576	0.593379
C81	C	0.942781	0.248931	0.075220
C82	C	1.442781	0.748931	0.575220
C83	C	0.950161	0.335718	0.075815
C84	C	1.450161	0.835718	0.575815
N85	N	0.938926	0.106016	-0.144571
N86	N	1.438926	0.606016	0.355429
C87	C	0.886642	0.161553	-0.398392
C88	C	1.386642	0.661553	0.101608
C89	C	0.958934	0.176650	-0.454427
C90	C	1.458934	0.676650	0.045573
C91	C	0.938944	0.105997	-0.333731
C92	C	1.438944	0.605997	0.166269
C93	C	0.866672	0.090918	-0.461788
C94	C	1.366672	0.590918	0.038212
C95	C	0.938955	0.105981	-0.516452
C96	C	1.438955	0.605981	-0.016452
C97	C	1.011275	0.121130	-0.388403
C98	C	1.511275	0.621130	0.111597
C99	C	0.918963	0.035367	-0.395762
C100	C	1.418963	0.535367	0.104238
C101	C	0.991305	0.050434	-0.451766
C102	C	1.491305	0.550434	0.048234
C103	C	0.938937	0.106008	-0.228471
C104	C	1.438937	0.606008	0.271529
C105	C	0.938971	0.105969	-0.621710
C106	C	1.438971	0.605969	-0.121710
N107	N	0.938974	0.105960	0.294382
N108	N	1.438974	0.605960	0.794382
H109	H	0.178091	0.101677	0.246514
H110	H	0.678091	0.601677	0.746514
H111	H	0.842463	0.208572	-0.374815
H112	H	1.342463	0.708572	0.125185
H113	H	1.035591	0.003443	-0.475164
H114	H	1.535591	0.503443	0.024836
H115	H	0.785267	-0.262200	0.062663
H116	H	1.285267	0.237800	0.562663
F117	F	0.540071	0.107637	0.216605
F118	F	1.040071	0.607637	0.716605
F119	F	0.786779	0.074255	-0.503675
F120	F	1.286779	0.574255	-0.003675
F121	F	0.780910	-0.101712	0.062309
F122	F	1.280910	0.398288	0.562309
F123	F	1.075000	-0.140523	0.085737
F124	F	1.575000	0.359477	0.585737
H125	H	0.975845	0.236373	-0.480247
H126	H	1.475845	0.736373	0.019753
H127	H	0.327521	0.104181	-0.046597
H128	H	0.827521	0.604181	0.453403
H129	H	1.031951	-0.392296	0.082354
H130	H	1.531951	0.107704	0.582354
H131	H	0.834157	-0.491725	0.066570
H132	H	1.334157	0.008275	0.566570
F133	F	1.091193	0.137882	-0.346670
F134	F	1.591193	0.637882	0.153330
H135	H	0.902032	-0.024337	-0.369923
H136	H	1.402032	0.475663	0.130077
H137	H	0.699799	0.110311	-0.096703
H138	H	1.199799	0.610311	0.403297
F139	F	0.710099	0.110420	0.230198
F140	F	1.210099	0.610420	0.730198
H141	H	0.178090	0.101745	-0.058541
H142	H	0.678090	0.601745	0.441459
F143	F	0.540060	0.107691	-0.130488
F144	F	1.040060	0.607691	0.369512
H145	H	0.327533	0.104127	0.258462
H146	H	0.827533	0.604127	0.758462
H147	H	0.452919	0.106218	0.184404
H148	H	0.952919	0.606218	0.684404
H149	H	0.424967	0.105778	-0.034591
H150	H	0.924967	0.605778	0.465409
H151	H	1.092629	-0.525825	0.087164
H152	H	1.592629	-0.025825	0.587164
F153	F	1.096982	-0.686307	0.087514
F154	F	1.596982	-0.186307	0.587514
F155	F	1.060674	-0.308842	0.084613
F156	F	1.560674	0.191158	0.584613
H157	H	0.821569	-0.639653	0.065546
H158	H	1.321569	-0.139653	0.565546
F159	F	0.827260	-0.403574	0.066014
F160	F	1.327260	0.096426	0.566014
