data_functionalizedCrystal
_audit_creation_method	'MofGen! by Chris Wilmer'
_symmetry_space_group_name_H-M	'P1'
_symmetry_Int_Tables_number	1
_symmetry_cell_setting	triclinic
loop_
_symmetry_equiv_pos_as_xyz
  x,y,z
_cell_length_a	12.759400
_cell_length_b	18.215407
_cell_length_c	18.215399
_cell_angle_alpha	90.019833
_cell_angle_beta	89.980229
_cell_angle_gamma	89.996808
loop_
_atom_site_label
_atom_site_type_symbol
_atom_site_fract_x
_atom_site_fract_y
_atom_site_fract_z
Zn1	Zn	-0.418264	-1.125185	-0.416158
Zn2	Zn	-0.593962	-1.125141	-0.293109
Zn3	Zn	-0.418299	-1.002118	-0.293105
Zn4	Zn	-0.593903	-1.002131	-0.416134
O5	O	-0.506107	-1.063644	-0.354626
O6	O	-0.441581	-1.228164	-0.399847
O7	O	-0.570699	-1.108798	-0.190124
O8	O	-0.271273	-1.018456	-0.309437
O9	O	-0.570665	-1.228131	-0.309443
O10	O	-0.271248	-1.108873	-0.399843
O11	O	-0.441640	-1.018413	-0.190121
O12	O	-0.441583	-0.899135	-0.309414
O13	O	-0.570566	-1.018479	-0.519121
O14	O	-0.570599	-0.899145	-0.399802
O15	O	-0.441524	-1.108886	-0.519139
O16	O	-0.740975	-1.108811	-0.309420
O17	O	-0.740932	-1.018436	-0.399806
C18	C	-0.506089	-0.872438	-0.354605
C19	C	-0.506107	-0.790639	-0.354614
C20	C	-0.232074	-1.063668	-0.354642
C21	C	-0.115297	-1.063678	-0.354649
C22	C	-0.779074	-1.063640	-0.354627
C23	C	-0.895851	-1.063706	-0.354652
C24	C	0.049305	-1.110775	-0.401719
C25	C	-0.060420	-1.110760	-0.401719
C26	C	-0.060445	-1.016603	-0.307580
C27	C	0.049277	-1.016616	-0.307584
C28	C	0.104176	-1.157865	-0.448787
C29	C	0.049332	-1.204939	-0.495857
C30	C	-0.060392	-1.204924	-0.495857
C31	C	-0.115272	-1.157834	-0.448788
C32	C	-0.506035	-1.063689	-0.546579
C33	C	-0.506004	-1.063708	-0.628378
C34	C	-0.506126	-1.255597	-0.354648
C35	C	-0.506134	-1.337396	-0.354657
C36	C	-0.573391	-0.602469	-0.401620
C37	C	-0.573394	-0.525610	-0.401629
C38	C	-0.438842	-0.525570	-0.307649
C39	C	-0.438835	-0.602428	-0.307644
C40	C	-0.506115	-0.640875	-0.354628
C41	C	-0.506126	-0.487159	-0.354643
C42	C	-0.506129	-0.403825	-0.354652
C43	C	-0.506111	-0.724214	-0.354620
C44	C	-0.438749	-1.110800	-0.816583
C45	C	-0.438719	-1.110808	-0.893441
C46	C	-0.573096	-1.016668	-0.893412
C47	C	-0.573120	-1.016656	-0.816555
C48	C	-0.505949	-1.063726	-0.778142
C49	C	-0.505893	-1.063747	-0.931858
C50	C	-0.505861	-1.063756	-1.015192
C51	C	-0.505980	-1.063716	-0.694803
C52	C	-0.506103	-1.063642	-0.163420
C53	C	-0.505838	-1.063765	-0.081622
H54	H	0.094021	-1.243273	-0.534184
H55	H	-0.627787	-0.978347	-0.924697
H56	H	-0.204616	-1.157817	-0.448801
H57	H	-0.384051	-1.149125	-0.785309
O58	O	-0.373592	-0.639707	-0.261887
C59	C	-0.396404	-0.620887	-0.188514
H60	H	-0.480331	-0.599756	-0.184704
H61	H	-0.387286	-0.671418	-0.152166
H62	H	-0.340045	-0.576268	-0.169341
H63	H	-0.627841	-0.978318	-0.785255
O64	O	-0.373345	-0.488256	-0.262084
C65	C	-0.268661	-0.507057	-0.278271
H66	H	-0.263459	-0.528205	-0.337069
H67	H	-0.216748	-0.456510	-0.271990
H68	H	-0.241125	-0.551655	-0.238845
O69	O	-0.373410	-1.156607	-0.930669
C70	C	-0.314112	-1.198132	-0.880280
H71	H	-0.357167	-1.200669	-0.825492
H72	H	-0.302902	-1.256120	-0.902499
H73	H	-0.234320	-1.171188	-0.872105
H74	H	0.193519	-1.157885	-0.448790
H75	H	-0.105044	-1.243247	-0.534190
H76	H	-0.105137	-0.978266	-0.269258
O77	O	-0.638848	-0.488417	-0.447299
C78	C	-0.698204	-0.538836	-0.488779
H79	H	-0.701783	-0.593608	-0.458625
H80	H	-0.780998	-0.516633	-0.496538
H81	H	-0.659832	-0.547036	-0.544714
H82	H	-0.628172	-0.633771	-0.439880
H83	H	0.093932	-0.978287	-0.269258
