data_functionalizedCrystal
_audit_creation_method	'MofGen! by Chris Wilmer'
_symmetry_space_group_name_H-M	'P1'
_symmetry_Int_Tables_number	1
_symmetry_cell_setting	triclinic
loop_
_symmetry_equiv_pos_as_xyz
  x,y,z
_cell_length_a	13.262390
_cell_length_b	13.339070
_cell_length_c	9.130313
_cell_angle_alpha	90.000326
_cell_angle_beta	74.082461
_cell_angle_gamma	99.429367
loop_
_atom_site_label
_atom_site_type_symbol
_atom_site_fract_x
_atom_site_fract_y
_atom_site_fract_z
O1	O	1.432392	0.136404	-0.692410
O2	O	1.131129	0.151242	-0.572400
O3	O	1.247186	-0.003586	-0.618627
O4	O	1.316336	0.291231	-0.646183
O5	O	1.247185	-0.003582	-0.375028
O6	O	1.131129	0.151246	-0.328801
O7	O	1.432392	0.136408	-0.448811
Cu8	Cu	1.281760	0.143827	-0.366564
Cu9	Cu	1.281761	0.143822	-0.654648
O10	O	1.316335	0.291236	-0.402584
C11	C	1.091783	0.150413	-0.434927
C12	C	0.974540	0.147925	-0.388222
C13	C	0.644060	0.140889	-0.787735
C14	C	0.754214	0.143222	-0.831618
C15	C	0.809301	0.144398	-0.720773
C16	C	0.754223	0.143241	-0.566037
C17	C	0.644057	0.140900	-0.522149
C18	C	0.809298	0.144409	-0.455187
C19	C	0.754220	0.143252	-0.300451
C20	C	0.644065	0.140912	-0.256571
C21	C	0.588977	0.139736	-0.367416
C22	C	0.919464	0.146750	-0.499075
C23	C	0.919461	0.146760	-0.233489
C24	C	0.809307	0.144428	-0.189606
C25	C	1.235504	-0.041322	-0.492177
C26	C	1.200686	-0.153770	-0.478313
C27	C	1.471412	-0.517426	-0.586158
C28	C	1.504129	-0.411776	-0.599177
C29	C	1.428271	-0.347270	-0.568962
C30	C	1.319691	-0.388423	-0.525726
C31	C	1.286971	-0.494084	-0.512694
C32	C	1.243830	-0.323927	-0.495498
C33	C	1.135250	-0.365080	-0.452262
C34	C	1.102536	-0.470731	-0.439233
C35	C	1.178394	-0.535237	-0.469447
C36	C	1.276550	-0.218267	-0.508530
C37	C	1.092109	-0.194924	-0.435066
C38	C	1.059392	-0.300574	-0.422047
C39	C	1.471738	0.137237	-0.586288
C40	C	1.588981	0.139725	-0.633002
C41	C	1.328017	0.328972	-0.529038
C42	C	1.362835	0.441420	-0.542911
N43	N	1.281767	0.143830	-0.163944
N44	N	1.281760	0.143812	-0.857270
C45	C	1.333181	0.075296	-0.107771
C46	C	1.333175	0.075284	0.045568
C47	C	1.230339	0.212349	0.086549
C48	C	1.230339	0.212356	-0.066785
C49	C	1.392557	-0.003835	-0.131432
C50	C	1.392551	-0.003847	0.021908
H51	H	0.799050	0.144159	-0.957603
H52	H	1.592534	-0.378277	-0.634378
H53	H	1.533164	-0.569956	-0.610741
C54	C	0.980038	0.148027	-0.669281
N55	N	1.025662	0.148992	-0.797490
H56	H	0.898994	0.146298	-0.756512
C57	C	1.504792	0.029053	-0.240399
N58	N	1.589329	0.053824	-0.322474
C59	C	1.173770	0.287722	0.193438
N60	N	1.131160	0.344494	0.273945
C61	C	0.467802	0.137183	-0.319153
N62	N	0.376532	0.135265	-0.282805
C63	C	1.508000	0.019218	0.032146
N64	N	1.594951	0.036620	0.039858
H65	H	1.346318	-0.077311	0.087874
H66	H	1.151761	-0.621268	-0.458855
H67	H	0.764447	0.143485	-0.063618
C68	C	1.008659	-0.123970	-0.401832
N69	N	0.945810	-0.070522	-0.376801
C70	C	0.583456	0.139587	-0.909645
N71	N	0.537807	0.138606	-1.001476
C72	C	0.980053	0.148061	-0.111551
N73	N	1.025698	0.149041	-0.019715
H74	H	0.599220	0.139951	-0.130574
H75	H	1.364956	-0.184770	-0.543733
H76	H	1.014123	-0.504234	-0.404016
C77	C	1.464264	-0.231052	-0.583296
N78	N	1.491379	-0.143513	-0.594102
H79	H	0.970985	-0.334096	-0.386842
C80	C	1.173882	0.287826	-0.128609
N81	N	1.131397	0.344705	-0.175189
H82	H	1.352688	-0.081613	-0.157167
