data_functionalizedCrystal
_audit_creation_method	'MofGen! by Chris Wilmer'
_symmetry_space_group_name_H-M	'P1'
_symmetry_Int_Tables_number	1
_symmetry_cell_setting	triclinic
loop_
_symmetry_equiv_pos_as_xyz
  x,y,z
_cell_length_a	15.298068
_cell_length_b	13.897448
_cell_length_c	15.298431
_cell_angle_alpha	99.711154
_cell_angle_beta	88.414624
_cell_angle_gamma	99.677554
loop_
_atom_site_label
_atom_site_type_symbol
_atom_site_fract_x
_atom_site_fract_y
_atom_site_fract_z
Zn1	Zn	1.253510	-0.017702	0.727428
Zn2	Zn	1.278759	-0.201464	0.580948
Zn3	Zn	1.132363	-0.071936	0.555580
Zn4	Zn	1.107011	-0.210741	0.701983
O5	O	1.192911	-0.125461	0.641485
O6	O	1.379437	-0.015499	0.729262
O7	O	1.280516	-0.203097	0.455011
O8	O	1.148476	0.070254	0.578408
O9	O	1.397987	-0.150509	0.621645
O10	O	1.237482	0.110099	0.704664
O11	O	1.172960	-0.107933	0.436373
O12	O	1.006422	-0.116927	0.553735
O13	O	1.105267	-0.166319	0.827930
O14	O	0.987796	-0.218907	0.661297
O15	O	1.212899	-0.024494	0.846624
O16	O	1.255933	-0.337690	0.596972
O17	O	1.129750	-0.344506	0.685895
C18	C	0.965326	-0.174809	0.602002
C19	C	0.867961	-0.195941	0.585133
C20	C	0.554812	0.025329	0.762059
C21	C	0.646291	0.045182	0.777914
C22	C	0.701713	-0.015097	0.729720
C23	C	0.665647	-0.095232	0.665668
C24	C	0.574159	-0.115091	0.649816
C25	C	0.721059	-0.155517	0.617477
C26	C	0.684994	-0.235652	0.553426
C27	C	0.593514	-0.255507	0.537576
C28	C	0.538092	-0.195229	0.585770
C29	C	0.812548	-0.135658	0.633329
C30	C	0.831894	-0.276079	0.521087
C31	C	0.740415	-0.295931	0.505232
C32	C	1.192851	-0.376093	0.641448
C33	C	1.192901	-0.483292	0.641476
C34	C	1.192983	-0.679559	0.641547
C35	C	1.192934	-0.570342	0.641510
C36	C	1.421384	-0.075920	0.681122
C37	C	1.518745	-0.054808	0.698013
C38	C	1.153439	-0.090392	0.869947
C39	C	1.136618	-0.075447	0.967305
C40	C	1.192991	0.126158	0.641545
C41	C	1.193025	0.233383	0.641570
C42	C	1.232279	-0.160313	0.413920
C43	C	1.249269	-0.174948	0.316592
C44	C	1.072715	-0.018876	1.003332
C45	C	1.056900	-0.004839	1.094802
C46	C	1.104991	-0.047365	1.150254
C47	C	1.168900	-0.103931	1.114227
C48	C	1.184712	-0.117976	1.022748
C49	C	1.216988	-0.146465	1.169670
C50	C	1.280896	-0.203031	1.133643
C51	C	1.296706	-0.217073	1.042172
C52	C	1.248615	-0.174547	0.986720
C53	C	1.201176	-0.132419	1.261149
C54	C	1.313172	-0.231519	1.280565
C55	C	1.328988	-0.245557	1.189095
H56	H	0.675648	0.110425	0.830067
C57	C	0.892849	-0.342390	0.468066
C58	C	0.993478	-0.320546	0.485497
C59	C	1.054438	-0.386854	0.432482
C60	C	1.014770	-0.475006	0.362037
C61	C	0.914136	-0.496855	0.344602
C62	C	0.853175	-0.430547	0.397617
H63	H	1.022848	-0.255287	0.537648
H64	H	1.128934	-0.370680	0.445389
H65	H	1.059896	-0.524091	0.322792
H66	H	0.884766	-0.562114	0.292451
H67	H	0.778679	-0.446721	0.384710
C68	C	1.366083	-0.278293	1.341557
C69	C	1.467837	-0.250757	1.346263
C70	C	1.520741	-0.297526	1.407263
C71	C	1.471892	-0.371829	1.463555
C72	C	1.370132	-0.399368	1.458851
C73	C	1.317227	-0.352600	1.397851
H74	H	1.504003	-0.195750	1.304591
H75	H	1.596071	-0.277139	1.410745
H76	H	1.511055	-0.406450	1.508711
H77	H	1.333966	-0.454376	1.500524
H78	H	1.241898	-0.372987	1.394369
C79	C	1.130885	-0.070194	1.300774
C80	C	1.033479	-0.101586	1.270908
C81	C	0.963185	-0.039354	1.310532
C82	C	0.990296	0.054269	1.380021
C83	C	1.087706	0.085665	1.409890
C84	C	1.158001	0.023434	1.370266
H85	H	1.013406	-0.170895	1.219465
H86	H	0.891075	-0.062596	1.288420
H87	H	0.938260	0.100337	1.409352
H88	H	1.107780	0.154975	1.461333
H89	H	1.230110	0.046676	1.392378
H90	H	1.261491	-0.185969	0.912237
H91	H	0.509679	0.074395	0.801296
H92	H	0.463601	-0.211394	0.572870
H93	H	0.564151	-0.320765	0.485428
H94	H	1.092111	-0.035931	1.224733
H95	H	1.004863	0.041213	1.124128
C96	C	0.802341	0.006745	0.747153
C97	C	0.856529	0.106962	0.733470
C98	C	0.957162	0.128812	0.750903
C99	C	1.003608	0.050444	0.782019
C100	C	0.949420	-0.049780	0.795703
C101	C	0.848786	-0.071630	0.778270
H102	H	0.822148	0.164981	0.710435
H103	H	0.997275	0.203005	0.740773
H104	H	1.078102	0.066619	0.794923
H105	H	0.983801	-0.107798	0.818738
H106	H	0.808673	-0.145823	0.788400
H107	H	0.711037	-0.361178	0.453081
H108	H	1.033561	0.015735	0.958175
H109	H	1.348733	-0.263148	1.012840
C110	C	1.399274	-0.307791	1.149453
C111	C	1.478924	-0.260740	1.098502
C112	C	1.549206	-0.322978	1.058857
C113	C	1.539839	-0.432266	1.070163
C114	C	1.460186	-0.479323	1.121117
C115	C	1.389903	-0.417086	1.160762
H116	H	1.485861	-0.179833	1.090130
H117	H	1.608171	-0.288143	1.021137
H118	H	1.591866	-0.478338	1.040816
H119	H	1.453248	-0.560230	1.129489
H120	H	1.330939	-0.451921	1.198481
H121	H	0.841903	-0.070411	0.685480
