data_functionalizedCrystal
_audit_creation_method	'MofGen! by Chris Wilmer'
_symmetry_space_group_name_H-M	'P1'
_symmetry_Int_Tables_number	1
_symmetry_cell_setting	triclinic
loop_
_symmetry_equiv_pos_as_xyz
  x,y,z
_cell_length_a	11.792241
_cell_length_b	11.792241
_cell_length_c	10.868271
_cell_angle_alpha	90.000107
_cell_angle_beta	89.994719
_cell_angle_gamma	95.806584
loop_
_atom_site_label
_atom_site_type_symbol
_atom_site_fract_x
_atom_site_fract_y
_atom_site_fract_z
O1	O	0.155568	-1.506908	-0.102203
O2	O	0.171601	-1.176567	-0.102232
O3	O	-0.001586	-1.349754	-0.102208
O4	O	0.328755	-1.333721	-0.102227
O5	O	-0.001592	-1.349740	0.102436
O6	O	0.171595	-1.176553	0.102413
O7	O	0.155562	-1.506894	0.102441
Zn8	Zn	0.163577	-1.341721	0.134919
Zn9	Zn	0.163586	-1.341740	-0.134709
O10	O	0.328749	-1.333707	0.102418
C11	C	0.170591	-1.134269	0.000087
C12	C	0.167576	-1.008255	0.000076
C13	C	-0.043880	-1.348740	0.000114
C14	C	-0.169894	-1.345726	0.000112
C15	C	-0.400606	-1.340183	0.000091
C16	C	-0.272221	-1.343262	0.000102
C17	C	0.156572	-1.549192	0.000120
C18	C	0.159587	-1.675206	0.000123
C19	C	0.371043	-1.334721	0.000093
C20	C	0.497057	-1.337736	0.000087
N21	N	0.163570	-1.341717	0.318933
C22	C	0.162034	-0.777543	0.000112
C23	C	0.165113	-0.905928	0.000092
N24	N	0.163584	-1.341754	-0.318723
C25	C	0.163584	-1.341734	0.569939
C26	C	0.163580	-1.341721	0.430261
