data_functionalizedCrystal
_audit_creation_method	'MofGen! by Chris Wilmer'
_symmetry_space_group_name_H-M	'P1'
_symmetry_Int_Tables_number	1
_symmetry_cell_setting	triclinic
loop_
_symmetry_equiv_pos_as_xyz
  x,y,z
_cell_length_a	17.038272
_cell_length_b	15.538191
_cell_length_c	16.098524
_cell_angle_alpha	86.240236
_cell_angle_beta	87.129416
_cell_angle_gamma	69.191825
loop_
_atom_site_label
_atom_site_type_symbol
_atom_site_fract_x
_atom_site_fract_y
_atom_site_fract_z
O1	O	0.982655	0.203926	-0.069145
O2	O	1.482655	0.703926	0.430855
O3	O	0.755925	0.200751	-0.069169
O4	O	1.255925	0.700751	0.430831
O5	O	0.913425	0.068746	-0.069156
O6	O	1.413425	0.568746	0.430844
O7	O	0.825155	0.335931	-0.069158
O8	O	1.325155	0.835931	0.430842
O9	O	0.909400	0.060899	0.069357
O10	O	1.409400	0.560899	0.569357
O11	O	0.751900	0.192904	0.069344
O12	O	1.251900	0.692904	0.569344
O13	O	0.978629	0.196079	0.069368
O14	O	1.478629	0.696079	0.569368
Zn15	Zn	0.864626	0.193246	0.091348
Zn16	Zn	1.364626	0.693246	0.591348
Zn17	Zn	0.869929	0.203584	-0.091149
Zn18	Zn	1.369929	0.703584	0.408851
O19	O	0.821130	0.328084	0.069355
O20	O	1.321130	0.828084	0.569355
C21	C	0.920648	0.030467	0.000099
C22	C	1.420648	0.530467	0.500099
C23	C	0.948157	-0.071902	0.000093
C24	C	1.448157	0.428098	0.500093
C25	C	0.725604	0.193939	0.000084
C26	C	1.225604	0.693939	0.500084
C27	C	0.641255	0.185322	0.000074
C28	C	1.141255	0.685322	0.500074
C29	C	0.674862	-0.381593	0.000082
C30	C	1.174862	0.118407	0.500082
C31	C	0.700730	-0.477786	0.000086
C32	C	1.200730	0.022214	0.500086
C33	C	0.846232	-0.488570	0.000102
C34	C	1.346232	0.011430	0.500102
C35	C	0.820377	-0.392375	0.000093
C36	C	1.320377	0.107625	0.500093
C37	C	0.734690	-0.338895	0.000084
C38	C	1.234690	0.161105	0.500084
C39	C	0.880205	-0.349677	0.000095
C40	C	1.380205	0.150323	0.500095
C41	C	0.854351	-0.253491	0.000091
C42	C	1.354351	0.246509	0.500091
C43	C	0.768668	-0.200004	0.000084
C44	C	1.268668	0.299996	0.500084
C45	C	0.708836	-0.242709	0.000079
C46	C	1.208836	0.257291	0.500079
C47	C	0.965891	-0.403159	0.000110
C48	C	1.465891	0.096841	0.500110
C49	C	1.025719	-0.360461	0.000112
C50	C	1.525719	0.139539	0.500112
C51	C	0.999865	-0.264273	0.000102
C52	C	1.499865	0.235727	0.500102
C53	C	0.914183	-0.210786	0.000095
C54	C	1.414183	0.289214	0.500095
C55	C	1.059697	-0.221568	0.000107
C56	C	1.559697	0.278432	0.500107
C57	C	1.033843	-0.125382	0.000102
C58	C	1.533843	0.374618	0.500102
C59	C	0.888329	-0.114600	0.000091
C60	C	1.388329	0.385400	0.500091
C61	C	0.568704	0.264445	0.000075
C62	C	1.068704	0.764445	0.500075
C63	C	0.489451	0.256342	0.000086
C64	C	0.989451	0.756342	0.500086
C65	C	0.482751	0.169114	0.000092
C66	C	0.982751	0.669114	0.500092
C67	C	0.555310	0.089984	0.000094
C68	C	1.055310	0.589984	0.500094
C69	C	0.634561	0.098089	0.000088
C70	C	1.134561	0.598089	0.500088
C71	C	0.245111	0.140483	0.000114
C72	C	0.745111	0.640483	0.500114
C73	C	0.165851	0.132385	0.000117
C74	C	0.665851	0.632385	0.500117
C75	C	0.099997	0.298743	0.000111
C76	C	0.599997	0.798743	0.500111
C77	C	0.179253	0.306840	0.000100
C78	C	0.679253	0.806840	0.500100
C79	C	0.251805	0.227710	0.000107
C80	C	0.751805	0.727710	0.500107
C81	C	0.401742	0.160829	0.000101
C82	C	0.901742	0.660829	0.500101
C83	C	0.332812	0.235996	0.000104
C84	C	0.832812	0.735996	0.500104
C85	C	1.008951	0.202891	0.000113
C86	C	1.508951	0.702891	0.500113
C87	C	1.093300	0.211509	0.000117
C88	C	1.593300	0.711509	0.500117
C89	C	0.813907	0.366363	0.000099
C90	C	1.313907	0.866363	0.500099
C91	C	0.786398	0.468732	0.000098
C92	C	1.286398	0.968732	0.500098
N93	N	0.861012	0.186190	0.215897
N94	N	1.361012	0.686190	0.715897
N95	N	0.873551	0.210633	-0.215698
N96	N	1.373551	0.710633	0.284302
C97	C	0.890246	0.243335	0.259483
C98	C	1.390246	0.743335	0.759483
C99	C	0.887730	0.238394	0.346672
C100	C	1.387730	0.738394	0.846672
C101	C	0.855974	0.176312	0.390273
C102	C	1.355974	0.676312	0.890273
C103	C	0.826739	0.119162	0.346680
C104	C	1.326739	0.619162	0.846680
C105	C	0.829261	0.124099	0.259493
C106	C	1.329261	0.624099	0.759493
C107	C	0.846839	0.158419	0.653523
C108	C	1.346839	0.658419	1.153523
C109	C	0.844317	0.153488	0.740716
C110	C	1.344317	0.653488	1.240716
C111	C	0.905309	0.272720	0.740702
C112	C	1.405309	0.772720	1.240702
C113	C	0.907824	0.277655	0.653513
C114	C	1.407824	0.777655	1.153513
C115	C	0.878593	0.220501	0.609928
C116	C	1.378593	0.720501	1.109928
C117	C	0.853399	0.171262	0.479394
C118	C	1.353399	0.671262	0.979394
C119	C	0.881174	0.225547	0.520808
C120	C	1.381174	0.725547	1.020808
H121	H	0.747619	-0.121684	0.000085
H122	H	1.247619	0.378316	0.500085
H123	H	0.040919	0.363166	0.000107
H124	H	0.540919	0.863166	0.500107
H125	H	0.430380	0.320773	0.000085
H126	H	0.930380	0.820773	0.500085
N127	N	0.919274	0.300037	0.393657
N128	N	1.419274	0.800037	0.893657
H129	H	0.872169	0.340391	0.429837
H130	H	1.372169	0.840391	0.929837
H131	H	0.967041	0.260856	0.429773
H132	H	1.467041	0.760856	0.929773
N133	N	0.582438	-0.323918	0.000085
N134	N	1.082438	0.176082	0.500085
H135	H	0.566983	-0.286685	0.051435
H136	H	1.066983	0.213315	0.551435
H137	H	0.570008	-0.280911	-0.051293
H138	H	1.070008	0.219089	0.448707
N139	N	0.636197	-0.523842	0.000085
N140	N	1.136197	-0.023842	0.500085
H141	H	0.577994	-0.475364	0.000079
H142	H	1.077994	0.024636	0.500079
H143	H	0.645245	-0.560609	-0.051262
H144	H	1.145245	-0.060609	0.448738
H145	H	0.160404	0.061350	0.000121
H146	H	0.660404	0.561350	0.500121
H147	H	0.800888	0.068609	0.382187
H148	H	1.300888	0.568609	0.882187
H149	H	0.933686	0.328206	0.618019
H150	H	1.433686	0.828206	1.118019
N151	N	0.797735	0.062461	0.212478
N152	N	1.297735	0.562461	0.712478
H153	H	0.777234	0.022383	0.253327
H154	H	1.277234	0.522383	0.753327
H155	H	0.750021	0.101644	0.176302
H156	H	1.250021	0.601644	0.676302
N157	N	1.118133	-0.418148	0.000112
N158	N	1.618133	0.081852	0.500112
H159	H	1.152111	-0.376500	0.000110
H160	H	1.652111	0.123500	0.500110
H161	H	1.130543	-0.461197	0.051462
H162	H	1.630543	0.038803	0.551462
N163	N	0.616418	-0.185015	0.000056
N164	N	1.116418	0.314985	0.500056
H165	H	0.582435	-0.226657	0.000050
H166	H	1.082435	0.273343	0.500050
H167	H	0.601026	-0.147777	0.051402
H168	H	1.101026	0.352223	0.551402
N169	N	0.936837	0.334360	0.787710
N170	N	1.436837	0.834360	1.287710
H171	H	0.930422	0.321815	0.849559
H172	H	1.430422	0.821815	1.349559
H173	H	0.998027	0.321518	0.772466
H174	H	1.498027	0.821518	1.272466
H175	H	0.396277	0.089806	0.000129
H176	H	0.896277	0.589806	0.500129
N177	N	0.938647	-0.546254	0.000120
N178	N	1.438647	-0.046254	0.500120
H179	H	0.945949	-0.613668	0.000125
H180	H	1.445949	-0.113668	0.500125
H181	H	0.967392	-0.528893	-0.051228
H182	H	1.467392	-0.028893	0.448772
N183	N	1.098368	-0.079320	0.000109
N184	N	1.598368	0.420680	0.500109
H185	H	1.156572	-0.127795	0.000114
H186	H	1.656572	0.372205	0.500114
H187	H	1.092300	-0.036739	-0.051239
H188	H	1.592300	0.463261	0.448761
N189	N	1.152110	-0.279263	0.000130
N190	N	1.652110	0.220737	0.500130
H191	H	1.167575	-0.316512	-0.051211
H192	H	1.667575	0.183488	0.448789
H193	H	1.186030	-0.237562	0.000163
H194	H	1.686030	0.262438	0.500163
H195	H	0.574149	0.335476	0.000070
H196	H	1.074149	0.835476	0.500070
N197	N	0.993774	-0.506903	0.000114
N198	N	1.493774	-0.006903	0.500114
H199	H	1.030065	-0.529283	-0.051225
H200	H	1.530065	-0.029283	0.448775
H201	H	1.027033	-0.535020	0.051502
H202	H	1.527033	-0.035020	0.551502
H203	H	0.184699	0.377870	0.000086
H204	H	0.684699	0.877870	0.500086
N205	N	0.323355	0.055140	0.000127
N206	N	0.823355	0.555140	0.500127
H207	H	0.307082	-0.001346	0.000130
H208	H	0.807082	0.498654	0.500130
H209	H	0.359164	0.057778	-0.051220
H210	H	0.859164	0.557778	0.448780
H211	H	0.549849	0.018961	0.000110
H212	H	1.049849	0.518961	0.500110
H213	H	0.916100	0.293893	0.223990
H214	H	1.416100	0.793893	0.723990
H215	H	0.693635	0.033657	0.000088
H216	H	1.193635	0.533657	0.500088
N217	N	0.819136	0.104319	0.526432
N218	N	1.319136	0.604319	1.026432
H219	H	0.758809	0.118856	0.511266
H220	H	1.258809	0.618856	1.011266
H221	H	0.853724	0.039404	0.511249
H222	H	1.353724	0.539404	1.011249
N223	N	0.340028	0.330078	0.000097
N224	N	0.840028	0.830078	0.500097
H225	H	0.369957	0.334243	0.051441
H226	H	0.869957	0.834243	0.551441
H227	H	0.372907	0.339991	-0.051287
H228	H	0.872907	0.839991	0.448713
N229	N	0.810049	0.086538	0.787746
N230	N	1.310049	0.586538	1.287746
H231	H	0.791912	0.051082	0.746906
H232	H	1.291912	0.551082	1.246906
H233	H	0.855099	0.042160	0.823929
H234	H	1.355099	0.542160	1.323929
H235	H	0.823037	0.111880	0.618046
H236	H	1.323037	0.611880	1.118046
H237	H	0.907034	0.276091	0.485305
H238	H	1.407034	0.776091	0.985305
H239	H	0.818555	-0.071053	0.000078
H240	H	1.318555	0.428947	0.500078
