data_functionalizedCrystal
_audit_creation_method	'MofGen! by Chris Wilmer'
_symmetry_space_group_name_H-M	'P1'
_symmetry_Int_Tables_number	1
_symmetry_cell_setting	triclinic
loop_
_symmetry_equiv_pos_as_xyz
  x,y,z
_cell_length_a	16.109301
_cell_length_b	15.944551
_cell_length_c	15.186229
_cell_angle_alpha	89.995303
_cell_angle_beta	89.999006
_cell_angle_gamma	83.480161
loop_
_atom_site_label
_atom_site_type_symbol
_atom_site_fract_x
_atom_site_fract_y
_atom_site_fract_z
O1	O	1.103165	0.107967	-0.073182
O2	O	0.861108	0.121403	-0.073195
O3	O	0.988747	-0.007592	-0.073180
O4	O	0.975527	0.236962	-0.073197
O5	O	0.988738	-0.007594	0.073277
O6	O	0.861099	0.121401	0.073263
O7	O	1.103157	0.107965	0.073275
Zn8	Zn	0.982127	0.114683	0.096522
Zn9	Zn	0.982138	0.114686	-0.096442
O10	O	0.975518	0.236960	0.073261
C11	C	0.830129	0.120858	0.000032
C12	C	0.737833	0.119226	0.000028
C13	C	0.428858	0.190435	0.000038
C14	C	0.515578	0.191976	0.000033
C15	C	0.535402	0.038928	0.000032
C16	C	0.448683	0.037388	0.000031
C17	C	0.395412	0.113144	0.000038
C18	C	0.568852	0.116225	0.000034
C19	C	0.662879	0.117895	0.000029
C20	C	0.301380	0.111474	0.000042
C21	C	0.988194	-0.038886	0.000049
C22	C	0.986548	-0.132132	0.000049
C23	C	0.903499	-0.346961	0.000033
C24	C	0.942060	-0.407992	0.072247
C25	C	0.983572	-0.302857	0.000042
C26	C	0.942087	-0.407974	-0.072148
C27	C	0.980691	-0.467769	0.000032
C28	C	1.022155	-0.362660	0.072316
C29	C	1.022171	-0.362635	-0.072144
C30	C	1.060790	-0.423648	0.000088
C31	C	0.985229	-0.207855	0.000049
C32	C	0.979039	-0.562769	0.000031
C33	C	1.134136	0.108511	0.000046
C34	C	1.226432	0.110142	0.000045
C35	C	0.976071	0.268255	0.000030
C36	C	0.977717	0.361501	0.000024
N37	N	0.982125	0.114681	0.228215
N38	N	0.982146	0.114681	-0.228134
C39	C	1.038663	0.057581	0.453944
C40	C	1.038666	0.057579	0.546134
C41	C	0.925602	0.171784	0.546130
C42	C	0.925597	0.171781	0.453942
C43	C	0.982131	0.114681	0.407851
C44	C	0.982140	0.114681	0.592229
C45	C	0.982142	0.114680	0.692185
C46	C	0.982128	0.114681	0.307889
H47	H	0.837035	-0.313632	0.000101
Br48	Br	1.078555	-0.329368	0.174183
H49	H	0.385487	0.252121	0.000044
Br50	Br	0.560965	0.296876	0.000026
H51	H	1.084698	0.011083	0.583660
H52	H	0.879558	0.218278	0.416411
Br53	Br	0.885621	-0.441443	-0.173896
Br54	Br	0.403288	-0.067516	0.000015
Br55	Br	0.607702	-0.063879	0.000028
H56	H	0.879574	0.218274	0.583666
H57	H	1.084696	0.011086	0.416419
Br58	Br	1.171664	-0.478954	0.000155
Br59	Br	0.885610	-0.441489	0.174000
H60	H	1.056013	-0.342515	-0.133195
