data_functionalizedCrystal
_audit_creation_method	'MofGen! by Chris Wilmer'
_symmetry_space_group_name_H-M	'P1'
_symmetry_Int_Tables_number	1
_symmetry_cell_setting	triclinic
loop_
_symmetry_equiv_pos_as_xyz
  x,y,z
_cell_length_a	20.453700
_cell_length_b	23.752966
_cell_length_c	11.102315
_cell_angle_alpha	84.894068
_cell_angle_beta	108.606275
_cell_angle_gamma	79.933465
loop_
_atom_site_label
_atom_site_type_symbol
_atom_site_fract_x
_atom_site_fract_y
_atom_site_fract_z
V1	V	1.356252	-0.079163	0.396971
O2	O	1.357542	0.003801	0.388680
O3	O	1.334496	-0.156964	0.394962
O4	O	1.348733	-0.077947	0.569782
O5	O	1.343206	-0.075763	0.212651
V6	V	1.517074	-0.069239	0.374839
O7	O	1.444112	-0.100931	0.445520
O8	O	1.579280	-0.047471	0.326291
O9	O	1.464428	0.008562	0.376848
O10	O	1.554917	-0.152203	0.383130
O11	O	1.569252	-0.072639	0.559160
O12	O	1.450191	-0.070456	0.202029
V13	V	1.689586	-0.079163	0.396971
O14	O	1.690875	0.003801	0.388680
O15	O	1.667829	-0.156964	0.394962
O16	O	1.682066	-0.077947	0.569782
O17	O	1.676539	-0.075763	0.212651
V18	V	1.850407	-0.069239	0.374839
O19	O	1.777445	-0.100931	0.445520
O20	O	1.912614	-0.047471	0.326291
O21	O	1.797762	0.008562	0.376848
O22	O	1.888250	-0.152203	0.383130
O23	O	1.902586	-0.072639	0.559160
O24	O	1.783524	-0.070456	0.202029
V25	V	2.022919	-0.079163	0.396971
O26	O	2.024209	0.003801	0.388680
O27	O	2.001162	-0.156964	0.394962
O28	O	2.015400	-0.077947	0.569782
O29	O	2.009873	-0.075763	0.212651
V30	V	2.183741	-0.069239	0.374839
O31	O	2.110778	-0.100931	0.445520
O32	O	2.245947	-0.047471	0.326291
O33	O	2.131095	0.008562	0.376848
O34	O	2.221583	-0.152203	0.383130
O35	O	2.235919	-0.072639	0.559160
O36	O	2.116858	-0.070456	0.202029
C37	C	1.281183	-0.175930	0.388882
C38	C	1.290547	-0.239533	0.388392
C39	C	1.409524	-0.636867	0.391855
C40	C	1.418336	-0.696630	0.391414
O41	O	1.474617	-0.730021	0.396645
N42	N	1.361928	-0.723606	0.384817
C43	C	1.296706	-0.690816	0.378675
O44	O	1.249536	-0.719249	0.373025
C45	C	1.287897	-0.631054	0.379126
C46	C	1.344307	-0.604081	0.385710
C47	C	1.465930	-0.609893	0.398440
C48	C	1.457119	-0.550133	0.398879
C49	C	1.391901	-0.517347	0.392733
C50	C	1.335496	-0.544321	0.386149
C51	C	1.222677	-0.598266	0.372993
C52	C	1.213873	-0.538500	0.373445
C53	C	1.270284	-0.511526	0.380029
C54	C	1.261467	-0.451775	0.380442
N55	N	1.317875	-0.424799	0.387038
C56	C	1.383092	-0.457585	0.393184
C57	C	1.315211	-0.816321	0.377731
C58	C	1.324018	-0.876081	0.377271
C59	C	1.445647	-0.881891	0.390013
C60	C	1.436838	-0.822129	0.390463
C61	C	1.371619	-0.789345	0.384328
C62	C	1.364583	-0.332085	0.394104
C63	C	1.355764	-0.272319	0.394537
C64	C	1.234137	-0.266515	0.381803
C65	C	1.242953	-0.326274	0.381363
C66	C	1.308182	-0.359059	0.387519
O67	O	1.205208	-0.418348	0.375219
O68	O	1.430255	-0.429146	0.398850
C69	C	1.299343	-0.075135	0.611880
C70	C	1.320253	-0.074655	0.753159
C71	C	1.405522	0.027525	0.382925
C72	C	1.389237	0.091127	0.383424
C73	C	1.387361	-0.073269	0.159924
C74	C	1.359531	-0.073746	0.018644
C75	C	1.614516	-0.175930	0.388882
C76	C	1.623881	-0.239533	0.388392
C77	C	1.441908	-0.080373	0.766180
C78	C	1.512556	-0.083008	0.839063
C79	C	1.532198	-0.082557	0.971805
C80	C	1.481185	-0.079468	1.031666
C81	C	1.410537	-0.076833	0.958784
C82	C	1.390902	-0.077286	0.826040
C83	C	1.288883	-0.071111	0.945761
C84	C	1.269240	-0.071566	0.813020
C85	C	1.237870	-0.068022	1.005623
C86	C	1.167222	-0.065391	0.932742
C87	C	1.147581	-0.065843	0.799992
C88	C	1.198592	-0.068931	0.740138
C89	C	1.632677	-0.075135	0.611880
C90	C	1.653586	-0.074655	0.753159
C91	C	1.738855	0.027525	0.382925
C92	C	1.722570	0.091127	0.383424
C93	C	1.720694	-0.073269	0.159924
C94	C	1.692864	-0.073746	0.018644
C95	C	1.947849	-0.175930	0.388882
C96	C	1.957214	-0.239533	0.388392
C97	C	1.966010	-0.075135	0.611880
C98	C	1.986920	-0.074655	0.753159
C99	C	2.072188	0.027525	0.382925
C100	C	2.055904	0.091127	0.383424
C101	C	2.054028	-0.073269	0.159924
C102	C	2.026198	-0.073746	0.018644
C103	C	1.689098	-0.272319	0.394537
C104	C	1.697909	-0.332083	0.394096
C105	C	1.641501	-0.359059	0.387499
C106	C	1.576279	-0.326269	0.381357
C107	C	1.567470	-0.266507	0.381808
C108	C	1.772349	0.123913	0.377282
C109	C	1.757053	0.183676	0.377729
C110	C	1.691979	0.210652	0.384329
C111	C	1.642196	0.177862	0.390468
C112	C	1.657491	0.118101	0.390011
C113	C	2.022431	-0.272319	0.394537
C114	C	2.031242	-0.332083	0.394096
C115	C	1.974834	-0.359059	0.387499
C116	C	1.909613	-0.326269	0.381357
C117	C	1.900804	-0.266507	0.381808
C118	C	2.105683	0.123913	0.377282
C119	C	2.090386	0.183676	0.377729
C120	C	2.025312	0.210652	0.384329
C121	C	1.975529	0.177862	0.390468
C122	C	1.990824	0.118101	0.390011
C123	C	1.674819	-0.179448	0.790430
C124	C	1.695256	-0.231617	0.875437
C125	C	1.714902	-0.231163	1.008179
C126	C	1.714113	-0.178534	1.055915
C127	C	1.693676	-0.126366	0.970909
C128	C	1.674028	-0.126825	0.838166
C129	C	1.672449	-0.021574	0.933639
C130	C	1.652797	-0.022027	0.800896
C131	C	1.671660	0.031054	0.981376
C132	C	1.651218	0.083224	0.896368
C133	C	1.631570	0.082768	0.763619
C134	C	1.632360	0.030142	0.715889
C135	C	2.008152	-0.179448	0.790430
C136	C	2.028589	-0.231617	0.875437
C137	C	2.048236	-0.231163	1.008179
C138	C	2.047446	-0.178534	1.055915
C139	C	2.027010	-0.126366	0.970909
C140	C	2.007362	-0.126825	0.838166
C141	C	2.005782	-0.021574	0.933639
C142	C	1.986131	-0.022027	0.800896
C143	C	2.004993	0.031054	0.981376
C144	C	1.984551	0.083224	0.896368
C145	C	1.964903	0.082768	0.763619
C146	C	1.965694	0.030142	0.715889
H147	H	1.401703	-0.250360	0.399894
H148	H	1.983916	0.126070	0.935248
H149	H	1.797597	0.210366	0.372732
F150	F	2.100660	-0.366970	0.400628
F151	F	1.604504	0.083213	0.396552
F152	F	1.749143	-0.243621	0.401566
H153	H	1.695898	-0.274466	0.836555
F154	F	1.767327	-0.366970	0.400628
F155	F	2.174945	0.095215	0.370258
H156	H	1.182607	-0.069303	0.632054
H157	H	1.949692	0.029766	0.607806
F158	F	1.515061	-0.916796	0.396562
H159	H	2.130930	0.210366	0.372732
H160	H	1.514361	-0.239816	0.376796
F161	F	1.906273	0.206581	0.397484
H162	H	1.648684	-0.407721	0.387133
F163	F	1.675710	0.274257	0.384813
F164	F	1.572939	0.206581	0.397484
F165	F	1.937837	0.083213	0.396552
H166	H	2.064878	-0.273643	1.077392
H167	H	1.863689	-0.348242	0.375986
F168	F	2.025907	0.031536	1.122653
H169	H	2.012867	0.259314	0.384699
F170	F	1.653898	-0.179935	0.649155
H171	H	1.731545	-0.273643	1.077392
F172	F	1.735034	-0.178055	1.197194
H173	H	2.029231	-0.274466	0.836555
H174	H	1.090050	-0.063684	0.740653
F175	F	1.831386	-0.231618	0.375256
F176	F	1.692574	0.031536	1.122653
H177	H	1.825340	0.101958	0.371909
F178	F	1.650385	0.139228	0.947182
H179	H	2.063453	-0.178170	1.164004
H180	H	1.614933	0.125250	0.694413
F181	F	1.611447	0.029652	0.574615
F182	F	1.984220	-0.422664	0.387019
H183	H	1.253868	-0.067651	1.113708
H184	H	1.589725	-0.084702	1.031146
F185	F	1.144457	-0.503612	0.366919
F186	F	1.517158	-0.521433	0.405875
H187	H	2.068368	-0.250363	0.399901
F188	F	1.502092	-0.078981	1.172941
H189	H	1.530355	-0.348242	0.375986
H190	H	1.992145	-0.179822	0.682346
H191	H	1.948266	0.125250	0.694413
H192	H	1.519040	-0.636582	0.403450
F193	F	1.434005	-0.366968	0.400656
H194	H	1.482773	-0.800171	0.395822
F195	F	1.263972	-0.904779	0.370237
H196	H	1.176739	-0.620216	0.367622
H197	H	1.197020	-0.348238	0.376010
F198	F	1.245790	-0.781433	0.371187
H199	H	1.181036	-0.239809	0.376793
H200	H	1.425922	-0.080748	0.658098
H201	H	1.554086	-0.085521	0.790308
H202	H	1.125693	-0.062872	0.981491
