data_functionalizedCrystal
_audit_creation_method	'MofGen! by Chris Wilmer'
_symmetry_space_group_name_H-M	'P1'
_symmetry_Int_Tables_number	1
_symmetry_cell_setting	triclinic
loop_
_symmetry_equiv_pos_as_xyz
  x,y,z
_cell_length_a	6.394989
_cell_length_b	11.026607
_cell_length_c	9.482900
_cell_angle_alpha	78.636152
_cell_angle_beta	80.390180
_cell_angle_gamma	82.458136
loop_
_atom_site_label
_atom_site_type_symbol
_atom_site_fract_x
_atom_site_fract_y
_atom_site_fract_z
O1	O	-0.853991	1.642135	-0.120875
O2	O	-0.753816	1.287297	-0.120879
O3	O	-0.501733	1.469753	-0.120878
O4	O	-1.106074	1.459679	-0.120876
O5	O	-0.553199	1.432696	0.120914
O6	O	-0.805282	1.250240	0.120913
O7	O	-0.905458	1.605078	0.120917
Cu8	Cu	-0.860069	1.424275	0.142993
Cu9	Cu	-0.799204	1.468099	-0.142955
O10	O	-1.157541	1.422622	0.120916
C11	C	-0.761068	1.223275	0.000016
C12	C	-0.705977	1.087719	0.000014
C13	C	-0.858092	1.016240	0.000014
C14	C	-0.801156	0.876135	0.000012
N15	N	-0.902881	1.393461	0.344113
C16	C	-0.448894	1.449233	0.000013
C17	C	-0.210371	1.443147	0.000011
C18	C	-0.898204	1.669100	0.000019
C19	C	-0.953293	1.804658	0.000011
N20	N	-0.756380	1.498923	-0.344074
C21	C	-0.811817	1.459002	0.416312
C22	C	-0.847457	1.433373	0.583730
H23	H	-0.628755	0.833619	-0.000026
H24	H	-0.652016	1.574010	0.593802
O25	O	-1.181656	0.860963	0.000008
H26	H	-1.190544	0.962172	-0.000002
O27	O	-0.477635	1.031393	0.000025
H28	H	-0.374870	1.105063	0.000039
H29	H	-0.707459	1.534084	0.354185
O30	O	-0.985700	1.333908	0.666002
H31	H	-0.992015	1.329394	0.784587
O32	O	-1.041137	1.294007	0.426381
H33	H	-0.945313	1.222610	0.495757
O34	O	-1.086443	1.072553	0.000016
H35	H	-1.095326	1.173761	0.000008
