data_functionalizedCrystal
_audit_creation_method	'MofGen! by Chris Wilmer'
_symmetry_space_group_name_H-M	'P1'
_symmetry_Int_Tables_number	1
_symmetry_cell_setting	triclinic
loop_
_symmetry_equiv_pos_as_xyz
  x,y,z
_cell_length_a	27.732048
_cell_length_b	14.853559
_cell_length_c	13.930277
_cell_angle_alpha	89.997639
_cell_angle_beta	89.998286
_cell_angle_gamma	83.137054
loop_
_atom_site_label
_atom_site_type_symbol
_atom_site_fract_x
_atom_site_fract_y
_atom_site_fract_z
O1	O	0.641429	0.107270	-0.079703
O2	O	0.500712	0.123580	-0.079731
O3	O	0.574831	-0.015866	-0.079716
O4	O	0.567309	0.246716	-0.079719
O5	O	0.574821	-0.015869	0.079946
O6	O	0.500701	0.123577	0.079930
O7	O	0.641419	0.107267	0.079959
Zn8	Zn	0.571058	0.115422	0.105294
Zn9	Zn	0.571072	0.115425	-0.105067
O10	O	0.567299	0.246714	0.079943
C11	C	0.482698	0.123236	0.000096
C12	C	0.429038	0.122206	0.000085
C13	C	0.574486	-0.049451	0.000114
C14	C	0.573467	-0.149519	0.000108
C15	C	0.569149	-0.572622	-0.086925
C16	C	0.569138	-0.572620	0.087145
C17	C	0.570099	-0.478602	0.087146
C18	C	0.570585	-0.431590	0.000110
C19	C	0.570109	-0.478595	-0.086926
C20	C	0.570570	-0.431588	0.174181
C21	C	0.571531	-0.337565	0.174185
C22	C	0.572020	-0.290552	0.087149
C23	C	0.571545	-0.337563	0.000109
C24	C	0.572031	-0.290551	-0.086927
C25	C	0.571559	-0.337561	-0.173968
C26	C	0.570598	-0.431582	-0.173963
C27	C	0.572981	-0.196531	0.087144
C28	C	0.572991	-0.196524	-0.086929
C29	C	0.090577	0.198119	0.000125
C30	C	-0.111101	0.194294	0.000134
O31	O	-0.142033	0.263711	0.000175
N32	N	-0.130610	0.111608	0.000133
C33	C	-0.099696	0.029872	0.000137
O34	O	-0.120917	-0.040545	0.000147
C35	C	0.101981	0.033698	0.000135
C36	C	0.121487	0.116390	0.000126
C37	C	0.110083	0.280804	0.000117
C38	C	0.160500	0.281759	0.000110
C39	C	0.191410	0.200030	0.000111
C40	C	0.171903	0.117345	0.000119
C41	C	0.132893	-0.048037	0.000146
C42	C	0.183315	-0.047073	0.000148
C43	C	0.202821	0.035619	0.000138
C44	C	0.253229	0.036571	0.000112
N45	N	0.272738	0.119257	0.000113
C46	C	0.241828	0.200987	0.000112
C47	C	-0.205579	0.027869	0.000136
C48	C	-0.255998	0.026912	0.000135
C49	C	-0.267399	0.191334	0.000134
C50	C	-0.216980	0.192290	0.000128
C51	C	-0.186070	0.110555	0.000137
C52	C	0.347707	0.202987	0.000096
C53	C	0.398128	0.203935	0.000084
C54	C	0.409525	0.039513	0.000090
C55	C	0.359108	0.038565	0.000097
C56	C	0.328200	0.120309	0.000103
O57	O	0.284190	-0.032809	0.000082
O58	O	0.263059	0.271394	0.000124
C59	C	0.040160	0.197164	0.000133
C60	C	0.020654	0.114479	0.000141
C61	C	0.051564	0.032749	0.000142
C62	C	-0.029765	0.113522	0.000140
C63	C	-0.060675	0.195251	0.000139
C64	C	-0.041166	0.277938	0.000140
C65	C	0.009251	0.278893	0.000132
C66	C	0.032055	-0.049937	0.000141
C67	C	-0.018362	-0.050885	0.000147
C68	C	-0.049272	0.030844	0.000147
C69	C	0.659432	0.107611	0.000129
C70	C	0.713092	0.108642	0.000134
C71	C	0.567644	0.280298	0.000112
C72	C	0.568663	0.380366	0.000111
N73	N	0.571053	0.115419	0.248860
N74	N	0.571081	0.115421	-0.248633
C75	C	0.538250	0.177148	0.701123
C76	C	0.603907	0.053695	0.701106
C77	C	0.603901	0.053692	0.600610
C78	C	0.571070	0.115420	0.550366
C79	C	0.538245	0.177149	0.600618
C80	C	0.636729	-0.008030	0.550351
C81	C	0.636725	-0.008035	0.449850
C82	C	0.603891	0.053689	0.399603
C83	C	0.571064	0.115420	0.449861
C84	C	0.538233	0.177148	0.399617
C85	C	0.505403	0.238876	0.449873
C86	C	0.505411	0.238873	0.550372
C87	C	0.603884	0.053692	0.299105
C88	C	0.538227	0.177148	0.299112
H89	H	0.571951	-0.299271	-0.244832
H90	H	0.176377	0.349095	0.000102
C91	C	0.103892	0.443417	0.000099
C92	C	0.076112	0.370652	0.000108
H93	H	0.082921	0.498888	0.000081
H94	H	0.123790	0.440368	0.055777
H95	H	0.123799	0.440349	-0.055579
H96	H	0.056207	0.373716	0.055790
H97	H	0.056206	0.373702	-0.055575
H98	H	0.511520	0.227404	0.742043
C99	C	0.531769	-0.156894	-0.235303
C100	C	0.573518	-0.144864	-0.182612
H101	H	0.532092	-0.125000	-0.294373
H102	H	0.531137	-0.219615	-0.247738
H103	H	0.503764	-0.134210	-0.199536
H104	H	0.601523	-0.167554	-0.218376
H105	H	0.574154	-0.082130	-0.170180
C106	C	0.476249	0.293687	0.295815
C107	C	0.469316	0.306725	0.394637
H108	H	0.453968	0.335570	0.261714
H109	H	0.508508	0.303068	0.279350
H110	H	0.470963	0.233581	0.279359
H111	H	0.474606	0.366829	0.411094
H112	H	0.437049	0.297351	0.411108
C113	C	-0.306072	-0.069564	-0.081949
C114	C	-0.277435	-0.063986	0.000129
H115	H	-0.319302	-0.125686	-0.081949
H116	H	-0.331699	-0.021038	-0.081942
H117	H	-0.286635	-0.065766	-0.137619
H118	H	-0.296873	-0.067777	0.055800
H119	H	-0.251805	-0.112525	0.000132
C120	C	-0.199385	-0.134751	0.000128
C121	C	-0.171607	-0.061983	0.000134
H122	H	-0.178413	-0.190221	0.000117
H123	H	-0.219286	-0.131703	0.055802
H124	H	-0.219289	-0.131686	-0.055553
H125	H	-0.151706	-0.065045	0.055819
H126	H	-0.151698	-0.065033	-0.055546
C127	C	0.668797	-0.068347	0.690998
C128	C	0.639989	-0.014161	0.756331
H129	H	0.691073	-0.110240	0.725096
H130	H	0.648652	-0.100507	0.651806
H131	H	0.686208	-0.031039	0.651793
H132	H	0.622574	-0.051468	0.795531
H133	H	0.660136	0.018001	0.795539
H134	H	0.630615	0.003437	0.258191
C135	C	0.570668	-0.422130	-0.346030
C136	C	0.570048	-0.483248	-0.269633
H137	H	0.570322	-0.454029	-0.405090
H138	H	0.542889	-0.378172	-0.342382
H139	H	0.599218	-0.392751	-0.342436
H140	H	0.541496	-0.512623	-0.273222
H141	H	0.597830	-0.527223	-0.273283
H142	H	0.663456	-0.058297	0.408937
C143	C	-0.273618	0.353963	0.000142
C144	C	-0.301381	0.281175	0.000137
H145	H	-0.294599	0.409422	0.000143
H146	H	-0.253717	0.350914	0.055814
H147	H	-0.253715	0.350923	-0.055541
H148	H	-0.321282	0.284211	0.055824
H149	H	-0.321291	0.284225	-0.055541
H150	H	-0.201102	0.259625	0.000126
H151	H	0.117021	-0.115373	0.000154
C152	C	0.569123	-0.575724	0.251463
C153	C	0.570053	-0.483268	0.269845
H154	H	0.568813	-0.607632	0.310526
H155	H	0.540801	-0.583869	0.215723
H156	H	0.597131	-0.598374	0.215686
H157	H	0.542044	-0.460616	0.305617
H158	H	0.598378	-0.475117	0.305601
H159	H	0.568767	-0.610902	-0.157791
C160	C	0.189517	-0.209695	0.000151
C161	C	0.217290	-0.136921	0.000147
H162	H	0.210492	-0.265162	0.000141
H163	H	0.169618	-0.206648	0.055829
H164	H	0.169611	-0.206637	-0.055527
H165	H	0.237194	-0.139976	0.055829
H166	H	0.237198	-0.139970	-0.055537
C167	C	0.571432	-0.347019	0.346250
C168	C	0.572059	-0.285898	0.269858
H169	H	0.571763	-0.315120	0.405313
H170	H	0.542892	-0.376412	0.342631
H171	H	0.599222	-0.390969	0.342621
H172	H	0.544267	-0.241952	0.273483
H173	H	0.600602	-0.256490	0.273479
H174	H	0.511490	0.227411	0.258209
H175	H	0.663461	-0.058282	0.591264
C176	C	0.095368	-0.144272	0.082204
C177	C	0.066027	-0.139781	0.000135
H178	H	0.116338	-0.199745	0.082196
H179	H	0.114205	-0.094903	0.082196
H180	H	0.075460	-0.141228	0.137880
H181	H	0.085935	-0.142818	-0.055542
H182	H	0.047189	-0.189164	0.000134
H183	H	0.343226	-0.028770	0.000090
C184	C	0.448219	0.300406	0.082134
C185	C	0.419572	0.294832	0.000068
H186	H	0.461460	0.356517	0.082117
H187	H	0.428789	0.296625	0.137806
H188	H	0.473843	0.251862	0.082123
H189	H	0.393947	0.343372	0.000082
H190	H	0.439004	0.298621	-0.055619
H191	H	0.478683	0.289130	0.591296
C192	C	-0.090582	-0.125382	0.000157
C193	C	-0.039800	-0.141788	0.000151
H194	H	-0.103815	-0.181501	0.000158
H195	H	-0.101185	-0.091767	0.055830
H196	H	-0.101187	-0.091763	-0.055526
H197	H	-0.029195	-0.175402	0.055838
H198	H	-0.029193	-0.175418	-0.055528
H199	H	0.568739	-0.610902	0.158005
H200	H	0.573354	-0.158256	0.158011
H201	H	0.322547	0.269551	0.000103
H202	H	0.434701	-0.027029	0.000087
H203	H	0.025127	0.346229	0.000126
H204	H	-0.066342	0.344484	0.000135
