data_functionalizedCrystal
_audit_creation_method	'MofGen! by Chris Wilmer'
_symmetry_space_group_name_H-M	'P1'
_symmetry_Int_Tables_number	1
_symmetry_cell_setting	triclinic
loop_
_symmetry_equiv_pos_as_xyz
  x,y,z
_cell_length_a	17.077402
_cell_length_b	18.050590
_cell_length_c	17.077396
_cell_angle_alpha	89.998337
_cell_angle_beta	89.972992
_cell_angle_gamma	90.013561
loop_
_atom_site_label
_atom_site_type_symbol
_atom_site_fract_x
_atom_site_fract_y
_atom_site_fract_z
Zn1	Zn	-0.312729	1.135330	-0.443529
Zn2	Zn	0.187271	1.635330	0.056471
Zn3	Zn	-0.444005	1.135244	-0.312268
Zn4	Zn	0.055995	1.635244	0.187732
Zn5	Zn	-0.312733	1.011144	-0.312313
Zn6	Zn	0.187267	1.511144	0.187687
Zn7	Zn	-0.443932	1.011105	-0.443527
Zn8	Zn	0.056068	1.511105	0.056473
O9	O	-0.378350	1.073206	-0.377909
O10	O	0.121650	1.573206	0.122091
O11	O	-0.330172	1.239243	-0.426099
O12	O	0.169828	1.739243	0.073901
O13	O	-0.426625	1.118762	-0.202427
O14	O	0.073375	1.618762	0.297573
O15	O	-0.202885	1.027670	-0.329738
O16	O	0.297115	1.527670	0.170262
O17	O	-0.426621	1.239180	-0.329662
O18	O	0.073379	1.739180	0.170338
O19	O	-0.202882	1.118909	-0.426142
O20	O	0.297118	1.618909	0.073858
O21	O	-0.330179	1.027586	-0.202460
O22	O	0.169821	1.527586	0.297540
O23	O	-0.330107	0.907214	-0.329736
O24	O	0.169893	1.407214	0.170264
O25	O	-0.426495	1.027604	-0.553375
O26	O	0.073505	1.527604	-0.053375
O27	O	-0.426499	0.907186	-0.426139
O28	O	0.073501	1.407186	0.073861
O29	O	-0.330100	1.118871	-0.553376
O30	O	0.169900	1.618871	-0.053376
O31	O	-0.553843	1.118724	-0.329661
O32	O	-0.053843	1.618724	0.170339
O33	O	-0.553788	1.027520	-0.426096
O34	O	-0.053788	1.527520	0.073904
C35	C	-0.378296	0.880254	-0.377943
C36	C	0.121704	1.380254	0.122057
C37	C	-0.378292	0.797708	-0.377976
C38	C	0.121708	1.297708	0.122024
C39	C	-0.582298	1.073129	-0.377891
C40	C	-0.082298	1.573129	0.122109
C41	C	-0.669547	1.073164	-0.377909
C42	C	-0.169547	1.573164	0.122091
C43	C	-0.430860	0.598263	-0.430276
C44	C	0.069140	1.098263	0.069724
C45	C	-0.359283	0.548867	-0.449589
C46	C	0.140717	1.048867	0.050411
C47	C	-0.378336	0.646578	-0.377938
C48	C	0.121664	1.146578	0.122062
C49	C	-0.449953	0.548893	-0.358624
C50	C	0.050047	1.048893	0.141376
C51	C	-0.378385	0.500592	-0.377902
C52	C	0.121615	1.000592	0.122098
C53	C	-0.306722	0.598268	-0.397288
C54	C	0.193278	1.098268	0.102712
C55	C	-0.397440	0.598298	-0.306290
C56	C	0.102560	1.098298	0.193710
C57	C	-0.325814	0.548924	-0.325576
C58	C	0.174186	1.048924	0.174424
C59	C	-0.378309	0.730676	-0.377960
C60	C	0.121691	1.230676	0.122040
C61	C	-0.378403	0.416496	-0.377880
C62	C	0.121597	0.916496	0.122120
C63	C	-1.045364	1.120849	-0.327786
C64	C	-0.545364	1.620849	0.172214
C65	C	-0.963383	1.120811	-0.327772
C66	C	-0.463383	1.620811	0.172228
C67	C	-0.922396	1.073272	-0.377937
C68	C	-0.422396	1.573272	0.122063
C69	C	-0.963394	1.025762	-0.428113
C70	C	-0.463394	1.525762	0.071887
C71	C	-1.045373	1.025797	-0.428122
C72	C	-0.545373	1.525797	0.071878
C73	C	-0.792524	1.025694	-0.428091
C74	C	-0.292524	1.525694	0.071909
C75	C	-0.710539	1.025660	-0.428083
C76	C	-0.210539	1.525660	0.071917
C77	C	-0.710534	1.120708	-0.327741
C78	C	-0.210534	1.620708	0.172259
C79	C	-0.792513	1.120743	-0.327751
C80	C	-0.292513	1.620743	0.172249
C81	C	-0.833505	1.073234	-0.377928
C82	C	-0.333505	1.573234	0.122072
C83	C	-0.173605	1.073303	-0.377945
C84	C	0.326395	1.573303	0.122055
C85	C	-0.086356	1.073345	-0.377960
C86	C	0.413644	1.573345	0.122040
C87	C	-0.378289	1.073243	-0.582654
C88	C	0.121711	1.573243	-0.082654
C89	C	-0.378263	1.073259	-0.669903
C90	C	0.121737	1.573259	-0.169903
C91	C	-0.378404	1.266911	-0.377876
C92	C	0.121596	1.766911	0.122124
C93	C	-0.378427	1.349457	-0.377861
C94	C	0.121573	1.849457	0.122139
C95	C	-0.328038	1.025798	-0.710910
C96	C	0.171962	1.525798	-0.210910
C97	C	-0.328020	1.025810	-0.792890
C98	C	0.171980	1.525810	-0.292890
C99	C	-0.378224	1.073288	-0.833863
C100	C	0.121776	1.573288	-0.333863
C101	C	-0.428455	1.120750	-0.792851
C102	C	0.071545	1.620750	-0.292851
C103	C	-0.428476	1.120734	-0.710872
C104	C	0.071524	1.620734	-0.210872
C105	C	-0.428406	1.120782	-0.963721
C106	C	0.071594	1.620782	-0.463721
C107	C	-0.428384	1.120800	-1.045705
C108	C	0.071616	1.620800	-0.545705
C109	C	-0.327950	1.025859	-1.045740
C110	C	0.172050	1.525859	-0.545740
C111	C	-0.327971	1.025843	-0.963761
C112	C	0.172029	1.525843	-0.463761
C113	C	-0.378201	1.073307	-0.922754
C114	C	0.121799	1.573307	-0.422754
C115	C	-0.378354	1.073211	-0.173961
C116	C	0.121646	1.573211	0.326039
C117	C	-0.378158	1.073339	-0.086712
C118	C	0.121842	1.573339	0.413288
H119	H	-0.475199	0.619930	-0.474586
H120	H	0.024801	1.119930	0.025414
H121	H	-0.287087	0.987186	-0.930403
H122	H	0.212913	1.487186	-0.430403
H123	H	-0.343141	0.527154	-0.510164
H124	H	0.156859	1.027154	-0.010164
H125	H	-0.930008	1.159492	-0.286917
H126	H	-0.430008	1.659492	0.213083
H127	H	-0.469301	1.159439	-0.930336
H128	H	0.030699	1.659439	-0.430336
F129	F	-0.529090	0.520543	-0.337290
F130	F	-0.029090	1.020543	0.162710
F131	F	-0.227561	0.626495	-0.418711
F132	F	0.272439	1.126495	0.081289
F133	F	-0.836134	1.171344	-0.274366
F134	F	-0.336134	1.671344	0.225634
H135	H	-0.281366	0.527396	-0.281301
H136	H	0.218634	1.027396	0.218699
F137	F	-0.666919	0.975061	-0.481471
F138	F	-0.166919	1.475061	0.018529
F139	F	-0.666907	1.171270	-0.274338
F140	F	-0.166907	1.671270	0.225662
F141	F	-1.088978	1.171451	-0.274397
F142	F	-0.588978	1.671451	0.225603
H143	H	-1.078747	0.987118	-0.468983
H144	H	-0.578747	1.487118	0.031017
H145	H	-0.287125	0.987160	-0.826274
H146	H	0.212875	1.487160	-0.326274
H147	H	-0.413603	0.620028	-0.245732
H148	H	0.086397	1.120028	0.254268
F149	F	-0.836148	0.975124	-0.481490
F150	F	-0.336148	1.475124	0.018510
F151	F	-0.919770	0.975166	-0.481501
F152	F	-0.419770	1.475166	0.018499
H153	H	-0.287050	0.987213	-1.079131
H154	H	0.212950	1.487213	-0.579131
F155	F	-0.274599	0.975270	-0.667311
F156	F	0.225401	1.475270	-0.167311
F157	F	-0.481812	1.171334	-1.089310
F158	F	0.018188	1.671334	-0.589310
F159	F	-0.481890	1.171275	-0.836459
F160	F	0.018110	1.671275	-0.336459
F161	F	-0.481935	1.171245	-0.667230
F162	F	0.018065	1.671245	-0.167230
