data_functionalizedCrystal
_audit_creation_method	'MofGen! by Chris Wilmer'
_symmetry_space_group_name_H-M	'P1'
_symmetry_Int_Tables_number	1
_symmetry_cell_setting	triclinic
loop_
_symmetry_equiv_pos_as_xyz
  x,y,z
_cell_length_a	15.298708
_cell_length_b	29.839131
_cell_length_c	15.296720
_cell_angle_alpha	80.368922
_cell_angle_beta	72.673117
_cell_angle_gamma	99.731160
loop_
_atom_site_label
_atom_site_type_symbol
_atom_site_fract_x
_atom_site_fract_y
_atom_site_fract_z
Zn1	Zn	1.330585	-0.088169	0.280142
Zn2	Zn	1.357380	-0.147588	0.124638
Zn3	Zn	1.202000	-0.088198	0.151523
Zn4	Zn	1.175012	-0.179006	0.306936
O5	O	1.266244	-0.125740	0.215810
O6	O	1.464274	-0.082890	0.237049
O7	O	1.359278	-0.126574	-0.001916
O8	O	1.219138	-0.025323	0.168622
O9	O	1.483960	-0.126545	0.122801
O10	O	1.313608	-0.025302	0.263118
O11	O	1.245121	-0.082940	0.017836
O12	O	1.068285	-0.113405	0.194603
O13	O	1.173140	-0.180093	0.433502
O14	O	1.048457	-0.180121	0.308785
O15	O	1.287438	-0.113355	0.413816
O16	O	1.333108	-0.214627	0.148783
O17	O	1.199122	-0.237710	0.282716
C18	C	1.024629	-0.150176	0.257520
C19	C	0.921261	-0.160642	0.275385
C20	C	0.671009	-0.051070	0.088348
C21	C	0.768128	-0.041233	0.071564
C22	C	0.806416	-0.071085	0.122517
C23	C	0.747575	-0.110774	0.190259
C24	C	0.650445	-0.120610	0.207051
C25	C	0.785853	-0.140625	0.241220
C26	C	0.727012	-0.180314	0.308962
C27	C	0.629892	-0.190148	0.325750
C28	C	0.591604	-0.160297	0.274796
C29	C	0.882982	-0.130789	0.224428
C30	C	0.862419	-0.200329	0.343131
C31	C	0.765300	-0.210166	0.359915
C32	C	1.266116	-0.242469	0.215756
C33	C	1.266141	-0.292401	0.215749
C34	C	1.315407	-0.602005	0.265101
C35	C	1.315498	-0.789673	0.265139
O36	O	1.357258	-0.813912	0.307065
N37	N	1.266384	-0.813177	0.215886
C38	C	1.217239	-0.789762	0.166624
O39	O	1.175458	-0.814061	0.124740
C40	C	1.217142	-0.602095	0.166592
C41	C	1.266268	-0.578592	0.215841
C42	C	1.364528	-0.578502	0.314346
C43	C	1.364508	-0.531587	0.314332
C44	C	1.315369	-0.508174	0.265072
C45	C	1.266249	-0.531677	0.215826
C46	C	1.167992	-0.578682	0.117336
C47	C	1.167970	-0.531762	0.117334
C48	C	1.217096	-0.508259	0.166583
C49	C	1.217090	-0.461350	0.166552
N50	N	1.266204	-0.437846	0.215805
C51	C	1.315344	-0.461258	0.265065
C52	C	1.217294	-0.888289	0.166643
C53	C	1.217319	-0.935205	0.166649
C54	C	1.315578	-0.935114	0.265166
C55	C	1.315558	-0.888196	0.265154
C56	C	1.266408	-0.864785	0.215896
C57	C	1.315300	-0.362733	0.265031
C58	C	1.315280	-0.315813	0.265009
C59	C	1.217018	-0.315910	0.166497
C60	C	1.217042	-0.362825	0.166514
C61	C	1.266185	-0.386236	0.215788
O62	O	1.175344	-0.437083	0.124656
O63	O	1.357101	-0.436954	0.306961
C64	C	1.315426	-0.648920	0.265115
C65	C	1.266306	-0.672422	0.215869
C66	C	1.217166	-0.649010	0.166609
C67	C	1.266331	-0.719338	0.215876
C68	C	1.315471	-0.742751	0.265136
C69	C	1.364585	-0.719247	0.314389
C70	C	1.364566	-0.672332	0.314375
C71	C	1.168052	-0.672514	0.117356
C72	C	1.168076	-0.719429	0.117373
C73	C	1.217216	-0.742841	0.166633
C74	C	1.508803	-0.101210	0.173937
C75	C	1.612167	-0.090756	0.156094
C76	C	1.224290	-0.150225	0.458341
C77	C	1.206411	-0.160659	0.561693
C78	C	1.266395	-0.008555	0.215880
C79	C	1.266459	0.041382	0.215910
C80	C	1.308089	-0.101313	-0.025787
C81	C	1.326148	-0.090735	-0.129170
C82	C	1.394059	-0.051085	0.812028
C83	C	1.410863	-0.041282	0.714922
C84	C	1.359751	-0.071126	0.676610
C85	C	1.291833	-0.110774	0.735413
C86	C	1.275033	-0.120580	0.832528
C87	C	1.240725	-0.140620	0.697110
C88	C	1.172807	-0.180268	0.755913
C89	C	1.156010	-0.190072	0.853018
C90	C	1.207122	-0.160229	0.891330
C91	C	1.257525	-0.130814	0.599995
C92	C	1.138499	-0.200308	0.620495
C93	C	1.121696	-0.210111	0.717601
H94	H	0.639824	-0.026767	0.046874
H95	H	1.100714	-0.222359	0.900892
H96	H	1.177012	-0.296840	0.126386
H97	H	1.435672	-0.026794	0.843230
H98	H	1.193444	-0.168208	0.970400
Cl99	Cl	1.426260	-0.502049	0.376258
Cl100	Cl	1.036318	-0.259953	0.791535
H101	H	1.312824	-0.098532	0.552127
H102	H	1.466164	-0.009002	0.667050
H103	H	1.355287	-0.296679	0.305113
Cl104	Cl	0.956942	-0.080896	0.139269
Cl105	Cl	0.842091	0.008662	-0.013588
Cl106	Cl	0.928511	-0.058718	0.101414
Cl107	Cl	0.469505	-0.172659	0.295900
H108	H	1.404542	-0.597560	0.354465
Cl109	Cl	1.377085	-0.392156	0.326973
Cl110	Cl	1.377315	-0.858655	0.327071
H111	H	0.581984	-0.222463	0.380917
H112	H	0.717378	-0.242481	0.415072
Cl113	Cl	0.910543	-0.237856	0.407199
Cl114	Cl	1.074246	-0.237829	0.572339
H115	H	1.127944	-0.512704	0.077225
H116	H	1.177049	-0.381960	0.126403
H117	H	1.404568	-0.653199	0.354478
Cl118	Cl	1.377352	-0.964555	0.327094
Cl119	Cl	1.155574	-0.964743	0.104719
Cl120	Cl	1.155497	-0.858866	0.104716
H121	H	1.127989	-0.597809	0.077232
H122	H	1.404600	-0.738317	0.354495
Cl123	Cl	1.106316	-0.748969	0.055449
Cl124	Cl	1.106265	-0.643089	0.055427
H125	H	1.373437	-0.063142	0.597541
