data_functionalizedCrystal
_audit_creation_method	'MofGen! by Chris Wilmer'
_symmetry_space_group_name_H-M	'P1'
_symmetry_Int_Tables_number	1
_symmetry_cell_setting	triclinic
loop_
_symmetry_equiv_pos_as_xyz
  x,y,z
_cell_length_a	9.065218
_cell_length_b	10.654550
_cell_length_c	9.730223
_cell_angle_alpha	89.998978
_cell_angle_beta	89.986343
_cell_angle_gamma	84.750441
loop_
_atom_site_label
_atom_site_type_symbol
_atom_site_fract_x
_atom_site_fract_y
_atom_site_fract_z
O1	O	-0.207238	-1.668661	0.114212
O2	O	-0.226982	-1.303261	0.114240
O3	O	-0.002427	-1.493514	0.114191
O4	O	-0.431794	-1.478409	0.114262
O5	O	-0.002413	-1.493499	-0.114389
O6	O	-0.226969	-1.303246	-0.114340
O7	O	-0.207225	-1.668646	-0.114367
Zn8	Zn	-0.217095	-1.485943	-0.150646
Zn9	Zn	-0.217113	-1.485964	0.150518
O10	O	-0.431780	-1.478393	-0.114318
C11	C	0.052559	-1.492054	-0.000105
C12	C	0.216378	-1.487714	-0.000123
C13	C	-0.225526	-1.256450	-0.000047
C14	C	-0.221188	-1.116989	-0.000038
C15	C	-0.208681	-1.715457	-0.000077
C16	C	-0.213019	-1.854918	-0.000077
C17	C	0.513234	-1.479853	-0.000057
C18	C	0.349415	-1.484193	-0.000143
N19	N	-0.217081	-1.485939	-0.356182
C20	C	-0.353403	-1.038027	-0.000020
C21	C	-0.349319	-0.906990	-0.000045
C22	C	-0.080794	-0.933890	-0.000099
C23	C	-0.084879	-1.064924	-0.000085
C24	C	-0.126786	-1.408784	-0.572055
C25	C	-0.126765	-1.408767	-0.428172
C26	C	-0.307413	-1.563142	-0.428083
C27	C	-0.307425	-1.563165	-0.571963
N28	N	-0.217114	-1.485978	0.356055
H29	H	-0.464395	-1.080414	0.000008
H30	H	0.030185	-0.891482	-0.000146
H31	H	-0.456982	-0.842704	-0.000033
H32	H	0.022793	-1.129219	-0.000103
H33	H	-0.053248	-1.345934	-0.630658
H34	H	-0.053210	-1.345909	-0.369645
H35	H	-0.380943	-1.625983	-0.369457
H36	H	-0.380982	-1.626032	-0.630498
