data_functionalizedCrystal
_audit_creation_method	'MofGen! by Chris Wilmer'
_symmetry_space_group_name_H-M	'P1'
_symmetry_Int_Tables_number	1
_symmetry_cell_setting	triclinic
loop_
_symmetry_equiv_pos_as_xyz
  x,y,z
_cell_length_a	19.377372
_cell_length_b	14.560438
_cell_length_c	14.560438
_cell_angle_alpha	60.005799
_cell_angle_beta	89.999405
_cell_angle_gamma	72.113596
loop_
_atom_site_label
_atom_site_type_symbol
_atom_site_fract_x
_atom_site_fract_y
_atom_site_fract_z
Zr1	Zr	0.580595	1.278623	-0.257071
O2	O	0.484372	1.424894	-0.381037
O3	O	0.610090	1.100927	-0.219087
O4	O	0.610095	1.292518	-0.410664
O5	O	0.484367	1.233301	-0.038319
O6	O	0.709271	1.339224	-0.434014
O7	O	0.484367	1.233304	-0.189460
O8	O	0.709262	0.996504	-0.091317
O9	O	0.484376	1.576021	-0.381016
O10	O	0.696687	1.220511	-0.220290
O11	O	0.622673	1.185653	-0.090070
O12	O	0.622679	1.411226	-0.315628
O13	O	0.548665	1.376367	-0.185408
Zr14	Zr	0.738770	1.353110	-0.053258
Zr15	Zr	0.738770	1.353114	-0.294310
Zr16	Zr	0.580596	1.278619	-0.016019
Zr17	Zr	0.580602	1.519653	-0.257037
Zr18	Zr	0.738764	1.112080	-0.053292
O19	O	0.709276	1.530806	-0.091242
O20	O	0.709276	1.530811	-0.433987
O21	O	0.484372	1.424888	-0.038292
O22	O	0.834993	1.206839	0.070708
O23	O	0.834993	1.206845	-0.272037
O24	O	0.610090	1.100922	0.123658
O25	O	0.834998	1.398432	-0.272010
O26	O	0.709271	1.339215	0.100336
O27	O	0.610095	1.292509	0.123685
O28	O	0.834998	1.398429	-0.120869
O29	O	0.610104	1.635232	-0.410616
O30	O	0.709262	0.996501	0.100287
O31	O	0.834989	1.055712	0.070687
O32	O	0.834989	1.055715	-0.120917
O33	O	0.484376	1.576018	-0.189411
O34	O	0.610104	1.635229	-0.219012
O35	O	0.696687	1.220507	0.005299
O36	O	0.770701	1.255366	-0.124921
O37	O	0.696693	1.446080	-0.220259
O38	O	0.622679	1.411222	-0.090039
C39	C	0.659675	1.014374	-0.155207
C40	C	0.659672	0.912050	-0.155221
C41	C	0.605040	0.921449	-0.225580
C42	C	0.605051	0.825266	-0.225527
C43	C	0.714331	0.710287	-0.084745
C44	C	0.714322	0.806471	-0.084805
C45	C	0.541946	0.987830	-0.306857
C46	C	0.541958	0.891646	-0.306803
C47	C	0.461831	1.222689	-0.108583
C48	C	0.394682	1.191065	-0.092774
C49	C	-0.019316	1.584803	-0.289607
C50	C	-0.082402	1.555061	-0.274738
C51	C	-0.005134	1.355970	-0.175213
C52	C	0.057960	1.385695	-0.190069
C53	C	0.050863	1.500113	-0.247269
C54	C	0.128139	1.301005	-0.147731
C55	C	0.191228	1.330728	-0.162591
C56	C	0.184138	1.445140	-0.219790
C57	C	0.113952	1.529836	-0.262129
C58	C	0.135235	1.186587	-0.090538
C59	C	0.205414	1.101897	-0.048200
C60	C	0.268504	1.131620	-0.063053
C61	C	0.261414	1.246032	-0.120252
C62	C	0.338690	1.046924	-0.020714
C63	C	0.401779	1.076647	-0.035575
C64	C	0.324503	1.275755	-0.135113
C65	C	0.857535	1.409044	-0.201745
C66	C	0.924684	1.440668	-0.217555
C67	C	0.659683	1.315872	-0.456684
C68	C	0.659682	1.315873	-0.559017
C69	C	0.659691	1.617359	-0.155122
C70	C	0.659693	1.719683	-0.155108
C71	C	0.621048	1.415421	-0.656858
C72	C	0.621050	1.415415	-0.753007
C73	C	0.698322	1.216305	-0.653461
C74	C	0.698324	1.216314	-0.557315
C75	C	0.576433	1.530374	-0.714330
C76	C	0.576435	1.530369	-0.810479
C77	C	0.659683	1.315861	0.146355
C78	C	0.659683	1.315860	0.248688
C79	C	0.857527	1.107552	-0.201788
C80	C	0.924673	1.036851	-0.217611
C81	C	0.659675	1.014369	0.146313
C82	C	0.659672	0.912043	0.248631
C83	C	0.857527	1.107546	0.099732
C84	C	0.924673	1.036845	0.186241
C85	C	0.461839	1.524187	-0.410060
C86	C	0.394692	1.594888	-0.496570
C87	C	0.461839	1.524181	-0.108541
C88	C	0.394692	1.594882	-0.092717
C89	C	0.659690	1.617364	-0.456642
C90	C	0.659693	1.719690	-0.558960
C91	C	0.917571	0.985456	-0.274834
C92	C	0.980656	0.919036	-0.289723
C93	C	1.050843	0.904006	-0.247382
C94	C	1.057943	0.955411	-0.190157
C95	C	0.994859	1.021836	-0.175275
C96	C	0.994847	1.021841	0.158892
C97	C	1.057944	0.955425	0.240166
C98	C	1.050866	0.904008	0.348789
C99	C	0.980685	0.919017	0.376137
C100	C	0.917589	0.985438	0.294864
C101	C	0.324518	1.609904	-0.469220
C102	C	0.261421	1.676349	-0.550495
C103	C	0.268499	1.727772	-0.659117
C104	C	0.338680	1.712756	-0.686466
C105	C	0.401776	1.646318	-0.605193
C106	C	0.401794	1.646287	-0.035505
C107	C	0.338709	1.712733	-0.020642
C108	C	0.268523	1.727766	-0.062987
C109	C	0.261422	1.676358	-0.120207
C110	C	0.324507	1.609919	-0.135075
C111	C	0.698307	0.882160	0.346482
C112	C	0.698298	0.786017	0.442619
C113	C	0.621020	0.749644	0.343040
C114	C	0.621025	0.845790	0.246907
C115	C	0.742925	0.903156	0.403974
C116	C	0.742917	0.807013	0.500110
H117	H	0.547376	1.053364	-0.390267
H118	H	0.458923	1.007684	-0.001080
Cl119	Cl	0.315585	1.419598	-0.207008
Cl120	Cl	0.621868	1.616925	-0.899808
H121	H	0.601248	1.594272	-0.720187
Cl122	Cl	0.834119	0.710999	0.559235
H123	H	0.860453	0.997641	0.317148
Cl124	Cl	0.831112	0.888914	0.369718
H125	H	0.491767	1.023872	-0.278247
H126	H	0.458938	1.634053	-0.001013
Cl127	Cl	0.783030	0.577555	0.003774
Cl128	Cl	0.558972	0.899604	-0.428851
H129	H	1.115097	0.943163	-0.155687
H130	H	-0.139547	1.624034	-0.309222
Cl131	Cl	0.315601	1.545268	-0.332673
H132	H	0.083861	1.162391	-0.078449
Cl133	Cl	0.485233	1.568002	-0.869585
H134	H	0.519313	1.545666	-0.692148
H135	H	0.204268	1.688609	-0.154680
Cl136	Cl	0.347566	1.777405	-0.823027
Cl137	Cl	0.783012	0.794652	0.003639
Cl138	Cl	1.130195	0.820506	0.450950
Cl139	Cl	0.347652	1.777344	0.051299
H140	H	0.488077	0.877086	-0.285808
Cl141	Cl	0.173203	1.695205	-0.516089
H142	H	0.217116	1.781867	-0.725285
Cl143	Cl	0.971799	0.854367	0.512698
Cl144	Cl	0.263450	1.482509	-0.238478
H145	H	0.458913	1.634094	-0.627475
Cl146	Cl	0.189223	1.811291	-0.044283
H147	H	0.108171	1.623007	-0.308674
Cl148	Cl	0.572440	0.883368	0.123897
Cl149	Cl	0.214327	0.958063	0.023704
Cl150	Cl	1.146163	0.936566	0.205761
Cl151	Cl	0.315566	1.545292	-0.206996
H152	H	0.729783	1.135248	-0.652089
H153	H	1.000624	1.063698	0.070451
H154	H	0.589554	0.695690	0.341649
Cl155	Cl	0.704620	1.024079	0.413032
H156	H	1.102204	0.849915	-0.259506
H157	H	0.713485	0.829279	0.557968
H158	H	-0.025097	1.677973	-0.336152
Cl159	Cl	0.347601	0.903091	0.051177
Cl160	Cl	0.829345	1.004339	-0.328080
Cl161	Cl	0.003779	1.212136	-0.103310
H162	H	0.729792	1.135257	-0.477654
H163	H	1.000651	1.063674	-0.128674
Cl164	Cl	0.971713	0.854420	-0.361659
