data_functionalizedCrystal
_audit_creation_method	'MofGen! by Chris Wilmer'
_symmetry_space_group_name_H-M	'P1'
_symmetry_Int_Tables_number	1
_symmetry_cell_setting	triclinic
loop_
_symmetry_equiv_pos_as_xyz
  x,y,z
_cell_length_a	12.837932
_cell_length_b	12.837942
_cell_length_c	17.766277
_cell_angle_alpha	89.994736
_cell_angle_beta	89.991095
_cell_angle_gamma	94.829322
loop_
_atom_site_label
_atom_site_type_symbol
_atom_site_fract_x
_atom_site_fract_y
_atom_site_fract_z
O1	O	1.402345	0.272152	-0.062595
O2	O	1.902345	0.772152	0.437405
O3	O	1.099211	0.258707	-0.062597
O4	O	1.599211	0.758707	0.437403
O5	O	1.244056	0.113863	-0.062591
O6	O	1.744056	0.613863	0.437409
O7	O	1.257500	0.416996	-0.062601
O8	O	1.757500	0.916996	0.437399
O9	O	1.244027	0.113852	0.062597
O10	O	1.744027	0.613852	0.562597
O11	O	1.099182	0.258696	0.062592
O12	O	1.599182	0.758696	0.562592
O13	O	1.402316	0.272141	0.062593
O14	O	1.902316	0.772141	0.562593
Cu15	Cu	1.250746	0.265417	0.074023
Cu16	Cu	1.750746	0.765417	0.574023
Cu17	Cu	1.250781	0.265430	-0.074027
Cu18	Cu	1.750781	0.765430	0.425973
O19	O	1.257471	0.416985	0.062588
O20	O	1.757471	0.916985	0.562588
C21	C	1.060127	0.254160	-0.000002
C22	C	1.560127	0.754160	0.499998
C23	C	0.943712	0.240614	-0.000003
C24	C	1.443712	0.740614	0.499997
C25	C	1.239501	0.074788	0.000002
C26	C	1.739501	0.574788	0.500002
C27	C	1.225956	-0.041627	0.000001
C28	C	1.725956	0.458373	0.500001
C29	C	0.782686	0.127402	0.000002
C30	C	1.282686	0.627402	0.500002
C31	C	0.892069	0.140122	0.000001
C32	C	1.392069	0.640122	0.500001
C33	C	0.885965	0.328393	-0.000004
C34	C	1.385965	0.828393	0.499996
C35	C	0.776582	0.315673	-0.000003
C36	C	1.276582	0.815673	0.499997
C37	C	0.724947	0.215174	-0.000001
C38	C	1.224947	0.715174	0.499999
C39	C	0.615562	0.202455	-0.000006
C40	C	1.115562	0.702455	0.499994
C41	C	0.609460	0.390725	-0.000006
C42	C	1.109460	0.890725	0.499994
C43	C	0.718843	0.403445	-0.000007
C44	C	1.218843	0.903445	0.499993
C45	C	1.388786	-0.266500	-0.000014
C46	C	1.888786	0.233500	0.499986
C47	C	1.376064	-0.375883	-0.000015
C48	C	1.876064	0.124117	0.499985
C49	C	1.187793	-0.369777	-0.000008
C50	C	1.687793	0.130223	0.499992
C51	C	1.200514	-0.260394	-0.000007
C52	C	1.700514	0.239606	0.499993
C53	C	1.301014	-0.208760	-0.000009
C54	C	1.801014	0.291240	0.499991
C55	C	1.313734	-0.099375	-0.000002
C56	C	1.813734	0.400625	0.499998
C57	C	1.125464	-0.093271	-0.000000
C58	C	1.625464	0.406729	0.500000
C59	C	1.112742	-0.202654	-0.000002
C60	C	1.612742	0.297346	0.499998
C61	C	1.441400	0.276688	-0.000003
C62	C	1.941400	0.776688	0.499997
C63	C	1.557815	0.290233	-0.000007
C64	C	2.057815	0.790233	0.499993
C65	C	1.262027	0.456060	-0.000008
C66	C	1.762027	0.956060	0.499992
C67	C	1.275571	0.572475	-0.000011
C68	C	1.775571	1.072475	0.499989
N69	N	1.250730	0.265408	0.178154
N70	N	1.750730	0.765408	0.678154
N71	N	1.250805	0.265432	-0.178157
N72	N	1.750805	0.765432	0.321843
C73	C	1.314894	0.201309	0.217543
C74	C	1.814894	0.701309	0.717543
C75	C	1.314899	0.201304	0.296345
C76	C	1.814899	0.701304	0.796345
C77	C	1.250753	0.265419	0.335754
C78	C	1.750753	0.765419	0.835754
C79	C	1.186576	0.329523	0.296355
C80	C	1.686576	0.829523	0.796355
C81	C	1.186564	0.329517	0.217555
C82	C	1.686564	0.829517	0.717555
C83	C	1.246454	0.359403	0.460589
C84	C	1.746454	0.859403	0.960589
C85	C	1.246473	0.359411	0.539388
C86	C	1.746473	0.859411	1.039388
C87	C	1.250782	0.265434	0.578800
C88	C	1.750782	0.765434	1.078800
C89	C	1.255094	0.171449	0.539404
C90	C	1.755094	0.671449	1.039404
C91	C	1.255082	0.171443	0.460604
C92	C	1.755082	0.671443	0.960604
C93	C	1.250758	0.265431	0.421200
C94	C	1.750758	0.765431	0.921200
C95	C	1.314955	0.201324	0.703636
C96	C	1.814955	0.701324	1.203636
C97	C	1.314954	0.201318	0.782439
C98	C	1.814954	0.701318	1.282439
C99	C	1.186636	0.329546	0.782448
C100	C	1.686636	0.829546	1.282448
C101	C	1.186632	0.329543	0.703646
C102	C	1.686632	0.829543	1.203646
C103	C	1.250797	0.265434	0.664245
C104	C	1.750797	0.765434	1.164245
H105	H	0.573523	0.120623	-0.000007
H106	H	1.073523	0.620623	0.499993
Cl107	Cl	1.515124	-0.201585	0.000003
Cl108	Cl	2.015124	0.298415	0.500003
Cl109	Cl	1.395571	0.120715	0.345871
Cl110	Cl	1.895571	0.620715	0.845871
H111	H	0.562437	0.462196	-0.000009
H112	H	1.062437	0.962196	0.499991
Cl113	Cl	1.260519	0.053299	0.588942
Cl114	Cl	1.760519	0.553299	1.088942
Cl115	Cl	1.105929	0.410120	0.345897
Cl116	Cl	1.605929	0.910120	0.845897
H117	H	1.367200	0.149114	0.814510
H118	H	1.867200	0.649114	1.314510
H119	H	1.030918	-0.244710	-0.000003
H120	H	1.530918	0.255290	0.499997
H121	H	1.447538	-0.422891	-0.000022
H122	H	1.947538	0.077109	0.499978
H123	H	0.928026	0.410215	0.000001
H124	H	1.428026	0.910215	0.500001
H125	H	1.053994	-0.046247	0.000010
H126	H	1.553994	0.453753	0.500010
Cl127	Cl	1.061461	-0.434707	-0.000028
Cl128	Cl	1.561461	0.065293	0.499972
Cl129	Cl	1.440075	-0.034465	0.000001
Cl130	Cl	1.940075	0.465535	0.500001
Cl131	Cl	0.717769	0.001064	0.000000
Cl132	Cl	1.217769	0.501064	0.500000
Cl133	Cl	1.395551	0.120710	0.168010
Cl134	Cl	1.895551	0.620710	0.668010
H135	H	0.939077	0.068648	0.000004
H136	H	1.439077	0.568648	0.500004
Cl137	Cl	1.260491	0.053295	0.411080
Cl138	Cl	1.760491	0.553295	0.911080
H139	H	0.760900	0.485269	-0.000006
H140	H	1.260900	0.985269	0.499994
Cl141	Cl	1.395614	0.120725	0.654101
Cl142	Cl	1.895614	0.620725	1.154101
H143	H	1.134402	0.381745	0.814535
H144	H	1.634402	0.881745	1.314535
H145	H	1.134388	0.381744	0.671574
H146	H	1.634388	0.881744	1.171574
H147	H	1.242969	0.435940	0.571458
H148	H	1.742969	0.935940	1.071458
Cl149	Cl	1.241135	0.477570	0.411050
Cl150	Cl	1.741135	0.977570	0.911050
Cl151	Cl	1.105896	0.410108	0.168034
Cl152	Cl	1.605896	0.910108	0.668034
