data_functionalizedCrystal
_audit_creation_method	'MofGen! by Chris Wilmer'
_symmetry_space_group_name_H-M	'P1'
_symmetry_Int_Tables_number	1
_symmetry_cell_setting	triclinic
loop_
_symmetry_equiv_pos_as_xyz
  x,y,z
_cell_length_a	12.759395
_cell_length_b	12.759394
_cell_length_c	12.759387
_cell_angle_alpha	89.968340
_cell_angle_beta	89.979491
_cell_angle_gamma	90.016374
loop_
_atom_site_label
_atom_site_type_symbol
_atom_site_fract_x
_atom_site_fract_y
_atom_site_fract_z
Zn1	Zn	1.606268	-0.418168	-0.593999
Zn2	Zn	1.606158	-0.593885	-0.418317
Zn3	Zn	1.430566	-0.418225	-0.418336
Zn4	Zn	1.430558	-0.593810	-0.593956
O5	O	1.518387	-0.506022	-0.506152
O6	O	1.753274	-0.441485	-0.570704
O7	O	1.582823	-0.570639	-0.271298
O8	O	1.453922	-0.271197	-0.441664
O9	O	1.753194	-0.570583	-0.441631
O10	O	1.583010	-0.271155	-0.570723
O11	O	1.453816	-0.441582	-0.271312
O12	O	1.283544	-0.441510	-0.441622
O13	O	1.453909	-0.570456	-0.740983
O14	O	1.283538	-0.570511	-0.570649
O15	O	1.583002	-0.441412	-0.741014
O16	O	1.582815	-0.740896	-0.441590
O17	O	1.453802	-0.740841	-0.570631
C18	C	1.245420	-0.506009	-0.506134
C19	C	1.128643	-0.506029	-0.506151
C20	C	1.128676	-0.640576	-0.640290
C21	C	1.073831	-0.707857	-0.707362
C22	C	0.964109	-0.707870	-0.707375
C23	C	0.909230	-0.640592	-0.640310
C24	C	0.964074	-0.573310	-0.573238
C25	C	1.073799	-0.573307	-0.573230
C26	C	0.964042	-0.438760	-0.439106
C27	C	1.073764	-0.438751	-0.439086
C28	C	0.909162	-0.371482	-0.372042
C29	C	0.964007	-0.304204	-0.304962
C30	C	1.073735	-0.304195	-0.304951
C31	C	1.128608	-0.371469	-0.372014
C32	C	1.518324	-0.778990	-0.506126
C33	C	1.518393	-0.895766	-0.506151
C34	C	1.652835	-0.895770	-0.371881
C35	C	1.720083	-0.950633	-0.304758
C36	C	1.720145	-1.060354	-0.304786
C37	C	1.652953	-1.115216	-0.371947
C38	C	1.585705	-1.060353	-0.439070
C39	C	1.585648	-0.950629	-0.439032
C40	C	1.451270	-1.060349	-0.573343
C41	C	1.451202	-0.950628	-0.573311
C42	C	1.384079	-1.115211	-0.640504
C43	C	1.316823	-1.060348	-0.707623
C44	C	1.316764	-0.950620	-0.707591
C45	C	1.383954	-0.895765	-0.640434
C46	C	1.792421	-0.506036	-0.506170
C47	C	1.909197	-0.506042	-0.506178
C48	C	1.518467	-0.505919	-0.780185
C49	C	1.518500	-0.505875	-0.896962
C50	C	1.518479	-0.231989	-0.506200
C51	C	1.518518	-0.115212	-0.506221
C52	C	1.652934	-0.371511	-0.897015
C53	C	1.720166	-0.304313	-0.951902
C54	C	1.720192	-0.304275	-1.061624
C55	C	1.652976	-0.371439	-1.116461
C56	C	1.585744	-0.438637	-1.061574
C57	C	1.585728	-0.438671	-0.951849
C58	C	1.451307	-0.572995	-1.061521
C59	C	1.451285	-0.573040	-0.951799
C60	C	1.384091	-0.640159	-1.116358
C61	C	1.316863	-0.707364	-1.061471
C62	C	1.316841	-0.707400	-0.951742
C63	C	1.384053	-0.640238	-0.896912
C64	C	1.518369	-0.506049	-0.233184
C65	C	1.518538	-0.505797	-0.116408
H66	H	0.919455	-0.762651	-0.761996
H67	H	1.218017	-0.640580	-0.640278
C68	C	1.242788	-0.890274	-0.781429
C69	C	1.242713	-0.769585	-0.781401
C70	C	1.168736	-0.709244	-0.855241
C71	C	1.094835	-0.769593	-0.929109
C72	C	1.094908	-0.890290	-0.929139
C73	C	1.168885	-0.950631	-0.855299
H74	H	1.297421	-0.724904	-0.726718
H75	H	1.168682	-0.619896	-0.855218
H76	H	1.040073	-0.724926	-0.983769
H77	H	1.040200	-0.934970	-0.983823
H78	H	1.168938	-1.039979	-0.855322
H79	H	0.819889	-0.640599	-0.640336
C80	C	0.903641	-0.230204	-0.231199
C81	C	0.782951	-0.230210	-0.231219
C82	C	0.722580	-0.156210	-0.157453
C83	C	0.782899	-0.082206	-0.083667
C84	C	0.903596	-0.082198	-0.083645
C85	C	0.963967	-0.156197	-0.157411
H86	H	0.738293	-0.284995	-0.285842
H87	H	0.633232	-0.156217	-0.157470
H88	H	0.738209	-0.027427	-0.029061
H89	H	0.948254	-0.027412	-0.029022
H90	H	1.053315	-0.156191	-0.157394
C91	C	1.242923	-1.120696	-0.781494
C92	C	1.160508	-1.196245	-0.735928
C93	C	1.086606	-1.256598	-0.809800
C94	C	1.095119	-1.241403	-0.929239
C95	C	1.177538	-1.165850	-0.974811
C96	C	1.251440	-1.105497	-0.900939
H97	H	1.154203	-1.207496	-0.647507
H98	H	1.025595	-1.312527	-0.776064
H99	H	1.040413	-1.286080	-0.983923
H100	H	1.183843	-1.154599	-1.063232
H101	H	1.312451	-1.049568	-0.934675
C102	C	1.794106	-0.230439	-0.891581
C103	C	1.794092	-0.230479	-0.770891
C104	C	1.868031	-0.156606	-0.710575
C105	C	1.941984	-0.082692	-0.770948
C106	C	1.942001	-0.082649	-0.891645
C107	C	1.868062	-0.156523	-0.951962
H108	H	1.739344	-0.285197	-0.726193
H109	H	1.868018	-0.156638	-0.621226
H110	H	1.996718	-0.028006	-0.726299
H111	H	1.996748	-0.027931	-0.936344
H112	H	1.868075	-0.156491	-1.041310
C113	C	1.242933	-0.781237	-1.121790
C114	C	1.242952	-0.781189	-1.242480
C115	C	1.169021	-0.855065	-1.302804
C116	C	1.095071	-0.928988	-1.242438
C117	C	1.095049	-0.929039	-1.121741
C118	C	1.168980	-0.855163	-1.061417
H119	H	1.297696	-0.726464	-1.287173
H120	H	1.169037	-0.855027	-1.392153
H121	H	1.040343	-0.983675	-1.287094
H122	H	1.040304	-0.983764	-1.077049
H123	H	1.168963	-0.855201	-0.972069
H124	H	1.118526	-0.762632	-0.761966
H125	H	0.819821	-0.371492	-0.372061
C126	C	1.134062	-0.230181	-0.231171
C127	C	1.119001	-0.110758	-0.239970
C128	C	1.179323	-0.036742	-0.166188
C129	C	1.254706	-0.082150	-0.083609
C130	C	1.269770	-0.201579	-0.074807
C131	C	1.209448	-0.275595	-0.148588
H132	H	1.063195	-0.077139	-0.301103
H133	H	1.168171	0.051667	-0.172705
H134	H	1.299360	-0.027359	-0.028992
H135	H	1.325576	-0.235198	-0.013673
H136	H	1.220600	-0.364004	-0.142071
H137	H	1.383905	-0.806424	-0.640394
H138	H	1.217949	-0.371471	-0.372008
H139	H	1.262082	-0.762110	-0.907060
H140	H	1.652778	-0.806429	-0.371837
H141	H	1.384113	-0.640119	-1.205699
H142	H	1.774792	-0.905955	-0.250078
H143	H	1.774931	-0.249550	-1.106313
H144	H	1.774909	-1.105023	-0.250135
H145	H	1.653018	-1.204557	-0.371973
H146	H	1.384138	-1.204552	-0.640527
H147	H	1.652930	-0.371545	-0.807674
H148	H	1.652994	-0.371393	-1.205802
H149	H	1.384046	-0.640265	-0.807571
