data_functionalizedCrystal
_audit_creation_method	'MofGen! by Chris Wilmer'
_symmetry_space_group_name_H-M	'P1'
_symmetry_Int_Tables_number	1
_symmetry_cell_setting	triclinic
loop_
_symmetry_equiv_pos_as_xyz
  x,y,z
_cell_length_a	14.519709
_cell_length_b	9.730223
_cell_length_c	10.654551
_cell_angle_alpha	90.000032
_cell_angle_beta	84.082753
_cell_angle_gamma	90.000056
loop_
_atom_site_label
_atom_site_type_symbol
_atom_site_fract_x
_atom_site_fract_y
_atom_site_fract_z
O1	O	1.224723	0.114102	0.164619
O2	O	0.956347	0.114143	0.184006
O3	O	1.096705	0.114122	-0.008486
O4	O	1.084365	0.114123	0.357111
O5	O	1.096689	-0.114458	-0.008485
O6	O	0.956331	-0.114437	0.184007
O7	O	1.224707	-0.114478	0.164621
Zn8	Zn	1.090517	-0.150749	0.174314
Zn9	Zn	1.090538	0.150414	0.174312
O10	O	1.084349	-0.114457	0.357112
C11	C	0.921975	-0.000142	0.183103
C12	C	0.819579	-0.000126	0.180396
N13	N	1.090509	-0.356286	0.174315
C14	C	1.146959	-0.572097	0.250641
C15	C	1.146935	-0.428214	0.250651
C16	C	1.034097	-0.428248	0.097973
C17	C	1.034116	-0.572129	0.097970
C18	C	1.203395	-0.644017	0.326972
C19	C	1.259807	-0.572065	0.403316
C20	C	1.259783	-0.428182	0.403326
C21	C	1.203347	-0.356251	0.326993
C22	C	0.444632	-0.000188	0.170428
C23	C	0.548954	-0.000170	0.173196
C24	C	0.632102	-0.000156	0.175412
C25	C	0.736431	-0.000140	0.178180
C26	C	1.259080	-0.000190	0.165523
C27	C	1.361475	-0.000197	0.168231
C28	C	1.095791	-0.000164	-0.055275
C29	C	1.093079	-0.000155	-0.194692
N30	N	1.090553	0.355951	0.174302
C31	C	1.091816	0.124442	-0.260192
C32	C	1.089261	0.124436	-0.391188
C33	C	1.089236	-0.124774	-0.391172
C34	C	1.091785	-0.124767	-0.260177
C35	C	1.093111	0.249054	-0.194706
C36	C	1.091849	0.373661	-0.260207
C37	C	1.089293	0.373655	-0.391203
C38	C	1.088000	0.249042	-0.456698
C39	C	1.085264	-0.000167	0.403901
C40	C	1.087975	-0.000168	0.543318
H41	H	1.203423	-0.761174	0.326969
Cl42	Cl	1.087612	-0.281419	-0.473510
Cl43	Cl	1.087697	0.530300	-0.473542
Cl44	Cl	1.093378	-0.281406	-0.177828
H45	H	1.305709	-0.369602	0.465498
H46	H	1.203324	-0.239092	0.327019
Cl47	Cl	1.330740	-0.662488	0.499286
Cl48	Cl	0.963158	-0.337820	0.002013
H49	H	1.095195	0.249073	-0.088044
Cl50	Cl	0.963203	-0.662590	0.002002
Cl51	Cl	1.093472	0.530307	-0.177873
H52	H	1.085906	0.249048	-0.563361
