data_functionalizedCrystal
_audit_creation_method	'MofGen! by Chris Wilmer'
_symmetry_space_group_name_H-M	'P1'
_symmetry_Int_Tables_number	1
_symmetry_cell_setting	triclinic
loop_
_symmetry_equiv_pos_as_xyz
  x,y,z
_cell_length_a	16.625548
_cell_length_b	12.827893
_cell_length_c	12.827885
_cell_angle_alpha	89.974949
_cell_angle_beta	89.978573
_cell_angle_gamma	90.004578
loop_
_atom_site_label
_atom_site_type_symbol
_atom_site_fract_x
_atom_site_fract_y
_atom_site_fract_z
Zn1	Zn	1.232794	-0.415953	-0.590938
Zn2	Zn	1.732794	0.084047	-0.090938
Zn3	Zn	1.232739	-0.590730	-0.416213
Zn4	Zn	1.732739	-0.090730	0.083787
Zn5	Zn	1.097953	-0.416007	-0.416206
Zn6	Zn	1.597953	0.083993	0.083794
Zn7	Zn	1.097970	-0.590656	-0.590907
Zn8	Zn	1.597970	-0.090656	-0.090907
O9	O	1.165364	-0.503336	-0.503566
O10	O	1.665364	-0.003336	-0.003566
O11	O	1.345619	-0.439146	-0.567776
O12	O	1.845619	0.060854	-0.067776
O13	O	1.214830	-0.567606	-0.269976
O14	O	1.714830	-0.067606	0.230024
O15	O	1.115856	-0.269764	-0.439394
O16	O	1.615856	0.230236	0.060606
O17	O	1.345579	-0.567554	-0.439406
O18	O	1.845579	-0.067554	0.060594
O19	O	1.214922	-0.269724	-0.567769
O20	O	1.714922	0.230276	-0.067769
O21	O	1.115803	-0.439238	-0.269970
O22	O	1.615803	0.060762	0.230030
O23	O	0.985123	-0.439166	-0.439364
O24	O	1.485123	0.060834	0.060636
O25	O	1.115885	-0.567427	-0.737147
O26	O	1.615885	-0.067427	-0.237147
O27	O	0.985136	-0.567480	-0.567716
O28	O	1.485136	-0.067480	-0.067716
O29	O	1.214939	-0.439073	-0.737170
O30	O	1.714939	0.060927	-0.237170
O31	O	1.214846	-0.736956	-0.439376
O32	O	1.714846	-0.236956	0.060624
O33	O	1.115832	-0.736901	-0.567723
O34	O	1.615832	-0.236901	-0.067723
C35	C	0.955873	-0.503321	-0.503536
C36	C	1.455873	-0.003321	-0.003536
C37	C	0.866252	-0.503340	-0.503549
C38	C	1.366252	-0.003340	-0.003549
C39	C	1.165393	-0.230766	-0.503584
C40	C	1.665393	0.269234	-0.003584
C41	C	1.165405	-0.114613	-0.503593
C42	C	1.665405	0.385387	-0.003593
C43	C	1.165357	-0.774846	-0.503570
C44	C	1.665357	-0.274846	-0.003570
C45	C	1.165428	-0.890999	-0.503606
C46	C	1.665428	-0.390999	-0.003606
C47	C	0.538077	-0.503347	-0.503593
C48	C	1.038077	-0.003347	-0.003593
C49	C	0.629385	-0.503342	-0.503578
C50	C	1.129385	-0.003342	-0.003578
C51	C	0.702161	-0.503344	-0.503570
C52	C	1.202161	-0.003344	-0.003570
C53	C	0.793476	-0.503338	-0.503556
C54	C	1.293476	-0.003338	-0.003556
C55	C	1.375673	-0.503352	-0.503596
C56	C	1.875673	-0.003352	-0.003596
C57	C	1.465294	-0.503359	-0.503608
C58	C	1.965294	-0.003359	-0.003608
C59	C	1.165420	-0.503236	-0.776136
C60	C	1.665420	-0.003236	-0.276136
C61	C	1.165443	-0.503193	-0.892289
C62	C	1.665443	-0.003193	-0.392289
C63	C	1.116395	-0.062848	-0.440079
C64	C	1.616395	0.437152	0.059921
C65	C	1.116406	0.057202	-0.440085
C66	C	1.616406	0.557202	0.059915
C67	C	1.116457	-0.439660	-0.944071
C68	C	1.616457	0.060340	-0.444071
C69	C	1.116481	-0.439614	-1.064122
C70	C	1.616481	0.060386	-0.564122
C71	C	1.165355	-0.503361	-0.232056
C72	C	1.665355	-0.003361	0.267944
C73	C	1.165488	-0.503109	-0.115903
C74	C	1.665488	-0.003109	0.384097
H75	H	1.074424	-0.107407	-0.385701
H76	H	1.574424	0.392593	0.114299
C77	C	1.059782	-0.366211	-0.883899
C78	C	1.559782	0.133789	-0.383899
N79	N	1.017095	-0.310883	-0.838579
N80	N	1.517095	0.189117	-0.338579
C81	C	1.059822	-0.366128	-1.124279
C82	C	1.559822	0.133872	-0.624279
N83	N	1.017144	-0.310777	-1.169591
N84	N	1.517144	0.189223	-0.669591
C85	C	1.059718	0.117339	-0.366623
C86	C	1.559718	0.617339	0.133377
N87	N	1.017017	0.162637	-0.311290
N88	N	1.517017	0.662637	0.188710
H89	H	1.207393	0.064491	-0.557982
H90	H	1.707393	0.564491	-0.057982
C91	C	1.222056	-0.576723	-0.952461
C92	C	1.722056	-0.076723	-0.452461
N93	N	1.264674	-0.632140	-0.997782
N94	N	1.764674	-0.132140	-0.497782
C95	C	1.222106	-0.054421	-0.577062
C96	C	1.722106	0.445579	-0.077062
N97	N	1.264815	-0.009086	-0.632400
N98	N	1.764815	0.490914	-0.132400
H99	H	1.207432	-0.557501	-1.071378
H100	H	1.707432	-0.057501	-0.571378
