data_functionalizedCrystal
_audit_creation_method	'MofGen! by Chris Wilmer'
_symmetry_space_group_name_H-M	'P1'
_symmetry_Int_Tables_number	1
_symmetry_cell_setting	triclinic
loop_
_symmetry_equiv_pos_as_xyz
  x,y,z
_cell_length_a	23.532407
_cell_length_b	23.532357
_cell_length_c	22.010155
_cell_angle_alpha	89.998697
_cell_angle_beta	89.996931
_cell_angle_gamma	82.838485
loop_
_atom_site_label
_atom_site_type_symbol
_atom_site_fract_x
_atom_site_fract_y
_atom_site_fract_z
O1	O	0.755251	0.069129	-0.050457
O2	O	0.589386	0.079132	-0.050475
O3	O	0.677335	-0.008803	-0.050453
O4	O	0.667302	0.157064	-0.050479
O5	O	0.677319	-0.008790	0.050597
O6	O	0.589370	0.079145	0.050575
O7	O	0.755235	0.069142	0.050594
Cu8	Cu	0.672301	0.074145	0.059811
Cu9	Cu	0.672320	0.074129	-0.059693
O10	O	0.667286	0.157077	0.050571
C11	C	0.568162	0.078884	0.000048
C12	C	0.504945	0.078118	0.000041
C13	C	0.677076	-0.030013	0.000074
C14	C	0.676322	-0.093232	0.000080
C15	C	0.105834	0.125353	0.000061
C16	C	0.046434	0.124641	0.000065
O17	O	0.009681	0.168428	0.000080
N18	N	0.023817	0.072364	0.000072
C19	C	0.060604	0.020794	0.000082
O20	O	0.035912	-0.023737	0.000089
C21	C	0.120003	0.021506	0.000082
C22	C	0.142616	0.073787	0.000069
C23	C	0.128448	0.177629	0.000048
C24	C	0.187844	0.178341	0.000043
C25	C	0.224626	0.126775	0.000051
C26	C	0.202012	0.074498	0.000064
C27	C	0.156788	-0.030063	0.000096
C28	C	0.216191	-0.029346	0.000097
C29	C	0.238804	0.022935	0.000084
C30	C	0.298190	0.023644	0.000067
N31	N	0.320807	0.075922	0.000059
C32	C	0.284025	0.127487	0.000052
C33	C	-0.064139	0.019303	0.000082
C34	C	-0.123536	0.018590	0.000077
C35	C	-0.137702	0.122437	0.000061
C36	C	-0.078303	0.123149	0.000062
C37	C	-0.041522	0.071580	0.000074
C38	C	0.408761	0.128977	0.000041
C39	C	0.468163	0.129684	0.000033
C40	C	0.482324	0.025837	0.000052
C41	C	0.422927	0.025130	0.000056
C42	C	0.386147	0.076704	0.000053
O43	O	0.334977	-0.020120	0.000054
O44	O	0.308725	0.172011	0.000052
C45	C	0.671594	-0.485250	-0.055036
C46	C	0.670877	-0.544650	-0.055040
O47	O	0.670494	-0.575372	-0.101885
N48	N	0.670512	-0.574354	0.000042
C49	C	0.670859	-0.544655	0.055131
O50	O	0.670483	-0.575374	0.101982
C51	C	0.671572	-0.485256	0.055134
C52	C	0.671943	-0.455556	0.000048
C53	C	0.671963	-0.455550	-0.110117
C54	C	0.672682	-0.396155	-0.110113
C55	C	0.673030	-0.366460	-0.055029
C56	C	0.672661	-0.396160	0.000052
C57	C	0.671915	-0.455557	0.110222
C58	C	0.672628	-0.396154	0.110220
C59	C	0.672998	-0.366454	0.055135
C60	C	0.673728	-0.307070	0.055141
N61	N	0.674092	-0.277366	0.000059
C62	C	0.673743	-0.307061	-0.055026
C63	C	0.669361	-0.669396	0.055121
C64	C	0.668652	-0.728795	0.055118
C65	C	0.668668	-0.728786	-0.055053
C66	C	0.669381	-0.669387	-0.055050
C67	C	0.669725	-0.639692	0.000039
C68	C	0.675252	-0.182327	-0.055014
C69	C	0.675973	-0.122927	-0.055005
C70	C	0.675954	-0.122941	0.055166
C71	C	0.675236	-0.182336	0.055157
C72	C	0.674883	-0.212027	0.000063
O73	O	0.674109	-0.276310	0.101962
O74	O	0.674112	-0.276333	-0.101869
C75	C	0.776459	0.069390	0.000070
C76	C	0.839676	0.070156	0.000072
C77	C	0.667545	0.178287	0.000043
C78	C	0.668300	0.241506	0.000033
N79	N	0.672292	0.074155	0.143864
N80	N	0.672334	0.074114	-0.143745
C81	C	0.711266	0.035197	0.563653
C82	C	0.711269	0.035193	0.627260
O83	O	0.744383	0.002076	0.660160
N84	N	0.672320	0.074117	0.659071
C85	C	0.633362	0.113044	0.627270
O86	O	0.600233	0.146152	0.660168
C87	C	0.633357	0.113045	0.563663
C88	C	0.672312	0.074122	0.531857
C89	C	0.750218	-0.003724	0.531846
C90	C	0.750216	-0.003719	0.468243
C91	C	0.711262	0.035206	0.436446
C92	C	0.672310	0.074127	0.468253
C93	C	0.594397	0.151969	0.531864
C94	C	0.594395	0.151966	0.468253
C95	C	0.633350	0.113043	0.436446
C96	C	0.633354	0.113056	0.372854
N97	N	0.672303	0.074132	0.341044
C98	C	0.711257	0.035207	0.372840
C99	C	0.633374	0.113039	0.760848
C100	C	0.633382	0.113041	0.824453
C101	C	0.711288	0.035189	0.824439
C102	C	0.711283	0.035190	0.760833
C103	C	0.672323	0.074115	0.729038
C104	C	0.711250	0.035220	0.239269
C105	C	0.711246	0.035230	0.175660
C106	C	0.633338	0.113080	0.175679
C107	C	0.633344	0.113073	0.239282
C108	C	0.672302	0.074138	0.271076
O109	O	0.600255	0.146155	0.339914
O110	O	0.744376	0.002100	0.339935
H111	H	0.486571	0.172259	0.000022
H112	H	0.676276	-0.098748	-0.099864
H113	H	0.512282	-0.016147	0.000056
H114	H	0.206249	0.220913	0.000032
O115	O	0.674986	-0.211232	-0.108496
C116	C	0.723909	-0.252316	-0.111806
H117	H	0.740239	-0.263477	-0.063982
H118	H	0.712313	-0.292561	-0.135138
H119	H	0.758733	-0.234132	-0.138976
H120	H	0.672900	-0.371979	0.155081
H121	H	0.671677	-0.479721	-0.154976
H122	H	0.674940	-0.206520	0.100012
O123	O	0.092803	0.227777	0.000012
C124	C	0.125513	0.274063	0.000017
H125	H	0.169932	0.259334	-0.019107
H126	H	0.103407	0.310169	-0.029332
H127	H	0.129649	0.290113	0.048492
O128	O	0.787996	-0.041681	0.437462
C129	C	0.778981	-0.097956	0.453147
H130	H	0.733357	-0.097901	0.470580
H131	H	0.785719	-0.126675	0.411397
H132	H	0.810578	-0.114798	0.490147
H133	H	0.676240	-0.098753	0.100014
H134	H	0.672981	-0.371978	-0.154969
H135	H	0.562675	0.183663	0.557752
H136	H	0.742970	0.003534	0.149765
O137	O	0.134901	-0.080886	0.000033
C138	C	0.153722	-0.112305	-0.052300
H139	H	0.194829	-0.097018	-0.069757
H140	H	0.162248	-0.159776	-0.040513
H141	H	0.119309	-0.105527	-0.088946
H142	H	0.742973	0.003516	0.265148
H143	H	0.601667	0.144742	0.850346
O144	O	0.669780	-0.640503	0.108599
C145	C	0.719531	-0.612890	0.111915
H146	H	0.736090	-0.606226	0.064092
H147	H	0.708936	-0.569612	0.135238
H148	H	0.753795	-0.640503	0.139095
H149	H	0.601650	0.144741	0.734963
H150	H	0.781939	-0.035424	0.557729
H151	H	-0.167662	0.164425	0.000058
H152	H	-0.059896	0.165721	0.000054
H153	H	0.743004	0.003495	0.734939
H154	H	-0.141942	-0.023982	0.000078
O155	O	0.749103	-0.002705	0.855265
C156	C	0.740166	-0.059038	0.839737
H157	H	0.718216	-0.058857	0.793555
H158	H	0.783137	-0.087306	0.837562
H159	H	0.711919	-0.076504	0.875537
H160	H	0.669681	-0.645209	-0.099905
O161	O	0.556528	0.189835	0.437463
C162	C	0.522140	0.224175	0.479181
H163	H	0.545489	0.224696	0.524519
H164	H	0.513181	0.269706	0.460809
H165	H	0.479945	0.205894	0.485950
H166	H	0.246136	-0.071341	0.000108
H167	H	0.668382	-0.752974	-0.099906
H168	H	0.668359	-0.752973	0.099974
O169	O	0.595448	0.150903	0.270089
C170	C	0.561077	0.185270	0.228382
H171	H	0.560579	0.161928	0.183037
H172	H	0.515544	0.194180	0.246758
H173	H	0.579313	0.227490	0.221625
H174	H	0.671615	-0.479729	0.155079
H175	H	0.378821	0.170974	0.000040
O176	O	-0.028492	-0.030848	0.000057
C177	C	-0.061197	-0.077136	0.000078
H178	H	-0.105614	-0.062417	-0.019053
H179	H	-0.039084	-0.113250	-0.029258
H180	H	-0.065340	-0.093173	0.048558
O181	O	0.595576	0.150911	0.144718
C182	C	0.625863	0.185905	0.107931
H183	H	0.670563	0.163000	0.098404
H184	H	0.602041	0.195027	0.063203
H185	H	0.629477	0.227982	0.132439
H186	H	0.404515	-0.017442	0.000058
