data_functionalizedCrystal
_audit_creation_method	'MofGen! by Chris Wilmer'
_symmetry_space_group_name_H-M	'P1'
_symmetry_Int_Tables_number	1
_symmetry_cell_setting	triclinic
loop_
_symmetry_equiv_pos_as_xyz
  x,y,z
_cell_length_a	15.625950
_cell_length_b	14.472310
_cell_length_c	15.538191
_cell_angle_alpha	90.001031
_cell_angle_beta	66.741480
_cell_angle_gamma	71.939624
loop_
_atom_site_label
_atom_site_type_symbol
_atom_site_fract_x
_atom_site_fract_y
_atom_site_fract_z
O1	O	1.155761	-0.310308	0.123037
O2	O	0.888548	-0.220800	0.137656
O3	O	1.074170	-0.282973	-0.006710
O4	O	0.970139	-0.248135	0.267403
O5	O	1.074132	-0.436642	-0.006702
O6	O	0.888510	-0.374469	0.137665
O7	O	1.155723	-0.463977	0.123045
Cu8	Cu	1.022113	-0.433255	0.130356
Cu9	Cu	1.022158	-0.251523	0.130346
O10	O	0.970101	-0.401804	0.267411
C11	C	0.855165	-0.286459	0.136994
C12	C	0.755755	-0.253159	0.134996
N13	N	1.022088	-0.561077	0.130362
C14	C	0.428594	-0.562347	0.128500
C15	C	0.335175	-0.531012	0.126641
C16	C	0.335263	-0.363504	0.126633
C17	C	0.428682	-0.394824	0.128496
C18	C	0.475340	-0.494247	0.129428
C19	C	0.475428	-0.326724	0.129425
C20	C	0.568841	-0.358044	0.131283
C21	C	0.615508	-0.457463	0.132213
C22	C	0.568753	-0.525567	0.131287
C23	C	0.428771	-0.227303	0.128486
C24	C	0.475518	-0.159203	0.129415
C25	C	0.568929	-0.190521	0.131280
C26	C	0.615596	-0.289940	0.132209
C27	C	0.615684	-0.122417	0.132206
C28	C	0.709096	-0.153736	0.134064
C29	C	0.709009	-0.321259	0.134067
C30	C	1.022158	-0.935192	0.130342
C31	C	0.922672	-0.862704	0.207330
C32	C	0.922751	-0.755642	0.207611
C33	C	1.022122	-0.749589	0.130352
C34	C	1.109109	-0.817565	0.151942
C35	C	1.108512	-0.924486	0.152489
C36	C	1.035571	-0.900211	0.031537
C37	C	1.033200	-0.792289	0.032193
C38	C	1.022109	-0.644696	0.130356
C39	C	1.022177	-1.040086	0.130340
C40	C	1.189106	-0.398317	0.123708
C41	C	1.288516	-0.431610	0.125705
C42	C	1.085035	-0.363451	-0.041786
C43	C	1.117456	-0.374301	-0.146314
N44	N	1.022193	-0.123704	0.130332
C45	C	0.795363	-0.266430	-0.434557
C46	C	0.825850	-0.276645	-0.532780
C47	C	0.997333	-0.334086	-0.554982
C48	C	0.966860	-0.323872	-0.456759
C49	C	0.865874	-0.290045	-0.396553
C50	C	1.037371	-0.347486	-0.418756
C51	C	1.006900	-0.337277	-0.320541
C52	C	0.905919	-0.303455	-0.260330
C53	C	0.835403	-0.279836	-0.298339
C54	C	1.138357	-0.381319	-0.478963
C55	C	1.208867	-0.404933	-0.440960
C56	C	1.178397	-0.394718	-0.342744
C57	C	1.077416	-0.360896	-0.282532
C58	C	1.248913	-0.418337	-0.304734
C59	C	1.218442	-0.408128	-0.206520
C60	C	1.046945	-0.350687	-0.184317
C61	C	0.959236	-0.321325	0.302487
C62	C	0.926815	-0.310468	0.407016
H63	H	0.746994	-0.402217	0.134841
C64	C	0.564350	-0.013056	0.131171
N65	N	0.525686	0.069317	0.130392
C66	C	1.108415	-0.371293	-0.621218
N67	N	1.192083	-0.399315	-0.671107
C68	C	0.872400	-0.292224	-0.152290
N69	N	0.847154	-0.283762	-0.070914
C70	C	0.724313	-0.242624	-0.232107
N71	N	0.640643	-0.214600	-0.182221
C72	C	0.283928	-0.254141	0.125608
N73	N	0.245261	-0.171766	0.124839
H74	H	0.856683	-0.866387	0.194657
C75	C	0.718264	-0.491915	0.134259
N76	N	0.795660	-0.517863	0.135803
C77	C	0.620080	-0.634937	0.132318
N78	N	0.658741	-0.717312	0.133092
H79	H	1.183573	-0.817023	0.097365
C80	C	0.479921	-0.671718	0.129531
N81	N	0.518582	-0.754092	0.130306
C82	C	1.359994	-0.455553	-0.370973
N83	N	1.443662	-0.483585	-0.420864
C84	C	0.424182	-0.049840	0.128390
N85	N	0.385516	0.032535	0.127621
C86	C	1.100668	-0.778497	0.248192
N87	N	1.094302	-0.749074	0.320693
H88	H	1.163162	-0.389621	-0.558935
H89	H	0.352706	-0.201805	0.126978
H90	H	1.101602	-0.947150	0.224551
C91	C	1.319949	-0.442141	-0.507196
N92	N	1.403618	-0.470163	-0.557085
C93	C	0.833991	-0.690437	0.190224
N94	N	0.767129	-0.641326	0.177134
H95	H	0.297107	-0.586472	0.125907
C96	C	0.760517	-0.078821	0.135093
N97	N	0.799247	-0.022394	0.135868
H98	H	0.713130	-0.238878	-0.385533
H99	H	1.183146	-0.975391	0.098633
C100	C	0.954067	-0.909441	0.003555
N101	N	0.892670	-0.916391	-0.017510
C102	C	0.906536	-0.893654	0.305824
N103	N	0.894386	-0.916967	0.380009
C104	C	0.946971	-0.729121	0.010063
N105	N	0.882022	-0.681537	-0.006602
C106	C	0.906667	-0.715623	0.306660
N107	N	0.894557	-0.685483	0.381268
H108	H	1.103425	-0.789037	-0.027792
C109	C	1.134087	-0.967430	-0.045865
N110	N	1.208288	-1.018064	-0.104157
H111	H	0.964712	-0.323135	-0.135294
H112	H	0.768424	-0.257426	-0.563716
H113	H	1.275859	-0.427359	-0.175578
