data_functionalizedCrystal
_audit_creation_method	'MofGen! by Chris Wilmer'
_symmetry_space_group_name_H-M	'P1'
_symmetry_Int_Tables_number	1
_symmetry_cell_setting	triclinic
loop_
_symmetry_equiv_pos_as_xyz
  x,y,z
_cell_length_a	19.805407
_cell_length_b	19.077068
_cell_length_c	19.805399
_cell_angle_alpha	92.269429
_cell_angle_beta	89.980427
_cell_angle_gamma	92.327086
loop_
_atom_site_label
_atom_site_type_symbol
_atom_site_fract_x
_atom_site_fract_y
_atom_site_fract_z
Zn1	Zn	1.023904	-0.280218	-0.393534
Zn2	Zn	1.019269	-0.397917	-0.284888
Zn3	Zn	0.910718	-0.280237	-0.280359
Zn4	Zn	0.906134	-0.397880	-0.398033
O5	O	0.965006	-0.339063	-0.339204
O6	O	1.118005	-0.295839	-0.379134
O7	O	1.004848	-0.382330	-0.189571
O8	O	0.929590	-0.181744	-0.291594
O9	O	1.114600	-0.382312	-0.299312
O10	O	1.012748	-0.181729	-0.374743
O11	O	0.925096	-0.295872	-0.186244
O12	O	0.815394	-0.295835	-0.295957
O13	O	0.921778	-0.382248	-0.492152
O14	O	0.812026	-0.382267	-0.382411
O15	O	1.008303	-0.295802	-0.488846
O16	O	1.000404	-0.496403	-0.303675
O17	O	0.917284	-0.496376	-0.386802
C18	C	0.789151	-0.339050	-0.339181
C19	C	0.713918	-0.339061	-0.339188
C20	C	0.676836	-0.384133	-0.384138
C21	C	0.606147	-0.384135	-0.384147
C22	C	0.572543	-0.339066	-0.339204
C23	C	0.609630	-0.293989	-0.294252
C24	C	0.680318	-0.293985	-0.294246
C25	C	0.324556	-0.294004	-0.294275
C26	C	0.253864	-0.294014	-0.294283
C27	C	0.250386	-0.384154	-0.384176
C28	C	0.321073	-0.384150	-0.384170
C29	C	0.358155	-0.339070	-0.339221
C30	C	0.434804	-0.339069	-0.339212
C31	C	0.495895	-0.339071	-0.339209
C32	C	0.957862	-0.521927	-0.346233
C33	C	0.954867	-0.600157	-0.349263
C34	C	0.996770	-0.636901	-0.307443
C35	C	0.993957	-0.710406	-0.310296
C36	C	0.949238	-0.747167	-0.354968
C37	C	0.907333	-0.710418	-0.396793
C38	C	0.910150	-0.636914	-0.393942
C39	C	0.936174	-0.967002	-0.368135
C40	C	0.933359	-1.040511	-0.370981
C41	C	1.019984	-1.040494	-0.284485
C42	C	1.022794	-0.966989	-0.281635
C43	C	0.980892	-0.930246	-0.323463
N44	N	0.946361	-0.822301	-0.357884
N45	N	0.983773	-0.855113	-0.320549
C46	C	1.141548	-0.339077	-0.339226
C47	C	1.216780	-0.339083	-0.339236
C48	C	0.965046	-0.339019	-0.515745
C49	C	0.965063	-0.339000	-0.590976
C50	C	0.972197	-0.155485	-0.332161
C51	C	0.975262	-0.077255	-0.329160
C52	C	1.010118	-0.293985	-0.624600
C53	C	1.010125	-0.293965	-0.695288
C54	C	0.965081	-0.338963	-0.732350
C55	C	0.920022	-0.383980	-0.698721
C56	C	0.920011	-0.383996	-0.628035
C57	C	0.920062	-0.383914	-0.983792
C58	C	0.920078	-0.383896	-1.054484
C59	C	1.010177	-0.293883	-1.051045
C60	C	1.010166	-0.293899	-0.980358
C61	C	0.965104	-0.338913	-0.946736
C62	C	0.965096	-0.338934	-0.870088
C63	C	0.965093	-0.338947	-0.808997
C64	C	0.965008	-0.339056	-0.163347
C65	C	0.965130	-0.338877	-0.088109
H66	H	0.220186	-0.420858	-0.420778
H67	H	0.896951	-1.070439	-0.407369
C68	C	1.059741	-0.244360	-1.088032
C69	C	1.111691	-0.274850	-1.137810
C70	C	1.161255	-0.225331	-1.174794
C71	C	1.158869	-0.145321	-1.162001
C72	C	1.106917	-0.114827	-1.112220
C73	C	1.057353	-0.164346	-1.075236
H74	H	1.113459	-0.334082	-1.147282
H75	H	1.199713	-0.247905	-1.211645
H76	H	1.195560	-0.108664	-1.189379
H77	H	1.105149	-0.055596	-1.102748
H78	H	1.018895	-0.141772	-1.038385
C79	C	0.565359	-0.433722	-0.433589
C80	C	0.514595	-0.488940	-0.406297
C81	C	0.473809	-0.538530	-0.455741
C82	C	0.483786	-0.532902	-0.532478
C83	C	0.534552	-0.477682	-0.559775
C84	C	0.575339	-0.428091	-0.510330
H85	H	0.507207	-0.493108	-0.349488
H86	H	0.436228	-0.579408	-0.435534
H87	H	0.453593	-0.569612	-0.569080
H88	H	0.541940	-0.473514	-0.616584
H89	H	0.612919	-0.387214	-0.530537
H90	H	1.046848	-0.257260	-0.950185
H91	H	1.046800	-0.257345	-0.594428
H92	H	0.710510	-0.257278	-0.257647
H93	H	0.883316	-0.420644	-0.600659
H94	H	0.582264	-0.257290	-0.257661
C95	C	1.045963	-0.596468	-0.258303
C96	C	1.101024	-0.545870	-0.285720
C97	C	1.150221	-0.505440	-0.236581
C98	C	1.144358	-0.515608	-0.160025
C99	C	1.089295	-0.566209	-0.132604
C100	C	1.040098	-0.606639	-0.181743
H101	H	1.105366	-0.538341	-0.342395
H102	H	1.190982	-0.467982	-0.256880
H103	H	1.180776	-0.485679	-0.123650
H104	H	1.084953	-0.573738	-0.075929
H105	H	0.999337	-0.644097	-0.161444
H106	H	0.704191	-0.420836	-0.420734
H107	H	1.028079	-0.740320	-0.276241
H108	H	1.059207	-0.937060	-0.245260
H109	H	0.883394	-0.420540	-1.084658
C110	C	0.890080	-0.926596	-0.414146
C111	C	0.812748	-0.936774	-0.408948
C112	C	0.766653	-0.896367	-0.454964
C113	C	0.797889	-0.845782	-0.506177
C114	C	0.875225	-0.835602	-0.511377
C115	C	0.921320	-0.876009	-0.465361
H116	H	0.789621	-0.974222	-0.371035
H117	H	0.709403	-0.903904	-0.451115
H118	H	0.763766	-0.815870	-0.540241
H119	H	0.898352	-0.798154	-0.549290
H120	H	0.978570	-0.868472	-0.469210
C121	C	0.864054	-0.596492	-0.439943
C122	C	0.786722	-0.606664	-0.434741
C123	C	0.740627	-0.566243	-0.480745
C124	C	0.771864	-0.515650	-0.531951
C125	C	0.849201	-0.505476	-0.537154
C126	C	0.895296	-0.545897	-0.491150
H127	H	0.763595	-0.644118	-0.396834
H128	H	0.683378	-0.573774	-0.476893
H129	H	0.737742	-0.485727	-0.566006
H130	H	0.872328	-0.468021	-0.575062
H131	H	0.952545	-0.538365	-0.495003
H132	H	0.226505	-0.257309	-0.257684
C133	C	0.870488	-0.433406	-0.946798
C134	C	0.897620	-0.488670	-0.900304
C135	C	0.848037	-0.538152	-0.863299
C136	C	0.771323	-0.532370	-0.872787
C137	C	0.744187	-0.477104	-0.919282
C138	C	0.793769	-0.427622	-0.956287
H139	H	0.954412	-0.492952	-0.893279
H140	H	0.868126	-0.579064	-0.828880
H141	H	0.734619	-0.569000	-0.845393
H142	H	0.687394	-0.472822	-0.926307
H143	H	0.773681	-0.386710	-0.990706
H144	H	0.348430	-0.420852	-0.420766
H145	H	0.354740	-0.257303	-0.257670
H146	H	1.046815	-0.257311	-0.722661
H147	H	1.054099	-1.070418	-0.250432
H148	H	0.870925	-0.740354	-0.433168
H149	H	0.883343	-0.420615	-0.728903
