data_functionalizedCrystal
_audit_creation_method	'MofGen! by Chris Wilmer'
_symmetry_space_group_name_H-M	'P1'
_symmetry_Int_Tables_number	1
_symmetry_cell_setting	triclinic
loop_
_symmetry_equiv_pos_as_xyz
  x,y,z
_cell_length_a	10.540539
_cell_length_b	23.532407
_cell_length_c	9.616153
_cell_angle_alpha	89.993077
_cell_angle_beta	89.995174
_cell_angle_gamma	83.687085
loop_
_atom_site_label
_atom_site_type_symbol
_atom_site_fract_x
_atom_site_fract_y
_atom_site_fract_z
O1	O	1.683259	0.080251	-0.115596
O2	O	1.313597	0.087813	-0.115615
O3	O	1.509575	0.001174	-0.115579
O4	O	1.487281	0.166890	-0.115631
O5	O	1.509548	0.001176	0.115712
O6	O	1.313571	0.087814	0.115677
O7	O	1.683232	0.080253	0.115695
Zn8	Zn	1.498397	0.084034	0.152408
Zn9	Zn	1.498432	0.084032	-0.152328
O10	O	1.487254	0.166892	0.115660
C11	C	1.266300	0.087246	0.000029
C12	C	1.125407	0.085550	0.000023
C13	C	0.944114	0.020541	0.000583
C14	C	1.090676	0.022261	0.000047
C15	C	1.062750	0.116006	-0.132060
C16	C	0.916277	0.113846	-0.132156
C17	C	0.915716	0.115136	0.130865
C18	C	1.062678	0.115719	0.132597
C19	C	1.508994	-0.020045	0.000070
C20	C	1.507287	-0.083273	0.000080
C21	C	1.612557	-0.481681	0.000010
C22	C	1.610971	-0.541092	-0.000001
O23	O	1.708557	-0.577192	-0.000048
N24	N	1.494462	-0.564488	-0.000006
C25	C	1.379532	-0.528469	-0.000014
O26	O	1.280287	-0.553824	-0.000021
C27	C	1.381119	-0.469060	-0.000014
C28	C	1.497635	-0.445667	0.000005
C29	C	1.729064	-0.458288	0.000027
C30	C	1.730649	-0.398882	0.000040
C31	C	1.615727	-0.362868	0.000036
C32	C	1.499220	-0.386261	0.000019
C33	C	1.266190	-0.433042	-0.000032
C34	C	1.267787	-0.373629	-0.000032
C35	C	1.384303	-0.350237	-0.000013
C36	C	1.385883	-0.290840	0.000028
N37	N	1.502392	-0.267444	0.000032
C38	C	1.617314	-0.303458	0.000037
C39	C	1.376208	-0.653234	-0.000018
C40	C	1.374620	-0.712642	-0.000009
C41	C	1.606059	-0.725261	0.000002
C42	C	1.607646	-0.665851	0.000002
C43	C	1.492717	-0.629838	-0.000013
C44	C	1.620634	-0.178700	0.000066
C45	C	1.622209	-0.119287	0.000085
C46	C	1.390770	-0.106674	0.000067
C47	C	1.389194	-0.166081	0.000055
C48	C	1.504137	-0.202093	0.000050
O49	O	1.288349	-0.254705	0.000068
O50	O	1.716543	-0.278095	0.000025
C51	C	1.730530	0.080819	0.000049
C52	C	1.871422	0.082516	0.000045
C53	C	1.487835	0.188111	0.000008
C54	C	1.489542	0.251339	-0.000012
N55	N	1.498382	0.084035	0.360383
N56	N	1.498457	0.084026	-0.360302
C57	C	1.393237	0.130226	0.580734
C58	C	1.393459	0.130399	0.419567
C59	C	1.630662	0.097553	0.418834
C60	C	1.630087	0.097880	0.580052
C61	C	1.472575	0.024176	0.580312
C62	C	1.469515	0.024564	0.419085
H63	H	0.916338	-0.004461	0.095309
H64	H	1.279741	-0.731682	-0.000000
H65	H	1.133224	-0.001874	-0.094785
N66	N	1.145128	-0.007816	0.118797
N67	N	1.226065	-0.050289	0.102967
H68	H	1.264521	-0.071536	0.186834
N69	N	1.658848	0.152658	0.627179
N70	N	1.679201	0.190380	0.541003
H71	H	1.699514	0.229069	0.574278
N72	N	1.723466	-0.762045	0.000007
N73	N	1.801120	-0.759645	0.097504
H74	H	1.884035	-0.785624	0.097510
H75	H	1.702524	-0.646810	0.000017
N76	N	1.414102	0.186103	0.371168
N77	N	1.508827	0.192486	0.296893
H78	H	1.523408	0.231831	0.262722
H79	H	1.104360	0.093469	0.230311
H80	H	0.884830	0.094655	0.230983
H81	H	1.654143	0.140725	0.378431
H82	H	1.294574	0.122217	0.619543
N83	N	1.269899	0.120473	0.370007
N84	N	1.182902	0.113361	0.454487
H85	H	1.095564	0.106457	0.419495
H86	H	1.297204	-0.077341	0.000068
H87	H	1.825528	-0.379842	0.000050
N88	N	1.258800	-0.616449	0.000017
N89	N	1.233849	-0.581899	0.097520
H90	H	1.150930	-0.555923	0.097546
H91	H	1.409455	0.174378	0.621220
H92	H	0.914735	-0.004357	-0.093599
H93	H	1.085389	0.161861	0.140557
H94	H	1.372213	0.014318	0.380883
N95	N	1.846476	-0.495062	0.000022
N96	N	1.950481	-0.474156	0.000032
H97	H	2.033412	-0.500123	0.000037
H98	H	1.710789	0.065586	0.619054
N99	N	1.150373	-0.336852	-0.000065
N100	N	1.046360	-0.357751	-0.000090
H101	H	0.963435	-0.331778	-0.000114
H102	H	1.717094	-0.100245	0.000104
N103	N	1.559472	-0.020635	0.368536
N104	N	1.646716	-0.009702	0.288071
H105	H	1.710258	-0.041622	0.252369
N106	N	1.117078	0.089488	-0.255378
N107	N	1.234128	0.088338	-0.277900
H108	H	1.272503	0.069614	-0.364996
H109	H	0.888817	0.091335	-0.230875
H110	H	1.171310	-0.452077	-0.000056
N111	N	0.854566	0.172478	0.131968
N112	N	0.735528	0.181476	0.136263
H113	H	0.692334	0.221972	0.137033
N114	N	1.731188	0.056490	0.370763
N115	N	1.729664	0.004730	0.399120
H116	H	1.800659	-0.024272	0.365169
N117	N	1.270175	-0.189976	0.000020
N118	N	1.243475	-0.221704	-0.097495
H119	H	1.159414	-0.238576	-0.097533
N120	N	0.854237	0.170947	-0.139692
N121	N	0.919159	0.212264	-0.144874
H122	H	0.875350	0.252592	-0.150203
H123	H	1.378260	0.011310	0.621049
N124	N	1.568847	-0.018958	0.628155
N125	N	1.656189	-0.005757	0.705649
H126	H	1.724185	-0.036215	0.739447
H127	H	1.083578	0.162484	-0.136989
H128	H	1.714231	-0.208014	0.000056
