data_functionalizedCrystal
_audit_creation_method	'MofGen! by Chris Wilmer'
_symmetry_space_group_name_H-M	'P1'
_symmetry_Int_Tables_number	1
_symmetry_cell_setting	triclinic
loop_
_symmetry_equiv_pos_as_xyz
  x,y,z
_cell_length_a	17.077404
_cell_length_b	17.639306
_cell_length_c	17.077402
_cell_angle_alpha	101.183980
_cell_angle_beta	90.023108
_cell_angle_gamma	78.775351
loop_
_atom_site_label
_atom_site_type_symbol
_atom_site_fract_x
_atom_site_fract_y
_atom_site_fract_z
Zn1	Zn	1.289720	-0.446894	-0.402230
Zn2	Zn	1.263108	-0.314720	-0.506967
Zn3	Zn	1.131936	-0.314737	-0.375723
Zn4	Zn	1.158411	-0.446848	-0.533449
O5	O	1.210794	-0.380800	-0.454592
O6	O	1.396039	-0.429373	-0.416134
O7	O	1.223490	-0.204119	-0.467381
O8	O	1.152924	-0.332294	-0.269398
O9	O	1.376487	-0.332265	-0.493084
O10	O	1.268848	-0.429389	-0.288872
O11	O	1.127119	-0.204131	-0.370957
O12	O	1.025599	-0.332250	-0.396635
O13	O	1.198047	-0.557458	-0.538218
O14	O	1.045050	-0.429311	-0.512516
O15	O	1.294519	-0.557492	-0.441812
O16	O	1.249162	-0.332221	-0.620322
O17	O	1.172242	-0.429295	-0.639777
C18	C	1.006842	-0.380778	-0.454573
C19	C	0.919594	-0.380787	-0.454588
C20	C	0.888736	-0.431246	-0.514987
C21	C	0.806758	-0.431259	-0.514991
C22	C	0.755638	-0.380808	-0.454599
C23	C	0.786501	-0.330347	-0.394195
C24	C	0.868479	-0.330339	-0.394188
C25	C	0.615635	-0.330366	-0.394214
C26	C	0.533652	-0.330373	-0.394221
C27	C	0.553914	-0.431286	-0.515017
C28	C	0.635892	-0.431278	-0.515010
C29	C	0.666749	-0.380816	-0.454606
C30	C	1.252205	-0.586955	-0.495926
C31	C	1.269852	-0.674806	-0.513539
C32	C	1.077038	-0.963793	-0.320489
C33	C	1.093637	-1.046343	-0.337056
C34	C	1.193978	-1.046310	-0.437453
C35	C	1.177390	-0.963759	-0.420891
C36	C	1.118918	-0.922507	-0.362409
C37	C	1.219270	-0.922472	-0.462811
C38	C	1.202680	-0.839928	-0.446253
C39	C	1.144209	-0.798671	-0.387775
C40	C	1.102328	-0.839963	-0.345851
C41	C	1.277738	-0.963726	-0.521296
C42	C	1.319618	-0.922439	-0.563216
C43	C	1.303032	-0.839894	-0.546655
C44	C	1.244562	-0.798636	-0.488177
C45	C	1.344914	-0.798602	-0.588579
C46	C	1.328323	-0.716058	-0.572021
C47	C	1.227971	-0.716092	-0.471620
C48	C	1.415543	-0.380822	-0.454611
C49	C	1.502794	-0.380832	-0.454620
C50	C	1.210712	-0.380768	-0.658534
C51	C	1.210754	-0.380781	-0.745786
C52	C	1.169589	-0.175447	-0.413363
C53	C	1.152095	-0.087596	-0.395528
C54	C	1.250868	-0.330289	-0.776630
C55	C	1.250911	-0.330309	-0.858615
C56	C	1.210833	-0.380818	-0.909753
C57	C	1.170718	-0.431316	-0.878904
C58	C	1.170680	-0.431299	-0.796922
C59	C	1.170796	-0.431346	-1.049780
C60	C	1.170832	-0.431362	-1.131768
C61	C	1.251027	-0.330356	-1.111473
C62	C	1.250990	-0.330339	-1.029491
C63	C	1.210872	-0.380836	-0.998647
C64	C	1.210901	-0.380849	-0.249858
C65	C	1.210947	-0.380870	-0.162612
H66	H	0.744874	-0.289273	-0.345020
H67	H	1.283500	-0.289156	-0.734997
H68	H	1.283575	-0.289193	-0.883723
H69	H	1.283619	-0.289208	-0.987853
O70	O	0.523960	-0.480221	-0.573788
C71	C	0.506533	-0.518366	-0.715023
C72	C	0.540486	-0.462894	-0.648543
H73	H	0.519897	-0.504388	-0.775479
H74	H	0.439152	-0.509704	-0.704720
H75	H	0.535467	-0.582118	-0.714085
H76	H	0.511614	-0.399121	-0.649442
H77	H	0.607870	-0.471624	-0.658870
O78	O	1.376508	-0.962428	-0.619966
C79	C	1.515101	-0.987711	-0.663108
C80	C	1.450747	-0.942362	-0.598792
H81	H	1.575142	-0.971517	-0.646003
H82	H	1.498088	-0.971444	-0.723153
H83	H	1.519723	-1.053795	-0.667755
H84	H	1.446093	-0.876268	-0.594073
H85	H	1.467787	-0.958695	-0.538779
H86	H	1.362437	-0.682442	-0.606146
H87	H	1.392516	-0.832201	-0.636201
H88	H	1.283695	-0.289242	-1.136590
H89	H	0.893602	-0.289255	-0.345002
O90	O	1.131901	-0.480507	-1.181340
C91	C	1.052338	-0.580675	-1.192820
C92	C	1.096407	-0.525068	-1.136593
H93	H	1.023615	-0.616705	-1.156662
H94	H	1.096652	-0.622088	-1.239433
H95	H	1.004071	-0.544351	-1.223990
H96	H	1.144672	-0.561328	-1.105367
H97	H	1.052044	-0.483653	-1.090028
O98	O	0.938378	-0.480369	-0.573591
C99	C	0.990429	-0.614742	-0.638869
C100	C	0.934195	-0.559198	-0.572458
H101	H	0.987053	-0.678486	-0.637987
H102	H	1.054345	-0.606139	-0.628504
H103	H	0.971476	-0.600711	-0.699327
H104	H	0.953075	-0.573194	-0.511973
H105	H	0.870292	-0.567811	-0.582894
H106	H	1.241583	-1.079908	-0.485071
O107	O	1.171067	-0.676046	-0.414900
C108	C	1.032495	-0.650826	-0.371699
C109	C	1.096853	-0.696215	-0.435995
H110	H	0.972481	-0.667128	-0.388722
H111	H	1.027765	-0.584730	-0.367074
H112	H	1.049612	-0.667060	-0.311663
H113	H	1.079783	-0.680047	-0.496064
H114	H	1.101570	-0.762300	-0.440549
H115	H	1.130697	-0.731458	-0.374301
O116	O	1.131957	-0.480481	-1.019796
C117	C	1.142694	-0.587126	-0.948542
C118	C	1.186783	-0.531549	-0.982479
H119	H	1.186998	-0.628418	-0.918348
H120	H	1.114077	-0.623288	-0.999145
H121	H	1.094348	-0.550773	-0.902957
H122	H	1.235165	-0.567841	-1.028053
H123	H	1.215344	-0.495385	-0.931833
H124	H	1.054722	-0.806374	-0.298221
O125	O	1.131671	-0.480344	-0.928482
C126	C	1.005800	-0.518564	-0.961352
C127	C	1.049928	-0.463004	-0.905139
H128	H	0.939702	-0.504554	-0.942510
H129	H	1.032271	-0.582318	-0.957962
H130	H	1.012757	-0.509917	-1.025245
H131	H	1.042988	-0.471580	-0.841222
H132	H	1.023448	-0.399270	-0.908598
H133	H	0.781638	-0.472347	-0.564174
O134	O	1.052882	-1.086487	-0.296447
C135	C	0.965686	-1.179730	-0.304576
C136	C	1.011783	-1.134300	-0.350659
H137	H	0.932460	-1.218410	-0.348389
H138	H	0.920996	-1.136103	-0.259954
H139	H	1.009528	-1.218350	-0.271267
H140	H	0.968002	-1.095678	-0.384016
H141	H	1.056485	-1.177970	-0.395235
O142	O	0.484047	-0.281273	-0.335573
C143	C	0.431873	-0.146915	-0.270324
C144	C	0.488102	-0.202424	-0.336761
H145	H	0.435120	-0.083154	-0.271274
H146	H	0.450822	-0.160855	-0.209831
H147	H	0.368001	-0.155647	-0.280719
H148	H	0.551990	-0.193724	-0.326442
H149	H	0.469086	-0.188471	-0.397232
O150	O	1.131775	-0.480457	-0.767063
C151	C	1.120598	-0.614868	-0.768863
C152	C	1.164706	-0.559279	-0.802757
H153	H	1.147216	-0.678608	-0.797695
H154	H	1.054519	-0.601004	-0.782270
H155	H	1.127438	-0.606140	-0.701482
H156	H	1.157929	-0.567976	-0.870142
H157	H	1.230767	-0.573157	-0.789288
H158	H	0.640757	-0.289282	-0.345021
O159	O	0.685537	-0.480398	-0.573614
C160	C	0.737595	-0.614769	-0.638896
C161	C	0.681357	-0.559229	-0.572486
H162	H	0.734222	-0.678514	-0.638017
H163	H	0.801510	-0.606162	-0.628526
H164	H	0.718644	-0.600736	-0.699353
H165	H	0.700235	-0.573227	-0.512000
H166	H	0.617455	-0.567845	-0.582925
H167	H	1.029432	-0.930204	-0.272859
H168	H	1.291246	-1.030938	-0.534774
