data_functionalizedCrystal
_audit_creation_method	'MofGen! by Chris Wilmer'
_symmetry_space_group_name_H-M	'P1'
_symmetry_Int_Tables_number	1
_symmetry_cell_setting	triclinic
loop_
_symmetry_equiv_pos_as_xyz
  x,y,z
_cell_length_a	16.974800
_cell_length_b	14.519731
_cell_length_c	15.455313
_cell_angle_alpha	92.669259
_cell_angle_beta	90.973911
_cell_angle_gamma	83.539176
loop_
_atom_site_label
_atom_site_type_symbol
_atom_site_fract_x
_atom_site_fract_y
_atom_site_fract_z
O1	O	1.049248	0.117561	0.001549
O2	O	0.819836	0.131644	-0.014563
O3	O	0.940615	-0.009630	-0.006073
O4	O	0.928469	0.258835	-0.006941
O5	O	0.933709	-0.001585	0.137704
O6	O	0.812929	0.139690	0.129214
O7	O	1.042341	0.125606	0.145326
Cu8	Cu	0.927005	0.133383	0.150397
Cu9	Cu	0.935173	0.123868	-0.019635
O10	O	0.921562	0.266881	0.136835
C11	C	0.787022	0.134984	0.055263
C12	C	0.699538	0.132938	0.049119
C13	C	0.654677	0.136360	0.124607
C14	C	0.572477	0.134422	0.118837
C15	C	0.535139	0.129070	0.037578
C16	C	0.580006	0.125645	-0.037916
C17	C	0.662205	0.127575	-0.032145
C18	C	0.289706	0.122818	0.011913
C19	C	0.207501	0.120891	0.006147
C20	C	0.199978	0.129667	0.162901
C21	C	0.282178	0.131603	0.168665
C22	C	0.327038	0.128173	0.093172
N23	N	0.451118	0.127092	0.031677
N24	N	0.411059	0.130144	0.099073
C25	C	0.936593	-0.039967	0.065776
C26	C	0.934887	-0.142348	0.065657
C27	C	0.933501	-0.225494	0.065557
C28	C	0.931770	-0.329804	0.065429
C29	C	0.930396	-0.412944	0.065327
C30	C	0.928665	-0.517261	0.065200
C31	C	1.075155	0.122266	0.075497
C32	C	1.162640	0.124313	0.081636
C33	C	0.925585	0.297218	0.064985
C34	C	0.927290	0.399599	0.065098
N35	N	0.921265	0.140074	0.269990
N36	N	0.940918	0.117169	-0.139227
C37	C	0.972595	0.080078	0.318992
C38	C	0.968262	0.085147	0.409495
C39	C	0.912603	0.150217	0.450995
C40	C	0.861268	0.210216	0.401986
C41	C	0.865598	0.205142	0.311484
C42	C	0.893913	0.172094	0.721262
C43	C	0.889589	0.177165	0.811771
C44	C	0.996582	0.052095	0.819274
C45	C	1.000910	0.047030	0.728771
C46	C	0.949573	0.107026	0.679769
N47	N	0.908174	0.155402	0.543504
N48	N	0.953998	0.101836	0.587262
H49	H	0.698730	0.124791	-0.093616
C50	C	1.062131	-0.024550	0.683118
C51	C	1.125420	0.008200	0.625113
C52	C	1.186643	-0.063377	0.579457
C53	C	1.184577	-0.167704	0.591807
C54	C	1.121286	-0.200459	0.649815
C55	C	1.060063	-0.128882	0.695470
H56	H	1.126952	0.085433	0.615968
H57	H	1.233496	-0.039130	0.536515
H58	H	1.229898	-0.220690	0.558010
H59	H	1.119754	-0.277693	0.658959
H60	H	1.013210	-0.153130	0.738412
C61	C	1.053045	-0.013905	0.873175
C62	C	1.048287	-0.008334	0.972724
C63	C	1.104751	-0.074340	1.026624
C64	C	1.165972	-0.145916	0.980975
C65	C	1.170732	-0.151490	0.881421
C66	C	1.114269	-0.085484	0.827521
H67	H	1.002966	0.044654	1.006521
H68	H	1.101227	-0.070213	1.100321
H69	H	1.207770	-0.194778	1.020875
H70	H	1.216054	-0.204478	0.847624
H71	H	1.117793	-0.089610	0.753824
C72	C	0.538935	0.119757	-0.127303
C73	C	0.492291	0.037220	-0.152199
C74	C	0.451221	0.031335	-0.241587
C75	C	0.456795	0.107988	-0.306079
C76	C	0.503441	0.190531	-0.281184
C77	C	0.544511	0.196415	-0.191796
H78	H	0.488163	-0.019528	-0.104457
H79	H	0.416691	-0.029769	-0.260016
H80	H	0.426393	0.103632	-0.372250
H81	H	0.507569	0.247279	-0.328927
H82	H	0.579042	0.257519	-0.173368
H83	H	0.823799	0.253996	0.271586
H84	H	0.312573	0.135957	0.234836
C85	C	0.828356	0.248746	0.857418
C86	C	0.739215	0.246199	0.838702
C87	C	0.677987	0.317778	0.884348
C88	C	0.705899	0.391903	0.948710
C89	C	0.795045	0.394452	0.967429
C90	C	0.856273	0.322874	0.921783
H91	H	0.718548	0.191325	0.791055
H92	H	0.611995	0.315890	0.870491
H93	H	0.660575	0.444890	0.982500
H94	H	0.815712	0.449327	1.015076
H95	H	0.922265	0.324762	0.935640
H96	H	1.017921	0.027095	0.285210
H97	H	0.177102	0.116534	-0.060027
H98	H	1.010057	0.036293	0.449393
C99	C	0.800041	0.281796	0.447630
C100	C	0.795312	0.287429	0.547181
C101	C	0.734085	0.359013	0.592822
C102	C	0.677588	0.424964	0.538913
C103	C	0.682315	0.419333	0.439356
C104	C	0.743542	0.347749	0.393715
H105	H	0.837136	0.238606	0.587093
H106	H	0.730586	0.363181	0.666521
H107	H	0.632264	0.477955	0.572699
H108	H	0.640491	0.468156	0.399444
H109	H	0.747041	0.343581	0.320016
H110	H	0.685071	0.140726	0.190778
C111	C	0.523126	0.138190	0.201872
C112	C	0.474419	0.058061	0.220089
C113	C	0.425066	0.061827	0.303127
C114	C	0.424419	0.145724	0.367948
C115	C	0.473127	0.225860	0.349733
C116	C	0.522481	0.222093	0.266695
H117	H	0.474897	-0.004050	0.172103
H118	H	0.389009	0.002505	0.316611
H119	H	0.387884	0.148513	0.429418
H120	H	0.472650	0.287971	0.397719
H121	H	0.558538	0.281416	0.253212
H122	H	0.852114	0.220947	0.681372
C123	C	0.150630	0.133431	0.245940
C124	C	0.149991	0.217321	0.310767
C125	C	0.100645	0.221082	0.393810
C126	C	0.051937	0.140953	0.412025
C127	C	0.052574	0.057056	0.347195
C128	C	0.101921	0.053295	0.264153
H129	H	0.186049	0.276643	0.297285
H130	H	0.100173	0.283188	0.441801
H131	H	0.015407	0.143737	0.473497
H132	H	0.016516	-0.002266	0.360677
H133	H	0.102392	-0.008811	0.216162
H134	H	0.326222	0.120023	-0.049559
