data_functionalizedCrystal
_audit_creation_method	'MofGen! by Chris Wilmer'
_symmetry_space_group_name_H-M	'P1'
_symmetry_Int_Tables_number	1
_symmetry_cell_setting	triclinic
loop_
_symmetry_equiv_pos_as_xyz
  x,y,z
_cell_length_a	18.426585
_cell_length_b	17.052862
_cell_length_c	17.052862
_cell_angle_alpha	61.493325
_cell_angle_beta	89.998903
_cell_angle_gamma	70.265468
loop_
_atom_site_label
_atom_site_type_symbol
_atom_site_fract_x
_atom_site_fract_y
_atom_site_fract_z
Zr1	Zr	0.841080	0.816717	-0.200489
O2	O	0.760936	0.944608	-0.328614
O3	O	0.848003	0.665995	-0.146298
O4	O	0.886890	0.783800	-0.307112
O5	O	0.711445	0.860730	-0.057912
O6	O	1.006317	0.783804	-0.307115
O7	O	0.722048	0.826803	-0.167800
O8	O	0.936754	0.573074	-0.019449
O9	O	0.781008	1.071461	-0.345579
O10	O	0.961401	0.736448	-0.141207
O11	O	0.864361	0.761764	-0.059196
O12	O	0.910146	0.900463	-0.248534
O13	O	0.813106	0.925779	-0.166523
Zr14	Zr	1.014641	0.870833	-0.025236
Zr15	Zr	1.031552	0.816724	-0.200494
Zr16	Zr	0.824169	0.870825	-0.025230
Zr17	Zr	0.873092	1.019032	-0.227546
Zr18	Zr	0.982628	0.668517	0.001821
O19	O	1.007718	1.021554	-0.079426
O20	O	1.031763	0.944618	-0.328622
O21	O	0.736891	1.021544	-0.079418
O22	O	1.094785	0.742941	0.102890
O23	O	1.118830	0.666005	-0.146306
O24	O	0.823958	0.742931	0.102898
O25	O	1.144275	0.826819	-0.167812
O26	O	0.968831	0.903749	0.081388
O27	O	0.849404	0.903745	0.081391
O28	O	1.133672	0.860746	-0.057924
O29	O	0.932408	1.071466	-0.345583
O30	O	0.923313	0.616083	0.119859
O31	O	1.074713	0.616089	0.119854
O32	O	1.088154	0.573079	-0.019453
O33	O	0.767566	1.114470	-0.206271
O34	O	0.918966	1.114476	-0.206276
O35	O	0.945575	0.787086	0.022810
O36	O	1.042615	0.761770	-0.059201
O37	O	0.991360	0.925786	-0.166528
O38	O	0.894320	0.951101	-0.084517
C39	C	0.887817	0.590709	-0.079018
C40	C	0.874227	0.504821	-0.067532
C41	C	0.689609	0.843766	-0.112855
C42	C	0.608748	0.843762	-0.112853
C43	C	1.038533	0.209863	-0.206402
C44	C	1.051301	0.290562	-0.217200
C45	C	1.007034	0.344130	-0.179783
C46	C	0.949997	0.316992	-0.131568
C47	C	0.937224	0.236290	-0.120775
C48	C	0.905724	0.370557	-0.094157
C49	C	0.848687	0.343419	-0.045941
C50	C	0.835917	0.262724	-0.035149
C51	C	0.880184	0.209155	-0.072566
C52	C	0.918497	0.451259	-0.104950
C53	C	0.817187	0.477686	-0.019323
C54	C	0.804420	0.396987	-0.008525
C55	C	0.312640	0.843791	-0.112871
C56	C	0.395025	0.843787	-0.112869
C57	C	0.460691	0.843777	-0.112863
C58	C	0.543082	0.843773	-0.112859
C59	C	1.166112	0.843784	-0.112869
C60	C	1.246973	0.843787	-0.112872
C61	C	0.949013	0.776093	-0.332084
C62	C	0.956192	0.753122	-0.406486
C63	C	0.967903	1.096840	-0.146706
C64	C	0.981494	1.182728	-0.158192
C65	C	0.869398	1.030837	-0.840313
C66	C	0.862649	1.052422	-0.770410
C67	C	0.886034	0.977599	-0.679427
C68	C	0.916170	0.881187	-0.658351
C69	C	0.922915	0.859600	-0.728260
C70	C	0.939551	0.806362	-0.567374
C71	C	0.969686	0.709950	-0.546298
C72	C	0.976430	0.688367	-0.616201
C73	C	0.953045	0.763190	-0.707185
C74	C	0.932806	0.827949	-0.497465
C75	C	0.986322	0.656712	-0.385412
C76	C	0.993072	0.635127	-0.455314
C77	C	0.906708	0.911456	0.106360
C78	C	0.899529	0.934427	0.180762
C79	C	1.126069	0.590718	-0.079025
C80	C	1.193339	0.504833	-0.067541
C81	C	0.866665	0.658391	0.140204
C82	C	0.845895	0.595473	0.226092
C83	C	1.104916	0.658400	0.140197
C84	C	1.165008	0.595485	0.226083
C85	C	0.750804	1.029149	-0.365921
C86	C	0.690713	1.092064	-0.451807
C87	C	0.729652	1.096831	-0.146699
C88	C	0.662381	1.182716	-0.158183
C89	C	0.989056	1.029158	-0.365928
C90	C	1.009825	1.092076	-0.451817
C91	C	1.182538	0.451280	-0.104962
C92	C	1.245742	0.370588	-0.094189
C93	C	1.319745	0.343446	-0.045990
C94	C	1.330545	0.397007	-0.008570
C95	C	1.267344	0.477702	-0.019348
C96	C	0.878534	0.579147	0.309240
C97	C	0.859017	0.520042	0.389946
C98	C	0.806865	0.477260	0.387504
C99	C	0.774223	0.493592	0.304347
C100	C	0.793736	0.552701	0.223642
C101	C	1.243889	0.552725	0.223607
C102	C	1.300361	0.493620	0.304298
C103	C	1.277949	0.477269	0.387464
C104	C	1.199060	0.520037	0.389937
C105	C	1.142591	0.579147	0.309247
C106	C	0.611833	1.134834	-0.449333
C107	C	0.555365	1.193964	-0.530027
C108	C	0.577778	1.210319	-0.613194
C109	C	0.656666	1.167546	-0.615666
C110	C	0.713133	1.108422	-0.534974
C111	C	0.673185	1.236275	-0.120771
C112	C	0.609986	1.316984	-0.131566
C113	C	0.535984	1.344128	-0.179767
C114	C	0.525182	1.290564	-0.217184
C115	C	0.588381	1.209861	-0.206395
C116	C	1.061979	1.134841	-0.449345
C117	C	1.081509	1.193950	-0.530038
C118	C	1.048880	1.210299	-0.613202
C119	C	0.996723	1.167526	-0.615672
C120	C	0.977198	1.108413	-0.534979
H121	H	0.964937	0.473348	-0.144208
H122	H	0.484530	1.409843	-0.188546
H123	H	1.078362	0.613955	0.311276
H124	H	0.869796	0.143439	-0.063771
H125	H	1.064785	1.258435	-0.678901
H126	H	0.531791	1.258463	-0.678892
H127	H	1.017432	0.409838	-0.188578
H128	H	0.850357	1.091748	-0.914392
H129	H	1.088554	1.121542	-0.381636
H130	H	0.777360	1.073597	-0.536999
H131	H	1.390807	0.374896	0.030673
H132	H	0.464922	1.312677	-0.256431
H133	H	1.097739	0.312655	-0.256457
H134	H	0.579573	1.166255	-0.236859
H135	H	0.767157	0.565983	0.155944
H136	H	1.123977	1.228772	-0.528010
H137	H	1.276148	0.521297	0.011131
H138	H	0.491135	1.228781	-0.527996
H139	H	1.017608	0.556627	-0.438165
H140	H	0.838113	1.130921	-0.787577
H141	H	0.970160	1.180847	-0.683396
H142	H	0.880536	0.995180	-0.622512
H143	H	1.000961	0.609861	-0.599035
H144	H	1.323938	0.429136	0.453161
H145	H	0.908267	0.906449	-0.514634
H146	H	1.005361	0.595785	-0.311329
H147	H	1.180822	0.506715	0.457662
H148	H	0.920999	0.613976	0.311245
H149	H	0.757979	0.374880	0.030732
H150	H	0.958541	0.745621	-0.764110
H151	H	0.934727	1.073599	-0.537004
H152	H	0.618796	1.360585	-0.101091
H153	H	1.074566	0.166248	-0.236868
H154	H	1.236932	0.326986	-0.124663
H155	H	0.789468	0.240637	0.004103
H156	H	1.371201	0.277737	-0.037220
H157	H	0.733435	1.214184	-0.081516
H158	H	0.781140	0.521304	0.011142
H159	H	1.122289	0.473373	-0.144220
H160	H	0.885605	0.506753	0.457647
H161	H	0.790983	0.429131	0.453226
H162	H	0.731759	0.458750	0.302372
H163	H	1.262152	0.566026	0.155897
H164	H	1.364592	0.458802	0.302268
H165	H	0.593569	1.121521	-0.381621
H166	H	0.674907	1.180870	-0.683390
