data_functionalizedCrystal
_audit_creation_method	'MofGen! by Chris Wilmer'
_symmetry_space_group_name_H-M	'P1'
_symmetry_Int_Tables_number	1
_symmetry_cell_setting	triclinic
loop_
_symmetry_equiv_pos_as_xyz
  x,y,z
_cell_length_a	19.288864
_cell_length_b	11.792241
_cell_length_c	17.766277
_cell_angle_alpha	89.993523
_cell_angle_beta	89.976791
_cell_angle_gamma	83.664831
loop_
_atom_site_label
_atom_site_type_symbol
_atom_site_fract_x
_atom_site_fract_y
_atom_site_fract_z
O1	O	0.922157	0.141582	-0.062836
O2	O	0.720005	0.160681	-0.062785
O3	O	0.825987	-0.014113	-0.062806
O4	O	0.816176	0.316377	-0.062814
O5	O	0.825968	-0.014122	0.062382
O6	O	0.719986	0.160673	0.062404
O7	O	0.922139	0.141573	0.062352
Cu8	Cu	0.821061	0.151122	0.073809
Cu9	Cu	0.821083	0.151133	-0.074241
O10	O	0.816157	0.316368	0.062374
C11	C	0.694116	0.160063	-0.000184
C12	C	0.617002	0.158218	-0.000164
C13	C	0.572888	0.260779	-0.000178
C14	C	0.500431	0.259046	-0.000187
C15	C	0.472091	0.154746	-0.000196
C16	C	0.516215	0.052171	-0.000177
C17	C	0.588670	0.053907	-0.000161
C18	C	0.363370	0.072757	-0.044078
C19	C	0.290916	0.071025	-0.044099
C20	C	0.248615	0.149387	-0.000241
C21	C	0.278776	0.229499	0.043627
C22	C	0.351232	0.231235	0.043643
C23	C	0.393526	0.152852	-0.000212
C24	C	0.125935	0.250076	-0.000263
C25	C	0.053477	0.248339	-0.000267
C26	C	0.069262	0.041460	-0.000265
C27	C	0.141718	0.043201	-0.000254
C28	C	0.170050	0.147512	-0.000257
C29	C	0.825361	-0.056399	-0.000212
C30	C	0.823517	-0.182385	-0.000212
C31	C	0.820125	-0.413045	-0.000224
C32	C	0.822009	-0.284689	-0.000218
C33	C	0.948028	0.142192	-0.000250
C34	C	1.025142	0.144037	-0.000275
C35	C	0.816783	0.358654	-0.000222
C36	C	0.818627	0.484640	-0.000226
N37	N	0.821050	0.151114	0.177939
N38	N	0.821099	0.151132	-0.178371
C39	C	0.867994	0.073753	0.217316
C40	C	0.867998	0.073748	0.296118
C41	C	0.821065	0.151123	0.335540
C42	C	0.774112	0.228490	0.296153
C43	C	0.774105	0.228486	0.217353
C44	C	0.812354	0.254534	0.460377
C45	C	0.812366	0.254540	0.539175
C46	C	0.821084	0.151137	0.578586
C47	C	0.829804	0.047723	0.539188
C48	C	0.829797	0.047719	0.460388
C49	C	0.821067	0.151136	0.420985
C50	C	0.868035	0.073764	0.703409
C51	C	0.868034	0.073757	0.782213
C52	C	0.774151	0.228509	0.782246
C53	C	0.774148	0.228506	0.703444
C54	C	0.821094	0.151135	0.664030
H55	H	0.244336	0.293308	0.079341
C56	C	0.802766	0.368296	0.582506
N57	N	0.795532	0.453980	0.615140
C58	C	0.004951	0.361171	-0.000272
N59	N	-0.031600	0.446158	-0.000273
C60	C	0.722482	0.313599	0.339518
N61	N	0.683590	0.377701	0.372181
H62	H	0.397806	0.008943	-0.079797
C63	C	0.919669	-0.011356	0.660052
N64	N	0.958559	-0.075471	0.627397
C65	C	0.637197	-0.058924	-0.000151
N66	N	0.673749	-0.143910	-0.000145
H67	H	0.149004	0.335012	-0.000255
H68	H	0.177637	-0.040316	-0.000246
H69	H	0.046188	-0.043463	-0.000319
C70	C	0.722556	0.313693	0.660127
N71	N	0.683709	0.377884	0.627501
H72	H	0.595951	0.345717	-0.000182
H73	H	0.735876	0.291484	0.185291
C74	C	0.802763	0.368293	0.417033
N75	N	0.795540	0.453974	0.384387
C76	C	0.919650	-0.011348	0.339442
N77	N	0.958556	-0.075437	0.372071
H78	H	0.464507	0.342567	-0.000196
C79	C	0.485039	-0.062560	-0.000188
N80	N	0.461558	-0.148979	-0.000194
C81	C	0.384407	0.319347	0.091905
N82	N	0.409395	0.385709	0.128260
C83	C	0.257746	-0.017106	-0.092349
N84	N	0.232765	-0.083493	-0.128689
C85	C	0.919629	-0.011369	0.173966
N86	N	0.958519	-0.075488	0.141314
H87	H	0.836902	-0.036478	0.571275
C88	C	0.919667	-0.011371	0.825527
N89	N	0.958555	-0.075495	0.858153
C90	C	0.722523	0.313625	0.825605
N91	N	0.683636	0.377735	0.858267
C92	C	0.839379	-0.066034	0.417053
N93	N	0.846593	-0.151715	0.384414
