data_functionalizedCrystal
_audit_creation_method	'MofGen! by Chris Wilmer'
_symmetry_space_group_name_H-M	'P1'
_symmetry_Int_Tables_number	1
_symmetry_cell_setting	triclinic
loop_
_symmetry_equiv_pos_as_xyz
  x,y,z
_cell_length_a	12.759401
_cell_length_b	29.839131
_cell_length_c	12.759393
_cell_angle_alpha	90.032646
_cell_angle_beta	90.020938
_cell_angle_gamma	90.043227
loop_
_atom_site_label
_atom_site_type_symbol
_atom_site_fract_x
_atom_site_fract_y
_atom_site_fract_z
Zn1	Zn	1.606069	-0.178813	0.594004
Zn2	Zn	1.605878	-0.253950	0.418318
Zn3	Zn	1.430368	-0.178837	0.418340
Zn4	Zn	1.430277	-0.253919	0.593955
O5	O	1.518148	-0.216380	0.506154
O6	O	1.753065	-0.188784	0.570711
O7	O	1.582554	-0.244010	0.271300
O8	O	1.453793	-0.115967	0.441672
O9	O	1.752924	-0.243986	0.441635
O10	O	1.582880	-0.115949	0.570732
O11	O	1.453608	-0.188824	0.271316
O12	O	1.283335	-0.188794	0.441624
O13	O	1.453639	-0.243933	0.740983
O14	O	1.283268	-0.243956	0.570648
O15	O	1.582792	-0.188753	0.741019
O16	O	1.582466	-0.316813	0.441587
O17	O	1.453453	-0.316790	0.570627
C18	C	1.245181	-0.216375	0.506133
C19	C	1.128404	-0.216383	0.506149
C20	C	1.073535	-0.245150	0.573226
C21	C	0.963811	-0.245151	0.573247
C22	C	0.963835	-0.187618	0.439105
C23	C	1.073557	-0.187615	0.439090
C24	C	0.813897	-0.261271	0.697106
C25	C	0.759024	-0.290045	0.764174
C26	C	0.794573	-0.333888	0.780118
C27	C	0.884994	-0.348966	0.728979
C28	C	0.939861	-0.320195	0.661903
C29	C	0.904313	-0.276346	0.645979
C30	C	1.223473	-0.171499	0.315230
C31	C	1.278342	-0.142730	0.248148
C32	C	1.242795	-0.098886	0.232193
C33	C	1.152371	-0.083810	0.283314
C34	C	1.097501	-0.112579	0.350396
C35	C	1.133056	-0.156422	0.366352
C36	C	1.517957	-0.333103	0.506122
C37	C	1.517971	-0.383037	0.506143
C38	C	1.451014	-0.739628	0.573341
C39	C	1.450875	-0.551955	0.573308
O40	O	1.393717	-0.527693	0.630422
N41	N	1.518082	-0.528482	0.506175
C42	C	1.585334	-0.551931	0.439050
O43	O	1.642502	-0.527659	0.381956
C44	C	1.585477	-0.739603	0.439089
C45	C	1.518258	-0.763073	0.506219
C46	C	1.383802	-0.763098	0.640466
C47	C	1.383833	-0.810013	0.640470
C48	C	1.451077	-0.833459	0.573348
C49	C	1.518290	-0.809988	0.506222
C50	C	1.652733	-0.763050	0.371970
C51	C	1.652765	-0.809971	0.371988
C52	C	1.585546	-0.833442	0.439118
C53	C	1.585565	-0.880349	0.439104
N54	N	1.518358	-0.903822	0.506237
C55	C	1.451114	-0.880377	0.573359
C56	C	1.585252	-0.453400	0.439033
C57	C	1.585215	-0.406482	0.439021
C58	C	1.450758	-0.406510	0.573281
C59	C	1.450790	-0.453428	0.573286
C60	C	1.518045	-0.476873	0.506166
C61	C	1.451184	-0.978902	0.573361
C62	C	1.451218	-1.025822	0.573355
C63	C	1.585679	-1.025790	0.439100
C64	C	1.585641	-0.978875	0.439101
C65	C	1.518390	-0.955432	0.506240
O66	O	1.642701	-0.904640	0.382028
O67	O	1.393971	-0.904656	0.630461
C68	C	1.450983	-0.692712	0.573337
C69	C	1.518195	-0.669242	0.506212
C70	C	1.585439	-0.692687	0.439090
C71	C	1.518158	-0.622324	0.506201
C72	C	1.450915	-0.598879	0.573323
C73	C	1.383708	-0.622352	0.640456
C74	C	1.383739	-0.669267	0.640459
C75	C	1.652646	-0.669215	0.371957
C76	C	1.652609	-0.622299	0.371958
C77	C	1.585365	-0.598854	0.439080
C78	C	1.792181	-0.216386	0.506176
C79	C	1.908958	-0.216388	0.506185
C80	C	1.518227	-0.216337	0.780188
C81	C	1.518260	-0.216318	0.896964
C82	C	1.518368	-0.099202	0.506210
C83	C	1.518462	-0.049267	0.506233
C84	C	1.518130	-0.216391	0.233187
C85	C	1.518300	-0.216282	0.116411
C86	C	1.585516	-0.187582	0.951847
C87	C	1.585533	-0.187562	1.061571
C88	C	1.451037	-0.245020	1.061521
C89	C	1.451015	-0.245037	0.951798
C90	C	1.623204	-0.134558	1.211554
C91	C	1.690476	-0.105825	1.266440
C92	C	1.792996	-0.098936	1.230849
C93	C	1.828265	-0.120786	1.140374
C94	C	1.760999	-0.149522	1.085493
C95	C	1.658464	-0.156403	1.121083
C96	C	1.413356	-0.298042	0.801814
C97	C	1.346094	-0.326781	0.746931
C98	C	1.243572	-0.333675	0.782520
C99	C	1.208306	-0.311832	0.872998
C100	C	1.275568	-0.283093	0.927881
C101	C	1.378089	-0.276199	0.892285
H102	H	1.013479	-0.332471	0.620266
H103	H	0.913925	-0.384669	0.741957
H104	H	1.328951	-0.603255	0.695106
O105	O	0.779516	-0.218651	0.681735
C106	C	0.857808	-0.188147	0.713435
H107	H	0.912175	-0.205079	0.772216
H108	H	0.819614	-0.157702	0.751552
H109	H	0.904944	-0.176992	0.642173
H110	H	0.749888	-0.357316	0.834728
H111	H	1.329095	-0.829119	0.695132
H112	H	1.496835	-0.292428	0.772823
H113	H	1.329044	-0.744013	0.695130
O114	O	1.795409	-0.170767	0.997702
C115	C	1.882068	-0.197986	1.023014
H116	H	1.920768	-0.184893	1.097537
H117	H	1.941022	-0.197171	0.955927
H118	H	1.854489	-0.233902	1.036044
H119	H	1.188812	-0.357080	0.737829
O120	O	1.927878	-0.114032	1.105926
C121	C	1.979694	-0.083993	1.173780
H122	H	1.919314	-0.062791	1.217074
H123	H	2.033379	-0.061213	1.126217
H124	H	2.028289	-0.103683	1.232916
O125	O	0.671242	-0.275321	0.813810
C126	C	0.651621	-0.230453	0.785351
H127	H	0.727590	-0.214157	0.757773
H128	H	0.619927	-0.211382	0.855983
H129	H	0.591482	-0.229539	0.719286
O130	O	1.858201	-0.071002	1.284273
C131	C	1.805104	-0.053210	1.371780
H132	H	1.716971	-0.054675	1.357470
H133	H	1.830057	-0.016898	1.384182
H134	H	1.825348	-0.073666	1.444446
O135	O	1.385468	-0.476156	0.638601
C136	C	1.326093	-0.445396	0.697816
H137	H	1.369101	-0.411930	0.701475
H138	H	1.314849	-0.458929	0.780590
H139	H	1.246318	-0.440455	0.659266
O140	O	1.385802	-0.956086	0.638430
C141	C	1.317936	-0.929002	0.578552
H142	H	1.355033	-0.921970	0.498971
H143	H	1.303794	-0.896008	0.621340
H144	H	1.240104	-0.947127	0.566928
H145	H	1.246846	-0.265308	1.001554
O146	O	1.656033	-0.084617	1.354275
C147	C	1.551119	-0.096861	1.373930
H148	H	1.513010	-0.108688	1.297961
H149	H	1.506497	-0.066688	1.405698
H150	H	1.549014	-0.125107	1.434023
O151	O	1.257827	-0.214119	0.330701
C152	C	1.179554	-0.244626	0.298967
H153	H	1.099876	-0.227392	0.301136
H154	H	1.178944	-0.274604	0.354314
H155	H	1.196547	-0.256551	0.215795
O156	O	1.385591	-0.383711	0.638602
C157	C	1.445365	-0.356517	0.706477
H158	H	1.528116	-0.370620	0.713036
H159	H	1.407334	-0.355975	0.787301
H160	H	1.448981	-0.320968	0.673981
O161	O	1.318413	-0.691993	0.705774
C162	C	1.259046	-0.661231	0.764990
H163	H	1.302061	-0.627768	0.768651
H164	H	1.247800	-0.674764	0.847764
H165	H	1.179271	-0.656287	0.726442
H166	H	1.023878	-0.100299	0.392028
O167	O	1.126768	-0.273043	0.638523
C168	C	1.100002	-0.263284	0.743276
H169	H	1.069900	-0.227398	0.748729
H170	H	1.172179	-0.267177	0.795158
H171	H	1.036288	-0.287385	0.770649
O172	O	1.650602	-0.383755	0.373769
C173	C	1.709938	-0.414516	0.314516
H174	H	1.713570	-0.447945	0.357565
H175	H	1.792715	-0.400928	0.303381
H176	H	1.671513	-0.419547	0.234688
H177	H	1.287474	-0.075464	0.177560
O178	O	0.910392	-0.159718	0.373999
C179	C	0.801782	-0.165880	0.388413
H180	H	0.786757	-0.200570	0.422674
H181	H	0.760046	-0.162791	0.309736
H182	H	0.770717	-0.139264	0.444481
H183	H	1.123415	-0.048112	0.270307
O184	O	1.108669	-0.318561	0.907408
C185	C	1.056873	-0.348618	0.839581
H186	H	1.096534	-0.348118	0.759545
H187	H	0.971423	-0.338131	0.830816
H188	H	1.060776	-0.383910	0.873534
O189	O	1.718009	-0.599573	0.306708
C190	C	1.777344	-0.630333	0.247453
H191	H	1.780965	-0.663764	0.290497
H192	H	1.860124	-0.616748	0.236329
H193	H	1.738926	-0.635360	0.167622
H194	H	1.539721	-0.140161	1.240535
H195	H	1.640021	-0.472484	0.384371
O196	O	1.718162	-0.691986	0.306944
C197	C	1.785993	-0.719061	0.366883
H198	H	1.792299	-0.704902	0.449649
H199	H	1.866911	-0.719524	0.329047
H200	H	1.753620	-0.754648	0.370421
H201	H	1.396478	-1.044929	0.628023
H202	H	1.640268	-0.164196	0.907204
H203	H	1.707536	-0.829057	0.317332
O204	O	1.385823	-0.272904	1.114951
C205	C	1.400245	-0.266720	1.223564
H206	H	1.481357	-0.252008	1.238570
H207	H	1.393062	-0.300365	1.265245
H208	H	1.337981	-0.242790	1.254704
H209	H	1.374820	-0.344570	0.673265
O210	O	1.366069	-0.157441	0.198396
C211	C	1.340633	-0.194485	0.134605
H212	H	1.266135	-0.211038	0.165189
H213	H	1.407698	-0.219696	0.136380
H214	H	1.327501	-0.182679	0.050664
H215	H	1.640424	-1.044888	0.384447
O216	O	1.718138	-0.740328	0.306733
C217	C	1.777476	-0.771092	0.247491
H218	H	1.781088	-0.804522	0.290541
H219	H	1.860259	-0.757509	0.236373
H220	H	1.739065	-0.776121	0.167657
O221	O	1.651022	-0.956143	0.373846
C222	C	1.710352	-0.986900	0.314577
H223	H	1.713989	-1.020332	0.357617
H224	H	1.793128	-0.973311	0.303438
H225	H	1.671919	-0.991927	0.234753
