data_functionalizedCrystal
_audit_creation_method	'MofGen! by Chris Wilmer'
_symmetry_space_group_name_H-M	'P1'
_symmetry_Int_Tables_number	1
_symmetry_cell_setting	triclinic
loop_
_symmetry_equiv_pos_as_xyz
  x,y,z
_cell_length_a	14.044191
_cell_length_b	15.021413
_cell_length_c	14.044209
_cell_angle_alpha	89.997840
_cell_angle_beta	86.810135
_cell_angle_gamma	89.991171
loop_
_atom_site_label
_atom_site_type_symbol
_atom_site_fract_x
_atom_site_fract_y
_atom_site_fract_z
O1	O	1.277155	0.073999	-0.230192
O2	O	1.777155	0.573999	0.269808
O3	O	1.000483	0.074010	-0.221879
O4	O	1.500483	0.574010	0.278121
O5	O	1.134667	0.073992	-0.087700
O6	O	1.634667	0.573992	0.412300
O7	O	1.142971	0.074017	-0.364371
O8	O	1.642971	0.574017	0.135629
O9	O	1.134685	-0.074072	-0.087710
O10	O	1.634685	0.425928	0.412290
O11	O	1.000501	-0.074054	-0.221890
O12	O	1.500501	0.425946	0.278110
O13	O	1.277173	-0.074065	-0.230202
O14	O	1.777173	0.425935	0.269798
Zn15	Zn	1.138840	-0.097568	-0.226048
Zn16	Zn	1.638840	0.402432	0.273952
Zn17	Zn	1.138816	0.097513	-0.226034
Zn18	Zn	1.638816	0.597513	0.273966
O19	O	1.142989	-0.074047	-0.364382
O20	O	1.642989	0.425953	0.135618
C21	C	0.964870	-0.000021	-0.218248
C22	C	1.464870	0.499979	0.281752
C23	C	0.858727	-0.000017	-0.207401
C24	C	1.358727	0.499983	0.292599
C25	C	0.613268	-0.000021	-0.264501
C26	C	1.113268	0.499979	0.235499
C27	C	0.664394	-0.000026	-0.187585
C28	C	1.164394	0.499974	0.312415
C29	C	0.772531	-0.000021	-0.198613
C30	C	1.272531	0.499979	0.301387
C31	C	0.505121	-0.000026	-0.253474
C32	C	1.005121	0.499974	0.246526
N33	N	1.138863	-0.230705	-0.226057
N34	N	1.638863	0.269295	0.273943
C35	C	1.200922	-0.470373	-0.163998
C36	C	1.700922	0.029627	0.336002
C37	C	1.113087	-0.529701	-0.138160
C38	C	1.613087	-0.029701	0.361840
C39	C	1.138839	-0.412312	-0.226043
C40	C	1.638839	0.087688	0.273957
C41	C	1.226648	-0.529726	-0.251823
C42	C	1.726648	-0.029726	0.248177
C43	C	1.138825	-0.587736	-0.226028
C44	C	1.638825	-0.087736	0.273972
C45	C	1.050958	-0.470333	-0.200159
C46	C	1.550958	0.029667	0.299841
C47	C	1.164579	-0.470354	-0.313864
C48	C	1.664579	0.029646	0.186136
C49	C	1.076685	-0.529655	-0.288058
C50	C	1.576685	-0.029655	0.211942
C51	C	1.138849	-0.311255	-0.226050
C52	C	1.638849	0.188745	0.273950
C53	C	1.138805	-0.688792	-0.226022
C54	C	1.638805	-0.188792	0.273978
C55	C	1.312786	-0.000032	-0.233834
C56	C	1.812786	0.499968	0.266166
C57	C	1.418929	-0.000030	-0.244681
C58	C	1.918929	0.499970	0.255319
C59	C	1.131041	-0.000041	-0.052083
C60	C	1.631041	0.499959	0.447917
C61	C	1.120197	-0.000045	0.054060
C62	C	1.620197	0.499955	0.554060
N63	N	1.138800	0.230651	-0.226017
N64	N	1.638800	0.730651	0.273983
C65	C	1.100372	-0.000036	0.248398
C66	C	1.600372	0.499964	0.748398
C67	C	1.177287	-0.000038	0.299526
C68	C	1.677287	0.499962	0.799526
C69	C	1.166257	-0.000034	0.407663
C70	C	1.666257	0.499966	0.907663
C71	C	1.111402	-0.000041	0.140252
C72	C	1.611402	0.499959	0.640252
C73	C	1.146617	-0.000019	0.600001
C74	C	1.646617	0.499981	1.100001
C75	C	1.157467	-0.000030	0.493859
C76	C	1.657467	0.499970	0.993859
H77	H	0.626951	0.000030	-0.113452
H78	H	1.126951	0.500030	0.386548
H79	H	1.186387	-0.444266	-0.388119
H80	H	1.686387	0.055734	0.111881
H81	H	1.300913	-0.555815	-0.273634
H82	H	1.800913	-0.055815	0.226366
C83	C	1.083674	-0.564941	-0.037824
C84	C	1.583674	-0.064941	0.462176
N85	N	1.061532	-0.591489	0.037749
N86	N	1.561532	-0.091489	0.537749
H87	H	1.024115	-0.555520	-0.340519
H88	H	1.524115	-0.055520	0.159481
C89	C	1.277439	-0.000053	0.248947
C90	C	1.777439	0.499947	0.748947
N91	N	1.352871	-0.000070	0.210847
N92	N	1.852871	0.499930	0.710847
H93	H	0.650708	-0.000011	-0.338628
H94	H	1.150708	0.499989	0.161372
H95	H	0.976669	-0.444354	-0.178265
H96	H	1.476669	0.055646	0.321735
H97	H	1.253360	-0.444343	-0.111492
H98	H	1.753360	0.055657	0.388508
H99	H	1.026245	-0.000032	0.285837
H100	H	1.526245	0.499968	0.785837
