data_functionalizedCrystal
_audit_creation_method	'MofGen! by Chris Wilmer'
_symmetry_space_group_name_H-M	'P1'
_symmetry_Int_Tables_number	1
_symmetry_cell_setting	triclinic
loop_
_symmetry_equiv_pos_as_xyz
  x,y,z
_cell_length_a	12.759401
_cell_length_b	16.959453
_cell_length_c	12.759393
_cell_angle_alpha	90.035042
_cell_angle_beta	90.019125
_cell_angle_gamma	90.019631
loop_
_atom_site_label
_atom_site_type_symbol
_atom_site_fract_x
_atom_site_fract_y
_atom_site_fract_z
Zn1	Zn	1.606217	-0.314642	0.593974
Zn2	Zn	1.606095	-0.446844	0.418283
Zn3	Zn	1.430519	-0.314683	0.418311
Zn4	Zn	1.430491	-0.446782	0.593923
O5	O	1.518330	-0.380738	0.506123
O6	O	1.753222	-0.332188	0.570677
O7	O	1.582765	-0.429355	0.271266
O8	O	1.453888	-0.204066	0.441646
O9	O	1.753132	-0.429316	0.441598
O10	O	1.582973	-0.204037	0.570705
O11	O	1.453770	-0.332257	0.271286
O12	O	1.283494	-0.332197	0.441597
O13	O	1.453841	-0.429211	0.740950
O14	O	1.283474	-0.429250	0.570618
O15	O	1.582946	-0.332128	0.740988
O16	O	1.582738	-0.557447	0.441549
O17	O	1.453723	-0.557401	0.570591
C18	C	1.245363	-0.380721	0.506105
C19	C	1.128586	-0.380733	0.506123
C20	C	0.963979	-0.330149	0.439070
C21	C	1.073703	-0.330132	0.439060
C22	C	1.073740	-0.431349	0.573208
C23	C	0.964018	-0.431361	0.573223
C24	C	0.909102	-0.279550	0.371995
C25	C	0.963941	-0.228933	0.304911
C26	C	1.073665	-0.228916	0.304901
C27	C	1.128550	-0.279516	0.371975
C28	C	1.518243	-0.586104	0.506084
C29	C	1.518301	-0.673961	0.506103
C30	C	1.585631	-1.045362	0.573450
C31	C	1.451323	-1.045510	0.438951
C32	C	1.451284	-0.962964	0.438927
C33	C	1.518419	-0.921614	0.506167
C34	C	1.585592	-0.962809	0.573430
C35	C	1.384105	-0.921763	0.371672
C36	C	1.384063	-0.839212	0.371646
C37	C	1.451203	-0.797860	0.438881
C38	C	1.518379	-0.839060	0.506147
C39	C	1.585514	-0.797709	0.573386
C40	C	1.652696	-0.838908	0.640648
C41	C	1.652732	-0.921457	0.640666
C42	C	1.451167	-0.715311	0.438863
C43	C	1.585475	-0.715156	0.573367
C44	C	1.792364	-0.380755	0.506140
C45	C	1.909140	-0.380762	0.506148
C46	C	1.518404	-0.380658	0.780156
C47	C	1.518435	-0.380624	0.896933
C48	C	1.518447	-0.174570	0.506184
C49	C	1.518497	-0.086713	0.506210
C50	C	1.518318	-0.380760	0.233155
C51	C	1.518490	-0.380572	0.116379
C52	C	1.585669	-0.330068	0.951816
C53	C	1.585694	-0.330040	1.061540
C54	C	1.451248	-0.431129	1.061488
C55	C	1.451219	-0.431153	0.951766
C56	C	1.652886	-0.279539	0.896983
C57	C	1.720127	-0.228980	0.951866
C58	C	1.720152	-0.228951	1.061590
C59	C	1.652936	-0.279482	1.116431
H60	H	1.118436	-0.472546	0.627816
N61	N	1.652861	-0.279555	0.778639
H62	H	1.580792	-0.265021	0.752211
H63	H	1.672174	-0.333797	0.752266
N64	N	0.904860	-0.485946	0.645575
H65	H	0.956272	-0.518002	0.688059
H66	H	0.859303	-0.522492	0.602731
N67	N	0.790758	-0.279562	0.372009
H68	H	0.764344	-0.319303	0.424682
H69	H	0.764380	-0.294013	0.299871
N70	N	1.246895	-0.279494	0.371956
H71	H	1.273305	-0.333696	0.352511
H72	H	1.273281	-0.264990	0.444073
N73	N	1.652958	-0.279456	1.234777
H74	H	1.580900	-0.264916	1.261203
H75	H	1.705794	-0.239767	1.261145
H76	H	1.118312	-0.187695	0.250286
N77	N	0.904752	-0.174365	0.232563
H78	H	0.826921	-0.182059	0.242739
H79	H	0.923906	-0.186612	0.157504
H80	H	1.329360	-0.805673	0.316878
H81	H	1.396455	-0.472308	0.907079
N82	N	1.657890	-0.670558	0.645885
H83	H	1.700451	-0.709185	0.688493
H84	H	1.615081	-0.636304	0.694464
H85	H	1.396524	-0.472269	1.106148
H86	H	1.707353	-0.805231	0.695399
N87	N	1.378923	-1.090108	0.366430
H88	H	1.395280	-1.075777	0.291376
H89	H	1.303868	-1.075753	0.382761
N90	N	1.725186	-0.965891	0.713207
H91	H	1.715018	-1.024459	0.703019
H92	H	1.708786	-0.951424	0.788223
H93	H	1.640332	-1.078910	0.628210
N94	N	1.311708	-0.966359	0.299145
H95	H	1.321938	-1.024905	0.309357
H96	H	1.328105	-0.951959	0.224127
N97	N	1.378709	-0.670875	0.366335
H98	H	1.336182	-0.709596	0.323747
H99	H	1.421481	-0.636632	0.317739
H100	H	1.774844	-0.187835	0.907208
H101	H	1.774894	-0.187778	1.106273
