data_functionalizedCrystal
_audit_creation_method	'MofGen! by Chris Wilmer'
_symmetry_space_group_name_H-M	'P1'
_symmetry_Int_Tables_number	1
_symmetry_cell_setting	triclinic
loop_
_symmetry_equiv_pos_as_xyz
  x,y,z
_cell_length_a	14.853567
_cell_length_b	14.853567
_cell_length_c	7.540329
_cell_angle_alpha	89.999797
_cell_angle_beta	90.000012
_cell_angle_gamma	96.365070
loop_
_atom_site_label
_atom_site_type_symbol
_atom_site_fract_x
_atom_site_fract_y
_atom_site_fract_z
O1	O	1.196363	-0.117703	-0.147345
O2	O	0.933903	-0.131724	-0.147373
O3	O	1.072144	0.006516	-0.147364
O4	O	1.058122	-0.255943	-0.147354
O5	O	1.072136	0.006518	0.147601
O6	O	0.933895	-0.131723	0.147592
O7	O	1.196355	-0.117701	0.147620
Cu8	Cu	1.065124	-0.124712	0.174539
Cu9	Cu	1.065134	-0.124714	-0.174292
O10	O	1.058114	-0.255942	0.147611
C11	C	0.900311	-0.131088	0.000105
C12	C	0.800227	-0.129184	0.000094
C13	C	0.387693	-0.039019	0.000130
C14	C	0.366412	-0.203251	0.000134
C15	C	0.460446	-0.205042	0.000129
C16	C	0.518108	-0.123819	0.000121
C17	C	0.481736	-0.040806	0.000119
C18	C	0.496825	-0.288053	0.000112
C19	C	0.590864	-0.289846	0.000105
C20	C	0.648528	-0.208623	0.000110
C21	C	0.612150	-0.125607	0.000110
C22	C	0.669812	-0.044384	0.000103
C23	C	0.633437	0.038633	0.000116
C24	C	0.539399	0.040417	0.000124
C25	C	0.742565	-0.210407	0.000101
C26	C	0.763855	-0.046172	0.000092
C27	C	1.071504	0.040106	0.000114
C28	C	1.069601	0.140189	0.000098
C29	C	1.229947	-0.118337	0.000138
C30	C	1.330031	-0.120241	0.000138
C31	C	1.058754	-0.289531	0.000129
C32	C	1.060657	-0.389615	0.000133
N33	N	1.065124	-0.124710	0.419887
C34	C	0.979435	0.552723	0.000122
C35	C	1.143668	0.574004	0.000140
C36	C	1.145458	0.479971	0.000129
C37	C	1.064235	0.422309	0.000118
C38	C	0.981223	0.458680	0.000117
C39	C	1.228469	0.443591	0.000149
C40	C	1.230262	0.349552	0.000140
C41	C	1.149039	0.291889	0.000116
C42	C	1.066023	0.328266	0.000113
C43	C	0.984800	0.270604	0.000102
C44	C	0.901783	0.306979	0.000086
C45	C	0.899999	0.401017	0.000093
C46	C	1.150823	0.197851	0.000109
C47	C	0.986588	0.176561	0.000097
N48	N	1.065141	-0.124709	-0.419640
H49	H	0.449870	-0.354180	0.000100
Cl50	Cl	0.636585	-0.394208	0.000095
Cl51	Cl	0.788291	-0.314762	0.000072
H52	H	1.297860	0.319944	0.000151
Cl53	Cl	0.799679	0.234480	0.000087
Cl54	Cl	0.795645	0.446752	0.000068
H55	H	0.911844	0.582344	0.000102
H56	H	1.209795	0.620958	0.000163
Cl57	Cl	1.330570	0.516083	0.000201
H58	H	0.810798	0.019971	0.000093
Cl59	Cl	1.255178	0.152125	0.000162
H60	H	0.920445	0.129618	0.000080
H61	H	0.680397	0.104764	0.000097
H62	H	0.509774	0.108005	0.000177
Cl63	Cl	0.293923	-0.305354	0.000119
Cl64	Cl	0.341967	0.065340	0.000155
