data_functionalizedCrystal
_audit_creation_method	'MofGen! by Chris Wilmer'
_symmetry_space_group_name_H-M	'P1'
_symmetry_Int_Tables_number	1
_symmetry_cell_setting	triclinic
loop_
_symmetry_equiv_pos_as_xyz
  x,y,z
_cell_length_a	12.837943
_cell_length_b	10.540539
_cell_length_c	11.295483
_cell_angle_alpha	94.138588
_cell_angle_beta	85.461227
_cell_angle_gamma	89.677216
loop_
_atom_site_label
_atom_site_type_symbol
_atom_site_fract_x
_atom_site_fract_y
_atom_site_fract_z
O1	O	1.384822	0.322576	-0.098993
O2	O	1.082896	0.306260	-0.099000
O3	O	1.240747	0.130469	-0.098995
O4	O	1.226971	0.498368	-0.098998
O5	O	1.226883	0.145882	0.099055
O6	O	1.069032	0.321674	0.099050
O7	O	1.370958	0.337990	0.099057
Cu8	Cu	1.218729	0.331239	0.117137
Cu9	Cu	1.235125	0.313011	-0.117080
O10	O	1.213106	0.513782	0.099052
C11	C	1.037303	0.308455	0.000024
C12	C	0.922104	0.292017	0.000021
C13	C	1.232782	0.090759	0.000028
C14	C	1.229692	-0.050529	0.000022
C15	C	0.682608	0.489637	0.000036
C16	C	0.574368	0.474197	0.000034
C17	C	0.597381	0.245700	0.000023
C18	C	0.705621	0.261140	0.000025
C19	C	0.748230	0.383112	0.000030
C20	C	0.856473	0.398549	0.000023
C21	C	0.879484	0.170054	0.000021
C22	C	0.771244	0.154615	0.000019
C23	C	1.111280	-0.247004	-0.000426
C24	C	1.114382	-0.100007	0.000020
C25	C	1.277266	-0.097288	0.113119
C26	C	1.273324	-0.244258	0.113215
C27	C	1.291436	-0.262047	-0.112006
C28	C	1.292603	-0.115064	-0.113501
C29	C	1.416551	0.335795	0.000031
C30	C	1.531750	0.352233	0.000026
C31	C	1.221072	0.553491	0.000026
C32	C	1.224163	0.694779	0.000025
N33	N	1.207204	0.344061	0.281873
N34	N	1.246658	0.300181	-0.281816
C35	C	1.329620	0.207816	0.531167
C36	C	1.320918	0.217515	0.655830
C37	C	1.181093	0.373150	0.655866
C38	C	1.189795	0.363451	0.531202
C39	C	1.264062	0.280783	0.468857
C40	C	1.272769	0.271091	0.344192
C41	C	1.132940	0.426719	0.344229
C42	C	1.124238	0.436418	0.468892
H43	H	0.891163	0.497865	0.000029
N44	N	1.044150	0.525587	0.536143
H45	H	1.003942	0.570343	0.477750
H46	H	0.994307	0.475399	0.587877
H47	H	1.071408	-0.286920	-0.081530
N48	N	1.062232	0.505435	0.277025
H49	H	1.079014	0.486754	0.188590
H50	H	0.986997	0.483510	0.298827
N51	N	0.725293	0.023061	0.000005
H52	H	0.744025	-0.018492	0.073417
H53	H	0.646776	0.029537	-0.000040
N54	N	0.728575	0.621181	0.000022
H55	H	0.670578	0.686323	0.000018
H56	H	0.767846	0.638281	0.073441
H57	H	0.932927	0.083313	0.000008
H58	H	1.374300	0.158097	0.706559
H59	H	0.520940	0.560942	0.000042
N60	N	0.551413	0.114157	0.000052
H61	H	0.472885	0.120547	0.000064
H62	H	0.580482	0.061236	-0.073363
N63	N	1.211163	-0.278878	0.225194
H64	H	1.186574	-0.198712	0.274029
H65	H	1.148709	-0.330708	0.203182
H66	H	1.076394	-0.068510	-0.081053
N67	N	1.101001	0.462320	0.723106
H68	H	1.028769	0.437054	0.701427
H69	H	1.105523	0.457360	0.811515
N70	N	1.043703	-0.285293	0.106398
H71	H	1.085892	-0.340187	0.155083
H72	H	1.018123	-0.206553	0.156808
H73	H	1.064727	-0.056761	0.081226
H74	H	1.355894	-0.282716	0.118347
N75	N	1.404599	-0.071465	-0.122545
H76	H	1.443029	-0.114473	-0.196254
H77	H	1.406197	0.023794	-0.127541
H78	H	1.257857	-0.085178	-0.197168
N79	N	1.352858	0.181933	0.276928
H80	H	1.425092	0.207195	0.298600
H81	H	1.338629	0.092027	0.298646
N82	N	1.389057	-0.054972	0.118680
H83	H	1.409986	-0.004957	0.047772
H84	H	1.395655	0.000347	0.194469
N85	N	1.218406	-0.037780	0.224597
H86	H	1.142548	-0.062899	0.225718
H87	H	1.249677	-0.068465	0.296833
N88	N	1.249961	-0.318108	-0.225557
H89	H	1.187136	-0.372070	-0.205524
H90	H	1.228980	-0.247178	-0.274635
N91	N	1.401834	-0.312544	-0.113021
H92	H	1.400976	-0.408532	-0.116112
H93	H	1.444616	-0.284405	-0.185189
N94	N	1.409727	0.118674	0.463914
H95	H	1.449942	0.073925	0.522304
H96	H	1.373206	0.053648	0.412197
