data_functionalizedCrystal
_audit_creation_method	'MofGen! by Chris Wilmer'
_symmetry_space_group_name_H-M	'P1'
_symmetry_Int_Tables_number	1
_symmetry_cell_setting	triclinic
loop_
_symmetry_equiv_pos_as_xyz
  x,y,z
_cell_length_a	14.853567
_cell_length_b	10.654541
_cell_length_c	9.130307
_cell_angle_alpha	90.000178
_cell_angle_beta	90.000499
_cell_angle_gamma	95.940571
loop_
_atom_site_label
_atom_site_type_symbol
_atom_site_fract_x
_atom_site_fract_y
_atom_site_fract_z
O1	O	0.126614	-1.666523	-0.121741
O2	O	0.138681	-1.300919	-0.121752
O3	O	0.001470	-1.493487	-0.121751
O4	O	0.263825	-1.473955	-0.121743
O5	O	0.001468	-1.493481	0.121848
O6	O	0.138679	-1.300913	0.121847
O7	O	0.126613	-1.666517	0.121858
Cu8	Cu	0.132646	-1.483714	0.144095
Cu9	Cu	0.132648	-1.483722	-0.143989
O10	O	0.263824	-1.473949	0.121856
C11	C	-0.032124	-1.492599	0.000044
C12	C	-0.132222	-1.489947	0.000032
C13	C	0.137794	-1.254127	0.000045
C14	C	0.135145	-1.114711	0.000040
C15	C	0.127499	-1.713309	0.000057
C16	C	0.130148	-1.852725	0.000052
C17	C	-0.545428	-1.364347	0.000056
C18	C	-0.565485	-1.593122	0.000063
C19	C	-0.471438	-1.595615	0.000054
C20	C	-0.414381	-1.482473	0.000048
C21	C	-0.451372	-1.366837	0.000051
C22	C	-0.434441	-1.711250	0.000066
C23	C	-0.340388	-1.713748	0.000059
C24	C	-0.283330	-1.600604	0.000043
C25	C	-0.320325	-1.484963	0.000044
C26	C	-0.263268	-1.371821	0.000039
C27	C	-0.300262	-1.256178	0.000029
C28	C	-0.394313	-1.253693	0.000035
C29	C	-0.189279	-1.603089	0.000037
C30	C	-0.169212	-1.374311	0.000035
C31	C	0.297418	-1.474837	0.000058
C32	C	0.397516	-1.477489	0.000061
N33	N	0.132644	-1.483718	0.346718
C34	C	0.299218	-1.085036	0.000027
C35	C	0.380006	-1.004702	0.000015
C36	C	0.377511	-0.873710	0.000013
C37	C	0.294219	-0.823050	0.000029
C38	C	0.213431	-0.903383	0.000041
C39	C	0.215935	-1.034377	0.000038
C40	C	0.049360	-0.933059	0.000065
C41	C	0.051853	-1.064051	0.000056
C42	C	-0.033931	-0.882399	0.000080
C43	C	-0.114721	-0.962733	0.000082
C44	C	-0.112223	-1.093732	0.000082
C45	C	-0.028935	-1.144385	0.000068
N46	N	0.132642	-1.483728	-0.346612
C47	C	0.011180	-1.654307	0.346709
C48	C	-0.049550	-1.739609	0.423371
C49	C	-0.049550	-1.739622	0.576705
C50	C	0.011183	-1.654320	0.653379
C51	C	0.071913	-1.569018	0.576717
C52	C	0.071909	-1.569017	0.423380
C53	C	0.193372	-1.398425	0.576726
C54	C	0.193378	-1.398417	0.423392
C55	C	0.254105	-1.313124	0.653400
C56	C	0.314841	-1.227825	0.576738
C57	C	0.314840	-1.227817	0.423395
C58	C	0.254108	-1.313114	0.346730
H59	H	-0.122762	-1.282175	0.000024
F60	F	0.254101	-1.313131	0.816592
F61	F	-0.203356	-0.908809	0.000110
F62	F	0.291568	-0.683635	0.000049
H63	H	-0.035957	-0.775737	0.000087
H64	H	-0.480903	-1.803364	0.000084
H65	H	0.011182	-1.654315	0.221857
H66	H	0.447820	-1.045964	0.000006
H67	H	-0.178011	-1.159134	0.000098
H68	H	-0.253794	-1.164058	0.000035
F69	F	-0.433691	-1.130629	0.000021
H70	H	-0.310277	-1.807910	0.000065
F71	F	0.379466	-1.137044	0.658346
H72	H	0.364289	-1.158349	0.360984
F73	F	-0.026269	-1.283797	0.000060
F74	F	-0.149911	-1.726155	0.000070
F75	F	-0.114187	-1.830386	0.341763
H76	H	-0.575552	-1.270193	0.000042
H77	H	-0.099005	-1.809078	0.639124
F78	F	-0.626211	-1.713529	0.000090
F79	F	0.254104	-1.313118	0.183538
F80	F	0.301880	-1.224448	0.000005
H81	H	0.443295	-0.808301	0.000013
F82	F	0.011171	-1.654322	0.816571
