data_functionalizedCrystal
_audit_creation_method	'MofGen! by Chris Wilmer'
_symmetry_space_group_name_H-M	'P1'
_symmetry_Int_Tables_number	1
_symmetry_cell_setting	triclinic
loop_
_symmetry_equiv_pos_as_xyz
  x,y,z
_cell_length_a	17.699077
_cell_length_b	23.532407
_cell_length_c	16.776229
_cell_angle_alpha	89.984855
_cell_angle_beta	89.993415
_cell_angle_gamma	83.064661
loop_
_atom_site_label
_atom_site_type_symbol
_atom_site_fract_x
_atom_site_fract_y
_atom_site_fract_z
O1	O	1.003716	0.072004	-0.066293
O2	O	0.783289	0.081377	-0.066298
O3	O	0.900150	-0.006222	-0.066273
O4	O	0.886856	0.159603	-0.066318
O5	O	0.900134	-0.006228	0.066304
O6	O	0.783274	0.081372	0.066278
O7	O	1.003701	0.071998	0.066284
Zn8	Zn	0.893485	0.076684	0.087330
Zn9	Zn	0.893505	0.076691	-0.087345
O10	O	0.886840	0.159598	0.066258
C11	C	0.755086	0.081039	-0.000011
C12	C	0.671073	0.080033	-0.000012
C13	C	0.631600	0.079556	0.072257
C14	C	0.552662	0.078602	0.072258
C15	C	0.513198	0.078129	-0.000010
C16	C	0.552678	0.078604	-0.072284
C17	C	0.631615	0.079554	-0.072285
C18	C	0.234334	0.074772	-0.072285
C19	C	0.155391	0.073823	-0.072279
C20	C	0.155381	0.073820	0.072258
C21	C	0.234318	0.074770	0.072257
C22	C	0.273791	0.075242	-0.000016
C23	C	0.359385	0.076275	-0.000016
C24	C	0.427606	0.077099	-0.000011
C25	C	0.899803	-0.027442	0.000019
C26	C	0.898786	-0.090662	0.000031
C27	C	0.825433	-0.357039	-0.000020
C28	C	0.826378	-0.297636	-0.000014
O29	O	0.768188	-0.261058	-0.000041
N30	N	0.895852	-0.274811	-0.000003
C31	C	0.964384	-0.311393	-0.000006
O32	O	1.023563	-0.286524	0.000003
C33	C	0.963438	-0.370795	-0.000018
C34	C	0.893960	-0.393616	-0.000021
C35	C	0.755961	-0.379861	-0.000024
C36	C	0.755015	-0.439260	-0.000029
C37	C	0.823543	-0.475837	-0.000030
C38	C	0.893015	-0.453015	-0.000026
C39	C	1.031969	-0.407375	-0.000027
C40	C	1.031017	-0.466781	-0.000040
C41	C	0.961539	-0.489602	-0.000043
C42	C	0.960597	-0.548991	-0.000031
N43	N	0.891123	-0.571815	-0.000042
C44	C	0.822596	-0.535238	-0.000041
C45	C	0.966366	-0.186645	0.000017
C46	C	0.967313	-0.127244	0.000035
C47	C	0.829307	-0.113491	0.000025
C48	C	0.828361	-0.172893	0.000014
C49	C	0.896893	-0.209470	0.000006
C50	C	0.820617	-0.659981	-0.000051
C51	C	0.819677	-0.719386	-0.000052
C52	C	0.957683	-0.733133	-0.000047
C53	C	0.958623	-0.673734	-0.000041
C54	C	0.890083	-0.637158	-0.000046
O55	O	1.018756	-0.585604	-0.000008
O56	O	0.763427	-0.560115	-0.000061
C57	C	1.031904	0.072336	-0.000006
C58	C	1.115917	0.073342	-0.000010
C59	C	0.887187	0.180817	-0.000036
C60	C	0.888205	0.244037	-0.000053
N61	N	0.893477	0.076679	0.206542
N62	N	0.893520	0.076692	-0.206556
C63	C	0.945238	0.037906	0.248270
C64	C	0.945242	0.037905	0.331722
C65	C	0.893488	0.076681	0.373445
C66	C	0.841721	0.115456	0.331710
C67	C	0.841714	0.115454	0.248260
C68	C	0.841749	0.115467	0.668258
C69	C	0.841761	0.115468	0.751714
C70	C	0.945277	0.037919	0.751720
C71	C	0.945269	0.037917	0.668269
C72	C	0.893500	0.076689	0.626542
C73	C	0.893495	0.076689	0.536054
C74	C	0.893496	0.076685	0.463931
H75	H	0.520541	0.078215	-0.131126
H76	H	0.987428	0.006347	0.785703
H77	H	1.023889	-0.108669	0.000050
O78	O	0.753989	-0.624514	-0.000158
C79	C	0.711797	-0.634824	-0.068831
H80	H	0.730741	-0.679902	-0.091729
H81	H	0.721890	-0.602332	-0.116907
C82	C	0.603214	-0.573720	-0.019849
C83	C	0.626478	-0.629087	-0.047969
H84	H	0.550585	-0.570178	-0.006982
H85	H	0.631640	-0.566772	0.026416
H86	H	0.611631	-0.546649	-0.059918
H87	H	0.618069	-0.656157	-0.007897
H88	H	0.598048	-0.636040	-0.094227
H89	H	0.663753	0.079944	-0.131133
H90	H	0.987415	0.006344	0.634302
H91	H	0.700154	-0.350085	-0.000026
O92	O	0.687458	-0.461329	-0.000074
C93	C	0.627185	-0.416298	-0.000054
H94	H	0.648103	-0.375968	-0.025143
H95	H	0.606059	-0.407880	0.063548
C96	C	0.535937	-0.482494	-0.021243
C97	C	0.561627	-0.432961	-0.052064
H98	H	0.495496	-0.492773	-0.053322
H99	H	0.576543	-0.512833	-0.021254
H100	H	0.518338	-0.475473	0.031758
H101	H	0.579235	-0.439985	-0.105061
H102	H	0.521023	-0.402623	-0.052064
H103	H	0.799614	0.147045	0.785683
O104	O	0.752231	-0.741620	-0.000165
C105	C	0.747554	-0.775541	-0.068841
H106	H	0.807324	-0.790410	-0.091729
H107	H	0.713877	-0.749241	-0.116922
C108	C	0.633785	-0.809774	-0.019883
C109	C	0.707196	-0.828041	-0.047990
H110	H	0.608888	-0.842157	-0.007023
H111	H	0.636933	-0.786919	0.026384
H112	H	0.605730	-0.787857	-0.059955
H113	H	0.735252	-0.849951	-0.007914
H114	H	0.704051	-0.850900	-0.094250
O115	O	1.032993	-0.222115	-0.000085
C116	C	1.075203	-0.211772	-0.068750
H117	H	1.056264	-0.166682	-0.091637
H118	H	1.065121	-0.244241	-0.116836
C119	C	1.183773	-0.272902	-0.019772
C120	C	1.160516	-0.217520	-0.047878
H121	H	1.236398	-0.276450	-0.006899
H122	H	1.155334	-0.279872	0.026488
H123	H	1.175365	-0.299953	-0.059848
H124	H	1.168915	-0.190471	-0.007798
H125	H	1.188958	-0.210545	-0.094131
O126	O	1.099528	-0.385311	-0.000062
C127	C	1.159798	-0.430344	-0.000050
H128	H	1.138884	-0.470660	-0.025153
H129	H	1.180910	-0.438795	0.063551
C130	C	1.251054	-0.364139	-0.021211
C131	C	1.225368	-0.413656	-0.052050
H132	H	1.291503	-0.353846	-0.053283
H133	H	1.210449	-0.333800	-0.021216
H134	H	1.268642	-0.371188	0.031790
H135	H	1.207772	-0.406604	-0.105045
H136	H	1.265972	-0.443994	-0.052055
O137	O	1.024226	-0.768694	-0.000191
C138	C	1.027794	-0.803457	-0.068849
H139	H	0.988928	-0.781635	-0.116835
H140	H	1.008529	-0.846629	-0.053332
C141	C	1.157954	-0.839391	-0.041052
C142	C	1.110222	-0.812586	-0.099991
H143	H	1.208799	-0.845025	-0.060261
H144	H	1.155550	-0.815972	0.005206
H145	H	1.141890	-0.875365	-0.028127
H146	H	1.126280	-0.776610	-0.112909
H147	H	1.112631	-0.835999	-0.146253
O148	O	0.760804	-0.194964	-0.000032
C149	C	0.700529	-0.149936	-0.000006
H150	H	0.721442	-0.109603	-0.025092
H151	H	0.679405	-0.141522	0.063598
C152	C	0.609286	-0.216135	-0.021198
C153	C	0.634971	-0.166599	-0.052015
H154	H	0.568845	-0.226414	-0.053276
H155	H	0.649894	-0.246472	-0.021212
H156	H	0.591688	-0.209117	0.031805
H157	H	0.652577	-0.173620	-0.105013
H158	H	0.594364	-0.136263	-0.052011
O159	O	0.670029	0.079940	0.142409
C160	C	0.724623	0.031178	0.146754
H161	H	0.739439	0.014887	0.084011
H162	H	0.700462	-0.003715	0.182426
C163	C	0.778685	0.067064	0.265133
C164	C	0.796887	0.047058	0.188070
H165	H	0.823260	0.076858	0.290621
H166	H	0.741903	0.099915	0.262207
H167	H	0.758550	0.037983	0.294849
H168	H	0.817013	0.076141	0.158352
H169	H	0.833675	0.014212	0.190992
O170	O	0.762757	-0.077931	-0.000123
C171	C	0.759203	-0.043135	-0.068773
H172	H	0.798082	-0.064933	-0.116760
H173	H	0.778462	0.000031	-0.053243
C174	C	0.629036	-0.007219	-0.040981
C175	C	0.676783	-0.033994	-0.099922
H176	H	0.578195	-0.001578	-0.060194
H177	H	0.631430	-0.030660	0.005271
H178	H	0.645094	0.028750	-0.028045
H179	H	0.660730	-0.069965	-0.112850
H180	H	0.674384	-0.010558	-0.146178
O181	O	1.097571	-0.502334	-0.000186
C182	C	1.101154	-0.537100	-0.068842
H183	H	1.062285	-0.515287	-0.116831
H184	H	1.081902	-0.580277	-0.053322
C185	C	1.231320	-0.573010	-0.041034
C186	C	1.183584	-0.546216	-0.099978
H187	H	1.282167	-0.578636	-0.060239
H188	H	1.228906	-0.549589	0.005223
H189	H	1.215267	-0.608988	-0.028106
H190	H	1.199631	-0.510236	-0.112897
H191	H	1.186003	-0.569631	-0.146237
H192	H	0.123262	0.073437	-0.131132
O193	O	0.514430	0.078169	0.142531
C194	C	0.566190	0.078781	0.206316
H195	H	0.619189	0.097482	0.185120
H196	H	0.582873	0.033211	0.228555
C197	C	0.463505	0.092776	0.300614
C198	C	0.528597	0.115749	0.274582
H199	H	0.440316	0.115577	0.342726
H200	H	0.428633	0.092362	0.257642
H201	H	0.477417	0.054802	0.319141
H202	H	0.514684	0.153720	0.256046
H203	H	0.563467	0.116171	0.317553
O204	O	0.272540	0.075202	0.142530
C205	C	0.220770	0.074590	0.206318
H206	H	0.167772	0.055892	0.185138
H207	H	0.204086	0.120159	0.228529
C208	C	0.323439	0.060588	0.300619
C209	C	0.258349	0.037618	0.274607
H210	H	0.346620	0.037785	0.342745
H211	H	0.358318	0.061003	0.257645
H212	H	0.309526	0.098562	0.319123
H213	H	0.272263	-0.000352	0.256094
H214	H	0.223473	0.037197	0.317580
H215	H	0.123233	0.073432	0.131106
H216	H	0.987389	0.006333	0.365697
H217	H	1.015197	-0.655152	-0.000028
O218	O	0.995542	0.000184	0.207868
C219	C	1.041240	-0.034029	0.262598
H220	H	1.010219	-0.034640	0.322091
H221	H	1.097322	-0.015591	0.271453
C222	C	1.095402	-0.094734	0.156984
C223	C	1.057300	-0.095488	0.230053
H224	H	1.105312	-0.132644	0.136908
H225	H	1.064617	-0.071683	0.120111
H226	H	1.142134	-0.079366	0.164373
H227	H	1.010565	-0.110849	0.222661
H228	H	1.088077	-0.118543	0.266925
O229	O	0.791437	0.153187	0.627855
C230	C	0.745752	0.187403	0.682578
H231	H	0.776786	0.188017	0.742055
H232	H	0.689672	0.168964	0.691478
C233	C	0.691564	0.248102	0.576938
C234	C	0.729684	0.248860	0.649987
H235	H	0.681649	0.286011	0.556834
H236	H	0.722341	0.225049	0.540069
H237	H	0.644835	0.232734	0.584365
H238	H	0.776416	0.264221	0.642557
H239	H	0.698914	0.271916	0.686854
O240	O	0.791341	0.153065	0.372203
C241	C	0.716491	0.143884	0.351819
H242	H	0.716468	0.098287	0.328897
H243	H	0.694014	0.175471	0.303372
C244	C	0.665150	0.208785	0.454113
C245	C	0.665121	0.152780	0.425966
H246	H	0.633462	0.214275	0.499849
H247	H	0.715578	0.214972	0.467845
H248	H	0.646422	0.235101	0.413733
H249	H	0.683859	0.126465	0.466342
H250	H	0.614696	0.146588	0.412243
O251	O	0.791361	0.153041	0.207687
C252	C	0.744910	0.122583	0.159426
H253	H	0.743976	0.077671	0.184595
H254	H	0.768613	0.119573	0.096176
C255	C	0.664558	0.209209	0.127234
C256	C	0.663406	0.154048	0.158152
H257	H	0.614284	0.228619	0.126444
H258	H	0.695854	0.229730	0.159746
H259	H	0.684314	0.206693	0.074528
H260	H	0.643660	0.156565	0.210859
H261	H	0.632105	0.133529	0.125649
O262	O	0.272549	0.075255	-0.142560
C263	C	0.220790	0.074620	-0.206341
H264	H	0.161251	0.091970	-0.185157
H265	H	0.220679	0.028848	-0.228545
C266	C	0.317957	0.091013	-0.300657
C267	C	0.244830	0.112326	-0.274639
H268	H	0.332787	0.114269	-0.342788
H269	H	0.352829	0.091438	-0.257687
H270	H	0.317855	0.052869	-0.319154
H271	H	0.244936	0.150466	-0.256133
H272	H	0.209959	0.111908	-0.317608
