data_functionalizedCrystal
_audit_creation_method	'MofGen! by Chris Wilmer'
_symmetry_space_group_name_H-M	'P1'
_symmetry_Int_Tables_number	1
_symmetry_cell_setting	triclinic
loop_
_symmetry_equiv_pos_as_xyz
  x,y,z
_cell_length_a	14.519731
_cell_length_b	14.519731
_cell_length_c	13.448316
_cell_angle_alpha	89.992415
_cell_angle_beta	89.993151
_cell_angle_gamma	83.688853
loop_
_atom_site_label
_atom_site_type_symbol
_atom_site_fract_x
_atom_site_fract_y
_atom_site_fract_z
O1	O	1.223867	0.120986	-0.082696
O2	O	1.723867	0.620986	0.417304
O3	O	0.955394	0.135202	-0.082698
O4	O	1.455394	0.635202	0.417302
O5	O	1.096739	-0.006143	-0.082688
O6	O	1.596739	0.493857	0.417312
O7	O	1.082523	0.262330	-0.082706
O8	O	1.582523	0.762330	0.417294
O9	O	1.096721	-0.006152	0.082696
O10	O	1.596721	0.493848	0.582696
O11	O	0.955376	0.135193	0.082686
O12	O	1.455376	0.635193	0.582686
O13	O	1.223850	0.120977	0.082688
O14	O	1.723850	0.620977	0.582688
Cu15	Cu	1.089611	0.128084	0.097788
Cu16	Cu	1.589611	0.628084	0.597788
Cu17	Cu	1.089632	0.128094	-0.097798
Cu18	Cu	1.589632	0.628094	0.402202
O19	O	1.082505	0.262322	0.082678
O20	O	1.582505	0.762322	0.582678
C21	C	0.921026	0.134531	-0.000006
C22	C	1.421026	0.634531	0.499994
C23	C	0.818645	0.132535	-0.000007
C24	C	1.318645	0.632535	0.499993
C25	C	1.096064	-0.040507	0.000004
C26	C	1.596064	0.459493	0.500004
C27	C	1.094068	-0.142887	0.000005
C28	C	1.594068	0.357113	0.500005
C29	C	0.735501	0.130913	-0.000011
C30	C	1.235501	0.630913	0.499989
C31	C	0.631192	0.128887	-0.000011
C32	C	1.131192	0.628887	0.499989
C33	C	0.548053	0.127278	-0.000011
C34	C	1.048053	0.627278	0.499989
C35	C	0.443738	0.125252	-0.000013
C36	C	0.943738	0.625252	0.499987
C37	C	1.092446	-0.226031	0.000002
C38	C	1.592446	0.273969	0.500002
C39	C	1.090419	-0.330340	-0.000005
C40	C	1.590419	0.169660	0.499995
C41	C	1.088811	-0.413479	-0.000012
C42	C	1.588811	0.086521	0.499988
C43	C	1.086785	-0.517795	-0.000017
C44	C	1.586785	-0.017795	0.499983
C45	C	1.258218	0.121648	-0.000006
C46	C	1.758218	0.621648	0.499994
C47	C	1.360598	0.123644	-0.000013
C48	C	1.860598	0.623644	0.499987
C49	C	1.083180	0.296685	-0.000017
C50	C	1.583180	0.796685	0.499983
C51	C	1.085176	0.399066	-0.000024
C52	C	1.585176	0.899066	0.499976
N53	N	1.089603	0.128076	0.235352
N54	N	1.589603	0.628076	0.735352
N55	N	1.089648	0.128095	-0.235362
N56	N	1.589648	0.628095	0.264638
C57	C	1.152210	0.065515	0.287397
C58	C	1.652210	0.565515	0.787397
C59	C	1.152216	0.065514	0.391500
C60	C	1.652216	0.565514	0.891500
C61	C	1.089619	0.128080	0.443556
C62	C	1.589619	0.628080	0.943556
C63	C	1.027005	0.190645	0.391504
C64	C	1.527005	0.690645	0.891504
C65	C	1.026996	0.190640	0.287403
C66	C	1.526996	0.690640	0.787403
C67	C	1.027031	0.190651	0.608484
C68	C	1.527031	0.690651	1.108484
C69	C	1.027041	0.190657	0.712593
C70	C	1.527041	0.690657	1.212593
C71	C	1.152251	0.065525	0.712581
C72	C	1.652251	0.565525	1.212581
C73	C	1.152242	0.065520	0.608480
C74	C	1.652242	0.565520	1.108480
C75	C	1.089629	0.128086	0.556435
C76	C	1.589629	0.628086	1.056435
H77	H	1.203194	0.014571	0.433874
H78	H	1.703194	0.514571	0.933874
H79	H	1.203232	0.014581	0.754962
H80	H	1.703232	0.514581	1.254962
O81	O	1.213053	0.004648	0.236987
O82	O	1.713053	0.504648	0.736987
C83	C	1.337278	-0.119432	0.247975
C84	C	1.837278	0.380568	0.747975
C85	C	1.268409	-0.050561	0.305183
C86	C	1.768409	0.449439	0.805183
H87	H	1.382064	-0.164073	0.303087
H88	H	1.882064	0.335927	0.803087
H89	H	1.297431	-0.165661	0.199284
H90	H	1.797431	0.334339	0.699284
H91	H	1.383368	-0.079494	0.199192
H92	H	1.883368	0.420506	0.699192
H93	H	1.222302	-0.090423	0.354021
H94	H	1.722302	0.409577	0.854021
H95	H	1.308314	-0.004332	0.353812
H96	H	1.808314	0.495668	0.853812
O97	O	1.213083	0.004657	0.558064
O98	O	1.713083	0.504657	1.058064
C99	C	1.337312	-0.119420	0.569032
C100	C	1.837312	0.380580	1.069032
C101	C	1.268446	-0.050556	0.626251
C102	C	1.768446	0.449444	1.126251
H103	H	1.382104	-0.164065	0.624136
H104	H	1.882104	0.335935	1.124136
H105	H	1.297462	-0.165648	0.520341
H106	H	1.797462	0.334352	1.020341
H107	H	1.383396	-0.079477	0.520248
H108	H	1.883396	0.420523	1.020248
H109	H	1.222344	-0.090423	0.675090
H110	H	1.722344	0.409577	1.175090
H111	H	1.308353	-0.004329	0.674880
H112	H	1.808353	0.495671	1.174880
H113	H	0.976067	0.241603	0.754972
H114	H	1.476067	0.741603	1.254972
H115	H	0.976042	0.241596	0.566113
H116	H	1.476042	0.741596	1.066113
H117	H	0.976032	0.241584	0.433895
H118	H	1.476032	0.741584	0.933895
H119	H	0.976014	0.241583	0.245029
H120	H	1.476014	0.741583	0.745029
