data_functionalizedCrystal
_audit_creation_method	'MofGen! by Chris Wilmer'
_symmetry_space_group_name_H-M	'P1'
_symmetry_Int_Tables_number	1
_symmetry_cell_setting	triclinic
loop_
_symmetry_equiv_pos_as_xyz
  x,y,z
_cell_length_a	16.992694
_cell_length_b	11.792241
_cell_length_c	16.053802
_cell_angle_alpha	92.583059
_cell_angle_beta	87.249047
_cell_angle_gamma	87.430819
loop_
_atom_site_label
_atom_site_type_symbol
_atom_site_fract_x
_atom_site_fract_y
_atom_site_fract_z
O1	O	1.044699	0.236280	-0.069325
O2	O	0.816403	0.233637	-0.069350
O3	O	0.936091	0.070242	-0.069331
O4	O	0.925011	0.399675	-0.069344
O5	O	0.929503	0.079196	0.069527
O6	O	0.809815	0.242591	0.069508
O7	O	1.038111	0.245234	0.069533
Zn8	Zn	0.922917	0.245334	0.091567
Zn9	Zn	0.931597	0.233537	-0.091384
O10	O	0.918423	0.408630	0.069514
C11	C	0.783882	0.234716	0.000076
C12	C	0.696796	0.224578	0.000067
C13	C	0.646971	0.322395	0.000064
C14	C	0.565143	0.312864	0.000076
C15	C	0.533142	0.205513	0.000085
C16	C	0.582973	0.107688	0.000091
C17	C	0.664799	0.117221	0.000085
C18	C	0.289375	0.166002	0.000109
C19	C	0.207543	0.156476	0.000112
C20	C	0.189719	0.361652	0.000099
C21	C	0.271548	0.371176	0.000088
C22	C	0.321371	0.273351	0.000098
N23	N	0.449501	0.195767	0.000094
N24	N	0.405010	0.283098	0.000095
C25	C	0.932101	0.032371	0.000098
C26	C	0.930018	-0.093813	0.000097
C27	C	0.926188	-0.324840	0.000082
C28	C	0.928316	-0.196280	0.000090
C29	C	1.070632	0.244155	0.000105
C30	C	1.157719	0.254293	0.000109
C31	C	0.922413	0.446500	0.000084
C32	C	0.924497	0.572684	0.000079
N33	N	0.916999	0.253386	0.216427
N34	N	0.937521	0.225477	-0.216243
C35	C	0.967945	0.183889	0.260129
C36	C	0.963812	0.189532	0.347535
C37	C	0.908737	0.264679	0.391237
C38	C	0.857785	0.334179	0.347529
C39	C	0.861915	0.328529	0.260125
C40	C	0.890699	0.289327	0.652644
C41	C	0.886575	0.294974	0.740055
C42	C	0.992602	0.150325	0.740054
C43	C	0.996729	0.144687	0.652648
C44	C	0.945775	0.214182	0.608948
N45	N	0.904513	0.270452	0.480580
N46	N	0.949996	0.208403	0.519606
H47	H	0.329932	0.086345	0.000118
C48	C	0.682165	0.440482	0.000053
H49	H	0.640769	0.497373	0.000061
H50	H	0.716005	0.445345	-0.048371
H51	H	0.711424	0.451588	0.048480
C52	C	0.834674	0.365798	0.604581
H53	H	0.845016	0.351674	0.546266
H54	H	0.842851	0.443273	0.618904
H55	H	0.781589	0.349614	0.618909
C56	C	0.719609	0.009625	0.000087
H57	H	0.772924	0.030677	0.000091
H58	H	0.712154	-0.037216	-0.048331
H59	H	0.707569	-0.030958	0.048521
C60	C	1.057346	0.062081	0.604577
H61	H	1.052524	0.068694	0.546263
H62	H	1.047873	-0.013572	0.618889
H63	H	1.109055	0.080194	0.618915
C64	C	0.797205	0.416841	0.395600
H65	H	0.802047	0.410263	0.453914
H66	H	0.745481	0.398795	0.381287
H67	H	0.806727	0.492475	0.381262
H68	H	0.841724	0.356172	0.775633
C69	C	0.805877	0.404980	0.212053
H70	H	0.772490	0.450553	0.250597
H71	H	0.774665	0.358944	0.177965
H72	H	0.835909	0.452628	0.177948
C73	C	1.028533	0.101237	0.212059
H74	H	1.023704	0.107833	0.153745
H75	H	1.019024	0.025603	0.226392
H76	H	1.080256	0.119302	0.226379
C77	C	1.019850	0.113086	0.395607
H78	H	1.009498	0.127200	0.453921
H79	H	1.072928	0.129283	0.381278
H80	H	1.011684	0.035600	0.381289
C81	C	0.510340	0.420463	0.000070
H82	H	0.541119	0.485761	0.000053
H83	H	0.475760	0.424139	0.048495
H84	H	0.480339	0.417881	-0.048357
C85	C	0.306743	0.489262	0.000090
H86	H	0.265349	0.546156	0.000099
H87	H	0.340585	0.494129	-0.048332
H88	H	0.335999	0.500360	0.048519
C89	C	0.134913	0.469249	0.000099
H90	H	0.081596	0.448202	0.000111
H91	H	0.146949	0.509844	-0.048325
H92	H	0.142372	0.516079	0.048527
C93	C	1.048639	0.073877	0.788126
H94	H	1.038289	0.087994	0.846440
H95	H	1.101717	0.090067	0.773793
H96	H	1.040468	-0.003609	0.773810
C97	C	0.547777	-0.010398	0.000100
H98	H	0.589172	-0.067289	0.000108
H99	H	0.518519	-0.021506	-0.048321
H100	H	0.513937	-0.015257	0.048530
C101	C	0.172343	0.038385	0.000124
H102	H	0.213734	-0.018511	0.000136
H103	H	0.143086	0.027278	-0.048298
H104	H	0.138501	0.033533	0.048554
