data_functionalizedCrystal
_audit_creation_method	'MofGen! by Chris Wilmer'
_symmetry_space_group_name_H-M	'P1'
_symmetry_Int_Tables_number	1
_symmetry_cell_setting	triclinic
loop_
_symmetry_equiv_pos_as_xyz
  x,y,z
_cell_length_a	12.759400
_cell_length_b	12.759401
_cell_length_c	12.759393
_cell_angle_alpha	90.019003
_cell_angle_beta	89.968231
_cell_angle_gamma	89.989346
loop_
_atom_site_label
_atom_site_type_symbol
_atom_site_fract_x
_atom_site_fract_y
_atom_site_fract_z
Zn1	Zn	-0.418315	-1.606244	-0.594027
Zn2	Zn	-0.594035	-1.606142	-0.418347
Zn3	Zn	-0.418358	-1.430549	-0.418361
Zn4	Zn	-0.593940	-1.430535	-0.593983
O5	O	-0.506162	-1.518367	-0.506180
O6	O	-0.441646	-1.753251	-0.570735
O7	O	-0.570788	-1.582812	-0.271328
O8	O	-0.271331	-1.453905	-0.441688
O9	O	-0.570747	-1.753176	-0.441663
O10	O	-0.271300	-1.582987	-0.570749
O11	O	-0.441719	-1.453805	-0.271338
O12	O	-0.441628	-1.283526	-0.441646
O13	O	-0.570586	-1.453879	-0.741010
O14	O	-0.570627	-1.283516	-0.570675
O15	O	-0.441555	-1.582972	-0.741042
O16	O	-0.741043	-1.582798	-0.441621
O17	O	-0.740974	-1.453780	-0.570661
C18	C	-0.506123	-1.245400	-0.506158
C19	C	-0.506131	-1.128623	-0.506173
C20	C	-0.439033	-1.073794	-0.573483
C21	C	-0.439047	-0.964069	-0.573487
C22	C	-0.573267	-0.964015	-0.438867
C23	C	-0.573247	-1.073737	-0.438859
C24	C	-0.361544	-1.073824	-0.651208
C25	C	-0.361559	-0.964100	-0.651212
C26	C	-0.779129	-1.518305	-0.506158
C27	C	-0.895906	-1.518374	-0.506183
C28	C	-0.950769	-1.585629	-0.439067
C29	C	-1.060493	-1.585693	-0.439099
C30	C	-1.060481	-1.451240	-0.573368
C31	C	-0.950759	-1.451182	-0.573340
C32	C	-0.950777	-1.663251	-0.361545
C33	C	-1.060501	-1.663315	-0.361577
C34	C	-0.232129	-1.518459	-0.506225
C35	C	-0.115352	-1.518497	-0.506244
C36	C	-0.506055	-1.518436	-0.780213
C37	C	-0.506009	-1.518465	-0.896990
C38	C	-0.506189	-0.792401	-0.506195
C39	C	-0.506166	-0.909177	-0.506185
C40	C	-0.438791	-1.451319	-0.951863
C41	C	-0.438760	-1.451351	-1.061587
C42	C	-0.573168	-1.585683	-1.061555
C43	C	-0.573204	-1.585645	-0.951833
C44	C	-0.361188	-1.373767	-0.951883
C45	C	-0.361156	-1.373799	-1.061607
C46	C	-0.506193	-1.518360	-0.233212
C47	C	-0.505942	-1.518534	-0.116436
H48	H	-0.280143	-1.103591	-0.629555
H49	H	-0.390277	-1.296502	-1.095631
H50	H	-0.283911	-1.402931	-0.917868
H51	H	-0.284229	-0.930059	-0.622211
Cl52	Cl	-0.235476	-1.407331	-1.107621
H53	H	-0.383452	-0.934353	-0.732547
Cl54	Cl	-0.898354	-1.618263	-0.242170
Cl55	Cl	-0.657572	-1.142663	-0.354207
H56	H	-0.906090	-1.396428	-0.628001
H57	H	-0.390778	-1.107888	-0.728447
H58	H	-1.105156	-1.396535	-0.628045
H59	H	-0.627955	-1.640306	-0.907159
Cl60	Cl	-0.904679	-1.788833	-0.395286
H61	H	-0.627911	-0.919313	-0.384063
H62	H	-1.094451	-1.740619	-0.390791
H63	H	-1.090362	-1.641579	-0.280196
H64	H	-0.627875	-1.640379	-1.106221
H65	H	-0.382971	-1.292378	-0.922103
