data_functionalizedCrystal
_audit_creation_method	'MofGen! by Chris Wilmer'
_symmetry_space_group_name_H-M	'P1'
_symmetry_Int_Tables_number	1
_symmetry_cell_setting	triclinic
loop_
_symmetry_equiv_pos_as_xyz
  x,y,z
_cell_length_a	14.044191
_cell_length_b	13.101039
_cell_length_c	10.654550
_cell_angle_alpha	93.394964
_cell_angle_beta	91.161646
_cell_angle_gamma	93.662449
loop_
_atom_site_label
_atom_site_type_symbol
_atom_site_fract_x
_atom_site_fract_y
_atom_site_fract_z
O1	O	1.264870	0.085164	-0.296681
O2	O	1.598204	0.418497	0.036653
O3	O	1.931537	0.751831	0.369986
O4	O	0.988829	0.085177	-0.285737
O5	O	1.322163	0.418510	0.047596
O6	O	1.655496	0.751844	0.380930
O7	O	1.133196	0.085164	-0.109108
O8	O	1.466529	0.418497	0.224225
O9	O	1.799863	0.751831	0.557559
O10	O	1.120504	0.085177	-0.473309
O11	O	1.453837	0.418511	-0.139976
O12	O	1.787170	0.751844	0.193357
O13	O	1.122838	-0.085265	-0.121804
O14	O	1.456171	0.248068	0.211530
O15	O	1.789505	0.581402	0.544863
O16	O	0.978471	-0.085252	-0.298433
O17	O	1.311805	0.248082	0.034901
O18	O	1.645138	0.581415	0.368234
O19	O	1.254512	-0.085265	-0.309376
O20	O	1.587846	0.248069	0.023957
O21	O	1.921179	0.581402	0.357290
Zn22	Zn	1.114847	-0.112318	-0.305920
Zn23	Zn	1.448181	0.221016	0.027413
Zn24	Zn	1.781514	0.554349	0.360746
Zn25	Zn	1.128494	0.112230	-0.289193
Zn26	Zn	1.461828	0.445563	0.044140
Zn27	Zn	1.795161	0.778897	0.377474
O28	O	1.110146	-0.085252	-0.486005
O29	O	1.443479	0.248082	-0.152672
O30	O	1.776812	0.581415	0.180661
C31	C	0.948305	-0.000036	-0.287298
C32	C	1.281638	0.333298	0.046036
C33	C	1.614971	0.666631	0.379369
C34	C	0.842985	-0.000031	-0.273018
C35	C	1.176318	0.333302	0.060315
C36	C	1.509652	0.666636	0.393648
C37	C	0.593192	-0.000038	-0.348184
C38	C	0.926526	0.333295	-0.014851
C39	C	1.259859	0.666628	0.318482
C40	C	0.650156	-0.000040	-0.246934
C41	C	0.983489	0.333293	0.086399
C42	C	1.316822	0.666626	0.419733
C43	C	0.757456	-0.000035	-0.261451
C44	C	1.090789	0.333298	0.071883
C45	C	1.424122	0.666632	0.405216
C46	C	0.485882	-0.000044	-0.333669
C47	C	0.819215	0.333290	-0.000336
C48	C	1.152549	0.666623	0.332997
N49	N	1.105540	-0.265565	-0.317336
N50	N	1.438874	0.067768	0.015997
N51	N	1.772207	0.401101	0.349330
C52	C	1.092878	-0.474607	-0.332880
C53	C	1.426211	-0.141273	0.000454
C54	C	1.759545	0.192060	0.333787
C55	C	1.150468	-0.525488	-0.262228
C56	C	1.483801	-0.192154	0.071105
C57	C	1.817135	0.141179	0.404438
C58	C	1.143422	-0.641805	-0.270877
C59	C	1.476756	-0.308472	0.062456
C60	C	1.810089	0.024861	0.395790
C61	C	1.099922	-0.358278	-0.324233
C62	C	1.433256	-0.024945	0.009101
C63	C	1.766589	0.308388	0.342434
C64	C	1.295037	-0.000050	-0.307815
C65	C	1.628370	0.333284	0.025518
C66	C	1.961704	0.666617	0.358851
C67	C	1.400357	-0.000048	-0.322094
C68	C	1.733690	0.333286	0.011239
C69	C	2.067024	0.666619	0.344572
C70	C	1.127085	-0.000050	-0.068564
C71	C	1.460418	0.333283	0.264769
C72	C	1.793752	0.666617	0.598102
C73	C	1.124297	-0.000048	0.071159
C74	C	1.457630	0.333285	0.404493
C75	C	1.790963	0.666618	0.737826
N76	N	1.137809	0.265477	-0.277768
N77	N	1.471142	0.598811	0.055565
N78	N	1.804475	0.932144	0.388899
C79	C	1.116257	-0.000035	-0.526549
C80	C	1.449590	0.333298	-0.193216
C81	C	1.782923	0.666631	0.140118
C82	C	1.119045	-0.000030	-0.666272
C83	C	1.452379	0.333303	-0.332939
C84	C	1.785712	0.666636	0.000395
C85	C	1.209298	-0.000052	0.142100
C86	C	1.542631	0.333281	0.475434
C87	C	1.875964	0.666615	0.808767
C88	C	1.206673	-0.000039	0.273386
C89	C	1.540006	0.333294	0.606719
C90	C	1.873340	0.666627	0.940053
C91	C	1.034038	-0.000024	0.262778
C92	C	1.367371	0.333310	0.596111
C93	C	1.700705	0.666643	0.929444
C94	C	1.036664	-0.000029	0.131495
C95	C	1.369998	0.333304	0.464828
C96	C	1.703331	0.666638	0.798162
C97	C	1.310413	0.059671	0.463615
C98	C	1.643746	0.393004	0.796949
C99	C	1.977080	0.726337	1.130282
C100	C	1.395417	0.059649	0.534559
C101	C	1.728751	0.392983	0.867893
C102	C	2.062084	0.726316	1.201226
C103	C	1.468848	-0.000079	0.492192
C104	C	1.802181	0.333254	0.825525
C105	C	2.135514	0.666587	1.158858
C106	C	1.457275	-0.059812	0.378880
C107	C	1.790608	0.273522	0.712213
C108	C	2.123942	0.606855	1.045547
C109	C	1.372269	-0.059800	0.307942
C110	C	1.705602	0.273534	0.641275
C111	C	2.038935	0.606867	0.974609
C112	C	1.298843	-0.000047	0.350310
C113	C	1.632177	0.333286	0.683643
C114	C	1.965510	0.666620	1.016977
C115	C	0.932930	-0.059747	-0.058737
C116	C	1.266263	0.273586	0.274596
C117	C	1.599597	0.606919	0.607930
C118	C	0.847922	-0.059743	-0.129678
C119	C	1.181255	0.273591	0.203655
C120	C	1.514589	0.606924	0.536989
C121	C	0.774483	-0.000020	-0.087314
C122	C	1.107817	0.333313	0.246020
C123	C	1.441150	0.666646	0.579353
C124	C	0.786045	0.059697	0.026000
C125	C	1.119379	0.393030	0.359333
C126	C	1.452712	0.726363	0.692667
C127	C	0.871053	0.059692	0.096941
C128	C	1.204387	0.393025	0.430275
C129	C	1.537720	0.726359	0.763608
C130	C	0.944492	-0.000029	0.054568
C131	C	1.277826	0.333305	0.387901
C132	C	1.611159	0.666638	0.721235
H133	H	0.625008	-0.000032	-0.445762
H134	H	0.958341	0.333302	-0.112428
H135	H	1.291674	0.666635	0.220905
H136	H	0.962690	-0.000010	0.311919
H137	H	1.296024	0.333323	0.645252
H138	H	1.629357	0.666657	0.978586
Br139	Br	0.597130	-0.000049	-0.084283
Br140	Br	0.930464	0.333285	0.249050
Br141	Br	1.263797	0.666618	0.582384
Br142	Br	1.001887	-0.547598	-0.444517
Br143	Br	1.335220	-0.214265	-0.111184
Br144	Br	1.668554	0.119068	0.222150
H145	H	1.205064	-0.481690	-0.195248
H146	H	1.538397	-0.148357	0.138086
H147	H	1.871731	0.184976	0.471419
H148	H	1.280654	-0.000065	0.092979
H149	H	1.613987	0.333268	0.426313
H150	H	1.947320	0.666601	0.759646
H151	H	1.362845	-0.108436	0.215689
H152	H	1.696178	0.224897	0.549022
H153	H	2.029512	0.558231	0.882356
Br154	Br	1.556932	-0.140887	0.321395
Br155	Br	1.890266	0.192446	0.654728
Br156	Br	2.223599	0.525779	0.988062
H157	H	1.538060	-0.000095	0.549964
H158	H	1.871393	0.333238	0.883297
H159	H	2.204727	0.666572	1.216630
Br160	Br	1.210767	0.140760	0.521107
Br161	Br	1.544100	0.474093	0.854441
Br162	Br	1.877434	0.807426	1.187774
H163	H	1.404835	0.108291	0.626817
H164	H	1.738168	0.441625	0.960151
H165	H	2.071501	0.774958	1.293484
Br166	Br	0.886745	0.140735	0.250730
Br167	Br	1.220078	0.474068	0.584063
Br168	Br	1.553412	0.807401	0.917397
H169	H	0.726236	0.108306	0.060512
H170	H	1.059569	0.441640	0.393845
H171	H	1.392903	0.774973	0.727178
H172	H	0.838508	-0.108381	-0.221938
H173	H	1.171841	0.224953	0.111395
H174	H	1.505175	0.558286	0.444729
H175	H	0.705260	-0.000035	-0.145077
H176	H	1.038593	0.333298	0.188256
H177	H	1.371927	0.666632	0.521589
Br178	Br	1.032603	-0.140797	-0.116246
Br179	Br	1.365937	0.192536	0.217087
Br180	Br	1.699270	0.525870	0.550420
