data_functionalizedCrystal
_audit_creation_method	'MofGen! by Chris Wilmer'
_symmetry_space_group_name_H-M	'P1'
_symmetry_Int_Tables_number	1
_symmetry_cell_setting	triclinic
loop_
_symmetry_equiv_pos_as_xyz
  x,y,z
_cell_length_a	16.974800
_cell_length_b	15.995350
_cell_length_c	16.053810
_cell_angle_alpha	87.419779
_cell_angle_beta	88.912688
_cell_angle_gamma	83.440933
loop_
_atom_site_label
_atom_site_type_symbol
_atom_site_fract_x
_atom_site_fract_y
_atom_site_fract_z
O1	O	1.049077	0.106733	-0.001485
O2	O	0.819613	0.119548	0.014026
O3	O	0.940618	-0.008733	0.005845
O4	O	0.928073	0.235014	0.006695
O5	O	0.933984	-0.001674	-0.132565
O6	O	0.812980	0.126607	-0.124384
O7	O	1.042444	0.113792	-0.139896
Zn8	Zn	0.926659	0.121320	-0.154116
Zn9	Zn	0.935398	0.112020	0.028246
O10	O	0.921439	0.242073	-0.131715
C11	C	0.786933	0.122461	-0.053194
C12	C	0.699439	0.120613	-0.047280
C13	C	0.654723	0.123591	-0.119950
C14	C	0.572515	0.121842	-0.114395
C15	C	0.535023	0.117121	-0.036169
C16	C	0.579745	0.114140	0.036507
C17	C	0.661953	0.115884	0.030951
C18	C	0.289548	0.111489	-0.011462
C19	C	0.207334	0.109749	-0.005912
C20	C	0.200109	0.117449	-0.156815
C21	C	0.282318	0.119197	-0.162364
C22	C	0.327034	0.116212	-0.089688
N23	N	0.450993	0.115335	-0.030489
N24	N	0.411063	0.117991	-0.095369
C25	C	0.936782	-0.036400	-0.063323
C26	C	0.935228	-0.129354	-0.063213
C27	C	0.929644	-0.467113	-0.062839
C28	C	0.843481	-0.419888	-0.056703
C29	C	0.845021	-0.323178	-0.057120
C30	C	0.932414	-0.299547	-0.063024
C31	C	0.971132	-0.336498	-0.144935
C32	C	0.968963	-0.433136	-0.144855
C33	C	0.978287	-0.441517	0.012423
C34	C	0.978317	-0.344625	0.013469
C35	C	0.933983	-0.204846	-0.063132
C36	C	0.928076	-0.561815	-0.062736
C37	C	1.075124	0.110879	-0.072674
C38	C	1.162618	0.112727	-0.078583
C39	C	0.925275	0.269739	-0.062545
C40	C	0.926829	0.362693	-0.062649
N41	N	0.920700	0.127667	-0.278573
C42	C	0.889863	0.160237	-0.800120
C43	C	0.894049	0.155813	-0.712997
C44	C	0.949738	0.096823	-0.673052
C45	C	1.001241	0.042247	-0.720235
C46	C	0.997051	0.046667	-0.807357
C47	C	0.968013	0.077511	-0.412878
C48	C	0.972200	0.073096	-0.325750
C49	C	0.865006	0.186663	-0.318518
C50	C	0.860825	0.191081	-0.405642
C51	C	0.912324	0.136502	-0.452817
N52	N	0.954020	0.092302	-0.583997
N53	N	0.908039	0.141020	-0.541869
N54	N	0.941363	0.105667	0.152703
H55	H	0.814324	-0.297720	0.001796
C56	C	0.799563	0.255967	-0.449584
C57	C	0.827474	0.323129	-0.511585
C58	C	0.766215	0.388017	-0.555530
C59	C	0.677046	0.385742	-0.537475
C60	C	0.649131	0.318577	-0.475471
C61	C	0.710390	0.253689	-0.431525
H62	H	0.893486	0.324816	-0.524953
H63	H	0.786880	0.437737	-0.601430
H64	H	0.631699	0.433776	-0.570006
H65	H	0.583119	0.316890	-0.462102
H66	H	0.689725	0.203969	-0.385626
H67	H	0.698360	0.113460	0.090128
H68	H	0.823077	0.231097	-0.280100
C69	C	0.795914	-0.281718	-0.130723
C70	C	0.755177	-0.336610	-0.189308
C71	C	0.706070	-0.295151	-0.262917
C72	C	0.697700	-0.198799	-0.277941
C73	C	0.738439	-0.143902	-0.219355
C74	C	0.787546	-0.185361	-0.145746
H75	H	0.761372	-0.407941	-0.178188
H76	H	0.675913	-0.335790	-0.306286
H77	H	0.661348	-0.168109	-0.332431
H78	H	0.732244	-0.072572	-0.230475
H79	H	0.817703	-0.144722	-0.102377
H80	H	1.017553	0.025057	-0.293231
H81	H	0.935137	-0.448493	-0.201844
C82	C	1.062502	-0.022645	-0.676300
C83	C	1.067115	-0.027514	-0.580470
C84	C	1.128380	-0.092405	-0.536538
C85	C	1.185031	-0.152428	-0.588437
C86	C	1.180420	-0.147561	-0.684273
C87	C	1.119155	-0.082670	-0.728204
H88	H	1.025177	0.016921	-0.542046
H89	H	1.131793	-0.096007	-0.465594
H90	H	1.230383	-0.200464	-0.555916
H91	H	1.222358	-0.191996	-0.722696
H92	H	1.115742	-0.079068	-0.799148
C93	C	0.828602	0.225129	-0.844055
C94	C	0.856504	0.292300	-0.906052
C95	C	0.795240	0.357191	-0.949984
C96	C	0.706073	0.354912	-0.931918
C97	C	0.678166	0.287738	-0.869918
C98	C	0.739431	0.222847	-0.825987
H99	H	0.922515	0.293989	-0.919428
H100	H	0.815898	0.406917	-0.995880
H101	H	0.660721	0.402948	-0.964439
H102	H	0.612156	0.286049	-0.856542
H103	H	0.718772	0.173121	-0.780090
H104	H	1.042275	-0.329364	0.013936
C105	C	0.523322	0.125121	-0.194332
C106	C	0.474770	0.052338	-0.211872
C107	C	0.425576	0.055616	-0.291811
C108	C	0.424934	0.131677	-0.354209
C109	C	0.473488	0.204465	-0.336670
C110	C	0.522682	0.201187	-0.256731
H111	H	0.475244	-0.003972	-0.165680
H112	H	0.389633	0.001733	-0.304794
H113	H	0.388517	0.134104	-0.413384
H114	H	0.473014	0.260775	-0.382862
H115	H	0.558625	0.255071	-0.243748
H116	H	0.312838	0.123037	-0.226065
H117	H	0.811753	-0.441387	0.002305
H118	H	0.852113	0.200248	-0.674585
H119	H	1.032062	-0.465060	-0.152715
C120	C	0.166089	0.104546	0.080140
C121	C	0.189318	0.028960	0.141008
C122	C	0.148070	0.023757	0.227054
C123	C	0.083594	0.094140	0.252233
C124	C	0.060362	0.169732	0.191364
C125	C	0.101609	0.174934	0.105318
H126	H	0.237050	-0.023147	0.122370
H127	H	0.165268	-0.032201	0.272113
H128	H	0.053060	0.090289	0.315929
H129	H	0.012629	0.221838	0.210002
H130	H	0.084411	0.230893	0.060259
C131	C	1.057677	-0.317019	-0.154776
C132	C	1.094287	-0.267213	-0.088389
C133	C	1.180832	-0.247732	-0.098229
C134	C	1.230766	-0.278056	-0.174456
C135	C	1.194157	-0.327864	-0.240848
C136	C	1.107612	-0.347346	-0.231008
H137	H	1.057322	-0.244763	-0.031957
H138	H	1.207933	-0.210860	-0.049081
H139	H	1.294832	-0.263634	-0.181739
H140	H	1.231122	-0.350314	-0.297280
H141	H	1.080511	-0.384217	-0.280156
H142	H	0.163694	0.119878	-0.215984
H143	H	0.950041	-0.320428	0.074040
H144	H	0.938790	-0.305183	-0.201759
H145	H	0.952982	-0.465175	0.074234
H146	H	0.685241	0.127442	-0.183651
C147	C	1.064159	-0.484263	0.007345
C148	C	1.090054	-0.542111	-0.064703
C149	C	1.175923	-0.584857	-0.069791
C150	C	1.235896	-0.569755	-0.002831
C151	C	1.210002	-0.511904	0.069223
C152	C	1.124133	-0.469158	0.074311
H153	H	1.045658	-0.553293	-0.114276
H154	H	1.195091	-0.627682	-0.123130
H155	H	1.299461	-0.601398	-0.006597
H156	H	1.254398	-0.500722	0.118796
H157	H	1.104965	-0.426333	0.127650
H158	H	0.549214	0.110291	0.100201
H159	H	0.806489	-0.436684	-0.110748
H160	H	0.325946	0.109056	0.047716
H161	H	1.009947	0.033072	-0.451281
H162	H	1.038987	0.002229	-0.845767
