data_functionalizedCrystal
_audit_creation_method	'MofGen! by Chris Wilmer'
_symmetry_space_group_name_H-M	'P1'
_symmetry_Int_Tables_number	1
_symmetry_cell_setting	triclinic
loop_
_symmetry_equiv_pos_as_xyz
  x,y,z
_cell_length_a	19.288864
_cell_length_b	14.853567
_cell_length_c	17.766277
_cell_angle_alpha	89.997439
_cell_angle_beta	89.976791
_cell_angle_gamma	83.385589
loop_
_atom_site_label
_atom_site_type_symbol
_atom_site_fract_x
_atom_site_fract_y
_atom_site_fract_z
O1	O	0.921733	0.112464	-0.062829
O2	O	1.421733	0.612464	0.437171
O3	O	0.719523	0.127636	-0.062777
O4	O	1.219523	0.627636	0.437223
O5	O	0.826029	-0.011211	-0.062807
O6	O	1.326029	0.488789	0.437193
O7	O	0.815227	0.251310	-0.062800
O8	O	1.315227	0.751310	0.437200
O9	O	0.826011	-0.011218	0.062382
O10	O	1.326011	0.488782	0.562382
O11	O	0.719504	0.127629	0.062411
O12	O	1.219504	0.627629	0.562411
O13	O	0.921714	0.112457	0.062359
O14	O	1.421714	0.612457	0.562359
Cu15	Cu	0.820607	0.120042	0.073816
Cu16	Cu	1.320607	0.620042	0.573816
Cu17	Cu	0.820630	0.120051	-0.074234
Cu18	Cu	1.320630	0.620051	0.425766
O19	O	0.815208	0.251303	0.062389
O20	O	1.315208	0.751303	0.562389
C21	C	0.693636	0.127144	-0.000176
C22	C	1.193636	0.627144	0.499824
C23	C	0.616527	0.125679	-0.000157
C24	C	1.116527	0.625679	0.499843
C25	C	0.572106	0.207147	-0.000166
C26	C	1.072106	0.707147	0.499834
C27	C	0.499654	0.205770	-0.000175
C28	C	0.999654	0.705770	0.499825
C29	C	0.471627	0.122920	-0.000188
C30	C	0.971627	0.622920	0.499812
C31	C	0.516058	0.041441	-0.000175
C32	C	1.016058	0.541441	0.499825
C33	C	0.588508	0.042820	-0.000159
C34	C	1.088508	0.542820	0.499841
C35	C	0.363152	0.057794	-0.044075
C36	C	0.863152	0.557794	0.455925
C37	C	0.290703	0.056418	-0.044095
C38	C	0.790703	0.556418	0.455905
C39	C	0.248167	0.118664	-0.000234
C40	C	0.748167	0.618664	0.499766
C41	C	0.278088	0.182300	0.043638
C42	C	0.778088	0.682300	0.543638
C43	C	0.350538	0.183679	0.043654
C44	C	0.850538	0.683679	0.543654
C45	C	0.393068	0.121416	-0.000205
C46	C	0.893068	0.621416	0.499795
C47	C	0.125185	0.198645	-0.000252
C48	C	0.625185	0.698645	0.499748
C49	C	0.052732	0.197265	-0.000255
C50	C	0.552732	0.697265	0.499745
C51	C	0.069138	0.032933	-0.000263
C52	C	0.569138	0.532933	0.499737
C53	C	0.141589	0.034316	-0.000252
C54	C	0.641589	0.534316	0.499748
C55	C	0.169608	0.117174	-0.000250
C56	C	0.669608	0.617174	0.499750
C57	C	0.825530	-0.044800	-0.000215
C58	C	1.325530	0.455200	0.499785
C59	C	0.824064	-0.144875	-0.000221
C60	C	1.324064	0.355125	0.499779
C61	C	0.754596	-0.557014	-0.000189
C62	C	1.254596	-0.057014	0.499811
C63	C	0.881128	-0.579015	-0.000221
C64	C	1.381128	-0.079015	0.499779
C65	C	0.882507	-0.484989	-0.000226
C66	C	1.382507	0.015011	0.499774
C67	C	0.819930	-0.426971	-0.000211
C68	C	1.319930	0.073029	0.499789
C69	C	0.755974	-0.462979	-0.000191
C70	C	1.255974	0.037021	0.499809
C71	C	0.946462	-0.448973	-0.000239
C72	C	1.446462	0.051027	0.499761
C73	C	0.947844	-0.354942	-0.000242
C74	C	1.447844	0.145058	0.499758
C75	C	0.885266	-0.296923	-0.000233
C76	C	1.385266	0.203077	0.499767
C77	C	0.821307	-0.332936	-0.000214
C78	C	1.321307	0.167064	0.499786
C79	C	0.758730	-0.274918	-0.000199
C80	C	1.258730	0.225082	0.499801
C81	C	0.694770	-0.310930	-0.000185
C82	C	1.194770	0.189070	0.499815
C83	C	0.693396	-0.404960	-0.000181
C84	C	1.193396	0.095040	0.499819
C85	C	0.886641	-0.202893	-0.000236
C86	C	1.386641	0.297107	0.499764
C87	C	0.760107	-0.180883	-0.000201
C88	C	1.260107	0.319117	0.499799
C89	C	0.947601	0.112949	-0.000243
C90	C	1.447601	0.612949	0.499757
C91	C	1.024710	0.114414	-0.000268
C92	C	1.524710	0.614414	0.499732
C93	C	0.815707	0.284893	-0.000205
C94	C	1.315707	0.784893	0.499795
C95	C	0.817174	0.384968	-0.000204
C96	C	1.317174	0.884968	0.499796
N97	N	0.820597	0.120036	0.177946
N98	N	1.320597	0.620036	0.677946
N99	N	0.820646	0.120050	-0.178364
N100	N	1.320646	0.620050	0.321636
C101	C	0.867773	0.058585	0.217320
C102	C	1.367773	0.558585	0.717320
C103	C	0.867777	0.058581	0.296122
C104	C	1.367777	0.558581	0.796122
C105	C	0.820612	0.120043	0.335547
C106	C	1.320612	0.620043	0.835547
C107	C	0.773427	0.181499	0.296164
C108	C	1.273427	0.681499	0.796164
C109	C	0.773419	0.181495	0.217363
C110	C	1.273419	0.681495	0.717363
C111	C	0.811590	0.202186	0.460389
C112	C	1.311590	0.702186	0.960389
C113	C	0.811602	0.202191	0.539187
C114	C	1.311602	0.702191	1.039187
C115	C	0.820630	0.120054	0.578593
C116	C	1.320630	0.620054	1.078593
C117	C	0.829661	0.037908	0.539190
C118	C	1.329661	0.537908	1.039190
C119	C	0.829653	0.037905	0.460390
C120	C	1.329653	0.537905	0.960390
C121	C	0.820614	0.120053	0.420992
C122	C	1.320614	0.620053	0.920992
C123	C	0.867813	0.058593	0.703413
C124	C	1.367813	0.558593	1.203413
C125	C	0.867813	0.058588	0.782216
C126	C	1.367813	0.558588	1.282216
C127	C	0.773465	0.181514	0.782256
C128	C	1.273465	0.681514	1.282256
C129	C	0.773463	0.181511	0.703455
C130	C	1.273463	0.681511	1.203455
C131	C	0.820640	0.120052	0.664038
C132	C	1.320640	0.620052	1.164038
H133	H	0.177758	-0.032025	-0.000248
H134	H	0.677758	0.467975	0.499752
H135	H	0.046319	-0.034525	-0.000321
H136	H	0.546319	0.465475	0.499679
H137	H	0.374897	0.235492	0.079378
H138	H	0.874897	0.735492	0.579378
N139	N	0.451730	0.293643	-0.000187
N140	N	0.951730	0.793643	0.499813
H141	H	0.480474	0.346341	-0.000182
H142	H	0.980474	0.846341	0.499818
H143	H	0.421342	0.296641	-0.046604
H144	H	0.921342	0.796641	0.453396
N145	N	0.722542	0.247782	0.174886
N146	N	1.222542	0.747782	0.674886
H147	H	0.691758	0.213430	0.142209
H148	H	1.191758	0.713430	0.642209
H149	H	0.692706	0.286704	0.211861
H150	H	1.192706	0.786704	0.711861
H151	H	0.837012	-0.028976	0.571273
H152	H	1.337012	0.471024	1.071273
H153	H	0.906195	0.008538	0.328186
H154	H	1.406195	0.508538	0.828186
N155	N	0.839390	-0.050686	0.417890
N156	N	1.339390	0.449314	0.917890
H157	H	0.845112	-0.102723	0.454805
H158	H	1.345112	0.397277	0.954805
H159	H	0.797188	-0.055809	0.385219
H160	H	1.297188	0.444191	0.885219
H161	H	0.243457	0.232986	0.079354
H162	H	0.743457	0.732986	0.579354
N163	N	0.004819	0.285141	-0.000272
N164	N	0.504819	0.785141	0.499728
H165	H	-0.045331	0.271697	-0.000279
H166	H	0.454669	0.771697	0.499721
H167	H	0.013877	0.321266	0.046137
H168	H	0.513877	0.821266	0.546137
H169	H	0.804254	0.269079	0.571263
H170	H	1.304254	0.769079	1.071263
N171	N	0.918709	-0.007680	0.824688
N172	N	1.418709	0.492320	1.324688
H173	H	0.948599	-0.046603	0.787757
H174	H	1.448599	0.453397	1.287757
H175	H	0.949438	0.026761	0.857356
H176	H	1.449438	0.526761	1.357356
N177	N	0.918692	-0.007693	0.660892
N178	N	1.418692	0.492307	1.160892
H179	H	0.948576	-0.046629	0.697795
H180	H	1.448576	0.453371	1.197795
H181	H	0.892064	-0.047461	0.628211
H182	H	1.392064	0.452539	1.128211
H183	H	0.735022	0.231541	0.328267
H184	H	1.235022	0.731541	0.828267
N185	N	0.409024	-0.009346	-0.091389
N186	N	0.909024	0.490654	0.408611
H187	H	0.459461	0.001181	-0.084720
H188	H	0.959461	0.501181	0.415280
H189	H	0.402679	-0.072988	-0.074998
H190	H	0.902679	0.427012	0.425002
H191	H	0.999924	-0.325630	-0.000255
H192	H	1.499924	0.174370	0.499745
N193	N	0.955617	-0.164052	-0.000245
N194	N	1.455617	0.335948	0.499755
H195	H	0.958995	-0.125531	0.046163
H196	H	1.458995	0.374469	0.546163
H197	H	0.995007	-0.215125	-0.000276
H198	H	1.495007	0.284875	0.499724
H199	H	0.804226	0.269077	0.428311
H200	H	1.304226	0.769077	0.928311
N201	N	0.685614	-0.595847	-0.000178
N202	N	1.185614	-0.095847	0.499822
H203	H	0.694232	-0.664218	-0.000181
H204	H	1.194232	-0.164218	0.499819
H205	H	0.658221	-0.574608	0.046238
H206	H	1.158221	-0.074608	0.546238
H207	H	0.147999	0.266113	-0.000239
H208	H	0.647999	0.766113	0.499761
H209	H	0.997409	-0.496218	-0.000244
H210	H	1.497409	0.003782	0.499756
H211	H	0.932075	-0.626258	-0.000228
H212	H	1.432075	-0.126258	0.499772
H213	H	0.643820	-0.263680	-0.000167
H214	H	1.143820	0.236320	0.499833
N215	N	0.722587	0.247800	0.824767
N216	N	1.222587	0.747800	1.324767
H217	H	0.729748	0.238477	0.880662
H218	H	1.229748	0.738477	1.380662
H219	H	0.730666	0.311731	0.810986
H220	H	1.230666	0.811731	1.310986
H221	H	0.735050	0.231554	0.671394
H222	H	1.235050	0.731554	1.171394
N223	N	0.918653	-0.007703	0.174806
N224	N	1.418653	0.492297	0.674806
H225	H	0.948539	-0.046634	0.211711
H226	H	1.448539	0.453366	0.711711
H227	H	0.892024	-0.047476	0.142131
H228	H	1.392024	0.452524	0.642131
H229	H	0.493234	-0.026016	-0.000196
H230	H	0.993234	0.473984	0.499804
N231	N	0.602327	0.296511	-0.000169
N232	N	1.102327	0.796511	0.499831
H233	H	0.563188	0.347913	-0.000179
H234	H	1.063188	0.847913	0.499821
H235	H	0.632005	0.300670	0.046244
H236	H	1.132005	0.800670	0.546244
N237	N	0.258433	-0.012212	-0.091413
N238	N	0.758433	0.487788	0.408587
H239	H	0.296372	-0.051443	-0.119188
H240	H	0.796372	0.448557	0.380812
H241	H	0.232212	-0.051437	-0.057775
H242	H	0.732212	0.448563	0.442225
N243	N	0.636420	-0.045057	-0.000147
N244	N	1.136420	0.454943	0.499853
H245	H	0.627422	-0.081217	-0.046557
H246	H	1.127422	0.418783	0.453443
H247	H	0.686550	-0.031540	-0.000108
H248	H	1.186550	0.468460	0.499892
N249	N	0.692615	-0.118303	-0.000174
N250	N	1.192615	0.381697	0.499826
H251	H	0.690372	-0.078793	-0.046578
H252	H	1.190372	0.421207	0.453422
H253	H	0.651928	-0.155444	-0.000134
H254	H	1.151928	0.344556	0.499866
N255	N	0.624416	-0.443800	-0.000164
N256	N	1.124416	0.056200	0.499836
H257	H	0.633041	-0.512170	-0.000160
H258	H	1.133041	-0.012170	0.499840
H259	H	0.597024	-0.422557	0.046253
H260	H	1.097024	0.077443	0.546253
