data_functionalizedCrystal
_audit_creation_method	'MofGen! by Chris Wilmer'
_symmetry_space_group_name_H-M	'P1'
_symmetry_Int_Tables_number	1
_symmetry_cell_setting	triclinic
loop_
_symmetry_equiv_pos_as_xyz
  x,y,z
_cell_length_a	19.288859
_cell_length_b	17.038274
_cell_length_c	18.366186
_cell_angle_alpha	90.013962
_cell_angle_beta	89.990083
_cell_angle_gamma	92.877245
loop_
_atom_site_label
_atom_site_type_symbol
_atom_site_fract_x
_atom_site_fract_y
_atom_site_fract_z
O1	O	0.927387	-0.097491	-0.060577
O2	O	0.725940	-0.110650	-0.060577
O3	O	0.825466	0.009741	-0.060557
O4	O	0.827861	-0.217882	-0.060597
O5	O	0.825448	0.009747	0.060542
O6	O	0.725922	-0.110644	0.060522
O7	O	0.927369	-0.097485	0.060522
Zn8	Zn	0.826643	-0.104064	0.079749
Zn9	Zn	0.826667	-0.104071	-0.079804
O10	O	0.827843	-0.217876	0.060502
C11	C	0.700029	-0.110225	-0.000027
C12	C	0.622846	-0.108956	-0.000026
C13	C	0.062645	-0.171014	-0.000038
C14	C	0.135166	-0.172213	-0.000042
C15	C	0.175502	-0.101573	-0.000029
C16	C	0.143312	-0.029728	-0.000029
C17	C	0.070792	-0.028532	-0.000033
C18	C	0.293506	-0.048888	0.042410
C19	C	0.366024	-0.050087	0.042418
C20	C	0.399176	-0.105261	-0.000022
C21	C	0.359801	-0.159248	-0.042460
C22	C	0.287281	-0.158052	-0.042463
C23	C	0.254138	-0.102863	-0.000025
C24	C	0.509993	-0.178401	-0.000030
C25	C	0.582515	-0.179597	-0.000039
C26	C	0.590660	-0.037110	-0.000019
C27	C	0.518139	-0.035917	-0.000017
C28	C	0.477810	-0.106564	-0.000020
C29	C	0.823279	0.038865	-0.000004
C30	C	0.816782	0.125637	0.000007
C31	C	0.876438	0.175945	0.000014
C32	C	0.870328	0.257476	0.000017
C33	C	0.804562	0.288697	0.000019
C34	C	0.744901	0.238382	0.000010
C35	C	0.751012	0.156853	0.000002
C36	C	0.782976	0.534384	0.000040
C37	C	0.776870	0.615920	0.000051
C38	C	0.902297	0.635008	0.000057
C39	C	0.908402	0.553476	0.000052
C40	C	0.848741	0.503169	0.000040
C41	C	0.798315	0.372034	0.000025
C42	C	0.854988	0.419833	0.000029
C43	C	0.953281	-0.097910	-0.000029
C44	C	1.030463	-0.099179	-0.000035
C45	C	0.830030	0.753000	-0.000021
C46	C	0.836526	0.666228	0.000058
N47	N	0.826631	-0.104058	0.188640
N48	N	0.826684	-0.104071	-0.188695
C49	C	0.870718	-0.050775	0.226750
C50	C	0.870722	-0.050771	0.302978
C51	C	0.826647	-0.104064	0.341093
C52	C	0.782551	-0.157352	0.302975
C53	C	0.782543	-0.157348	0.226748
C54	C	0.821755	-0.175288	0.461841
C55	C	0.821768	-0.175292	0.538066
C56	C	0.826667	-0.104074	0.576201
C57	C	0.831568	-0.032848	0.538101
C58	C	0.831560	-0.032845	0.461875
C59	C	0.826650	-0.104073	0.423748
C60	C	0.870761	-0.050783	0.696965
C61	C	0.870760	-0.050778	0.773194
C62	C	0.782593	-0.157365	0.773190
C63	C	0.782590	-0.157363	0.696962
C64	C	0.826678	-0.104073	0.658854
H65	H	0.398078	-0.006132	0.076977
N66	N	0.836843	0.043969	0.420780
H67	H	0.839949	0.089089	0.456499
H68	H	0.794383	0.048410	0.389168
H69	H	0.691353	0.263808	0.000007
N70	N	0.966642	0.689266	0.000071
H71	H	0.952795	0.745653	0.000078
H72	H	0.995104	0.679178	-0.044822
N73	N	0.925919	0.386161	0.000035
H74	H	0.962789	0.430400	0.000044
H75	H	0.931195	0.352743	-0.044861
N76	N	0.036079	0.048952	-0.000015
H77	H	-0.015981	0.038991	-0.000015
H78	H	0.050539	0.079851	-0.044903
N79	N	0.686669	0.102588	-0.000010
H80	H	0.644079	0.134736	-0.000007
H81	H	0.686463	0.068348	0.044878
N82	N	0.483421	0.041562	0.000002
H83	H	0.453522	0.045232	-0.044890
H84	H	0.520015	0.086087	0.000039
N85	N	0.019177	-0.247229	-0.000036
H86	H	-0.011089	-0.249944	-0.044925
H87	H	-0.011054	-0.249868	0.044888
H88	H	0.906625	-0.007380	0.334012
N89	N	0.918318	0.006688	0.814304
H90	H	0.950822	-0.023110	0.845914
H91	H	0.889696	0.041211	0.845907
H92	H	0.817754	-0.233287	0.430798
N93	N	0.718629	0.480132	0.000031
H94	H	0.718374	0.445880	-0.044867
H95	H	0.676079	0.512342	0.000063
H96	H	0.161374	-0.230711	-0.000038
H97	H	0.266520	-0.003954	0.076971
N98	N	0.244814	-0.216265	-0.088244
H99	H	0.193844	-0.207130	-0.081805
H100	H	0.254339	-0.271448	-0.072394
H101	H	0.906658	-0.007388	0.665936
H102	H	0.744768	0.397463	0.000028
H103	H	0.835557	0.025144	0.569149
N104	N	0.735047	-0.214841	0.814289
H105	H	0.741739	-0.206758	0.868361
H106	H	0.746340	-0.270273	0.800949
N107	N	0.918265	0.006702	0.185648
H108	H	0.946195	0.040459	0.221362
H109	H	0.889637	0.041187	0.154040
N110	N	0.395545	-0.218767	-0.088234
H111	H	0.447460	-0.211333	-0.081797
H112	H	0.383294	-0.211256	-0.141153
N113	N	0.947373	0.142278	0.000016
H114	H	0.952714	0.108868	-0.044876
H115	H	0.952650	0.108925	0.044936
H116	H	0.746693	-0.200754	0.665931
H117	H	0.817782	-0.233289	0.569081
N118	N	0.979341	0.519819	0.000034
H119	H	0.984675	0.486415	-0.044864
H120	H	0.984633	0.486461	0.044949
N121	N	0.735008	-0.214829	0.344080
H122	H	0.741703	-0.206747	0.398152
H123	H	0.746299	-0.270260	0.330736
N124	N	0.734987	-0.214822	0.185646
H125	H	0.746259	-0.270280	0.198894
H126	H	0.741691	-0.206668	0.131586
N127	N	0.466489	-0.254594	-0.000041
H128	H	0.497883	-0.300285	-0.000052
H129	H	0.436231	-0.257200	-0.044935
H130	H	0.608716	-0.238096	-0.000048
H131	H	0.176158	0.027787	-0.000020
H132	H	0.623501	0.020406	-0.000013
H133	H	0.918907	0.298434	0.000024
H134	H	0.723313	0.641336	0.000065
