data_functionalizedCrystal
_audit_creation_method	'MofGen! by Chris Wilmer'
_symmetry_space_group_name_H-M	'P1'
_symmetry_Int_Tables_number	1
_symmetry_cell_setting	triclinic
loop_
_symmetry_equiv_pos_as_xyz
  x,y,z
_cell_length_a	21.295418
_cell_length_b	25.639239
_cell_length_c	21.295420
_cell_angle_alpha	90.004828
_cell_angle_beta	90.036164
_cell_angle_gamma	90.054499
loop_
_atom_site_label
_atom_site_type_symbol
_atom_site_fract_x
_atom_site_fract_y
_atom_site_fract_z
Zn1	Zn	0.962273	-0.208066	0.356243
Zn2	Zn	1.462273	0.291934	0.856243
Zn3	Zn	0.962174	-0.295463	0.250972
Zn4	Zn	1.462174	0.204537	0.750972
Zn5	Zn	0.857010	-0.208068	0.250952
Zn6	Zn	1.357010	0.291932	0.750952
Zn7	Zn	0.856950	-0.295496	0.356168
Zn8	Zn	1.356950	0.204504	0.856168
O9	O	0.909602	-0.251773	0.303584
O10	O	1.409602	0.248227	0.803584
O11	O	1.050349	-0.219644	0.342317
O12	O	1.550349	0.280356	0.842317
O13	O	0.948208	-0.283857	0.162880
O14	O	1.448208	0.216143	0.662880
O15	O	0.871040	-0.134902	0.264942
O16	O	1.371040	0.365098	0.764942
O17	O	1.050277	-0.283855	0.264976
O18	O	1.550277	0.216145	0.764976
O19	O	0.948376	-0.134901	0.342299
O20	O	1.448376	0.365099	0.842299
O21	O	0.870944	-0.219648	0.162866
O22	O	1.370944	0.280352	0.662866
O23	O	0.768913	-0.219680	0.264870
O24	O	1.268913	0.280320	0.764870
O25	O	0.870938	-0.283911	0.444268
O26	O	1.370938	0.216089	0.944268
O27	O	0.768869	-0.283913	0.342172
O28	O	1.268869	0.216087	0.842172
O29	O	0.948318	-0.219676	0.444322
O30	O	1.448318	0.280324	0.944322
O31	O	0.948150	-0.368633	0.264904
O32	O	1.448150	0.131367	0.764904
O33	O	0.870842	-0.368657	0.342191
O34	O	1.370842	0.131343	0.842191
C35	C	0.746050	-0.251801	0.303511
C36	C	1.246050	0.248199	0.803511
C37	C	0.676082	-0.251825	0.303495
C38	C	1.176082	0.248175	0.803495
C39	C	0.643209	-0.285315	0.343686
C40	C	1.143209	0.214685	0.843686
C41	C	0.577467	-0.285303	0.343714
C42	C	1.077467	0.214697	0.843714
C43	C	0.544600	-0.251805	0.303541
C44	C	1.044600	0.248195	0.803541
C45	C	0.577480	-0.218308	0.263347
C46	C	1.077480	0.281692	0.763347
C47	C	0.643222	-0.218318	0.263324
C48	C	1.143222	0.281682	0.763324
N49	N	0.441332	-0.247701	0.248483
N50	N	0.941332	0.252299	0.748483
N51	N	0.378880	-0.247694	0.248506
N52	N	0.878880	0.252306	0.748506
C53	C	0.346525	-0.251771	0.303607
C54	C	0.846525	0.248229	0.803607
N55	N	0.378980	-0.255866	0.358686
N56	N	0.878980	0.244134	0.858686
N57	N	0.441438	-0.255875	0.358662
N58	N	0.941438	0.244125	0.858662
C59	C	0.473314	-0.251790	0.303561
C60	C	0.973314	0.248210	0.803561
C61	C	0.242366	-0.285250	0.343832
C62	C	0.742366	0.214750	0.843832
C63	C	0.176623	-0.285233	0.343862
C64	C	0.676623	0.214767	0.843862
C65	C	0.176638	-0.218241	0.263489
C66	C	0.676638	0.281759	0.763489
C67	C	0.242380	-0.218255	0.263465
C68	C	0.742380	0.281745	0.763465
C69	C	0.275241	-0.251762	0.303636
C70	C	0.775241	0.248238	0.803636
C71	C	0.909496	-0.387616	0.303555
C72	C	1.409496	0.112384	0.803555
C73	C	0.909508	-0.445730	0.303564
C74	C	1.409508	0.054270	0.803564
C75	C	0.949961	-0.806068	0.263409
C76	C	1.449961	-0.306068	0.763409
C77	C	0.949985	-0.860672	0.263417
C78	C	1.449985	-0.360672	0.763417
O79	O	0.984270	-0.888887	0.229245
O80	O	1.484270	-0.388887	0.729245
N81	N	0.909712	-0.888012	0.303626
N82	N	1.409712	-0.388012	0.803626
C83	C	0.869417	-0.860745	0.343833
C84	C	1.369417	-0.360745	0.843833
O85	O	0.835165	-0.889014	0.378034
O86	O	1.335165	-0.389014	0.878034
C87	C	0.869396	-0.806142	0.343827
C88	C	1.369396	-0.306142	0.843827
C89	C	0.909667	-0.778805	0.303611
C90	C	1.409667	-0.278805	0.803611
C91	C	0.990229	-0.778730	0.223197
C92	C	1.490229	-0.278730	0.723197
C93	C	0.990204	-0.724130	0.223188
C94	C	1.490204	-0.224130	0.723188
C95	C	0.949910	-0.696867	0.263391
C96	C	1.449910	-0.196867	0.763391
C97	C	0.909642	-0.724204	0.303602
C98	C	1.409642	-0.224204	0.803602
C99	C	0.829105	-0.778876	0.384036
C100	C	1.329105	-0.278876	0.884036
C101	C	0.829088	-0.724269	0.384028
C102	C	1.329088	-0.224269	0.884028
C103	C	0.869359	-0.696932	0.343812
C104	C	1.369359	-0.196932	0.843812
C105	C	0.869323	-0.642340	0.343796
C106	C	1.369323	-0.142340	0.843796
N107	N	0.909596	-0.615000	0.303588
N108	N	1.409596	-0.115000	0.803588
C109	C	0.949889	-0.642263	0.263385
C110	C	1.449889	-0.142263	0.763385
C111	C	0.869465	-0.975416	0.343842
C112	C	1.369465	-0.475416	0.843842
C113	C	0.869482	-1.030018	0.343845
C114	C	1.369482	-0.530018	0.843845
C115	C	0.950051	-1.029941	0.263431
C116	C	1.450051	-0.529941	0.763431
C117	C	0.950030	-0.975338	0.263425
C118	C	1.450030	-0.475338	0.763425
C119	C	0.909737	-0.948076	0.303634
C120	C	1.409737	-0.448076	0.803634
C121	C	0.949833	-0.527598	0.263369
C122	C	1.449833	-0.027598	0.763369
C123	C	0.949802	-0.472993	0.263361
C124	C	1.449802	0.027007	0.763361
C125	C	0.869235	-0.473075	0.343778
C126	C	1.369235	0.026925	0.843778
C127	C	0.869264	-0.527675	0.343783
C128	C	1.369264	-0.027675	0.843783
C129	C	0.909567	-0.554936	0.303576
C130	C	1.409567	-0.054936	0.803576
O131	O	0.835058	-0.614090	0.377953
O132	O	1.335058	-0.114090	0.877953
O133	O	0.984142	-0.613988	0.229195
O134	O	1.484142	-0.113988	0.729195
C135	C	1.073792	-0.251746	0.303657
C136	C	1.573792	0.248254	0.803657
C137	C	1.143760	-0.251734	0.303688
C138	C	1.643760	0.248266	0.803688
C139	C	0.909632	-0.251797	0.467774
C140	C	1.409632	0.248203	0.967774
C141	C	0.909645	-0.251807	0.537742
C142	C	1.409645	0.248193	1.037742
C143	C	0.909725	-0.115400	0.303627
C144	C	1.409725	0.384600	0.803627
C145	C	0.909778	-0.057286	0.303645
C146	C	1.409778	0.442714	0.803645
C147	C	0.949931	-0.218366	0.570638
C148	C	1.449931	0.281634	1.070638
C149	C	0.949921	-0.218357	0.636381
C150	C	1.449921	0.281643	1.136381
C151	C	0.909633	-0.251799	0.669225
C152	C	1.409633	0.248201	1.169225
C153	C	0.869339	-0.285243	0.636321
C154	C	1.369339	0.214757	1.136321
C155	C	0.869346	-0.285247	0.570579
C156	C	1.369346	0.214753	1.070579
N157	N	0.904755	-0.297561	0.772440
N158	N	1.404755	0.202439	1.272440
N159	N	0.904752	-0.297555	0.834892
N160	N	1.404752	0.202445	1.334892
C161	C	0.909611	-0.251789	0.867299
C162	C	1.409611	0.248211	1.367299
N163	N	0.914484	-0.206026	0.834896
N164	N	1.414484	0.293974	1.334896
N165	N	0.914489	-0.206032	0.772439
N166	N	1.414489	0.293968	1.272439
C167	C	0.909621	-0.251798	0.740510
C168	C	1.409621	0.248202	1.240510
C169	C	0.949888	-0.218335	0.971481
C170	C	1.449888	0.281665	1.471481
C171	C	0.949874	-0.218325	1.037225
C172	C	1.449874	0.281675	1.537225
C173	C	0.869295	-0.285216	1.037163
C174	C	1.369295	0.214784	1.537163
C175	C	0.869306	-0.285221	0.971421
C176	C	1.369306	0.214779	1.471421
C177	C	0.909606	-0.251781	0.938584
C178	C	1.409606	0.248219	1.438584
C179	C	0.909574	-0.251765	1.140032
C180	C	1.409574	0.248235	1.640032
C181	C	0.909584	-0.251767	1.070064
C182	C	1.409584	0.248233	1.570064
H183	H	0.149878	-0.190964	0.230781
H184	H	0.649878	0.309036	0.730781
H185	H	0.149859	-0.312504	0.376594
H186	H	0.649859	0.187496	0.876594
H187	H	0.836648	-0.953222	0.376583
H188	H	1.336648	-0.453222	0.876583
Br189	Br	0.532877	-0.172842	0.208830
Br190	Br	1.032877	0.327158	0.708830
H191	H	0.669987	-0.191044	0.230596
H192	H	1.169987	0.308956	0.730596
Br193	Br	0.774454	-0.815963	0.438625
Br194	Br	1.274454	-0.315963	0.938625
Br195	Br	1.004562	-0.172944	1.081871
Br196	Br	1.504562	0.327056	1.581871
Br197	Br	0.687803	-0.330788	0.398205
Br198	Br	1.187803	0.169212	0.898205
Br199	Br	0.814657	-0.330626	0.680893
Br200	Br	1.314657	0.169374	1.180893
Br201	Br	0.814609	-0.330596	1.081730
Br202	Br	1.314609	0.169404	1.581730
Br203	Br	1.004583	-0.172956	0.681036
Br204	Br	1.504583	0.327044	1.181036
Br205	Br	0.814631	-0.330609	0.926773
Br206	Br	1.314631	0.169391	1.426773
H207	H	0.269146	-0.190986	0.230734
H208	H	0.769146	0.309014	0.730734
H209	H	0.836537	-0.312479	0.543796
H210	H	1.336537	0.187521	1.043796
H211	H	0.796277	-0.702075	0.416773
H212	H	1.296277	-0.202075	0.916773
H213	H	0.982595	-0.450736	0.230611
H214	H	1.482595	0.049264	0.730611
H215	H	0.550696	-0.312574	0.376445
H216	H	1.050696	0.187426	0.876445
Br217	Br	1.004577	-0.172952	0.926912
Br218	Br	1.504577	0.327048	1.426912
Br219	Br	1.004531	-0.564586	0.208802
Br220	Br	1.504531	-0.064586	0.708802
H221	H	0.836474	-0.549935	0.376532
H222	H	1.336474	-0.049935	0.876532
H223	H	0.269123	-0.312530	0.376545
H224	H	0.769123	0.187470	0.876545
H225	H	1.022997	-0.701875	0.190443
H226	H	1.522997	-0.201875	0.690443
H227	H	1.023044	-0.800922	0.190459
H228	H	1.523044	-0.300922	0.690459
H229	H	0.982822	-0.953083	0.230679
H230	H	1.482822	-0.453083	0.730679
H231	H	0.836683	-1.052272	0.376587
H232	H	1.336683	-0.552272	0.876587
Br233	Br	1.004733	-1.066952	0.208867
Br234	Br	1.504733	-0.566952	0.708867
H235	H	0.836427	-0.450869	0.376508
H236	H	1.336427	0.049131	0.876508
H237	H	0.982745	-0.191136	0.543906
H238	H	1.482745	0.308864	1.043906
