data_functionalizedCrystal
_audit_creation_method	'MofGen! by Chris Wilmer'
_symmetry_space_group_name_H-M	'P1'
_symmetry_Int_Tables_number	1
_symmetry_cell_setting	triclinic
loop_
_symmetry_equiv_pos_as_xyz
  x,y,z
_cell_length_a	16.992701
_cell_length_b	16.974813
_cell_length_c	15.186229
_cell_angle_alpha	86.341696
_cell_angle_beta	89.996535
_cell_angle_gamma	87.023742
loop_
_atom_site_label
_atom_site_type_symbol
_atom_site_fract_x
_atom_site_fract_y
_atom_site_fract_z
O1	O	1.040210	0.167638	-0.085179
O2	O	1.290210	0.417638	0.164821
O3	O	1.540210	0.667638	0.414821
O4	O	1.790210	0.917638	0.664821
O5	O	0.811926	0.165801	-0.085048
O6	O	1.061926	0.415801	0.164952
O7	O	1.311926	0.665801	0.414952
O8	O	1.561926	0.915801	0.664952
O9	O	0.932432	0.052019	-0.076936
O10	O	1.182432	0.302019	0.173064
O11	O	1.432432	0.552019	0.423064
O12	O	1.682432	0.802019	0.673064
O13	O	0.919704	0.281421	-0.093292
O14	O	1.169704	0.531421	0.156708
O15	O	1.419704	0.781421	0.406708
O16	O	1.669704	1.031421	0.656708
O17	O	0.932424	0.052016	0.069522
O18	O	1.182424	0.302016	0.319522
O19	O	1.432424	0.552016	0.569522
O20	O	1.682424	0.802016	0.819522
O21	O	0.811918	0.165799	0.061409
O22	O	1.061918	0.415799	0.311409
O23	O	1.311918	0.665799	0.561409
O24	O	1.561918	0.915799	0.811409
O25	O	1.040202	0.167636	0.061278
O26	O	1.290202	0.417636	0.311278
O27	O	1.540202	0.667636	0.561278
O28	O	1.790202	0.917636	0.811278
Zn29	Zn	0.926059	0.166717	0.084597
Zn30	Zn	1.176059	0.416717	0.334597
Zn31	Zn	1.426059	0.666717	0.584597
Zn32	Zn	1.676059	0.916717	0.834597
Zn33	Zn	0.926069	0.166720	-0.108367
Zn34	Zn	1.176069	0.416720	0.141633
Zn35	Zn	1.426069	0.666720	0.391633
Zn36	Zn	1.676069	0.916720	0.641633
O37	O	0.919696	0.281419	0.053166
O38	O	1.169696	0.531419	0.303166
O39	O	1.419696	0.781419	0.553166
O40	O	1.669696	1.031419	0.803166
C41	C	0.782712	0.163434	-0.011651
C42	C	1.032712	0.413434	0.238349
C43	C	1.282712	0.663434	0.488349
C44	C	1.532712	0.913434	0.738349
C45	C	0.695676	0.156376	-0.011148
C46	C	0.945676	0.406376	0.238852
C47	C	1.195676	0.656376	0.488852
C48	C	1.445676	0.906376	0.738852
C49	C	0.206767	0.108947	-0.007770
C50	C	0.456767	0.358947	0.242230
C51	C	0.706767	0.608947	0.492230
C52	C	0.956767	0.858947	0.742230
C53	C	0.288546	0.115585	-0.008238
C54	C	0.538546	0.365585	0.241762
C55	C	0.788546	0.615585	0.491762
C56	C	1.038546	0.865585	0.741762
C57	C	0.320009	0.190340	-0.013572
C58	C	0.570009	0.440340	0.236428
C59	C	0.820009	0.690340	0.486428
C60	C	1.070009	0.940340	0.736428
C61	C	0.269688	0.258460	-0.018429
C62	C	0.519688	0.508460	0.231571
C63	C	0.769688	0.758460	0.481571
C64	C	1.019688	1.008460	0.731571
C65	C	0.187910	0.251821	-0.017955
C66	C	0.437910	0.501821	0.232045
C67	C	0.687910	0.751821	0.482045
C68	C	0.937910	1.001821	0.732045
C69	C	0.563576	0.217857	-0.015531
C70	C	0.813576	0.467857	0.234469
C71	C	1.063576	0.717857	0.484469
C72	C	1.313576	0.967857	0.734469
C73	C	0.645361	0.224491	-0.016008
C74	C	0.895361	0.474491	0.233992
C75	C	1.145361	0.724491	0.483992
C76	C	1.395361	0.974491	0.733992
C77	C	0.664214	0.081615	-0.005815
C78	C	0.914214	0.331615	0.244185
C79	C	1.164214	0.581615	0.494185
C80	C	1.414214	0.831615	0.744185
C81	C	0.582434	0.074982	-0.005346
C82	C	0.832434	0.324982	0.244654
C83	C	1.082434	0.574982	0.494654
C84	C	1.332434	0.824982	0.744654
C85	C	0.532119	0.143103	-0.010199
C86	C	0.782119	0.393103	0.239801
C87	C	1.032119	0.643103	0.489801
C88	C	1.282119	0.893103	0.739801
N89	N	0.403600	0.197127	-0.014053
N90	N	0.653600	0.447127	0.235947
N91	N	0.903600	0.697127	0.485947
N92	N	1.153600	0.947127	0.735947
N93	N	0.448530	0.136315	-0.009711
N94	N	0.698530	0.386315	0.240289
N95	N	0.948530	0.636315	0.490289
N96	N	1.198530	0.886315	0.740289
C97	C	0.931944	0.022528	-0.001606
C98	C	1.181944	0.272528	0.248394
C99	C	1.431944	0.522528	0.498394
C100	C	1.681944	0.772528	0.748394
C101	C	0.930492	-0.065340	0.004653
C102	C	1.180492	0.184660	0.254653
C103	C	1.430492	0.434660	0.504653
C104	C	1.680492	0.684660	0.754653
C105	C	0.929816	-0.106615	-0.072240
C106	C	1.179816	0.143385	0.177760
C107	C	1.429816	0.393385	0.427760
C108	C	1.679816	0.643385	0.677760
C109	C	0.928446	-0.189177	-0.066356
C110	C	1.178446	0.060823	0.183644
C111	C	1.428446	0.310823	0.433644
C112	C	1.678446	0.560823	0.683644
C113	C	0.927758	-0.230462	0.016422
C114	C	1.177758	0.019538	0.266422
C115	C	1.427758	0.269538	0.516422
C116	C	1.677758	0.519538	0.766422
C117	C	0.928432	-0.189181	0.093320
C118	C	1.178432	0.060819	0.343320
C119	C	1.428432	0.310819	0.593320
C120	C	1.678432	0.560819	0.843320
C121	C	0.929796	-0.106621	0.087435
C122	C	1.179796	0.143379	0.337435
C123	C	1.429796	0.393379	0.587435
C124	C	1.679796	0.643379	0.837435
C125	C	0.923674	-0.477381	0.042583
C126	C	1.173674	-0.227381	0.292583
C127	C	1.423674	0.022619	0.542583
C128	C	1.673674	0.272619	0.792583
C129	C	0.922312	-0.559947	0.048462
C130	C	1.172312	-0.309947	0.298462
C131	C	1.422312	-0.059947	0.548462
C132	C	1.672312	0.190053	0.798462
C133	C	0.922325	-0.559937	-0.111215
C134	C	1.172325	-0.309937	0.138785
C135	C	1.422325	-0.059937	0.388785
C136	C	1.672325	0.190063	0.638785
C137	C	0.923693	-0.477376	-0.117092
C138	C	1.173693	-0.227376	0.132908
C139	C	1.423693	0.022624	0.382908
C140	C	1.673693	0.272624	0.632908
C141	C	0.924363	-0.436102	-0.040194
C142	C	1.174363	-0.186102	0.209806
C143	C	1.424363	0.063898	0.459806
C144	C	1.674363	0.313898	0.709806
N145	N	0.926361	-0.314853	0.022438
N146	N	1.176361	-0.064853	0.272438
N147	N	1.426361	0.185147	0.522438
N148	N	1.676361	0.435147	0.772438
N149	N	0.925755	-0.351711	-0.046211
N150	N	1.175755	-0.101711	0.203789
N151	N	1.425755	0.148289	0.453789
N152	N	1.675755	0.398289	0.703789
C153	C	1.069416	0.170003	-0.012121
C154	C	1.319416	0.420003	0.237879
C155	C	1.569416	0.670003	0.487879
C156	C	1.819416	0.920003	0.737879
C157	C	1.156452	0.177062	-0.012629
C158	C	1.406452	0.427062	0.237371
C159	C	1.656452	0.677062	0.487371
C160	C	1.906452	0.927062	0.737371
C161	C	0.920184	0.310909	-0.022166
C162	C	1.170184	0.560909	0.227834
C163	C	1.420184	0.810909	0.477834
C164	C	1.670184	1.060909	0.727834
C165	C	0.921636	0.398778	-0.028431
C166	C	1.171636	0.648778	0.221569
C167	C	1.421636	0.898778	0.471569
C168	C	1.671636	1.148778	0.721569
N169	N	0.926057	0.166715	0.216290
N170	N	1.176057	0.416715	0.466290
N171	N	1.426057	0.666715	0.716290
N172	N	1.676057	0.916715	0.966290
N173	N	0.926077	0.166717	-0.240059
N174	N	1.176077	0.416717	0.009941
N175	N	1.426077	0.666717	0.259941
N176	N	1.676077	0.916717	0.509941
C177	C	0.979435	0.116351	0.445604
C178	C	1.229435	0.366351	0.695604
C179	C	1.479435	0.616351	0.945604
C180	C	1.729435	0.866351	1.195604
C181	C	0.979438	0.116350	0.537793
C182	C	1.229438	0.366350	0.787793
C183	C	1.479438	0.616350	1.037793
C184	C	1.729438	0.866350	1.287793
C185	C	0.872693	0.217082	0.530620
C186	C	1.122693	0.467082	0.780620
C187	C	1.372693	0.717082	1.030620
C188	C	1.622693	0.967082	1.280620
C189	C	0.872688	0.217080	0.438432
C190	C	1.122688	0.467080	0.688432
C191	C	1.372688	0.717080	0.938432
C192	C	1.622688	0.967080	1.188432
C193	C	0.926063	0.166715	0.395926
C194	C	1.176063	0.416715	0.645926
C195	C	1.426063	0.666715	0.895926
C196	C	1.676063	0.916715	1.145926
C197	C	0.926071	0.166716	0.580304
C198	C	1.176071	0.416716	0.830304
C199	C	1.426071	0.666716	1.080304
C200	C	1.676071	0.916716	1.330304
C201	C	0.926073	0.166715	0.680260
C202	C	1.176073	0.416715	0.930260
C203	C	1.426073	0.666715	1.180260
C204	C	1.676073	0.916715	1.430260
C205	C	0.926060	0.166715	0.295964
C206	C	1.176060	0.416715	0.545964
C207	C	1.426060	0.666715	0.795964
C208	C	1.676060	0.916715	1.045964
H209	H	0.329510	0.060118	-0.004277
H210	H	0.579510	0.310118	0.245723
H211	H	0.829510	0.560118	0.495723
H212	H	1.079510	0.810118	0.745723
H213	H	0.295311	0.319327	-0.022767
H214	H	0.545311	0.569327	0.227233
H215	H	0.795311	0.819327	0.477233
H216	H	1.045311	1.069327	0.727233
Cl217	Cl	0.805599	0.280398	0.584060
Cl218	Cl	1.055599	0.530398	0.834060
Cl219	Cl	1.305599	0.780398	1.084060
Cl220	Cl	1.555599	1.030398	1.334060
Cl221	Cl	0.921452	-0.611848	0.152533
Cl222	Cl	1.171452	-0.361848	0.402533
Cl223	Cl	1.421452	-0.111848	0.652533
Cl224	Cl	1.671452	0.138152	0.902533
Cl225	Cl	0.927558	-0.241082	0.197384
Cl226	Cl	1.177558	0.008918	0.447384
Cl227	Cl	1.427558	0.258918	0.697384
Cl228	Cl	1.677558	0.508918	0.947384
Cl229	Cl	0.805582	0.280395	0.375975
Cl230	Cl	1.055582	0.530395	0.625975
Cl231	Cl	1.305582	0.780395	0.875975
Cl232	Cl	1.555582	1.030395	1.125975
H233	H	0.181157	0.048074	-0.003432
H234	H	0.431157	0.298074	0.246568
H235	H	0.681157	0.548074	0.496568
H236	H	0.931157	0.798074	0.746568
Cl237	Cl	0.924503	-0.425504	0.139256
Cl238	Cl	1.174503	-0.175504	0.389256
Cl239	Cl	1.424503	0.074496	0.639256
Cl240	Cl	1.674503	0.324496	0.889256
Cl241	Cl	0.542887	-0.018999	0.001328
Cl242	Cl	0.792887	0.231001	0.251328
Cl243	Cl	1.042887	0.481001	0.501328
Cl244	Cl	1.292887	0.731001	0.751328
Cl245	Cl	1.046533	0.053033	0.392172
Cl246	Cl	1.296533	0.303033	0.642172
Cl247	Cl	1.546533	0.553033	0.892172
Cl248	Cl	1.796533	0.803033	1.142172
Cl249	Cl	1.046535	0.053031	0.600243
Cl250	Cl	1.296535	0.303031	0.850243
Cl251	Cl	1.546535	0.553031	1.100243
Cl252	Cl	1.796535	0.803031	1.350243
Cl253	Cl	0.727470	-0.004016	0.000292
Cl254	Cl	0.977470	0.245984	0.250292
Cl255	Cl	1.227470	0.495984	0.500292
Cl256	Cl	1.477470	0.745984	0.750292
H257	H	0.670974	0.285368	-0.020339
H258	H	0.920974	0.535368	0.229661
H259	H	1.170974	0.785368	0.479661
H260	H	1.420974	1.035368	0.729661
H261	H	0.522620	0.273325	-0.019487
H262	H	0.772620	0.523325	0.230513
H263	H	1.022620	0.773325	0.480513
H264	H	1.272620	1.023325	0.730513
H265	H	0.146943	0.307288	-0.021909
H266	H	0.396943	0.557288	0.228091
H267	H	0.646943	0.807288	0.478091
H268	H	0.896943	1.057288	0.728091
H269	H	0.927899	-0.222779	-0.128970
H270	H	1.177899	0.027221	0.121030
H271	H	1.427899	0.277221	0.371030
H272	H	1.677899	0.527221	0.621030
Cl273	Cl	0.930685	-0.054722	-0.176309
Cl274	Cl	1.180685	0.195278	0.073691
Cl275	Cl	1.430685	0.445278	0.323691
Cl276	Cl	1.680685	0.695278	0.573691
H277	H	0.921778	-0.593551	-0.173821
H278	H	1.171778	-0.343551	0.076179
H279	H	1.421778	-0.093551	0.326179
H280	H	1.671778	0.156449	0.576179
Cl281	Cl	0.924560	-0.425480	-0.221160
Cl282	Cl	1.174560	-0.175480	0.028840
Cl283	Cl	1.424560	0.074520	0.278840
Cl284	Cl	1.674560	0.324520	0.528840
H285	H	0.930335	-0.073015	0.150050
H286	H	1.180335	0.176985	0.400050
H287	H	1.430335	0.426985	0.650050
H288	H	1.680335	0.676985	0.900050
