data_functionalizedCrystal
_audit_creation_method	'MofGen! by Chris Wilmer'
_symmetry_space_group_name_H-M	'P1'
_symmetry_Int_Tables_number	1
_symmetry_cell_setting	triclinic
loop_
_symmetry_equiv_pos_as_xyz
  x,y,z
_cell_length_a	18.101398
_cell_length_b	18.101395
_cell_length_c	16.625539
_cell_angle_alpha	89.974216
_cell_angle_beta	89.992183
_cell_angle_gamma	90.026661
loop_
_atom_site_label
_atom_site_type_symbol
_atom_site_fract_x
_atom_site_fract_y
_atom_site_fract_z
Zn1	Zn	1.132107	-0.294930	-0.455714
Zn2	Zn	1.632107	0.205070	0.044286
Zn3	Zn	1.132007	-0.418775	-0.320883
Zn4	Zn	1.632007	0.081225	0.179117
Zn5	Zn	1.008270	-0.294942	-0.320916
Zn6	Zn	1.508270	0.205058	0.179084
Zn7	Zn	1.008217	-0.418724	-0.455695
Zn8	Zn	1.508217	0.081276	0.044305
O9	O	1.070150	-0.356843	-0.388302
O10	O	1.570150	0.143157	0.111698
O11	O	1.235726	-0.311374	-0.437823
O12	O	1.735726	0.188626	0.062177
O13	O	1.115573	-0.402374	-0.208055
O14	O	1.615573	0.097626	0.291945
O15	O	1.024761	-0.191308	-0.338820
O16	O	1.524761	0.308692	0.161180
O17	O	1.235653	-0.402362	-0.338763
O18	O	1.735653	0.097638	0.161237
O19	O	1.115744	-0.191299	-0.437855
O20	O	1.615744	0.308701	0.062145
O21	O	1.024664	-0.311395	-0.208080
O22	O	1.524664	0.188605	0.291920
O23	O	0.904630	-0.311346	-0.338801
O24	O	1.404630	0.188654	0.161199
O25	O	1.024670	-0.402277	-0.568530
O26	O	1.524670	0.097723	-0.068530
O27	O	0.904591	-0.402288	-0.437822
O28	O	1.404591	0.097712	0.062178
O29	O	1.115692	-0.311325	-0.568544
O30	O	1.615692	0.188675	-0.068544
O31	O	1.115522	-0.522401	-0.338744
O32	O	1.615522	-0.022401	0.161256
O33	O	1.024573	-0.522364	-0.437789
O34	O	1.524573	-0.022364	0.062211
C35	C	0.877740	-0.356814	-0.388313
C36	C	1.377740	0.143186	0.111687
C37	C	0.795425	-0.356819	-0.388337
C38	C	1.295425	0.143181	0.111663
C39	C	0.496334	-0.356863	-0.388304
C40	C	0.996334	0.143137	0.111696
C41	C	0.527660	-0.414358	-0.450297
C42	C	1.027660	0.085642	0.049703
C43	C	0.613278	-0.414178	-0.450552
C44	C	1.113278	0.085822	0.049448
C45	C	0.644717	-0.356842	-0.388320
C46	C	1.144717	0.143158	0.111680
C47	C	0.613662	-0.278840	-0.411539
C48	C	1.113662	0.221160	0.088461
C49	C	0.528017	-0.279185	-0.411980
C50	C	1.028017	0.220815	0.088020
C51	C	0.527884	-0.376682	-0.302942
C52	C	1.027884	0.123318	0.197058
C53	C	0.613534	-0.378393	-0.303398
C54	C	1.113534	0.121607	0.196602
C55	C	0.728576	-0.356825	-0.388328
C56	C	1.228576	0.143175	0.111672
C57	C	0.412475	-0.356874	-0.388297
C58	C	0.912475	0.143126	0.111703
C59	C	1.070051	-0.549253	-0.388278
C60	C	1.570051	-0.049253	0.111722
C61	C	1.070076	-0.631567	-0.388295
C62	C	1.570076	-0.131567	0.111705
C63	C	1.070239	-0.930658	-0.388339
C64	C	1.570239	-0.430658	0.111661
C65	C	1.013149	-0.899341	-0.450810
C66	C	1.513149	-0.399341	0.049190
C67	C	1.012878	-0.813723	-0.450615
C68	C	1.512878	-0.313723	0.049385
C69	C	1.070158	-0.782276	-0.388318
C70	C	1.570158	-0.282276	0.111682
C71	C	1.049032	-0.813423	-0.303344
C72	C	1.549032	-0.313423	0.196656
C73	C	1.048664	-0.899069	-0.303717
C74	C	1.548664	-0.399069	0.196283
C75	C	1.148580	-0.899009	-0.410093
C76	C	1.648580	-0.399009	0.089907
C77	C	1.148119	-0.813358	-0.411957
C78	C	1.648119	-0.313358	0.088043
C79	C	1.070114	-0.698416	-0.388301
C80	C	1.570114	-0.198416	0.111699
C81	C	1.070281	-1.014518	-0.388350
C82	C	1.570281	-0.514518	0.111650
C83	C	1.263312	-0.356873	-0.388291
C84	C	1.763312	0.143127	0.111709
C85	C	1.345626	-0.356885	-0.388287
C86	C	1.845626	0.143115	0.111713
C87	C	1.070186	-0.356794	-0.598611
C88	C	1.570186	0.143206	-0.098611
C89	C	1.070202	-0.356773	-0.688232
C90	C	1.570202	0.143227	-0.188232
C91	C	1.070270	-0.163681	-0.388344
C92	C	1.570270	0.336319	0.111656
C93	C	1.070321	-0.081367	-0.388361
C94	C	1.570321	0.418633	0.111639
C95	C	1.070214	-0.356757	-0.761015
C96	C	1.570214	0.143243	-0.261015
C97	C	1.070231	-0.356729	-0.852323
C98	C	1.570231	0.143271	-0.352323
C99	C	1.070249	-0.356703	-0.925100
C100	C	1.570249	0.143297	-0.425100
C101	C	1.070267	-0.356676	-1.016414
C102	C	1.570267	0.143324	-0.516414
C103	C	1.070157	-0.356838	-0.178811
C104	C	1.570157	0.143162	0.321189
C105	C	1.070285	-0.356650	-0.089191
C106	C	1.570285	0.143350	0.410809
H107	H	0.508054	-0.262375	-0.474383
H108	H	1.008054	0.237625	0.025617
O109	O	0.500343	-0.491228	-0.431249
O110	O	1.000343	0.008772	0.068751
H111	H	0.523181	-0.530762	-0.475787
H112	H	1.023181	-0.030762	0.024213
H113	H	0.955434	-0.920922	-0.436582
H114	H	1.455434	-0.420922	0.063418
H115	H	0.954810	-0.793295	-0.436205
H116	H	1.454810	-0.293295	0.063795
H117	H	0.507627	-0.334803	-0.256751
H118	H	1.007627	0.165197	0.243249
H119	H	1.164051	-0.792997	-0.474493
H120	H	1.664051	-0.292997	0.025507
H121	H	0.991397	-0.919107	-0.285287
H122	H	1.491397	-0.419107	0.214713
H123	H	0.634274	-0.472020	-0.436000
H124	H	1.134274	0.027980	0.064000
O125	O	1.204997	-0.925827	-0.349905
O126	O	1.704997	-0.425827	0.150095
H127	H	1.248356	-0.957930	-0.381603
H128	H	1.748356	-0.457930	0.118397
O129	O	1.207444	-0.785033	-0.356058
O130	O	1.707444	-0.285033	0.143942
H131	H	1.182175	-0.748195	-0.310349
H132	H	1.682175	-0.248195	0.189651
O133	O	0.500560	-0.220511	-0.354793
O134	O	1.000560	0.279489	0.145207
H135	H	0.548456	-0.192012	-0.326950
H136	H	1.048456	0.307988	0.173050
O137	O	1.102372	-0.786449	-0.239998
O138	O	1.602372	-0.286449	0.260002
H139	H	1.100967	-0.725186	-0.237692
H140	H	1.600967	-0.225186	0.262308
H141	H	0.506147	-0.401411	-0.513179
H142	H	1.006147	0.098589	-0.013179
O143	O	0.642113	-0.256164	-0.493290
O144	O	1.142113	0.243836	0.006710
H145	H	0.624050	-0.297158	-0.538864
H146	H	1.124050	0.202842	-0.038864
O147	O	0.640444	-0.396793	-0.534324
O148	O	1.140444	0.103207	-0.034324
H149	H	0.592409	-0.388474	-0.574810
H150	H	1.092409	0.111526	-0.074810
H151	H	1.088441	-0.919788	-0.255585
H152	H	1.588441	-0.419788	0.244415
O153	O	0.973977	-0.785101	-0.278486
O154	O	1.473977	-0.285101	0.221514
H155	H	0.951601	-0.748851	-0.326510
H156	H	1.451601	-0.248851	0.173490
H157	H	0.634027	-0.234840	-0.367794
H158	H	1.134027	0.265160	0.132206
H159	H	0.633839	-0.435791	-0.285886
H160	H	1.133839	0.064209	0.214114
O161	O	0.499253	-0.450730	-0.274978
O162	O	0.999253	0.049270	0.225022
H163	H	0.462212	-0.474236	-0.321616
H164	H	0.962212	0.025764	0.178384
H165	H	1.026095	-0.792661	-0.513623
H166	H	1.526095	-0.292661	-0.013623
H167	H	0.634936	-0.339557	-0.254727
H168	H	1.134936	0.160443	0.245273
H169	H	1.026236	-0.919891	-0.514022
H170	H	1.526236	-0.419891	-0.014022
H171	H	1.167842	-0.920560	-0.471000
H172	H	1.667842	-0.420560	0.029000
