data_functionalizedCrystal
_audit_creation_method	'MofGen! by Chris Wilmer'
_symmetry_space_group_name_H-M	'P1'
_symmetry_Int_Tables_number	1
_symmetry_cell_setting	triclinic
loop_
_symmetry_equiv_pos_as_xyz
  x,y,z
_cell_length_a	17.699077
_cell_length_b	23.532407
_cell_length_c	16.176319
_cell_angle_alpha	89.988536
_cell_angle_beta	89.993140
_cell_angle_gamma	83.064627
loop_
_atom_site_label
_atom_site_type_symbol
_atom_site_fract_x
_atom_site_fract_y
_atom_site_fract_z
O1	O	1.003716	0.072004	-0.068744
O2	O	0.783290	0.081377	-0.068749
O3	O	0.900150	-0.006222	-0.068731
O4	O	0.886856	0.159603	-0.068762
O5	O	0.900134	-0.006228	0.068762
O6	O	0.783274	0.081372	0.068744
O7	O	1.003700	0.071998	0.068749
Cu8	Cu	0.893486	0.076684	0.081301
Cu9	Cu	0.893504	0.076691	-0.081301
O10	O	0.886840	0.159598	0.068731
C11	C	0.755086	0.081039	-0.000003
C12	C	0.671073	0.080033	-0.000004
C13	C	0.631599	0.079556	0.074944
C14	C	0.552662	0.078602	0.074945
C15	C	0.513198	0.078129	-0.000003
C16	C	0.552678	0.078604	-0.074957
C17	C	0.631615	0.079554	-0.074958
C18	C	0.234334	0.074772	-0.074958
C19	C	0.155391	0.073823	-0.074952
C20	C	0.155381	0.073819	0.074945
C21	C	0.234318	0.074770	0.074944
C22	C	0.273791	0.075242	-0.000009
C23	C	0.359384	0.076275	-0.000010
C24	C	0.427606	0.077099	-0.000004
C25	C	0.899803	-0.027442	0.000017
C26	C	0.898786	-0.090662	0.000024
C27	C	0.961557	-0.489586	-0.000020
C28	C	0.960612	-0.548989	-0.000026
O29	O	1.018802	-0.585567	-0.000056
N30	N	0.891138	-0.571813	-0.000027
C31	C	0.822606	-0.535231	-0.000031
O32	O	0.763427	-0.560100	-0.000033
C33	C	0.823552	-0.475830	-0.000030
C34	C	0.893030	-0.453009	-0.000021
C35	C	1.031029	-0.466764	-0.000012
C36	C	1.031975	-0.407365	-0.000004
C37	C	0.963448	-0.370788	-0.000004
C38	C	0.893975	-0.393610	-0.000013
C39	C	0.755021	-0.439249	-0.000039
C40	C	0.755973	-0.379844	-0.000040
C41	C	0.825451	-0.357023	-0.000030
C42	C	0.826393	-0.297634	-0.000006
N43	N	0.895867	-0.274809	-0.000005
C44	C	0.964394	-0.311386	-0.000004
C45	C	0.820624	-0.659980	-0.000033
C46	C	0.819677	-0.719380	-0.000027
C47	C	0.957683	-0.733133	-0.000025
C48	C	0.958629	-0.673732	-0.000024
C49	C	0.890097	-0.637155	-0.000032
C50	C	0.966374	-0.186644	0.000013
C51	C	0.967313	-0.127239	0.000024
C52	C	0.829307	-0.113491	0.000017
C53	C	0.828368	-0.172891	0.000010
C54	C	0.896907	-0.209466	0.000006
O55	O	0.768234	-0.261021	0.000020
O56	O	1.023563	-0.286509	-0.000013
C57	C	1.031904	0.072336	0.000001
C58	C	1.115917	0.073342	-0.000003
C59	C	0.887187	0.180817	-0.000019
C60	C	0.888204	0.244037	-0.000031
N61	N	0.893478	0.076679	0.195666
N62	N	0.893518	0.076692	-0.195666
C63	C	0.945239	0.037906	0.238938
C64	C	0.945243	0.037906	0.325485
C65	C	0.893489	0.076681	0.368759
C66	C	0.841722	0.115457	0.325480
C67	C	0.841715	0.115454	0.238935
C68	C	0.841748	0.115467	0.674509
C69	C	0.841760	0.115468	0.761060
C70	C	0.945275	0.037919	0.761059
C71	C	0.945269	0.037916	0.674513
C72	C	0.893500	0.076689	0.631243
C73	C	0.893495	0.076689	0.537399
C74	C	0.893496	0.076685	0.462601
H75	H	0.123233	0.073432	0.135976
H76	H	0.799613	0.147045	0.796292
H77	H	0.764813	-0.630201	-0.000032
H78	H	0.698445	-0.457819	-0.000052
C79	C	1.105380	-0.506539	0.000120
C80	C	1.108857	-0.541061	0.070848
C81	C	1.177337	-0.577709	0.070997
H82	H	1.146948	-0.484503	0.000166
H83	H	1.107900	-0.530026	-0.047801
H84	H	1.106344	-0.517576	0.118757
H85	H	1.067305	-0.563108	0.070816
H86	H	1.179857	-0.601197	0.023076
H87	H	1.218899	-0.555669	0.071042
H88	H	1.179702	-0.601140	0.118981
H89	H	0.987414	0.006343	0.639283
H90	H	0.266445	0.075158	0.135975
C91	C	0.785513	0.157629	0.627686
C92	C	0.740209	0.191598	0.684110
C93	C	0.688402	0.230451	0.641004
H94	H	0.754086	0.137239	0.593938
H95	H	0.812535	0.181342	0.593926
H96	H	0.713190	0.167888	0.717855
H97	H	0.771615	0.212000	0.717860
H98	H	0.715424	0.254164	0.607244
H99	H	0.656980	0.210056	0.607257
H100	H	0.657662	0.253507	0.679280
C101	C	0.112686	0.073279	-0.156416
C102	C	0.164152	0.073880	-0.222059
C103	C	0.124840	0.073372	-0.297110
H104	H	0.075868	0.106098	-0.159657
H105	H	0.087933	0.039698	-0.159563
H106	H	0.188891	0.107457	-0.218913
H107	H	0.200970	0.041063	-0.218845
H108	H	0.100088	0.039792	-0.300257
H109	H	0.088024	0.106192	-0.300342
H110	H	0.159754	0.073774	-0.341657
C111	C	0.785494	0.157465	0.372569
C112	C	0.739415	0.127172	0.422295
C113	C	0.687617	0.165853	0.465691
H114	H	0.754590	0.180573	0.334497
H115	H	0.812523	0.181139	0.406362
H116	H	0.712388	0.103508	0.388504
H117	H	0.770298	0.104066	0.460381
H118	H	0.714647	0.189527	0.499484
H119	H	0.656719	0.188959	0.427613
H120	H	0.656351	0.145305	0.499441
H121	H	0.700165	-0.350065	-0.000047
C122	C	0.754852	-0.073838	-0.000118
C123	C	0.713000	-0.084134	-0.070853
C124	C	0.644404	-0.047620	-0.071009
H125	H	0.765266	-0.035174	-0.000160
H126	H	0.726290	-0.080756	0.047798
H127	H	0.741556	-0.077211	-0.118757
H128	H	0.702566	-0.122791	-0.070827
H129	H	0.615842	-0.054539	-0.023092
H130	H	0.654825	-0.008959	-0.071048
H131	H	0.615996	-0.054605	-0.118997
H132	H	0.520528	0.078204	0.135976
C133	C	0.674311	0.080038	0.156406
C134	C	0.622845	0.079399	0.222042
C135	C	0.662162	0.079833	0.297098
H136	H	0.699085	0.113597	0.159636
H137	H	0.711114	0.047197	0.159571
H138	H	0.586056	0.112238	0.218878
H139	H	0.598069	0.045843	0.218839
H140	H	0.698965	0.046991	0.300263
H141	H	0.686935	0.113392	0.300320
H142	H	0.627250	0.079394	0.341641
C143	C	0.277260	0.075382	-0.156276
C144	C	0.313706	0.124897	-0.160660
C145	C	0.353266	0.125476	-0.235557
H146	H	0.242527	0.074997	-0.200976
H147	H	0.314117	0.042572	-0.159399
H148	H	0.276853	0.157698	-0.157544
H149	H	0.348451	0.125292	-0.115976
H150	H	0.390123	0.092666	-0.238680
H151	H	0.318528	0.125089	-0.280251
H152	H	0.378005	0.159068	-0.238538
C153	C	0.785484	0.157617	0.192100
C154	C	0.740175	0.191587	0.248518
C155	C	0.688370	0.230437	0.205405
H156	H	0.754060	0.137225	0.158351
H157	H	0.812507	0.181329	0.158341
H158	H	0.713154	0.167877	0.282263
H159	H	0.771578	0.211991	0.282269
H160	H	0.715393	0.254149	0.171646
H161	H	0.656951	0.210041	0.171658
H162	H	0.657626	0.253494	0.243678
H163	H	0.520541	0.078215	-0.135982
H164	H	0.763101	-0.737955	-0.000021
H165	H	0.663753	0.079944	-0.135988
C166	C	1.001415	-0.004278	0.372355
C167	C	0.989592	-0.060234	0.351307
C168	C	1.041335	-0.099109	0.394456
H169	H	0.994068	0.001192	0.430110
H170	H	1.051889	0.001833	0.358134
H171	H	0.939130	-0.066342	0.365534
H172	H	0.996945	-0.065722	0.293560
H173	H	1.091809	-0.092998	0.380236
H174	H	1.033983	-0.093633	0.452209
H175	H	1.033325	-0.137079	0.380176
H176	H	1.023892	-0.108662	0.000034
H177	H	1.088551	-0.388790	0.000000
C178	C	1.040868	-0.226254	0.000054
C179	C	1.101904	-0.193543	0.000086
C180	C	1.170538	-0.230011	0.000140
H181	H	1.043491	-0.249718	-0.047881
H182	H	1.043406	-0.249712	0.048019
H183	H	1.099367	-0.170095	-0.047874
H184	H	1.099307	-0.170080	0.048017
H185	H	1.173076	-0.253469	0.048105
H186	H	1.173153	-0.253474	-0.047796
H187	H	1.211959	-0.207822	0.000169
H188	H	0.987426	0.006346	0.796299
C189	C	0.752992	-0.197752	-0.000121
C190	C	0.748436	-0.231447	-0.070857
C191	C	0.679016	-0.254361	-0.071009
H192	H	0.712249	-0.167519	-0.000160
H193	H	0.749742	-0.220683	0.047795
H194	H	0.751679	-0.208518	-0.118760
H195	H	0.789163	-0.261690	-0.070833
H196	H	0.675766	-0.277292	-0.023092
H197	H	0.638279	-0.224124	-0.071045
H198	H	0.675919	-0.277230	-0.118997
H199	H	0.987386	0.006333	0.203711
H200	H	1.015204	-0.655155	-0.000017
H201	H	1.013481	-0.762926	-0.000027
