data_functionalizedCrystal
_audit_creation_method	'MofGen! by Chris Wilmer'
_symmetry_space_group_name_H-M	'P1'
_symmetry_Int_Tables_number	1
_symmetry_cell_setting	triclinic
loop_
_symmetry_equiv_pos_as_xyz
  x,y,z
_cell_length_a	17.019386
_cell_length_b	15.995350
_cell_length_c	14.472310
_cell_angle_alpha	89.998838
_cell_angle_beta	93.888945
_cell_angle_gamma	83.447235
loop_
_atom_site_label
_atom_site_type_symbol
_atom_site_fract_x
_atom_site_fract_y
_atom_site_fract_z
O1	O	-1.046685	-0.106742	-0.160040
O2	O	-0.817021	-0.120328	-0.141785
O3	O	-0.938131	0.008360	-0.151411
O4	O	-0.925575	-0.235430	-0.150414
O5	O	-0.938100	0.008352	0.002274
O6	O	-0.816990	-0.120335	0.011900
O7	O	-1.046654	-0.106749	-0.006356
Cu8	Cu	-0.931819	-0.113543	0.016805
Cu9	Cu	-0.931856	-0.113534	-0.164945
O10	O	-0.925544	-0.235437	0.003270
C11	C	-0.787617	-0.119814	-0.062606
C12	C	-0.700047	-0.118261	-0.055646
C13	C	-0.658916	-0.117529	-0.136142
C14	C	-0.576633	-0.116083	-0.129589
C15	C	-0.535483	-0.115363	-0.042538
C16	C	-0.576620	-0.116097	0.037965
C17	C	-0.658900	-0.117549	0.031410
C18	C	-0.287048	-0.110985	-0.018556
C19	C	-0.204762	-0.109530	-0.012007
C20	C	-0.204781	-0.109517	-0.179562
C21	C	-0.287064	-0.110964	-0.186108
C22	C	-0.328192	-0.111703	-0.105606
C23	C	-0.451377	-0.113882	-0.035836
C24	C	-0.412296	-0.113190	-0.112308
C25	C	-0.937597	0.039550	-0.074529
C26	C	-0.936041	0.132499	-0.074410
C27	C	-0.076059	-0.107259	-0.085536
C28	C	-0.163631	-0.108798	-0.092504
C29	C	-0.926079	-0.266627	-0.073613
C30	C	-0.927635	-0.359576	-0.073738
N31	N	-0.931799	-0.113549	0.144637
C32	C	-0.930452	0.470240	-0.073963
C33	C	-0.844199	0.422709	-0.067452
C34	C	-0.845756	0.326020	-0.067229
C35	C	-0.933224	0.302683	-0.074185
C36	C	-0.975749	0.343804	0.010193
C37	C	-0.973582	0.440437	0.010438
C38	C	-0.975399	0.440806	-0.164471
C39	C	-0.975379	0.343860	-0.165629
C40	C	-0.934795	0.207987	-0.074308
C41	C	-0.928883	0.564936	-0.073834
N42	N	-0.931883	-0.113522	-0.292778
C43	C	-0.931855	-0.113531	0.518724
C44	C	-0.866834	-0.182159	0.484726
C45	C	-0.866984	-0.182409	0.377626
C46	C	-0.931827	-0.113540	0.333135
C47	C	-1.014134	-0.132529	0.365430
C48	C	-1.013769	-0.133017	0.472580
C49	C	-0.915303	-0.025710	0.480570
C50	C	-0.913415	-0.026298	0.373592
C51	C	-0.931816	-0.113543	0.228248
C52	C	-0.931872	-0.113529	0.623611
H53	H	-0.171285	-0.108918	-0.245102
C54	C	-1.033467	-0.219533	0.504764
H55	H	-1.033421	-0.220592	0.570402
H56	H	-0.994814	-0.262234	0.485179
H57	H	-1.084329	-0.229140	0.478572
H58	H	-0.417864	-0.113293	0.035041
C59	C	-1.081089	-0.068054	0.502232
H60	H	-1.108545	-0.041488	0.448799
H61	H	-1.059400	-0.026934	0.540439
H62	H	-1.116867	-0.095673	0.535738
H63	H	-0.445803	-0.113781	-0.183184
H64	H	-0.812327	0.297564	-0.127480
C65	C	-0.800262	0.288312	0.021514
H66	H	-0.801052	0.229021	0.021949
H67	H	-0.824712	0.311818	0.074162
H68	H	-0.746946	0.300823	0.023171
C69	C	-0.881267	-0.270447	0.341853
H70	H	-0.887008	-0.306196	0.392795
H71	H	-0.837460	-0.293245	0.308907
H72	H	-0.928161	-0.266215	0.301798
H73	H	-1.040009	0.329750	0.008346
H74	H	-0.962720	0.025360	0.502127
H75	H	-0.320526	-0.111580	0.046995
C76	C	-0.704173	-0.118324	-0.231900
H77	H	-0.667888	-0.117690	-0.278901
H78	H	-0.742284	-0.070089	-0.238422
H79	H	-0.730256	-0.167702	-0.237458
C80	C	-1.034317	-0.218058	0.327578
H81	H	-1.084237	-0.228985	0.347495
H82	H	-0.994607	-0.261190	0.350063
H83	H	-1.036570	-0.216758	0.261818
H84	H	-0.543148	-0.115487	-0.195138
C85	C	-0.332322	-0.111761	-0.281865
H86	H	-0.296040	-0.111125	-0.328868
H87	H	-0.370432	-0.063524	-0.288381
H88	H	-0.358407	-0.161137	-0.287425
H89	H	-0.171257	-0.108967	0.058884
H90	H	-1.063674	-0.083870	0.336009
H91	H	-0.957697	0.027158	0.343299
H92	H	-0.944288	0.316580	-0.228079
H93	H	-0.805456	-0.171046	0.515393
C94	C	-0.797636	0.447702	-0.148757
H95	H	-0.830376	0.487352	-0.187402
H96	H	-0.781779	0.399111	-0.183637
H97	H	-0.752028	0.472085	-0.125389
H98	H	-0.692388	-0.118149	0.096959
H99	H	-0.543108	-0.115516	0.108844
H100	H	-0.809866	0.442261	-0.002140
H101	H	-0.942547	0.458700	0.078509
C102	C	-0.831623	-0.006824	0.345811
H103	H	-0.808786	-0.051666	0.309702
H104	H	-0.798068	-0.000693	0.399979
H105	H	-0.837558	0.043897	0.310592
C106	C	-1.059122	0.484102	0.009032
H107	H	-1.095042	0.442758	0.008321
H108	H	-1.070015	0.518635	-0.044751
H109	H	-1.065084	0.517839	0.062680
C110	C	-0.935810	0.305429	0.101597
H111	H	-0.893226	0.264358	0.088524
H112	H	-0.973475	0.279731	0.134112
H113	H	-0.916069	0.348530	0.138538
H114	H	-0.947213	0.461317	-0.228746
C115	C	-1.061551	0.323213	-0.179643
H116	H	-1.073000	0.289062	-0.129681
H117	H	-1.068244	0.293878	-0.236187
H118	H	-1.096577	0.373969	-0.181682
C119	C	-1.061304	0.483814	-0.172110
H120	H	-1.069769	0.519540	-0.120429
H121	H	-1.096942	0.442192	-0.173019
H122	H	-1.070190	0.516262	-0.227588
H123	H	-0.805804	-0.171109	0.356233
H124	H	-0.877258	-0.246964	0.510806
H125	H	-0.856588	-0.007427	0.512304
