data_functionalizedCrystal
_audit_creation_method	'MofGen! by Chris Wilmer'
_symmetry_space_group_name_H-M	'P1'
_symmetry_Int_Tables_number	1
_symmetry_cell_setting	triclinic
loop_
_symmetry_equiv_pos_as_xyz
  x,y,z
_cell_length_a	16.959455
_cell_length_b	16.959453
_cell_length_c	16.959447
_cell_angle_alpha	90.031064
_cell_angle_beta	90.016723
_cell_angle_gamma	90.018936
loop_
_atom_site_label
_atom_site_type_symbol
_atom_site_fract_x
_atom_site_fract_y
_atom_site_fract_z
Zn1	Zn	1.208384	-0.314688	0.446955
Zn2	Zn	1.208307	-0.446881	0.314775
Zn3	Zn	1.076213	-0.314718	0.314787
Zn4	Zn	1.076178	-0.446826	0.446908
O5	O	1.142270	-0.380778	0.380856
O6	O	1.318985	-0.332234	0.429436
O7	O	1.190767	-0.429384	0.204166
O8	O	1.093793	-0.204103	0.332344
O9	O	1.318928	-0.429355	0.332324
O10	O	1.190898	-0.204081	0.429448
O11	O	1.093718	-0.332284	0.204175
O12	O	0.965597	-0.332232	0.332299
O13	O	1.093733	-0.429263	0.557525
O14	O	0.965571	-0.429291	0.429367
O15	O	1.190864	-0.332181	0.557560
O16	O	1.190733	-0.557484	0.332278
O17	O	1.093658	-0.557444	0.429355
C18	C	0.936904	-0.380759	0.380830
C19	C	0.849048	-0.380770	0.380837
C20	C	0.807764	-0.330164	0.330379
C21	C	0.807778	-0.431383	0.431307
C22	C	0.725232	-0.431392	0.431318
C23	C	0.683948	-0.380785	0.380860
C24	C	0.725210	-0.330169	0.330391
C25	C	0.683964	-0.482001	0.481793
C26	C	0.601413	-0.482011	0.481807
C27	C	0.560128	-0.431408	0.431344
C28	C	0.601395	-0.380791	0.380872
C29	C	0.560111	-0.330184	0.330414
C30	C	0.601376	-0.279571	0.279937
C31	C	0.683924	-0.279566	0.279928
C32	C	0.477579	-0.431413	0.431353
C33	C	0.477557	-0.330190	0.330426
C34	C	1.142204	-0.586144	0.380827
C35	C	1.142249	-0.674001	0.380841
C36	C	1.192898	-1.045407	0.431513
C37	C	1.091863	-1.045546	0.330317
C38	C	1.091834	-0.963000	0.330298
C39	C	1.142337	-0.921654	0.380889
C40	C	1.192869	-0.962853	0.431499
C41	C	1.041297	-0.921795	0.279696
C42	C	1.041265	-0.839244	0.279676
C43	C	1.091773	-0.797896	0.330264
C44	C	1.142307	-0.839100	0.380875
C45	C	1.192810	-0.797754	0.431465
C46	C	1.243349	-0.838957	0.482073
C47	C	1.243376	-0.921505	0.482086
C48	C	1.091746	-0.715347	0.330250
C49	C	1.192781	-0.715200	0.431451
C50	C	1.348439	-0.380798	0.380884
C51	C	1.436295	-0.380806	0.380895
C52	C	1.142303	-0.380713	0.587025
C53	C	1.142317	-0.380685	0.674881
C54	C	1.142358	-0.174610	0.380903
C55	C	1.142395	-0.086753	0.380923
C56	C	1.142283	-0.380786	0.175490
C57	C	1.142422	-0.380591	0.087634
C58	C	1.091840	-0.431147	1.046342
C59	C	1.192984	-0.330056	1.046373
C60	C	1.192963	-0.330072	0.963827
C61	C	1.142380	-0.380628	0.922534
C62	C	1.091819	-0.431167	0.963788
C63	C	1.243529	-0.279540	0.922567
C64	C	1.243511	-0.279555	0.840016
C65	C	1.192923	-0.330108	0.798722
C66	C	1.142359	-0.380648	0.839981
C67	C	1.091777	-0.431204	0.798688
C68	C	1.041208	-0.481741	0.839946
C69	C	1.041232	-0.481719	0.922494
C70	C	1.192900	-0.330129	0.716174
C71	C	1.091756	-0.431224	0.716135
H72	H	0.717584	-0.523200	0.522876
C73	C	1.299128	-0.223956	0.794641
N74	N	1.341017	-0.182074	0.760464
C75	C	0.985607	-0.537301	0.967883
N76	N	0.943710	-0.579164	1.002073
C77	C	0.556029	-0.537700	0.537320
N78	N	0.521844	-0.579650	0.579127
C79	C	0.985569	-0.537350	0.794513
N80	N	0.943662	-0.579233	0.760290
C81	C	0.432191	-0.487083	0.486876
N82	N	0.398006	-0.529018	0.528697
H83	H	1.050558	-0.472386	0.682520
C84	C	1.248523	-0.274543	0.670795
N85	N	1.290419	-0.232670	0.636616
H86	H	1.000179	-0.955465	0.238510
C87	C	1.036158	-0.670028	0.274585
N88	N	0.994288	-0.635894	0.232652
C89	C	0.729322	-0.223883	0.224421
N90	N	0.763520	-0.181937	0.182620
H91	H	1.050666	-0.472291	1.079937
H92	H	0.443949	-0.288981	0.289335
C93	C	0.555953	-0.223903	0.224437
N94	N	0.521737	-0.181975	0.182635
C95	C	0.853155	-0.274485	0.274863
N96	N	0.887346	-0.232544	0.233051
C97	C	1.248342	-0.669726	0.487103
N98	N	1.290191	-0.635475	0.529021
H99	H	0.841396	-0.472581	0.472391
H100	H	1.000115	-0.805702	0.238469
C101	C	1.248616	-0.274442	1.091797
N102	N	1.290517	-0.232548	1.126014
H103	H	1.284715	-0.238385	0.956193
H104	H	1.284522	-0.955060	0.523288
C105	C	1.298900	-0.793465	0.537721
N106	N	1.340741	-0.759197	0.579634
C107	C	1.248488	-1.090730	0.487179
N108	N	1.290359	-1.124868	0.529107
H109	H	1.050743	-1.079215	0.289131
