data_functionalizedCrystal
_audit_creation_method	'MofGen! by Chris Wilmer'
_symmetry_space_group_name_H-M	'P1'
_symmetry_Int_Tables_number	1
_symmetry_cell_setting	triclinic
loop_
_symmetry_equiv_pos_as_xyz
  x,y,z
_cell_length_a	10.654550
_cell_length_b	16.098538
_cell_length_c	10.654550
_cell_angle_alpha	87.250518
_cell_angle_beta	84.484931
_cell_angle_gamma	92.761859
loop_
_atom_site_label
_atom_site_type_symbol
_atom_site_fract_x
_atom_site_fract_y
_atom_site_fract_z
O1	O	1.673411	0.069194	0.170840
O2	O	1.307934	0.069209	0.187645
O3	O	1.499075	0.069196	-0.003496
O4	O	1.482270	0.069207	0.361982
O5	O	1.487909	-0.069316	0.007625
O6	O	1.296768	-0.069303	0.198767
O7	O	1.662245	-0.069319	0.181962
Zn8	Zn	1.477733	-0.091303	0.192130
Zn9	Zn	1.492445	0.091193	0.177477
O10	O	1.471104	-0.069305	0.373103
C11	C	1.255553	-0.000045	0.191972
C12	C	1.116110	-0.000040	0.188279
N13	N	1.467702	-0.215851	0.202129
C14	C	1.036624	-0.000038	0.300821
C15	C	0.905602	-0.000053	0.297345
C16	C	0.933565	-0.000066	0.068777
C17	C	1.064584	-0.000058	0.072254
C18	C	1.548860	-0.259442	0.121031
C19	C	1.541855	-0.346630	0.128038
C20	C	1.453697	-0.390227	0.216151
C21	C	1.372530	-0.346630	0.297253
C22	C	1.379530	-0.259443	0.290239
C23	C	1.428319	-0.653475	0.241556
C24	C	1.421328	-0.740668	0.248566
C25	C	1.590652	-0.740662	0.079349
C26	C	1.597650	-0.653474	0.072348
C27	C	1.516479	-0.609885	0.153445
C28	C	1.446536	-0.479347	0.223318
C29	C	1.523634	-0.520766	0.146271
C30	C	1.714626	-0.000063	0.177635
C31	C	1.854069	-0.000063	0.181327
C32	C	1.492258	-0.000060	-0.044733
C33	C	1.488566	-0.000058	-0.184177
N34	N	1.502486	0.215742	0.167468
C35	C	1.601107	-0.000063	-0.263662
C36	C	1.597632	-0.000053	-0.394684
C37	C	1.369063	-0.000037	-0.366722
C38	C	1.372541	-0.000041	-0.235703
C39	C	1.477921	-0.000048	0.414340
C40	C	1.481613	-0.000044	0.553783
H41	H	0.840890	-0.000054	0.388988
O42	O	1.326226	-0.787684	0.343606
H43	H	1.376429	-0.827385	0.408348
H44	H	1.274599	-0.000025	-0.408691
H45	H	1.280891	-0.000035	-0.170983
O46	O	1.092192	-0.000033	0.425963
H47	H	1.155744	0.056429	0.428496
H48	H	1.669435	-0.617979	0.000599
O49	O	1.277455	-0.393649	0.392302
H50	H	1.180752	-0.376937	0.374046
O51	O	0.877992	-0.000080	-0.056362
H52	H	0.773533	-0.000078	-0.039876
O53	O	1.678189	-0.787674	-0.008129
H54	H	1.658507	-0.855625	0.011539
O55	O	1.150324	-0.000066	-0.049138
H56	H	1.215236	0.056386	-0.057555
H57	H	1.313441	-0.223952	0.356276
H58	H	1.595408	-0.485267	0.074525
O59	O	1.726248	-0.000073	-0.208092
H60	H	1.709763	-0.000083	-0.103631
O61	O	1.643941	-0.212421	0.025989
H62	H	1.699188	-0.257384	-0.029235
O63	O	1.629412	-0.393649	0.040591
H64	H	1.691908	-0.348687	-0.021838
O65	O	1.340787	-0.606465	0.329032
H66	H	1.278323	-0.651430	0.391489
H67	H	1.374758	-0.514850	0.295063
H68	H	1.689274	-0.000054	-0.459396
