data_functionalizedCrystal
_audit_creation_method	'MofGen! by Chris Wilmer'
_symmetry_space_group_name_H-M	'P1'
_symmetry_Int_Tables_number	1
_symmetry_cell_setting	triclinic
loop_
_symmetry_equiv_pos_as_xyz
  x,y,z
_cell_length_a	15.995350
_cell_length_b	26.210047
_cell_length_c	15.995350
_cell_angle_alpha	89.993267
_cell_angle_beta	83.492375
_cell_angle_gamma	90.005390
loop_
_atom_site_label
_atom_site_type_symbol
_atom_site_fract_x
_atom_site_fract_y
_atom_site_fract_z
O1	O	1.110992	0.042383	0.107915
O2	O	1.610992	0.542383	0.607915
O3	O	0.867217	0.042393	0.121242
O4	O	1.367217	0.542393	0.621242
O5	O	0.995769	0.042388	-0.007309
O6	O	1.495769	0.542388	0.492691
O7	O	0.982441	0.042389	0.236466
O8	O	1.482441	0.542389	0.736466
O9	O	0.995744	-0.042470	-0.007289
O10	O	1.495744	0.457530	0.492711
O11	O	0.867192	-0.042465	0.121262
O12	O	1.367192	0.457535	0.621262
O13	O	1.110968	-0.042475	0.107935
O14	O	1.610968	0.457525	0.607935
Cu15	Cu	0.989078	-0.050218	0.114600
Cu16	Cu	1.489078	0.449782	0.614600
Cu17	Cu	0.989107	0.050137	0.114577
Cu18	Cu	1.489107	0.550137	0.614577
O19	O	0.982416	-0.042469	0.236486
O20	O	1.482416	0.457531	0.736486
C21	C	0.836010	-0.000034	0.120701
C22	C	1.336010	0.499966	0.620701
C23	C	0.743060	-0.000030	0.119049
C24	C	1.243060	0.499970	0.619049
C25	C	0.405312	-0.000041	0.113117
C26	C	0.905312	0.499959	0.613117
C27	C	0.452746	-0.000231	0.021565
C28	C	0.952746	0.499769	0.521565
C29	C	0.549436	-0.000036	0.023217
C30	C	1.049436	0.499964	0.523217
C31	C	0.572873	-0.000036	0.116060
C32	C	1.072873	0.499964	0.616060
C33	C	0.531800	0.048420	0.161205
C34	C	1.031800	0.548420	0.661205
C35	C	0.435164	0.048457	0.158905
C36	C	0.935164	0.548457	0.658905
C37	C	0.434797	-0.048042	0.160819
C38	C	0.934797	0.451958	0.660819
C39	C	0.531742	-0.048679	0.160798
C40	C	1.031742	0.451321	0.660798
C41	C	0.667570	-0.000031	0.117727
C42	C	1.167570	0.499969	0.617727
C43	C	0.310614	-0.000042	0.111452
C44	C	0.810614	0.499958	0.611452
N45	N	0.989063	-0.120802	0.114616
N46	N	1.489063	0.379198	0.614616
C47	C	1.046024	-0.473319	0.057667
C48	C	1.546024	0.026681	0.557667
C49	C	1.046042	-0.686977	0.057655
C50	C	1.546042	-0.186977	0.557655
O51	O	1.094440	-0.714601	0.009238
O52	O	1.594440	-0.214601	0.509238
N53	N	0.989111	-0.713696	0.114558
N54	N	1.489111	-0.213696	0.614558
C55	C	0.932168	-0.686997	0.171464
C56	C	1.432168	-0.186997	0.671464
O57	O	0.883740	-0.714625	0.219858
O58	O	1.383740	-0.214625	0.719858
C59	C	0.932147	-0.473339	0.171471
C60	C	1.432147	0.026661	0.671471
C61	C	0.989087	-0.446623	0.114570
C62	C	1.489087	0.053377	0.614570
C63	C	1.102959	-0.446603	0.000770
C64	C	1.602959	0.053397	0.500770
C65	C	1.102957	-0.393191	0.000776
C66	C	1.602957	0.106809	0.500776
C67	C	1.046020	-0.366496	0.057680
C68	C	1.546020	0.133504	0.557680
C69	C	0.989085	-0.393212	0.114577
C70	C	1.489085	0.106788	0.614577
C71	C	0.875200	-0.446641	0.228373
C72	C	1.375200	0.053359	0.728373
C73	C	0.875198	-0.393223	0.228368
C74	C	1.375198	0.106777	0.728368
C75	C	0.932139	-0.366507	0.171467
C76	C	1.432139	0.133493	0.671467
C77	C	0.932146	-0.313105	0.171487
C78	C	1.432146	0.186895	0.671487
N79	N	0.989076	-0.286386	0.114584
N80	N	1.489076	0.213614	0.614584
C81	C	1.046013	-0.313081	0.057680
C82	C	1.546013	0.186919	0.557680
C83	C	0.932185	-0.799170	0.171458
C84	C	1.432185	-0.299170	0.671458
C85	C	0.932191	-0.852584	0.171457
C86	C	1.432191	-0.352584	0.671457
C87	C	1.046064	-0.852561	0.057647
C88	C	1.546064	-0.352561	0.557647
C89	C	1.046061	-0.799146	0.057652
C90	C	1.546061	-0.299146	0.557652
C91	C	0.989116	-0.772451	0.114555
C92	C	1.489116	-0.272451	0.614555
C93	C	1.046005	-0.200914	0.057699
C94	C	1.546005	0.299086	0.557699
C95	C	1.046000	-0.147497	0.057713
C96	C	1.546000	0.352503	0.557713
C97	C	0.932125	-0.147525	0.171520
C98	C	1.432125	0.352475	0.671520
C99	C	0.932132	-0.200937	0.171509
C100	C	1.432132	0.299063	0.671509
C101	C	0.989075	-0.227630	0.114592
C102	C	1.489075	0.272370	0.614592
O103	O	0.883767	-0.285448	0.219872
O104	O	1.383767	0.214552	0.719872
O105	O	1.094422	-0.285444	0.009282
O106	O	1.594422	0.214556	0.509282
C107	C	1.046026	-0.526730	0.057660
C108	C	1.546026	-0.026730	0.557660
C109	C	0.989091	-0.553446	0.114557
C110	C	1.489091	-0.053446	0.614557
C111	C	0.932154	-0.526750	0.171461
C112	C	1.432154	-0.026750	0.671461
C113	C	0.989097	-0.606860	0.114557
C114	C	1.489097	-0.106860	0.614557
C115	C	1.046034	-0.633556	0.057653
C116	C	1.546034	-0.133556	0.557653
C117	C	1.102965	-0.606837	0.000750
C118	C	1.602965	-0.106837	0.500750
C119	C	1.102963	-0.553425	0.000757
C120	C	1.602963	-0.053425	0.500757
C121	C	0.875223	-0.553469	0.228364
C122	C	1.375223	-0.053469	0.728364
C123	C	0.875231	-0.606881	0.228353
C124	C	1.375231	-0.106881	0.728353
C125	C	0.932168	-0.633576	0.171450
C126	C	1.432168	-0.133576	0.671450
C127	C	1.142175	-0.000046	0.108476
C128	C	1.642175	0.499954	0.608476
C129	C	1.235125	-0.000047	0.110127
C130	C	1.735125	0.499953	0.610127
C131	C	0.995205	-0.000040	-0.038494
C132	C	1.495205	0.499960	0.461506
C133	C	0.993553	-0.000038	-0.131444
C134	C	1.493553	0.499962	0.368556
N135	N	0.989128	0.120720	0.114554
N136	N	1.489128	0.620720	0.614554
C137	C	0.987621	-0.000039	-0.469192
C138	C	1.487621	0.499961	0.030808
C139	C	0.896069	0.000155	-0.421758
C140	C	1.396069	0.500155	0.078242
C141	C	0.897721	-0.000036	-0.325068
C142	C	1.397721	0.499964	0.174932
C143	C	0.990564	-0.000038	-0.301631
C144	C	1.490564	0.499962	0.198369
C145	C	1.035706	-0.048497	-0.342697
C146	C	1.535706	0.451503	0.157303
C147	C	1.033406	-0.048538	-0.439333
C148	C	1.533406	0.451462	0.060667
C149	C	1.035326	0.047962	-0.439714
C150	C	1.535326	0.547962	0.060286
C151	C	1.035304	0.048602	-0.342769
C152	C	1.535304	0.548602	0.157231
C153	C	0.992231	-0.000039	-0.206934
C154	C	1.492231	0.499961	0.293066
C155	C	0.985956	-0.000041	-0.563890
C156	C	1.485956	0.499959	-0.063890
C157	C	0.982980	-0.000040	0.267671
C158	C	1.482980	0.499960	0.767671
C159	C	0.984631	-0.000039	0.360621
C160	C	1.484631	0.499961	0.860621
H161	H	0.414251	-0.084771	0.130897
H162	H	0.914251	0.415229	0.630897
H163	H	1.002299	0.084451	-0.315529
H164	H	1.502299	0.584451	0.184471
H165	H	0.828824	-0.371491	0.274704
H166	H	1.328824	0.128509	0.774704
H167	H	0.547106	-0.051606	0.228502
H168	H	1.047106	0.448394	0.728502
H169	H	1.005404	0.084691	-0.460262
H170	H	1.505404	0.584691	0.039738
C171	C	0.391895	-0.048486	0.252006
C172	C	0.891895	0.451514	0.752006
H173	H	0.356182	-0.019578	0.260997
H174	H	0.856182	0.480422	0.760997
H175	H	0.433564	-0.047420	0.289826
H176	H	0.933564	0.452580	0.789826
H177	H	0.359455	-0.078729	0.261444
H178	H	0.859455	0.421271	0.761444
H179	H	0.861976	-0.034830	-0.297195
H180	H	1.361976	0.465170	0.202805
C181	C	0.570134	0.097138	0.118823
C182	C	1.070134	0.597138	0.618823
H183	H	0.611159	0.088052	0.073622
H184	H	1.111159	0.588052	0.573622
H185	H	0.595874	0.116744	0.158808
H186	H	1.095874	0.616744	0.658808
H187	H	0.527014	0.116670	0.097871
H188	H	1.027014	0.616670	0.597871
H189	H	0.828834	-0.468385	0.274706
H190	H	1.328834	0.031615	0.774706
C191	C	0.587837	-0.046955	-0.024730
C192	C	1.087837	0.453045	0.475270
H193	H	0.647117	-0.046899	-0.023781
H194	H	1.147117	0.453101	0.476219
H195	H	0.575343	-0.045754	-0.081357
H196	H	1.075343	0.454246	0.418643
H197	H	0.564748	-0.077162	0.001378
H198	H	1.064748	0.422838	0.501378
C199	C	1.108633	-0.118113	-0.004884
C200	C	1.608633	0.381887	0.495116
H201	H	1.142535	-0.141665	-0.038780
H202	H	1.642535	0.358335	0.461220
H203	H	1.143486	-0.097276	0.025254
H204	H	1.643486	0.402724	0.525254
H205	H	1.078510	-0.097276	-0.039759
H206	H	1.578510	0.402724	0.460241
H207	H	0.416866	0.084680	0.125966
H208	H	0.916866	0.584680	0.625966
H209	H	0.859487	0.034906	-0.440298
H210	H	1.359487	0.534906	0.059702
C211	C	0.846841	-0.046527	-0.448204
C212	C	1.346841	0.453473	0.051796
H213	H	0.881841	-0.066135	-0.488025
H214	H	1.381841	0.433865	0.011975
H215	H	0.798646	-0.035385	-0.472752
H216	H	1.298646	0.464615	0.027248
H217	H	0.829681	-0.066867	-0.400146
H218	H	1.329681	0.433133	0.099854
H219	H	1.102827	0.048286	-0.471475
H220	H	1.602827	0.548286	0.028525
H221	H	0.577304	0.034760	-0.012526
H222	H	1.077304	0.534760	0.487474
C223	C	0.988899	-0.097466	-0.464049
C224	C	1.488899	0.402534	0.035951
H225	H	0.972388	-0.117130	-0.415052
H226	H	1.472388	0.382870	0.084948
H227	H	1.026300	-0.116842	-0.502015
H228	H	1.526300	0.383158	-0.002015
H229	H	0.940535	-0.088609	-0.490313
H230	H	1.440535	0.411391	0.009687
C231	C	0.568622	-0.097108	0.116278
C232	C	1.068622	0.402892	0.616278
H233	H	0.608921	-0.087727	0.070619
H234	H	1.108921	0.412273	0.570619
H235	H	0.524723	-0.116139	0.095715
H236	H	1.024723	0.383861	0.595715
H237	H	0.594996	-0.117330	0.155037
H238	H	1.094996	0.382670	0.655037
H239	H	1.004332	-0.084557	-0.314307
H240	H	1.504332	0.415443	0.185693
C241	C	0.427707	-0.047173	-0.027864
C242	C	0.927707	0.452827	0.472136
H243	H	0.388095	-0.067076	0.006886
H244	H	0.888095	0.432924	0.506886
H245	H	0.476284	-0.067125	-0.044693
H246	H	0.976284	0.432875	0.455307
H247	H	0.403272	-0.036277	-0.076275
H248	H	0.903272	0.463723	0.423725
H249	H	1.100622	-0.050737	-0.471581
H250	H	1.600622	0.449263	0.028419
H251	H	1.092373	-0.222641	0.011351
H252	H	1.592373	0.277359	0.511351
C253	C	1.165581	-0.363810	-0.061825
C254	C	1.665581	0.136190	0.438175
H255	H	1.199480	-0.387365	-0.095717
H256	H	1.699480	0.112635	0.404283
H257	H	1.200438	-0.342971	-0.031695
H258	H	1.700438	0.157029	0.468305
H259	H	1.135456	-0.342976	-0.096702
H260	H	1.635456	0.157024	0.403298
H261	H	0.885774	-0.222689	0.217851
H262	H	1.385774	0.277311	0.717851
C263	C	1.165599	-0.475960	-0.061825
C264	C	1.665599	0.024040	0.438175
H265	H	1.199505	-0.452391	-0.095701
H266	H	1.699505	0.047609	0.404299
H267	H	1.135499	-0.496799	-0.096707
H268	H	1.635499	0.003201	0.403293
H269	H	1.200459	-0.496792	-0.031678
H270	H	1.700459	0.003208	0.468322
C271	C	1.108688	-0.769763	-0.004944
C272	C	1.608688	-0.269763	0.495056
H273	H	1.142593	-0.793317	-0.038834
H274	H	1.642593	-0.293317	0.461166
H275	H	1.143539	-0.748923	0.025191
H276	H	1.643539	-0.248923	0.525191
H277	H	1.078565	-0.748930	-0.039824
H278	H	1.578565	-0.248930	0.460176
C279	C	1.126770	0.052554	-0.322025
C280	C	1.626770	0.552554	0.177975
H281	H	1.138925	0.024464	-0.287857
H282	H	1.638925	0.524464	0.212143
H283	H	1.133871	0.083482	-0.292687
H284	H	1.633871	0.583482	0.207313
H285	H	1.163949	0.052141	-0.372741
H286	H	1.663949	0.552141	0.127259
C287	C	1.127847	-0.050939	-0.323612
C288	C	1.627847	0.449061	0.176388
H289	H	1.139630	-0.022360	-0.290346
H290	H	1.639630	0.477640	0.209654
H291	H	1.164152	-0.050491	-0.374899
H292	H	1.664152	0.449509	0.125101
H293	H	1.136596	-0.081472	-0.293797
H294	H	1.636596	0.418528	0.206203
H295	H	0.885812	-0.777439	0.217797
H296	H	1.385812	-0.277439	0.717797
H297	H	0.402916	0.050656	0.226120
H298	H	0.902916	0.550656	0.726120
C299	C	0.426295	0.046450	-0.027665
C300	C	0.926295	0.546450	0.472335
H301	H	0.455241	0.046041	-0.082908
H302	H	0.955241	0.546041	0.417092
H303	H	0.439959	0.076795	0.000282
H304	H	0.939959	0.576795	0.500282
H305	H	0.367361	0.045307	-0.030750
H306	H	0.867361	0.545307	0.469250
C307	C	0.550885	0.050861	0.253345
C308	C	1.050885	0.550861	0.753345
H309	H	0.584155	0.022282	0.265127
H310	H	1.084155	0.522282	0.765127
H311	H	0.499598	0.050410	0.289651
H312	H	0.999598	0.550410	0.789651
H313	H	0.580695	0.081395	0.262096
H314	H	1.080695	0.581395	0.762096
H315	H	0.885834	-0.874332	0.217800
H316	H	1.385834	-0.374332	0.717800
C317	C	1.108687	-0.881932	-0.004952
C318	C	1.608687	-0.381932	0.495048
H319	H	1.100525	-0.917569	0.003197
H320	H	1.600525	-0.417569	0.503197
H321	H	1.164569	-0.873179	0.004160
H322	H	1.664569	-0.373179	0.504160
H323	H	1.099581	-0.873176	-0.060840
H324	H	1.599581	-0.373176	0.439160
H325	H	0.885769	-0.125781	0.217853
H326	H	1.385769	0.374219	0.717853
C327	C	1.165591	-0.636209	-0.061845
C328	C	1.665591	-0.136209	0.438155
H329	H	1.157426	-0.671846	-0.053698
H330	H	1.657426	-0.171846	0.446302
H331	H	1.221472	-0.627456	-0.052727
H332	H	1.721472	-0.127456	0.447273
H333	H	1.156491	-0.627452	-0.117735
H334	H	1.656491	-0.127452	0.382265
H335	H	1.149329	-0.531677	-0.045577
H336	H	1.649329	-0.031677	0.454423
H337	H	0.828865	-0.628629	0.274696
H338	H	1.328865	-0.128629	0.774696
C339	C	0.812594	-0.524111	0.290966
C340	C	1.312594	-0.024111	0.790966
H341	H	0.778698	-0.547678	0.324855
H342	H	1.278698	-0.047678	0.824855
H343	H	0.777736	-0.503271	0.260839
H344	H	1.277736	-0.003271	0.760839
H345	H	0.842717	-0.503279	0.325846
H346	H	1.342717	-0.003279	0.825846
H347	H	0.862235	0.034701	-0.296654
H348	H	1.362235	0.534701	0.203346
