data_functionalizedCrystal
_audit_creation_method	'MofGen! by Chris Wilmer'
_symmetry_space_group_name_H-M	'P1'
_symmetry_Int_Tables_number	1
_symmetry_cell_setting	triclinic
loop_
_symmetry_equiv_pos_as_xyz
  x,y,z
_cell_length_a	10.654554
_cell_length_b	14.044190
_cell_length_c	9.130313
_cell_angle_alpha	89.993628
_cell_angle_beta	89.998999
_cell_angle_gamma	88.839310
loop_
_atom_site_label
_atom_site_type_symbol
_atom_site_fract_x
_atom_site_fract_y
_atom_site_fract_z
O1	O	1.681225	0.133249	-0.121844
O2	O	1.317023	0.145938	-0.121843
O3	O	1.493653	0.001573	-0.121815
O4	O	1.504595	0.277614	-0.121872
O5	O	1.493651	0.001577	0.121784
O6	O	1.317021	0.145942	0.121756
O7	O	1.681223	0.133253	0.121755
Cu8	Cu	1.499122	0.139598	0.143998
Cu9	Cu	1.499124	0.139593	-0.144086
O10	O	1.504593	0.277618	0.121726
C11	C	1.270130	0.145007	-0.000043
C12	C	1.130407	0.142217	-0.000041
C13	C	0.938773	0.051970	-0.000042
C14	C	1.070058	0.054591	-0.000027
C15	C	1.059463	0.227227	-0.000055
C16	C	0.928181	0.224605	-0.000059
C17	C	0.944891	-0.047700	-0.000032
C18	C	1.076176	-0.045079	-0.000017
C19	C	1.488865	-0.033771	-0.000011
C20	C	1.474586	-0.139091	0.000002
C21	C	1.549751	-0.388883	-0.000056
C22	C	1.448501	-0.331921	-0.000045
C23	C	1.463018	-0.224621	-0.000019
C24	C	1.535236	-0.496193	-0.000082
C25	C	1.728116	0.134184	-0.000048
C26	C	1.867839	0.136974	-0.000060
C27	C	1.509381	0.312962	-0.000081
C28	C	1.523661	0.418282	-0.000103
N29	N	1.499129	0.139600	0.346620
N30	N	1.499126	0.139583	-0.346709
C31	C	1.577365	0.075697	0.423285
C32	C	1.577361	0.075686	0.576622
C33	C	1.420881	0.203489	0.576616
C34	C	1.420880	0.203495	0.423282
C35	C	1.667711	0.001914	0.423289
C36	C	1.667707	0.001903	0.576626
H37	H	1.118786	-0.075195	0.105173
H38	H	1.647329	-0.357066	-0.000041
H39	H	1.357163	0.255522	0.360863
H40	H	1.357172	0.255510	0.639050
N41	N	1.631576	-0.089542	0.371107
N42	N	1.606108	-0.153981	0.460086
H43	H	1.580569	-0.218567	0.423234
N44	N	0.855742	0.311443	-0.000047
N45	N	0.909638	0.389674	-0.000043
H46	H	0.858478	0.451008	-0.000032
H47	H	1.350915	-0.363739	-0.000053
H48	H	1.108610	0.298574	-0.000053
N49	N	1.620758	-0.084529	0.636316
N50	N	1.689023	-0.135326	0.717217
H51	H	1.655860	-0.196364	0.759379
N52	N	0.903147	-0.096604	0.127857
N53	N	0.981398	-0.128904	0.217972
H54	H	0.951917	-0.163442	0.308292
N55	N	0.896202	-0.087510	-0.131981
N56	N	0.969524	-0.115132	-0.230790
H57	H	0.935138	-0.143245	-0.323984
H58	H	1.765852	0.018157	0.618239
N59	N	1.785001	0.030932	0.363630
N60	N	1.872839	0.052654	0.447177
H61	H	1.955671	0.073162	0.405043
N62	N	1.123844	-0.092202	-0.127875
N63	N	1.100753	-0.177967	-0.149511
H64	H	1.134420	-0.211247	-0.239806
