data_functionalizedCrystal
_audit_creation_method	'MofGen! by Chris Wilmer'
_symmetry_space_group_name_H-M	'P1'
_symmetry_Int_Tables_number	1
_symmetry_cell_setting	triclinic
loop_
_symmetry_equiv_pos_as_xyz
  x,y,z
_cell_length_a	8.559649
_cell_length_b	8.559649
_cell_length_c	7.681187
_cell_angle_alpha	85.068115
_cell_angle_beta	94.913991
_cell_angle_gamma	69.778664
loop_
_atom_site_label
_atom_site_type_symbol
_atom_site_fract_x
_atom_site_fract_y
_atom_site_fract_z
O1	O	2.109656	-0.037792	-0.146418
O2	O	2.609656	0.462208	0.353582
O3	O	1.634171	0.045989	-0.146423
O4	O	2.134171	0.545989	0.353577
O5	O	1.913804	-0.233644	-0.146418
O6	O	2.413804	0.266356	0.353582
O7	O	1.830023	0.241841	-0.146423
O8	O	2.330023	0.741841	0.353577
O9	O	1.948238	-0.268139	0.146453
O10	O	2.448238	0.231861	0.646453
O11	O	1.668605	0.011495	0.146448
O12	O	2.168605	0.511495	0.646448
O13	O	2.144090	-0.072287	0.146453
O14	O	2.644090	0.427713	0.646453
Zn15	Zn	1.911815	-0.035873	0.192950
Zn16	Zn	2.411815	0.464127	0.692950
Zn17	Zn	1.866446	0.009575	-0.192920
Zn18	Zn	2.366446	0.509575	0.307080
O19	O	1.864457	0.207347	0.146448
O20	O	2.364457	0.707347	0.646448
C21	C	1.591079	0.035091	0.000012
C22	C	2.091079	0.535091	0.500012
C23	C	1.411379	0.053991	0.000010
C24	C	1.911379	0.553991	0.500010
C25	C	1.937370	-0.311200	0.000014
C26	C	2.437370	0.188800	0.500014
C27	C	1.956268	-0.490898	0.000004
C28	C	2.456268	0.009102	0.500004
C29	C	2.187182	-0.061388	0.000014
C30	C	2.687182	0.438612	0.500014
C31	C	2.366880	-0.080286	0.000004
C32	C	2.866880	0.419714	0.500004
C33	C	1.840890	0.284903	0.000012
C34	C	2.340890	0.784903	0.500012
C35	C	1.821991	0.464603	0.000010
C36	C	2.321991	0.964603	0.500010
N37	N	1.835486	0.040581	-0.456266
N38	N	2.335486	0.540581	0.043734
N39	N	1.942789	-0.066893	0.456296
N40	N	2.442789	0.433107	0.956296
H41	H	1.692572	-0.436020	0.000015
H42	H	2.192572	0.063980	0.500015
C43	C	2.277141	0.228835	-0.000008
C44	C	2.777141	0.728835	0.499992
H45	H	2.329150	0.310543	-0.000016
H46	H	2.829150	0.810543	0.499984
H47	H	2.221722	0.229899	0.102111
H48	H	2.721722	0.729899	0.602111
H49	H	2.197737	0.253945	-0.102163
H50	H	2.697737	0.753945	0.397837
C51	C	2.131116	-0.625150	0.000004
C52	C	2.631116	-0.125150	0.500004
H53	H	2.121314	-0.732369	0.000000
H54	H	2.621314	-0.232369	0.500000
H55	H	2.201963	-0.624984	0.102127
H56	H	2.701963	-0.124984	0.602127
H57	H	2.177926	-0.600930	-0.102147
H58	H	2.677926	-0.100930	0.397853
H59	H	1.725986	0.150246	-0.531505
H60	H	2.225986	0.650246	-0.031505
H61	H	2.052307	-0.176555	-0.468457
H62	H	2.552307	0.323445	0.031543
H63	H	2.466268	-0.209714	0.000001
H64	H	2.966268	0.290286	0.500001
