data_functionalizedCrystal
_audit_creation_method	'MofGen! by Chris Wilmer'
_symmetry_space_group_name_H-M	'P1'
_symmetry_Int_Tables_number	1
_symmetry_cell_setting	triclinic
loop_
_symmetry_equiv_pos_as_xyz
  x,y,z
_cell_length_a	11.792241
_cell_length_b	9.065215
_cell_length_c	8.140239
_cell_angle_alpha	90.002190
_cell_angle_beta	89.996328
_cell_angle_gamma	95.395943
loop_
_atom_site_label
_atom_site_type_symbol
_atom_site_fract_x
_atom_site_fract_y
_atom_site_fract_z
O1	O	0.166414	-1.958841	-0.136595
O2	O	0.180069	-1.529427	-0.136603
O3	O	0.008129	-1.754555	-0.136587
O4	O	0.338354	-1.733713	-0.136611
O5	O	0.008127	-1.754542	0.136640
O6	O	0.180067	-1.529415	0.136624
O7	O	0.166412	-1.958828	0.136632
Zn8	Zn	0.173239	-1.744120	0.180009
Zn9	Zn	0.173242	-1.744136	-0.179980
O10	O	0.338352	-1.733701	0.136616
C11	C	-0.034171	-1.753239	0.000026
C12	C	-0.160206	-1.749321	0.000024
C13	C	0.178756	-1.474447	0.000010
C14	C	0.174835	-1.310640	0.000007
C15	C	0.167725	-2.013809	0.000015
C16	C	0.171646	-2.177615	0.000007
C17	C	-0.390958	-1.742116	-0.000004
C18	C	-0.262551	-1.746119	0.000011
C19	C	0.380652	-1.735016	-0.000000
C20	C	0.506687	-1.738935	-0.000009
N21	N	0.173237	-1.744119	0.425691
N22	N	0.173235	-1.744148	-0.425662
