data_functionalizedCrystal
_audit_creation_method	'MofGen! by Chris Wilmer'
_symmetry_space_group_name_H-M	'P1'
_symmetry_Int_Tables_number	1
_symmetry_cell_setting	triclinic
loop_
_symmetry_equiv_pos_as_xyz
  x,y,z
_cell_length_a	11.169417
_cell_length_b	12.759400
_cell_length_c	11.169409
_cell_angle_alpha	89.966264
_cell_angle_beta	89.979436
_cell_angle_gamma	90.015563
loop_
_atom_site_label
_atom_site_type_symbol
_atom_site_fract_x
_atom_site_fract_y
_atom_site_fract_z
Zn1	Zn	1.834935	-0.418157	-0.678531
Zn2	Zn	1.834806	-0.593883	-0.477842
Zn3	Zn	1.634218	-0.418221	-0.477865
Zn4	Zn	1.634213	-0.593797	-0.678487
O5	O	1.734543	-0.506015	-0.578181
O6	O	2.002867	-0.441477	-0.651918
O7	O	1.808146	-0.570643	-0.309896
O8	O	1.660900	-0.271192	-0.504511
O9	O	2.002773	-0.570581	-0.504473
O10	O	1.808365	-0.271145	-0.651939
O11	O	1.660775	-0.441585	-0.309912
O12	O	1.466268	-0.441503	-0.504469
O13	O	1.660891	-0.570436	-0.846443
O14	O	1.466264	-0.570498	-0.651866
O15	O	1.808360	-0.441394	-0.846475
O16	O	1.808141	-0.740892	-0.504431
O17	O	1.660766	-0.740830	-0.651844
C18	C	1.422718	-0.505999	-0.578166
C19	C	1.289318	-0.506017	-0.578188
C20	C	1.734472	-0.778982	-0.578156
C21	C	1.734551	-0.895759	-0.578186
C22	C	1.811375	-0.950618	-0.501513
C23	C	1.811448	-1.060342	-0.501550
C24	C	1.657865	-1.060337	-0.654936
C25	C	1.657798	-0.950615	-0.654904
C26	C	1.888128	-0.895762	-0.424794
C27	C	1.964956	-0.950622	-0.348114
C28	C	1.965030	-1.060346	-0.348151
C29	C	1.888275	-1.115210	-0.424868
C30	C	2.047585	-0.506031	-0.578198
C31	C	2.180985	-0.506038	-0.578204
C32	C	1.734639	-0.505898	-0.891224
C33	C	1.734680	-0.505849	-1.024624
C34	C	1.734647	-0.231981	-0.578233
C35	C	1.734692	-0.115205	-0.578255
C36	C	1.734516	-0.506055	-0.266357
C37	C	1.734708	-0.505808	-0.132957
H38	H	1.888073	-0.806419	-0.424752
H39	H	1.595243	-0.905948	-0.717340
C40	C	2.049385	-0.890269	-0.263733
N41	N	2.112977	-0.844813	-0.200174
C42	C	1.888365	-1.235910	-0.424908
N43	N	1.888429	-1.326820	-0.424933
H44	H	2.027596	-1.105010	-0.285723
H45	H	1.595374	-1.105016	-0.717395
