data_functionalizedCrystal
_audit_creation_method	'MofGen! by Chris Wilmer'
_symmetry_space_group_name_H-M	'P1'
_symmetry_Int_Tables_number	1
_symmetry_cell_setting	triclinic
loop_
_symmetry_equiv_pos_as_xyz
  x,y,z
_cell_length_a	19.077105
_cell_length_b	29.839131
_cell_length_c	19.076919
_cell_angle_alpha	92.267459
_cell_angle_beta	90.076224
_cell_angle_gamma	87.737628
loop_
_atom_site_label
_atom_site_type_symbol
_atom_site_fract_x
_atom_site_fract_y
_atom_site_fract_z
Zn1	Zn	1.058171	-0.217337	-0.440392
Zn2	Zn	1.391504	0.115996	-0.107059
Zn3	Zn	1.724837	0.449330	0.226275
Zn4	Zn	1.062777	-0.289569	-0.322877
Zn5	Zn	1.396111	0.043764	0.010457
Zn6	Zn	1.729444	0.377097	0.343790
Zn7	Zn	0.945391	-0.211319	-0.318186
Zn8	Zn	1.278724	0.122015	0.015147
Zn9	Zn	1.612058	0.455348	0.348480
Zn10	Zn	0.940599	-0.289298	-0.435629
Zn11	Zn	1.273932	0.044035	-0.102296
Zn12	Zn	1.607266	0.377368	0.231037
O13	O	1.001735	-0.251881	-0.379271
O14	O	1.335068	0.081452	-0.045938
O15	O	1.668401	0.414786	0.287396
O16	O	1.157112	-0.229551	-0.428760
O17	O	1.490446	0.103783	-0.095426
O18	O	1.823779	0.437116	0.237907
O19	O	1.051139	-0.276784	-0.223924
O20	O	1.384472	0.056549	0.109410
O21	O	1.717806	0.389883	0.442743
O22	O	0.960429	-0.149253	-0.334427
O23	O	1.293762	0.184081	-0.001094
O24	O	1.627096	0.517414	0.332239
O25	O	1.160497	-0.282620	-0.342422
O26	O	1.493830	0.050714	-0.009088
O27	O	1.827163	0.384047	0.324245
O28	O	1.043288	-0.153674	-0.424211
O29	O	1.376621	0.179659	-0.090878
O30	O	1.709954	0.512992	0.242455
O31	O	0.964896	-0.219294	-0.220477
O32	O	1.298229	0.114040	0.112856
O33	O	1.631563	0.447373	0.446189
O34	O	0.846425	-0.219031	-0.329809
O35	O	1.179758	0.114302	0.003524
O36	O	1.513092	0.447636	0.336858
O37	O	0.952262	-0.282158	-0.534592
O38	O	1.285595	0.051175	-0.201259
O39	O	1.618928	0.384509	0.132074
O40	O	0.842904	-0.276322	-0.416094
O41	O	1.176238	0.057011	-0.082761
O42	O	1.509571	0.390344	0.250573
O43	O	1.038641	-0.229288	-0.538091
O44	O	1.371974	0.104045	-0.204758
O45	O	1.705308	0.437379	0.128575
O46	O	1.046493	-0.352398	-0.337803
O47	O	1.379826	-0.019065	-0.004470
O48	O	1.713159	0.314269	0.328863
O49	O	0.956729	-0.352199	-0.420642
O50	O	1.290062	-0.018865	-0.087309
O51	O	1.623395	0.314468	0.246024
C52	C	0.819169	-0.246995	-0.371926
C53	C	1.152502	0.086339	-0.038593
C54	C	1.485835	0.419672	0.294740
C55	C	0.741065	-0.244915	-0.368801
C56	C	1.074399	0.088418	-0.035467
C57	C	1.407732	0.421751	0.297866
C58	C	1.001609	-0.368599	-0.379231
C59	C	1.334942	-0.035266	-0.045898
C60	C	1.668276	0.298067	0.287435
C61	C	1.001619	-0.418534	-0.379240
C62	C	1.334952	-0.085201	-0.045907
C63	C	1.668285	0.248133	0.287426
C64	C	0.702560	-0.273809	-0.412186
C65	C	1.035894	0.059525	-0.078852
C66	C	1.369227	0.392858	0.254481
C67	C	0.629174	-0.271849	-0.409252
C68	C	0.962507	0.061484	-0.075919
C69	C	1.295841	0.394817	0.257414
C70	C	0.594294	-0.240998	-0.362930
C71	C	0.927627	0.092335	-0.029596
C72	C	1.260961	0.425668	0.303737
C73	C	0.632804	-0.212102	-0.319543
C74	C	0.966137	0.121231	0.013790
C75	C	1.299471	0.454565	0.347124
C76	C	0.706189	-0.214059	-0.322481
C77	C	1.039522	0.119274	0.010853
C78	C	1.372856	0.452607	0.344186
C79	C	0.375011	-0.231938	-0.349338
C80	C	0.708344	0.101395	-0.016005
C81	C	1.041678	0.434728	0.317328
C82	C	0.301621	-0.229984	-0.346403
C83	C	0.634954	0.103349	-0.013069
C84	C	0.968287	0.436683	0.320264
C85	C	0.297996	-0.289731	-0.436113
C86	C	0.631329	0.043602	-0.102780
C87	C	0.964662	0.376936	0.230554
C88	C	0.371382	-0.291688	-0.439043
C89	C	0.704716	0.041646	-0.105710
C90	C	1.038049	0.374979	0.227623
C91	C	0.409886	-0.262790	-0.395659
C92	C	0.743219	0.070544	-0.062326
C93	C	1.076553	0.403877	0.271007
N94	N	0.519281	-0.238996	-0.359929
N95	N	0.852615	0.094338	-0.026595
N96	N	1.185948	0.427671	0.306738
N97	N	0.484897	-0.264790	-0.398664
N98	N	0.818230	0.068543	-0.065331
N99	N	1.151564	0.401876	0.268002
C100	C	1.048554	-0.728276	-0.336206
C101	C	1.381887	-0.394943	-0.002873
C102	C	1.715220	-0.061609	0.330461
C103	C	1.048639	-0.915952	-0.336237
C104	C	1.381973	-0.582619	-0.002903
C105	C	1.715306	-0.249285	0.330430
O106	O	1.088445	-0.940297	-0.299616
O107	O	1.421779	-0.606964	0.033717
O108	O	1.755112	-0.273631	0.367050
N109	N	1.001878	-0.939328	-0.379330
N110	N	1.335211	-0.605995	-0.045997
N111	N	1.668545	-0.272661	0.287337
C112	C	0.955095	-0.915782	-0.422422
C113	C	1.288429	-0.582449	-0.089089
C114	C	1.621762	-0.249116	0.244245
O115	O	0.915329	-0.939972	-0.459082
O116	O	1.248662	-0.606638	-0.125748
O117	O	1.581996	-0.273305	0.207585
C118	C	0.955014	-0.728107	-0.422395
C119	C	1.288347	-0.394774	-0.089061
C120	C	1.621680	-0.061441	0.244272
C121	C	1.001773	-0.704734	-0.379293
C122	C	1.335106	-0.371400	-0.045960
C123	C	1.668440	-0.038067	0.287374
C124	C	1.095310	-0.704902	-0.293109
C125	C	1.428643	-0.371569	0.040225
C126	C	1.761976	-0.038236	0.373558
C127	C	1.095285	-0.657986	-0.293099
C128	C	1.428619	-0.324653	0.040235
C129	C	1.761952	0.008681	0.373568
C130	C	1.048505	-0.634443	-0.336186
C131	C	1.381838	-0.301110	-0.002852
C132	C	1.715171	0.032223	0.330481
C133	C	1.001749	-0.657817	-0.379283
C134	C	1.335082	-0.324484	-0.045950
C135	C	1.668415	0.008849	0.287384
C136	C	0.908235	-0.704563	-0.465490
C137	C	1.241568	-0.371229	-0.132157
C138	C	1.574902	-0.037896	0.201177
C139	C	0.908220	-0.657641	-0.465480
C140	C	1.241553	-0.324308	-0.132147
C141	C	1.574886	0.009026	0.201186
C142	C	0.954979	-0.634267	-0.422379
C143	C	1.288312	-0.300934	-0.089046
C144	C	1.621646	0.032399	0.244288
C145	C	0.954944	-0.587358	-0.422360
C146	C	1.288277	-0.254025	-0.089027
C147	C	1.621610	0.079308	0.244306
N148	N	1.001705	-0.563982	-0.379267
N149	N	1.335038	-0.230649	-0.045934
N150	N	1.668371	0.102684	0.287400
C151	C	1.048485	-0.587525	-0.336180
C152	C	1.381819	-0.254192	-0.002846
C153	C	1.715152	0.079142	0.330487
C154	C	0.955141	-1.014314	-0.422432
C155	C	1.288474	-0.680981	-0.089099
C156	C	1.621807	-0.347648	0.244234
C157	C	0.955160	-1.061233	-0.422439
C158	C	1.288493	-0.727900	-0.089105
C159	C	1.621827	-0.394566	0.244228
C160	C	1.048705	-1.061399	-0.336254
C161	C	1.382038	-0.728066	-0.002921
C162	C	1.715372	-0.394733	0.330413
C163	C	1.048682	-1.014480	-0.336245
C164	C	1.382015	-0.681147	-0.002911
C165	C	1.715348	-0.347813	0.330422
C166	C	1.001902	-0.990938	-0.379339
C167	C	1.335235	-0.657605	-0.046006
C168	C	1.668568	-0.324272	0.287328
C169	C	1.048430	-0.488997	-0.336161
C170	C	1.381763	-0.155664	-0.002828
C171	C	1.715097	0.177669	0.330505
C172	C	1.048399	-0.442077	-0.336153
C173	C	1.381733	-0.108743	-0.002820
C174	C	1.715066	0.224590	0.330514
C175	C	0.954857	-0.441914	-0.422340
C176	C	1.288190	-0.108581	-0.089007
C177	C	1.621524	0.224752	0.244327
C178	C	0.954885	-0.488831	-0.422346
C179	C	1.288218	-0.155497	-0.089013
C180	C	1.621552	0.177836	0.244321
C181	C	1.001677	-0.512371	-0.379255
C182	C	1.335010	-0.179038	-0.045921
C183	C	1.668344	0.154296	0.287412
O184	O	0.915164	-0.562985	-0.458967
O185	O	1.248497	-0.229651	-0.125634
O186	O	1.581830	0.103682	0.207700
O187	O	1.088256	-0.563328	-0.299537
O188	O	1.421589	-0.229995	0.033796
O189	O	1.754923	0.103339	0.367130
C190	C	1.048578	-0.775192	-0.336216
C191	C	1.381911	-0.441859	-0.002883
C192	C	1.715245	-0.108526	0.330451
C193	C	1.001822	-0.798566	-0.379313
C194	C	1.335155	-0.465233	-0.045980
C195	C	1.668489	-0.131900	0.287353
C196	C	0.955041	-0.775024	-0.422401
C197	C	1.288375	-0.441690	-0.089067
C198	C	1.621708	-0.108357	0.244266
C199	C	1.001841	-0.845485	-0.379319
C200	C	1.335175	-0.512151	-0.045986
C201	C	1.668508	-0.178818	0.287347
C202	C	1.048622	-0.869027	-0.336232
C203	C	1.381955	-0.535694	-0.002899
C204	C	1.715289	-0.202361	0.330435
C205	C	1.095383	-0.845651	-0.293139
C206	C	1.428716	-0.512318	0.040195
C207	C	1.762050	-0.178985	0.373528
C208	C	1.095359	-0.798735	-0.293129
C209	C	1.428692	-0.465402	0.040205
C210	C	1.762025	-0.132068	0.373538
C211	C	0.908280	-0.798400	-0.465494
C212	C	1.241614	-0.465066	-0.132161
C213	C	1.574947	-0.131733	0.201173
C214	C	0.908308	-0.845316	-0.465500
C215	C	1.241641	-0.511983	-0.132166
C216	C	1.574975	-0.178650	0.201167
C217	C	0.955089	-0.868859	-0.422413
C218	C	1.288422	-0.535525	-0.089079
C219	C	1.621755	-0.202192	0.244254
C220	C	1.185013	-0.256787	-0.386645
C221	C	1.518347	0.076547	-0.053312
C222	C	1.851680	0.409880	0.280021
C223	C	1.263116	-0.258877	-0.389788
C224	C	1.596449	0.074456	-0.056454
C225	C	1.929783	0.407789	0.276879
C226	C	0.994403	-0.256364	-0.562551
C227	C	1.327736	0.076969	-0.229217
C228	C	1.661070	0.410303	0.104116
C229	C	0.991279	-0.258274	-0.640654
C230	C	1.324612	0.075059	-0.307320
C231	C	1.657945	0.408392	0.026013
C232	C	1.001879	-0.134708	-0.379327
C233	C	1.335212	0.198626	-0.045994
C234	C	1.668546	0.531959	0.287339
C235	C	1.001941	-0.084775	-0.379351
C236	C	1.335274	0.248558	-0.046018
C237	C	1.668607	0.581891	0.287315
C238	C	1.034782	-0.231647	-0.679169
C239	C	1.368115	0.101687	-0.345836
C240	C	1.701448	0.435020	-0.012503
C241	C	1.031838	-0.233440	-0.752555
C242	C	1.365171	0.099894	-0.419222
C243	C	1.698504	0.433227	-0.085888
C244	C	0.985394	-0.261863	-0.787424
C245	C	1.318727	0.071470	-0.454090
C246	C	1.652060	0.404803	-0.120757
C247	C	0.941886	-0.288492	-0.748903
C248	C	1.275219	0.044841	-0.415569
C249	C	1.608553	0.378175	-0.082236
C250	C	0.944827	-0.286696	-0.675518
C251	C	1.278160	0.046637	-0.342185
C252	C	1.611494	0.379970	-0.008852
C253	C	0.971772	-0.270184	-1.006704
C254	C	1.305105	0.063150	-0.673370
C255	C	1.638438	0.396483	-0.340037
C256	C	0.968835	-0.271978	-1.080093
C257	C	1.302169	0.061355	-0.746760
C258	C	1.635502	0.394688	-0.413427
C259	C	1.058787	-0.216925	-1.083741
C260	C	1.392120	0.116408	-0.750407
C261	C	1.725453	0.449742	-0.417074
C262	C	1.061727	-0.215134	-1.010355
C263	C	1.395060	0.118199	-0.677022
C264	C	1.728393	0.451533	-0.343688
C265	C	1.018216	-0.241761	-0.971840
C266	C	1.351550	0.091572	-0.638507
C267	C	1.684883	0.424906	-0.305174
N268	N	0.982385	-0.263698	-0.862436
N269	N	1.315718	0.069635	-0.529102
N270	N	1.649051	0.402969	-0.195769
N271	N	1.021222	-0.239924	-0.896830
N272	N	1.354555	0.093410	-0.563496
N273	N	1.687889	0.426743	-0.230163
C274	C	1.009078	-0.247384	-0.196706
C275	C	1.342411	0.085949	0.136627
C276	C	1.675745	0.419283	0.469961
C277	C	1.012338	-0.245351	-0.118609
C278	C	1.345672	0.087983	0.214724
C279	C	1.679005	0.421316	0.548057
H280	H	0.730954	-0.298932	-0.449904
H281	H	1.064288	0.034401	-0.116571
H282	H	1.397621	0.367734	0.216763
N283	N	0.904451	-0.514045	-0.468829
N284	N	1.237784	-0.180711	-0.135495
N285	N	1.571118	0.152622	0.197838
H286	H	0.873065	-0.531974	-0.438943
H287	H	1.206398	-0.198640	-0.105610
H288	H	1.539732	0.134693	0.227724
H289	H	0.874858	-0.491982	-0.496112
H290	H	1.208191	-0.158649	-0.162779
H291	H	1.541525	0.174685	0.170554
H292	H	0.931013	-0.295125	-1.108481
H293	H	1.264346	0.038208	-0.775148
H294	H	1.597680	0.371542	-0.441814
N295	N	0.256463	-0.320896	-0.482903
N296	N	0.589796	0.012438	-0.149569
N297	N	0.923130	0.345771	0.183764
H298	H	0.224737	-0.302657	-0.514301
H299	H	0.558070	0.030676	-0.180968
H300	H	0.891404	0.364009	0.152366
H301	H	0.289740	-0.340731	-0.512648
H302	H	0.623073	-0.007397	-0.179315
H303	H	0.956406	0.325936	0.154019
N304	N	1.145845	-0.871045	-0.246667
N305	N	1.479178	-0.537712	0.086666
N306	N	1.812512	-0.204379	0.420000
H307	H	1.136981	-0.861384	-0.196011
H308	H	1.470314	-0.528051	0.137322
H309	H	1.803647	-0.194717	0.470655
H310	H	1.138738	-0.904307	-0.253275
H311	H	1.472071	-0.570974	0.080058
H312	H	1.805405	-0.237641	0.413392
N313	N	1.111793	-0.184458	-0.972749
N314	N	1.445126	0.148875	-0.639416
N315	N	1.778460	0.482208	-0.306083
H316	H	1.107048	-0.187357	-0.920416
H317	H	1.440382	0.145976	-0.587083
H318	H	1.773715	0.479310	-0.253749
H319	H	1.161463	-0.193093	-0.987583
H320	H	1.494797	0.140240	-0.654250
H321	H	1.828130	0.473574	-0.320917
H322	H	0.936353	-0.291872	-0.975354
H323	H	1.269686	0.041461	-0.642021
H324	H	1.603020	0.374795	-0.308687
H325	H	0.917045	-0.995150	-0.457526
H326	H	1.250378	-0.661817	-0.124193
H327	H	1.583712	-0.328483	0.209141
H328	H	1.086757	-0.995452	-0.301148
H329	H	1.420091	-0.662118	0.032185
H330	H	1.753424	-0.328785	0.365518
H331	H	1.067264	-0.211758	-0.783912
H332	H	1.400597	0.121576	-0.450578
H333	H	1.733931	0.454909	-0.117245
H334	H	0.909395	-0.308375	-0.644159
H335	H	1.242728	0.024959	-0.310826
H336	H	1.576062	0.358292	0.022508
N337	N	1.105712	-0.188207	-1.125281
N338	N	1.439045	0.145127	-0.791947
N339	N	1.772379	0.478460	-0.458614
H340	H	1.096803	-0.193655	-1.177060
H341	H	1.430136	0.139678	-0.843727
H342	H	1.763470	0.473011	-0.510394
H343	H	1.095327	-0.155517	-1.112027
H344	H	1.428661	0.177817	-0.778694
H345	H	1.761994	0.511150	-0.445361
N346	N	0.891776	-0.319139	-0.786506
N347	N	1.225109	0.014194	-0.453173
N348	N	1.558442	0.347528	-0.119839
H349	H	0.896510	-0.316235	-0.838840
H350	H	1.229844	0.017098	-0.505506
H351	H	1.563177	0.350432	-0.172173
H352	H	0.903173	-0.351204	-0.774108
H353	H	1.236507	-0.017871	-0.440775
H354	H	1.569840	0.315463	-0.107442
H355	H	0.870187	-0.779235	-0.500582
H356	H	1.203520	-0.445902	-0.167248
H357	H	1.536853	-0.112569	0.166085
H358	H	1.072604	-0.208503	-0.650785
H359	H	1.405937	0.124831	-0.317452
H360	H	1.739270	0.458164	0.015882
H361	H	0.597826	-0.295378	-0.444580
H362	H	0.931160	0.037956	-0.111247
H363	H	1.264493	0.371289	0.222086
H364	H	0.737539	-0.190529	-0.287155
H365	H	1.070872	0.142804	0.046178
H366	H	1.404205	0.476138	0.379511
H367	H	0.870225	-0.864343	-0.500597
H368	H	1.203558	-0.531010	-0.167264
H369	H	1.536891	-0.197676	0.166069
H370	H	0.916767	-0.422739	-0.457419
H371	H	1.250100	-0.089405	-0.124086
H372	H	1.583433	0.243928	0.209248
H373	H	0.399777	-0.316811	-0.476762
H374	H	0.733110	0.016523	-0.143429
H375	H	1.066443	0.349856	0.189904
H376	H	1.086476	-0.423047	-0.301052
H377	H	1.419810	-0.089714	0.032281
H378	H	1.753143	0.243620	0.365615
H379	H	0.870155	-0.723586	-0.500584
H380	H	1.203488	-0.390252	-0.167251
H381	H	1.536822	-0.056919	0.166082
H382	H	0.273224	-0.204856	-0.308686
H383	H	0.606557	0.128477	0.024648
H384	H	0.939890	0.461810	0.357981
H385	H	0.406352	-0.208411	-0.314006
H386	H	0.739685	0.124922	0.019327
H387	H	1.073019	0.458256	0.352660
H388	H	0.604399	-0.186981	-0.281829
H389	H	0.937732	0.146353	0.051504
H390	H	1.271065	0.479686	0.384837
N391	N	1.145730	-0.632779	-0.246623
N392	N	1.479063	-0.299446	0.086711
N393	N	1.812397	0.033887	0.420044
H394	H	1.136879	-0.639446	-0.195970
H395	H	1.470212	-0.306113	0.137363
H396	H	1.803545	0.027220	0.470696
H397	H	1.195465	-0.642537	-0.259669
H398	H	1.528798	-0.309203	0.073664
H399	H	1.862131	0.024130	0.406998
N400	N	1.098891	-0.514387	-0.289684
N401	N	1.432225	-0.181053	0.043649
N402	N	1.765558	0.152280	0.376982
H403	H	1.148646	-0.507793	-0.302652
H404	H	1.481980	-0.174459	0.030681
H405	H	1.815313	0.158874	0.364014
H406	H	1.089957	-0.504709	-0.239049
H407	H	1.423290	-0.171375	0.094285
H408	H	1.756623	0.161958	0.427618
N409	N	1.145771	-0.730290	-0.246633
N410	N	1.479104	-0.396957	0.086700
N411	N	1.812437	-0.063623	0.420034
H412	H	1.175383	-0.708357	-0.219335
H413	H	1.508716	-0.375023	0.113999
H414	H	1.842049	-0.041690	0.447332
H415	H	1.118505	-0.748221	-0.212941
H416	H	1.451838	-0.414887	0.120393
H417	H	1.785172	-0.081554	0.453726
H418	H	1.086796	-1.080576	-0.301171
H419	H	1.420129	-0.747242	0.032163
H420	H	1.753462	-0.413909	0.365496
H421	H	0.917078	-1.080260	-0.457529
H422	H	1.250411	-0.746926	-0.124196
H423	H	1.583744	-0.413593	0.209137
H424	H	0.870127	-0.638476	-0.500576
H425	H	1.203460	-0.305143	-0.167242
H426	H	1.536793	0.028191	0.166091
H427	H	1.133435	-0.779707	-0.258032
H428	H	1.466768	-0.446374	0.075302
H429	H	1.800101	-0.113041	0.408635
