data_functionalizedCrystal
_audit_creation_method	'MofGen! by Chris Wilmer'
_symmetry_space_group_name_H-M	'P1'
_symmetry_Int_Tables_number	1
_symmetry_cell_setting	triclinic
loop_
_symmetry_equiv_pos_as_xyz
  x,y,z
_cell_length_a	10.489741
_cell_length_b	22.010155
_cell_length_c	10.489741
_cell_angle_alpha	90.004586
_cell_angle_beta	95.460826
_cell_angle_gamma	90.005851
loop_
_atom_site_label
_atom_site_type_symbol
_atom_site_fract_x
_atom_site_fract_y
_atom_site_fract_z
O1	O	1.694063	0.050487	-0.179950
O2	O	1.322867	0.050497	-0.196843
O3	O	1.516911	0.050488	-0.002799
O4	O	1.500019	0.050496	-0.373995
O5	O	1.516876	-0.050562	-0.002828
O6	O	1.322832	-0.050554	-0.196872
O7	O	1.694028	-0.050563	-0.179979
Cu8	Cu	1.508426	-0.059785	-0.188428
Cu9	Cu	1.508468	0.059719	-0.188394
O10	O	1.499983	-0.050555	-0.374024
C11	C	1.275318	-0.000027	-0.195582
C12	C	1.133688	-0.000024	-0.191765
C13	C	1.065548	-0.000032	-0.068300
C14	C	0.973439	0.049791	-0.126609
C15	C	0.973438	-0.049837	-0.126667
C16	C	1.043444	0.049840	-0.250125
C17	C	1.043453	-0.049832	-0.250165
C18	C	0.951371	0.000003	-0.308564
N19	N	1.508406	-0.143838	-0.188452
C20	C	1.594396	-0.563621	-0.102484
C21	C	1.594402	-0.627228	-0.102475
O22	O	1.667463	-0.660123	-0.029398
N23	N	1.508467	-0.659045	-0.188367
C24	C	1.422512	-0.627250	-0.274265
O25	O	1.349418	-0.660153	-0.347322
C26	C	1.422501	-0.563644	-0.274267
C27	C	1.508450	-0.531831	-0.188378
C28	C	1.680337	-0.531808	-0.016600
C29	C	1.680333	-0.468204	-0.016611
C30	C	1.594387	-0.436414	-0.102505
C31	C	1.508446	-0.468227	-0.188388
C32	C	1.336541	-0.531850	-0.360158
C33	C	1.336537	-0.468240	-0.360151
C34	C	1.422486	-0.436426	-0.274262
C35	C	1.422496	-0.372834	-0.274293
N36	N	1.508430	-0.341018	-0.188400
C37	C	1.594376	-0.372808	-0.102506
C38	C	1.422540	-0.760828	-0.274254
C39	C	1.422556	-0.824433	-0.274260
C40	C	1.594445	-0.824407	-0.102467
C41	C	1.594434	-0.760801	-0.102469
C42	C	1.508475	-0.729012	-0.188362
C43	C	1.594361	-0.239237	-0.102536
C44	C	1.594352	-0.175628	-0.102558
C45	C	1.422460	-0.175659	-0.274345
C46	C	1.422472	-0.239263	-0.274328
C47	C	1.508428	-0.271050	-0.188413
O48	O	1.349469	-0.339899	-0.347329
O49	O	1.667447	-0.339897	-0.029451
C50	C	1.741577	-0.000038	-0.181241
C51	C	1.883206	-0.000037	-0.185058
C52	C	1.515618	-0.000037	0.044718
C53	C	1.511801	-0.000036	0.186348
N54	N	1.508498	0.143771	-0.188361
C55	C	1.501277	-0.000028	-0.421541
C56	C	1.505094	-0.000026	-0.563170
C57	C	1.388336	-0.000028	0.254488
C58	C	1.446642	-0.049852	0.346596
C59	C	1.446706	0.049775	0.346599
C60	C	1.570158	-0.049901	0.276591
C61	C	1.570205	0.049771	0.276584
C62	C	1.628600	-0.000065	0.368665
H63	H	1.664347	-0.149727	-0.032617
C64	C	1.687824	-0.273632	-0.009202
C65	C	1.763098	-0.232147	0.065978
C66	C	1.849224	-0.263809	0.151955
H67	H	1.641612	-0.298446	0.044479
H68	H	1.741419	-0.298432	-0.055566
H69	H	1.709510	-0.207358	0.112339
H70	H	1.809338	-0.207332	0.012333
H71	H	1.902819	-0.288609	0.105591
H72	H	1.803001	-0.288622	0.205627
H73	H	1.900315	-0.235667	0.202967
C74	C	1.773695	-0.433780	0.076797
C75	C	1.848927	-0.475245	0.152036
C76	C	1.934934	-0.443560	0.238118
H77	H	1.827338	-0.408961	0.030552
H78	H	1.727352	-0.408983	0.130418
H79	H	1.895266	-0.500031	0.098422
H80	H	1.795319	-0.500065	0.198310
H81	H	1.888592	-0.418763	0.291739
H82	H	1.988569	-0.418743	0.191862
H83	H	1.985982	-0.471689	0.289186
C84	C	1.329013	-0.273697	-0.367631
C85	C	1.253724	-0.232239	-0.442833
C86	C	1.167590	-0.263932	-0.528773
H87	H	1.375219	-0.298519	-0.421300
H88	H	1.275428	-0.298490	-0.321238
H89	H	1.307302	-0.207455	-0.489223
H90	H	1.207490	-0.207415	-0.389200
H91	H	1.114006	-0.288725	-0.482380
H92	H	1.213807	-0.288753	-0.582433
H93	H	1.116489	-0.235807	-0.579800
H94	H	1.622416	0.091894	0.245552
H95	H	1.352582	-0.850331	-0.344212
C96	C	1.376850	0.105922	0.387722
C97	C	1.251130	0.105690	0.329356
C98	C	1.186738	0.157403	0.367187
H99	H	1.375460	0.105768	0.478133
H100	H	1.419834	0.141317	0.362542
H101	H	1.208157	0.070304	0.354544
H102	H	1.252482	0.105853	0.238946
H103	H	1.229722	0.192798	0.342007
H104	H	1.185358	0.157245	0.457598
H105	H	1.101434	0.157255	0.327583
H106	H	1.115238	0.000028	0.033196
H107	H	0.942439	0.091911	-0.074356
C108	C	1.329076	-0.726284	-0.367328
C109	C	1.250332	-0.689781	-0.298635
C110	C	1.164209	-0.657960	-0.384329
H111	H	1.375294	-0.701422	-0.420912
H112	H	1.277832	-0.754327	-0.418460
H113	H	1.301571	-0.661741	-0.247524
H114	H	1.204086	-0.714628	-0.245055
H115	H	1.112965	-0.686003	-0.435462
H116	H	1.210438	-0.633101	-0.437908
H117	H	1.110764	-0.633193	-0.337733
C118	C	1.243076	-0.566269	-0.453464
C119	C	1.167791	-0.524802	-0.528647
C120	C	1.081659	-0.556485	-0.614607
H121	H	1.289284	-0.591084	-0.507144
H122	H	1.189489	-0.591069	-0.407087
H123	H	1.221371	-0.500013	-0.575020
H124	H	1.121555	-0.499986	-0.475001
H125	H	1.028072	-0.581285	-0.568230
H126	H	1.127878	-0.581300	-0.668278
H127	H	1.030561	-0.528355	-0.665621
C128	C	1.687690	-0.858851	-0.008995
C129	C	1.665875	-0.843365	0.116557
C130	C	1.751753	-0.875078	0.202690
H131	H	1.675468	-0.901298	-0.021119
H132	H	1.772973	-0.848412	-0.023597
H133	H	1.580613	-0.853808	0.131153
H134	H	1.678107	-0.800924	0.128722
H135	H	1.837037	-0.864639	0.188088
H136	H	1.739525	-0.917523	0.190554
H137	H	1.736972	-0.864571	0.287885
C138	C	1.243415	-0.433649	-0.453479
C139	C	1.312063	-0.397122	-0.532221
C140	C	1.226327	-0.365244	-0.618199
H141	H	1.192199	-0.461639	-0.504749
H142	H	1.189914	-0.408801	-0.407110
H143	H	1.365541	-0.421968	-0.578586
H144	H	1.363274	-0.369121	-0.480987
H145	H	1.172827	-0.340396	-0.571831
H146	H	1.175116	-0.393239	-0.669460
H147	H	1.272892	-0.340453	-0.671628
C148	C	1.252959	-0.000213	0.188340
C149	C	1.188890	-0.052501	0.223614
C150	C	1.064190	-0.052699	0.162690
H151	H	1.208511	0.034783	0.213265
H152	H	1.256282	0.000115	0.098149
H153	H	1.185560	-0.052824	0.313785
H154	H	1.233300	-0.087505	0.198688
H155	H	1.067513	-0.052371	0.072499
H156	H	1.019753	-0.017702	0.187619
H157	H	1.020707	-0.088179	0.186605
C158	C	1.084892	-0.105922	-0.319999
C159	C	1.145188	-0.088125	-0.427479
C160	C	1.183367	-0.139783	-0.491838
H161	H	1.142881	-0.129011	-0.264282
H162	H	1.011888	-0.129945	-0.346487
H163	H	1.218182	-0.064112	-0.400989
H164	H	1.087223	-0.065043	-0.483225
H165	H	1.110363	-0.163806	-0.518326
H166	H	1.241352	-0.162868	-0.436111
H167	H	1.224272	-0.127715	-0.564776
C168	C	0.932309	-0.105982	-0.056805
C169	C	0.990672	-0.105747	0.068917
C170	C	0.952830	-0.157458	0.133316
H171	H	0.841898	-0.105825	-0.055417
H172	H	0.957485	-0.141378	-0.099782
H173	H	0.965487	-0.070359	0.111883
H174	H	1.081081	-0.105912	0.067568
H175	H	0.978007	-0.192854	0.090339
H176	H	0.862419	-0.157297	0.134694
H177	H	0.992433	-0.157308	0.218621
C178	C	1.639827	-0.106155	0.235737
C179	C	1.679535	-0.141058	0.343862
C180	C	1.743728	-0.192878	0.306277
H181	H	1.583831	-0.129513	0.178525
H182	H	1.712454	-0.094271	0.194125
H183	H	1.606919	-0.152942	0.385455
H184	H	1.735547	-0.117719	0.401087
H185	H	1.816354	-0.180995	0.264665
H186	H	1.687724	-0.216231	0.249064
H187	H	1.770688	-0.216563	0.379634
C188	C	1.764177	-0.000141	0.434322
C189	C	1.851737	-0.000681	0.341575
C190	C	1.976641	-0.000765	0.402003
H191	H	1.777194	0.035248	0.485752
H192	H	1.776499	-0.035231	0.486784
H193	H	1.839420	0.034406	0.289135
H194	H	1.838761	-0.036067	0.290139
H195	H	1.988963	-0.035855	0.454465
H196	H	1.989644	0.034624	0.453432
H197	H	2.036065	-0.001137	0.339084
H198	H	1.750325	-0.557686	0.053351
H199	H	1.394387	-0.091973	0.377595
C200	C	1.687812	-0.726210	-0.009374
C201	C	1.766542	-0.689674	-0.078018
C202	C	1.852553	-0.657801	0.007721
H203	H	1.641509	-0.701366	0.044167
H204	H	1.739075	-0.754222	0.041798
H205	H	1.715284	-0.661666	-0.129169
H206	H	1.812873	-0.714503	-0.131556
H207	H	1.903817	-0.685813	0.058893
H208	H	1.806239	-0.632961	0.061258
H209	H	1.905989	-0.633012	-0.038841
C210	C	1.084296	0.106095	-0.319797
C211	C	0.976171	0.140996	-0.359506
C212	C	1.013755	0.192817	-0.423701
H213	H	1.141508	0.129453	-0.263801
H214	H	1.125909	0.094212	-0.392422
H215	H	0.934578	0.152880	-0.286891
H216	H	0.918947	0.117656	-0.415517
H217	H	1.055368	0.180934	-0.496327
H218	H	1.070967	0.216170	-0.367698
H219	H	0.940397	0.216501	-0.450662
H220	H	0.901947	0.000032	-0.410168
H221	H	1.352487	-0.149766	-0.344283
