data_functionalizedCrystal
_audit_creation_method	'MofGen! by Chris Wilmer'
_symmetry_space_group_name_H-M	'P1'
_symmetry_Int_Tables_number	1
_symmetry_cell_setting	triclinic
loop_
_symmetry_equiv_pos_as_xyz
  x,y,z
_cell_length_a	10.654550
_cell_length_b	16.109301
_cell_length_c	9.130313
_cell_angle_alpha	89.994060
_cell_angle_beta	89.999724
_cell_angle_gamma	83.973206
loop_
_atom_site_label
_atom_site_type_symbol
_atom_site_fract_x
_atom_site_fract_y
_atom_site_fract_z
O1	O	1.666255	0.116774	-0.121695
O2	O	1.300626	0.127899	-0.121723
O3	O	1.493485	0.001365	-0.121693
O4	O	1.473396	0.243308	-0.121725
O5	O	1.493472	0.001362	0.121906
O6	O	1.300613	0.127896	0.121876
O7	O	1.666242	0.116770	0.121904
Cu8	Cu	1.483426	0.122333	0.144132
Cu9	Cu	1.483442	0.122337	-0.143951
O10	O	1.473383	0.243304	0.121874
C11	C	1.253832	0.127081	0.000073
C12	C	1.114422	0.124637	0.000063
C13	C	1.492664	-0.029616	0.000107
C14	C	1.490225	-0.121926	0.000109
C15	C	1.033926	0.199138	0.000058
C16	C	0.902936	0.196836	0.000084
C17	C	0.932952	0.045526	0.000114
C18	C	1.063939	0.047828	0.000099
C19	C	1.598991	-0.343552	0.000094
C20	C	1.596689	-0.430286	0.000081
C21	C	1.367868	-0.411772	0.000070
C22	C	1.370172	-0.325039	0.000072
C23	C	1.485737	-0.290932	0.000091
C24	C	1.481131	-0.464398	0.000077
C25	C	1.478634	-0.558439	0.000064
C26	C	1.488234	-0.196885	0.000101
C27	C	1.713036	0.117589	0.000104
C28	C	1.852446	0.120033	0.000105
C29	C	1.474203	0.274286	0.000071
C30	C	1.476643	0.366596	0.000059
N31	N	1.483424	0.122329	0.346755
N32	N	1.483453	0.122334	-0.346574
C33	C	1.568851	0.066324	0.423420
C34	C	1.568863	0.066324	0.576757
C35	C	1.398018	0.178342	0.576750
C36	C	1.398001	0.178337	0.423416
H37	H	1.075024	0.261680	0.000040
H38	H	0.891833	-0.017009	0.000152
H39	H	0.837401	0.257503	0.000082
O40	O	1.706621	-0.481486	0.000281
C41	C	1.712146	-0.532208	0.126455
H42	H	1.612467	-0.537169	0.168510
H43	H	1.769490	-0.503358	0.214805
C44	C	1.897798	-0.613790	0.036469
C45	C	1.775369	-0.619889	0.088115
H46	H	1.936801	-0.667875	0.012824
H47	H	1.894079	-0.579616	-0.048534
H48	H	1.945568	-0.589745	0.110103
H49	H	1.727596	-0.643923	0.014475
H50	H	1.779081	-0.654069	0.173106
H51	H	1.273779	-0.439553	0.000057
H52	H	1.328430	0.223944	0.360992
H53	H	1.129483	-0.012843	0.000108
H54	H	1.277941	-0.282194	0.000065
O55	O	1.651867	0.011834	0.349177
C56	C	1.727288	-0.037584	0.449732
H57	H	1.675813	-0.038835	0.559042
H58	H	1.820562	-0.010013	0.466017
C59	C	1.816429	-0.125581	0.255659
C60	C	1.753203	-0.127124	0.389912
H61	H	1.832421	-0.180813	0.218758
H62	H	1.765621	-0.092286	0.187912
H63	H	1.894151	-0.102602	0.269249
H64	H	1.675477	-0.150093	0.376318
H65	H	1.803999	-0.160425	0.457656
O66	O	1.651901	0.012036	0.651390
C67	C	1.729375	0.057042	0.740036
H68	H	1.679326	0.121792	0.763001
H69	H	1.822175	0.063266	0.680928
C70	C	1.817727	-0.069194	0.857488
C71	C	1.756251	0.010330	0.885704
H72	H	1.834311	-0.098010	0.947341
H73	H	1.765535	-0.099517	0.797762
H74	H	1.895053	-0.063997	0.808228
H75	H	1.678920	0.005132	0.934947
H76	H	1.808431	0.040651	0.945443
O77	O	1.711355	-0.310556	0.000029
C78	C	1.810821	-0.375603	0.000061
H79	H	1.775634	-0.434712	-0.046055
H80	H	1.845759	-0.387680	0.116925
C81	C	1.963024	-0.277897	-0.038838
C82	C	1.919810	-0.350494	-0.095489
H83	H	2.030257	-0.262408	-0.097771
H84	H	1.896013	-0.234073	-0.038853
H85	H	1.992131	-0.287971	0.058549
H86	H	1.890690	-0.340415	-0.192866
H87	H	1.986819	-0.394316	-0.095492
H88	H	1.328470	0.223944	0.639183
