data_functionalizedCrystal
_audit_creation_method	'MofGen! by Chris Wilmer'
_symmetry_space_group_name_H-M	'P1'
_symmetry_Int_Tables_number	1
_symmetry_cell_setting	triclinic
loop_
_symmetry_equiv_pos_as_xyz
  x,y,z
_cell_length_a	31.640172
_cell_length_b	14.560438
_cell_length_c	14.560438
_cell_angle_alpha	60.006739
_cell_angle_beta	90.003503
_cell_angle_gamma	59.997712
loop_
_atom_site_label
_atom_site_type_symbol
_atom_site_fract_x
_atom_site_fract_y
_atom_site_fract_z
Zr1	Zr	0.407201	1.005078	-0.120259
O2	O	0.339716	1.196680	-0.266897
O3	O	0.427887	0.813488	-0.075326
O4	O	0.427892	1.005071	-0.266899
O5	O	0.339710	1.005099	0.075815
O6	O	0.497449	1.005052	-0.266879
O7	O	0.339711	1.005097	-0.075324
O8	O	0.497440	0.662346	0.075810
O9	O	0.339719	1.347805	-0.266875
O10	O	0.488621	0.892274	-0.056124
O11	O	0.436711	0.892289	0.056654
O12	O	0.436717	1.117853	-0.168899
O13	O	0.384806	1.117869	-0.056121
Zr14	Zr	0.518135	1.005051	0.120822
Zr15	Zr	0.518137	1.005048	-0.120227
Zr16	Zr	0.407200	1.005081	0.120790
Zr17	Zr	0.407206	1.246106	-0.120224
Zr18	Zr	0.518131	0.764023	0.120786
O19	O	0.497450	1.196641	0.075889
O20	O	0.497452	1.196637	-0.266851
O21	O	0.339714	1.196684	0.075843
O22	O	0.585620	0.813450	0.267460
O23	O	0.585623	0.813445	-0.075280
O24	O	0.427884	0.813493	0.267414
O25	O	0.585626	1.005030	-0.075252
O26	O	0.497445	1.005059	0.267462
O27	O	0.427888	1.005078	0.267442
O28	O	0.585625	1.005032	0.075886
O29	O	0.427898	1.347781	-0.266849
O30	O	0.497438	0.662348	0.267412
O31	O	0.585617	0.662324	0.267437
O32	O	0.585619	0.662322	0.075836
O33	O	0.339718	1.347808	-0.075273
O34	O	0.427897	1.347784	-0.075248
O35	O	0.488620	0.892277	0.169462
O36	O	0.540530	0.892261	0.056684
O37	O	0.488625	1.117840	-0.056091
O38	O	0.436715	1.117856	0.056687
C39	C	0.462663	0.703576	0.000237
C40	C	0.462661	0.601253	0.000222
C41	C	0.424345	0.636389	-0.083009
C42	C	0.424353	0.540200	-0.082953
C43	C	0.500995	0.373740	0.083577
C44	C	0.500989	0.469929	0.083515
C45	C	0.380095	0.732493	-0.179151
C46	C	0.380103	0.636304	-0.179095
C47	C	0.323905	1.005103	0.000241
C48	C	0.276810	1.005116	0.000228
C49	C	0.011898	0.887302	0.059171
C50	C	-0.165088	0.887280	0.059194
O51	O	-0.164931	0.787137	0.109299
N52	N	-0.214311	1.005029	0.000325
C53	C	-0.219287	1.122792	-0.058548
O54	O	-0.265216	1.222945	-0.108609
C55	C	-0.042303	1.122813	-0.058563
C56	C	0.006920	1.005057	0.000301
C57	C	0.061118	0.769555	0.118031
C58	C	0.105362	0.769562	0.118020
C59	C	0.100384	0.887316	0.059149
C60	C	0.051163	1.005063	0.000289
C61	C	-0.047280	1.240575	-0.117428
C62	C	-0.003028	1.240570	-0.117424
C63	C	0.046195	1.122813	-0.058561
C64	C	0.090429	1.122824	-0.058592
N65	N	0.139653	1.005075	0.000276
C66	C	0.144630	0.887321	0.059147
C67	C	-0.312205	1.122773	-0.058538
C68	C	-0.356451	1.122768	-0.058536
C69	C	-0.302248	0.887255	0.059208
C70	C	-0.258001	0.887261	0.059199
C71	C	-0.262981	1.005024	0.000331
C72	C	0.237542	0.887344	0.059119
C73	C	0.281787	0.887362	0.059098
C74	C	0.227581	1.122873	-0.058640
C75	C	0.183339	1.122857	-0.058625
C76	C	0.188324	1.005082	0.000263
O77	O	0.090312	1.222915	-0.108661
O78	O	0.190563	0.787184	0.109222
C79	C	-0.032346	0.887296	0.059183
C80	C	-0.081567	1.005043	0.000323
C81	C	-0.086544	1.122797	-0.058548
C82	C	-0.125813	1.005038	0.000325
C83	C	-0.120835	0.887284	0.059196
C84	C	-0.071612	0.769535	0.118065
C85	C	-0.027368	0.769542	0.118053
C86	C	-0.135767	1.240546	-0.117417
C87	C	-0.180009	1.240530	-0.117402
C88	C	-0.175031	1.122776	-0.058531
C89	C	0.601432	1.005027	0.000322
C90	C	0.648527	1.005014	0.000335
C91	C	0.462670	1.005061	-0.301234
C92	C	0.462671	1.005060	-0.403565
C93	C	0.462674	1.306554	0.000326
C94	C	0.462676	1.408876	0.000341
C95	C	0.424345	1.005082	-0.547808
C96	C	0.424349	1.005072	-0.451651
C97	C	0.500995	1.005044	-0.451634
C98	C	0.500993	1.005044	-0.547785
C99	C	0.380093	1.005104	-0.547820
C100	C	0.380097	1.005094	-0.451663
C101	C	0.462666	1.005069	0.301796
C102	C	0.462665	1.005070	0.404128
C103	C	0.601426	0.703538	0.000277
C104	C	0.648519	0.601202	0.000276
C105	C	0.462660	0.703580	0.301752
C106	C	0.462658	0.601259	0.404069
C107	C	0.601424	0.703542	0.301792
C108	C	0.648516	0.601208	0.404122
C109	C	0.323913	1.306588	-0.301230
C110	C	0.276820	1.408922	-0.403560
C111	C	0.323910	1.306592	0.000285
C112	C	0.276817	1.408927	0.000287
C113	C	0.462676	1.306550	-0.301189
C114	C	0.462679	1.408871	-0.403506
C115	C	0.643539	0.553151	-0.058619
C116	C	0.687783	0.457010	-0.058643
C117	C	0.737008	0.408914	0.000236
C118	C	0.741988	0.456975	0.059133
C119	C	0.697743	0.553121	0.059149
C120	C	0.697733	0.553142	0.393309
C121	C	0.741985	0.457002	0.489449
C122	C	0.737020	0.408922	0.596403
C123	C	0.687799	0.456997	0.607214
C124	C	0.643547	0.553142	0.511075
C125	C	0.227604	1.456999	-0.392746
C126	C	0.183351	1.553169	-0.488887
C127	C	0.188316	1.601254	-0.595840
C128	C	0.237538	1.553173	-0.606652
C129	C	0.281789	1.457011	-0.510512
C130	C	0.281798	1.456988	0.059172
C131	C	0.237553	1.553156	0.059169
C132	C	0.188328	1.601255	0.000287
C133	C	0.183349	1.553190	-0.058605
C134	C	0.227593	1.457030	-0.058609
C135	C	0.489753	0.553176	0.511022
C136	C	0.489747	0.457040	0.607155
C137	C	0.435549	0.457072	0.489368
C138	C	0.435552	0.553214	0.393237
C139	C	0.521046	0.553153	0.579026
C140	C	0.521039	0.457016	0.675159
H141	H	0.532193	0.441309	0.151280
H142	H	0.152306	1.679555	0.000299
H143	H	0.241617	1.592275	0.107131
H144	H	-0.298202	0.791375	0.107136
Br145	Br	0.321441	0.831973	-0.151169
Br146	Br	0.797049	0.278428	0.000201
H147	H	0.223537	1.218746	-0.106575
H148	H	0.701806	0.592232	0.107115
Br149	Br	0.116557	1.618399	-0.474188
Br150	Br	0.220851	1.391758	-0.247607
H151	H	0.223531	1.417901	-0.106557
Br152	Br	0.398767	0.618492	0.248085
Br153	Br	0.116540	1.618477	-0.138509
Br154	Br	0.398763	0.391867	0.474678
Br155	Br	0.392988	0.636232	-0.306519
H156	H	0.152280	1.679555	-0.674114
H157	H	0.532199	1.005018	-0.586909
H158	H	0.500397	0.493151	0.726081
Br159	Br	0.492045	0.703176	0.579060
H160	H	0.344902	1.098379	-0.624274
H161	H	0.562470	0.366990	0.727356
Br162	Br	-0.114073	1.400399	-0.197310
Br163	Br	0.386443	0.837460	-0.316035
Br164	Br	0.244267	1.618442	-0.751812
H165	H	0.321862	1.417867	-0.519330
H166	H	0.342307	1.095495	-0.470761
Br167	Br	0.587815	0.492925	0.564475
H168	H	0.532200	0.266807	0.151391
H169	H	0.241609	0.791441	0.107071
H170	H	0.773057	0.330634	0.674677
Br171	Br	0.681069	0.391732	0.752374
H172	H	0.701785	0.592275	0.306230
Br173	Br	0.317121	0.654335	-0.165266
Br174	Br	0.348590	0.727538	0.138985
Br175	Br	0.576739	0.618406	-0.138540
Br176	Br	0.172159	0.609740	0.197918
Br177	Br	0.348597	1.391737	0.139090
H178	H	0.065180	0.673660	0.165977
H179	H	-0.217925	0.791373	0.107140
H180	H	0.782060	0.417869	0.480626
Br181	Br	-0.423249	1.282587	-0.138445
H182	H	-0.007089	1.336469	-0.165348
Br183	Br	-0.318974	1.282609	-0.138439
Br184	Br	0.116536	1.282671	-0.138538
H185	H	0.012708	0.673652	0.165988
H186	H	0.387828	0.911823	-0.375215
Br187	Br	-0.064866	0.609727	0.197954
H188	H	-0.220087	1.336429	-0.165346
Br189	Br	0.553009	1.005004	-0.386365
Br190	Br	0.576755	0.618357	0.525771
Br191	Br	0.386440	0.854452	-0.516005
H192	H	0.683719	0.417890	-0.106604
H193	H	-0.139828	1.336438	-0.165359
Br194	Br	0.808797	0.391685	0.139038
