data_functionalizedCrystal
_audit_creation_method	'MofGen! by Chris Wilmer'
_symmetry_space_group_name_H-M	'P1'
_symmetry_Int_Tables_number	1
_symmetry_cell_setting	triclinic
loop_
_symmetry_equiv_pos_as_xyz
  x,y,z
_cell_length_a	21.395362
_cell_length_b	19.077068
_cell_length_c	21.395356
_cell_angle_alpha	92.271626
_cell_angle_beta	89.964230
_cell_angle_gamma	92.343691
loop_
_atom_site_label
_atom_site_type_symbol
_atom_site_fract_x
_atom_site_fract_y
_atom_site_fract_z
Zn1	Zn	0.947810	-0.279939	-0.364584
Zn2	Zn	1.281144	0.053394	-0.031251
Zn3	Zn	1.614477	0.386727	0.302082
Zn4	Zn	0.943524	-0.397635	-0.264011
Zn5	Zn	1.276858	-0.064302	0.069323
Zn6	Zn	1.610191	0.269032	0.402656
Zn7	Zn	0.843039	-0.279987	-0.259787
Zn8	Zn	1.176372	0.053347	0.073546
Zn9	Zn	1.509705	0.386680	0.406879
Zn10	Zn	0.838791	-0.397635	-0.368715
Zn11	Zn	1.172124	-0.064302	-0.035382
Zn12	Zn	1.505458	0.269032	0.297951
O13	O	0.893291	-0.338799	-0.314274
O14	O	1.226624	-0.005466	0.019059
O15	O	1.559958	0.327868	0.352392
O16	O	1.034921	-0.295532	-0.351282
O17	O	1.368254	0.037801	-0.017948
O18	O	1.701587	0.371135	0.315385
O19	O	0.930178	-0.382049	-0.175773
O20	O	1.263512	-0.048715	0.157560
O21	O	1.596845	0.284618	0.490893
O22	O	0.860508	-0.181488	-0.270193
O23	O	1.193842	0.151846	0.063141
O24	O	1.527175	0.485179	0.396474
O25	O	1.031771	-0.382003	-0.277391
O26	O	1.365105	-0.048669	0.055943
O27	O	1.698438	0.284664	0.389276
O28	O	0.937484	-0.181453	-0.347186
O29	O	1.270817	0.151880	-0.013853
O30	O	1.604150	0.485214	0.319480
O31	O	0.856352	-0.295613	-0.172670
O32	O	1.189686	0.037721	0.160663
O33	O	1.523019	0.371054	0.493996
O34	O	0.754797	-0.295613	-0.274198
O35	O	1.088130	0.037721	0.059135
O36	O	1.421463	0.371054	0.392468
O37	O	0.853269	-0.382003	-0.455845
O38	O	1.186602	-0.048669	-0.122511
O39	O	1.519935	0.284664	0.210822
O40	O	0.751676	-0.382048	-0.354227
O41	O	1.085009	-0.048715	-0.020894
O42	O	1.418342	0.284618	0.312439
O43	O	0.933365	-0.295532	-0.452810
O44	O	1.266698	0.037801	-0.119476
O45	O	1.600032	0.371135	0.213857
O46	O	0.926060	-0.496128	-0.281396
O47	O	1.259393	-0.162794	0.051937
O48	O	1.592726	0.170539	0.385270
O49	O	0.849113	-0.496128	-0.358323
O50	O	1.182446	-0.162794	-0.024989
O51	O	1.515779	0.170539	0.308344
C52	C	0.730502	-0.338836	-0.314203
C53	C	1.063835	-0.005503	0.019130
C54	C	1.397169	0.327830	0.352464
C55	C	0.660860	-0.338869	-0.314188
C56	C	0.994193	-0.005536	0.019145
C57	C	1.327526	0.327798	0.352479
C58	C	0.626536	-0.383936	-0.355801
C59	C	0.959869	-0.050603	-0.022468
C60	C	1.293202	0.282731	0.310865
C61	C	0.561101	-0.383919	-0.355829
C62	C	0.894434	-0.050585	-0.022495
C63	C	1.227768	0.282748	0.310838
C64	C	0.529992	-0.338842	-0.314232
C65	C	0.863326	-0.005509	0.019102
C66	C	1.196659	0.327825	0.352435
C67	C	0.564324	-0.293766	-0.272615
C68	C	0.897658	0.039567	0.060718
C69	C	1.230991	0.372900	0.394051
C70	C	0.629758	-0.293780	-0.272594
C71	C	0.963091	0.039553	0.060740
C72	C	1.296425	0.372887	0.394073
C73	C	0.426478	-0.333180	-0.257624
C74	C	0.759811	0.000154	0.075709
C75	C	1.093145	0.333487	0.409042
C76	C	0.361045	-0.333171	-0.257645
C77	C	0.694379	0.000162	0.075688
C78	C	1.027712	0.333496	0.409021
C79	C	0.328173	-0.338796	-0.314299
C80	C	0.661507	-0.005463	0.019034
C81	C	0.994840	0.327871	0.352367
C82	C	0.360741	-0.344444	-0.370935
C83	C	0.694075	-0.011111	-0.037601
C84	C	1.027408	0.322222	0.295732
C85	C	0.426175	-0.344458	-0.370913
C86	C	0.759508	-0.011125	-0.037579
C87	C	1.092842	0.322209	0.295754
C88	C	0.459041	-0.338822	-0.314251
C89	C	0.792374	-0.005489	0.019082
C90	C	1.125707	0.327845	0.352416
C91	C	0.222897	-0.383847	-0.355946
C92	C	0.556231	-0.050513	-0.022612
C93	C	0.889564	0.282820	0.310721
C94	C	0.157462	-0.383824	-0.355974
C95	C	0.490795	-0.050491	-0.022640
C96	C	0.824128	0.282842	0.310693
C97	C	0.160686	-0.293676	-0.272755
C98	C	0.494020	0.039658	0.060578
C99	C	0.827353	0.372991	0.393912
C100	C	0.226121	-0.293694	-0.272732
C101	C	0.559454	0.039639	0.060601
C102	C	0.892788	0.372972	0.393934
C103	C	0.257222	-0.338783	-0.314327
C104	C	0.590556	-0.005450	0.019006
C105	C	0.923889	0.327883	0.352340
C106	C	0.886677	-0.521666	-0.320780
C107	C	1.220010	-0.188332	0.012554
C108	C	1.553344	0.145001	0.345887
C109	C	0.883905	-0.599897	-0.323584
C110	C	1.217238	-0.266563	0.009750
C111	C	1.550571	0.066770	0.343083
C112	C	0.922696	-0.636626	-0.284883
C113	C	1.256029	-0.303293	0.048450
C114	C	1.589362	0.030040	0.381784
C115	C	0.920092	-0.710133	-0.287524
C116	C	1.253425	-0.376799	0.045809
C117	C	1.586759	-0.043466	0.379143
C118	C	0.878694	-0.746908	-0.328863
C119	C	1.212027	-0.413575	0.004471
C120	C	1.545361	-0.080241	0.337804
C121	C	0.839901	-0.710173	-0.367568
C122	C	1.173235	-0.376840	-0.034234
C123	C	1.506568	-0.043506	0.299099
C124	C	0.842509	-0.636668	-0.364930
C125	C	1.175842	-0.303335	-0.031596
C126	C	1.509175	0.029999	0.301737
C127	C	0.866600	-0.966747	-0.341047
C128	C	1.199933	-0.633414	-0.007714
C129	C	1.533266	-0.300081	0.325619
C130	C	0.863994	-1.040257	-0.343681
C131	C	1.197327	-0.706924	-0.010348
C132	C	1.530661	-0.373591	0.322985
C133	C	0.944186	-1.040212	-0.263638
C134	C	1.277519	-0.706879	0.069696
C135	C	1.610853	-0.373545	0.403029
C136	C	0.946787	-0.966706	-0.261001
C137	C	1.280120	-0.633372	0.072333
C138	C	1.613453	-0.300039	0.405666
C139	C	0.907997	-0.929977	-0.299708
C140	C	1.241330	-0.596644	0.033625
C141	C	1.574663	-0.263310	0.366959
N142	N	0.876030	-0.822043	-0.331562
N143	N	1.209363	-0.488710	0.001771
N144	N	1.542697	-0.155377	0.335105
N145	N	0.910664	-0.854843	-0.297012
N146	N	1.243997	-0.521510	0.036322
N147	N	1.577331	-0.188176	0.369655
C148	C	1.056716	-0.338762	-0.314347
C149	C	1.390049	-0.005429	0.018987
C150	C	1.723382	0.327905	0.352320
C151	C	1.126358	-0.338746	-0.314377
C152	C	1.459691	-0.005413	0.018956
C153	C	1.793024	0.327920	0.352289
C154	C	0.893321	-0.338762	-0.477697
C155	C	1.226654	-0.005429	-0.144363
C156	C	1.559988	0.327905	0.188970
C157	C	0.893334	-0.338746	-0.547337
C158	C	1.226667	-0.005413	-0.214004
C159	C	1.560001	0.327920	0.119329
C160	C	0.899948	-0.155218	-0.307758
C161	C	1.233281	0.178115	0.025576
C162	C	1.566615	0.511448	0.358909
C163	C	0.902785	-0.076987	-0.304980
C164	C	1.236118	0.256346	0.028353
C165	C	1.569452	0.589679	0.361686
C166	C	0.931851	-0.383606	-1.050745
C167	C	1.265184	-0.050272	-0.717411
C168	C	1.598518	0.283061	-0.384078
C169	C	0.931839	-0.383628	-0.985310
C170	C	1.265172	-0.050295	-0.651977
C171	C	1.598506	0.283039	-0.318643
C172	C	0.893398	-0.338635	-0.950972
C173	C	1.226731	-0.005301	-0.617638
C174	C	1.560064	0.328032	-0.284305
C175	C	0.854954	-0.293628	-0.982074
C176	C	1.188287	0.039705	-0.648741
C177	C	1.521620	0.373039	-0.315407
C178	C	0.854962	-0.293612	-1.047508
C179	C	1.188296	0.039721	-0.714174
C180	C	1.521629	0.373055	-0.380841
C181	C	0.890736	-0.275249	-0.845051
C182	C	1.224069	0.058084	-0.511718
C183	C	1.557403	0.391418	-0.178384
C184	C	0.890732	-0.275264	-0.779618
C185	C	1.224065	0.058069	-0.446285
C186	C	1.557399	0.391403	-0.112952
C187	C	0.893368	-0.338685	-0.749153
C188	C	1.226701	-0.005351	-0.415819
C189	C	1.560034	0.327982	-0.082486
C190	C	0.896021	-0.402092	-0.784128
C191	C	1.229354	-0.068759	-0.450794
C192	C	1.562687	0.264575	-0.117461
C193	C	0.896029	-0.402076	-0.849561
C194	C	1.229362	-0.068743	-0.516228
C195	C	1.562696	0.264591	-0.182895
C196	C	0.893384	-0.338647	-0.880020
C197	C	1.226717	-0.005314	-0.546687
C198	C	1.560051	0.328019	-0.213353
C199	C	0.931793	-0.383716	-0.647107
C200	C	1.265126	-0.050383	-0.313773
C201	C	1.598459	0.282951	0.019560
C202	C	0.931776	-0.383739	-0.581671
C203	C	1.265110	-0.050406	-0.248338
C204	C	1.598443	0.282927	0.084996
C205	C	0.854895	-0.293733	-0.578436
C206	C	1.188228	0.039600	-0.245103
C207	C	1.521561	0.372934	0.088231
C208	C	0.854908	-0.293716	-0.643871
C209	C	1.188241	0.039617	-0.310537
C210	C	1.521574	0.372951	0.022796
C211	C	0.893360	-0.338706	-0.678202
C212	C	1.226693	-0.005373	-0.344869
C213	C	1.560027	0.327960	-0.011535
C214	C	0.893299	-0.338785	-0.151486
C215	C	1.226632	-0.005452	0.181847
C216	C	1.559966	0.327882	0.515180
C217	C	0.893415	-0.338602	-0.081839
C218	C	1.226748	-0.005269	0.251494
C219	C	1.560081	0.328064	0.584828
H220	H	0.452690	-0.349055	-0.417027
H221	H	0.786023	-0.015722	-0.083694
H222	H	1.119356	0.317612	0.249639
H223	H	0.806197	-0.740121	-0.401230
H224	H	1.139530	-0.406788	-0.067896
H225	H	1.472863	-0.073455	0.265437
H226	H	0.951679	-0.740035	-0.256009
H227	H	1.285013	-0.406702	0.077324
H228	H	1.618346	-0.073368	0.410658
F229	F	0.972685	-0.431644	-0.548578
F230	F	1.306018	-0.098311	-0.215245
F231	F	1.639351	0.235023	0.118088
F232	F	0.801224	-0.597578	-0.406122
F233	F	1.134557	-0.264245	-0.072789
F234	F	1.467890	0.069089	0.260545
F235	F	0.966754	-0.597494	-0.240880
F236	F	1.300087	-0.264161	0.092453
F237	F	1.633421	0.069173	0.425787
F238	F	0.898828	-0.469594	-0.751709
F239	F	1.232161	-0.136261	-0.418376
F240	F	1.565494	0.197072	-0.085043
H241	H	0.963101	-0.420351	-0.675061
H242	H	1.296435	-0.087018	-0.341728
H243	H	1.629768	0.246315	-0.008394
F244	F	0.888178	-0.207720	-0.877467
F245	F	1.221511	0.125613	-0.544134
F246	F	1.554845	0.458947	-0.210801
F247	F	0.531216	-0.245790	-0.228347
F248	F	0.864549	0.087543	0.104986
F249	F	1.197882	0.420877	0.438319
H250	H	0.823594	-0.257100	-0.550479
H251	H	1.156927	0.076233	-0.217145
H252	H	1.490260	0.409567	0.116188
H253	H	0.963160	-0.420243	-1.078693
H254	H	1.296493	-0.086909	-0.745360
H255	H	1.629827	0.246424	-0.412027
F256	F	0.659633	-0.431922	-0.400072
F257	F	0.992966	-0.098588	-0.066739
F258	F	1.326299	0.234745	0.266595
F259	F	0.972749	-0.431530	-0.952210
F260	F	1.306082	-0.098196	-0.618877
F261	F	1.639415	0.235137	-0.285543
H262	H	0.453237	-0.328596	-0.211487
H263	H	0.786570	0.004737	0.121847
H264	H	1.119904	0.338070	0.455180
H265	H	0.898188	-0.453705	-0.878035
H266	H	1.231521	-0.120371	-0.544702
H267	H	1.564854	0.212962	-0.211368
F268	F	0.990855	-0.927572	-0.217009
F269	F	1.324189	-0.594238	0.116324
F270	F	1.657522	-0.260905	0.449658
F271	F	0.985469	-1.079306	-0.222449
F272	F	1.318802	-0.745973	0.110885
F273	F	1.652136	-0.412640	0.444218
H274	H	0.823611	-0.257067	-0.669188
H275	H	1.156945	0.076267	-0.335855
H276	H	1.490278	0.409600	-0.002521
H277	H	0.823654	-0.256995	-0.954112
H278	H	1.156987	0.076338	-0.620778
H279	H	1.490321	0.409672	-0.287445
F280	F	0.666289	-0.245811	-0.228301
F281	F	0.999623	0.087522	0.105032
F282	F	1.332956	0.420855	0.438365
F283	F	0.819924	-1.079395	-0.387675
F284	F	1.153257	-0.746062	-0.054342
F285	F	1.486590	-0.412728	0.278991
F286	F	0.524564	-0.431887	-0.400121
F287	F	0.857897	-0.098553	-0.066788
F288	F	1.191230	0.234780	0.266546
H289	H	0.888575	-0.223634	-0.751147
H290	H	1.221909	0.109700	-0.417814
H291	H	1.555242	0.443033	-0.084480
F292	F	0.825315	-0.927667	-0.382243
F293	F	1.158648	-0.594334	-0.048909
F294	F	1.491981	-0.261001	0.284424
F295	F	0.814048	-0.245715	-1.080602
F296	F	1.147381	0.087618	-0.747268
F297	F	1.480715	0.420952	-0.413935
H298	H	0.333979	-0.349023	-0.417068
H299	H	0.667312	-0.015690	-0.083735
H300	H	1.000645	0.317643	0.249599
F301	F	0.256000	-0.431830	-0.400216
F302	F	0.589334	-0.098497	-0.066883
F303	F	0.922667	0.234836	0.266450
H304	H	0.129516	-0.420522	-0.389864
H305	H	0.462849	-0.087188	-0.056531
H306	H	0.796183	0.246145	0.276803
H307	H	0.254068	-0.257000	-0.238843
H308	H	0.587401	0.076334	0.094490
H309	H	0.920734	0.409667	0.427823
F310	F	0.127583	-0.245698	-0.228487
F311	F	0.460916	0.087636	0.104846
F312	F	0.794249	0.420969	0.438179
H313	H	0.334533	-0.328576	-0.211529
H314	H	0.667866	0.004757	0.121804
H315	H	1.001200	0.338090	0.455137
