data_functionalizedCrystal
_audit_creation_method	'MofGen! by Chris Wilmer'
_symmetry_space_group_name_H-M	'P1'
_symmetry_Int_Tables_number	1
_symmetry_cell_setting	triclinic
loop_
_symmetry_equiv_pos_as_xyz
  x,y,z
_cell_length_a	14.853569
_cell_length_b	10.654550
_cell_length_c	9.130313
_cell_angle_alpha	90.003780
_cell_angle_beta	89.997576
_cell_angle_gamma	95.939766
loop_
_atom_site_label
_atom_site_type_symbol
_atom_site_fract_x
_atom_site_fract_y
_atom_site_fract_z
O1	O	0.126622	-1.666520	-0.121924
O2	O	0.138686	-1.300916	-0.121901
O3	O	0.001476	-1.493483	-0.121899
O4	O	0.263831	-1.473953	-0.121926
O5	O	0.001480	-1.493480	0.121700
O6	O	0.138690	-1.300913	0.121698
O7	O	0.126626	-1.666517	0.121675
Cu8	Cu	0.132658	-1.483715	0.143929
Cu9	Cu	0.132654	-1.483718	-0.144155
O10	O	0.263835	-1.473951	0.121673
C11	C	0.137802	-1.254126	-0.000098
C12	C	0.135152	-1.114710	-0.000089
C13	C	-0.032115	-1.492596	-0.000099
C14	C	-0.132213	-1.489943	-0.000098
C15	C	0.127509	-1.713307	-0.000131
C16	C	0.130160	-1.852723	-0.000150
C17	C	-0.169209	-1.374310	-0.000088
C18	C	-0.189273	-1.603084	-0.000118
C19	C	-0.283321	-1.600596	-0.000124
C20	C	-0.320316	-1.484963	-0.000114
C21	C	-0.263264	-1.371818	-0.000098
C22	C	-0.340379	-1.713739	-0.000155
C23	C	-0.434433	-1.711255	-0.000163
C24	C	-0.471430	-1.595620	-0.000142
C25	C	-0.414372	-1.482470	-0.000125
C26	C	-0.451368	-1.366837	-0.000115
C27	C	-0.394311	-1.253686	-0.000087
C28	C	-0.300262	-1.256183	-0.000078
C29	C	-0.565480	-1.593123	-0.000151
C30	C	-0.545424	-1.364345	-0.000125
C31	C	0.297427	-1.474837	-0.000130
C32	C	0.397524	-1.477490	-0.000141
N33	N	0.132660	-1.483722	0.346551
C34	C	0.215938	-1.034386	-0.000119
C35	C	0.213443	-0.903391	-0.000144
C36	C	0.049367	-0.933058	-0.000116
C37	C	0.051863	-1.064050	-0.000080
C38	C	0.299227	-1.085046	-0.000128
C39	C	0.380020	-1.004720	-0.000159
C40	C	0.377525	-0.873725	-0.000184
C41	C	0.294236	-0.823056	-0.000178
N42	N	0.132644	-1.483721	-0.346778
C43	C	0.071925	-1.569013	0.423204
C44	C	0.071914	-1.569009	0.576541
C45	C	0.193382	-1.398421	0.576559
C46	C	0.193388	-1.398420	0.423225
C47	C	0.011197	-1.654315	0.346531
C48	C	-0.049542	-1.739613	0.423184
C49	C	-0.049553	-1.739610	0.576521
C50	C	0.011176	-1.654309	0.653205
H51	H	-0.424445	-1.159537	-0.000088
C52	C	-0.041146	-0.878291	-0.000054
C53	C	-0.111364	-0.976675	0.000015
C54	C	-0.194758	-0.926275	0.000084
H55	H	-0.045657	-0.827850	-0.084995
H56	H	-0.045579	-0.827819	0.084913
H57	H	-0.106934	-1.027126	-0.084943
H58	H	-0.106883	-1.027124	0.084950
H59	H	-0.199190	-0.875803	0.085051
H60	H	-0.199259	-0.875835	-0.084858
H61	H	-0.242410	-0.993020	0.000145
C62	C	-0.300258	-1.839309	-0.000484
C63	C	-0.329151	-1.907685	-0.125851
C64	C	-0.292194	-2.023361	-0.126217
H65	H	-0.319770	-1.886070	0.084349
H66	H	-0.236070	-1.824630	-0.000550
H67	H	-0.393325	-1.922367	-0.125772
H68	H	-0.309641	-1.860962	-0.210705
H69	H	-0.228006	-2.008682	-0.126283
H70	H	-0.311708	-2.070110	-0.041379
H71	H	-0.311785	-2.069763	-0.211284
H72	H	0.443311	-0.808327	-0.000195
H73	H	-0.253798	-1.164062	-0.000059
C74	C	0.470470	-1.059657	0.000140
C75	C	0.519351	-1.018848	0.125471
C76	C	0.602674	-1.069441	0.125807
H77	H	0.503875	-1.032147	-0.084718
H78	H	0.460425	-1.149181	0.000236
H79	H	0.529399	-0.929343	0.125362
H80	H	0.485974	-1.046356	0.210350
H81	H	0.592629	-1.158964	0.125903
H82	H	0.636070	-1.041927	0.040944
H83	H	0.635846	-1.041768	0.210849
C84	C	-0.115640	-1.832073	0.340046
C85	C	-0.204361	-1.811513	0.377347
C86	C	-0.265285	-1.896652	0.300793
H87	H	-0.105417	-1.915953	0.365121
H88	H	-0.107016	-1.819876	0.237726
H89	H	-0.212982	-1.823720	0.479643
H90	H	-0.214613	-1.727650	0.352267
H91	H	-0.256661	-1.884455	0.198473
H92	H	-0.255053	-1.980526	0.325875
H93	H	-0.325489	-1.882706	0.326081
H94	H	0.011156	-1.654305	0.778062
C95	C	0.259211	-1.305619	0.659737
C96	C	0.243750	-1.182193	0.622483
C97	C	0.304368	-1.096671	0.699090
H98	H	0.319513	-1.319183	0.634674
H99	H	0.250503	-1.317754	0.762049
H100	H	0.252466	-1.170063	0.520193
H101	H	0.183461	-1.168588	0.647549
H102	H	0.295661	-1.108806	0.801402
H103	H	0.364666	-1.110247	0.674021
H104	H	0.293881	-1.012918	0.673835
H105	H	0.011202	-1.654328	0.221676
C106	C	0.259477	-1.305969	0.340064
C107	C	0.348208	-1.326499	0.377326
C108	C	0.409110	-1.241365	0.300731
H109	H	0.249247	-1.222088	0.365133
H110	H	0.250839	-1.318193	0.237750
H111	H	0.356842	-1.314265	0.479617
H112	H	0.358466	-1.410364	0.352254
H113	H	0.400473	-1.253588	0.198418
H114	H	0.398872	-1.157489	0.325806
H115	H	0.469321	-1.255290	0.325992
H116	H	-0.575538	-1.270181	-0.000104
H117	H	-0.122749	-1.282185	-0.000059
H118	H	-0.099016	-1.809054	0.638930
H119	H	-0.159145	-1.697228	-0.000097
H120	H	-0.480881	-1.803389	-0.000183
H121	H	-0.611931	-1.685249	-0.000189
H122	H	0.301268	-1.191707	-0.000114
H123	H	-0.013920	-1.129453	-0.000060
H124	H	0.292210	-0.716390	-0.000175
