data_functionalizedCrystal
_audit_creation_method	'MofGen! by Chris Wilmer'
_symmetry_space_group_name_H-M	'P1'
_symmetry_Int_Tables_number	1
_symmetry_cell_setting	triclinic
loop_
_symmetry_equiv_pos_as_xyz
  x,y,z
_cell_length_a	19.288862
_cell_length_b	15.186229
_cell_length_c	19.288865
_cell_angle_alpha	89.991032
_cell_angle_beta	83.135763
_cell_angle_gamma	89.979995
loop_
_atom_site_label
_atom_site_type_symbol
_atom_site_fract_x
_atom_site_fract_y
_atom_site_fract_z
O1	O	-0.921348	0.073578	-0.086639
O2	O	-0.421348	0.573578	0.413361
O3	O	-0.719087	0.073507	-0.098329
O4	O	-0.219087	0.573507	0.401671
O5	O	-0.826062	0.073527	0.008646
O6	O	-0.326062	0.573527	0.508646
O7	O	-0.814373	0.073558	-0.193615
O8	O	-0.314373	0.573558	0.306385
O9	O	-0.826055	-0.072930	0.008648
O10	O	-0.326055	0.427070	0.508648
O11	O	-0.719080	-0.072950	-0.098328
O12	O	-0.219080	0.427050	0.401672
O13	O	-0.921341	-0.072879	-0.086637
O14	O	-0.421341	0.427121	0.413363
Zn15	Zn	-0.820210	-0.096168	-0.092482
Zn16	Zn	-0.320210	0.403832	0.407518
Zn17	Zn	-0.820219	0.096796	-0.092484
Zn18	Zn	-0.320219	0.596796	0.407516
O19	O	-0.814366	-0.072899	-0.193613
O20	O	-0.314366	0.427101	0.306387
C21	C	-0.693207	0.000269	-0.097953
C22	C	-0.193207	0.500269	0.402047
C23	C	-0.616104	0.000241	-0.096824
C24	C	-0.116104	0.500241	0.403176
N25	N	-0.820208	-0.227861	-0.092481
N26	N	-0.320208	0.272139	0.407519
C27	C	-0.571407	0.000262	-0.159593
C28	C	-0.071407	0.500262	0.340407
C29	C	-0.498960	0.000267	-0.158533
C30	C	0.001040	0.500267	0.341467
C31	C	-0.471213	0.000269	-0.094701
C32	C	0.028787	0.500269	0.405299
C33	C	-0.515919	0.000243	-0.031924
C34	C	-0.015919	0.500243	0.468076
C35	C	-0.588364	0.000229	-0.032986
C36	C	-0.088364	0.500229	0.467014
C37	C	-0.362953	0.051594	-0.044523
C38	C	0.137047	0.551594	0.455477
C39	C	-0.290508	0.051613	-0.043464
C40	C	0.209492	0.551613	0.456536
C41	C	-0.247767	0.000307	-0.091423
C42	C	0.252233	0.500307	0.408577
C43	C	-0.277477	-0.051006	-0.140453
C44	C	0.222523	0.448994	0.359547
C45	C	-0.349923	-0.051020	-0.141515
C46	C	0.150077	0.448980	0.358485
C47	C	-0.392659	0.000283	-0.093542
C48	C	0.107341	0.500283	0.406458
C49	C	-0.124514	0.000333	-0.153046
C50	C	0.375486	0.500333	0.346954
C51	C	-0.052066	0.000332	-0.151983
C52	C	0.447934	0.500332	0.348017
C53	C	-0.069026	0.000317	-0.025373
C54	C	0.430974	0.500317	0.474627
C55	C	-0.141473	0.000309	-0.026438
C56	C	0.358527	0.500309	0.473562
C57	C	-0.169212	0.000321	-0.090276
C58	C	0.330788	0.500321	0.409724
C59	C	-0.867593	-0.453574	-0.045128
C60	C	-0.367593	0.046426	0.454872
C61	C	-0.867595	-0.545764	-0.045126
C62	C	-0.367595	-0.045764	0.454874
C63	C	-0.772836	-0.545791	-0.139836
C64	C	-0.272836	-0.045791	0.360164
C65	C	-0.772831	-0.453603	-0.139834
C66	C	-0.272831	0.046397	0.360166
C67	C	-0.820213	-0.407497	-0.092480
C68	C	-0.320213	0.092503	0.407520
C69	C	-0.820221	-0.591875	-0.092481
C70	C	-0.320221	-0.091875	0.407519
C71	C	-0.820223	-0.691831	-0.092480
C72	C	-0.320223	-0.191831	0.407520
C73	C	-0.820211	-0.307535	-0.092481
C74	C	-0.320211	0.192465	0.407519
C75	C	0.052779	0.000345	-0.087016
C76	C	0.552779	0.500345	0.412984
C77	C	-0.024324	0.000333	-0.088151
C78	C	0.475676	0.500333	0.411849
C79	C	-0.825683	0.000296	0.034523
C80	C	-0.325683	0.500296	0.534523
C81	C	-0.824554	0.000288	0.111627
C82	C	-0.324554	0.500288	0.611627
N83	N	-0.820226	0.228488	-0.092481
N84	N	-0.320226	0.728488	0.407519
C85	C	-0.814746	0.000334	-0.219490
C86	C	-0.314746	0.500334	0.280510
C87	C	-0.815875	0.000348	-0.296594
C88	C	-0.315875	0.500348	0.203406
C89	C	-0.887322	0.000306	0.156324
C90	C	-0.387322	0.500306	0.656324
C91	C	-0.886261	0.000319	0.228771
C92	C	-0.386261	0.500319	0.728771
C93	C	-0.822429	0.000297	0.256518
C94	C	-0.322429	0.500297	0.756518
C95	C	-0.759652	0.000284	0.211811
C96	C	-0.259652	0.500284	0.711811
C97	C	-0.760715	0.000279	0.139366
C98	C	-0.260715	0.500279	0.639366
C99	C	-0.772247	-0.051021	0.364805
C100	C	-0.272247	0.448979	0.864805
C101	C	-0.771187	-0.051022	0.437250
C102	C	-0.271187	0.448978	0.937250
C103	C	-0.819149	0.000316	0.479963
C104	C	-0.319149	0.500316	0.979963
C105	C	-0.868183	0.051643	0.450225
C106	C	-0.368183	0.551643	0.950225
C107	C	-0.869245	0.051638	0.377780
C108	C	-0.369245	0.551638	0.877780
C109	C	-0.821269	0.000303	0.335072
C110	C	-0.321269	0.500303	0.835072
C111	C	-0.880771	0.000349	0.603216
C112	C	-0.380771	0.500349	1.103216
C113	C	-0.879708	0.000368	0.675664
C114	C	-0.379708	0.500368	1.175664
C115	C	-0.753098	0.000325	0.658703
C116	C	-0.253098	0.500325	1.158703
C117	C	-0.754163	0.000315	0.586257
C118	C	-0.254163	0.500315	1.086257
C119	C	-0.818001	0.000323	0.558518
C120	C	-0.318001	0.500323	1.058518
H121	H	-0.593988	0.000273	-0.211575
H122	H	-0.093988	0.500273	0.288425
N123	N	-0.409048	0.106939	0.007207
N124	N	0.090952	0.606939	0.507207
H125	H	-0.459450	0.099143	-0.000903
H126	H	0.040550	0.599143	0.499097
H127	H	-0.402919	0.087753	0.056240
H128	H	0.097081	0.587753	0.556240
N129	N	-0.690804	0.000265	0.241733
N130	N	-0.190804	0.500265	0.741733
H131	H	-0.699655	0.000268	0.294410
H132	H	-0.199655	0.500268	0.794410
H133	H	-0.663342	-0.054037	0.225374
H134	H	-0.163342	0.445963	0.725374
N135	N	-0.919920	0.107015	0.496286
N136	N	-0.419920	0.607015	0.996286
H137	H	-0.951143	0.139525	0.466455
H138	H	-0.451143	0.639525	0.966455
H139	H	-0.949257	0.067665	0.530339
H140	H	-0.449257	0.567665	1.030339
H141	H	-0.242678	-0.092785	-0.179506
H142	H	0.257322	0.407215	0.320494
N143	N	-0.721744	-0.595523	-0.190916
N144	N	-0.221744	-0.095523	0.309084
H145	H	-0.691728	-0.552342	-0.220913
H146	H	-0.191728	-0.052342	0.279087
H147	H	-0.691124	-0.633799	-0.164407
H148	H	-0.191124	-0.133799	0.335593
N149	N	-0.721730	-0.403901	-0.190915
N150	N	-0.221730	0.096099	0.309085
H151	H	-0.728917	-0.338505	-0.183725
H152	H	-0.228917	0.161495	0.316275
H153	H	-0.672484	-0.420042	-0.183019
H154	H	-0.172484	0.079958	0.316981
N155	N	-0.003854	0.000284	-0.219687
N156	N	0.496146	0.500284	0.280313
H157	H	-0.032423	0.000271	-0.260286
H158	H	0.467577	0.500271	0.239714
H159	H	0.026580	0.054561	-0.222035
H160	H	0.526580	0.554561	0.277965
H161	H	-0.930823	0.000388	0.712056
H162	H	-0.430823	0.500388	1.212056
H163	H	-0.939304	0.000315	0.133744
H164	H	-0.439304	0.500315	0.633744
H165	H	-0.733188	-0.092832	0.330033
H166	H	-0.233188	0.407168	0.830033
N167	N	-0.718298	-0.106372	0.469319
N168	N	-0.218298	0.393628	0.969319
H169	H	-0.724903	-0.098584	0.521694
H170	H	-0.224903	0.401416	1.021694
H171	H	-0.724966	-0.170373	0.457534
H172	H	-0.224966	0.329627	0.957534
H173	H	-0.932752	0.000360	0.580630
H174	H	-0.432752	0.500360	1.080630
N175	N	-0.686461	0.000275	0.538045
N176	N	-0.186461	0.500275	1.038045
H177	H	-0.696820	0.000274	0.487941
H178	H	-0.196820	0.500274	0.987941
H179	H	-0.658632	0.054559	0.546994
H180	H	-0.158632	0.554559	1.046994
N181	N	-0.039105	0.000311	0.043473
N182	N	0.460895	0.500311	0.543473
H183	H	-0.009445	0.054606	0.046737
H184	H	0.490555	0.554606	0.546737
H185	H	-0.078454	0.000265	0.083038
H186	H	0.421546	0.500265	0.583038
N187	N	-0.684248	0.000311	0.688619
N188	N	-0.184248	0.500311	1.188619
H189	H	-0.693098	0.000320	0.741296
H190	H	-0.193098	0.500320	1.241296
H191	H	-0.656786	-0.053992	0.672263
H192	H	-0.156786	0.446008	1.172263
H193	H	-0.937376	0.000337	0.265170
H194	H	-0.437376	0.500337	0.765170
N195	N	-0.922122	0.106999	0.345702
N196	N	-0.422122	0.606999	0.845702
H197	H	-0.952392	0.067702	0.319648
H198	H	-0.452392	0.567702	0.819648
H199	H	-0.952300	0.139516	0.383787
H200	H	-0.452300	0.639516	0.883787
N201	N	-0.693016	0.000254	0.091146
N202	N	-0.193016	0.500254	0.591146
H203	H	-0.665157	0.054537	0.100033
H204	H	-0.165157	0.554537	0.600033
H205	H	-0.665208	-0.054082	0.100078
H206	H	-0.165208	0.445918	0.600078
N207	N	-0.450740	0.000291	-0.226235
N208	N	0.049260	0.500291	0.273765
H209	H	-0.479306	0.000296	-0.266836
H210	H	0.020694	0.500296	0.233164
H211	H	-0.420337	0.054593	-0.228544
H212	H	0.079663	0.554593	0.271456
H213	H	-0.374110	-0.092805	-0.181435
H214	H	0.125890	0.407195	0.318565
H215	H	-0.147101	0.000329	-0.205027
H216	H	0.352899	0.500329	0.294973
H217	H	-0.266324	0.093400	-0.003543
H218	H	0.233676	0.593400	0.496457
N219	N	-0.189687	0.000286	0.041263
N220	N	0.310313	0.500286	0.541263
H221	H	-0.161118	0.000287	0.081862
H222	H	0.338882	0.500287	0.581862
H223	H	-0.220138	0.054572	0.043581
H224	H	0.279862	0.554572	0.543581
N225	N	-0.918694	-0.403844	0.005944
N226	N	-0.418694	0.096156	0.505944
H227	H	-0.948708	-0.447026	0.035943
H228	H	-0.448708	0.052974	0.535943
H229	H	-0.892198	-0.365615	0.036584
H230	H	-0.392198	0.134385	0.536584
H231	H	-0.624757	0.000212	0.018129
H232	H	-0.124757	0.500212	0.518129
N233	N	-0.485996	0.000234	0.036924
N234	N	0.014004	0.500234	0.536924
H235	H	-0.433320	0.000247	0.028073
H236	H	0.066680	0.500247	0.528073
H237	H	-0.502384	0.054518	0.064386
H238	H	-0.002384	0.554518	0.564386
H239	H	-0.906175	-0.583278	-0.006567
H240	H	-0.406175	-0.083278	0.493433
