data_functionalizedCrystal
_audit_creation_method	'MofGen! by Chris Wilmer'
_symmetry_space_group_name_H-M	'P1'
_symmetry_Int_Tables_number	1
_symmetry_cell_setting	triclinic
loop_
_symmetry_equiv_pos_as_xyz
  x,y,z
_cell_length_a	10.654550
_cell_length_b	8.559649
_cell_length_c	9.130313
_cell_angle_alpha	89.999141
_cell_angle_beta	90.003780
_cell_angle_gamma	77.131784
loop_
_atom_site_label
_atom_site_type_symbol
_atom_site_fract_x
_atom_site_fract_y
_atom_site_fract_z
O1	O	1.644677	0.224178	0.121910
O2	O	1.276992	0.245536	0.121886
O3	O	1.493228	0.002614	0.121899
O4	O	1.428441	0.467100	0.121898
O5	O	1.493225	0.002621	-0.121700
O6	O	1.276989	0.245543	-0.121713
O7	O	1.644674	0.224184	-0.121688
Cu8	Cu	1.460831	0.234864	-0.143943
Cu9	Cu	1.460835	0.234856	0.144141
O10	O	1.428438	0.467107	-0.121701
C11	C	1.230355	0.243972	0.000084
C12	C	1.091396	0.239279	0.000075
C13	C	1.498136	-0.056858	0.000103
C14	C	1.512750	-0.234076	0.000112
C15	C	0.997136	0.382308	0.000096
C16	C	0.866571	0.377890	0.000121
C17	C	0.924542	0.087401	0.000111
C18	C	1.055103	0.091821	0.000075
C19	C	0.963666	0.550020	0.000108
C20	C	0.833101	0.545601	0.000133
C21	C	1.691311	0.225749	0.000117
C22	C	1.830270	0.230441	0.000136
C23	C	1.423530	0.526579	0.000098
C24	C	1.408916	0.703797	0.000099
N25	N	1.460838	0.234869	-0.346566
C26	C	1.556605	0.127340	-0.423212
C27	C	1.556604	0.127320	-0.576549
C28	C	1.365062	0.342374	-0.576580
C29	C	1.365060	0.342384	-0.423245
C30	C	1.667194	0.003185	-0.423195
C31	C	1.667192	0.003166	-0.576532
N32	N	1.460839	0.234839	0.346763
H33	H	1.131848	-0.024647	0.000037
N34	N	0.769182	0.629279	0.135189
H35	H	0.732021	0.551506	0.195452
H36	H	0.697924	0.722595	0.105047
N37	N	1.782653	0.054666	-0.360167
H38	H	1.782809	0.166860	-0.394303
H39	H	1.864009	-0.021263	-0.394302
N40	N	1.276344	-0.187086	0.000069
H41	H	1.284344	-0.071708	0.000071
H42	H	1.227992	-0.208350	0.090363
N43	N	1.645331	-0.343196	0.000119
H44	H	1.693738	-0.322051	-0.090178
H45	H	1.637231	-0.458531	0.000165
H46	H	0.782193	0.596289	-0.105035
H47	H	1.287069	0.429928	-0.360841
H48	H	0.993806	0.603419	0.105280
N49	N	1.261760	0.458327	-0.659284
H50	H	1.276289	0.442003	-0.768052
H51	H	1.265318	0.571738	-0.632496
H52	H	1.658424	-0.119498	-0.381577
N53	N	1.642680	-0.150413	-0.639535
H54	H	1.630834	-0.224605	-0.557197
H55	H	1.718473	-0.203826	-0.701805
H56	H	1.760879	0.030513	-0.618142
N57	N	0.993555	0.636918	-0.134922
H58	H	0.912723	0.672499	-0.195161
H59	H	1.061083	0.562632	-0.195087
H60	H	0.894975	-0.032654	0.000133
