data_functionalizedCrystal
_audit_creation_method	'MofGen! by Chris Wilmer'
_symmetry_space_group_name_H-M	'P1'
_symmetry_Int_Tables_number	1
_symmetry_cell_setting	triclinic
loop_
_symmetry_equiv_pos_as_xyz
  x,y,z
_cell_length_a	19.805407
_cell_length_b	25.639239
_cell_length_c	19.805399
_cell_angle_alpha	89.971274
_cell_angle_beta	89.975799
_cell_angle_gamma	90.037933
loop_
_atom_site_label
_atom_site_type_symbol
_atom_site_fract_x
_atom_site_fract_y
_atom_site_fract_z
Zn1	Zn	1.034678	-0.208173	-0.382798
Zn2	Zn	1.534678	0.291827	0.117202
Zn3	Zn	1.034569	-0.295607	-0.269607
Zn4	Zn	1.534569	0.204393	0.230393
Zn5	Zn	0.921493	-0.208187	-0.269613
Zn6	Zn	1.421493	0.291813	0.230387
Zn7	Zn	0.921432	-0.295578	-0.382745
Zn8	Zn	1.421432	0.204422	0.117255
O9	O	0.978043	-0.251886	-0.326191
O10	O	1.478043	0.248114	0.173809
O11	O	1.129380	-0.219778	-0.367802
O12	O	1.629380	0.280222	0.132198
O13	O	1.019548	-0.284029	-0.174891
O14	O	1.519548	0.215971	0.325109
O15	O	0.936578	-0.135020	-0.284652
O16	O	1.436578	0.364980	0.215348
O17	O	1.129300	-0.284016	-0.284642
O18	O	1.629300	0.215984	0.215358
O19	O	1.019735	-0.135010	-0.367808
O20	O	1.519735	0.364990	0.132192
O21	O	0.936472	-0.219801	-0.174896
O22	O	1.436472	0.280199	0.325104
O23	O	0.826768	-0.219773	-0.284601
O24	O	1.326768	0.280227	0.215399
O25	O	0.936475	-0.283966	-0.477469
O26	O	1.436475	0.216034	0.022531
O27	O	0.826723	-0.283979	-0.367718
O28	O	1.326723	0.216021	0.132282
O29	O	1.019676	-0.219750	-0.477507
O30	O	1.519676	0.280250	0.022493
O31	O	1.019490	-0.368769	-0.284591
O32	O	1.519490	0.131231	0.215409
O33	O	0.936368	-0.368748	-0.367712
O34	O	1.436368	0.131252	0.132288
C35	C	0.802187	-0.251875	-0.326155
C36	C	1.302187	0.248125	0.173845
C37	C	0.726955	-0.251882	-0.326155
C38	C	1.226955	0.248118	0.173845
C39	C	0.977929	-0.387729	-0.326160
C40	C	1.477929	0.112271	0.173840
C41	C	0.977942	-0.445843	-0.326169
C42	C	1.477942	0.054157	0.173831
C43	C	0.265158	-0.285382	-0.369445
C44	C	0.765158	0.214618	0.130555
C45	C	0.335847	-0.285381	-0.369431
C46	C	0.835847	0.214619	0.130569
C47	C	0.371193	-0.251899	-0.326217
C48	C	0.871193	0.248101	0.173783
C49	C	0.335847	-0.218420	-0.283010
C50	C	0.835847	0.281580	0.216990
C51	C	0.265160	-0.218424	-0.283022
C52	C	0.765160	0.281576	0.216978
C53	C	0.620921	-0.218404	-0.282963
C54	C	1.120921	0.281596	0.217037
C55	C	0.691613	-0.218402	-0.282956
C56	C	1.191613	0.281598	0.217044
C57	C	0.691607	-0.285361	-0.369372
C58	C	1.191607	0.214639	0.130628
C59	C	0.620920	-0.285365	-0.369383
C60	C	1.120920	0.214635	0.130617
C61	C	0.585580	-0.251888	-0.326174
C62	C	1.085580	0.248112	0.173826
C63	C	0.508932	-0.251890	-0.326189
C64	C	1.008932	0.248110	0.173811
C65	C	0.447840	-0.251894	-0.326205
C66	C	0.947840	0.248106	0.173795
C67	C	1.021437	-0.806205	-0.282983
C68	C	1.521437	-0.306205	0.217017
C69	C	1.021463	-0.860809	-0.282992
C70	C	1.521463	-0.360809	0.217008
O71	O	1.058326	-0.889044	-0.246240
O72	O	1.558326	-0.389044	0.253760
N73	N	0.978162	-0.888126	-0.326236
N74	N	1.478162	-0.388126	0.173764
C75	C	0.934836	-0.860835	-0.369478
C76	C	1.434836	-0.360835	0.130522
O77	O	0.898008	-0.889084	-0.406261
O78	O	1.398008	-0.389084	0.093739
C79	C	0.934814	-0.806232	-0.369472
C80	C	1.434814	-0.306232	0.130528
C81	C	0.978113	-0.778918	-0.326220
C82	C	1.478113	-0.278918	0.173780
C83	C	1.064733	-0.778891	-0.239736
C84	C	1.564733	-0.278891	0.260264
C85	C	1.064706	-0.724290	-0.239726
C86	C	1.564706	-0.224290	0.260274
C87	C	1.021382	-0.697004	-0.282964
C88	C	1.521382	-0.197004	0.217036
C89	C	0.978086	-0.724317	-0.326211
C90	C	1.478086	-0.224317	0.173789
C91	C	0.891492	-0.778942	-0.412717
C92	C	1.391492	-0.278942	0.087283
C93	C	0.891474	-0.724335	-0.412707
C94	C	1.391474	-0.224335	0.087293
C95	C	0.934773	-0.697021	-0.369456
C96	C	1.434773	-0.197021	0.130544
C97	C	0.934735	-0.642430	-0.369438
C98	C	1.434735	-0.142430	0.130562
N99	N	0.978036	-0.615114	-0.326195
N100	N	1.478036	-0.115114	0.173805
C101	C	1.021360	-0.642400	-0.282957
C102	C	1.521360	-0.142400	0.217043
C103	C	0.934887	-0.975506	-0.369488
C104	C	1.434887	-0.475506	0.130512
C105	C	0.934906	-1.030108	-0.369491
C106	C	1.434906	-0.530108	0.130509
C107	C	1.021534	-1.030078	-0.283007
C108	C	1.521534	-0.530078	0.216993
C109	C	1.021511	-0.975475	-0.283000
C110	C	1.521511	-0.475475	0.217000
C111	C	0.978189	-0.948189	-0.326245
C112	C	1.478189	-0.448189	0.173755
C113	C	1.021299	-0.527735	-0.282940
C114	C	1.521299	-0.027735	0.217060
C115	C	1.021266	-0.473130	-0.282932
C116	C	1.521266	0.026870	0.217068
C117	C	0.934641	-0.473164	-0.369419
C118	C	1.434641	0.026836	0.130581
C119	C	0.934671	-0.527765	-0.369425
C120	C	1.434671	-0.027765	0.130575
C121	C	0.978006	-0.555049	-0.326183
C122	C	1.478006	-0.055049	0.173817
O123	O	0.897893	-0.614160	-0.406174
O124	O	1.397893	-0.114160	0.093826
O125	O	1.058188	-0.614145	-0.246187
O126	O	1.558188	-0.114145	0.253813
C127	C	1.154585	-0.251899	-0.326227
C128	C	1.654585	0.248101	0.173773
C129	C	1.229817	-0.251904	-0.326243
C130	C	1.729817	0.248096	0.173757
C131	C	0.978081	-0.251854	-0.502734
C132	C	1.478081	0.248146	-0.002734
C133	C	0.978097	-0.251840	-0.577966
C134	C	1.478097	0.248160	-0.077966
C135	C	0.978175	-0.115513	-0.326237
C136	C	1.478175	0.384487	0.173763
C137	C	0.978232	-0.057399	-0.326256
C138	C	1.478232	0.442601	0.173744
C139	C	1.021421	-0.218401	-0.613331
C140	C	1.521421	0.281599	-0.113331
C141	C	1.021428	-0.218385	-0.684020
C142	C	1.521428	0.281615	-0.184020
C143	C	0.978114	-0.251812	-0.719341
C144	C	1.478114	0.248188	-0.219341
C145	C	0.934785	-0.285253	-0.683971
C146	C	1.434785	0.214747	-0.183971
C147	C	0.934775	-0.285265	-0.613284
C148	C	1.434775	0.214735	-0.113284
C149	C	0.934823	-0.285204	-0.969044
C150	C	1.434823	0.214796	-0.469044
C151	C	0.934838	-0.285190	-1.039736
C152	C	1.434838	0.214810	-0.539736
C153	C	1.021476	-0.218324	-1.039780
C154	C	1.521476	0.281676	-0.539780
C155	C	1.021466	-0.218337	-0.969093
C156	C	1.521466	0.281663	-0.469093
C157	C	0.978135	-0.251775	-0.933729
C158	C	1.478135	0.248225	-0.433729
C159	C	0.978127	-0.251790	-0.857080
C160	C	1.478127	0.248210	-0.357080
C161	C	0.978125	-0.251800	-0.795988
C162	C	1.478125	0.248200	-0.295988
C163	C	0.978044	-0.251882	-0.150335
C164	C	1.478044	0.248118	0.349665
C165	C	0.978159	-0.251748	-0.075103
C166	C	1.478159	0.248252	0.424897
H167	H	0.364618	-0.312643	-0.404609
H168	H	0.864618	0.187357	0.095391
N169	N	1.065699	-0.184189	-0.933003
N170	N	1.565699	0.315811	-0.433003
N171	N	1.065680	-0.184203	-0.869890
N172	N	1.565680	0.315797	-0.369890
H173	H	1.096917	-0.160084	-0.844401
H174	H	1.596917	0.339916	-0.344401
H175	H	1.099966	-0.702055	-0.204509
H176	H	1.599966	-0.202055	0.295491
H177	H	0.720389	-0.312621	-0.404553
H178	H	1.220389	0.187379	0.095447
H179	H	1.056756	-0.191096	-1.068582
H180	H	1.556756	0.308904	-0.568582
N181	N	0.847255	-0.806832	-0.456892
N182	N	1.347255	-0.306832	0.043108
N183	N	0.784800	-0.800778	-0.452343
N184	N	1.284800	-0.300778	0.047657
H185	H	0.753555	-0.820475	-0.483545
H186	H	1.253555	-0.320475	0.016455
N187	N	0.890381	-0.445296	-0.413585
N188	N	1.390381	0.054704	0.086415
N189	N	0.827929	-0.451442	-0.409041
N190	N	1.327929	0.048558	0.090959
H191	H	0.796672	-0.431760	-0.440237
H192	H	1.296672	0.068240	0.059763
N193	N	0.890584	-0.319338	-1.075808
N194	N	1.390584	0.180662	-0.575808
N195	N	0.851897	-0.349189	-1.044225
N196	N	1.351897	0.150811	-0.544225
H197	H	0.820643	-0.373305	-1.069700
H198	H	1.320643	0.126695	-0.569700
H199	H	0.856196	-0.702122	-0.447924
H200	H	1.356196	-0.202122	0.052076
N201	N	0.727731	-0.184202	-0.238817
N202	N	1.227731	0.315798	0.261183
N203	N	0.767215	-0.150907	-0.262704
N204	N	1.267215	0.349093	0.237296
H205	H	0.792725	-0.126754	-0.231535
H206	H	1.292725	0.373246	0.268465
N207	N	1.065502	-0.445228	-0.238757
N208	N	1.565502	0.054772	0.261243
N209	N	1.108605	-0.414710	-0.262605
N210	N	1.608605	0.085290	0.237395
H211	H	1.139844	-0.395004	-0.231407
H212	H	1.639844	0.104996	0.268593
N213	N	0.890634	-0.947629	-0.413660
N214	N	1.390634	-0.447629	0.086340
N215	N	0.914405	-0.917123	-0.456815
N216	N	1.414405	-0.417123	0.043185
H217	H	0.883153	-0.897437	-0.488013
H218	H	1.383153	-0.397437	0.011987
H219	H	0.592144	-0.312627	-0.404575
H220	H	1.092144	0.187373	0.095425
N221	N	0.890574	-0.319364	-0.932922
N222	N	1.390574	0.180636	-0.432922
N223	N	0.914345	-0.352690	-0.893469
N224	N	1.414345	0.147310	-0.393469
H225	H	0.883092	-0.376816	-0.867953
H226	H	1.383092	0.123184	-0.367953
H227	H	0.364632	-0.191161	-0.247822
H228	H	0.864632	0.308839	0.252178
H229	H	0.899515	-0.312468	-0.712735
H230	H	1.399515	0.187532	-0.212735
N231	N	0.229069	-0.184218	-0.238894
N232	N	0.729069	0.315782	0.261106
N233	N	0.237004	-0.135978	-0.243495
N234	N	0.737004	0.364022	0.256505
H235	H	0.211515	-0.111819	-0.212327
H236	H	0.711515	0.388181	0.287673
N237	N	1.065566	-0.555592	-0.238765
N238	N	1.565566	-0.055592	0.261235
N239	N	1.104215	-0.531189	-0.200155
N240	N	1.604215	-0.031189	0.299845
H241	H	1.135476	-0.550862	-0.168953
H242	H	1.635476	-0.050862	0.331047
N243	N	0.890427	-0.555660	-0.413596
N244	N	1.390427	-0.055660	0.086404
N245	N	0.851744	-0.531288	-0.452192
N246	N	1.351744	-0.031288	0.047808
H247	H	0.820498	-0.550985	-0.483392
H248	H	1.320498	-0.050985	0.016608
H249	H	1.056694	-0.191182	-0.584577
H250	H	1.556694	0.308818	-0.084577
H251	H	1.100016	-0.801102	-0.204527
H252	H	1.600016	-0.301102	0.295473
H253	H	0.592156	-0.191147	-0.247776
H254	H	1.092156	0.308853	0.252224
N255	N	1.065743	-0.947585	-0.238815
N256	N	1.565743	-0.447585	0.261185
N257	N	1.104416	-0.971961	-0.200212
N258	N	1.604416	-0.471961	0.299788
H259	H	1.135657	-0.952267	-0.169004
H260	H	1.635657	-0.452267	0.330996
H261	H	0.899489	-0.312489	-0.584490
H262	H	1.399489	0.187511	-0.084490
N263	N	1.065677	-0.184223	-0.720142
N264	N	1.565677	0.315777	-0.220142
N265	N	1.061238	-0.135979	-0.712260
N266	N	1.561238	0.364021	-0.212260
H267	H	1.092491	-0.111849	-0.737771
H268	H	1.592491	0.388151	-0.237771
N269	N	0.229066	-0.319582	-0.413597
N270	N	0.729066	0.180418	0.086403
N271	N	0.260633	-0.349471	-0.452167
N272	N	0.760633	0.150529	0.047833
H273	H	0.235145	-0.373627	-0.483350
H274	H	0.735145	0.126373	0.016650
H275	H	1.056812	-1.052305	-0.247803
H276	H	1.556812	-0.552305	0.252197
H277	H	0.899641	-1.052342	-0.404705
H278	H	1.399641	-0.552342	0.095295
