data_functionalizedCrystal
_audit_creation_method	'MofGen! by Chris Wilmer'
_symmetry_space_group_name_H-M	'P1'
_symmetry_Int_Tables_number	1
_symmetry_cell_setting	triclinic
loop_
_symmetry_equiv_pos_as_xyz
  x,y,z
_cell_length_a	14.908571
_cell_length_b	25.639239
_cell_length_c	14.908308
_cell_angle_alpha	93.262277
_cell_angle_beta	90.175053
_cell_angle_gamma	86.734636
loop_
_atom_site_label
_atom_site_type_symbol
_atom_site_fract_x
_atom_site_fract_y
_atom_site_fract_z
Zn1	Zn	1.345148	-0.272845	-0.587542
Zn2	Zn	1.845148	0.227155	-0.087542
Zn3	Zn	1.353683	-0.355542	-0.437170
Zn4	Zn	1.853683	0.144458	0.062830
Zn5	Zn	1.203468	-0.262803	-0.428541
Zn6	Zn	1.703468	0.237197	0.071459
Zn7	Zn	1.194711	-0.354921	-0.578822
Zn8	Zn	1.694711	0.145079	-0.078822
O9	O	1.274253	-0.311528	-0.508019
O10	O	1.774253	0.188472	-0.008019
O11	O	1.472104	-0.288277	-0.574855
O12	O	1.972104	0.211723	-0.074855
O13	O	1.340994	-0.339297	-0.310201
O14	O	1.840994	0.160703	0.189799
O15	O	1.222355	-0.190974	-0.449671
O16	O	1.722355	0.309026	0.050329
O17	O	1.478375	-0.349035	-0.464378
O18	O	1.978375	0.150965	0.035622
O19	O	1.326446	-0.198352	-0.566488
O20	O	1.826446	0.301648	-0.066488
O21	O	1.230632	-0.271162	-0.303862
O22	O	1.730632	0.228838	0.196138
O23	O	1.076483	-0.270560	-0.441216
O24	O	1.576483	0.229440	0.058784
O25	O	1.207430	-0.347976	-0.705803
O26	O	1.707430	0.152024	-0.205803
O27	O	1.070049	-0.338239	-0.551626
O28	O	1.570049	0.161761	-0.051626
O29	O	1.317955	-0.287675	-0.712209
O30	O	1.817955	0.212325	-0.212209
O31	O	1.332503	-0.428620	-0.455922
O32	O	1.832503	0.071380	0.044078
O33	O	1.215707	-0.428164	-0.559993
O34	O	1.715707	0.071836	-0.059993
C35	C	1.040642	-0.303242	-0.494539
C36	C	1.540642	0.196758	0.005461
C37	C	0.940701	-0.299711	-0.488793
C38	C	1.440701	0.200289	0.011207
C39	C	0.746258	-0.363649	-0.592813
C40	C	1.246258	0.136351	-0.092813
C41	C	0.652355	-0.360332	-0.587418
C42	C	1.152355	0.139668	-0.087418
C43	C	0.658987	-0.289761	-0.472613
C44	C	1.158987	0.210239	0.027387
C45	C	0.752891	-0.293077	-0.478008
C46	C	1.252891	0.206923	0.021992
C47	C	0.796523	-0.330022	-0.538109
C48	C	1.296523	0.169978	-0.038109
C49	C	0.890429	-0.333341	-0.543499
C50	C	1.390429	0.166659	-0.043499
C51	C	0.897060	-0.262767	-0.428700
C52	C	1.397060	0.237233	0.071300
C53	C	0.803156	-0.259451	-0.423304
C54	C	1.303156	0.240549	0.076696
C55	C	1.274104	-0.447364	-0.507969
C56	C	1.774104	0.052636	-0.007969
C57	C	1.274121	-0.505479	-0.507982
C58	C	1.774121	-0.005479	-0.007982
C59	C	1.335213	-0.866081	-0.453936
C60	C	1.835213	-0.366081	0.046064
C61	C	1.335247	-0.920687	-0.453950
C62	C	1.835247	-0.420687	0.046050
O63	O	1.387035	-0.949120	-0.407943
O64	O	1.887035	-0.449120	0.092057
N65	N	1.274407	-0.947774	-0.508087
N66	N	1.774407	-0.447774	-0.008087
C67	C	1.213536	-0.920253	-0.562222
C68	C	1.713536	-0.420253	-0.062222
O69	O	1.161791	-0.948307	-0.608272
O70	O	1.661791	-0.448307	-0.108272
C71	C	1.213506	-0.865649	-0.562212
C72	C	1.713506	-0.365649	-0.062212
C73	C	1.274344	-0.838564	-0.508064
C74	C	1.774344	-0.338564	-0.008064
C75	C	1.396046	-0.838996	-0.399793
C76	C	1.896046	-0.338996	0.100207
C77	C	1.396010	-0.784393	-0.399778
C78	C	1.896010	-0.284393	0.100222
C79	C	1.335142	-0.756876	-0.453906
C80	C	1.835142	-0.256876	0.046094
C81	C	1.274309	-0.783961	-0.508048
C82	C	1.774309	-0.283961	-0.008048
C83	C	1.152640	-0.838129	-0.616350
C84	C	1.652640	-0.338129	-0.116350
C85	C	1.152616	-0.783521	-0.616336
C86	C	1.652616	-0.283521	-0.116336
C87	C	1.213454	-0.756436	-0.562188
C88	C	1.713454	-0.256436	-0.062188
C89	C	1.213404	-0.701842	-0.562161
C90	C	1.713404	-0.201842	-0.062161
N91	N	1.274244	-0.674754	-0.508024
N92	N	1.774244	-0.174754	-0.008024
C93	C	1.335113	-0.702272	-0.453896
C94	C	1.835113	-0.202272	0.046104
C95	C	1.213603	-1.034927	-0.562239
C96	C	1.713603	-0.534927	-0.062239
C97	C	1.213627	-1.089530	-0.562245
C98	C	1.713627	-0.589530	-0.062245
C99	C	1.335339	-1.089960	-0.453974
C100	C	1.835339	-0.589960	0.046026
C101	C	1.335310	-1.035355	-0.453964
C102	C	1.835310	-0.535355	0.046036
C103	C	1.274442	-1.007839	-0.508102
C104	C	1.774442	-0.507839	-0.008102
C105	C	1.335033	-0.587603	-0.453867
C106	C	1.835033	-0.087603	0.046133
C107	C	1.334989	-0.532996	-0.453854
C108	C	1.834989	-0.032996	0.046146
C109	C	1.213280	-0.532571	-0.562128
C110	C	1.713280	-0.032571	-0.062128
C111	C	1.213320	-0.587173	-0.562138
C112	C	1.713320	-0.087173	-0.062138
C113	C	1.274204	-0.614688	-0.508005
C114	C	1.774204	-0.114688	-0.008005
O115	O	1.161645	-0.673375	-0.608147
O116	O	1.661645	-0.173375	-0.108147
O117	O	1.386857	-0.674211	-0.407862
O118	O	1.886857	-0.174211	0.092138
C119	C	1.508776	-0.319846	-0.521552
C120	C	2.008776	0.180154	-0.021552
C121	C	1.608716	-0.323390	-0.527319
C122	C	2.108716	0.176610	-0.027319
C123	C	1.260764	-0.318877	-0.742543
C124	C	1.760764	0.181123	-0.242543
C125	C	1.255015	-0.322008	-0.842483
C126	C	1.755015	0.177992	-0.342483
C127	C	1.274426	-0.175163	-0.508090
C128	C	1.774426	0.324837	-0.008090
C129	C	1.274499	-0.117052	-0.508120
C130	C	1.774499	0.382948	-0.008120
C131	C	1.359301	-0.265089	-1.036954
C132	C	1.859301	0.234911	-0.536954
C133	C	1.353903	-0.268030	-1.130857
C134	C	1.853903	0.231970	-0.630857
C135	C	1.238817	-0.330827	-1.124193
C136	C	1.738817	0.169173	-0.624193
C137	C	1.244215	-0.327887	-1.030291
C138	C	1.744215	0.172113	-0.530291
C139	C	1.304460	-0.295017	-0.986674
C140	C	1.804460	0.204983	-0.486674
C141	C	1.309862	-0.292079	-0.892770
C142	C	1.809862	0.207921	-0.392770
C143	C	1.194772	-0.354874	-0.886108
C144	C	1.694772	0.145126	-0.386108
C145	C	1.189374	-0.357814	-0.980011
C146	C	1.689374	0.142186	-0.480011
C147	C	1.287741	-0.304171	-0.274410
C148	C	1.787741	0.195829	0.225590
C149	C	1.293664	-0.300899	-0.174480
C150	C	1.793664	0.199101	0.325520
H151	H	0.937996	-0.235387	-0.384154
H152	H	1.437996	0.264613	0.115846
H153	H	1.445618	-0.861394	-0.355715
H154	H	1.945618	-0.361394	0.144285
O155	O	0.760909	-0.223520	-0.364903
O156	O	1.260909	0.276480	0.135097
C157	C	0.825415	-0.194562	-0.317757
C158	C	1.325415	0.305438	0.182243
H159	H	0.890245	-0.196301	-0.358437
H160	H	1.390245	0.303699	0.141563
H161	H	0.798862	-0.152106	-0.306727
H162	H	1.298862	0.347894	0.193273
H163	H	0.839298	-0.211863	-0.249985
H164	H	1.339298	0.288137	0.250015
H165	H	1.140323	-0.384575	-1.015536
H166	H	1.640323	0.115425	-0.515536
O167	O	1.454993	-0.758058	-0.347081
O168	O	1.954993	-0.258058	0.152919
C169	C	1.407190	-0.722872	-0.286012
C170	C	1.907190	-0.222872	0.213988
H171	H	1.336705	-0.736678	-0.276314
H172	H	1.836705	-0.236678	0.223686
H173	H	1.443750	-0.721243	-0.218724
H174	H	1.943750	-0.221243	0.281276
H175	H	1.402458	-0.682242	-0.313612
H176	H	1.902458	-0.182242	0.186388
H177	H	1.398557	-0.243658	-1.171792
H178	H	1.898557	0.256342	-0.671792
O179	O	1.154646	-1.115900	-0.614890
O180	O	1.654646	-0.615900	-0.114890
C181	C	1.202463	-1.151063	-0.675985
C182	C	1.702463	-0.651063	-0.175985
H183	H	1.272453	-1.160637	-0.648265
H184	H	1.772453	-0.660637	-0.148265
H185	H	1.165156	-1.188557	-0.685910
H186	H	1.665156	-0.688557	-0.185910
H187	H	1.208446	-1.132430	-0.743184
H188	H	1.708446	-0.632430	-0.243184
H189	H	1.163719	-0.510158	-0.606196
H190	H	1.663719	-0.010158	-0.106196
O191	O	1.394496	-1.009130	-0.401345
O192	O	1.894496	-0.509130	0.098655
C193	C	1.448203	-1.045132	-0.353556
C194	C	1.948203	-0.545132	0.146444
H195	H	1.449184	-1.085309	-0.390576
H196	H	1.949184	-0.585309	0.109424
H197	H	1.519597	-1.031531	-0.348103
H198	H	2.019597	-0.531531	0.151897
H199	H	1.419261	-1.047668	-0.283346
H200	H	1.919261	-0.547668	0.216654
H201	H	1.384531	-0.510945	-0.409757
H202	H	1.884531	-0.010945	0.090243
O203	O	1.141362	-0.383917	-0.837353
O204	O	1.641362	0.116083	-0.337353
C205	C	1.050442	-0.370023	-0.855115
C206	C	1.550442	0.129977	-0.355115
H207	H	1.044680	-0.351995	-0.923197
H208	H	1.544680	0.148005	-0.423197
H209	H	1.009892	-0.406425	-0.855980
H210	H	1.509892	0.093575	-0.355980
H211	H	1.023232	-0.340413	-0.800531
H212	H	1.523232	0.159587	-0.300531
H213	H	1.103051	-0.761120	-0.660424
H214	H	1.603051	-0.261120	-0.160424
O215	O	0.616644	-0.253796	-0.414339
O216	O	1.116644	0.246204	0.085661
C217	C	0.638541	-0.203143	-0.435471
C218	C	1.138541	0.296857	0.064529
H219	H	0.660242	-0.203740	-0.508796
H220	H	1.160242	0.296260	-0.008796
H221	H	0.577260	-0.174876	-0.424263
H222	H	1.077260	0.325124	0.075737
H223	H	0.695826	-0.189854	-0.390444
H224	H	1.195826	0.310146	0.109556
H225	H	1.189768	-0.357588	-1.159722
H226	H	1.689768	0.142412	-0.659722
H227	H	1.358918	-0.265316	-0.857259
H228	H	1.858918	0.234684	-0.357259
H229	H	1.408359	-0.238328	-1.001442
H230	H	1.908359	0.261672	-0.501442
H231	H	1.384612	-0.609999	-0.409789
H232	H	1.884612	-0.109999	0.090211
H233	H	0.611432	-0.387713	-0.631965
H234	H	1.111432	0.112287	-0.131965
H235	H	1.384905	-1.112374	-0.409903
H236	H	1.884905	-0.612374	0.090097
O237	O	1.154377	-1.008278	-0.614847
O238	O	1.654377	-0.508278	-0.114847
C239	C	1.100706	-1.043902	-0.662644
C240	C	1.600706	-0.543902	-0.162644
H241	H	1.099772	-1.081570	-0.625636
H242	H	1.599772	-0.581570	-0.125636
H243	H	1.029295	-1.025958	-0.668086
H244	H	1.529295	-0.525958	-0.168086
H245	H	1.129650	-1.052983	-0.732857
H246	H	1.629650	-0.552983	-0.232857
H247	H	0.781785	-0.393734	-0.641745
H248	H	1.281785	0.106266	-0.141745
O249	O	1.093511	-0.864352	-0.669037
O250	O	1.593511	-0.364352	-0.169037
C251	C	1.039778	-0.828344	-0.716789
C252	C	1.539778	-0.328344	-0.216789
H253	H	1.076410	-0.790802	-0.722032
H254	H	1.576410	-0.290802	-0.222032
H255	H	1.026069	-0.845982	-0.787077
H256	H	1.526069	-0.345982	-0.287077
H257	H	0.973407	-0.819131	-0.679873
H258	H	1.473407	-0.319131	-0.179873
O259	O	1.154188	-0.613408	-0.614816
O260	O	1.654188	-0.113408	-0.114816
C261	C	1.100439	-0.577407	-0.662567
C262	C	1.600439	-0.077407	-0.162567
H263	H	1.137056	-0.539860	-0.667814
H264	H	1.637056	-0.039860	-0.167814
H265	H	1.086732	-0.595047	-0.732854
H266	H	1.586732	-0.095047	-0.232854
H267	H	1.034068	-0.568202	-0.625647
H268	H	1.534068	-0.068202	-0.125647
H269	H	0.925953	-0.363425	-0.592435
H270	H	1.425953	0.136575	-0.092435
