data_functionalizedCrystal
_audit_creation_method	'MofGen! by Chris Wilmer'
_symmetry_space_group_name_H-M	'P1'
_symmetry_Int_Tables_number	1
_symmetry_cell_setting	triclinic
loop_
_symmetry_equiv_pos_as_xyz
  x,y,z
_cell_length_a	8.559649
_cell_length_b	10.489741
_cell_length_c	7.681481
_cell_angle_alpha	84.199479
_cell_angle_beta	94.913240
_cell_angle_gamma	77.158919
loop_
_atom_site_label
_atom_site_type_symbol
_atom_site_fract_x
_atom_site_fract_y
_atom_site_fract_z
O1	O	2.104681	-0.029684	-0.146400
O2	O	1.640234	0.036114	-0.146410
O3	O	1.883027	-0.183496	-0.146394
O4	O	1.861888	0.189927	-0.146416
O5	O	1.912910	-0.210581	0.146465
O6	O	1.670117	0.009029	0.146450
O7	O	2.134565	-0.056769	0.146459
Zn8	Zn	1.907085	-0.028170	0.192952
Zn9	Zn	1.867713	0.007516	-0.192903
O10	O	1.891771	0.162842	0.146444
C11	C	1.595703	0.027558	0.000019
C12	C	1.418493	0.042401	0.000015
C13	C	1.896372	-0.244402	0.000034
C14	C	1.891596	-0.385529	0.000031
C15	C	1.737113	-0.437401	0.000015
C16	C	1.824822	-0.550562	0.144412
C17	C	1.795396	-0.523837	-0.144325
C18	C	1.979381	-0.496842	0.144547
C19	C	1.949920	-0.470093	-0.144320
C20	C	2.037746	-0.583242	0.000112
C21	C	2.179095	-0.048212	0.000027
C22	C	2.356304	-0.063054	0.000019
C23	C	1.878426	0.223748	0.000011
C24	C	1.883201	0.364876	0.000003
N25	N	1.933968	-0.052526	0.456288
N26	N	1.840843	0.031861	-0.456239
H27	H	1.438631	-0.164693	0.000016
C28	C	1.744238	0.266833	0.486668
C29	C	1.712505	0.148141	0.442249
H30	H	1.665010	0.338619	0.423981
H31	H	1.741318	0.269474	0.609602
H32	H	1.847901	0.272909	0.456514
H33	H	1.608847	0.142061	0.472415
H34	H	1.715409	0.145498	0.319287
C35	C	2.030579	-0.287504	0.513380
C36	C	2.062313	-0.168813	0.557806
H37	H	2.109818	-0.359291	0.576047
H38	H	1.926934	-0.293586	0.543538
H39	H	2.033490	-0.290135	0.390427
H40	H	2.059390	-0.166178	0.680758
H41	H	2.165984	-0.162730	0.527660
H42	H	1.336155	0.144049	-0.000000
H43	H	1.610114	-0.374389	0.000158
H44	H	2.002772	-0.434635	-0.266400
C45	C	1.595967	-0.523615	0.308943
C46	C	1.753405	-0.598389	0.309204
H47	H	1.551871	-0.553144	0.410670
H48	H	1.597591	-0.433420	0.309595
H49	H	1.531662	-0.533590	0.206397
H50	H	1.817714	-0.588406	0.411744
H51	H	1.751791	-0.688606	0.308569
C52	C	2.241376	-0.555495	0.310115
C53	C	2.084379	-0.479772	0.309535
H54	H	2.306192	-0.544945	0.411967
H55	H	2.239001	-0.645659	0.311085
H56	H	2.285419	-0.527216	0.207696
H57	H	2.040332	-0.508057	0.411948
H58	H	2.086748	-0.389588	0.308581
C59	C	2.275550	-0.625772	-0.149551
C60	C	2.209390	-0.668012	0.000218
H61	H	2.381525	-0.678092	-0.149470
H62	H	2.210483	-0.634515	-0.252177
H63	H	2.279536	-0.536064	-0.148559
H64	H	2.205394	-0.757718	-0.000781
H65	H	2.274474	-0.659282	0.102870
H66	H	1.717555	-0.536625	-0.266413
