data_functionalizedCrystal
_audit_creation_method	'MofGen! by Chris Wilmer'
_symmetry_space_group_name_H-M	'P1'
_symmetry_Int_Tables_number	1
_symmetry_cell_setting	triclinic
loop_
_symmetry_equiv_pos_as_xyz
  x,y,z
_cell_length_a	14.908571
_cell_length_b	16.959454
_cell_length_c	14.908404
_cell_angle_alpha	86.650199
_cell_angle_beta	89.784600
_cell_angle_gamma	86.716421
loop_
_atom_site_label
_atom_site_type_symbol
_atom_site_fract_x
_atom_site_fract_y
_atom_site_fract_z
Zn1	Zn	1.345416	-0.352857	-0.587646
Zn2	Zn	1.353966	-0.493142	-0.437282
Zn3	Zn	1.203699	-0.353813	-0.428632
Zn4	Zn	1.195023	-0.477825	-0.578944
O5	O	1.274526	-0.419409	-0.508126
O6	O	1.472377	-0.377476	-0.574962
O7	O	1.341242	-0.481469	-0.310300
O8	O	1.222550	-0.243077	-0.449747
O9	O	1.478659	-0.480542	-0.464490
O10	O	1.326669	-0.242374	-0.566575
O11	O	1.230842	-0.379105	-0.303945
O12	O	1.076720	-0.364254	-0.441309
O13	O	1.207763	-0.454438	-0.705933
O14	O	1.070346	-0.455365	-0.551743
O15	O	1.318256	-0.362624	-0.712326
O16	O	1.332829	-0.601719	-0.456052
O17	O	1.216054	-0.590467	-0.560130
C18	C	1.040907	-0.408252	-0.494643
C19	C	0.940963	-0.403496	-0.488897
C20	C	1.274451	-0.624773	-0.508106
C21	C	1.274500	-0.712630	-0.508133
C22	C	0.746577	-0.489600	-0.592938
C23	C	0.652671	-0.485134	-0.587542
C24	C	0.659241	-0.390095	-0.472713
C25	C	0.753148	-0.394561	-0.478109
C26	C	0.796813	-0.444316	-0.538223
C27	C	0.890721	-0.448786	-0.543614
C28	C	0.897290	-0.353743	-0.428790
C29	C	0.803383	-0.349277	-0.423394
C30	C	1.213805	-1.078283	-0.562318
C31	C	1.335492	-1.089940	-0.454040
C32	C	1.335461	-1.007393	-0.454029
C33	C	1.274600	-0.960287	-0.508164
C34	C	1.213770	-0.995728	-0.562308
C35	C	1.396284	-0.971945	-0.399879
C36	C	1.396255	-0.889394	-0.399866
C37	C	1.335397	-0.842286	-0.454006
C38	C	1.274566	-0.877732	-0.508153
C39	C	1.213705	-0.830626	-0.562287
C40	C	1.152876	-0.866070	-0.616440
C41	C	1.152913	-0.948620	-0.616447
C42	C	1.335361	-0.759736	-0.453999
C43	C	1.213670	-0.748071	-0.562277
C44	C	1.509056	-0.430611	-0.521662
C45	C	1.608999	-0.435384	-0.527430
C46	C	1.261088	-0.406716	-0.742669
C47	C	1.255362	-0.401307	-0.842618
C48	C	1.274624	-0.213244	-0.508167
C49	C	1.274666	-0.125389	-0.508184
C50	C	1.287963	-0.431998	-0.274498
C51	C	1.293864	-0.437193	-0.174560
C52	C	1.189156	-0.341037	0.019813
C53	C	1.194697	-0.345915	0.113714
C54	C	1.310491	-0.451823	0.107143
C55	C	1.304950	-0.446945	0.013243
C56	C	1.244279	-0.391551	-0.030419
C57	C	1.238734	-0.386677	-0.124321
C58	C	1.354532	-0.492581	-0.130890
C59	C	1.360073	-0.497459	-0.036990
H60	H	0.926271	-0.489300	-0.592560
H61	H	1.409472	-0.542557	-0.001428
H62	H	1.399422	-0.533710	-0.171800
C63	C	0.611204	-0.335364	-0.406601
H64	H	0.654570	-0.309026	-0.374789
H65	H	0.576795	-0.365924	-0.365260
H66	H	0.572619	-0.297360	-0.438974
H67	H	0.611772	-0.522008	-0.632098
H68	H	1.445827	-1.010305	-0.355799
C69	C	0.794611	-0.544329	-0.659055
H70	H	0.751242	-0.570658	-0.690872
H71	H	0.833205	-0.582327	-0.626695
H72	H	0.829009	-0.513759	-0.700403
C73	C	1.085934	-0.814249	-0.675984
H74	H	1.094632	-0.760010	-0.668221
H75	H	1.026291	-0.825652	-0.659298
H76	H	1.095597	-0.825105	-0.737177
C77	C	1.086005	-0.987607	-0.676006
H78	H	1.049758	-0.947731	-0.708253
H79	H	1.048842	-1.019837	-0.639320
H80	H	1.118143	-1.019297	-0.717203
C81	C	0.755352	-0.294550	-0.357273
H82	H	0.798722	-0.268217	-0.325463
H83	H	0.720947	-0.325115	-0.315933
H84	H	0.716764	-0.256543	-0.389637
H85	H	0.938202	-0.316871	-0.384235
H86	H	1.164112	-0.709722	-0.606363
H87	H	1.164282	-1.107145	-0.606411
C88	C	1.402432	-1.141750	-0.394492
H89	H	1.438650	-1.108818	-0.362240
H90	H	1.439620	-1.173929	-0.431183
H91	H	1.370319	-1.174460	-0.353300
C92	C	1.463169	-0.850412	-0.340311
H93	H	1.499424	-0.890290	-0.308078
H94	H	1.431045	-0.818717	-0.299116
H95	H	1.500337	-0.818186	-0.377008
H96	H	1.384882	-0.730881	-0.409904
C97	C	1.171998	-0.325752	-0.172352
H98	H	1.176584	-0.330085	-0.235470
H99	H	1.185641	-0.273958	-0.157887
H100	H	1.112589	-0.335636	-0.153337
H101	H	1.139752	-0.295936	-0.015736
C102	C	1.134053	-0.290357	0.168967
H103	H	1.097123	-0.256674	0.129513
H104	H	1.170329	-0.259223	0.203468
H105	H	1.097278	-0.320901	0.208001
H106	H	1.359892	-0.496917	0.142708
