data_functionalizedCrystal
_audit_creation_method	'MofGen! by Chris Wilmer'
_symmetry_space_group_name_H-M	'P1'
_symmetry_Int_Tables_number	1
_symmetry_cell_setting	triclinic
loop_
_symmetry_equiv_pos_as_xyz
  x,y,z
_cell_length_a	14.560438
_cell_length_b	23.096457
_cell_length_c	14.560438
_cell_angle_alpha	89.997174
_cell_angle_beta	59.996998
_cell_angle_gamma	60.000344
loop_
_atom_site_label
_atom_site_type_symbol
_atom_site_fract_x
_atom_site_fract_y
_atom_site_fract_z
Zr1	Zr	1.005323	0.557766	-0.120603
O2	O	1.196928	0.465319	-0.267254
O3	O	0.813717	0.586106	-0.075641
O4	O	1.005324	0.586108	-0.267252
O5	O	1.005320	0.465315	0.075497
O6	O	1.005327	0.681388	-0.267258
O7	O	1.005321	0.465317	-0.075642
O8	O	0.662576	0.681384	0.075500
O9	O	1.348071	0.465319	-0.267261
O10	O	0.892530	0.669299	-0.056476
O11	O	0.892528	0.598191	0.056322
O12	O	1.118121	0.598194	-0.169276
O13	O	1.118119	0.527086	-0.056478
Zr14	Zr	1.005327	0.709724	0.120438
Zr15	Zr	1.005327	0.709727	-0.120612
Zr16	Zr	1.005323	0.557763	0.120447
Zr17	Zr	1.246379	0.557766	-0.120614
Zr18	Zr	0.764271	0.709724	0.120449
O19	O	1.196933	0.681384	0.075476
O20	O	1.196934	0.681388	-0.267266
O21	O	1.196928	0.465315	0.075489
O22	O	0.813722	0.802171	0.267089
O23	O	0.813723	0.802175	-0.075653
O24	O	0.813716	0.586101	0.267102
O25	O	1.005330	0.802175	-0.075662
O26	O	1.005326	0.681382	0.267088
O27	O	1.005323	0.586101	0.267093
O28	O	1.005329	0.802173	0.075478
O29	O	1.348074	0.586108	-0.267268
O30	O	0.662576	0.681382	0.267103
O31	O	0.662579	0.802171	0.267096
O32	O	0.662579	0.802173	0.075493
O33	O	1.348071	0.465317	-0.075658
O34	O	1.348074	0.586106	-0.075665
O35	O	0.892529	0.669296	0.169112
O36	O	0.892532	0.740404	0.056314
O37	O	1.118123	0.669299	-0.056486
O38	O	1.118120	0.598191	0.056312
C39	C	0.703801	0.633745	-0.000069
C40	C	0.601467	0.633745	-0.000064
C41	C	0.540527	0.581255	-0.083360
C42	C	0.636670	0.581254	-0.083340
C43	C	0.470110	0.686237	0.083204
C44	C	0.373969	0.686235	0.083187
C45	C	0.575741	0.528764	-0.166648
C46	C	0.707092	0.476271	-0.249915
C47	C	0.803235	0.476270	-0.249895
C48	C	0.768027	0.528761	-0.166608
C49	C	1.005320	0.443665	-0.000071
C50	C	1.005318	0.379153	-0.000067
C51	C	0.887566	0.385964	0.058802
C52	C	0.887564	0.325348	0.058807
C53	C	1.005321	0.257922	-0.000080
C54	C	1.123090	0.251114	-0.058952
C55	C	1.123088	0.311730	-0.058946
N56	N	1.092975	0.135128	-0.095910
N57	N	1.092968	0.077548	-0.095914
C58	C	1.005333	0.075290	-0.000100
N59	N	0.917685	0.132792	0.095717
N60	N	0.917688	0.190378	0.095718
C61	C	1.005336	0.192191	-0.000092
C62	C	0.887570	0.016377	0.058781
C63	C	0.887573	-0.044241	0.058789
C64	C	1.123102	-0.118475	-0.058981
C65	C	1.123096	-0.057857	-0.058978
C66	C	1.005326	0.009566	-0.000100
C67	C	1.306849	0.633745	-0.000096
C68	C	1.409183	0.633745	-0.000101
C69	C	1.005326	0.633749	-0.301600
C70	C	1.005326	0.633750	-0.403932
C71	C	1.005330	0.823825	-0.000093
C72	C	1.005332	0.888337	-0.000097
C73	C	1.005333	0.686237	-0.452019
C74	C	1.005327	0.686234	-0.548168
C75	C	1.005314	0.581250	-0.548137
C76	C	1.005310	0.581256	-0.451985
C77	C	1.005349	0.738731	-0.403965
C78	C	1.005357	0.791222	-0.452053
C79	C	1.005352	0.791219	-0.548202
C80	C	1.005338	0.738724	-0.596264
C81	C	1.005325	0.633741	0.301435
C82	C	1.005324	0.633740	0.403767
C83	C	0.703806	0.823825	-0.000080
C84	C	0.601474	0.888337	-0.000079
C85	C	0.703801	0.633741	0.301449
C86	C	0.601466	0.633740	0.403785
C87	C	0.703806	0.823821	0.301438
C88	C	0.601473	0.888332	0.403771
C89	C	1.306845	0.443668	-0.301602
C90	C	1.409177	0.379158	-0.403935
C91	C	1.306844	0.443664	-0.000085
C92	C	1.409177	0.379153	-0.000086
C93	C	1.306850	0.633749	-0.301613
C94	C	1.409184	0.633750	-0.403950
C95	C	0.553416	0.881516	-0.058964
C96	C	0.457277	0.942126	-0.058985
C97	C	0.409191	1.009555	-0.000115
C98	C	0.457258	1.016375	0.058772
C99	C	0.553401	0.955766	0.058786
C100	C	0.553417	0.955751	0.392948
C101	C	0.457278	1.016371	0.489092
C102	C	0.409190	1.009570	0.596057
C103	C	0.457255	0.942144	0.606877
C104	C	0.553399	0.881526	0.510735
C105	C	1.457245	0.311739	-0.393112
C106	C	1.553414	0.251119	-0.489256
C107	C	1.601507	0.257919	-0.596221
C108	C	1.553436	0.325345	-0.607042
C109	C	1.457275	0.385964	-0.510899
C110	C	1.457244	0.385974	0.058789
C111	C	1.553410	0.325364	0.058784
C112	C	1.601500	0.257934	-0.000090
C113	C	1.553428	0.251115	-0.058972
C114	C	1.457271	0.311724	-0.058973
C115	C	0.553385	0.670857	0.510739
C116	C	0.457236	0.670850	0.606891
C117	C	0.457253	0.596609	0.489123
C118	C	0.553407	0.596612	0.392973
C119	C	0.601444	0.707985	0.521551
C120	C	0.553362	0.745105	0.628509
C121	C	0.457212	0.745098	0.724661
C122	C	0.409145	0.707971	0.713855
H123	H	0.910182	0.433522	-0.317687
H124	H	1.418092	0.306189	-0.306025
C125	C	1.252625	-0.065347	-0.123751
H126	H	1.322759	-0.114184	-0.158830
H127	H	1.257525	-0.043247	-0.072933
H128	H	1.257515	-0.043241	-0.179470
H129	H	1.218968	0.196212	-0.106897
C130	C	1.005358	0.848956	-0.601095
H131	H	1.005376	0.880215	-0.558707
H132	H	0.930026	0.874885	-0.600937
H133	H	1.080702	0.827385	-0.676276
C134	C	0.404406	0.934615	-0.123750
H135	H	0.340268	0.980366	-0.115345
H136	H	0.366892	0.909432	-0.094658
H137	H	0.473447	0.909422	-0.201215
H138	H	0.592513	0.826633	0.519562
H139	H	0.592557	0.961301	0.305860
H140	H	0.330864	0.707963	0.792154
H141	H	0.592567	0.826617	-0.106917
C142	C	1.005298	0.523524	-0.399079
H143	H	1.005282	0.531053	-0.334925
H144	H	1.080626	0.478206	-0.452491
H145	H	0.929950	0.525709	-0.377159
C146	C	1.404361	0.460139	0.123556
H147	H	1.446781	0.455510	0.158606
H148	H	1.313585	0.485327	0.179280
H149	H	1.420124	0.485329	0.072728
C150	C	0.303423	1.076219	-0.000128
H151	H	0.281685	1.062493	-0.043622
H152	H	0.334924	1.103647	-0.031653
H153	H	0.228391	1.103636	0.074891
C154	C	1.606263	0.176960	-0.477334
H155	H	1.563826	0.181598	-0.399858
H156	H	1.697038	0.151767	-0.512377
H157	H	1.590502	0.151770	-0.512395
H158	H	1.592533	0.330931	0.106737
H159	H	0.418153	1.071266	0.480261
C160	C	0.404337	1.090548	0.123546
H161	H	0.446723	1.085937	0.158622
H162	H	0.313559	1.115722	0.179249
H163	H	0.420096	1.115742	0.072723
H164	H	1.218983	-0.173373	-0.106929
C165	C	1.707267	0.191271	-0.000076
H166	H	1.728991	0.204997	0.043431
H167	H	1.782295	0.163847	-0.075087
H168	H	1.675747	0.163849	0.031464
H169	H	0.330903	1.058936	0.674333
H170	H	0.846320	0.528750	-0.166589
C171	C	1.005326	0.738723	-0.702023
H172	H	1.005336	0.777501	-0.723782
H173	H	0.929992	0.743079	-0.686100
H174	H	1.080669	0.695588	-0.761443
H175	H	1.679807	0.208554	-0.674498
H176	H	0.418087	0.936618	0.693981
H177	H	1.592607	0.330874	-0.694144
C178	C	0.758035	0.332830	0.123558
H179	H	0.774906	0.287073	0.115125
H180	H	0.709655	0.358016	0.094479
H181	H	0.709641	0.358011	0.201029
C182	C	1.005380	0.848959	-0.399194
H183	H	1.005398	0.841440	-0.335053
H184	H	0.930053	0.894275	-0.377286
H185	H	1.080730	0.846770	-0.452639
H186	H	1.418140	0.440858	-0.519725
C187	C	0.431382	0.743977	0.174808
H188	H	0.339386	0.775235	0.224399
H189	H	0.465432	0.769905	0.140610
H190	H	0.465418	0.722409	0.215946
H191	H	0.592517	0.961330	0.106744
C192	C	1.606327	0.176940	-0.123718
H193	H	1.670466	0.141826	-0.115266
H194	H	1.643844	0.171610	-0.201184
H195	H	1.537297	0.171619	-0.094622
H196	H	1.418137	0.306160	-0.106912
H197	H	0.592512	0.775328	0.637298
H198	H	0.679731	0.707996	0.443265
H199	H	0.418076	0.775318	0.811747
C200	C	0.404373	0.555778	0.477241
H201	H	0.340212	0.561098	0.549823
H202	H	0.473397	0.506947	0.437291
H203	H	0.366859	0.574114	0.437291
C204	C	0.758028	0.460126	0.123578
H205	H	0.774888	0.495253	0.115147
H206	H	0.709643	0.465436	0.201038
H207	H	0.709645	0.465446	0.094494
H208	H	0.497466	0.528762	-0.166677
C209	C	0.745824	0.418530	-0.341519
H210	H	0.837820	0.387264	-0.391095
H211	H	0.711793	0.440091	-0.382658
H212	H	0.711771	0.392601	-0.307312
C213	C	0.229490	0.743971	0.174772
H214	H	0.222286	0.775238	0.224370
H215	H	0.188524	0.722403	0.215890
H216	H	0.188529	0.769902	0.140558
C217	C	1.252621	0.304238	-0.123715
H218	H	1.322757	0.255401	-0.158791
H219	H	1.257518	0.326340	-0.072897
H220	H	1.257512	0.326342	-0.179436
H221	H	0.592554	0.566389	0.305886
H222	H	0.791675	0.071276	0.106747
H223	H	1.005357	0.738737	-0.325678
C224	C	0.758038	-0.036748	0.123547
H225	H	0.687905	0.012089	0.158602
H226	H	0.753132	-0.058850	0.179266
H227	H	0.753156	-0.058851	0.072712
H228	H	1.005304	0.538510	-0.587276
