data_functionalizedCrystal
_audit_creation_method	'MofGen! by Chris Wilmer'
_symmetry_space_group_name_H-M	'P1'
_symmetry_Int_Tables_number	1
_symmetry_cell_setting	triclinic
loop_
_symmetry_equiv_pos_as_xyz
  x,y,z
_cell_length_a	15.995350
_cell_length_b	10.908937
_cell_length_c	9.482900
_cell_angle_alpha	97.015561
_cell_angle_beta	80.713991
_cell_angle_gamma	71.789165
loop_
_atom_site_label
_atom_site_type_symbol
_atom_site_fract_x
_atom_site_fract_y
_atom_site_fract_z
O1	O	1.103772	0.145434	-0.120769
O2	O	0.857155	0.165869	-0.120799
O3	O	1.013154	-0.031277	-0.120775
O4	O	0.947773	0.342580	-0.120792
O5	O	0.981445	0.008928	0.121012
O6	O	0.825446	0.206074	0.120989
O7	O	1.072063	0.185640	0.121019
Cu8	Cu	0.945859	0.199528	0.143081
Cu9	Cu	0.983359	0.151980	-0.142861
O10	O	0.916064	0.382786	0.120995
C11	C	0.810224	0.185126	0.000091
C12	C	0.717628	0.182591	0.000080
C13	C	1.003410	-0.059016	0.000117
C14	C	1.021607	-0.201568	0.000114
C15	C	0.974010	-0.397912	0.000103
C16	C	0.955201	-0.250577	0.000104
C17	C	0.381143	0.173498	0.000111
C18	C	0.448055	0.033182	0.000657
C19	C	0.544465	0.035624	0.000101
C20	C	0.548077	0.178008	0.000096
C21	C	0.515454	0.224303	-0.137973
C22	C	0.419324	0.220758	-0.138079
C23	C	0.382521	0.269380	0.136879
C24	C	0.479233	0.269649	0.138694
C25	C	0.642420	0.180564	0.000083
C26	C	0.286800	0.170945	0.000114
C27	C	1.118995	0.166382	0.000126
C28	C	1.211592	0.168916	0.000127
C29	C	0.925809	0.410524	0.000100
C30	C	0.907613	0.553074	0.000094
N31	N	0.919490	0.232970	0.344197
N32	N	1.009736	0.118529	-0.343977
C33	C	0.975576	0.161837	0.416405
C34	C	0.953641	0.189671	0.583819
H35	H	0.884425	-0.183465	0.000106
N36	N	0.868516	0.297634	0.666089
H37	H	0.884490	0.364810	0.729235
H38	H	0.834138	0.341177	0.594810
H39	H	1.073995	0.037013	0.593908
N40	N	0.506991	0.225186	0.273999
H41	H	0.457452	0.201220	0.331693
H42	H	0.563936	0.146051	0.245529
H43	H	1.039831	0.080327	0.354286
N44	N	0.422312	0.131112	-0.274771
H45	H	0.360023	0.127912	-0.276205
H46	H	0.444146	0.165539	-0.362524
N47	N	1.115359	-0.290444	0.000120
H48	H	1.134934	-0.258988	0.089757
H49	H	1.115443	-0.383069	0.000065
N50	N	0.449493	-0.062527	-0.129737
H51	H	0.406990	-0.015388	-0.189162
H52	H	0.512563	-0.100781	-0.191301
N53	N	0.813863	-0.358037	0.000112
H54	H	0.813714	-0.265384	0.000121
H55	H	0.794330	-0.389589	-0.089521
N56	N	0.834372	0.340931	0.426475
H57	H	0.834939	0.427641	0.400060
H58	H	0.780424	0.321860	0.400041
H59	H	0.567494	-0.002355	0.099076
H60	H	0.592956	-0.035667	-0.099041
N61	N	0.358662	0.355902	-0.146398
H62	H	0.307727	0.389476	-0.057889
H63	H	0.394488	0.417442	-0.150032
N64	N	0.416666	-0.019341	0.131820
H65	H	0.355112	-0.025392	0.129925
H66	H	0.460596	-0.109418	0.130000
N67	N	1.067753	-0.486792	0.000133
H68	H	1.067901	-0.579444	0.000134
H69	H	1.110791	-0.485038	-0.089495
N70	N	0.515776	0.361725	-0.144808
H71	H	0.474110	0.424155	-0.055371
H72	H	0.578889	0.363511	-0.149269
N73	N	0.579753	0.137965	-0.274087
H74	H	0.630043	0.068826	-0.246629
H75	H	0.546383	0.094046	-0.333247
H76	H	0.479048	0.374867	0.147030
N77	N	0.345616	0.231638	0.275516
H78	H	0.281457	0.235807	0.277465
H79	H	0.383604	0.139404	0.279993
H80	H	0.336224	0.373056	0.137809
