data_functionalizedCrystal
_audit_creation_method	'MofGen! by Chris Wilmer'
_symmetry_space_group_name_H-M	'P1'
_symmetry_Int_Tables_number	1
_symmetry_cell_setting	triclinic
loop_
_symmetry_equiv_pos_as_xyz
  x,y,z
_cell_length_a	12.645331
_cell_length_b	15.299816
_cell_length_c	15.296720
_cell_angle_alpha	69.242954
_cell_angle_beta	80.331944
_cell_angle_gamma	80.348954
loop_
_atom_site_label
_atom_site_type_symbol
_atom_site_fract_x
_atom_site_fract_y
_atom_site_fract_z
Zn1	Zn	1.594403	-0.461102	0.589795
Zn2	Zn	1.646589	-0.589691	0.461218
Zn3	Zn	1.443302	-0.434237	0.434321
Zn4	Zn	1.443214	-0.616528	0.616690
O5	O	1.531877	-0.525390	0.525506
O6	O	1.749675	-0.478171	0.572740
O7	O	1.641499	-0.546596	0.327518
O8	O	1.441542	-0.307696	0.432433
O9	O	1.788016	-0.572645	0.478275
O10	O	1.552555	-0.327433	0.546659
O11	O	1.492145	-0.432384	0.307757
O12	O	1.294941	-0.458407	0.458512
O13	O	1.441393	-0.618385	0.743255
O14	O	1.294876	-0.592335	0.592497
O15	O	1.552470	-0.504194	0.723495
O16	O	1.641415	-0.723356	0.504354
O17	O	1.491996	-0.743073	0.618579
C18	C	1.572384	-0.766953	0.567324
C19	C	1.589805	-0.870300	0.585245
C20	C	1.256443	-0.525369	0.525505
C21	C	1.138612	-0.525386	0.525530
C22	C	1.408009	-1.120789	0.397739
C23	C	1.391636	-1.023690	0.380903
C24	C	1.441177	-0.985337	0.431987
C25	C	1.507094	-1.044094	0.499909
C26	C	1.523462	-1.141204	0.516752
C27	C	1.556630	-1.005752	0.551000
C28	C	1.622547	-1.064509	0.618922
C29	C	1.638913	-1.161609	0.635761
C30	C	1.589372	-1.199961	0.584677
C31	C	1.540261	-0.908642	0.534158
C32	C	1.655714	-0.929057	0.653170
C33	C	1.672088	-1.026157	0.670006
C34	C	0.971172	-0.609970	0.609514
C35	C	1.093642	-0.609788	0.609773
C36	C	1.073174	-0.432091	0.535348
C37	C	0.950565	-0.432619	0.535928
C38	C	0.992134	-0.533270	0.431365
C39	C	1.115010	-0.535503	0.432267
C40	C	1.808386	-0.525411	0.525508
C41	C	1.926218	-0.525420	0.525509
C42	C	1.491100	-0.567279	0.768060
C43	C	1.473724	-0.585130	0.871422
C44	C	1.491237	-0.282887	0.483545
C45	C	1.473919	-0.179546	0.465664
C46	C	1.572544	-0.483596	0.283884
C47	C	1.590082	-0.465483	0.180477
C48	C	1.656081	-0.397643	1.121633
C49	C	1.672414	-0.380873	1.024519
C50	C	1.622743	-0.431935	0.986240
C51	C	1.556736	-0.499772	1.045084
C52	C	1.540408	-0.516549	1.142208
C53	C	1.507070	-0.550841	1.006815
C54	C	1.441063	-0.618678	1.065659
C55	C	1.424738	-0.635451	1.162773
C56	C	1.474409	-0.584389	1.201053
C57	C	1.523398	-0.534064	0.909691
C58	C	1.407725	-0.652970	0.930267
C59	C	1.391392	-0.669740	1.027380
H60	H	1.486591	-0.860811	0.478855
H61	H	1.636045	-0.418277	0.907165
C62	C	1.423176	-0.878529	0.413462
H63	H	1.376832	-0.849028	0.365688
H64	H	1.391006	-0.866906	0.469645
H65	H	1.490594	-0.853754	0.393599
C66	C	0.951633	-0.704521	0.604152
H67	H	0.915878	-0.693284	0.550638
H68	H	1.018912	-0.741833	0.599017
H69	H	0.908027	-0.736772	0.659492
C70	C	1.319133	-0.959061	0.306198
H71	H	1.316469	-0.895738	0.303492
H72	H	1.347882	-0.964196	0.246487
H73	H	1.248301	-0.977369	0.322539
C74	C	1.353524	-1.162978	0.341556
H75	H	1.372719	-1.229224	0.361312
H76	H	1.277330	-1.149454	0.352361
H77	H	1.376926	-1.136292	0.276324
C78	C	1.710216	-0.886880	0.709363
H79	H	1.691037	-0.820632	0.689598
H80	H	1.686825	-0.913566	0.774591
H81	H	1.786415	-0.900405	0.698547
C82	C	1.318794	-0.744362	1.092111
H83	H	1.291541	-0.772369	1.055410
H84	H	1.359765	-0.791417	1.137008
H85	H	1.260272	-0.715326	1.123839
H86	H	1.146888	-0.477034	0.367688
C87	C	1.744584	-1.090796	0.744722
H88	H	1.747227	-1.154119	0.747437
H89	H	1.815414	-1.072497	0.728398
H90	H	1.715818	-1.085660	0.804435
H91	H	0.925439	-0.606263	0.679225
C92	C	1.112967	-0.604578	0.704461
H93	H	1.045910	-0.602555	0.742916
H94	H	1.159356	-0.658496	0.735342
H95	H	1.145540	-0.549449	0.693541
C96	C	1.607307	-1.306782	0.603258
H97	H	1.653636	-1.336288	0.651042
H98	H	1.539865	-1.331506	0.623111
H99	H	1.639481	-1.318457	0.547095
H100	H	1.138740	-0.679504	0.605567
C101	C	1.595993	-0.459447	0.844970
H102	H	1.598613	-0.456770	0.781647
H103	H	1.567337	-0.399728	0.850081
H104	H	1.666829	-0.475819	0.863244
C105	C	1.352137	-0.710072	1.227500
H106	H	1.324885	-0.738075	1.190795
H107	H	1.393105	-0.757130	1.272397
H108	H	1.293615	-0.681037	1.259228
C109	C	1.711415	-1.226244	0.710474
H110	H	1.714061	-1.289568	0.713193
H111	H	1.782243	-1.207941	0.694144
H112	H	1.682653	-1.221107	0.770188
H113	H	0.906326	-0.423966	0.604246
H114	H	0.919893	-0.368316	0.476587
H115	H	1.367280	-0.694551	0.899101
H116	H	1.726160	-0.325643	0.976616
H117	H	1.088302	-0.422919	0.602820
C118	C	1.111470	-0.345671	0.454274
H119	H	1.167846	-0.365769	0.413624
H120	H	1.052798	-0.312185	0.419878
H121	H	1.137415	-0.305751	0.479310
C122	C	0.971830	-0.622401	0.414905
H123	H	0.922957	-0.655663	0.465301
H124	H	0.941817	-0.605036	0.357350
H125	H	1.038199	-0.661509	0.411937
H126	H	0.963255	-0.471478	0.368982
C127	C	1.175257	-0.628121	0.421830
H128	H	1.214634	-0.660494	0.474085
H129	H	1.124586	-0.666407	0.419584
H130	H	1.223750	-0.614591	0.365381
C131	C	1.710707	-0.341481	1.163741
H132	H	1.691523	-0.361186	1.230008
H133	H	1.786892	-0.352341	1.150182
H134	H	1.687390	-0.276259	1.137020
C135	C	1.456445	-0.602835	1.307878
H136	H	1.495483	-0.562708	1.322244
H137	H	1.381647	-0.590548	1.327065
H138	H	1.481147	-0.666631	1.340231
