data_functionalizedCrystal
_audit_creation_method	'MofGen! by Chris Wilmer'
_symmetry_space_group_name_H-M	'P1'
_symmetry_Int_Tables_number	1
_symmetry_cell_setting	triclinic
loop_
_symmetry_equiv_pos_as_xyz
  x,y,z
_cell_length_a	16.625548
_cell_length_b	29.839131
_cell_length_c	16.625539
_cell_angle_alpha	90.032094
_cell_angle_beta	90.020568
_cell_angle_gamma	90.042488
loop_
_atom_site_label
_atom_site_type_symbol
_atom_site_fract_x
_atom_site_fract_y
_atom_site_fract_z
Zn1	Zn	1.232574	-0.178840	0.455888
Zn2	Zn	1.232433	-0.253971	0.321046
Zn3	Zn	1.097736	-0.178857	0.321069
Zn4	Zn	1.097662	-0.253945	0.455836
O5	O	1.165101	-0.216403	0.388460
O6	O	1.345388	-0.188810	0.438013
O7	O	1.214537	-0.244025	0.208217
O8	O	1.115713	-0.115987	0.338984
O9	O	1.345284	-0.244008	0.338946
O10	O	1.214778	-0.115975	0.438035
O11	O	1.115576	-0.188839	0.208233
O12	O	0.984894	-0.188814	0.338933
O13	O	1.115586	-0.243964	0.568676
O14	O	0.984839	-0.243981	0.437947
O15	O	1.214706	-0.188785	0.568714
O16	O	1.214465	-0.316834	0.338896
O17	O	1.115449	-0.316815	0.437925
C18	C	0.955610	-0.216397	0.388437
C19	C	0.865989	-0.216405	0.388447
C20	C	1.164956	-0.333126	0.388420
C21	C	1.164967	-0.383060	0.388430
C22	C	0.537814	-0.216408	0.388481
C23	C	0.629122	-0.216406	0.388469
C24	C	0.701899	-0.216406	0.388463
C25	C	0.793213	-0.216404	0.388452
C26	C	1.216752	-0.692701	0.336971
C27	C	1.216852	-0.880374	0.337002
O28	O	1.260766	-0.904636	0.293219
N29	N	1.165268	-0.903845	0.388521
C30	C	1.113660	-0.880395	0.440039
O31	O	1.069793	-0.904665	0.483866
C32	C	1.113565	-0.692723	0.440011
C33	C	1.165146	-0.669254	0.388483
C34	C	1.268330	-0.669232	0.285447
C35	C	1.268302	-0.622316	0.285437
C36	C	1.216695	-0.598870	0.336950
C37	C	1.165118	-0.622339	0.388473
C38	C	1.061962	-0.669274	0.491533
C39	C	1.061944	-0.622353	0.491523
C40	C	1.113525	-0.598884	0.439995
C41	C	1.113483	-0.551977	0.439975
N42	N	1.165067	-0.528505	0.388456
C43	C	1.216673	-0.551952	0.336944
C44	C	1.113712	-0.978926	0.440049
C45	C	1.113735	-1.025844	0.440055
C46	C	1.216928	-1.025819	0.337019
C47	C	1.216901	-0.978900	0.337009
C48	C	1.165296	-0.955455	0.388530
C49	C	1.216609	-0.453426	0.336925
C50	C	1.216573	-0.406506	0.336917
C51	C	1.113383	-0.406535	0.439956
C52	C	1.113416	-0.453451	0.439962
C53	C	1.165035	-0.476895	0.388443
O54	O	1.069599	-0.527685	0.483742
O55	O	1.260546	-0.527674	0.293136
C56	C	1.216781	-0.739616	0.336981
C57	C	1.165203	-0.763085	0.388504
C58	C	1.113597	-0.739639	0.440017
C59	C	1.165226	-0.810003	0.388510
C60	C	1.216832	-0.833449	0.336997
C61	C	1.268416	-0.809978	0.285479
C62	C	1.268387	-0.763062	0.285468
C63	C	1.062014	-0.763110	0.491536
C64	C	1.062046	-0.810026	0.491541
C65	C	1.113652	-0.833472	0.440028
C66	C	1.375410	-0.216410	0.388483
C67	C	1.465031	-0.216413	0.388493
C68	C	1.165154	-0.216370	0.598769
C69	C	1.165176	-0.216355	0.688390
C70	C	1.165269	-0.099225	0.388518
C71	C	1.165341	-0.049290	0.388542
C72	C	1.165095	-0.216404	0.178969
C73	C	1.165229	-0.216292	0.089348
C74	C	1.165213	-0.216305	1.016566
C75	C	1.165201	-0.216320	0.925257
C76	C	1.165195	-0.216330	0.852481
C77	C	1.165182	-0.216345	0.761167
H78	H	1.258577	-0.387399	0.294954
H79	H	1.071417	-0.472560	0.481922
H80	H	1.310389	-0.743957	0.243509
O81	O	1.011776	-0.692086	0.541479
C82	C	0.902968	-0.745133	0.552277
C83	C	0.959739	-0.719319	0.495615
H84	H	0.860892	-0.767164	0.515220
H85	H	0.866030	-0.720330	0.589080
H86	H	0.939998	-0.767039	0.594491
H87	H	0.922770	-0.697413	0.453353
H88	H	0.996679	-0.744146	0.458869
O89	O	1.266773	-0.476126	0.286802
C90	C	1.369147	-0.471137	0.184630
C91	C	1.312370	-0.445374	0.241343
H92	H	1.406039	-0.446285	0.147873
H93	H	1.332205	-0.493127	0.142382
H94	H	1.411272	-0.493076	0.221696
H95	H	1.270234	-0.423410	0.204342
H96	H	1.349363	-0.423412	0.283592
H97	H	1.310306	-0.603210	0.243481
O98	O	1.318541	-0.832828	0.235534
C99	C	1.364315	-0.905103	0.189914
C100	C	1.307509	-0.879279	0.246508
H101	H	1.355404	-0.942664	0.198755
H102	H	1.429327	-0.895863	0.204161
H103	H	1.350229	-0.895896	0.124879
H104	H	1.321523	-0.888472	0.311562
H105	H	1.242514	-0.888522	0.232192
O106	O	1.011739	-0.599648	0.541600
C107	C	0.909439	-0.604629	0.643848
C108	C	0.966239	-0.630396	0.587165
H109	H	0.872649	-0.629478	0.680714
H110	H	0.867226	-0.582713	0.606834
H111	H	0.946439	-0.582615	0.686002
H112	H	0.929304	-0.652435	0.545000
H113	H	1.008454	-0.652284	0.624229
O114	O	1.063333	-0.383685	0.489969
C115	C	1.017546	-0.311411	0.535582
C116	C	1.074276	-0.337234	0.478910
H117	H	1.026362	-0.273850	0.526648
H118	H	1.031680	-0.320568	0.600630
H119	H	0.952548	-0.320702	0.521382
H120	H	1.139293	-0.327956	0.493037
H121	H	1.060073	-0.328074	0.413878
O122	O	1.318488	-0.691934	0.235325
C123	C	1.420861	-0.686941	0.133152
C124	C	1.364086	-0.661180	0.189870
H125	H	1.457754	-0.662089	0.096399
H126	H	1.383916	-0.708928	0.090901
H127	H	1.462985	-0.708884	0.170213
H128	H	1.321951	-0.639214	0.152874
H129	H	1.401081	-0.639222	0.232123
H130	H	1.258903	-0.959794	0.295051
H131	H	1.071725	-1.044948	0.482007
O132	O	1.267082	-1.048668	0.287103
C133	C	1.312920	-1.120943	0.241544
C134	C	1.256062	-1.095120	0.298087
H135	H	1.304019	-1.158504	0.250393
H136	H	1.377918	-1.111693	0.255834
H137	H	1.298877	-1.111746	0.176495
H138	H	1.270033	-1.104303	0.363155
H139	H	1.191082	-1.104373	0.283728
H140	H	1.020035	-0.829130	0.533501
O141	O	1.063497	-0.956224	0.490119
C142	C	0.961172	-0.961212	0.592341
C143	C	1.017991	-0.986975	0.535669
H144	H	0.924377	-0.986064	0.629195
H145	H	0.918965	-0.939297	0.555318
H146	H	0.998158	-0.939197	0.634506
H147	H	0.981069	-1.009014	0.493493
H148	H	1.060199	-1.008862	0.572742
H149	H	1.019991	-0.744024	0.533485
