data_functionalizedCrystal
_audit_creation_method	'MofGen! by Chris Wilmer'
_symmetry_space_group_name_H-M	'P1'
_symmetry_Int_Tables_number	1
_symmetry_cell_setting	triclinic
loop_
_symmetry_equiv_pos_as_xyz
  x,y,z
_cell_length_a	25.639243
_cell_length_b	16.625545
_cell_length_c	16.625539
_cell_angle_alpha	89.974232
_cell_angle_beta	90.023150
_cell_angle_gamma	89.970326
loop_
_atom_site_label
_atom_site_type_symbol
_atom_site_fract_x
_atom_site_fract_y
_atom_site_fract_z
Zn1	Zn	0.799305	0.320942	0.455979
Zn2	Zn	1.049305	0.570942	0.705979
Zn3	Zn	1.299305	0.820942	0.955979
Zn4	Zn	1.549305	1.070942	1.205979
Zn5	Zn	0.799235	0.455785	0.321152
Zn6	Zn	1.049235	0.705785	0.571152
Zn7	Zn	1.299235	0.955785	0.821152
Zn8	Zn	1.549235	1.205785	1.071152
Zn9	Zn	0.711870	0.320976	0.321154
Zn10	Zn	0.961870	0.570976	0.571154
Zn11	Zn	1.211870	0.820976	0.821154
Zn12	Zn	1.461870	1.070976	1.071154
Zn13	Zn	0.711844	0.455742	0.455936
Zn14	Zn	0.961844	0.705742	0.705936
Zn15	Zn	1.211844	0.955742	0.955936
Zn16	Zn	1.461844	1.205742	1.205936
O17	O	0.755564	0.388361	0.388555
O18	O	1.005564	0.638361	0.638555
O19	O	1.255564	0.888361	0.888555
O20	O	1.505564	1.138361	1.138555
O21	O	0.872461	0.338832	0.438112
O22	O	1.122461	0.588832	0.688112
O23	O	1.372461	0.838832	0.938112
O24	O	1.622461	1.088832	1.188112
O25	O	0.787628	0.437934	0.208320
O26	O	1.037628	0.687934	0.458320
O27	O	1.287628	0.937934	0.708320
O28	O	1.537628	1.187934	0.958320
O29	O	0.723509	0.208139	0.339057
O30	O	0.973509	0.458139	0.589057
O31	O	1.223509	0.708139	0.839057
O32	O	1.473509	0.958139	1.089057
O33	O	0.872410	0.437901	0.339055
O34	O	1.122410	0.687901	0.589055
O35	O	1.372410	0.937901	0.839055
O36	O	1.622410	1.187901	1.089055
O37	O	0.787746	0.208114	0.438113
O38	O	1.037746	0.458114	0.688113
O39	O	1.287746	0.708114	0.938113
O40	O	1.537746	0.958114	1.188113
O41	O	0.723441	0.338891	0.208321
O42	O	0.973441	0.588891	0.458321
O43	O	1.223441	0.838891	0.708321
O44	O	1.473441	1.088891	0.958321
O45	O	0.638702	0.338850	0.339015
O46	O	0.888702	0.588850	0.589015
O47	O	1.138702	0.838850	0.839015
O48	O	1.388702	1.088850	1.089015
O49	O	0.723464	0.437828	0.568774
O50	O	0.973464	0.687828	0.818774
O51	O	1.223464	0.937828	1.068774
O52	O	1.473464	1.187828	1.318774
O53	O	0.638682	0.437862	0.438039
O54	O	0.888682	0.687862	0.688039
O55	O	1.138682	0.937862	0.938039
O56	O	1.388682	1.187862	1.188039
O57	O	0.787721	0.338791	0.568806
O58	O	1.037721	0.588791	0.818806
O59	O	1.287721	0.838791	1.068806
O60	O	1.537721	1.088791	1.318806
O61	O	0.787603	0.568611	0.339013
O62	O	1.037603	0.818611	0.589013
O63	O	1.287603	1.068611	0.839013
O64	O	1.537603	1.318611	1.089013
O65	O	0.723397	0.568580	0.438038
O66	O	0.973397	0.818580	0.688038
O67	O	1.223397	1.068580	0.938038
O68	O	1.473397	1.318580	1.188038
C69	C	0.619721	0.388356	0.388523
C70	C	0.869721	0.638356	0.638523
C71	C	1.119721	0.888356	0.888523
C72	C	1.369721	1.138356	1.138523
C73	C	0.561607	0.388373	0.388529
C74	C	0.811607	0.638373	0.638529
C75	C	1.061607	0.888373	0.888529
C76	C	1.311607	1.138373	1.138529
C77	C	0.201265	0.336857	0.440220
C78	C	0.451265	0.586857	0.690220
C79	C	0.701265	0.836857	0.940220
C80	C	0.951265	1.086857	1.190220
C81	C	0.146661	0.336856	0.440225
C82	C	0.396661	0.586856	0.690225
C83	C	0.646661	0.836856	0.940225
C84	C	0.896661	1.086856	1.190225
O85	O	0.118442	0.293041	0.484135
O86	O	0.368442	0.543041	0.734135
O87	O	0.618442	0.793041	0.984135
O88	O	0.868442	1.043041	1.234135
N89	N	0.119325	0.388359	0.388577
N90	N	0.369325	0.638359	0.638577
N91	N	0.619325	0.888359	0.888577
N92	N	0.869325	1.138359	1.138577
C93	C	0.146596	0.439859	0.336916
C94	C	0.396596	0.689859	0.586916
C95	C	0.646596	0.939859	0.836916
C96	C	0.896596	1.189859	1.086916
O97	O	0.118330	0.483666	0.292985
O98	O	0.368330	0.733666	0.542985
O99	O	0.618330	0.983666	0.792985
O100	O	0.868330	1.233666	1.042985
C101	C	0.201199	0.439855	0.336907
C102	C	0.451199	0.689855	0.586907
C103	C	0.701199	0.939855	0.836907
C104	C	0.951199	1.189855	1.086907
C105	C	0.228532	0.388355	0.388564
C106	C	0.478532	0.638355	0.638564
C107	C	0.728532	0.888355	0.888564
C108	C	0.978532	1.138355	1.138564
C109	C	0.228598	0.285361	0.491872
C110	C	0.478598	0.535361	0.741872
C111	C	0.728598	0.785361	0.991872
C112	C	0.978598	1.035361	1.241872
C113	C	0.283199	0.285363	0.491868
C114	C	0.533199	0.535363	0.741868
C115	C	0.783199	0.785363	0.991868
C116	C	1.033199	1.035363	1.241868
C117	C	0.310466	0.336861	0.440212
C118	C	0.560466	0.586861	0.690212
C119	C	0.810466	0.836861	0.940212
C120	C	1.060466	1.086861	1.190212
C121	C	0.283133	0.388357	0.388560
C122	C	0.533133	0.638357	0.638560
C123	C	0.783133	0.888357	0.888560
C124	C	1.033133	1.138357	1.138560
C125	C	0.228469	0.491351	0.285242
C126	C	0.478469	0.741351	0.535242
C127	C	0.728469	0.991351	0.785242
C128	C	0.978469	1.241351	1.035242
C129	C	0.283076	0.491343	0.285237
C130	C	0.533076	0.741343	0.535237
C131	C	0.783076	0.991343	0.785237
C132	C	1.033076	1.241343	1.035237
C133	C	0.310409	0.439843	0.336894
C134	C	0.560409	0.689843	0.586894
C135	C	0.810409	0.939843	0.836894
C136	C	1.060409	1.189843	1.086894
C137	C	0.365000	0.439858	0.336900
C138	C	0.615000	0.689858	0.586900
C139	C	0.865000	0.939858	0.836900
C140	C	1.115000	1.189858	1.086900
N141	N	0.392337	0.388355	0.388547
N142	N	0.642337	0.638355	0.638547
N143	N	0.892337	0.888355	0.888547
N144	N	1.142337	1.138355	1.138547
C145	C	0.365069	0.336857	0.440203
C146	C	0.615069	0.586857	0.690203
C147	C	0.865069	0.836857	0.940203
C148	C	1.115069	1.086857	1.190203
C149	C	0.031925	0.439863	0.336936
C150	C	0.281925	0.689863	0.586936
C151	C	0.531925	0.939863	0.836936
C152	C	0.781925	1.189863	1.086936
C153	C	-0.022677	0.439872	0.336948
C154	C	0.227323	0.689872	0.586948
C155	C	0.477323	0.939872	0.836948
C156	C	0.727323	1.189872	1.086948
C157	C	-0.022609	0.336867	0.440257
C158	C	0.227391	0.586867	0.690257
C159	C	0.477391	0.836867	0.940257
C160	C	0.727391	1.086867	1.190257
C161	C	0.031995	0.336863	0.440248
C162	C	0.281995	0.586863	0.690248
C163	C	0.531995	0.836863	0.940248
C164	C	0.781995	1.086863	1.190248
C165	C	0.059261	0.388361	0.388584
C166	C	0.309261	0.638361	0.638584
C167	C	0.559261	0.888361	0.888584
C168	C	0.809261	1.138361	1.138584
C169	C	0.479734	0.336866	0.440191
C170	C	0.729734	0.586866	0.690191
C171	C	0.979734	0.836866	0.940191
C172	C	1.229734	1.086866	1.190191
C173	C	0.534340	0.336874	0.440185
C174	C	0.784340	0.586874	0.690185
C175	C	1.034340	0.836874	0.940185
C176	C	1.284340	1.086874	1.190185
C177	C	0.534266	0.439875	0.336874
C178	C	0.784266	0.689875	0.586874
C179	C	1.034266	0.939875	0.836874
C180	C	1.284266	1.189875	1.086874
C181	C	0.479666	0.439870	0.336883
C182	C	0.729666	0.689870	0.586883
C183	C	0.979666	0.939870	0.836883
C184	C	1.229666	1.189870	1.086883
C185	C	0.452401	0.388358	0.388544
C186	C	0.702401	0.638358	0.638544
C187	C	0.952401	0.888358	0.888544
C188	C	1.202401	1.138358	1.138544
O189	O	0.393254	0.483649	0.293010
O190	O	0.643254	0.733649	0.543010
O191	O	0.893254	0.983649	0.793010
O192	O	1.143254	1.233649	1.043010
O193	O	0.393342	0.293051	0.484119
O194	O	0.643342	0.543051	0.734119
O195	O	0.893342	0.793051	0.984119
O196	O	1.143342	1.043051	1.234119
C197	C	0.755504	0.597852	0.388538
C198	C	1.005504	0.847852	0.638538
C199	C	1.255504	1.097852	0.888538
C200	C	1.505504	1.347852	1.138538
C201	C	0.755526	0.687473	0.388558
C202	C	1.005526	0.937473	0.638558
C203	C	1.255526	1.187473	0.888558
C204	C	1.505526	1.437473	1.138558
C205	C	0.755545	0.760256	0.388577
C206	C	1.005545	1.010256	0.638577
C207	C	1.255545	1.260256	0.888577
C208	C	1.505545	1.510256	1.138577
C209	C	0.755574	0.851564	0.388599
C210	C	1.005574	1.101564	0.638599
C211	C	1.255574	1.351564	0.888599
C212	C	1.505574	1.601564	1.138599
C213	C	0.755600	0.924340	0.388612
C214	C	1.005600	1.174340	0.638612
C215	C	1.255600	1.424340	0.888612
C216	C	1.505600	1.674340	1.138612
C217	C	0.755628	1.015655	0.388632
C218	C	1.005628	1.265655	0.638632
C219	C	1.255628	1.515655	0.888632
C220	C	1.505628	1.765655	1.138632
C221	C	0.891937	0.388367	0.388588
C222	C	1.141937	0.638367	0.638588
C223	C	1.391937	0.888367	0.888588
C224	C	1.641937	1.138367	1.138588
C225	C	0.950051	0.388370	0.388602
C226	C	1.200051	0.638370	0.638602
C227	C	1.450051	0.888370	0.888602
C228	C	1.700051	1.138370	1.138602
C229	C	0.755598	0.388301	0.598864
C230	C	1.005598	0.638301	0.848864
C231	C	1.255598	0.888301	1.098864
C232	C	1.505598	1.138301	1.348864
C233	C	0.755612	0.388276	0.688485
C234	C	1.005612	0.638276	0.938485
C235	C	1.255612	0.888276	1.188485
C236	C	1.505612	1.138276	1.438485
C237	C	0.755634	1.178052	0.388600
C238	C	1.005634	1.428052	0.638600
C239	C	1.255634	1.678052	0.888600
C240	C	1.505634	1.928052	1.138600
C241	C	0.755654	1.088431	0.388645
C242	C	1.005654	1.338431	0.638645
C243	C	1.255654	1.588431	0.888645
C244	C	1.505654	1.838431	1.138645
C245	C	0.755560	0.388363	0.179064
C246	C	1.005560	0.638363	0.429064
C247	C	1.255560	0.888363	0.679064
C248	C	1.505560	1.138363	0.929064
C249	C	0.755647	0.388161	0.089444
C250	C	1.005647	0.638161	0.339444
C251	C	1.255647	0.888161	0.589444
C252	C	1.505647	1.138161	0.839444
C253	C	0.755636	0.388185	1.016661
C254	C	1.005636	0.638185	1.266661
C255	C	1.255636	0.888185	1.516661
C256	C	1.505636	1.138185	1.766661
C257	C	0.755628	0.388213	0.925353
C258	C	1.005628	0.638213	1.175353
C259	C	1.255628	0.888213	1.425353
C260	C	1.505628	1.138213	1.675353
C261	C	0.755624	0.388231	0.852576
C262	C	1.005624	0.638231	1.102576
C263	C	1.255624	0.888231	1.352576
C264	C	1.505624	1.138231	1.602576
C265	C	0.755616	0.388257	0.761262
C266	C	1.005616	0.638257	1.011262
C267	C	1.255616	0.888257	1.261262
C268	C	1.505616	1.138257	1.511262
H269	H	-0.044819	0.294932	0.482316
H270	H	0.205181	0.544932	0.732316
H271	H	0.455181	0.794932	0.982316
H272	H	0.705181	1.044932	1.232316
H273	H	0.556477	0.481806	0.294818
H274	H	0.806477	0.731806	0.544818
H275	H	1.056477	0.981806	0.794818
H276	H	1.306477	1.231806	1.044818
Cl277	Cl	0.568698	0.272129	0.505132
Cl278	Cl	0.818698	0.522129	0.755132
Cl279	Cl	1.068698	0.772129	1.005132
Cl280	Cl	1.318698	1.022129	1.255132
H281	H	0.054246	0.294926	0.482310
H282	H	0.304246	0.544926	0.732310
H283	H	0.554246	0.794926	0.982310
H284	H	0.804246	1.044926	1.232310
H285	H	0.305449	0.243425	0.533931
H286	H	0.555449	0.493425	0.783931
H287	H	0.805449	0.743425	1.033931
H288	H	1.055449	0.993425	1.283931
H289	H	0.206403	0.243420	0.533937
H290	H	0.456403	0.493420	0.783937
H291	H	0.706403	0.743420	1.033937
H292	H	0.956403	0.993420	1.283937
H293	H	-0.044928	0.481817	0.294893
H294	H	0.205072	0.731817	0.544893
H295	H	0.455072	0.981817	0.794893
H296	H	0.705072	1.231817	1.044893
Cl297	Cl	0.066197	0.504614	0.271985
Cl298	Cl	0.316197	0.754614	0.521985
Cl299	Cl	0.566197	1.004614	0.771985
Cl300	Cl	0.816197	1.254614	1.021985
Cl301	Cl	0.317350	0.556088	0.220285
Cl302	Cl	0.567350	0.806088	0.470285
Cl303	Cl	0.817350	1.056088	0.720285
Cl304	Cl	1.067350	1.306088	0.970285
Cl305	Cl	0.194120	0.556082	0.220281
Cl306	Cl	0.444120	0.806082	0.470281
Cl307	Cl	0.694120	1.056082	0.720281
Cl308	Cl	0.944120	1.306082	0.970281
H309	H	0.457542	0.294918	0.482257
H310	H	0.707542	0.544918	0.732257
H311	H	0.957542	0.794918	0.982257
H312	H	1.207542	1.044918	1.232257
H313	H	0.457410	0.481815	0.294829
H314	H	0.707410	0.731815	0.544829
H315	H	0.957410	0.981815	0.794829
H316	H	1.207410	1.231815	1.044829
