data_functionalizedCrystal
_audit_creation_method	'MofGen! by Chris Wilmer'
_symmetry_space_group_name_H-M	'P1'
_symmetry_Int_Tables_number	1
_symmetry_cell_setting	triclinic
loop_
_symmetry_equiv_pos_as_xyz
  x,y,z
_cell_length_a	8.597340
_cell_length_b	8.559649
_cell_length_c	16.053802
_cell_angle_alpha	92.204030
_cell_angle_beta	95.067650
_cell_angle_gamma	77.625043
loop_
_atom_site_label
_atom_site_type_symbol
_atom_site_fract_x
_atom_site_fract_y
_atom_site_fract_z
O1	O	2.045407	0.245437	0.077716
O2	O	1.589782	0.260578	0.044938
O3	O	1.857735	0.021312	0.064215
O4	O	1.777454	0.484703	0.058438
O5	O	1.842993	0.034427	0.202014
O6	O	1.575040	0.273692	0.182736
O7	O	2.030665	0.258551	0.215514
Zn8	Zn	1.800512	0.268204	0.221004
Zn9	Zn	1.819935	0.250925	0.039448
O10	O	1.762711	0.497817	0.196237
C11	C	1.524621	0.264778	0.109680
C12	C	1.352427	0.257736	0.097292
C13	C	1.856448	-0.031523	0.133551
C14	C	1.874559	-0.208494	0.134849
C15	C	2.095826	0.254351	0.150770
C16	C	2.268020	0.261392	0.163153
C17	C	1.763999	0.550652	0.126899
C18	C	1.745889	0.727623	0.125596
N19	N	1.787267	0.279996	0.344911
N20	N	1.833193	0.239121	-0.084458
C21	C	1.901314	0.178226	0.396810
C22	C	1.892062	0.186489	0.483551
C23	C	1.768768	0.296532	0.518392
C24	C	1.654710	0.398306	0.466486
C25	C	1.663957	0.390034	0.379746
C26	C	1.728382	0.332623	0.776896
C27	C	1.719146	0.340891	0.863643
C28	C	1.956498	0.129071	0.880702
C29	C	1.965739	0.120815	0.793960
C30	C	1.851676	0.222583	0.742061
N31	N	1.759311	0.304985	0.607056
N32	N	1.861128	0.214121	0.653399
H33	H	1.621875	-0.191681	0.116677
H34	H	2.049361	0.046214	0.922965
O35	O	2.022539	-0.304680	0.145645
C36	C	2.266083	-0.375985	0.235077
C37	C	2.098524	-0.266981	0.222967
H38	H	2.327580	-0.345522	0.297581
H39	H	2.254914	-0.506373	0.234333
H40	H	2.339849	-0.356684	0.182242
H41	H	2.024667	-0.286141	0.275785
H42	H	2.109812	-0.136632	0.223676
O43	O	2.021147	0.071189	0.363103
C44	C	2.255638	-0.137975	0.389191
C45	C	2.119990	-0.016849	0.427469
H46	H	2.335608	-0.209163	0.441214
H47	H	2.202485	-0.223119	0.344483
H48	H	2.329308	-0.071222	0.353534
H49	H	2.046270	-0.083468	0.463169
H50	H	2.173246	0.068291	0.472132
O51	O	2.085046	0.013215	0.760180
C52	C	2.153558	-0.214072	0.667079
C53	C	2.018454	-0.091888	0.705144
H54	H	2.099769	-0.299100	0.622587
H55	H	2.227932	-0.148389	0.631252
H56	H	2.233010	-0.285251	0.719272
H57	H	1.938889	-0.020674	0.653003
H58	H	1.944198	-0.157666	0.740992
H59	H	1.327491	0.269899	0.229019
H60	H	1.984927	0.103619	0.525807
O61	O	1.599213	0.447820	0.897348
C62	C	1.364791	0.657073	0.871282
C63	C	1.500502	0.536039	0.832999
H64	H	1.284967	0.728453	0.819275
H65	H	1.290961	0.590398	0.906881
H66	H	1.418056	0.742052	0.916045
H67	H	1.447374	0.451030	0.788200
H68	H	1.574314	0.602819	0.797451
H69	H	1.635509	0.415490	0.734647
O70	O	1.281344	0.247862	0.018718
C71	C	1.073612	0.369623	-0.083946
C72	C	1.153987	0.381021	0.005048
H73	H	0.970607	0.477250	-0.095020
H74	H	1.164760	0.368101	-0.131577
H75	H	1.025898	0.254998	-0.091103
H76	H	1.201699	0.495636	0.012287
H77	H	1.062780	0.382453	0.052636
H78	H	1.571086	0.472904	0.337490
H79	H	1.554314	0.487900	0.494858
