data_functionalizedCrystal
_audit_creation_method	'MofGen! by Chris Wilmer'
_symmetry_space_group_name_H-M	'P1'
_symmetry_Int_Tables_number	1
_symmetry_cell_setting	triclinic
loop_
_symmetry_equiv_pos_as_xyz
  x,y,z
_cell_length_a	17.699083
_cell_length_b	17.699103
_cell_length_c	16.176319
_cell_angle_alpha	89.991593
_cell_angle_beta	90.000050
_cell_angle_gamma	83.287038
loop_
_atom_site_label
_atom_site_type_symbol
_atom_site_fract_x
_atom_site_fract_y
_atom_site_fract_z
O1	O	-1.004084	-0.095709	0.068640
O2	O	-0.504084	0.404291	0.568640
O3	O	-0.783707	-0.108161	0.068668
O4	O	-0.283707	0.391839	0.568668
O5	O	-0.900114	0.008253	0.068637
O6	O	-0.400114	0.508253	0.568637
O7	O	-0.887677	-0.212123	0.068670
O8	O	-0.387677	0.287877	0.568670
O9	O	-0.900100	0.008254	-0.068856
O10	O	-0.400100	0.508254	0.431144
O11	O	-0.783693	-0.108161	-0.068825
O12	O	-0.283693	0.391839	0.431175
O13	O	-1.004071	-0.095708	-0.068853
O14	O	-0.504071	0.404292	0.431147
Cu15	Cu	-0.893881	-0.101935	-0.081394
Cu16	Cu	-0.393881	0.398065	0.418606
Cu17	Cu	-0.893897	-0.101935	0.081208
Cu18	Cu	-0.393897	0.398065	0.581208
O19	O	-0.887664	-0.212123	-0.068823
O20	O	-0.387664	0.287877	0.431177
C21	C	-0.755503	-0.107715	-0.000075
C22	C	-0.255503	0.392285	0.499925
C23	C	-0.671485	-0.106376	-0.000065
C24	C	-0.171485	0.393624	0.499935
C25	C	-0.899659	0.036450	-0.000112
C26	C	-0.399659	0.536450	0.499888
C27	C	-0.898315	0.120467	-0.000118
C28	C	-0.398315	0.620467	0.499882
C29	C	-1.032275	-0.096155	-0.000108
C30	C	-0.532275	0.403845	0.499892
C31	C	-1.116293	-0.097493	-0.000113
C32	C	-0.616293	0.402507	0.499887
C33	C	-0.888119	-0.240320	-0.000072
C34	C	-0.388119	0.259680	0.499928
C35	C	-0.889463	-0.324337	-0.000060
C36	C	-0.389463	0.175663	0.499940
C37	C	-0.622869	-0.174709	-0.000055
C38	C	-0.122869	0.325291	0.499945
C39	C	-0.543925	-0.173447	-0.000066
C40	C	-0.043925	0.326553	0.499934
C41	C	-0.513600	-0.103851	-0.000081
C42	C	-0.013600	0.396149	0.499919
C43	C	-0.562222	-0.035513	-0.000094
C44	C	-0.062222	0.464487	0.499906
C45	C	-0.641164	-0.036776	-0.000089
C46	C	-0.141164	0.463224	0.499911
C47	C	-0.243859	-0.030418	-0.000115
C48	C	0.256141	0.469582	0.499885
C49	C	-0.164910	-0.029160	-0.000117
C50	C	0.335090	0.470840	0.499883
C51	C	-0.146620	-0.167088	-0.000092
C52	C	0.353380	0.332912	0.499908
C53	C	-0.225562	-0.168351	-0.000087
C54	C	0.274438	0.331649	0.499913
C55	C	-0.274177	-0.100014	-0.000104
C56	C	0.225823	0.399986	0.499896
C57	C	-0.359777	-0.101383	-0.000094
C58	C	0.140223	0.398617	0.499906
C59	C	-0.428002	-0.102480	-0.000085
C60	C	0.071998	0.397520	0.499915
C61	C	-0.890098	0.636179	0.074884
C62	C	-0.390098	1.136179	0.574884
C63	C	-0.891360	0.557235	0.074877
C64	C	-0.391360	1.057235	0.574877
C65	C	-0.891982	0.517777	-0.000076
C66	C	-0.391982	1.017777	0.499924
C67	C	-0.891350	0.557267	-0.075026
C68	C	-0.391350	1.057267	0.424974
C69	C	-0.890093	0.636210	-0.075017
C70	C	-0.390093	1.136210	0.424983
C71	C	-0.896420	0.238901	-0.075061
C72	C	-0.396420	0.738901	0.424939
C73	C	-0.897674	0.159953	-0.075063
C74	C	-0.397674	0.659953	0.424937
C75	C	-0.897687	0.159926	0.074833
C76	C	-0.397687	0.659926	0.574833
C77	C	-0.896430	0.238869	0.074842
C78	C	-0.396430	0.738869	0.574842
C79	C	-0.895802	0.278353	-0.000108
C80	C	-0.395802	0.778353	0.499892
C81	C	-0.894434	0.363952	-0.000099
C82	C	-0.394434	0.863952	0.499901
C83	C	-0.893344	0.432178	-0.000086
C84	C	-0.393344	0.932178	0.499914
N85	N	-0.893875	-0.101934	-0.195759
N86	N	-0.393875	0.398066	0.304241
C87	C	-0.939693	-0.147782	-0.239018
C88	C	-0.439693	0.352218	0.260982
C89	C	-0.939701	-0.147779	-0.325565
C90	C	-0.439701	0.352221	0.174435
C91	C	-0.893887	-0.101932	-0.368851
C92	C	-0.393887	0.398068	0.131149
C93	C	-0.848067	-0.056078	-0.325586
C94	C	-0.348067	0.443922	0.174414
C95	C	-0.848063	-0.056077	-0.239040
C96	C	-0.348063	0.443923	0.260960
C97	C	-0.848081	-0.056079	-0.674614
C98	C	-0.348081	0.443921	-0.174614
C99	C	-0.848086	-0.056085	-0.761166
C100	C	-0.348086	0.443915	-0.261166
C101	C	-0.939719	-0.147781	-0.761139
C102	C	-0.439719	0.352219	-0.261139
C103	C	-0.939715	-0.147780	-0.674594
C104	C	-0.439715	0.352220	-0.174594
C105	C	-0.893899	-0.101924	-0.631336
C106	C	-0.393899	0.398076	-0.131336
C107	C	-0.893891	-0.101926	-0.537491
C108	C	-0.393891	0.398074	-0.037491
C109	C	-0.893889	-0.101933	-0.462694
C110	C	-0.393889	0.398067	0.037306
N111	N	-0.893909	-0.101930	0.195573
N112	N	-0.393909	0.398070	0.695573
H113	H	-0.647553	-0.231382	-0.000042
H114	H	-0.147553	0.268618	0.499958
H115	H	-0.889584	0.668299	0.135920
H116	H	-0.389584	1.168299	0.635920
H117	H	-0.891878	0.525091	0.135904
H118	H	-0.391878	1.025091	0.635904
H119	H	-0.537525	0.021153	-0.000118
H120	H	-0.037525	0.521153	0.499882
H121	H	-0.977019	-0.185117	-0.639354
H122	H	-0.477019	0.314883	-0.139354
O123	O	-0.895737	0.281427	0.155682
O124	O	-0.395737	0.781427	0.655682
H125	H	-0.896389	0.240707	0.207796
H126	H	-0.396389	0.740707	0.707796
O127	O	-0.693606	0.036925	-0.000097
O128	O	-0.193606	0.536925	0.499903
H129	H	-0.659258	0.085532	-0.000101
H130	H	-0.159258	0.585532	0.499899
O131	O	-0.798677	-0.006630	-0.807864
O132	O	-0.298677	0.493370	-0.307864
H133	H	-0.835048	0.034076	-0.847306
H134	H	-0.335048	0.534076	-0.347306
H135	H	-0.810774	-0.018740	-0.639404
H136	H	-0.310774	0.481260	-0.139404
O137	O	-0.798662	-0.006619	-0.372274
O138	O	-0.298662	0.493381	0.127726
H139	H	-0.766809	0.025271	-0.327650
H140	H	-0.266809	0.525271	0.172350
O141	O	-0.898373	0.117343	0.155677
O142	O	-0.398373	0.617343	0.655677
H143	H	-0.899360	0.055821	0.143085
H144	H	-0.399360	0.555821	0.643085
H145	H	-0.140223	0.027517	-0.000131
H146	H	0.359777	0.527517	0.499869
O147	O	-0.296290	0.043285	-0.000133
O148	O	0.203710	0.543285	0.499867
H149	H	-0.261937	0.091889	-0.000137
H150	H	0.238063	0.591889	0.499863
O151	O	-0.892028	0.514712	-0.155869
O152	O	-0.392028	1.014712	0.344131
H153	H	-0.840223	0.523041	-0.191807
H154	H	-0.340223	1.023041	0.308193
H155	H	-0.898177	0.127827	-0.136103
H156	H	-0.398177	0.627827	0.363897
H157	H	-0.107027	-0.222732	-0.000083
H158	H	0.392973	0.277268	0.499917
O159	O	-0.491486	-0.247148	-0.000056
O160	O	0.008514	0.252852	0.499944
H161	H	-0.525836	-0.295754	-0.000034
H162	H	-0.025836	0.204246	0.499966
O163	O	-0.258273	-0.243414	-0.000083
O164	O	0.241727	0.256586	0.499917
H165	H	-0.211203	-0.290720	-0.000090
H166	H	0.288797	0.209280	0.499910
H167	H	-0.977027	-0.185117	-0.796370
H168	H	-0.477027	0.314883	-0.296370
H169	H	-0.895909	0.271039	-0.136089
H170	H	-0.395909	0.771039	0.363911
H171	H	-0.889576	0.668357	-0.136045
H172	H	-0.389576	1.168357	0.363955
H173	H	-0.976996	-0.185121	-0.203781
H174	H	-0.476996	0.314879	0.296219
O175	O	-0.798641	-0.006632	-0.192375
O176	O	-0.298641	0.493368	0.307625
H177	H	-0.766777	0.025243	-0.237013
H178	H	-0.266777	0.525243	0.262987
H179	H	-0.977012	-0.185112	-0.360783
H180	H	-0.477012	0.314888	0.139217
