data_functionalizedCrystal
_audit_creation_method	'MofGen! by Chris Wilmer'
_symmetry_space_group_name_H-M	'P1'
_symmetry_Int_Tables_number	1
_symmetry_cell_setting	triclinic
loop_
_symmetry_equiv_pos_as_xyz
  x,y,z
_cell_length_a	10.723023
_cell_length_b	27.732064
_cell_length_c	9.798715
_cell_angle_alpha	90.000953
_cell_angle_beta	89.996770
_cell_angle_gamma	83.558486
loop_
_atom_site_label
_atom_site_type_symbol
_atom_site_fract_x
_atom_site_fract_y
_atom_site_fract_z
O1	O	1.654393	0.067787	-0.113463
O2	O	1.290973	0.074276	-0.113468
O3	O	1.483959	0.000705	-0.113471
O4	O	1.461407	0.141357	-0.113460
O5	O	1.483945	0.000705	0.113511
O6	O	1.290959	0.074276	0.113514
O7	O	1.654379	0.067787	0.113519
Zn8	Zn	1.472666	0.071031	0.149555
Zn9	Zn	1.472685	0.071031	-0.149504
O10	O	1.461392	0.141357	0.113522
C11	C	1.244486	0.073804	0.000023
C12	C	1.105990	0.072391	0.000020
C13	C	1.044236	0.071761	0.117603
C14	C	0.901093	0.070301	0.117603
C15	C	1.483476	-0.017305	0.000016
C16	C	1.482040	-0.070968	0.000003
C17	C	1.358226	-0.448809	-0.000004
C18	C	1.363508	-0.247116	-0.000005
O19	O	1.267431	-0.216460	-0.000061
N20	N	1.477945	-0.227278	-0.000004
C21	C	1.591070	-0.257867	-0.000011
O22	O	1.688527	-0.236366	-0.000024
C23	C	1.585787	-0.459559	-0.000019
C24	C	1.471342	-0.479394	-0.000007
C25	C	1.243790	-0.468645	0.000007
C26	C	1.242471	-0.519065	0.000015
C27	C	1.355587	-0.549650	0.000012
C28	C	1.470023	-0.529815	0.000001
C29	C	1.698910	-0.490147	-0.000036
C30	C	1.697579	-0.540573	-0.000042
C31	C	1.583135	-0.560408	-0.000029
C32	C	1.581820	-0.610820	0.000006
N33	N	1.467382	-0.630658	0.000005
C34	C	1.354266	-0.600073	0.000008
C35	C	1.593836	-0.151976	-0.000004
C36	C	1.595157	-0.101553	0.000000
C37	C	1.367594	-0.090805	0.000004
C38	C	1.366274	-0.141229	0.000009
C39	C	1.479398	-0.171814	-0.000006
C40	C	1.351504	-0.705960	0.000025
C41	C	1.350195	-0.756385	0.000039
C42	C	1.577757	-0.767128	0.000028
C43	C	1.579067	-0.716707	0.000022
C44	C	1.465930	-0.686124	0.000016
O45	O	1.677845	-0.641505	0.000046
O46	O	1.256823	-0.621584	-0.000010
C47	C	1.359545	-0.398389	-0.000011
C48	C	1.473980	-0.378554	-0.000022
C49	C	1.587097	-0.409138	-0.000026
C50	C	1.475302	-0.328131	-0.000018
C51	C	1.362185	-0.297546	-0.000015
C52	C	1.247748	-0.317384	-0.000016
C53	C	1.246429	-0.367804	-0.000008
C54	C	1.701534	-0.389301	-0.000024
C55	C	1.702844	-0.338880	-0.000031
C56	C	1.589728	-0.308295	-0.000028
C57	C	1.700866	0.068259	0.000026
C58	C	1.839362	0.069671	0.000019
C59	C	1.461876	0.159367	0.000032
C60	C	1.463311	0.213030	0.000036
N61	N	1.472663	0.071031	0.353655
N62	N	1.472699	0.071028	-0.353604
C63	C	1.553698	0.040004	0.421430
C64	C	1.553718	0.040003	0.578593
H65	H	1.256997	-0.772531	0.000055
C66	C	1.120530	-0.389616	-0.000005
N67	N	1.025696	-0.406041	-0.000006
H68	H	1.793649	-0.414198	-0.000028
H69	H	1.623100	0.013441	0.636877
H70	H	1.623057	0.013440	0.363107
H71	H	1.259378	-0.681064	0.000020
H72	H	0.892460	0.070216	-0.100653
H73	H	1.052887	0.071848	-0.100646
C74	C	1.824811	-0.468340	-0.000057
N75	N	1.919647	-0.451917	-0.000076
C76	C	1.378966	0.106916	0.567668
N77	N	1.308364	0.133946	0.508360
C78	C	1.123320	-0.283731	-0.000018
N79	N	1.029606	-0.258381	-0.000029
H80	H	1.097341	0.072300	0.218269
C81	C	0.829352	0.069569	0.253605
N82	N	0.775314	0.069018	0.356045
H83	H	1.149279	-0.535210	0.000014
H84	H	1.688349	-0.085408	0.000011
C85	C	1.240377	-0.163043	0.000010
N86	N	1.145547	-0.179470	0.000006
H87	H	1.403295	0.097591	0.411980
C88	C	1.243165	-0.057153	-0.000004
N89	N	1.149451	-0.031803	-0.000022
C90	C	1.718290	-0.185613	0.000003
N91	N	1.812030	-0.210946	0.000020
H92	H	1.151672	-0.443747	0.000006
H93	H	1.789701	-0.565473	-0.000061
H94	H	1.796045	-0.322735	-0.000030
C95	C	1.704961	-0.694888	0.000016
N96	N	1.799787	-0.678457	-0.000004
C97	C	1.702179	-0.800780	0.000022
N98	N	1.795894	-0.826129	0.000007
