data_functionalizedCrystal
_audit_creation_method	'MofGen! by Chris Wilmer'
_symmetry_space_group_name_H-M	'P1'
_symmetry_Int_Tables_number	1
_symmetry_cell_setting	triclinic
loop_
_symmetry_equiv_pos_as_xyz
  x,y,z
_cell_length_a	9.065218
_cell_length_b	13.596369
_cell_length_c	14.519709
_cell_angle_alpha	90.006934
_cell_angle_beta	95.651952
_cell_angle_gamma	89.992526
loop_
_atom_site_label
_atom_site_type_symbol
_atom_site_fract_x
_atom_site_fract_y
_atom_site_fract_z
O1	O	-1.957869	0.081844	0.135229
O2	O	-1.528376	0.081835	0.146321
O3	O	-1.754510	0.081831	0.006620
O4	O	-1.731735	0.081848	0.274930
O5	O	-1.754487	-0.081752	0.006612
O6	O	-1.528353	-0.081748	0.146313
O7	O	-1.957846	-0.081739	0.135221
Zn8	Zn	-1.743096	-0.107715	0.140766
Zn9	Zn	-1.743126	0.107812	0.140776
O10	O	-1.731712	-0.081734	0.274922
C11	C	-1.473398	0.000043	0.145251
C12	C	-1.309615	0.000039	0.142063
N13	N	-1.743087	-0.254807	0.140758
C14	C	-1.743124	-0.656098	0.140777
C15	C	-1.743109	-0.544447	0.140775
C16	C	-1.743106	-0.455456	0.140768
C17	C	-1.743090	-0.343798	0.140765
C18	C	-1.012824	0.000050	0.136291
C19	C	-1.176607	0.000042	0.139478
C20	C	-1.753437	0.000040	-0.027752
C21	C	-1.750256	0.000039	-0.130156
N22	N	-1.743147	0.254904	0.140776
C23	C	-1.738547	0.000064	-0.505138
C24	C	-1.741799	0.000057	-0.400806
C25	C	-1.744401	0.000051	-0.317650
C26	C	-1.747654	0.000045	-0.213312
C27	C	-1.732785	0.000059	0.309294
C28	C	-1.735966	0.000066	0.411698
