data_functionalizedCrystal
_audit_creation_method	'MofGen! by Chris Wilmer'
_symmetry_space_group_name_H-M	'P1'
_symmetry_Int_Tables_number	1
_symmetry_cell_setting	triclinic
loop_
_symmetry_equiv_pos_as_xyz
  x,y,z
_cell_length_a	12.645329
_cell_length_b	16.625548
_cell_length_c	16.625539
_cell_angle_alpha	90.020568
_cell_angle_beta	89.974372
_cell_angle_gamma	89.980954
loop_
_atom_site_label
_atom_site_type_symbol
_atom_site_fract_x
_atom_site_fract_y
_atom_site_fract_z
Zn1	Zn	-0.422007	-1.232706	-0.455924
Zn2	Zn	-0.599293	-1.232619	-0.321098
Zn3	Zn	-0.422048	-1.097867	-0.321105
Zn4	Zn	-0.599232	-1.097848	-0.455888
O5	O	-0.510645	-1.165260	-0.388504
O6	O	-0.445533	-1.345527	-0.438052
O7	O	-0.575824	-1.214716	-0.208266
O8	O	-0.273695	-1.115798	-0.339007
O9	O	-0.575784	-1.345463	-0.338995
O10	O	-0.273665	-1.214863	-0.438059
O11	O	-0.445602	-1.115714	-0.208272
O12	O	-0.445543	-0.985033	-0.338972
O13	O	-0.575681	-1.115766	-0.568725
O14	O	-0.575720	-0.985019	-0.437996
O15	O	-0.445474	-1.214845	-0.568752
O16	O	-0.747632	-1.214698	-0.338960
O17	O	-0.747588	-1.115682	-0.437989
C18	C	-0.510630	-0.955769	-0.388481
C19	C	-0.510649	-0.866148	-0.388491
C20	C	-0.510566	-1.165313	-0.598813
C21	C	-0.510533	-1.165335	-0.688434
C22	C	-0.786075	-1.165200	-0.388487
C23	C	-0.903905	-1.165248	-0.388507
C24	C	-0.948803	-1.102928	-0.450771
C25	C	-1.071363	-1.103187	-0.451041
C26	C	-1.071670	-1.250376	-0.411407
C27	C	-0.949072	-1.249941	-0.411833
C28	C	-0.949195	-1.143340	-0.303243
C29	C	-1.071803	-1.141540	-0.303723
C30	C	-0.234140	-1.165342	-0.388538
C31	C	-0.116310	-1.165377	-0.388552
C32	C	-0.510661	-1.375569	-0.388527
C33	C	-0.510668	-1.465190	-0.388537
C34	C	-0.510656	-0.537973	-0.388525
C35	C	-0.510651	-0.629281	-0.388513
C36	C	-0.510653	-0.702058	-0.388507
C37	C	-0.510647	-0.793372	-0.388496
C38	C	-0.510414	-1.165372	-1.016610
C39	C	-0.510450	-1.165360	-0.925301
C40	C	-0.510474	-1.165354	-0.852525
C41	C	-0.510509	-1.165341	-0.761210
C42	C	-0.510647	-1.165254	-0.179013
C43	C	-0.510382	-1.165388	-0.089392
H44	H	-0.919431	-1.039672	-0.436643
H45	H	-0.919362	-1.297972	-0.368444
H46	H	-1.102414	-1.183633	-0.254878
H47	H	-1.100994	-1.078986	-0.286484
O48	O	-0.914676	-1.272079	-0.486127
C49	C	-0.803191	-1.271950	-0.487489
H50	H	-0.771813	-1.279107	-0.423620
H51	H	-0.773800	-1.323959	-0.526220
H52	H	-0.773810	-1.212681	-0.513727
O53	O	-1.107507	-1.028009	-0.434130
C54	C	-1.169179	-0.999841	-0.498899
H55	H	-1.200489	-1.053207	-0.534765
H56	H	-1.238448	-0.963175	-0.474718
H57	H	-1.118473	-0.960364	-0.539587
H58	H	-1.102295	-1.269279	-0.473057
O59	O	-0.912091	-1.120153	-0.525722
C60	C	-0.944521	-1.198212	-0.547857
H61	H	-1.017497	-1.215746	-0.511608
H62	H	-0.964334	-1.199327	-0.614735
H63	H	-0.877958	-1.242680	-0.535130
O64	O	-0.914673	-1.197429	-0.247800
C65	C	-0.955734	-1.177192	-0.171572
H66	H	-1.030343	-1.139489	-0.179360
H67	H	-0.975715	-1.234509	-0.137162
H68	H	-0.894349	-1.141216	-0.136555
H69	H	-1.100618	-1.117769	-0.514225
H70	H	-1.100775	-1.298115	-0.367464
H71	H	-0.918375	-1.082378	-0.282387
