data_functionalizedCrystal
_audit_creation_method	'MofGen! by Chris Wilmer'
_symmetry_space_group_name_H-M	'P1'
_symmetry_Int_Tables_number	1
_symmetry_cell_setting	triclinic
loop_
_symmetry_equiv_pos_as_xyz
  x,y,z
_cell_length_a	18.050591
_cell_length_b	29.839131
_cell_length_c	18.050583
_cell_angle_alpha	89.960819
_cell_angle_beta	89.977979
_cell_angle_gamma	90.037426
loop_
_atom_site_label
_atom_site_type_symbol
_atom_site_fract_x
_atom_site_fract_y
_atom_site_fract_z
Zn1	Zn	1.135232	-0.178869	-0.420016
Zn2	Zn	1.135112	-0.254009	-0.295820
Zn3	Zn	1.011049	-0.178889	-0.295828
Zn4	Zn	1.010971	-0.253967	-0.419956
O5	O	1.073091	-0.216434	-0.357905
O6	O	1.239141	-0.188846	-0.403564
O7	O	1.118637	-0.244070	-0.191896
O8	O	1.027606	-0.116019	-0.312330
O9	O	1.239053	-0.244051	-0.312317
O10	O	1.118842	-0.116004	-0.403571
O11	O	1.027489	-0.188879	-0.191902
O12	O	0.907114	-0.188839	-0.312271
O13	O	1.027472	-0.243980	-0.523888
O14	O	0.907057	-0.243999	-0.403467
O15	O	1.118767	-0.188805	-0.523933
O16	O	1.118562	-0.316871	-0.312258
O17	O	1.027356	-0.316840	-0.403460
C18	C	0.880139	-0.216417	-0.357864
C19	C	0.797593	-0.216421	-0.357864
C20	C	1.072957	-0.333156	-0.357868
C21	C	1.072968	-0.383091	-0.357877
C22	C	0.598152	-0.186390	-0.308386
C23	C	0.548717	-0.227368	-0.290106
C24	C	0.646463	-0.216434	-0.357897
C25	C	0.548817	-0.175470	-0.376175
C26	C	0.500478	-0.216444	-0.357928
C27	C	0.598115	-0.257434	-0.339583
C28	C	0.598219	-0.205509	-0.425683
C29	C	0.548806	-0.246515	-0.407429
C30	C	0.730561	-0.216428	-0.357878
C31	C	0.416381	-0.216454	-0.357948
C32	C	1.120669	-0.692737	-0.310486
C33	C	1.120760	-0.880410	-0.310514
O34	O	1.161211	-0.904678	-0.270192
N35	N	1.073245	-0.903876	-0.357961
C36	C	1.025707	-0.880420	-0.405407
O37	O	0.985301	-0.904685	-0.445769
C38	C	1.025620	-0.692748	-0.405381
C39	C	1.073133	-0.669285	-0.357926
C40	C	1.168178	-0.669274	-0.263035
C41	C	1.168152	-0.622359	-0.263025
C42	C	1.120616	-0.598906	-0.310466
C43	C	1.073107	-0.622369	-0.357917
C44	C	0.978087	-0.669293	-0.452831
C45	C	0.978070	-0.622372	-0.452822
C46	C	1.025583	-0.598909	-0.405367
C47	C	1.025545	-0.552001	-0.405348
N48	N	1.073060	-0.528536	-0.357902
C49	C	1.120595	-0.551989	-0.310461
C50	C	1.025756	-0.978950	-0.405416
C51	C	1.025776	-1.025868	-0.405422
C52	C	1.120830	-1.025855	-0.310530
C53	C	1.120805	-0.978937	-0.310521
C54	C	1.073271	-0.955485	-0.357970
C55	C	1.120536	-0.453463	-0.310444
C56	C	1.120503	-0.406543	-0.310436
C57	C	1.025453	-0.406560	-0.405331
C58	C	1.025482	-0.453475	-0.405336
C59	C	1.073030	-0.476926	-0.357890
O60	O	0.985121	-0.527705	-0.445655
O61	O	1.161008	-0.527715	-0.270116
C62	C	1.120695	-0.739653	-0.310495
C63	C	1.073185	-0.763116	-0.357946
C64	C	1.025650	-0.739663	-0.405387
C65	C	1.073206	-0.810033	-0.357951
C66	C	1.120742	-0.833486	-0.310510
C67	C	1.168257	-0.810021	-0.263064
C68	C	1.168230	-0.763105	-0.263054
C69	C	0.978135	-0.763128	-0.452833
C70	C	0.978164	-0.810044	-0.452838
C71	C	1.025700	-0.833496	-0.405397
C72	C	1.266797	-0.216451	-0.357947
C73	C	1.349343	-0.216458	-0.357964
C74	C	1.073124	-0.216386	-0.551611
C75	C	1.073138	-0.216365	-0.634156
C76	C	1.073246	-0.099255	-0.357958
C77	C	1.073312	-0.049321	-0.357981
C78	C	1.122834	-0.186347	-0.833632
C79	C	1.055104	-0.175349	-0.883020
C80	C	1.073168	-0.216357	-0.785287
C81	C	1.140925	-0.227327	-0.882980
C82	C	1.073203	-0.216349	-0.931272
C83	C	1.005403	-0.205338	-0.833588
C84	C	1.091269	-0.257336	-0.833544
C85	C	1.023492	-0.246353	-0.882910
C86	C	1.073149	-0.216361	-0.701189
C87	C	1.073214	-0.216346	-1.015369
C88	C	1.073101	-0.216449	-0.164953
C89	C	1.073231	-0.216343	-0.082407
H90	H	0.619819	-0.161009	-0.266470
C91	C	0.476555	-0.278892	-0.217627
C92	C	0.519290	-0.239826	-0.212755
H93	H	0.458374	-0.286574	-0.169876
H94	H	0.436064	-0.273933	-0.250201
H95	H	0.506250	-0.302666	-0.236098
H96	H	0.489594	-0.216051	-0.194288
H97	H	0.559787	-0.244783	-0.180169
C98	C	0.442165	-0.280326	-0.463961
C99	C	0.519732	-0.280855	-0.463974
H100	H	0.424217	-0.301525	-0.498872
H101	H	0.424470	-0.287847	-0.415972
H102	H	0.425203	-0.251250	-0.477045
H103	H	0.536694	-0.309930	-0.450886
H104	H	0.537434	-0.273337	-0.511974
H105	H	1.039805	-0.140691	-0.904753
C106	C	1.131170	-0.926217	-0.210621
C107	C	1.173035	-0.953149	-0.258361
H108	H	1.163418	-0.910301	-0.178417
H109	H	1.102869	-0.905533	-0.238874
H110	H	1.098838	-0.944556	-0.182188
H111	H	1.205363	-0.934810	-0.286798
H112	H	1.201349	-0.973835	-0.230105
H113	H	1.106588	-0.291984	-0.811797
C114	C	0.602764	-0.150070	-0.522043
C115	C	0.627603	-0.193008	-0.503027
H116	H	0.620911	-0.142349	-0.569790
H117	H	0.550150	-0.149714	-0.522510
H118	H	0.620399	-0.129025	-0.486730
H119	H	0.609964	-0.214053	-0.538338
H120	H	0.680228	-0.193367	-0.502566
H121	H	0.948100	-0.196016	-0.811984
H122	H	1.206891	-0.688364	-0.224403
C123	C	1.163143	-1.097775	-0.268495
C124	C	1.173139	-1.051640	-0.258438
H125	H	1.195456	-1.113694	-0.236359
H126	H	1.113279	-1.105510	-0.257519
H127	H	1.173926	-1.105411	-0.318429
H128	H	1.162351	-1.044005	-0.208505
H129	H	1.223014	-1.043903	-0.269409
H130	H	0.527123	-0.140828	-0.391596
C131	C	1.214467	-0.411250	-0.216640
C132	C	1.172736	-0.380753	-0.258273
H133	H	1.246716	-0.395329	-0.184443
H134	H	1.182138	-0.429582	-0.188205
H135	H	1.242860	-0.429518	-0.249041
H136	H	1.144340	-0.362488	-0.225873
H137	H	1.205070	-0.362414	-0.286710
C138	C	0.884175	-0.767863	-0.546617
C139	C	0.925872	-0.737354	-0.504978
H140	H	0.851902	-0.751951	-0.578805
H141	H	0.916524	-0.786126	-0.575063
H142	H	0.855810	-0.786198	-0.514221
H143	H	0.954241	-0.719021	-0.537374
H144	H	0.893518	-0.719083	-0.476530
H145	H	1.206843	-0.603258	-0.224386
C146	C	0.704789	-0.303785	-0.318778
C147	C	0.627219	-0.304219	-0.318635
H148	H	0.722757	-0.332667	-0.305840
H149	H	0.722145	-0.295974	-0.366764
H150	H	0.722073	-0.282422	-0.283814
H151	H	0.609936	-0.325579	-0.353603
H152	H	0.609857	-0.312035	-0.270642
C153	C	1.220499	-0.506151	-0.300238
C154	C	1.172812	-0.479229	-0.258296
H155	H	1.252775	-0.522054	-0.268042
H156	H	1.192212	-0.526847	-0.328480
H157	H	1.248858	-0.487808	-0.332627
H158	H	1.144449	-0.497573	-0.225910
H159	H	1.201102	-0.458531	-0.230040
H160	H	0.987080	-1.044968	-0.444057
H161	H	1.198211	-0.236608	-0.904678
C162	C	0.967652	-0.280578	-0.989518
C163	C	0.966750	-0.280606	-0.911950
H164	H	0.932623	-0.301724	-1.007447
H165	H	0.955218	-0.251555	-1.007199
H166	H	1.015727	-0.288444	-1.006513
H167	H	0.918677	-0.272737	-0.894955
H168	H	0.979180	-0.309636	-0.894262
H169	H	0.987045	-0.959859	-0.444056
H170	H	0.939393	-0.688388	-0.491470
C171	C	0.967812	-0.862758	-0.552744
C172	C	0.925935	-0.835832	-0.505007
H173	H	0.935570	-0.878679	-0.584949
H174	H	1.000137	-0.844420	-0.581170
H175	H	0.996118	-0.883442	-0.524484
H176	H	0.897632	-0.815145	-0.533266
H177	H	0.893596	-0.854172	-0.476578
C178	C	1.294047	-0.824400	-0.227031
C179	C	1.220521	-0.835798	-0.210916
H180	H	1.326314	-0.840312	-0.194838
H181	H	1.304875	-0.832060	-0.276937
H182	H	1.300817	-0.793098	-0.220234
H183	H	1.213749	-0.867099	-0.217719
H184	H	1.209690	-0.828141	-0.160998
H185	H	0.939363	-0.603279	-0.491462
C186	C	0.931528	-0.448773	-0.499136
C187	C	0.973256	-0.479269	-0.457498
H188	H	0.899294	-0.464695	-0.531346
H189	H	0.903127	-0.430511	-0.466745
H190	H	0.963865	-0.430435	-0.527564
H191	H	0.940919	-0.497604	-0.429065
H192	H	1.001659	-0.497538	-0.489893
H193	H	0.986747	-0.387458	-0.443954
C194	C	1.178598	-0.710391	-0.163147
C195	C	1.220462	-0.737320	-0.210892
H196	H	1.210847	-0.694477	-0.130940
H197	H	1.150296	-0.689705	-0.191395
H198	H	1.146267	-0.728731	-0.134716
H199	H	1.252789	-0.718979	-0.239327
H200	H	1.248776	-0.758008	-0.182640
C201	C	1.160317	-0.109172	-0.829388
C202	C	1.179440	-0.152067	-0.804409
H203	H	1.195259	-0.088009	-0.811341
H204	H	1.160411	-0.108745	-0.882003
H205	H	1.112317	-0.101667	-0.811747
H206	H	1.227438	-0.159574	-0.822055
H207	H	1.179354	-0.152495	-0.751783
