data_functionalizedCrystal
_audit_creation_method	'MofGen! by Chris Wilmer'
_symmetry_space_group_name_H-M	'P1'
_symmetry_Int_Tables_number	1
_symmetry_cell_setting	triclinic
loop_
_symmetry_equiv_pos_as_xyz
  x,y,z
_cell_length_a	17.638336
_cell_length_b	17.640280
_cell_length_c	16.959447
_cell_angle_alpha	78.773258
_cell_angle_beta	78.788039
_cell_angle_gamma	65.685103
loop_
_atom_site_label
_atom_site_type_symbol
_atom_site_fract_x
_atom_site_fract_y
_atom_site_fract_z
Zn1	Zn	1.326460	-0.583267	-0.596897
Zn2	Zn	1.826460	-0.083267	-0.096897
Zn3	Zn	1.354267	-0.721084	-0.442503
Zn4	Zn	1.854267	-0.221084	0.057497
Zn5	Zn	1.188641	-0.555389	-0.442543
Zn6	Zn	1.688641	-0.055389	0.057457
Zn7	Zn	1.216475	-0.693128	-0.552471
Zn8	Zn	1.716475	-0.193128	-0.052471
O9	O	1.271461	-0.638217	-0.508603
O10	O	1.771461	-0.138217	-0.008603
O11	O	1.445493	-0.624915	-0.594992
O12	O	1.945493	-0.124915	-0.094992
O13	O	1.332286	-0.699137	-0.331888
O14	O	1.832286	-0.199137	0.168112
O15	O	1.183637	-0.443766	-0.481628
O16	O	1.683637	0.056234	0.018372
O17	O	1.465923	-0.726168	-0.481559
O18	O	1.965923	-0.226168	0.018441
O19	O	1.284892	-0.464248	-0.595031
O20	O	1.784892	0.035752	-0.095031
O21	O	1.210601	-0.577402	-0.331918
O22	O	1.710601	-0.077402	0.168082
O23	O	1.076989	-0.550294	-0.438549
O24	O	1.576989	-0.050294	0.061451
O25	O	1.231076	-0.678522	-0.668984
O26	O	1.731076	-0.178522	-0.168984
O27	O	1.097438	-0.651490	-0.519313
O28	O	1.597438	-0.151490	-0.019313
O29	O	1.311881	-0.597807	-0.701624
O30	O	1.811881	-0.097807	-0.201624
O31	O	1.359275	-0.832696	-0.438481
O32	O	1.859275	-0.332696	0.061519
O33	O	1.258039	-0.812157	-0.519274
O34	O	1.758039	-0.312157	-0.019274
C35	C	1.057306	-0.594834	-0.474115
C36	C	1.557306	-0.094834	0.025885
C37	C	0.965694	-0.576295	-0.459376
C38	C	1.465694	-0.076295	0.040624
C39	C	1.314717	-0.852333	-0.474073
C40	C	1.814717	-0.352333	0.025927
C41	C	1.333298	-0.943948	-0.459339
C42	C	1.833298	-0.443948	0.040661
C43	C	0.825884	-0.497396	-0.396645
C44	C	1.325884	0.002604	0.103355
C45	C	0.911969	-0.514823	-0.410499
C46	C	1.411969	-0.014823	0.089501
C47	C	0.933349	-0.620368	-0.494415
C48	C	1.433349	-0.120368	0.005585
C49	C	0.847265	-0.602953	-0.480565
C50	C	1.347265	-0.102953	0.019435
C51	C	0.793539	-0.541466	-0.431679
C52	C	1.293539	-0.041466	0.068321
C53	C	0.814919	-0.647023	-0.515600
C54	C	1.314919	-0.147023	-0.015600
C55	C	0.728842	-0.629606	-0.501753
C56	C	1.228842	-0.129606	-0.001753
C57	C	0.675110	-0.568120	-0.452872
C58	C	1.175110	-0.068120	0.047128
C59	C	0.707461	-0.524049	-0.417833
C60	C	1.207461	-0.024049	0.082167
C61	C	0.868646	-0.708506	-0.564490
C62	C	1.368646	-0.208506	-0.064490
C63	C	0.836301	-0.752575	-0.599524
C64	C	1.336301	-0.252575	-0.099524
C65	C	0.750223	-0.735163	-0.585674
C66	C	1.250223	-0.235163	-0.085674
C67	C	0.696491	-0.673676	-0.536793
C68	C	1.196491	-0.173676	-0.036793
C69	C	0.717872	-0.779233	-0.620713
C70	C	1.217872	-0.279233	-0.120713
C71	C	0.631794	-0.761817	-0.606867
C72	C	1.131794	-0.261817	-0.106867
C73	C	0.610414	-0.656260	-0.522946
C74	C	1.110414	-0.156260	-0.022946
C75	C	1.130643	-1.191882	-0.620875
C76	C	1.630643	-0.691882	-0.120875
C77	C	1.148104	-1.277968	-0.607006
C78	C	1.648104	-0.777968	-0.107006
C79	C	1.253587	-1.299304	-0.522989
C80	C	1.753587	-0.799304	-0.022989
C81	C	1.236137	-1.213218	-0.536854
C82	C	1.736137	-0.713218	-0.036854
C83	C	1.174664	-1.159513	-0.585798
C84	C	1.674664	-0.659513	-0.085798
C85	C	1.280158	-1.180849	-0.501777
C86	C	1.780158	-0.680849	-0.001777
C87	C	1.262707	-1.094770	-0.515638
C88	C	1.762707	-0.594770	-0.015638
C89	C	1.201235	-1.041060	-0.564577
C90	C	1.701235	-0.541060	-0.064577
C91	C	1.157213	-1.073434	-0.599659
C92	C	1.657213	-0.573434	-0.099659
C93	C	1.341627	-1.234554	-0.452829
C94	C	1.841627	-0.734554	0.047171
C95	C	1.385647	-1.202185	-0.417751
C96	C	1.885647	-0.702185	0.082249
C97	C	1.368200	-1.116106	-0.431617
C98	C	1.868200	-0.616106	0.068383
C99	C	1.306729	-1.062396	-0.480556
C100	C	1.806729	-0.562396	0.019444
C101	C	1.412222	-1.083731	-0.396535
C102	C	1.912222	-0.583731	0.103465
C103	C	1.394771	-0.997652	-0.410396
C104	C	1.894771	-0.497652	0.089604
C105	C	1.289277	-0.976317	-0.494417
C106	C	1.789277	-0.476317	0.005583
C107	C	1.486452	-0.681770	-0.543227
C108	C	1.986452	-0.181770	-0.043227
C109	C	1.578068	-0.700329	-0.557981
C110	C	2.078068	-0.200329	-0.057981
C111	C	1.271481	-0.638156	-0.714788
C112	C	1.771481	-0.138156	-0.214788
C113	C	1.271490	-0.638130	-0.802652
C114	C	1.771490	-0.138130	-0.302652
C115	C	1.228058	-0.423270	-0.543290
C116	C	1.728058	0.076730	-0.043290
C117	C	1.209562	-0.331672	-0.558071
C118	C	1.709562	0.168328	-0.058071
C119	C	1.229499	-0.680087	-1.157166
C120	C	1.729499	-0.180087	-0.657166
C121	C	1.313643	-0.596038	-1.191149
C122	C	1.813643	-0.096038	-0.691149
C123	C	1.313624	-0.596051	-1.108597
C124	C	1.813624	-0.096051	-0.608597
C125	C	1.271544	-0.638084	-1.050325
C126	C	1.771544	-0.138084	-0.550325
C127	C	1.229481	-0.680103	-1.074606
C128	C	1.729481	-0.180103	-0.574606
C129	C	1.355693	-0.554040	-1.084310
C130	C	1.855693	-0.054040	-0.584310
C131	C	1.355677	-0.554052	-1.001753
C132	C	1.855677	-0.054052	-0.501753
C133	C	1.313591	-0.596080	-0.943480
C134	C	1.813591	-0.096080	-0.443480
C135	C	1.271526	-0.638100	-0.967765
C136	C	1.771526	-0.138100	-0.467765
C137	C	1.229445	-0.680133	-0.909493
C138	C	1.729445	-0.180133	-0.409493
C139	C	1.187375	-0.722149	-0.933776
C140	C	1.687375	-0.222149	-0.433776
C141	C	1.187395	-0.722131	-1.016332
C142	C	1.687395	-0.222131	-0.516332
C143	C	1.313571	-0.596097	-0.860924
C144	C	1.813571	-0.096097	-0.360924
C145	C	1.229428	-0.680149	-0.826932
C146	C	1.729428	-0.180149	-0.326932
C147	C	1.271476	-0.638228	-0.303238
C148	C	1.771476	-0.138228	0.196762
C149	C	1.271580	-0.638054	-0.215438
C150	C	1.771580	-0.138054	0.284562
H151	H	0.566666	-0.606190	-0.483139
H152	H	1.066666	-0.106190	0.016861
H153	H	0.605020	-0.553936	-0.441604
H154	H	1.105020	-0.053936	0.058396
F155	F	0.768702	-0.431964	-0.344603
F156	F	1.268702	0.068036	0.155397
F157	F	1.400482	-0.509316	-1.146329
F158	F	1.900482	-0.009316	-0.646329
F159	F	0.946390	-0.467914	-0.373205
F160	F	1.446390	0.032086	0.126795
H161	H	1.303636	-1.343041	-0.483137
H162	H	1.803636	-0.843041	0.016863
H163	H	1.435696	-1.245922	-0.377899
H164	H	1.935696	-0.745922	0.122101
H165	H	1.462268	-1.127469	-0.356679
H166	H	1.962268	-0.627469	0.143321
F167	F	1.184634	-0.724882	-0.764920
F168	F	1.684634	-0.224882	-0.264920
H169	H	0.663714	-0.473980	-0.378026
H170	H	1.163714	0.026020	0.121974
H171	H	1.347826	-0.561891	-0.841156
H172	H	1.847826	-0.061891	-0.341156
F173	F	0.775060	-0.844668	-0.672741
F174	F	1.275060	-0.344668	-0.172741
H175	H	1.347908	-0.561823	-1.238598
H176	H	1.847908	-0.061823	-0.738598
H177	H	1.430617	-0.971298	-0.381831
H178	H	1.930617	-0.471298	0.118169
H179	H	0.977104	-0.670429	-0.534220
H180	H	1.477104	-0.170429	-0.034220
H181	H	1.389933	-0.519839	-0.981990
H182	H	1.889933	-0.019839	-0.481990
F183	F	1.142596	-0.766886	-0.871750
F184	F	1.642596	-0.266886	-0.371750
F185	F	0.960259	-0.727042	-0.579223
F186	F	1.460259	-0.227042	-0.079223
H187	H	1.195244	-0.714292	-1.176941
H188	H	1.695244	-0.214292	-0.676941
F189	F	0.893489	-0.818016	-0.651546
F190	F	1.393489	-0.318016	-0.151546
F191	F	1.142629	-0.766847	-1.042183
F192	F	1.642629	-0.266847	-0.542183
F193	F	0.597367	-0.808718	-0.644157
F194	F	1.097367	-0.308718	-0.144157
F195	F	1.182810	-0.949476	-0.579496
F196	F	1.682810	-0.449476	-0.079496
F197	F	1.091793	-1.016274	-0.651758
F198	F	1.591793	-0.516274	-0.151758
F199	F	1.223857	-0.919156	-0.546516
F200	F	1.723857	-0.419156	-0.046516
H201	H	1.080592	-1.148154	-0.660737
H202	H	1.580592	-0.648154	-0.160737
F203	F	1.101239	-1.312412	-0.644336
F204	F	1.601239	-0.812412	-0.144336
F205	F	1.360221	-1.326173	-0.438103
F206	F	1.860221	-0.826173	0.061897
