data_functionalizedCrystal
_audit_creation_method	'MofGen! by Chris Wilmer'
_symmetry_space_group_name_H-M	'P1'
_symmetry_Int_Tables_number	1
_symmetry_cell_setting	triclinic
loop_
_symmetry_equiv_pos_as_xyz
  x,y,z
_cell_length_a	14.519731
_cell_length_b	15.944551
_cell_length_c	12.996460
_cell_angle_alpha	89.992903
_cell_angle_beta	89.994327
_cell_angle_gamma	83.593795
loop_
_atom_site_label
_atom_site_type_symbol
_atom_site_fract_x
_atom_site_fract_y
_atom_site_fract_z
O1	O	1.223664	0.110194	-0.085571
O2	O	0.955167	0.123142	-0.085573
O3	O	1.096748	-0.005595	-0.085563
O4	O	1.082083	0.238932	-0.085582
O5	O	1.096733	-0.005603	0.085571
O6	O	0.955152	0.123135	0.085561
O7	O	1.223649	0.110187	0.085563
Cu8	Cu	1.089399	0.116660	0.101187
Cu9	Cu	1.089417	0.116669	-0.101198
O10	O	1.082069	0.238925	0.085552
C11	C	0.920801	0.122532	-0.000006
C12	C	0.818424	0.120714	-0.000007
C13	C	0.735283	0.119237	-0.000011
C14	C	0.630977	0.117391	-0.000011
C15	C	0.547841	0.115926	-0.000011
C16	C	0.443528	0.114080	-0.000013
C17	C	1.096131	-0.036894	0.000004
C18	C	1.094306	-0.130143	0.000005
C19	C	1.002186	-0.345139	-0.000010
C20	C	1.044956	-0.406095	0.084370
C21	C	1.091005	-0.300874	-0.000003
C22	C	1.044992	-0.406072	-0.084355
C23	C	1.087809	-0.465791	-0.000015
C24	C	1.133799	-0.360601	0.084446
C25	C	1.133822	-0.360571	-0.084354
C26	C	1.176658	-0.421509	0.000046
C27	C	1.092843	-0.205868	0.000005
C28	C	1.085977	-0.560795	-0.000016
C29	C	1.258015	0.110797	-0.000007
C30	C	1.360392	0.112615	-0.000013
C31	C	1.082685	0.270223	-0.000017
C32	C	1.084510	0.363472	-0.000024
N33	N	1.089394	0.116654	0.243535
N34	N	1.089430	0.116669	-0.243545
C35	C	1.089416	0.116670	0.663349
C36	C	1.089407	0.116668	0.546544
C37	C	1.089405	0.116663	0.453445
C38	C	1.089395	0.116660	0.336633
H39	H	1.007383	-0.426264	0.155705
C40	C	1.274979	-0.465724	0.000019
C41	C	1.272250	-0.553221	-0.000860
C42	C	1.362806	-0.593975	-0.000909
H43	H	1.306479	-0.450269	0.059971
H44	H	1.306755	-0.449480	-0.059388
H45	H	1.240488	-0.569459	0.058541
H46	H	1.240768	-0.568701	-0.060809
H47	H	1.394582	-0.577730	-0.060316
H48	H	1.394298	-0.578513	0.059044
H49	H	1.360967	-0.653345	-0.001515
H50	H	0.928462	-0.311944	0.000074
H51	H	1.171328	-0.340557	0.155861
C52	C	1.183722	-0.333667	-0.179598
C53	C	1.136911	-0.356425	-0.267712
C54	C	1.182837	-0.331642	-0.355477
H55	H	1.245358	-0.360850	-0.180348
H56	H	1.184978	-0.274226	-0.178619
H57	H	1.135666	-0.415855	-0.268691
H58	H	1.075279	-0.329245	-0.266996
H59	H	1.184092	-0.272201	-0.354498
H60	H	1.244470	-0.358827	-0.356217
H61	H	1.151078	-0.347073	-0.415272
H62	H	1.007419	-0.426203	-0.155696
