data_functionalizedCrystal
_audit_creation_method	'MofGen! by Chris Wilmer'
_symmetry_space_group_name_H-M	'P1'
_symmetry_Int_Tables_number	1
_symmetry_cell_setting	triclinic
loop_
_symmetry_equiv_pos_as_xyz
  x,y,z
_cell_length_a	13.262076
_cell_length_b	13.185408
_cell_length_c	12.376897
_cell_angle_alpha	105.312550
_cell_angle_beta	87.009776
_cell_angle_gamma	68.865056
loop_
_atom_site_label
_atom_site_type_symbol
_atom_site_fract_x
_atom_site_fract_y
_atom_site_fract_z
O1	O	0.274397	-1.443849	0.009517
O2	O	0.172370	-1.120580	0.040918
O3	O	0.372263	-1.299311	-0.020577
O4	O	0.074504	-1.265118	0.071013
O5	O	0.347905	-1.335215	-0.201085
O6	O	0.148012	-1.156484	-0.139590
O7	O	0.250039	-1.479753	-0.170991
Zn8	Zn	0.195158	-1.323819	-0.183950
Zn9	Zn	0.227251	-1.276514	0.053877
O10	O	0.050146	-1.301023	-0.109496
C11	C	0.149848	-1.097318	-0.046152
C12	C	0.119040	-0.974515	-0.036669
C13	C	0.009346	-0.898443	-0.002925
C14	C	-0.019605	-0.783065	0.005970
C15	C	0.061136	-0.743747	-0.018869
C16	C	0.170834	-0.819818	-0.052606
C17	C	0.199787	-0.935209	-0.061511
C18	C	0.251577	-0.780513	-0.077455
C19	C	0.361275	-0.856584	-0.111192
C20	C	0.390222	-0.971962	-0.120094
C21	C	0.309481	-1.011281	-0.095255
C22	C	0.222625	-0.665122	-0.068550
C23	C	0.413065	-0.701888	-0.127136
C24	C	0.442016	-0.817266	-0.136031
C25	C	0.397391	-1.318654	-0.122304
C26	C	0.508551	-1.322786	-0.156489
C27	C	0.547511	-1.344285	-0.270943
C28	C	0.651949	-1.348150	-0.303042
C29	C	0.717433	-1.330509	-0.220688
C30	C	0.678470	-1.309001	-0.106231
C31	C	0.574026	-1.305144	-0.074130
C32	C	0.743947	-1.291368	-0.023876
C33	C	0.704984	-1.269861	0.090582
C34	C	0.600550	-1.266004	0.122677
C35	C	0.535065	-1.283645	0.040324
C36	C	0.848391	-1.295225	-0.055977
C37	C	0.874906	-1.256085	0.140836
C38	C	0.770468	-1.252219	0.172935
C39	C	1.025020	-1.281688	-0.007777
C40	C	0.913866	-1.277583	0.026382
N41	N	0.173259	-1.356112	-0.346262
C42	C	0.272562	-0.503014	-0.083918
C43	C	0.303371	-0.625816	-0.093392
C44	C	0.299995	-1.169228	-0.740290
C45	C	0.315320	-1.146609	-0.626671
C46	C	0.279806	-1.198982	-0.556563
C47	C	0.228964	-1.273980	-0.600085
C48	C	0.213645	-1.296608	-0.713717
C49	C	0.193456	-1.326363	-0.529991
C50	C	0.142614	-1.401360	-0.573513
C51	C	0.127297	-1.423984	-0.687134
C52	C	0.162811	-1.371611	-0.757242
C53	C	0.208775	-1.303734	-0.416359
C54	C	0.122425	-1.431114	-0.389786
C55	C	0.107100	-1.453734	-0.503405
N56	N	0.249161	-1.244230	0.216186
H57	H	-0.056383	-0.930469	0.017287
O58	O	0.257984	-1.230717	-0.374088
C59	C	0.196437	-1.122307	-0.384124
H60	H	0.108199	-1.113231	-0.389515
H61	H	0.197872	-1.053287	-0.306757
H62	H	0.233471	-1.112737	-0.464214
O63	O	0.334385	-1.118418	-0.808529
C64	C	0.309908	-1.154421	-0.918134
H65	H	0.239941	-1.184697	-0.912746
H66	H	0.284543	-1.080164	-0.955283
H67	H	0.385446	-1.227511	-0.975001
O68	O	0.433688	-1.280011	0.071630
C69	C	0.443046	-1.364485	0.124920
H70	H	0.523306	-1.387457	0.160083
H71	H	0.371378	-1.330581	0.197334
H72	H	0.442021	-1.443725	0.060439
H73	H	0.085910	-1.485063	-0.722568
O74	O	0.818958	-1.334424	-0.251821
C75	C	0.898119	-1.421421	-0.219919
H76	H	0.863572	-1.486998	-0.211124
H77	H	0.974697	-1.464796	-0.287603
H78	H	0.920099	-1.382819	-0.135235
H79	H	0.568835	-1.248504	0.215874
H80	H	0.738730	-1.234708	0.266128
O81	O	0.548630	-0.891005	-0.168775
C82	C	0.613691	-0.831578	-0.188820
H83	H	0.569756	-0.737138	-0.139717
H84	H	0.695721	-0.867346	-0.159469
H85	H	0.628208	-0.842195	-0.283479
O86	O	0.057900	-1.526737	-0.545796
C87	C	0.130526	-1.618823	-0.636595
H88	H	0.218408	-1.628428	-0.627954
H89	H	0.120389	-1.700654	-0.634816
H90	H	0.111509	-1.601850	-0.720434
O91	O	0.491495	-0.663616	-0.151059
C92	C	0.493044	-0.579354	-0.054181
H93	H	0.456554	-0.590699	0.025098
H94	H	0.581165	-0.588057	-0.048607
H95	H	0.442668	-0.491174	-0.060697
O96	O	0.689648	-1.368831	-0.414210
C97	C	0.619044	-1.283320	-0.454828
H98	H	0.572260	-1.203382	-0.380458
H99	H	0.669280	-1.262341	-0.516763
H100	H	0.558502	-1.315087	-0.500108
O101	O	0.938471	-1.238751	0.220824
C102	C	0.962713	-1.143349	0.219508
H103	H	0.897863	-1.085858	0.181300
H104	H	0.963217	-1.093701	0.309996
H105	H	1.046662	-1.173341	0.166165
O106	O	0.483777	-1.361210	-0.350856
C107	C	0.385578	-1.263679	-0.326759
H108	H	0.398738	-1.186306	-0.272644
H109	H	0.360232	-1.248556	-0.409600
H110	H	0.318359	-1.277309	-0.278551
H111	H	0.333047	-1.105230	-0.102499
H112	H	0.356718	-1.085549	-0.591245
H113	H	0.150330	-1.390019	-0.849759
H114	H	0.093508	-1.473763	-0.332704
H115	H	0.133308	-0.603196	-0.041083
O116	O	0.032989	-0.631620	-0.010011
C117	C	-0.016326	-0.564394	0.102511
H118	H	0.010852	-0.618215	0.162202
H119	H	0.009564	-0.488876	0.127237
H120	H	-0.109271	-0.531728	0.109085
O121	O	-0.126200	-0.709318	0.038806
C122	C	-0.191261	-0.768764	0.058794
H123	H	-0.138099	-0.849600	0.078038
H124	H	-0.259151	-0.712142	0.134257
H125	H	-0.229143	-0.792618	-0.019746
O126	O	0.496821	-1.045776	-0.152687
C127	C	0.560294	-1.010147	-0.074861
H128	H	0.505442	-0.954675	0.010069
H129	H	0.626761	-1.088122	-0.062626
H130	H	0.600007	-0.958836	-0.109093
O131	O	0.294726	-1.176842	-0.446206
C132	C	0.347237	-1.099438	-0.422832
H133	H	0.332130	-1.048926	-0.486393
H134	H	0.312973	-1.038267	-0.333136
H135	H	0.439066	-1.148527	-0.430063
O136	O	0.886102	-1.315912	-0.167143
C137	C	0.815509	-1.230409	-0.207778
H138	H	0.768715	-1.150467	-0.133416
H139	H	0.865756	-1.209435	-0.269708
H140	H	0.754975	-1.262183	-0.253069
