data_functionalizedCrystal
_audit_creation_method	'MofGen! by Chris Wilmer'
_symmetry_space_group_name_H-M	'P1'
_symmetry_Int_Tables_number	1
_symmetry_cell_setting	triclinic
loop_
_symmetry_equiv_pos_as_xyz
  x,y,z
_cell_length_a	21.295419
_cell_length_b	21.295417
_cell_length_c	21.295412
_cell_angle_alpha	89.970379
_cell_angle_beta	89.976510
_cell_angle_gamma	90.044503
loop_
_atom_site_label
_atom_site_type_symbol
_atom_site_fract_x
_atom_site_fract_y
_atom_site_fract_z
Zn1	Zn	0.962353	-0.250376	-0.355916
Zn2	Zn	1.462353	0.249624	0.144084
Zn3	Zn	0.962258	-0.355645	-0.250643
Zn4	Zn	1.462258	0.144355	0.249357
Zn5	Zn	0.857078	-0.250421	-0.250661
Zn6	Zn	1.357078	0.249579	0.249339
Zn7	Zn	0.857047	-0.355639	-0.355875
Zn8	Zn	1.357047	0.144361	0.144125
O9	O	0.909684	-0.303020	-0.303274
O10	O	1.409684	0.196980	0.196726
O11	O	1.050429	-0.264324	-0.341961
O12	O	1.550429	0.235676	0.158039
O13	O	0.948279	-0.341708	-0.162556
O14	O	1.448279	0.158292	0.337444
O15	O	0.871095	-0.162325	-0.264648
O16	O	1.371095	0.337675	0.235352
O17	O	1.050360	-0.341665	-0.264617
O18	O	1.550360	0.158335	0.235383
O19	O	0.948440	-0.162293	-0.341978
O20	O	1.448440	0.337707	0.158022
O21	O	0.871004	-0.264400	-0.162569
O22	O	1.371004	0.235600	0.337431
O23	O	0.768984	-0.264394	-0.264608
O24	O	1.268984	0.235606	0.235392
O25	O	0.871042	-0.341654	-0.443970
O26	O	1.371042	0.158346	0.056030
O27	O	0.768961	-0.341697	-0.341908
O28	O	1.268961	0.158303	0.158092
O29	O	0.948410	-0.264319	-0.444000
O30	O	1.448410	0.235681	0.056000
O31	O	0.948249	-0.443733	-0.264578
O32	O	1.448249	0.056267	0.235422
O33	O	0.870951	-0.443729	-0.341891
O34	O	1.370951	0.056271	0.158109
C35	C	0.746132	-0.303050	-0.303256
C36	C	1.246132	0.196950	0.196744
C37	C	0.676164	-0.303078	-0.303263
C38	C	1.176164	0.196922	0.196737
C39	C	0.643356	-0.262873	-0.343598
C40	C	1.143356	0.237127	0.156402
C41	C	0.577613	-0.262856	-0.343601
C42	C	1.077613	0.237144	0.156399
C43	C	0.544682	-0.303056	-0.303275
C44	C	1.044682	0.196944	0.196725
C45	C	0.577498	-0.343264	-0.262932
C46	C	1.077498	0.156736	0.237068
C47	C	0.643239	-0.343275	-0.262926
C48	C	1.143239	0.156725	0.237074
N49	N	0.441407	-0.358134	-0.298356
N50	N	0.941407	0.141866	0.201644
N51	N	0.378956	-0.358121	-0.298365
N52	N	0.878956	0.141879	0.201635
C53	C	0.346607	-0.303023	-0.303289
C54	C	0.846607	0.196977	0.196711
N55	N	0.379069	-0.247937	-0.308215
N56	N	0.879069	0.252063	0.191785
N57	N	0.441526	-0.247950	-0.308209
N58	N	0.941526	0.252050	0.191791
C59	C	0.473396	-0.303048	-0.303276
C60	C	0.973396	0.196952	0.196724
C61	C	0.242513	-0.262796	-0.343628
C62	C	0.742513	0.237204	0.156372
C63	C	0.176769	-0.262778	-0.343626
C64	C	0.676769	0.237222	0.156374
C65	C	0.176655	-0.343192	-0.262961
C66	C	0.676655	0.156808	0.237039
C67	C	0.242397	-0.343204	-0.262960
C68	C	0.742397	0.156796	0.237040
C69	C	0.275323	-0.303007	-0.303297
C70	C	0.775323	0.196993	0.196703
C71	C	0.909604	-0.466572	-0.303242
C72	C	1.409604	0.033428	0.196758
C73	C	0.909627	-0.536540	-0.303249
C74	C	1.409627	-0.036540	0.196751
C75	C	0.949877	-0.569332	-0.343544
C76	C	1.449877	-0.069332	0.156456
C77	C	0.949900	-0.635075	-0.343559
C78	C	1.449900	-0.135075	0.156441
C79	C	0.909678	-0.668022	-0.303269
C80	C	1.409678	-0.168022	0.196731
C81	C	0.869420	-0.635222	-0.262971
C82	C	1.369420	-0.135222	0.237029
C83	C	0.869394	-0.569481	-0.262962
C84	C	1.369394	-0.069481	0.237038
N85	N	0.904919	-0.771284	-0.248178
N86	N	1.404919	-0.271284	0.251822
N87	N	0.904947	-0.833736	-0.248189
N88	N	1.404947	-0.333736	0.251811
C89	C	0.909751	-0.866097	-0.303297
C90	C	1.409751	-0.366097	0.196703
N91	N	0.914539	-0.833647	-0.358395
N92	N	1.414539	-0.333647	0.141605
N93	N	0.914514	-0.771190	-0.358383
N94	N	1.414514	-0.271190	0.141617
C95	C	0.909701	-0.739308	-0.303276
C96	C	1.409701	-0.239308	0.196724
C97	C	0.950028	-0.970175	-0.343612
C98	C	1.450028	-0.470175	0.156388
C99	C	0.950046	-1.035919	-0.343629
C100	C	1.450046	-0.535919	0.156371
C101	C	0.869569	-1.036064	-0.263035
C102	C	1.369569	-0.536064	0.236965
C103	C	0.869548	-0.970322	-0.263024
C104	C	1.369548	-0.470322	0.236976
C105	C	0.909781	-0.937381	-0.303312
C106	C	1.409781	-0.437381	0.196688
C107	C	1.073874	-0.302990	-0.303292
C108	C	1.573874	0.197010	0.196708
C109	C	1.143842	-0.302977	-0.303299
C110	C	1.643842	0.197023	0.196701
C111	C	0.909733	-0.302981	-0.467464
C112	C	1.409733	0.197019	0.032536
C113	C	0.909754	-0.302964	-0.537432
C114	C	1.409754	0.197036	-0.037432
C115	C	0.909782	-0.138830	-0.303319
C116	C	1.409782	0.361170	0.196681
C117	C	0.909823	-0.068862	-0.303339
C118	C	1.409823	0.431138	0.196661
C119	C	0.869527	-0.262706	-0.570296
C120	C	1.369527	0.237294	-0.070296
C121	C	0.869525	-0.262694	-0.636038
C122	C	1.369525	0.237306	-0.136038
C123	C	0.909761	-0.302934	-0.668915
C124	C	1.409761	0.197066	-0.168915
C125	C	0.949990	-0.343201	-0.636043
C126	C	1.449990	0.156799	-0.136043
C127	C	0.949987	-0.343216	-0.570302
C128	C	1.449987	0.156784	-0.070302
N129	N	0.964865	-0.307728	-0.772153
N130	N	1.464865	0.192272	-0.272153
N131	N	0.964867	-0.307710	-0.834604
N132	N	1.464867	0.192290	-0.334604
C133	C	0.909772	-0.302892	-0.866989
C134	C	1.409772	0.197108	-0.366989
N135	N	0.854675	-0.298081	-0.834564
N136	N	1.354675	0.201919	-0.334564
N137	N	0.854675	-0.298096	-0.772107
N138	N	1.354675	0.201904	-0.272107
C139	C	0.909769	-0.302923	-0.740200
C140	C	1.409769	0.197077	-0.240200
C141	C	0.869540	-0.262619	-0.971139
C142	C	1.369540	0.237381	-0.471139
C143	C	0.869537	-0.262611	-1.036882
C144	C	1.369537	0.237389	-0.536882
C145	C	0.950008	-0.343115	-1.036886
C146	C	1.450008	0.156885	-0.536886
C147	C	0.950005	-0.343126	-0.971144
C148	C	1.450005	0.156874	-0.471144
C149	C	0.909772	-0.302874	-0.938274
C150	C	1.409772	0.197126	-0.438274
C151	C	0.909671	-0.303014	-0.139722
C152	C	1.409671	0.196986	0.360278
C153	C	0.909772	-0.302853	-0.069754
C154	C	1.409772	0.197147	0.430246
H155	H	0.550896	-0.230113	-0.376445
H156	H	1.050896	0.269887	0.123555
H157	H	0.982786	-0.943354	-0.376419
H158	H	1.482786	-0.443354	0.123581
F159	F	0.992826	-0.385946	-1.071871
F160	F	1.492826	0.114054	-0.571871
H161	H	0.836769	-0.229907	-0.662801
H162	H	1.336769	0.270093	-0.162801
F163	F	0.826705	-0.219775	-1.071858
F164	F	1.326705	0.280225	-0.571858
H165	H	0.836779	-0.229844	-0.944375
H166	H	1.336779	0.270156	-0.444375
H167	H	0.836669	-0.662052	-0.230168
H168	H	1.336669	-0.162052	0.269832
H169	H	0.669951	-0.376016	-0.230080
H170	H	1.169951	0.123984	0.269920
F171	F	0.678394	-0.220091	-0.386528
F172	F	1.178394	0.279909	0.113472
H173	H	0.550680	-0.375994	-0.230098
H174	H	1.050680	0.124006	0.269902
H175	H	0.836816	-1.062890	-0.230234
H176	H	1.336816	-0.562890	0.269766
F177	F	0.141853	-0.219981	-0.386556
F178	F	0.641853	0.280019	0.113444
H179	H	0.982764	-0.375907	-0.944386
H180	H	1.482764	0.124093	-0.444386
F181	F	0.826708	-0.935420	-0.220136
F182	F	1.326708	-0.435420	0.279864
H183	H	0.982823	-1.062617	-0.376445
H184	H	1.482823	-0.562617	0.123555
F185	F	0.826551	-0.534579	-0.220073
F186	F	1.326551	-0.034579	0.279927
H187	H	0.269322	-0.230062	-0.376469
H188	H	0.769322	0.269938	0.123531
H189	H	0.149843	-0.375923	-0.230127
H190	H	0.649843	0.124077	0.269873
F191	F	0.992744	-0.669982	-0.386445
F192	F	1.492744	-0.169982	0.113555
H193	H	0.269110	-0.375946	-0.230117
H194	H	0.769110	0.124054	0.269883
F195	F	0.826705	-0.219868	-0.535317
F196	F	1.326705	0.280132	-0.035317
H197	H	0.982636	-0.542514	-0.376350
H198	H	1.482636	-0.042514	0.123650
F199	F	0.992810	-0.386030	-0.671033
F200	F	1.492810	0.113970	-0.171033
F201	F	0.992804	-0.386066	-0.535325
F202	F	1.492804	0.113934	-0.035325
