data_functionalizedCrystal
_audit_creation_method	'MofGen! by Chris Wilmer'
_symmetry_space_group_name_H-M	'P1'
_symmetry_Int_Tables_number	1
_symmetry_cell_setting	triclinic
loop_
_symmetry_equiv_pos_as_xyz
  x,y,z
_cell_length_a	16.625546
_cell_length_b	12.759393
_cell_length_c	12.759401
_cell_angle_alpha	90.020938
_cell_angle_beta	89.976007
_cell_angle_gamma	89.964881
loop_
_atom_site_label
_atom_site_type_symbol
_atom_site_fract_x
_atom_site_fract_y
_atom_site_fract_z
Zn1	Zn	-0.320930	-0.593986	-1.606210
Zn2	Zn	-0.455784	-0.418292	-1.606077
Zn3	Zn	-0.320973	-0.418322	-1.430508
Zn4	Zn	-0.455728	-0.593930	-1.430476
O5	O	-0.388354	-0.506132	-1.518318
O6	O	-0.338824	-0.570692	-1.753213
O7	O	-0.437943	-0.271275	-1.582745
O8	O	-0.208135	-0.441660	-1.453884
O9	O	-0.437901	-0.441610	-1.753116
O10	O	-0.208103	-0.570720	-1.582971
O11	O	-0.338897	-0.271297	-1.453756
O12	O	-0.338843	-0.441605	-1.283483
O13	O	-0.437805	-0.740958	-1.453830
O14	O	-0.437847	-0.570623	-1.283460
O15	O	-0.338770	-0.741000	-1.582940
O16	O	-0.568609	-0.441555	-1.582714
O17	O	-0.568568	-0.570595	-1.453701
C18	C	-0.388344	-0.506112	-1.245350
C19	C	-0.388359	-0.506128	-1.128574
C20	C	-0.597844	-0.506088	-1.518218
C21	C	-0.687466	-0.506105	-1.518272
C22	C	-0.388276	-0.780166	-1.518396
C23	C	-0.388243	-0.896943	-1.518430
C24	C	-1.015641	-0.506214	-1.518455
C25	C	-0.924333	-0.506187	-1.518401
C26	C	-0.851556	-0.506159	-1.518363
C27	C	-0.760242	-0.506132	-1.518310
C28	C	-0.178045	-0.506200	-1.518446
C29	C	-0.088424	-0.506228	-1.518501
C30	C	-0.336667	-0.951828	-1.585663
C31	C	-0.336632	-1.061552	-1.585681
C32	C	-0.439757	-1.061496	-1.451230
C33	C	-0.439787	-0.951774	-1.451208
C34	C	-0.388372	-0.233165	-1.518300
C35	C	-0.388178	-0.116389	-1.518470
C36	C	-0.388364	-0.506154	-1.792351
C37	C	-0.388369	-0.506163	-1.909128
C38	C	-0.439989	-0.573202	-1.073727
C39	C	-0.439992	-0.573223	-0.964003
C40	C	-0.336733	-0.439086	-0.963982
C41	C	-0.336726	-0.439071	-1.073704
H42	H	-0.294695	-0.907188	-1.640397
O43	O	-0.286657	-0.373759	-1.126942
C44	C	-0.304168	-0.269009	-1.100056
H45	H	-0.368578	-0.263552	-1.069860
H46	H	-0.260916	-0.241654	-1.036376
C47	C	-0.215606	-0.205608	-1.234586
C48	C	-0.294718	-0.198905	-1.197507
H49	H	-0.209774	-0.162362	-1.294696
H50	H	-0.203806	-0.276180	-1.252698
H51	H	-0.179571	-0.182814	-1.181510
H52	H	-0.330750	-0.221710	-1.250578
H53	H	-0.306524	-0.128334	-1.179406
O54	O	-0.286508	-1.114705	-1.651092
C55	C	-0.241009	-1.042777	-1.710395
H56	H	-0.274059	-0.964555	-1.713995
H57	H	-0.179771	-1.031117	-1.671961
C58	C	-0.188790	-1.181695	-1.817807
C59	C	-0.229387	-1.085624	-1.822236
H60	H	-0.181617	-1.208126	-1.886794
H61	H	-0.219441	-1.230156	-1.777851
H62	H	-0.137763	-1.171966	-1.785774
H63	H	-0.280416	-1.095357	-1.854256
H64	H	-0.198744	-1.037166	-1.862200
H65	H	-0.481723	-1.106153	-1.396502
H66	H	-0.481785	-0.907085	-1.396451
H67	H	-0.482029	-0.627806	-1.118399
H68	H	-0.482033	-0.627843	-0.919352
H69	H	-0.294697	-0.384490	-0.919294
