data_functionalizedCrystal
_audit_creation_method	'MofGen! by Chris Wilmer'
_symmetry_space_group_name_H-M	'P1'
_symmetry_Int_Tables_number	1
_symmetry_cell_setting	triclinic
loop_
_symmetry_equiv_pos_as_xyz
  x,y,z
_cell_length_a	13.930277
_cell_length_b	10.654550
_cell_length_c	10.654550
_cell_angle_alpha	84.484931
_cell_angle_beta	90.004374
_cell_angle_gamma	90.003973
loop_
_atom_site_label
_atom_site_type_symbol
_atom_site_fract_x
_atom_site_fract_y
_atom_site_fract_z
O1	O	-0.079759	-1.667846	-0.176398
O2	O	-0.079777	-1.302368	-0.193204
O3	O	-0.079761	-1.493510	-0.002062
O4	O	-0.079774	-1.476704	-0.367540
O5	O	0.079901	-1.493483	-0.002058
O6	O	0.079885	-1.302341	-0.193200
O7	O	0.079903	-1.667819	-0.176394
Zn8	Zn	0.105244	-1.485076	-0.184796
Zn9	Zn	-0.105118	-1.485111	-0.184802
O10	O	0.079888	-1.476677	-0.367536
C11	C	0.000052	-1.255556	-0.191968
C12	C	0.000046	-1.116113	-0.188276
N13	N	0.248810	-1.485061	-0.184792
N14	N	-0.248684	-1.485136	-0.184797
C15	C	0.701072	-1.400470	-0.269406
C16	C	0.701055	-1.569787	-0.100188
C17	C	0.600560	-1.569772	-0.100184
C18	C	0.550316	-1.485106	-0.184794
C19	C	0.600567	-1.400455	-0.269407
C20	C	0.550300	-1.654430	-0.015581
C21	C	0.449798	-1.654420	-0.015574
C22	C	0.399553	-1.569747	-0.100179
C23	C	0.449811	-1.485091	-0.184795
C24	C	0.399567	-1.400425	-0.269404
C25	C	0.449823	-1.315762	-0.354015
C26	C	0.550322	-1.315782	-0.354012
C27	C	0.299054	-1.569727	-0.100182
C28	C	0.299062	-1.400410	-0.269405
C29	C	0.000069	-1.492263	0.044738
C30	C	0.000067	-1.488571	0.184181
C31	C	0.000072	-1.714631	-0.177630
C32	C	0.000072	-1.854074	-0.181322
C33	C	0.000044	-1.036628	-0.300818
C34	C	0.000061	-0.905607	-0.297341
C35	C	0.000076	-0.933570	-0.068772
C36	C	0.000066	-1.064588	-0.072250
C37	C	0.000055	-1.477925	-0.414336
C38	C	0.000051	-1.481616	-0.553779
C39	C	0.000072	-1.601112	0.263667
C40	C	0.000061	-1.597636	0.394688
C41	C	0.000043	-1.369066	0.366725
C42	C	0.000048	-1.372544	0.235706
H43	H	0.258159	-1.331459	-0.338300
H44	H	0.408903	-1.246832	-0.422910
Br45	Br	0.000013	-1.211609	0.436660
H46	H	0.000041	-1.280893	0.170985
Br47	Br	0.000101	-0.863635	0.088685
H48	H	0.000070	-1.129309	0.019401
H49	H	0.591212	-1.723369	0.053300
Br50	Br	0.000064	-0.797737	-0.450083
H51	H	0.741967	-1.638726	-0.031307
Br52	Br	0.000100	-1.758576	0.193744
H53	H	0.408886	-1.723355	0.053321
H54	H	0.258140	-1.638664	-0.031299
Br55	Br	0.000019	-1.106551	-0.458281
H56	H	0.591246	-1.246854	-0.422900
H57	H	0.000063	-1.689279	0.459401
H58	H	0.741994	-1.331535	-0.338292
