data_functionalizedCrystal
_audit_creation_method	'MofGen! by Chris Wilmer'
_symmetry_space_group_name_H-M	'P1'
_symmetry_Int_Tables_number	1
_symmetry_cell_setting	triclinic
loop_
_symmetry_equiv_pos_as_xyz
  x,y,z
_cell_length_a	17.699083
_cell_length_b	14.519709
_cell_length_c	16.176319
_cell_angle_alpha	89.992256
_cell_angle_beta	89.998611
_cell_angle_gamma	83.481580
loop_
_atom_site_label
_atom_site_type_symbol
_atom_site_fract_x
_atom_site_fract_y
_atom_site_fract_z
O1	O	1.004413	0.116624	-0.068632
O2	O	0.784078	0.131798	-0.068660
O3	O	0.900087	-0.010052	-0.068638
O4	O	0.888403	0.258474	-0.068654
O5	O	0.900071	-0.010061	0.068855
O6	O	0.784062	0.131789	0.068833
O7	O	1.004397	0.116615	0.068861
Cu8	Cu	0.894228	0.124201	0.081401
Cu9	Cu	0.894247	0.124212	-0.081200
O10	O	0.888387	0.258465	0.068839
C11	C	0.755871	0.131249	0.000083
C12	C	0.671848	0.129618	0.000073
C13	C	0.623466	0.212881	0.000068
C14	C	0.544518	0.211343	0.000079
C15	C	0.513954	0.126541	0.000089
C16	C	0.562343	0.043272	0.000096
C17	C	0.641289	0.044811	0.000091
C18	C	0.243962	0.037064	0.000117
C19	C	0.165010	0.035531	0.000119
C20	C	0.147191	0.203596	0.000105
C21	C	0.226137	0.205135	0.000100
C22	C	0.274519	0.121866	0.000112
C23	C	0.360123	0.123535	0.000102
C24	C	0.428352	0.124872	0.000093
C25	C	0.899534	-0.044414	0.000109
C26	C	0.897903	-0.146789	0.000109
C27	C	0.891896	-0.521659	0.000087
C28	C	0.893564	-0.417358	0.000093
C29	C	0.894899	-0.334227	0.000099
C30	C	0.896568	-0.229920	0.000104
C31	C	1.032603	0.117164	0.000116
C32	C	1.116626	0.118795	0.000121
C33	C	0.888940	0.292827	0.000090
C34	C	0.890572	0.395202	0.000085
N35	N	0.894220	0.124193	0.195767
N36	N	0.894260	0.124213	-0.195565
C37	C	0.945604	0.061408	0.239040
C38	C	0.945608	0.061407	0.325588
C39	C	0.894231	0.124196	0.368859
C40	C	0.842841	0.186985	0.325579
C41	C	0.842834	0.186981	0.239034
C42	C	0.842867	0.187002	0.674608
C43	C	0.842879	0.187003	0.761159
C44	C	0.945641	0.061428	0.761161
C45	C	0.945634	0.061424	0.674616
C46	C	0.894242	0.124209	0.631343
C47	C	0.894237	0.124208	0.537499
C48	C	0.894238	0.124202	0.462702
H49	H	0.251017	0.274189	0.000088
H50	H	0.283346	-0.030739	0.000127
H51	H	0.680683	-0.022990	0.000095
O52	O	0.995424	0.000328	0.367656
C53	C	0.954833	-0.056501	0.417746
H54	H	0.895142	-0.057974	0.391677
H55	H	0.950911	-0.027637	0.483336
C56	C	1.069735	-0.153771	0.451094
C57	C	0.996424	-0.155586	0.419071
H58	H	1.095391	-0.214890	0.451915
H59	H	1.097083	-0.115482	0.417350
H60	H	1.066457	-0.129713	0.505749
H61	H	0.999703	-0.179633	0.364414
H62	H	0.969077	-0.193881	0.452806
O63	O	0.653026	0.295340	0.000095
C64	C	0.593389	0.368499	0.000073
H65	H	0.539728	0.342763	0.026109
H66	H	0.582249	0.394178	-0.065890
C67	C	0.681688	0.480100	0.022008
C68	C	0.615782	0.448492	0.053993
H69	H	0.695501	0.529446	0.055265
H70	H	0.721867	0.430812	0.022020
H71	H	0.672396	0.501493	-0.032961
H72	H	0.625077	0.427090	0.108956
H73	H	0.575604	0.497779	0.053992
O74	O	0.497445	0.292166	-0.000044
C75	C	0.451258	0.296314	-0.071261
H76	H	0.447163	0.223121	-0.094986
H77	H	0.477288	0.338368	-0.121134
C78	C	0.376205	0.432804	-0.020495
C79	C	0.371170	0.342907	-0.049631
H80	H	0.326804	0.461549	-0.007155
H81	H	0.407324	0.430013	0.027484
H82	H	0.397900	0.467838	-0.062061
H83	H	0.349484	0.307872	-0.008062
H84	H	0.340046	0.345694	-0.097603
H85	H	0.537452	-0.025775	0.000116
H86	H	0.800990	0.238106	0.203801
H87	H	0.987445	0.010281	0.203814
H88	H	0.987473	0.010298	0.639387
O89	O	0.995662	0.000517	0.803158
C90	C	1.070599	0.015379	0.781984
H91	H	1.071064	0.089217	0.758188
H92	H	1.092755	-0.035768	0.731747
C93	C	1.121325	-0.089729	0.888084
C94	C	1.121898	0.000963	0.858865
H95	H	1.152970	-0.098625	0.935506
H96	H	1.070839	-0.099746	0.902348
H97	H	1.139786	-0.132342	0.846214
H98	H	1.103427	0.043573	0.900732
H99	H	1.172382	0.010986	0.844609
H100	H	0.140129	-0.033529	0.000128
O101	O	0.792890	0.248030	0.803067
C102	C	0.747538	0.303458	0.746316
H103	H	0.746629	0.265648	0.684628
H104	H	0.772192	0.371936	0.737098
C105	C	0.667040	0.369016	0.855873
C106	C	0.665918	0.322574	0.780109
H107	H	0.616694	0.380812	0.876719
H108	H	0.697596	0.331676	0.894108
H109	H	0.687589	0.426076	0.848181
H110	H	0.645379	0.265510	0.787804
H111	H	0.635357	0.359905	0.741877
O112	O	0.793058	0.248040	0.632494
C113	C	0.833663	0.304888	0.582437
H114	H	0.892830	0.268059	0.569460
H115	H	0.838908	0.373034	0.615789
C116	C	0.718335	0.369919	0.516176
C117	C	0.791004	0.324680	0.500231
H118	H	0.692020	0.382131	0.465468
H119	H	0.690978	0.331622	0.549901
H120	H	0.722716	0.426701	0.543970
H121	H	0.786621	0.267894	0.472446
H122	H	0.818359	0.362968	0.466498
O123	O	0.100083	0.284401	0.000138
C124	C	0.023848	0.264866	0.000127
H125	H	0.020723	0.192436	0.026168
H126	H	0.001019	0.268413	-0.065834
C127	C	-0.020528	0.425534	0.022058
C128	C	-0.024367	0.336578	0.054048
H129	H	-0.050271	0.469771	0.055315
H130	H	0.030832	0.438697	0.022062
H131	H	-0.039551	0.428477	-0.032909
H132	H	-0.005336	0.333633	0.109009
H133	H	-0.075726	0.323416	0.054054
H134	H	0.801004	0.238106	0.360816
