data_functionalizedCrystal
_audit_creation_method	'MofGen! by Chris Wilmer'
_symmetry_space_group_name_H-M	'P1'
_symmetry_Int_Tables_number	1
_symmetry_cell_setting	triclinic
loop_
_symmetry_equiv_pos_as_xyz
  x,y,z
_cell_length_a	14.853567
_cell_length_b	22.610064
_cell_length_c	14.853567
_cell_angle_alpha	89.992128
_cell_angle_beta	83.634930
_cell_angle_gamma	90.005271
loop_
_atom_site_label
_atom_site_type_symbol
_atom_site_fract_x
_atom_site_fract_y
_atom_site_fract_z
O1	O	1.196371	0.049139	0.117692
O2	O	0.933911	0.049148	0.131713
O3	O	1.072152	0.049145	-0.006527
O4	O	1.058131	0.049142	0.255932
O5	O	1.072127	-0.049224	-0.006507
O6	O	0.933887	-0.049221	0.131734
O7	O	1.196347	-0.049231	0.117712
Zn8	Zn	1.065113	-0.064844	0.124726
Zn9	Zn	1.065145	0.064762	0.124699
O10	O	1.058106	-0.049227	0.255953
C11	C	0.900311	-0.000035	0.131088
C12	C	0.800227	-0.000031	0.129184
N13	N	1.065098	-0.153296	0.124744
C14	C	0.387693	-0.000043	0.039019
C15	C	0.366412	-0.000045	0.203251
C16	C	0.460446	-0.000043	0.205042
C17	C	0.518108	-0.000040	0.123819
C18	C	0.481736	-0.000040	0.040806
C19	C	0.496825	-0.000038	0.288053
C20	C	0.590864	-0.000035	0.289846
C21	C	0.648528	-0.000037	0.208623
C22	C	0.612150	-0.000037	0.125607
C23	C	0.669812	-0.000034	0.044384
C24	C	0.633437	-0.000039	-0.038633
C25	C	0.539399	-0.000041	-0.040417
C26	C	0.742565	-0.000034	0.210407
C27	C	0.763855	-0.000031	0.046172
C28	C	1.126361	-0.561939	0.063496
C29	C	1.126365	-0.623859	0.063489
O30	O	1.178415	-0.655879	0.011428
N31	N	1.065144	-0.654834	0.124681
C32	C	1.003909	-0.623885	0.185876
O33	O	0.951835	-0.655917	0.237923
C34	C	1.003900	-0.561966	0.185878
C35	C	1.065132	-0.530995	0.124689
C36	C	1.187586	-0.530968	0.002311
C37	C	1.187583	-0.469052	0.002319
C38	C	1.126353	-0.438108	0.063512
C39	C	1.065128	-0.469079	0.124697
C40	C	0.942661	-0.531019	0.247069
C41	C	0.942658	-0.469096	0.247064
C42	C	1.003889	-0.438124	0.185875
C43	C	1.003895	-0.376219	0.185897
N44	N	1.065116	-0.345245	0.124706
C45	C	1.126345	-0.376189	0.063513
C46	C	1.003929	-0.753918	0.185868
C47	C	1.003941	-0.815836	0.185871
C48	C	1.126397	-0.815806	0.063483
C49	C	1.126389	-0.753887	0.063484
C50	C	1.065150	-0.722944	0.124676
C51	C	1.126333	-0.246162	0.063535
C52	C	1.126327	-0.184241	0.063551
C53	C	1.003868	-0.184276	0.185936
C54	C	1.003877	-0.246192	0.185923
C55	C	1.065114	-0.277133	0.124716
O56	O	0.951869	-0.344160	0.237930
O57	O	1.178402	-0.344150	0.011467
C58	C	1.229947	-0.000046	0.118337
C59	C	1.330031	-0.000046	0.120241
C60	C	1.071504	-0.000038	-0.040106
C61	C	1.069601	-0.000033	-0.140189
N62	N	1.065168	0.153214	0.124675
C63	C	0.979435	-0.000041	-0.552723
C64	C	1.143668	-0.000047	-0.574004
C65	C	1.145458	-0.000043	-0.479971
C66	C	1.064235	-0.000039	-0.422309
C67	C	0.981223	-0.000039	-0.458680
C68	C	1.228469	-0.000050	-0.443591
C69	C	1.230262	-0.000047	-0.349552
C70	C	1.149039	-0.000039	-0.291889
C71	C	1.066023	-0.000038	-0.328266
C72	C	0.984800	-0.000034	-0.270604
C73	C	0.901783	-0.000029	-0.306979
C74	C	0.899999	-0.000031	-0.401017
C75	C	1.150823	-0.000036	-0.197851
C76	C	0.986588	-0.000032	-0.176561
C77	C	1.058754	-0.000043	0.289531
C78	C	1.060657	-0.000044	0.389615
H79	H	0.810798	-0.000031	-0.019971
C80	C	0.782576	-0.000027	0.301713
H81	H	0.734766	-0.000030	0.349830
H82	H	0.818823	0.034277	0.305812
H83	H	0.818811	-0.034334	0.305836
H84	H	1.176192	-0.159026	0.013723
C85	C	0.808691	-0.000034	-0.441032
H86	H	0.819262	-0.000043	-0.505295
H87	H	0.775246	0.034270	-0.421264
H88	H	0.775242	-0.034341	-0.421236
C89	C	1.233007	-0.000051	-0.637424
H90	H	1.282702	-0.000055	-0.602293
H91	H	1.235730	0.034250	-0.674564
H92	H	1.235715	-0.034361	-0.674537
C93	C	1.193740	-0.849853	-0.003838
H94	H	1.184963	-0.891164	0.004922
H95	H	1.253920	-0.839706	0.006054
H96	H	1.183865	-0.839700	-0.064026
H97	H	0.358072	-0.000049	-0.028572
C98	C	1.317807	-0.000053	-0.507014
H99	H	1.367503	-0.000061	-0.471884
H100	H	1.320531	0.034251	-0.544147
H101	H	1.320511	-0.034361	-0.544132
H102	H	1.297860	-0.000050	-0.319944
C103	C	1.254955	-0.434989	-0.064968
H104	H	1.246203	-0.393679	-0.056199
H105	H	1.245117	-0.445126	-0.125164
H106	H	1.315124	-0.445144	-0.055035
C107	C	0.499384	-0.000040	-0.131725
H108	H	0.435121	-0.000035	-0.121155
H109	H	0.519161	-0.034342	-0.165170
H110	H	0.519172	0.034270	-0.165175
C111	C	0.875303	-0.565076	0.314371
H112	H	0.884069	-0.606387	0.305620
H113	H	0.815130	-0.554927	0.304461
H114	H	0.885164	-0.554932	0.374563
H115	H	1.218414	-0.000045	-0.168238
C116	C	1.193695	-0.280189	-0.003788
H117	H	1.230158	-0.252868	-0.040217
H118	H	1.161232	-0.304342	-0.041386
H119	H	1.231268	-0.304342	0.028714
C120	C	0.936597	-0.849901	0.253185
H121	H	0.945367	-0.891210	0.244429
H122	H	0.876420	-0.839754	0.243286
H123	H	0.946468	-0.839757	0.313375
H124	H	1.237446	-0.556157	-0.047523
H125	H	0.449870	-0.000033	0.354180
C126	C	0.696870	-0.000036	-0.127972
H127	H	0.758083	-0.000035	-0.115012
H128	H	0.685836	0.034265	-0.162018
H129	H	0.685837	-0.034346	-0.161995
C130	C	1.193735	-0.719825	-0.003830
H131	H	1.230196	-0.747127	-0.040274
H132	H	1.231300	-0.695666	0.028665
H133	H	1.161253	-0.695674	-0.041425
H134	H	0.620472	-0.000031	0.357443
H135	H	0.319459	-0.000042	0.269379
H136	H	0.892787	-0.443904	0.296893
H137	H	0.954064	-0.728727	0.235705
H138	H	0.954026	-0.271409	0.235758
H139	H	0.954018	-0.159072	0.235761
H140	H	0.920445	-0.000027	-0.129618
H141	H	0.911844	-0.000034	-0.582344
C142	C	0.812444	-0.000024	-0.243546
H143	H	0.825404	-0.000021	-0.182333
H144	H	0.778396	-0.034324	-0.254573
H145	H	0.778423	0.034288	-0.254587
