data_functionalizedCrystal
_audit_creation_method	'MofGen! by Chris Wilmer'
_symmetry_space_group_name_H-M	'P1'
_symmetry_Int_Tables_number	1
_symmetry_cell_setting	triclinic
loop_
_symmetry_equiv_pos_as_xyz
  x,y,z
_cell_length_a	19.288864
_cell_length_b	15.995350
_cell_length_c	18.366186
_cell_angle_alpha	89.995992
_cell_angle_beta	89.977106
_cell_angle_gamma	83.314311
loop_
_atom_site_label
_atom_site_type_symbol
_atom_site_fract_x
_atom_site_fract_y
_atom_site_fract_z
O1	O	0.921624	0.104451	-0.060780
O2	O	1.421624	0.604451	0.439220
O3	O	0.719400	0.118542	-0.060729
O4	O	1.219400	0.618542	0.439271
O5	O	0.826040	-0.010412	-0.060755
O6	O	1.326040	0.489588	0.439245
O7	O	0.814984	0.233405	-0.060754
O8	O	1.314984	0.733405	0.439246
O9	O	0.826022	-0.010418	0.060344
O10	O	1.326022	0.489582	0.560344
O11	O	0.719382	0.118535	0.060370
O12	O	1.219382	0.618535	0.560370
O13	O	0.921606	0.104445	0.060320
O14	O	1.421606	0.604445	0.560320
Zn15	Zn	0.820491	0.111489	0.079572
Zn16	Zn	1.320491	0.611489	0.579572
Zn17	Zn	0.820515	0.111498	-0.079982
Zn18	Zn	1.320515	0.611498	0.420018
O19	O	0.814966	0.233399	0.060346
O20	O	1.314966	0.733399	0.560346
C21	C	0.693513	0.118085	-0.000173
C22	C	1.193513	0.618085	0.499827
C23	C	0.616406	0.116724	-0.000154
C24	C	1.116406	0.616724	0.499846
C25	C	0.825574	-0.041608	-0.000207
C26	C	1.325574	0.458392	0.499793
C27	C	0.824203	-0.134553	-0.000211
C28	C	1.324203	0.365447	0.499789
C29	C	0.571906	0.192388	-0.000165
C30	C	1.071906	0.692388	0.499835
C31	C	0.499456	0.191110	-0.000173
C32	C	0.999456	0.691110	0.499827
C33	C	0.471508	0.114163	-0.000185
C34	C	0.971508	0.614163	0.499815
C35	C	0.516018	0.038489	-0.000170
C36	C	1.016018	0.538489	0.499830
C37	C	0.588467	0.039769	-0.000155
C38	C	1.088467	0.539769	0.499845
C39	C	0.363096	0.053676	-0.042636
C40	C	0.863096	0.553676	0.457364
C41	C	0.290648	0.052398	-0.042656
C42	C	0.790648	0.552398	0.457344
C43	C	0.248053	0.110209	-0.000229
C44	C	0.748053	0.610209	0.499771
C45	C	0.277912	0.169312	0.042208
C46	C	0.777912	0.669312	0.542208
C47	C	0.350361	0.170593	0.042224
C48	C	0.850361	0.670593	0.542224
C49	C	0.392951	0.112765	-0.000201
C50	C	0.892951	0.612765	0.499799
C51	C	0.124993	0.184492	-0.000248
C52	C	0.624993	0.684492	0.499752
C53	C	0.052542	0.183210	-0.000251
C54	C	0.552542	0.683210	0.499749
C55	C	0.069106	0.030587	-0.000255
C56	C	0.569106	0.530587	0.499745
C57	C	0.141556	0.031871	-0.000244
C58	C	0.641556	0.531871	0.499756
C59	C	0.169495	0.108826	-0.000244
C60	C	0.669495	0.608826	0.499756
C61	C	0.819282	-0.472282	-0.000207
C62	C	1.319282	0.027718	0.499793
C63	C	0.743335	-0.424562	-0.000460
C64	C	1.243335	0.075438	0.499540
C65	C	0.744706	-0.327877	-0.000187
C66	C	1.244706	0.172123	0.499813
C67	C	0.821723	-0.304731	-0.000209
C68	C	1.321723	0.195269	0.499791
C69	C	0.859173	-0.345953	0.068934
C70	C	1.359173	0.154047	0.568934
C71	C	0.857265	-0.442582	0.068992
C72	C	1.357265	0.057418	0.568992
C73	C	0.858854	-0.442939	-0.068721
C74	C	1.358854	0.057061	0.431279
C75	C	0.858836	-0.345993	-0.069635
C76	C	1.358836	0.154007	0.430365
C77	C	0.823107	-0.210039	-0.000208
C78	C	1.323107	0.289961	0.499792
C79	C	0.817901	-0.566975	-0.000203
C80	C	1.317901	-0.066975	0.499797
C81	C	0.947492	0.104902	-0.000238
C82	C	1.447492	0.604902	0.499762
C83	C	1.024600	0.106263	-0.000262
C84	C	1.524600	0.606263	0.499738
C85	C	0.815432	0.264595	-0.000204
C86	C	1.315432	0.764595	0.499796
C87	C	0.816802	0.357540	-0.000206
C88	C	1.316802	0.857540	0.499794
N89	N	0.820480	0.111483	0.188463
N90	N	1.320480	0.611483	0.688463
N91	N	0.820531	0.111497	-0.188873
N92	N	1.320531	0.611497	0.311127
C93	C	0.867715	0.054410	0.226552
C94	C	1.367715	0.554410	0.726552
C95	C	0.867720	0.054407	0.302780
C96	C	1.367720	0.554407	0.802780
C97	C	0.820495	0.111490	0.340916
C98	C	1.320495	0.611490	0.840916
C99	C	0.773250	0.168567	0.302818
C100	C	1.273250	0.668567	0.802818
C101	C	0.773243	0.168564	0.226591
C102	C	1.273243	0.668564	0.726591
C103	C	0.811395	0.187781	0.461678
C104	C	1.311395	0.687781	0.961678
C105	C	0.811407	0.187785	0.537903
C106	C	1.311407	0.687785	1.037903
C107	C	0.820515	0.111500	0.576023
C108	C	1.320515	0.611500	1.076023
C109	C	0.829624	0.035208	0.537909
C110	C	1.329624	0.535208	1.037909
C111	C	0.829617	0.035204	0.461683
C112	C	1.329617	0.535204	0.961683
C113	C	0.820498	0.111500	0.423571
C114	C	1.320498	0.611500	0.923571
C115	C	0.867758	0.054419	0.696767
C116	C	1.367758	0.554419	1.196767
C117	C	0.867757	0.054414	0.772996
C118	C	1.367757	0.554414	1.272996
C119	C	0.773292	0.168582	0.773033
C120	C	1.273292	0.668582	1.273033
C121	C	0.773289	0.168579	0.696805
C122	C	1.273289	0.668579	1.196805
C123	C	0.820525	0.111499	0.658677
C124	C	1.320525	0.611499	1.158677
H125	H	0.463217	0.252727	-0.000180
H126	H	0.963217	0.752727	0.499820
N127	N	0.189550	-0.049744	-0.000244
N128	N	0.689550	0.450256	0.499756
H129	H	0.220004	-0.052613	-0.045129
H130	H	0.720004	0.447387	0.454871
H131	H	0.219908	-0.052572	0.044684
H132	H	0.719908	0.447428	0.544684
H133	H	0.734798	0.215044	0.333872
H134	H	1.234798	0.715044	0.833872
N135	N	0.703126	-0.448956	-0.066131
N136	N	1.203126	0.051044	0.433869
H137	H	0.688271	-0.397267	-0.096422
H138	H	1.188271	0.102733	0.403578
H139	H	0.733784	-0.491197	-0.096302
H140	H	1.233784	0.008803	0.403698
N141	N	0.839465	-0.047081	0.579008
N142	N	1.339465	0.452919	1.079008
H143	H	0.800866	-0.081886	0.565765
H144	H	1.300866	0.418114	1.065765
H145	H	0.886060	-0.078907	0.565694
H146	H	1.386060	0.421093	1.065694
N147	N	0.231974	0.231660	0.087976
N148	N	0.731974	0.731660	0.587976
H149	H	0.245403	0.224080	0.140917
H150	H	0.745403	0.724080	0.640917
H151	H	0.238209	0.290771	0.072084
H152	H	0.738209	0.790771	0.572084
N153	N	0.821073	-0.466700	0.137474
N154	N	1.321073	0.033300	0.637474
H155	H	0.806505	-0.414586	0.167339
H156	H	1.306505	0.085414	0.667339
H157	H	0.778444	-0.494491	0.124027
H158	H	1.278444	0.005509	0.624027
N159	N	0.839440	-0.047077	0.420576
N160	N	1.339440	0.452923	0.920576
H161	H	0.838055	-0.035499	0.366504
H162	H	1.338055	0.464501	0.866504
H163	H	0.886010	-0.078946	0.433879
H164	H	1.386010	0.421054	0.933879
N165	N	0.485873	-0.044501	-0.000177
N166	N	0.985873	0.455499	0.499823
H167	H	0.456210	-0.048434	-0.045075
H168	H	0.956210	0.451566	0.454925
H169	H	0.525097	-0.092196	-0.000138
H170	H	1.025097	0.407804	0.499862
H171	H	0.915755	-0.332041	0.071489
H172	H	1.415755	0.167959	0.571489
N173	N	0.918659	-0.007155	0.185428
N174	N	1.418659	0.492845	0.685428
H175	H	0.948583	-0.043312	0.221129
H176	H	1.448583	0.456688	0.721129
H177	H	0.892068	-0.044094	0.153821
H178	H	1.392068	0.455906	0.653821
N179	N	0.824695	-0.308247	0.137113
N180	N	1.324695	0.191753	0.637113
H181	H	0.849161	-0.335182	0.181309
H182	H	1.349161	0.164818	0.681309
H183	H	0.827782	-0.245654	0.137834
H184	H	1.327782	0.254346	0.637834
N185	N	0.602030	0.275392	-0.000155
N186	N	1.102030	0.775392	0.499845
H187	H	0.631693	0.279328	0.044744
H188	H	1.131693	0.779328	0.544744
H189	H	0.631711	0.279284	-0.045069
H190	H	1.131711	0.779284	0.454931
N191	N	0.801578	0.270067	0.420568
N192	N	1.301578	0.770067	0.920568
H193	H	0.802953	0.258490	0.366496
H194	H	1.302953	0.758490	0.866496
H195	H	0.755013	0.301946	0.433913
H196	H	1.255013	0.801946	0.933913
H197	H	0.734838	0.215057	0.804083
H198	H	1.234838	0.715057	1.304083
H199	H	0.016310	0.244828	-0.000256
H200	H	0.516310	0.744828	0.499744
N201	N	0.931119	-0.485585	0.073132
N202	N	1.431119	0.014415	0.573132
H203	H	0.964769	-0.441745	0.074915
H204	H	1.464769	0.058255	0.574915
H205	H	0.936671	-0.521493	0.118457
H206	H	1.436671	-0.021493	0.618457
N207	N	0.933027	-0.485282	-0.069354
N208	N	1.433027	0.014718	0.430646
H209	H	0.966402	-0.441123	-0.067745
H210	H	1.466402	0.058877	0.432255
H211	H	0.940919	-0.523289	-0.025498
H212	H	1.440919	-0.023289	0.474502
H213	H	0.624700	-0.021848	-0.000146
H214	H	1.124700	0.478152	0.499854
H215	H	0.906219	0.007938	0.665722
H216	H	1.406219	0.507938	1.165722
H217	H	0.046352	-0.032065	-0.000310
H218	H	0.546352	0.467935	0.499690
N219	N	0.722301	0.230128	0.185501
N220	N	1.222301	0.730128	0.685501
H221	H	0.691550	0.198223	0.153892
H222	H	1.191550	0.698223	0.653892
H223	H	0.692428	0.266277	0.221266
H224	H	1.192428	0.766277	0.721266
N225	N	0.825980	-0.470017	-0.138143
N226	N	1.325980	0.029983	0.361857
H227	H	0.785098	-0.501586	-0.125881
H228	H	1.285098	-0.001586	0.374119
H229	H	0.809253	-0.418697	-0.168147
H230	H	1.309253	0.081303	0.331853
N231	N	0.409036	-0.008683	-0.088397
N232	N	0.909036	0.491317	0.411603
H233	H	0.379128	-0.046312	-0.115287
H234	H	0.879128	0.453688	0.384713
H235	H	0.435772	0.022662	-0.124628
H236	H	0.935772	0.522662	0.375372
H237	H	0.803994	0.249907	0.568929
H238	H	1.303994	0.749907	1.068929
N239	N	0.822615	-0.309706	-0.137395
N240	N	1.322615	0.190294	0.362605
H241	H	0.782334	-0.266714	-0.123189
H242	H	1.282334	0.233286	0.376811
H243	H	0.856817	-0.281834	-0.168093
H244	H	1.356817	0.218166	0.331907
H245	H	0.374670	0.218714	0.076780
H246	H	0.874670	0.718714	0.576780
H247	H	0.906186	0.007929	0.333798
H248	H	1.406186	0.507929	0.833798
H249	H	0.906220	0.007934	0.804009
H250	H	1.406220	0.507934	1.304009
N251	N	0.933236	-0.325936	-0.075192
N252	N	1.433236	0.174064	0.424808
H253	H	0.933657	-0.262953	-0.078277
H254	H	1.433657	0.237047	0.421723
H255	H	0.960138	-0.348211	-0.030740
H256	H	1.460138	0.151789	0.469260
N257	N	0.705438	-0.290810	0.065599
N258	N	1.205438	0.209190	0.565599
H259	H	0.655522	-0.303973	0.063486
H260	H	1.155522	0.196027	0.563486
H261	H	0.728373	-0.315865	0.111307
H262	H	1.228373	0.184135	0.611307
N263	N	0.155137	0.267487	-0.000235
N264	N	0.655137	0.767487	0.499765
H265	H	0.184848	0.271424	-0.045122
H266	H	0.684848	0.771424	0.454878
H267	H	0.115912	0.315180	-0.000209
H268	H	0.615912	0.815180	0.499791
H269	H	0.715267	-0.299341	-0.049751
H270	H	1.215267	0.200659	0.450249
N271	N	0.258443	-0.011343	-0.088424
N272	N	0.758443	0.488657	0.411576
H273	H	0.270238	-0.003329	-0.141361
H274	H	0.770238	0.496671	0.358639
H275	H	0.277446	-0.070001	-0.072515
H276	H	0.777446	0.429999	0.427485
N277	N	0.703289	-0.450360	0.064871
N278	N	1.203289	0.049640	0.564871
H279	H	0.734129	-0.492825	0.094630
H280	H	1.234129	0.007175	0.594630
H281	H	0.688139	-0.399194	0.095699
H282	H	1.188139	0.100806	0.595699
N283	N	0.722341	0.230136	0.655717
N284	N	1.222341	0.730136	1.155717
H285	H	0.692423	0.266298	0.691441
H286	H	1.192423	0.766298	1.191441
H287	H	0.748923	0.267072	0.624071
H288	H	1.248923	0.767072	1.124071
