data_functionalizedCrystal
_audit_creation_method	'MofGen! by Chris Wilmer'
_symmetry_space_group_name_H-M	'P1'
_symmetry_Int_Tables_number	1
_symmetry_cell_setting	triclinic
loop_
_symmetry_equiv_pos_as_xyz
  x,y,z
_cell_length_a	19.288867
_cell_length_b	22.610064
_cell_length_c	19.288865
_cell_angle_alpha	89.996452
_cell_angle_beta	96.863342
_cell_angle_gamma	90.012521
loop_
_atom_site_label
_atom_site_type_symbol
_atom_site_fract_x
_atom_site_fract_y
_atom_site_fract_z
O1	O	0.921358	0.049171	-0.086647
O2	O	0.719097	0.049177	-0.098334
O3	O	0.826072	0.049162	0.008640
O4	O	0.814383	0.049186	-0.193621
O5	O	0.826042	-0.049207	0.008628
O6	O	0.719067	-0.049192	-0.098346
O7	O	0.921328	-0.049199	-0.086659
Zn8	Zn	0.820193	-0.064814	-0.092504
Zn9	Zn	0.820232	0.064792	-0.092488
O10	O	0.814353	-0.049183	-0.193633
C11	C	0.693206	-0.000007	-0.097964
C12	C	0.616102	-0.000005	-0.096834
N13	N	0.820171	-0.153266	-0.092515
C14	C	0.060553	0.053609	-0.088691
C15	C	0.133001	0.053611	-0.089748
C16	C	0.169213	-0.000010	-0.090287
C17	C	0.132974	-0.053637	-0.089750
C18	C	0.060529	-0.053638	-0.088686
C19	C	0.278528	-0.041086	-0.132660
C20	C	0.350971	-0.041082	-0.133728
C21	C	0.392659	-0.000010	-0.093566
C22	C	0.361893	0.041070	-0.052344
C23	C	0.289448	0.041069	-0.051280
C24	C	0.247768	-0.000015	-0.091440
C25	C	0.507446	0.053617	-0.095244
C26	C	0.579895	0.053617	-0.096297
C27	C	0.579866	-0.053633	-0.096306
C28	C	0.507419	-0.053631	-0.095246
C29	C	0.471213	-0.000005	-0.094718
C30	C	0.778222	-0.438111	-0.050463
C31	C	0.778216	-0.376191	-0.050466
O32	O	0.742521	-0.344170	-0.014714
N33	N	0.820200	-0.345218	-0.092493
C34	C	0.862198	-0.376169	-0.134513
O35	O	0.897909	-0.344138	-0.170259
C36	C	0.862208	-0.438087	-0.134505
C37	C	0.820216	-0.469057	-0.092482
C38	C	0.736234	-0.469081	-0.008442
C39	C	0.736240	-0.530996	-0.008440
C40	C	0.778234	-0.561942	-0.050458
C41	C	0.820222	-0.530973	-0.092479
C42	C	0.904210	-0.469036	-0.176522
C43	C	0.904217	-0.530959	-0.176510
C44	C	0.862225	-0.561929	-0.134486
C45	C	0.862222	-0.623834	-0.134496
N46	N	0.820238	-0.654807	-0.092470
C47	C	0.778244	-0.623861	-0.050451
C48	C	0.862175	-0.246135	-0.134525
C49	C	0.862162	-0.184217	-0.134537
C50	C	0.778180	-0.184244	-0.050489
C51	C	0.778190	-0.246163	-0.050481
C52	C	0.820191	-0.277108	-0.092498
C53	C	0.778259	-0.753888	-0.050450
C54	C	0.778266	-0.815809	-0.050454
C55	C	0.862250	-0.815777	-0.134498
C56	C	0.862241	-0.753862	-0.134498
C57	C	0.820243	-0.722919	-0.092468
O58	O	0.897900	-0.655895	-0.170227
O59	O	0.742546	-0.655899	-0.014704
C60	C	0.947219	-0.000013	-0.087029
C61	C	1.024323	-0.000012	-0.088159
C62	C	0.825681	-0.000024	0.034510
C63	C	0.824552	-0.000030	0.111614
N64	N	0.820260	0.153245	-0.092472
C65	C	0.814744	0.000004	-0.219503
C66	C	0.815873	0.000013	-0.296607
C67	C	0.887320	-0.000034	0.156310
C68	C	0.886259	-0.000025	0.228757
C69	C	0.822427	-0.000023	0.256505
C70	C	0.759651	-0.000014	0.211799
C71	C	0.760713	-0.000018	0.139354
C72	C	0.772237	-0.034478	0.364788
C73	C	0.771177	-0.034478	0.437233
C74	C	0.819147	-0.000009	0.479951
C75	C	0.868189	0.034452	0.450216
C76	C	0.869252	0.034448	0.377771
C77	C	0.821268	-0.000018	0.335059
C78	C	0.880769	-0.000003	0.603202
C79	C	0.879706	0.000010	0.675650
C80	C	0.753096	0.000015	0.658691
C81	C	0.754161	0.000008	0.586245
C82	C	0.818000	-0.000004	0.558505
H83	H	0.031079	0.097275	-0.088259
C84	C	0.923188	0.072354	0.345061
H85	H	0.916952	0.067410	0.295799
H86	H	0.916925	0.112796	0.356110
H87	H	0.968968	0.060231	0.363088
H88	H	0.477965	0.097282	-0.094812
H89	H	0.376013	-0.074520	-0.167310
C90	C	0.232677	-0.086266	-0.176844
H91	H	0.261373	-0.110724	-0.201555
H92	H	0.208336	-0.110028	-0.147105
H93	H	0.200042	-0.065914	-0.209144
H94	H	0.162463	-0.097296	-0.090187
C95	C	0.467527	-0.112612	-0.094908
H96	H	0.419186	-0.104933	-0.094265
H97	H	0.474048	-0.134511	-0.135653
H98	H	0.484721	-0.134778	-0.054654
H99	H	0.733172	-0.062549	0.330013
C100	C	0.407739	0.086253	-0.008164
H101	H	0.455292	0.080368	-0.014694
H102	H	0.393962	0.125182	-0.022292
H103	H	0.402258	0.081075	0.039753
C104	C	0.689437	-0.000014	0.242319
H105	H	0.697794	-0.000019	0.291867
H106	H	0.663611	0.034290	0.226961
H107	H	0.663593	-0.034321	0.226964
C108	C	0.920956	0.072373	0.497195
H109	H	0.913295	0.067447	0.544599
H110	H	0.967083	0.060256	0.491483
H111	H	0.915031	0.112815	0.484495
H112	H	0.609349	-0.097292	-0.096741
C113	C	0.619752	0.112600	-0.096887
H114	H	0.668085	0.104922	-0.097589
H115	H	0.602460	0.134631	-0.137211
H116	H	0.613309	0.134634	-0.056214
C117	C	0.255604	0.086248	-0.005938
H118	H	0.206489	0.080366	-0.011062
H119	H	0.273869	0.081075	0.041629
H120	H	0.265568	0.125180	-0.020417
C121	C	0.950987	-0.000009	0.572685
H122	H	0.988219	-0.000002	0.609684
H123	H	0.954024	-0.034315	0.544782
H124	H	0.954042	0.034296	0.544772
H125	H	0.743996	-0.271374	-0.016262
C126	C	0.908345	-0.150155	-0.180768
H127	H	0.902328	-0.108845	-0.174760
H128	H	0.955909	-0.160293	-0.167742
H129	H	0.895283	-0.160307	-0.228327
C130	C	0.691666	-0.000018	0.090186
H131	H	0.653496	-0.000018	0.117085
H132	H	0.689459	0.034282	0.061565
H133	H	0.689440	-0.034329	0.061581
H134	H	0.744068	-0.841022	-0.016233
C135	C	0.020672	-0.112622	-0.088107
H136	H	0.052612	-0.144558	-0.088583
H137	H	-0.002169	-0.114856	-0.047199
H138	H	-0.013010	-0.114846	-0.128196
C139	C	0.732057	-0.719860	-0.004224
H140	H	0.707050	-0.747179	0.020794
H141	H	0.760610	-0.695697	0.027819
H142	H	0.699994	-0.695716	-0.032776
C143	C	0.690063	-0.565055	0.037801
H144	H	0.665064	-0.537750	0.062830
H145	H	0.658004	-0.589224	0.009273
H146	H	0.718642	-0.589195	0.069846
C147	C	0.690033	-0.435050	0.037778
H148	H	0.665028	-0.462370	0.062797
H149	H	0.718582	-0.410883	0.069820
H150	H	0.657967	-0.410909	0.009225
C151	C	0.731990	-0.150198	-0.004263
H152	H	0.706979	-0.177508	0.020765
H153	H	0.760554	-0.126036	0.027770
H154	H	0.699929	-0.126053	-0.032816
C155	C	0.172862	0.112595	-0.090343
H156	H	0.140922	0.144532	-0.089882
H157	H	0.206552	0.114827	-0.050266
H158	H	0.195693	0.114819	-0.131262
C159	C	0.948754	0.000003	0.724817
H160	H	0.986923	-0.000010	0.697917
H161	H	0.950988	0.034308	0.753427
H162	H	0.950954	-0.034303	0.753433
H163	H	0.896375	-0.271326	-0.168747
H164	H	0.896439	-0.840985	-0.168711
H165	H	0.938406	-0.443832	-0.210741
H166	H	0.939302	-0.000042	0.133729
H167	H	0.938421	-0.556152	-0.210725
C168	C	0.908432	-0.719794	-0.180720
H169	H	0.933446	-0.747095	-0.205740
H170	H	0.879876	-0.695639	-0.212761
H171	H	0.940490	-0.695639	-0.152164
H172	H	0.701123	0.000020	0.681283
C173	C	0.955306	-0.000035	0.277931
H174	H	0.993477	-0.000046	0.251034
H175	H	0.957538	0.034268	0.306545
H176	H	0.957504	-0.034343	0.306544
H177	H	0.703049	0.000008	0.549852
C178	C	0.717235	-0.072383	0.469934
H179	H	0.688809	-0.092903	0.434118
H180	H	0.740821	-0.100097	0.501413
H181	H	0.688783	-0.047529	0.494437
