data_functionalizedCrystal
_audit_creation_method	'MofGen! by Chris Wilmer'
_symmetry_space_group_name_H-M	'P1'
_symmetry_Int_Tables_number	1
_symmetry_cell_setting	triclinic
loop_
_symmetry_equiv_pos_as_xyz
  x,y,z
_cell_length_a	14.560438
_cell_length_b	14.560438
_cell_length_c	14.560438
_cell_angle_alpha	59.999460
_cell_angle_beta	90.000986
_cell_angle_gamma	60.001641
loop_
_atom_site_label
_atom_site_type_symbol
_atom_site_fract_x
_atom_site_fract_y
_atom_site_fract_z
Zr1	Zr	0.884761	1.005294	-0.120503
O2	O	0.738116	1.196895	-0.267153
O3	O	0.929714	0.813693	-0.075548
O4	O	0.929715	1.005297	-0.267151
O5	O	0.738115	1.005288	0.075591
O6	O	1.080854	1.005300	-0.267149
O7	O	0.738115	1.005291	-0.075550
O8	O	1.080851	0.662555	0.075593
O9	O	0.738117	1.348033	-0.267151
O10	O	1.061680	0.892503	-0.056373
O11	O	0.948888	0.892499	0.056420
O12	O	0.948889	1.118089	-0.169167
O13	O	0.836096	1.118085	-0.056374
Zr14	Zr	1.125809	1.005294	0.120553
Zr15	Zr	1.125809	1.005298	-0.120499
Zr16	Zr	0.884761	1.005290	0.120549
Zr17	Zr	0.884763	1.246342	-0.120501
Zr18	Zr	1.125807	0.764246	0.120551
O19	O	1.080856	1.196895	0.075598
O20	O	1.080855	1.196901	-0.267147
O21	O	0.738116	1.196889	0.075593
O22	O	1.272454	0.813693	0.267202
O23	O	1.272453	0.813699	-0.075543
O24	O	0.929715	0.813687	0.267197
O25	O	1.272455	1.005300	-0.075541
O26	O	1.080854	1.005291	0.267201
O27	O	0.929716	1.005288	0.267198
O28	O	1.272455	1.005297	0.075600
O29	O	0.929718	1.348037	-0.267148
O30	O	1.080852	0.662551	0.267198
O31	O	1.272453	0.662554	0.267201
O32	O	1.272452	0.662558	0.075597
O33	O	0.738117	1.348030	-0.075547
O34	O	0.929718	1.348033	-0.075544
O35	O	1.061681	0.892499	0.169217
O36	O	1.174473	0.892503	0.056424
O37	O	1.061682	1.118089	-0.056371
O38	O	0.948889	1.118085	0.056422
C39	C	1.005282	0.703780	0.000022
C40	C	1.005282	0.601448	0.000021
C41	C	1.064166	0.457213	-0.058848
C42	C	1.064160	0.553371	-0.058855
C43	C	0.946396	0.553371	0.058899
C44	C	0.946396	0.457221	0.058899
C45	C	1.123058	0.409131	-0.117719
C46	C	1.181942	0.457203	-0.176599
C47	C	1.181936	0.553362	-0.176606
C48	C	1.123046	0.601448	-0.117733
C49	C	0.703770	1.005289	0.000020
C50	C	0.601439	1.005287	0.000018
C51	C	0.612237	0.887536	0.058896
C52	C	0.516082	0.887542	0.058906
C53	C	0.398335	1.123061	-0.058848
C54	C	0.494489	1.123054	-0.058851
C55	C	0.719187	0.769769	0.117765
C56	C	0.729989	0.652009	0.176646
C57	C	0.633834	0.652015	0.176656
C58	C	0.526877	0.769782	0.117785
C59	C	1.306799	1.005299	0.000030
C60	C	1.409130	1.005301	0.000031
C61	C	1.005284	1.005299	-0.301495
C62	C	1.005284	1.005301	-0.403828
C63	C	1.005287	1.306808	0.000027
C64	C	1.005288	1.409140	0.000028
C65	C	1.088547	1.005304	-0.451902
C66	C	1.088551	1.005292	-0.548048
C67	C	0.922018	1.005280	-0.548039
C68	C	0.922020	1.005283	-0.451890
C69	C	1.005285	1.005289	0.301544
C70	C	1.005285	1.005287	0.403877
C71	C	1.306797	0.703785	0.000027
C72	C	1.409127	0.601455	0.000028
C73	C	1.005283	0.703774	0.301542
C74	C	1.005282	0.601441	0.403874
C75	C	1.306797	0.703779	0.301547
C76	C	1.409128	0.601448	0.403880
C77	C	0.703772	1.306809	-0.301497
C78	C	0.601442	1.409140	-0.403831
C79	C	0.703773	1.306803	0.000023
C80	C	0.601443	1.409133	0.000022
C81	C	1.005287	1.306814	-0.301492
C82	C	1.005288	1.409147	-0.403824
C83	C	1.398328	0.553378	-0.058848
C84	C	1.494482	0.457236	-0.058851
C85	C	1.612231	0.457254	0.058906
C86	C	1.516078	0.553400	0.058902
C87	C	1.064157	0.553363	0.510828
C88	C	1.064144	0.457219	0.606976
C89	C	0.946378	0.457237	0.489202
C90	C	0.946386	0.553385	0.393056
C91	C	1.516079	0.553372	0.393083
C92	C	1.612226	0.457230	0.489241
C93	C	1.494455	0.457243	0.606989
C94	C	1.398311	0.553391	0.510833
H95	H	1.123072	0.330832	-0.117718
H96	H	1.311220	0.592538	0.519633
Cl97	Cl	1.193230	1.005291	-0.608480
Cl98	Cl	1.480868	0.396818	0.741445
H99	H	0.448586	0.769777	0.117805
Cl100	Cl	0.817344	1.005265	-0.608469
Cl101	Cl	1.255959	0.396766	-0.250619
Cl102	Cl	1.746685	0.396829	0.132922
H103	H	1.156347	1.005316	-0.412771
H104	H	0.854216	1.005277	-0.412743
Cl105	Cl	1.255948	0.613805	-0.250637
Cl106	Cl	1.529680	0.613793	0.258632
H107	H	1.524879	0.592549	0.106846
H108	H	1.112110	0.592492	0.519643
Cl109	Cl	0.872371	0.396787	0.132912
Cl110	Cl	1.263880	0.613794	-0.132868
Cl111	Cl	1.480899	0.396803	-0.132872
Cl112	Cl	1.138159	0.396785	0.741433
H113	H	0.817077	0.556127	0.224584
Cl114	Cl	0.872358	0.613838	0.258588
Cl115	Cl	0.872346	0.396813	0.475613
H116	H	1.699309	0.418091	0.480442
H117	H	0.642634	0.556129	0.224608
H118	H	0.898451	0.592530	0.106832
Cl119	Cl	1.123031	0.722346	-0.117758
H120	H	0.311246	1.218941	-0.106780
Cl121	Cl	0.840071	0.769754	0.117750
H122	H	0.485694	1.218937	-0.106772
