data_functionalizedCrystal
_audit_creation_method	'MofGen! by Chris Wilmer'
_symmetry_space_group_name_H-M	'P1'
_symmetry_Int_Tables_number	1
_symmetry_cell_setting	triclinic
loop_
_symmetry_equiv_pos_as_xyz
  x,y,z
_cell_length_a	10.654562
_cell_length_b	10.489741
_cell_length_c	9.130313
_cell_angle_alpha	89.999004
_cell_angle_beta	89.996930
_cell_angle_gamma	84.514639
loop_
_atom_site_label
_atom_site_type_symbol
_atom_site_fract_x
_atom_site_fract_y
_atom_site_fract_z
O1	O	1.667909	0.179233	-0.121895
O2	O	1.302440	0.196286	-0.121877
O3	O	1.493491	0.002158	-0.121877
O4	O	1.476858	0.373361	-0.121894
O5	O	1.493488	0.002163	0.121721
O6	O	1.302438	0.196291	0.121722
O7	O	1.667906	0.179239	0.121704
Cu8	Cu	1.485172	0.187765	0.143956
Cu9	Cu	1.485175	0.187759	-0.144128
O10	O	1.476856	0.373366	0.121705
C11	C	1.255641	0.195033	-0.000075
C12	C	1.116197	0.191277	-0.000068
C13	C	1.050664	0.189528	0.132707
C14	C	0.919640	0.186009	0.132682
C15	C	0.919692	0.185993	-0.132902
C16	C	1.050715	0.189503	-0.132877
C17	C	1.116145	0.191301	0.265516
C18	C	1.050612	0.189554	0.398301
C19	C	0.919588	0.186034	0.398276
C20	C	0.854097	0.184263	0.265467
C21	C	1.492233	-0.045370	-0.000079
C22	C	1.488475	-0.186998	-0.000081
C23	C	1.366915	-0.255085	-0.000086
C24	C	1.424338	-0.347230	0.120018
C25	C	1.424369	-0.347210	-0.120151
C26	C	1.545947	-0.277278	0.120122
C27	C	1.545962	-0.277248	-0.120155
C28	C	1.603472	-0.369366	-0.000022
C29	C	1.714706	0.180492	-0.000101
C30	C	1.854150	0.184248	-0.000118
C31	C	1.478113	0.420895	-0.000097
C32	C	1.481872	0.562523	-0.000104
N33	N	1.485179	0.187769	0.346578
N34	N	1.485177	0.187746	-0.346751
C35	C	1.569798	0.101839	0.423230
C36	C	1.569795	0.101823	0.576567
C37	C	1.400549	0.273680	0.576587
C38	C	1.400548	0.273688	0.423253
C39	C	1.654430	0.015920	0.346555
C40	C	1.739056	-0.070017	0.423207
C41	C	1.739053	-0.070032	0.576544
C42	C	1.654423	0.015889	0.653229
H43	H	0.747409	0.181394	0.265458
O44	O	1.722831	-0.428335	0.000304
C45	C	1.921708	-0.459495	0.127180
C46	C	1.786563	-0.392652	0.127002
H47	H	1.973283	-0.430650	0.229589
H48	H	1.918049	-0.567756	0.126302
H49	H	1.973871	-0.429495	0.025708
H50	H	1.734322	-0.422549	0.228457
H51	H	1.790313	-0.284405	0.127804
H52	H	1.372920	-0.378153	-0.221699
O53	O	0.855768	0.184491	0.527160
C54	C	0.694640	0.290873	0.681295
C55	C	0.766797	0.292759	0.535265
H56	H	0.622710	0.378412	0.687910
H57	H	0.643887	0.200172	0.687948
H58	H	0.763980	0.292678	0.776194
H59	H	0.697542	0.291002	0.440284
H60	H	0.817570	0.383453	0.528740
O61	O	1.654562	0.015724	0.197606
C62	C	1.747487	-0.078489	-0.022450
C63	C	1.747451	-0.078429	0.146231
H64	H	1.822598	-0.154586	-0.064038
H65	H	1.651021	-0.100434	-0.064161
H66	H	1.768924	0.019589	-0.064030
H67	H	1.726067	-0.176479	0.187936
H68	H	1.843925	-0.056413	0.187842
H69	H	0.866359	0.184554	-0.241029
H70	H	1.266970	-0.205390	0.000040
O71	O	1.821132	-0.153677	0.348816
C72	C	1.892758	-0.374799	0.302036
C73	C	1.799716	-0.280179	0.386324
H74	H	1.875494	-0.477095	0.332353
H75	H	1.878252	-0.360173	0.179251
H76	H	1.993482	-0.357164	0.332181
H77	H	1.698956	-0.297756	0.356302
H78	H	1.814332	-0.294827	0.509089
O79	O	1.607130	-0.240669	0.241550
C80	C	1.612711	-0.235445	0.505307
C81	C	1.543323	-0.277005	0.367915
H82	H	1.561137	-0.264782	0.607507
H83	H	1.713247	-0.283665	0.505836
H84	H	1.615075	-0.127025	0.504279
H85	H	1.540863	-0.385410	0.368852
H86	H	1.442824	-0.228692	0.367438
O87	O	1.821129	-0.153462	0.651232
C88	C	1.896192	-0.229596	0.887439
C89	C	1.803146	-0.135067	0.803042
H90	H	1.881703	-0.214738	1.010192
H91	H	1.878916	-0.331950	0.857390
H92	H	1.996913	-0.212022	0.857199
H93	H	1.702389	-0.152524	0.833237
H94	H	1.820531	-0.032745	0.833098
H95	H	1.104072	0.190934	-0.240993
H96	H	1.654419	0.015861	0.778086
H97	H	1.372902	-0.378217	0.221562
H98	H	1.597354	-0.246228	-0.221705
O99	O	1.318177	0.357014	0.651011
C100	C	1.100482	0.429731	0.697892
C101	C	1.193626	0.335259	0.613544
H102	H	0.999764	0.412194	0.667608
H103	H	1.114913	0.414964	0.820667
H104	H	1.117826	0.532049	0.667767
H105	H	1.176339	0.232905	0.643546
H106	H	1.179174	0.350138	0.490789
O107	O	1.318481	0.357339	0.348847
C108	C	1.246830	0.578442	0.301992
C109	C	1.339866	0.483854	0.386323
H110	H	1.264069	0.680750	0.332284
H111	H	1.261367	0.563793	0.179214
H112	H	1.146103	0.560796	0.332124
H113	H	1.440629	0.501443	0.356314
H114	H	1.325219	0.498525	0.509081
H115	H	1.103944	0.190986	0.506429
H116	H	1.222831	0.194171	0.265550
