data_functionalizedCrystal
_audit_creation_method	'MofGen! by Chris Wilmer'
_symmetry_space_group_name_H-M	'P1'
_symmetry_Int_Tables_number	1
_symmetry_cell_setting	triclinic
loop_
_symmetry_equiv_pos_as_xyz
  x,y,z
_cell_length_a	10.723023
_cell_length_b	14.044220
_cell_length_c	9.798715
_cell_angle_alpha	90.004381
_cell_angle_beta	90.002994
_cell_angle_gamma	88.828213
loop_
_atom_site_label
_atom_site_type_symbol
_atom_site_fract_x
_atom_site_fract_y
_atom_site_fract_z
O1	O	1.670497	0.133037	0.113481
O2	O	2.170497	0.633037	0.613481
O3	O	1.308619	0.145772	0.113487
O4	O	1.808619	0.645772	0.613487
O5	O	1.484126	0.001384	0.113471
O6	O	1.984126	0.501384	0.613471
O7	O	1.494990	0.277424	0.113498
O8	O	1.994990	0.777424	0.613498
O9	O	1.484113	0.001383	-0.113511
O10	O	1.984113	0.501383	0.386489
O11	O	1.308606	0.145771	-0.113495
O12	O	1.808606	0.645771	0.386505
O13	O	1.670484	0.133035	-0.113501
O14	O	2.170484	0.633035	0.386499
Zn15	Zn	1.489543	0.139403	-0.149536
Zn16	Zn	1.989543	0.639403	0.350464
Zn17	Zn	1.489560	0.139404	0.149523
Zn18	Zn	1.989560	0.639404	0.649523
O19	O	1.494976	0.277423	-0.113484
O20	O	1.994976	0.777423	0.386516
C21	C	1.262020	0.144845	-0.000003
C22	C	1.762020	0.644845	0.499997
C23	C	1.123188	0.142072	-0.000001
C24	C	1.623188	0.642072	0.499999
C25	C	1.061286	0.140836	-0.117584
C26	C	1.561286	0.640836	0.382416
C27	C	0.917796	0.137970	-0.117584
C28	C	1.417796	0.637970	0.382416
C29	C	1.479364	-0.033962	-0.000021
C30	C	1.979364	0.466038	0.499979
C31	C	1.465180	-0.139280	-0.000022
C32	C	1.965180	0.360720	0.499978
C33	C	1.439248	-0.332109	-0.000002
C34	C	1.939248	0.167891	0.499998
C35	C	1.539850	-0.389089	0.000000
C36	C	2.039850	0.110911	0.500000
C37	C	1.525421	-0.496386	0.000012
C38	C	2.025421	0.003614	0.500012
C39	C	1.453675	-0.224802	-0.000013
C40	C	1.953675	0.275198	0.499987
C41	C	1.717083	0.133963	-0.000007
C42	C	2.217083	0.633963	0.499993
C43	C	1.855915	0.136735	-0.000000
C44	C	2.355915	0.636735	0.500000
C45	C	1.499739	0.312769	0.000010
C46	C	1.999739	0.812769	0.500010
C47	C	1.513923	0.418087	0.000021
C48	C	2.013923	0.918087	0.500021
N49	N	1.489540	0.139401	-0.353636
N50	N	1.989540	0.639401	0.146364
C51	C	1.415891	0.200291	-0.421439
C52	C	1.915891	0.700291	0.078561
C53	C	1.415908	0.200290	-0.578602
C54	C	1.915908	0.700290	-0.078602
N55	N	1.489572	0.139399	0.353622
N56	N	1.989572	0.639399	0.853622
H57	H	0.864561	0.136912	-0.218251
H58	H	1.364561	0.636912	0.281749
H59	H	1.636814	-0.357287	0.000090
H60	H	2.136814	0.142713	0.500090
H61	H	0.909141	0.137804	0.100672
H62	H	1.409141	0.637804	0.600672
N63	N	1.310809	-0.374218	-0.000006
N64	N	1.810809	0.125782	0.499994
H65	H	1.300347	-0.414813	0.084136
H66	H	1.800347	0.085187	0.584136
H67	H	1.300435	-0.414776	-0.084205
H68	H	1.800435	0.085224	0.415795
H69	H	1.552624	0.087262	-0.588079
H70	H	2.052624	0.587262	-0.088079
H71	H	1.352830	0.252426	-0.363139
H72	H	1.852830	0.752426	0.136861
H73	H	1.114518	0.141893	-0.218250
H74	H	1.614518	0.641893	0.281750
H75	H	1.069956	0.141007	0.100665
H76	H	1.569956	0.641007	0.600665
H77	H	1.352850	0.252417	-0.636909
H78	H	1.852850	0.752417	-0.136909
N79	N	1.573092	0.070351	-0.430850
N80	N	2.073092	0.570351	0.069150
H81	H	1.520511	0.028170	-0.490153
H82	H	2.020511	0.528170	0.009847
H83	H	1.622224	0.029784	-0.363921
H84	H	2.122224	0.529784	0.136079
