data_functionalizedCrystal
_audit_creation_method	'MofGen! by Chris Wilmer'
_symmetry_space_group_name_H-M	'P1'
_symmetry_Int_Tables_number	1
_symmetry_cell_setting	triclinic
loop_
_symmetry_equiv_pos_as_xyz
  x,y,z
_cell_length_a	18.215407
_cell_length_b	12.594516
_cell_length_c	18.215399
_cell_angle_alpha	90.023782
_cell_angle_beta	90.019833
_cell_angle_gamma	90.012264
loop_
_atom_site_label
_atom_site_type_symbol
_atom_site_fract_x
_atom_site_fract_y
_atom_site_fract_z
Zn1	Zn	1.125139	-0.423740	0.416137
Zn2	Zn	1.125075	-0.601738	0.293080
Zn3	Zn	1.002071	-0.423775	0.293085
Zn4	Zn	1.002065	-0.601679	0.416105
O5	O	1.063588	-0.512733	0.354602
O6	O	1.228115	-0.447362	0.399825
O7	O	1.108734	-0.578170	0.190096
O8	O	1.018426	-0.274825	0.309423
O9	O	1.228068	-0.578136	0.309415
O10	O	1.108843	-0.274799	0.399830
O11	O	1.018364	-0.447422	0.190100
O12	O	0.899086	-0.447364	0.309392
O13	O	1.018415	-0.578035	0.519093
O14	O	0.899082	-0.578069	0.399774
O15	O	1.108837	-0.447305	0.519117
O16	O	1.108729	-0.750676	0.309384
O17	O	1.018354	-0.750632	0.399770
C18	C	0.872381	-0.512715	0.354580
C19	C	0.790583	-0.512733	0.354589
C20	C	0.602406	-0.580898	0.401592
C21	C	0.525547	-0.580901	0.401601
C22	C	0.525522	-0.444588	0.307627
C23	C	0.602379	-0.444580	0.307622
C24	C	0.640819	-0.512741	0.354604
C25	C	0.487103	-0.512752	0.354618
C26	C	0.403769	-0.512755	0.354627
C27	C	0.724158	-0.512736	0.354595
C28	C	1.063554	-0.789274	0.354589
C29	C	1.063606	-0.907579	0.354608
C30	C	1.112818	-0.976817	0.305499
C31	C	1.130801	-1.047521	0.372671
C32	C	1.045716	-1.047675	0.287480
C33	C	1.081623	-0.976724	0.421814
C34	C	0.996507	-0.976872	0.336578
C35	C	1.014464	-1.047544	0.403795
C36	C	1.255541	-0.512752	0.354623
C37	C	1.337339	-0.512760	0.354632
C38	C	1.063633	-0.512660	0.546555
C39	C	1.063652	-0.512628	0.628354
C40	C	1.063642	-0.235112	0.354631
C41	C	1.063665	-0.116807	0.354643
C42	C	1.063585	-0.512729	0.163395
C43	C	1.063709	-0.512461	0.081597
C44	C	1.110751	-0.444493	0.816561
C45	C	1.110760	-0.444462	0.893420
C46	C	1.016604	-0.580599	0.893384
C47	C	1.016592	-0.580624	0.816526
C48	C	1.063670	-0.512572	0.778117
C49	C	1.063691	-0.512517	0.931833
C50	C	1.063700	-0.512483	1.015167
C51	C	1.063660	-0.512604	0.694778
H52	H	0.633701	-0.636396	0.439849
H53	H	0.939753	-0.945814	0.321288
H54	H	0.978248	-0.636061	0.785224
H55	H	1.096723	-0.945692	0.478647
H56	H	0.494274	-0.636400	0.439865
C57	C	0.483877	-0.370657	0.256498
C58	C	0.502554	-0.393680	0.183657
C59	C	0.464214	-0.325589	0.136535
H60	H	0.432591	-0.380358	0.263130
H61	H	0.496498	-0.299141	0.267306
H62	H	0.489928	-0.465179	0.172853
H63	H	0.553834	-0.383973	0.177002
H64	H	0.476835	-0.254073	0.147343
H65	H	0.412929	-0.335295	0.143174
H66	H	0.476886	-0.341194	0.087108
C67	C	1.161825	-0.370714	0.774726
C68	C	1.151753	-0.385322	0.699188
C69	C	1.198794	-0.317379	0.660630
H70	H	1.151110	-0.299154	0.787243
H71	H	1.211289	-0.386293	0.787286
H72	H	1.102300	-0.369736	0.686634
H73	H	1.162473	-0.456868	0.686650
H74	H	1.248258	-0.332958	0.673189
H75	H	1.188075	-0.245823	0.673152
H76	H	1.191971	-0.327288	0.609373
H77	H	1.030559	-1.078839	0.230696
C78	C	1.161960	-0.370509	0.935027
C79	C	1.203195	-0.310941	0.884936
C80	C	1.250376	-0.242811	0.923236
H81	H	1.133904	-0.324024	0.965010
H82	H	1.194061	-0.411194	0.964995
H83	H	1.171098	-0.270259	0.854980
H84	H	1.231266	-0.357398	0.854950
H85	H	1.282478	-0.283495	0.953205
H86	H	1.222315	-0.196332	0.953219
H87	H	1.278365	-0.202393	0.889256
C88	C	0.965420	-0.654530	0.934955
C89	C	0.924171	-0.714136	0.884834
C90	C	0.877006	-0.782246	0.923100
H91	H	0.993488	-0.700991	0.964937
H92	H	0.933326	-0.613829	0.964922
H93	H	0.956261	-0.754834	0.854879
H94	H	0.896088	-0.667702	0.854850
H95	H	0.844913	-0.741546	0.953067
H96	H	0.905081	-0.828701	0.953081
H97	H	0.849009	-0.822690	0.889099
H98	H	0.633656	-0.389071	0.269359
C99	C	1.206432	-1.089107	0.393073
C100	C	1.205285	-1.200263	0.393497
C101	C	1.274940	-1.238599	0.412300
H102	H	1.241395	-1.065012	0.358169
H103	H	1.219492	-1.063818	0.440457
H104	H	1.192234	-1.225542	0.346120
H105	H	1.170337	-1.224386	0.428402
H106	H	1.288000	-1.213310	0.459684
H107	H	1.309898	-1.214497	0.377393
H108	H	1.274170	-1.314021	0.412597
H109	H	1.154442	-0.945762	0.264008
H110	H	0.972872	-1.078402	0.445388
