data_functionalizedCrystal
_audit_creation_method	'MofGen! by Chris Wilmer'
_symmetry_space_group_name_H-M	'P1'
_symmetry_Int_Tables_number	1
_symmetry_cell_setting	triclinic
loop_
_symmetry_equiv_pos_as_xyz
  x,y,z
_cell_length_a	13.339070
_cell_length_b	16.109301
_cell_length_c	15.186229
_cell_angle_alpha	90.005167
_cell_angle_beta	89.996148
_cell_angle_gamma	80.454613
loop_
_atom_site_label
_atom_site_type_symbol
_atom_site_fract_x
_atom_site_fract_y
_atom_site_fract_z
O1	O	1.342144	-0.416773	-0.073272
O2	O	1.675477	-0.083440	0.260062
O3	O	2.008810	0.249893	0.593395
O4	O	1.047635	-0.362069	-0.073265
O5	O	1.380968	-0.028736	0.260068
O6	O	1.714301	0.304597	0.593402
O7	O	1.202980	-0.270258	-0.073259
O8	O	1.536313	0.063075	0.260074
O9	O	1.869646	0.396408	0.593407
O10	O	1.186799	-0.508584	-0.073277
O11	O	1.520132	-0.175251	0.260056
O12	O	1.853465	0.158082	0.593390
O13	O	1.202969	-0.270254	0.073198
O14	O	1.536303	0.063079	0.406531
O15	O	1.869636	0.396412	0.739864
O16	O	1.047624	-0.362065	0.073192
O17	O	1.380958	-0.028732	0.406526
O18	O	1.714291	0.304602	0.739859
O19	O	1.342133	-0.416769	0.073186
O20	O	1.675467	-0.083436	0.406519
O21	O	2.008800	0.249897	0.739852
Zn22	Zn	1.194877	-0.389416	0.096442
Zn23	Zn	1.528210	-0.056083	0.429776
Zn24	Zn	1.861544	0.277250	0.763109
Zn25	Zn	1.194891	-0.389422	-0.096521
Zn26	Zn	1.528224	-0.056089	0.236812
Zn27	Zn	1.861557	0.277245	0.570145
O28	O	1.186788	-0.508580	0.073180
O29	O	1.520122	-0.175247	0.406514
O30	O	1.853455	0.158087	0.739847
C31	C	1.009943	-0.352827	-0.000035
C32	C	1.343277	-0.019493	0.333298
C33	C	1.676610	0.313840	0.666631
C34	C	0.897651	-0.325282	-0.000032
C35	C	1.230984	0.008051	0.333301
C36	C	1.564317	0.341384	0.666634
C37	C	1.202319	-0.239130	-0.000030
C38	C	1.535652	0.094203	0.333303
C39	C	1.868986	0.427537	0.666636
C40	C	1.200354	-0.146381	-0.000029
C41	C	1.533687	0.186952	0.333304
C42	C	1.867021	0.520286	0.666638
N43	N	1.194875	-0.389414	0.228135
N44	N	1.528209	-0.056081	0.561468
N45	N	1.861542	0.277253	0.894802
C46	C	0.532787	-0.539450	-0.000062
C47	C	0.866120	-0.206117	0.333271
C48	C	1.199454	0.127216	0.666605
C49	C	0.638291	-0.565332	-0.000068
C50	C	0.971625	-0.231999	0.333266
C51	C	1.304958	0.101335	0.666599
C52	C	0.703136	-0.505322	-0.000059
C53	C	1.036469	-0.171989	0.333275
C54	C	1.369803	0.161345	0.666608
C55	C	0.662467	-0.419426	-0.000045
C56	C	0.995800	-0.086092	0.333289
C57	C	1.329133	0.247241	0.666622
C58	C	0.556952	-0.393541	-0.000046
C59	C	0.890286	-0.060208	0.333287
C60	C	1.223619	0.273125	0.666621
C61	C	0.727301	-0.359413	-0.000042
C62	C	1.060635	-0.026079	0.333291
C63	C	1.393968	0.307254	0.666624
C64	C	0.686632	-0.273517	-0.000028
C65	C	1.019965	0.059817	0.333305
C66	C	1.353299	0.393150	0.666638
C67	C	0.581127	-0.247637	-0.000029
C68	C	0.914461	0.085697	0.333304
C69	C	1.247794	0.419030	0.666637
C70	C	0.516283	-0.307647	-0.000038
C71	C	0.849616	0.025686	0.333295
C72	C	1.182949	0.359020	0.666628
C73	C	0.832816	-0.385297	-0.000041
C74	C	1.166149	-0.051964	0.333292
C75	C	1.499482	0.281370	0.666626
C76	C	0.856981	-0.239388	-0.000025
C77	C	1.190314	0.093945	0.333309
C78	C	1.523648	0.427279	0.666642
C79	C	0.751477	-0.213506	-0.000019
C80	C	1.084810	0.119827	0.333314
C81	C	1.418143	0.453160	0.666647
C82	C	1.379825	-0.426012	-0.000046
C83	C	1.713158	-0.092679	0.333287
C84	C	2.046491	0.240655	0.666621
C85	C	1.492117	-0.453556	-0.000054
C86	C	1.825451	-0.120223	0.333279
C87	C	2.158784	0.213111	0.666612
C88	C	1.187449	-0.539708	-0.000051
C89	C	1.520782	-0.206375	0.333283
C90	C	1.854116	0.126958	0.666616
C91	C	1.189414	-0.632457	-0.000058
C92	C	1.522747	-0.299124	0.333275
C93	C	1.856081	0.034209	0.666609
C94	C	1.287963	0.055662	-0.000045
C95	C	1.621297	0.388995	0.333288
C96	C	1.954630	0.722329	0.666622
C97	C	1.286109	0.142810	-0.000052
C98	C	1.619442	0.476144	0.333281
C99	C	1.952776	0.809477	0.666614
C100	C	1.101798	0.165494	-0.000045
C101	C	1.435131	0.498828	0.333289
C102	C	1.768464	0.832161	0.666622
C103	C	1.103653	0.078347	-0.000044
C104	C	1.436986	0.411681	0.333290
C105	C	1.770320	0.745014	0.666623
C106	C	1.196739	0.023433	-0.000039
C107	C	1.530072	0.356766	0.333294
C108	C	1.863405	0.690100	0.666627
C109	C	1.193029	0.197729	-0.000048
C110	C	1.526363	0.531062	0.333286
C111	C	1.859696	0.864395	0.666619
C112	C	1.191018	0.292219	-0.000055
C113	C	1.524351	0.625552	0.333278
C114	C	1.857685	0.958886	0.666611
C115	C	1.198750	-0.071064	-0.000033
C116	C	1.532084	0.262270	0.333300
C117	C	1.865417	0.595603	0.666633
N118	N	1.194901	-0.389420	-0.228214
N119	N	1.528234	-0.056087	0.105119
N120	N	1.861567	0.277247	0.438453
C121	C	1.263685	-0.348785	0.453860
C122	C	1.597019	-0.015451	0.787194
C123	C	1.930352	0.317882	1.120527
C124	C	1.263689	-0.348783	0.546050
C125	C	1.597022	-0.015450	0.879383
C126	C	1.930355	0.317883	1.212717
C127	C	1.126083	-0.430050	0.546054
C128	C	1.459417	-0.096717	0.879387
C129	C	1.792750	0.236616	1.212721
C130	C	1.126076	-0.430046	0.453866
C131	C	1.459409	-0.096713	0.787199
C132	C	1.792743	0.236621	1.120533
C133	C	1.194883	-0.389415	0.407772
C134	C	1.528216	-0.056082	0.741105
C135	C	1.861549	0.277251	1.074438
C136	C	1.194893	-0.389418	0.592149
C137	C	1.528227	-0.056085	0.925483
C138	C	1.861560	0.277248	1.258816
C139	C	1.194896	-0.389417	0.692105
C140	C	1.528229	-0.056084	1.025439
C141	C	1.861563	0.277249	1.358772
C142	C	1.194879	-0.389415	0.307809
C143	C	1.528212	-0.056081	0.641142
C144	C	1.861546	0.277252	0.974476
H145	H	0.865918	-0.455234	-0.000049
H146	H	1.199251	-0.121901	0.333285
H147	H	1.532585	0.211433	0.666618
F148	F	0.403990	-0.280105	-0.000030
F149	F	0.737324	0.053228	0.333303
F150	F	1.070657	0.386561	0.666636
F151	F	1.383203	0.177106	-0.000060
F152	F	1.716536	0.510440	0.333273
F153	F	2.049870	0.843773	0.666607
H154	H	1.363760	0.010952	-0.000043
H155	H	1.697093	0.344286	0.333290
H156	H	2.030426	0.677619	0.666623
F157	F	1.002734	0.223945	-0.000050
F158	F	1.336068	0.557278	0.333284
F159	F	1.669401	0.890612	0.666617
F160	F	1.336913	-0.305539	0.404807
F161	F	1.670247	0.027794	0.738140
F162	F	2.003580	0.361128	1.071473
H163	H	1.029362	0.052108	-0.000042
H164	H	1.362696	0.385441	0.333292
H165	H	1.696029	0.718774	0.666625
F166	F	1.336915	-0.305537	0.595098
F167	F	1.670249	0.027797	0.928431
F168	F	2.003582	0.361130	1.261765
H169	H	0.909778	-0.190522	-0.000021
H170	H	1.243111	0.142811	0.333312
H171	H	1.576445	0.476144	0.666646
F172	F	0.463770	-0.603307	-0.000084
F173	F	0.797104	-0.269974	0.333250
F174	F	1.130437	0.063360	0.666583
H175	H	1.070044	-0.463132	0.416338
H176	H	1.403377	-0.129798	0.749672
H177	H	1.736711	0.203535	1.083005
H178	H	0.789042	-0.526400	-0.000065
H179	H	1.122375	-0.193067	0.333268
H180	H	1.455708	0.140267	0.666602
F181	F	0.537847	-0.156218	-0.000039
F182	F	0.871180	0.177115	0.333294
F183	F	1.204514	0.510448	0.666628
F184	F	1.052860	-0.473293	0.595117
F185	F	1.386193	-0.139959	0.928451
F186	F	1.719527	0.193374	1.261784
H187	H	0.718348	-0.143568	-0.000015
H188	H	1.051682	0.189765	0.333318
H189	H	1.385015	0.523099	0.666651
H190	H	0.671396	-0.635268	-0.000086
H191	H	1.004730	-0.301935	0.333248
H192	H	1.338063	0.031398	0.666581
