data_functionalizedCrystal
_audit_creation_method	'MofGen! by Chris Wilmer'
_symmetry_space_group_name_H-M	'P1'
_symmetry_Int_Tables_number	1
_symmetry_cell_setting	triclinic
loop_
_symmetry_equiv_pos_as_xyz
  x,y,z
_cell_length_a	19.077105
_cell_length_b	19.121063
_cell_length_c	19.077174
_cell_angle_alpha	94.804191
_cell_angle_beta	85.483752
_cell_angle_gamma	90.263052
loop_
_atom_site_label
_atom_site_type_symbol
_atom_site_fract_x
_atom_site_fract_y
_atom_site_fract_z
Zn1	Zn	1.079661	-0.341255	-0.455843
Zn2	Zn	1.579661	0.158745	0.044157
Zn3	Zn	1.070214	-0.453789	-0.342572
Zn4	Zn	1.570214	0.046211	0.157428
Zn5	Zn	0.957450	-0.331437	-0.332838
Zn6	Zn	1.457450	0.168563	0.167162
Zn7	Zn	0.957110	-0.453743	-0.455688
Zn8	Zn	1.457110	0.046257	0.044312
O9	O	1.016109	-0.395056	-0.396735
O10	O	1.516109	0.104944	0.103265
O11	O	1.176888	-0.360311	-0.444956
O12	O	1.676888	0.139689	0.055044
O13	O	1.051444	-0.433469	-0.242463
O14	O	1.551444	0.066531	0.257537
O15	O	0.977757	-0.234459	-0.345146
O16	O	1.477757	0.265541	0.154854
O17	O	1.169947	-0.442989	-0.361736
O18	O	1.669947	0.057011	0.138264
O19	O	1.067545	-0.241672	-0.435517
O20	O	1.567545	0.258328	0.064483
O21	O	0.968597	-0.343578	-0.235312
O22	O	1.468597	0.156422	0.264688
O23	O	0.858924	-0.343533	-0.344996
O24	O	1.358924	0.156467	0.155004
O25	O	0.977178	-0.442911	-0.554526
O26	O	1.477178	0.057089	-0.054526
O27	O	0.858675	-0.433391	-0.435253
O28	O	1.358675	0.066609	0.064747
O29	O	1.067215	-0.360267	-0.554640
O30	O	1.567215	0.139733	-0.054640
O31	O	1.051115	-0.552064	-0.361586
O32	O	1.551115	-0.052064	0.138414
O33	O	0.968018	-0.552030	-0.444692
O34	O	1.468018	-0.052030	0.055308
C35	C	0.833265	-0.387392	-0.389052
C36	C	1.333265	0.112608	0.110948
C37	C	0.755043	-0.384131	-0.385782
C38	C	1.255043	0.115869	0.114218
C39	C	0.718177	-0.429448	-0.431170
C40	C	1.218177	0.070552	0.068830
C41	C	0.644681	-0.426375	-0.428101
C42	C	1.144681	0.073625	0.071899
C43	C	0.608051	-0.377988	-0.379640
C44	C	1.108051	0.122012	0.120360
C45	C	0.644922	-0.332666	-0.334250
C46	C	1.144922	0.167334	0.165750
C47	C	0.718417	-0.335737	-0.337323
C48	C	1.218417	0.164263	0.162677
C49	C	0.388255	-0.363778	-0.365420
C50	C	0.888255	0.136222	0.134580
C51	C	0.314753	-0.360713	-0.362349
C52	C	0.814753	0.139287	0.137651
C53	C	0.314518	-0.454421	-0.456201
C54	C	0.814518	0.045579	0.043799
C55	C	0.388015	-0.457489	-0.459267
C56	C	0.888015	0.042511	0.040733
C57	C	0.424879	-0.412166	-0.413880
C58	C	0.924879	0.087834	0.086120
N59	N	0.532925	-0.374847	-0.376500
N60	N	1.032925	0.125153	0.123500
N61	N	0.500004	-0.415304	-0.417024
N62	N	1.000004	0.084696	0.082976
C63	C	1.008524	-0.577531	-0.404195
C64	C	1.508524	-0.077531	0.095805
C65	C	1.005344	-0.655599	-0.407412
C66	C	1.505344	-0.155599	0.092588
C67	C	1.047151	-0.692272	-0.365694
C68	C	1.547151	-0.192272	0.134306
C69	C	1.044165	-0.765625	-0.368724
C70	C	1.544165	-0.265625	0.131276
C71	C	0.999368	-0.802303	-0.413469
C72	C	1.499368	-0.302303	0.086531
C73	C	0.957560	-0.765624	-0.455192
C74	C	1.457560	-0.265624	0.044808
C75	C	0.960550	-0.692273	-0.452165
C76	C	1.460550	-0.192273	0.047835
C77	C	0.988177	-1.023777	-0.424775
C78	C	1.488177	-0.523777	0.075225
C79	C	0.985189	-1.097133	-0.427797
C80	C	1.485189	-0.597133	0.072203
C81	C	1.071796	-1.097129	-0.341330
C82	C	1.571796	-0.597129	0.158670
C83	C	1.074779	-1.023776	-0.338303
C84	C	1.574779	-0.523776	0.161697
C85	C	1.032973	-0.987104	-0.380029
C86	C	1.532973	-0.487104	0.119971
C87	C	0.996314	-0.877281	-0.416566
C88	C	1.496314	-0.377281	0.083434
C89	C	1.036032	-0.912127	-0.376936
C90	C	1.536032	-0.412127	0.123064
C91	C	1.199666	-0.402750	-0.404449
C92	C	1.699666	0.097250	0.095551
C93	C	1.277888	-0.406029	-0.407737
C94	C	1.777888	0.093971	0.092263
C95	C	1.023212	-0.402679	-0.580922
C96	C	1.523212	0.097321	-0.080922
C97	C	1.026239	-0.405927	-0.659411
C98	C	1.526239	0.094073	-0.159411
C99	C	1.023743	-0.211870	-0.389263
C100	C	1.523743	0.288130	0.110737
C101	C	1.026996	-0.133807	-0.386079
C102	C	1.526996	0.366193	0.113921
C103	C	0.984529	-0.360653	-0.692562
C104	C	1.484529	0.139347	-0.192562
C105	C	0.987371	-0.363710	-0.766311
C106	C	1.487371	0.136290	-0.266311
C107	C	1.031926	-0.412040	-0.806908
C108	C	1.531926	0.087960	-0.306908
C109	C	1.073638	-0.457319	-0.773753
C110	C	1.573638	0.042681	-0.273753
C111	C	1.070792	-0.454264	-0.700005
C112	C	1.570792	0.045736	-0.200005
C113	C	1.045059	-0.426198	-1.027870
C114	C	1.545059	0.073802	-0.527870
C115	C	1.047903	-0.429248	-1.101623
C116	C	1.547903	0.070752	-0.601623
C117	C	0.961634	-0.335640	-1.094176
C118	C	1.461634	0.164360	-0.594176
C119	C	0.958795	-0.332587	-1.020427
C120	C	1.458795	0.167413	-0.520427
C121	C	1.000504	-0.377868	-0.987278
C122	C	1.500504	0.122132	-0.487278
N123	N	1.034833	-0.415165	-0.882292
N124	N	1.534833	0.084835	-0.382292
N125	N	0.997593	-0.374746	-0.911896
N126	N	1.497593	0.125254	-0.411896
C127	C	1.009075	-0.387414	-0.213265
C128	C	1.509075	0.112586	0.286735
C129	C	1.006192	-0.383974	-0.134774
C130	C	1.506192	0.116026	0.365226
H131	H	0.418261	-0.326877	-0.328457
H132	H	0.918261	0.173123	0.171543
Br133	Br	1.134101	-0.522916	-0.828848
Br134	Br	1.634101	-0.022916	-0.328848
H135	H	1.079013	-0.463077	-1.000889
H136	H	1.579013	0.036923	-0.500889
Br137	Br	0.905031	-0.274191	-1.139168
Br138	Br	1.405031	0.225809	-0.639168
H139	H	0.954136	-0.993924	-0.458748
H140	H	1.454136	-0.493924	0.041252
H141	H	0.748433	-0.298831	-0.300367
H142	H	1.248433	0.201169	0.199633
H143	H	1.083627	-0.662414	-0.329254
H144	H	1.583627	-0.162414	0.170746
Br145	Br	0.265041	-0.295048	-0.296569
Br146	Br	0.765041	0.204952	0.203431
H147	H	0.948251	-0.321294	-0.659512
H148	H	1.448251	0.178706	-0.159512
Br149	Br	0.594651	-0.487877	-0.489703
Br150	Br	1.094651	0.012123	0.010297
H151	H	0.417834	-0.496893	-0.498728
H152	H	0.917834	0.003107	0.001272
H153	H	1.084188	-0.468605	-1.134676
H154	H	1.584188	0.031395	-0.634676
H155	H	1.111256	-0.993914	-0.301868
H156	H	1.611256	-0.493914	0.198132
Br157	Br	0.264483	-0.515931	-0.517792
Br158	Br	0.764483	-0.015931	-0.017792
Br159	Br	1.128533	-1.146902	-0.284709
Br160	Br	1.628533	-0.646902	0.215291
H161	H	1.078209	-0.795481	-0.334752
H162	H	1.578209	-0.295481	0.165248
H163	H	0.615092	-0.293266	-0.294795
H164	H	1.115092	0.206734	0.205205
Br165	Br	0.898328	-0.266991	-0.965335
Br166	Br	1.398328	0.233009	-0.465335
Br167	Br	0.924376	-1.146909	-0.488515
Br168	Br	1.424376	-0.646909	0.011485
Br169	Br	0.903814	-0.642501	-0.508790
Br170	Br	1.403814	-0.142501	-0.008790
H171	H	0.921088	-0.795494	-0.491628
H172	H	1.421088	-0.295494	0.008372
H173	H	1.104763	-0.491126	-0.673015
H174	H	1.604763	0.008874	-0.173015
H175	H	1.072509	-0.882262	-0.340507
H176	H	1.572509	-0.382262	0.159493
Br177	Br	0.930722	-0.302300	-0.811298
Br178	Br	1.430722	0.197700	-0.311298
Br179	Br	0.767882	-0.495124	-0.496937
Br180	Br	1.267882	0.004876	0.003063
Br181	Br	0.935520	-0.927064	-0.477292
Br182	Br	1.435520	-0.427064	0.022708
