data_functionalizedCrystal
_audit_creation_method	'MofGen! by Chris Wilmer'
_symmetry_space_group_name_H-M	'P1'
_symmetry_Int_Tables_number	1
_symmetry_cell_setting	triclinic
loop_
_symmetry_equiv_pos_as_xyz
  x,y,z
_cell_length_a	25.639239
_cell_length_b	19.121246
_cell_length_c	19.120904
_cell_angle_alpha	90.125749
_cell_angle_beta	92.410104
_cell_angle_gamma	87.528032
loop_
_atom_site_label
_atom_site_type_symbol
_atom_site_fract_x
_atom_site_fract_y
_atom_site_fract_z
Zn1	Zn	-0.188790	-1.054808	-0.442205
Zn2	Zn	-0.272346	-1.059701	-0.324962
Zn3	Zn	-0.188478	-0.942574	-0.319972
Zn4	Zn	-0.279751	-0.937508	-0.437146
O5	O	-0.232341	-0.998648	-0.381071
O6	O	-0.196905	-1.153565	-0.430858
O7	O	-0.257991	-1.048332	-0.226196
O8	O	-0.115353	-0.957535	-0.336215
O9	O	-0.258293	-1.157160	-0.344720
O10	O	-0.115582	-1.039992	-0.426019
O11	O	-0.196374	-0.962280	-0.222530
O12	O	-0.203555	-0.843794	-0.331309
O13	O	-0.270915	-0.948899	-0.535921
O14	O	-0.270613	-0.840071	-0.417397
O15	O	-0.204086	-1.035079	-0.539638
O16	O	-0.346495	-1.043419	-0.339815
O17	O	-0.351936	-0.953644	-0.422236
C18	C	-0.237854	-0.816494	-0.373263
C19	C	-0.240225	-0.738567	-0.369939
C20	C	-0.209433	-0.700083	-0.413293
C21	C	-0.211659	-0.626863	-0.410164
C22	C	-0.244679	-0.592128	-0.363684
C23	C	-0.275473	-0.630618	-0.320325
C24	C	-0.273244	-0.703837	-0.323451
C25	C	-0.253002	-0.371148	-0.351996
C26	C	-0.255229	-0.297924	-0.348874
C27	C	-0.191414	-0.294174	-0.438713
C28	C	-0.189191	-0.367394	-0.441838
C29	C	-0.219982	-0.405878	-0.398476
C30	C	-0.246956	-0.517285	-0.360486
C31	C	-0.217702	-0.480719	-0.401671
C32	C	-0.368186	-0.998531	-0.381034
C33	C	-0.426300	-0.998544	-0.381044
C34	C	-0.783814	-1.045507	-0.338236
C35	C	-0.838418	-1.045534	-0.338247
O36	O	-0.864235	-1.085343	-0.301809
N37	N	-0.868578	-0.998769	-0.381123
C38	C	-0.844132	-0.951979	-0.423997
O39	O	-0.874799	-0.912204	-0.460468
C40	C	-0.789529	-0.951956	-0.423989
C41	C	-0.759371	-0.998719	-0.381105
C42	C	-0.753657	-1.092267	-0.295356
C43	C	-0.699057	-1.092239	-0.295344
C44	C	-0.674614	-1.045452	-0.338213
C45	C	-0.704771	-0.998692	-0.381094
C46	C	-0.765084	-0.905170	-0.466866
C47	C	-0.710477	-0.905151	-0.466856
C48	C	-0.680319	-0.951915	-0.423971
C49	C	-0.625729	-0.951876	-0.423951
N50	N	-0.595569	-0.998641	-0.381075
C51	C	-0.620011	-1.045429	-0.338206
C52	C	-0.958801	-0.952031	-0.424010
C53	C	-1.013403	-0.952050	-0.424014
C54	C	-1.007685	-1.045606	-0.338265
C55	C	-0.953083	-1.045584	-0.338257
C56	C	-0.928641	-0.998796	-0.381133
C57	C	-0.505348	-1.045366	-0.338185
C58	C	-0.450743	-1.045332	-0.338175
C59	C	-0.456465	-0.951779	-0.423927
C60	C	-0.511065	-0.951810	-0.423934
C61	C	-0.535505	-0.998610	-0.381061
O62	O	-0.599876	-0.912089	-0.460372
O63	O	-0.589338	-1.085203	-0.301748
C64	C	-0.095966	-0.998783	-0.381125
C65	C	-0.037850	-0.998841	-0.381147
C66	C	-0.238361	-0.990878	-0.563928
C67	C	-0.240927	-0.987567	-0.641850
C68	C	-0.226805	-0.181513	-0.388904
C69	C	-0.224437	-0.259439	-0.392229
C70	C	-0.207339	-1.030879	-0.680395
C71	C	-0.209748	-1.027759	-0.753611
C72	C	-0.245747	-0.981332	-0.788282
C73	C	-0.279336	-0.938015	-0.749732
C74	C	-0.276924	-0.941132	-0.676517
C75	C	-0.254766	-0.969674	-1.009246
C76	C	-0.257177	-0.966562	-1.082467
C77	C	-0.187588	-1.056306	-1.086341
C78	C	-0.185181	-1.059421	-1.013124
C79	C	-0.218768	-1.016103	-0.974581
C80	C	-0.248211	-0.978143	-0.863120
C81	C	-0.216301	-1.019288	-0.899743
C82	C	-0.226306	-1.006427	-0.198928
C83	C	-0.223589	-1.009874	-0.121011
H84	H	-0.162304	-0.395670	-0.479689
H85	H	-0.308645	-0.900210	-0.777966
F86	F	-0.290513	-0.923570	-0.968235
F87	F	-0.295491	-0.917142	-1.119364
F88	F	-0.543162	-0.902027	-0.469563
F89	F	-0.151843	-1.102404	-1.127366
F90	F	-0.178886	-0.585908	-0.456310
F91	F	-0.174290	-0.737044	-0.462768
F92	F	-0.430442	-0.901988	-0.469551
F93	F	-0.158646	-0.253212	-0.484857
F94	F	-0.779662	-1.142071	-0.249726
H95	H	-0.178026	-1.068688	-0.652171
H96	H	-0.282121	-0.269645	-0.311024
F97	F	-0.285764	-0.412096	-0.305834
H98	H	-0.938904	-0.913926	-0.458922
H99	H	-0.302356	-0.602331	-0.282477
H100	H	-0.298318	-0.735170	-0.288147
H101	H	-0.426190	-1.083413	-0.303251
H102	H	-0.304270	-0.905856	-0.645134
H103	H	-0.190815	-0.509004	-0.439512
F104	F	-0.282099	-0.480312	-0.311021
H105	H	-0.789629	-0.867087	-0.501784
H106	H	-0.525240	-1.083476	-0.303275
F107	F	-1.033709	-1.095402	-0.292638
H108	H	-0.674506	-1.130320	-0.260427
F109	F	-0.920992	-1.095355	-0.292615
F110	F	-0.174016	-1.073882	-0.794631
H111	H	-0.186989	-1.057086	-0.871511
H112	H	-0.690579	-0.867052	-0.501773
F113	F	-0.286524	-0.928735	-0.900026
H114	H	-1.037953	-0.913964	-0.458928
H115	H	-0.155868	-1.097230	-0.984901
