data_functionalizedCrystal
_audit_creation_method	'MofGen! by Chris Wilmer'
_symmetry_space_group_name_H-M	'P1'
_symmetry_Int_Tables_number	1
_symmetry_cell_setting	triclinic
loop_
_symmetry_equiv_pos_as_xyz
  x,y,z
_cell_length_a	19.805407
_cell_length_b	19.805405
_cell_length_c	19.805399
_cell_angle_alpha	89.970699
_cell_angle_beta	89.982197
_cell_angle_gamma	90.023727
loop_
_atom_site_label
_atom_site_type_symbol
_atom_site_fract_x
_atom_site_fract_y
_atom_site_fract_z
Zn1	Zn	1.034736	-0.269527	-0.382680
Zn2	Zn	1.534736	0.230473	0.117320
Zn3	Zn	1.034650	-0.382716	-0.269488
Zn4	Zn	1.534650	0.117284	0.230512
Zn5	Zn	0.921550	-0.269541	-0.269508
Zn6	Zn	1.421550	0.230459	0.230492
Zn7	Zn	0.921514	-0.382674	-0.382638
Zn8	Zn	1.421514	0.117326	0.117362
O9	O	0.978113	-0.326115	-0.326078
O10	O	1.478113	0.173885	0.173922
O11	O	1.129441	-0.284554	-0.367674
O12	O	1.629441	0.215446	0.132326
O13	O	1.019627	-0.367726	-0.174774
O14	O	1.519627	0.132274	0.325226
O15	O	0.936615	-0.174822	-0.284546
O16	O	1.436615	0.325178	0.215454
O17	O	1.129378	-0.367713	-0.284512
O18	O	1.629378	0.132287	0.215488
O19	O	1.019772	-0.174813	-0.367693
O20	O	1.519772	0.325187	0.132307
O21	O	0.936533	-0.284576	-0.174788
O22	O	1.436533	0.215424	0.325212
O23	O	0.826829	-0.284536	-0.284506
O24	O	1.326829	0.215464	0.215494
O25	O	0.936553	-0.367642	-0.477360
O26	O	1.436553	0.132358	0.022640
O27	O	0.826802	-0.367655	-0.367622
O28	O	1.326802	0.132345	0.132378
O29	O	1.019737	-0.284514	-0.477391
O30	O	1.519737	0.215486	0.022609
O31	O	1.019592	-0.477427	-0.284472
O32	O	1.519592	0.022573	0.215528
O33	O	0.936471	-0.477397	-0.367603
O34	O	1.436471	0.022603	0.132397
C35	C	0.802257	-0.326093	-0.326062
C36	C	1.302257	0.173907	0.173938
C37	C	0.727025	-0.326101	-0.326071
C38	C	1.227025	0.173899	0.173929
C39	C	0.691714	-0.282876	-0.369439
C40	C	1.191714	0.217124	0.130561
C41	C	0.621025	-0.282880	-0.369442
C42	C	1.121025	0.217120	0.130558
C43	C	0.585649	-0.326112	-0.326079
C44	C	1.085649	0.173888	0.173921
C45	C	0.620965	-0.369338	-0.282706
C46	C	1.120965	0.130662	0.217294
C47	C	0.691652	-0.369330	-0.282701
C48	C	1.191652	0.130670	0.217299
C49	C	0.335892	-0.369368	-0.282727
C50	C	0.835892	0.130632	0.217273
C51	C	0.265199	-0.369374	-0.282737
C52	C	0.765199	0.130626	0.217263
C53	C	0.265265	-0.282918	-0.369468
C54	C	0.765265	0.217082	0.130532
C55	C	0.335952	-0.282910	-0.369462
C56	C	0.835952	0.217090	0.130538
C57	C	0.371262	-0.326134	-0.326087
C58	C	0.871262	0.173866	0.173913
C59	C	0.447910	-0.326128	-0.326084
C60	C	0.947910	0.173872	0.173916
C61	C	0.509002	-0.326121	-0.326085
C62	C	1.009002	0.173879	0.173915
C63	C	0.978036	-0.501971	-0.326046
C64	C	1.478036	-0.001971	0.173954
C65	C	0.978066	-0.577203	-0.326054
C66	C	1.478066	-0.077203	0.173946
C67	C	1.021389	-0.612540	-0.282813
C68	C	1.521389	-0.112540	0.217187
C69	C	1.021418	-0.683228	-0.282828
C70	C	1.521418	-0.183228	0.217172
C71	C	0.978119	-0.718578	-0.326081
C72	C	1.478119	-0.218578	0.173919
C73	C	0.934794	-0.683236	-0.369327
C74	C	1.434794	-0.183236	0.130673
C75	C	0.934769	-0.612549	-0.369315
C76	C	1.434769	-0.112549	0.130685
C77	C	0.934894	-0.968309	-0.369377
C78	C	1.434894	-0.468309	0.130623
C79	C	0.934921	-1.039001	-0.369384
C80	C	1.434921	-0.539001	0.130616
C81	C	1.021542	-1.038989	-0.282890
C82	C	1.521542	-0.538989	0.217110
C83	C	1.021517	-0.968302	-0.282878
C84	C	1.521517	-0.468302	0.217122
C85	C	0.978195	-0.932965	-0.326126
C86	C	1.478195	-0.432965	0.173874
C87	C	0.978165	-0.856317	-0.326110
C88	C	1.478165	-0.356317	0.173890
C89	C	0.978145	-0.795225	-0.326094
C90	C	1.478145	-0.295225	0.173906
C91	C	1.154655	-0.326136	-0.326095
C92	C	1.654655	0.173864	0.173905
C93	C	1.229887	-0.326146	-0.326102
C94	C	1.729887	0.173854	0.173898
C95	C	0.978151	-0.326072	-0.502621
C96	C	1.478151	0.173928	-0.002621
C97	C	0.978167	-0.326054	-0.577853
C98	C	1.478167	0.173946	-0.077853
C99	C	0.978207	-0.149572	-0.326126
C100	C	1.478207	0.350428	0.173874
C101	C	0.978248	-0.074340	-0.326146
C102	C	1.478248	0.425660	0.173854
C103	C	1.021481	-0.282767	-0.613214
C104	C	1.521481	0.217233	-0.113214
C105	C	1.021488	-0.282747	-0.683903
C106	C	1.521488	0.217253	-0.183903
C107	C	0.978184	-0.326018	-0.719229
C108	C	1.478184	0.173982	-0.219229
C109	C	0.934864	-0.369308	-0.683863
C110	C	1.434864	0.130692	-0.183863
C111	C	0.934854	-0.369323	-0.613176
C112	C	1.434854	0.130677	-0.113176
C113	C	0.934902	-0.369244	-0.968936
C114	C	1.434902	0.130756	-0.468936
C115	C	0.934917	-0.369227	-1.039628
C116	C	1.434917	0.130773	-0.539628
C117	C	1.021536	-0.282668	-1.039663
C118	C	1.521536	0.217332	-0.539663
C119	C	1.021527	-0.282684	-0.968976
C120	C	1.521527	0.217316	-0.468976
C121	C	0.978205	-0.325970	-0.933616
C122	C	1.478205	0.174030	-0.433616
C123	C	0.978197	-0.325990	-0.856968
C124	C	1.478197	0.174010	-0.356968
C125	C	0.978194	-0.326002	-0.795876
C126	C	1.478194	0.173998	-0.295876
C127	C	0.978114	-0.326108	-0.150222
C128	C	1.478114	0.173892	0.349778
C129	C	0.978229	-0.325936	-0.074991
C130	C	1.478229	0.174064	0.425009
H131	H	0.592278	-0.247684	-0.404757
H132	H	1.092278	0.252316	0.095243
H133	H	0.899602	-0.404538	-0.712631
H134	H	1.399602	0.095462	-0.212631
F135	F	1.067470	-0.574925	-0.236772
F136	F	1.567470	-0.074925	0.263228
H137	H	0.236507	-0.247721	-0.404783
H138	H	0.736507	0.252279	0.095217
F139	F	1.067530	-0.720834	-0.236807
F140	F	1.567530	-0.220834	0.263193
H141	H	0.236398	-0.404580	-0.247424
H142	H	0.736398	0.095420	0.252576
H143	H	0.364632	-0.404564	-0.247409
H144	H	0.864632	0.095436	0.252591
H145	H	0.720512	-0.247674	-0.404752
H146	H	1.220512	0.252326	0.095248
F147	F	0.373598	-0.236900	-0.415617
F148	F	0.873598	0.263100	0.084383
F149	F	0.888823	-0.415284	-1.077224
F150	F	1.388823	0.084716	-0.577224
F151	F	0.888751	-0.415394	-0.575542
F152	F	1.388751	0.084606	-0.075542
F153	F	0.583313	-0.415345	-0.236553
F154	F	1.083313	0.084655	0.263447
H155	H	0.720401	-0.404528	-0.247386
H156	H	1.220401	0.095472	0.252614
H157	H	1.056773	-0.939522	-0.247655
H158	H	1.556773	-0.439522	0.252345
F159	F	0.888795	-0.415314	-0.931313
F160	F	1.388795	0.084686	-0.431313
H161	H	1.056820	-1.067768	-0.247678
H162	H	1.556820	-0.567768	0.252322
F163	F	0.888835	-1.076621	-0.415424
F164	F	1.388835	-0.576621	0.084576
F165	F	0.888786	-0.930710	-0.415405
F166	F	1.388786	-0.430710	0.084595
H167	H	1.056747	-0.247532	-0.584457
H168	H	1.556747	0.252468	-0.084457
F169	F	0.888717	-0.720859	-0.415364
F170	F	1.388717	-0.220859	0.084636
H171	H	0.899492	-0.583777	-0.404527
H172	H	1.399492	-0.083777	0.095473
F173	F	1.067613	-0.236698	-0.721534
F174	F	1.567613	0.263302	-0.221534
H175	H	1.056792	-0.247450	-0.940217
H176	H	1.556792	0.252550	-0.440217
F177	F	1.067642	-0.236596	-1.077301
F178	F	1.567642	0.263404	-0.577301
