data_functionalizedCrystal
_audit_creation_method	'MofGen! by Chris Wilmer'
_symmetry_space_group_name_H-M	'P1'
_symmetry_Int_Tables_number	1
_symmetry_cell_setting	triclinic
loop_
_symmetry_equiv_pos_as_xyz
  x,y,z
_cell_length_a	17.699077
_cell_length_b	17.019294
_cell_length_c	16.776229
_cell_angle_alpha	86.114377
_cell_angle_beta	89.993415
_cell_angle_gamma	83.337580
loop_
_atom_site_label
_atom_site_type_symbol
_atom_site_fract_x
_atom_site_fract_y
_atom_site_fract_z
O1	O	1.004150	0.099735	-0.073122
O2	O	1.337483	0.433068	0.260211
O3	O	1.670817	0.766401	0.593544
O4	O	0.783780	0.112718	-0.074017
O5	O	1.117113	0.446051	0.259316
O6	O	1.450447	0.779385	0.592649
O7	O	0.900112	-0.008619	-0.065683
O8	O	1.233445	0.324715	0.267651
O9	O	1.566779	0.658048	0.600984
O10	O	0.887818	0.221071	-0.081457
O11	O	1.221151	0.554405	0.251876
O12	O	1.554484	0.887738	0.585210
O13	O	0.900097	-0.008626	0.066894
O14	O	1.233430	0.324707	0.400228
O15	O	1.566763	0.658041	0.733561
O16	O	0.783764	0.112711	0.058560
O17	O	1.117098	0.446044	0.391893
O18	O	1.450431	0.779377	0.725226
O19	O	1.004135	0.099727	0.059455
O20	O	1.337468	0.433060	0.392788
O21	O	1.670801	0.766394	0.726121
Zn22	Zn	0.893947	0.106218	0.080057
Zn23	Zn	1.227280	0.439551	0.413390
Zn24	Zn	1.560614	0.772884	0.746723
Zn25	Zn	0.893967	0.106227	-0.094619
Zn26	Zn	1.227301	0.439561	0.238714
Zn27	Zn	1.560634	0.772894	0.572047
O28	O	0.887802	0.221064	0.051120
O29	O	1.221136	0.554397	0.384453
O30	O	1.554469	0.887730	0.717787
C31	C	0.755575	0.112250	-0.007697
C32	C	1.088908	0.445583	0.325636
C33	C	1.422241	0.778917	0.658969
C34	C	0.671556	0.110857	-0.007603
C35	C	1.004889	0.444190	0.325730
C36	C	1.338222	0.777523	0.659064
C37	C	0.632079	0.110196	0.064711
C38	C	0.965413	0.443529	0.398044
C39	C	1.298746	0.776863	0.731377
C40	C	0.553136	0.108874	0.064802
C41	C	0.886469	0.442208	0.398135
C42	C	1.219802	0.775541	0.731469
C43	C	0.513669	0.108219	-0.007421
C44	C	0.847003	0.441552	0.325912
C45	C	1.180336	0.774886	0.659246
C46	C	0.553151	0.108877	-0.079740
C47	C	0.886485	0.442210	0.253593
C48	C	1.219818	0.775544	0.586926
C49	C	0.632094	0.110193	-0.079831
C50	C	0.965427	0.443527	0.253503
C51	C	1.298761	0.776860	0.586836
C52	C	0.234784	0.103569	-0.079377
C53	C	0.568118	0.436902	0.253956
C54	C	0.901451	0.770235	0.587289
C55	C	0.155836	0.102255	-0.079281
C56	C	0.489169	0.435588	0.254052
C57	C	0.822503	0.768921	0.587385
C58	C	0.155826	0.102250	0.065256
C59	C	0.489159	0.435583	0.398589
C60	C	0.822493	0.768916	0.731922
C61	C	0.234769	0.103566	0.065165
C62	C	0.568102	0.436899	0.398499
C63	C	0.901436	0.770232	0.731832
C64	C	0.274245	0.104220	-0.007153
C65	C	0.607578	0.437553	0.326180
C66	C	0.940911	0.770886	0.659514
C67	C	0.359844	0.105651	-0.007251
C68	C	0.693178	0.438985	0.326082
C69	C	1.026511	0.772318	0.659415
C70	C	0.428070	0.106793	-0.007324
C71	C	0.761404	0.440126	0.326009
C72	C	1.094737	0.773460	0.659343
C73	C	0.899638	-0.038011	0.002622
C74	C	1.232971	0.295323	0.335956
C75	C	1.566305	0.628656	0.669289
C76	C	0.898239	-0.125579	0.008631
C77	C	1.231573	0.207755	0.341964
C78	C	1.564906	0.541088	0.675298
C79	C	0.897592	-0.166710	-0.060813
C80	C	1.230925	0.166624	0.272520
C81	C	1.564259	0.499957	0.605853
C82	C	0.896273	-0.248988	-0.055165
C83	C	1.229606	0.084345	0.278168
C84	C	1.562940	0.417678	0.611501
C85	C	0.895606	-0.290135	0.019928
C86	C	1.228939	0.043198	0.353261
C87	C	1.562273	0.376531	0.686595
C88	C	0.896251	-0.248998	0.089378
C89	C	1.229584	0.084335	0.422711
C90	C	1.562918	0.417669	0.756044
C91	C	0.897565	-0.166720	0.083729
C92	C	1.230898	0.166613	0.417062
C93	C	1.564231	0.499947	0.750395
C94	C	0.891634	-0.538561	0.040600
C95	C	1.224967	-0.205228	0.373933
C96	C	1.558301	0.128106	0.707267
C97	C	0.890322	-0.620845	0.046244
C98	C	1.223656	-0.287512	0.379577
C99	C	1.556989	0.045822	0.712910
C100	C	0.890343	-0.620830	-0.098300
C101	C	1.223676	-0.287496	0.235034
C102	C	1.557010	0.045837	0.568367
C103	C	0.891661	-0.538551	-0.103942
C104	C	1.224995	-0.205217	0.229391
C105	C	1.558328	0.128116	0.562725
C106	C	0.892302	-0.497420	-0.034493
C107	C	1.225635	-0.164087	0.298841
C108	C	1.558969	0.169247	0.632174
C109	C	0.894260	-0.374238	0.025703
C110	C	1.227593	-0.040904	0.359037
C111	C	1.560927	0.292429	0.692370
C112	C	0.893643	-0.413319	-0.040269
C113	C	1.226976	-0.079985	0.293065
C114	C	1.560309	0.253348	0.626398
C115	C	1.032340	0.100195	-0.006867
C116	C	1.365673	0.433529	0.326466
C117	C	1.699006	0.766862	0.659800
C118	C	1.116359	0.101589	-0.006966
C119	C	1.449692	0.434922	0.326367
C120	C	1.783026	0.768255	0.659700
C121	C	0.888276	0.250456	-0.017187
C122	C	1.221610	0.583789	0.316147
C123	C	1.554943	0.917123	0.649480
C124	C	0.889675	0.338024	-0.023201
C125	C	1.223009	0.671357	0.310133
C126	C	1.556342	1.004690	0.643466
N127	N	0.893939	0.106211	0.199268
N128	N	1.227272	0.439544	0.532602
N129	N	1.560605	0.772877	0.865935
N130	N	0.893982	0.106228	-0.213831
N131	N	1.227315	0.439562	0.119503
N132	N	1.560648	0.772895	0.452836
C133	C	0.945466	0.052505	0.244674
C134	C	1.278800	0.385838	0.578008
C135	C	1.612133	0.719171	0.911341
C136	C	0.945471	0.052504	0.328127
C137	C	1.278804	0.385837	0.661460
C138	C	1.612137	0.719171	0.994793
C139	C	0.893950	0.106214	0.366171
C140	C	1.227284	0.439547	0.699504
C141	C	1.560617	0.772880	1.032838
C142	C	0.842417	0.159922	0.320759
C143	C	1.175750	0.493255	0.654092
C144	C	1.509084	0.826589	0.987426
C145	C	0.842410	0.159918	0.237309
C146	C	1.175743	0.493252	0.570642
C147	C	1.509077	0.826585	0.903975
C148	C	0.842444	0.159938	0.657305
C149	C	1.175778	0.493271	0.990638
C150	C	1.509111	0.826604	1.323972
C151	C	0.842457	0.159939	0.740762
C152	C	1.175790	0.493272	1.074095
C153	C	1.509124	0.826605	1.407428
C154	C	0.945505	0.052523	0.748123
C155	C	1.278838	0.385856	1.081457
C156	C	1.612172	0.719190	1.414790
C157	C	0.945498	0.052519	0.664673
C158	C	1.278831	0.385853	0.998006
C159	C	1.612165	0.719186	1.331340
C160	C	0.893963	0.106225	0.619268
C161	C	1.227296	0.439558	0.952602
C162	C	1.560629	0.772891	1.285935
C163	C	0.893958	0.106224	0.528780
C164	C	1.227291	0.439557	0.862113
C165	C	1.560624	0.772890	1.195447
C166	C	0.893958	0.106219	0.456658
C167	C	1.227291	0.439552	0.789991
C168	C	1.560625	0.772886	1.123324
H169	H	0.664234	0.110733	-0.138716
H170	H	0.997568	0.444066	0.194617
H171	H	1.330901	0.777399	0.527951
H172	H	0.123676	0.101714	0.124141
H173	H	0.457009	0.435047	0.457474
H174	H	0.790343	0.768380	0.790808
Cl175	Cl	1.010243	-0.015017	0.196856
Cl176	Cl	1.343576	0.318317	0.530190
Cl177	Cl	1.676909	0.651650	0.863523
H178	H	0.266916	0.104099	-0.138263
H179	H	0.600250	0.437432	0.195070
H180	H	0.933583	0.770765	0.528404
Cl181	Cl	0.777644	0.227440	0.368584
Cl182	Cl	1.110977	0.560774	0.701918
Cl183	Cl	1.444310	0.894107	1.035251
Cl184	Cl	1.010248	-0.015014	0.385210
Cl185	Cl	1.343582	0.318319	0.718544
Cl186	Cl	1.676915	0.651653	1.051877
H187	H	0.894180	-0.379813	-0.101409
H188	H	1.227514	-0.046479	0.231924
H189	H	1.560847	0.286854	0.565257
Cl190	Cl	0.503540	0.108024	-0.170534
Cl191	Cl	0.836873	0.441357	0.162799
Cl192	Cl	1.170207	0.774691	0.496133
Cl193	Cl	1.010271	-0.015001	0.616849
Cl194	Cl	1.343604	0.318332	0.950182
Cl195	Cl	1.676937	0.651666	1.283516
Cl196	Cl	0.777626	0.227435	0.180227
Cl197	Cl	1.110960	0.560768	0.513561
Cl198	Cl	1.444293	0.894102	0.846894
H199	H	0.664206	0.110736	0.123523
H200	H	0.997540	0.444070	0.456856
H201	H	1.330873	0.777403	0.790189
H202	H	0.898139	-0.133214	-0.121962
H203	H	1.231472	0.200119	0.211371
H204	H	1.564806	0.533452	0.544704
H205	H	0.895749	-0.282474	-0.111714
H206	H	1.229083	0.050859	0.221619
H207	H	1.562416	0.384193	0.554952
Cl208	Cl	1.010291	-0.014997	0.805208
Cl209	Cl	1.343625	0.318337	1.138541
Cl210	Cl	1.676958	0.651670	1.471875
H211	H	0.123705	0.101720	-0.138098
H212	H	0.457038	0.435054	0.195236
H213	H	0.790371	0.768387	0.528569
H214	H	0.889776	-0.654344	0.107397
H215	H	1.223109	-0.321011	0.440730
H216	H	1.556442	0.012323	0.774064
H217	H	0.892205	-0.505055	-0.165091
H218	H	1.225539	-0.171721	0.168242
H219	H	1.558872	0.161612	0.501576
H220	H	0.800500	0.203677	0.771735
H221	H	1.133834	0.537010	1.105069
H222	H	1.467167	0.870344	1.438402
Cl223	Cl	0.503510	0.108058	0.155714
Cl224	Cl	0.836843	0.441392	0.489047
Cl225	Cl	1.170177	0.774725	0.822381
Cl226	Cl	0.892428	-0.486863	0.127909
Cl227	Cl	1.225761	-0.153530	0.461242
Cl228	Cl	1.559094	0.179803	0.794575
Cl229	Cl	0.893418	-0.425971	0.120104
Cl230	Cl	1.226751	-0.092638	0.453437
Cl231	Cl	1.560085	0.240695	0.786770
Cl232	Cl	0.889536	-0.672541	-0.185602
Cl233	Cl	1.222869	-0.339207	0.147732
Cl234	Cl	1.556202	-0.005874	0.481065
H235	H	0.895703	-0.282506	0.150520
H236	H	1.229037	0.050828	0.483854
H237	H	1.562370	0.384161	0.817187
Cl238	Cl	0.777662	0.227454	0.600230
Cl239	Cl	1.110995	0.560787	0.933564
Cl240	Cl	1.444329	0.894120	1.266897
Cl241	Cl	0.284379	0.104394	0.155963
Cl242	Cl	0.617712	0.437728	0.489297
Cl243	Cl	0.951046	0.771061	0.822630
H244	H	0.898081	-0.133231	0.140278
H245	H	1.231414	0.200103	0.473611
H246	H	1.564748	0.533436	0.806944
