data_functionalizedCrystal
_audit_creation_method	'MofGen! by Chris Wilmer'
_symmetry_space_group_name_H-M	'P1'
_symmetry_Int_Tables_number	1
_symmetry_cell_setting	triclinic
loop_
_symmetry_equiv_pos_as_xyz
  x,y,z
_cell_length_a	17.077404
_cell_length_b	12.759399
_cell_length_c	17.077396
_cell_angle_alpha	89.973998
_cell_angle_beta	89.980499
_cell_angle_gamma	90.015341
loop_
_atom_site_label
_atom_site_type_symbol
_atom_site_fract_x
_atom_site_fract_y
_atom_site_fract_z
Zn1	Zn	1.200097	-0.418260	-0.443856
Zn2	Zn	1.200022	-0.593961	-0.312596
Zn3	Zn	1.068829	-0.418297	-0.312604
Zn4	Zn	1.068815	-0.593898	-0.443820
O5	O	1.134441	-0.506104	-0.378219
O6	O	1.309934	-0.441578	-0.426456
O7	O	1.182593	-0.570700	-0.202750
O8	O	1.086279	-0.271271	-0.330034
O9	O	1.309879	-0.570664	-0.330020
O10	O	1.182721	-0.271244	-0.426464
O11	O	1.086206	-0.441641	-0.202756
O12	O	0.958980	-0.441580	-0.329998
O13	O	1.086255	-0.570558	-0.553671
O14	O	0.958970	-0.570594	-0.426402
O15	O	1.182708	-0.441517	-0.553698
O16	O	1.182580	-0.740973	-0.329984
O17	O	1.086182	-0.740927	-0.426394
C18	C	0.930493	-0.506085	-0.378197
C19	C	0.843243	-0.506102	-0.378207
C20	C	0.802268	-0.573381	-0.428323
C21	C	0.720287	-0.573383	-0.428336
C22	C	0.679284	-0.506111	-0.378227
C23	C	0.720264	-0.438825	-0.328108
C24	C	0.802243	-0.438818	-0.328100
C25	C	0.549394	-0.438846	-0.328127
C26	C	0.467410	-0.438854	-0.328134
C27	C	0.467438	-0.573410	-0.428363
C28	C	0.549417	-0.573404	-0.428355
C29	C	0.590393	-0.506119	-0.378235
C30	C	1.134392	-0.779071	-0.378201
C31	C	1.134444	-0.895848	-0.378220
C32	C	1.184695	-0.950699	-0.328076
C33	C	1.184746	-1.060423	-0.328103
C34	C	1.084286	-1.060435	-0.428418
C35	C	1.084240	-0.950713	-0.428395
C36	C	1.277400	-1.210298	-0.300171
C37	C	1.327645	-1.265152	-0.250016
C38	C	1.339725	-1.229604	-0.173426
C39	C	1.301549	-1.139202	-0.146975
C40	C	1.251299	-1.084353	-0.197127
C41	C	1.239233	-1.119900	-0.273728
C42	C	0.991585	-0.800836	-0.456318
C43	C	0.941330	-0.745985	-0.506466
C44	C	0.929242	-0.781532	-0.583058
C45	C	0.967404	-0.871938	-0.609505
C46	C	1.017658	-0.926789	-0.559357
C47	C	1.029748	-0.891234	-0.482766
C48	C	1.339185	-0.506124	-0.378241
C49	C	1.426435	-0.506132	-0.378251
C50	C	1.134488	-0.506026	-0.582963
C51	C	1.134508	-0.505993	-0.670213
C52	C	1.134510	-0.232071	-0.378254
C53	C	1.134540	-0.115294	-0.378269
C54	C	1.184733	-0.438796	-0.711219
C55	C	1.184742	-0.438761	-0.793199
C56	C	1.134531	-0.505930	-0.834173
C57	C	1.084300	-0.573130	-0.793161
C58	C	1.084288	-0.573159	-0.711182
C59	C	1.084332	-0.573066	-0.964032
C60	C	1.084346	-0.573039	-1.046016
C61	C	1.184787	-0.438669	-1.046048
C62	C	1.184774	-0.438698	-0.964069
C63	C	1.134545	-0.505900	-0.923064
C64	C	1.134438	-0.506105	-0.174271
C65	C	1.134570	-0.505842	-0.087022
H66	H	0.582801	-0.628188	-0.469153
C67	C	0.594472	-0.364830	-0.272999
C68	C	0.583222	-0.245406	-0.279561
C69	C	0.628302	-0.171396	-0.224435
C70	C	0.684632	-0.216809	-0.162746
C71	C	0.695884	-0.336240	-0.156182
C72	C	0.650804	-0.410250	-0.211308
H73	H	0.541521	-0.211783	-0.325229
H74	H	0.619972	-0.082985	-0.229295
H75	H	0.718003	-0.162022	-0.121939
H76	H	0.737585	-0.369863	-0.110514
H77	H	0.659134	-0.498660	-0.206449
C78	C	1.209310	-0.984912	-0.168044
C79	C	1.257429	-0.890035	-0.139941
C80	C	1.215446	-0.790588	-0.110858
C81	C	1.125343	-0.786018	-0.109879
C82	C	1.077218	-0.880899	-0.137983
C83	C	1.119202	-0.980346	-0.167066
H84	H	1.324134	-0.893414	-0.140665
H85	H	1.251072	-0.720350	-0.090054
H86	H	1.094264	-0.712401	-0.088351
H87	H	1.010514	-0.877519	-0.137259
H88	H	1.083576	-1.050583	-0.187871
H89	H	0.434026	-0.384062	-0.287340
H90	H	0.888317	-0.736863	-0.623887
H91	H	0.910261	-0.672368	-0.484928
C92	C	1.004894	-0.761721	-0.372068
C93	C	0.962917	-0.662280	-0.342976
C94	C	0.976228	-0.623160	-0.258728
C95	C	1.031516	-0.683479	-0.203572
C96	C	1.073498	-0.782926	-0.232663
C97	C	1.060187	-0.822046	-0.316911
H98	H	0.921986	-0.617623	-0.383807
H99	H	0.945150	-0.549543	-0.237193
H100	H	1.041370	-0.654520	-0.141207
H101	H	1.114429	-0.827583	-0.191832
H102	H	1.091264	-0.895663	-0.338445
H103	H	0.686872	-0.384046	-0.287312
C104	C	1.059646	-1.026232	-0.588446
C105	C	1.011532	-1.121118	-0.616542
C106	C	1.053521	-1.220559	-0.645629
C107	C	1.143625	-1.225114	-0.646619
C108	C	1.191744	-1.130224	-0.618522
C109	C	1.149755	-1.030783	-0.589435
H110	H	0.944828	-1.117750	-0.615810
H111	H	1.017900	-1.290803	-0.666428
H112	H	1.174708	-1.298726	-0.668150
H113	H	1.258449	-1.133593	-0.619254
H114	H	1.185377	-0.960540	-0.568636
H115	H	1.311383	-1.110271	-0.084605
C116	C	0.847317	-0.364811	-0.272969
C117	C	0.903645	-0.410219	-0.211277
C118	C	0.948718	-0.336204	-0.156148
C119	C	0.937462	-0.216781	-0.162710
C120	C	0.881132	-0.171367	-0.224405
C121	C	0.836059	-0.245381	-0.279535
H122	H	0.911980	-0.498629	-0.206417
H123	H	0.990417	-0.369824	-0.110477
H124	H	0.970828	-0.161991	-0.121900
H125	H	0.872798	-0.082957	-0.229266
H126	H	0.794360	-0.211762	-0.325205
H127	H	1.225665	-0.384010	-0.930711
H128	H	0.835647	-0.628165	-0.469125
H129	H	0.434073	-0.628193	-0.469175
H130	H	1.043414	-0.627815	-0.826529
C131	C	1.029087	-0.646991	-0.918917
C132	C	0.939852	-0.638420	-0.930164
C133	C	0.884614	-0.712346	-0.885046
C134	C	0.918612	-0.794844	-0.828682
C135	C	1.007851	-0.803418	-0.817433
C136	C	1.063089	-0.729491	-0.862550
H137	H	0.914681	-0.577347	-0.971891
H138	H	0.818553	-0.705999	-0.893374
H139	H	0.877722	-0.849568	-0.795283
H140	H	1.033022	-0.864490	-0.775706
H141	H	1.129150	-0.735839	-0.854222
H142	H	0.686929	-0.628169	-0.469145
H143	H	1.225684	-0.383950	-1.079439
H144	H	1.380636	-1.274273	-0.132589
H145	H	1.225575	-0.906030	-0.287222
H146	H	1.225642	-0.384045	-0.826582
H147	H	1.225624	-0.384103	-0.677864
H148	H	1.358728	-1.338758	-0.271559
C149	C	1.264124	-1.249394	-0.384429
C150	C	1.306110	-1.348831	-0.413515
C151	C	1.292834	-1.387932	-0.497774
C152	C	1.237572	-1.327595	-0.552946
C153	C	1.195582	-1.228152	-0.523861
C154	C	1.208858	-1.189052	-0.439602
H155	H	1.347021	-1.393501	-0.372672
H156	H	1.323918	-1.461546	-0.519304
H157	H	1.227744	-1.356540	-0.615320
H158	H	1.154671	-1.183482	-0.564704
H159	H	1.177774	-1.115437	-0.418072
H160	H	1.043411	-1.105120	-0.469268
H161	H	1.043457	-0.627731	-1.079375
C162	C	0.954113	-0.911047	-0.693758
C163	C	0.919808	-1.021007	-0.708067
C164	C	0.906514	-1.060116	-0.792320
C165	C	0.927526	-0.989264	-0.862266
C166	C	0.961834	-0.879296	-0.847960
C167	C	0.975128	-0.840188	-0.763706
H168	H	0.904251	-1.073462	-0.656287
H169	H	0.881117	-1.141521	-0.802910
H170	H	0.917685	-1.018214	-0.924636
H171	H	0.977390	-0.826841	-0.899740
H172	H	1.000525	-0.758783	-0.753116
H173	H	1.043381	-0.627867	-0.677797
