data_functionalizedCrystal
_audit_creation_method	'MofGen! by Chris Wilmer'
_symmetry_space_group_name_H-M	'P1'
_symmetry_Int_Tables_number	1
_symmetry_cell_setting	triclinic
loop_
_symmetry_equiv_pos_as_xyz
  x,y,z
_cell_length_a	11.169417
_cell_length_b	18.050590
_cell_length_c	11.169409
_cell_angle_alpha	90.037983
_cell_angle_beta	90.019513
_cell_angle_gamma	90.019802
loop_
_atom_site_label
_atom_site_type_symbol
_atom_site_fract_x
_atom_site_fract_y
_atom_site_fract_z
Zn1	Zn	1.834894	-0.295575	0.678486
Zn2	Zn	2.084894	-0.045575	0.928486
Zn3	Zn	2.334894	0.204425	1.178486
Zn4	Zn	2.584894	0.454425	1.428486
Zn5	Zn	1.834754	-0.419790	0.477783
Zn6	Zn	2.084754	-0.169790	0.727783
Zn7	Zn	2.334754	0.080210	0.977783
Zn8	Zn	2.584754	0.330210	1.227783
Zn9	Zn	1.634180	-0.295621	0.477821
Zn10	Zn	1.884180	-0.045621	0.727821
Zn11	Zn	2.134180	0.204379	0.977821
Zn12	Zn	2.384180	0.454379	1.227821
Zn13	Zn	1.634158	-0.419730	0.678429
Zn14	Zn	1.884158	-0.169730	0.928429
Zn15	Zn	2.134158	0.080270	1.178429
Zn16	Zn	2.384158	0.330270	1.428429
O17	O	1.734497	-0.357679	0.578130
O18	O	1.984497	-0.107679	0.828130
O19	O	2.234497	0.142321	1.078130
O20	O	2.484497	0.392321	1.328130
O21	O	2.002825	-0.312058	0.651870
O22	O	2.252825	-0.062058	0.901870
O23	O	2.502825	0.187942	1.151870
O24	O	2.752825	0.437942	1.401870
O25	O	1.808098	-0.403363	0.309838
O26	O	2.058098	-0.153363	0.559838
O27	O	2.308098	0.096637	0.809838
O28	O	2.558098	0.346637	1.059838
O29	O	1.660872	-0.191690	0.504480
O30	O	1.910872	0.058310	0.754480
O31	O	2.160872	0.308310	1.004480
O32	O	2.410872	0.558310	1.254480
O33	O	2.002723	-0.403318	0.504414
O34	O	2.252723	-0.153318	0.754414
O35	O	2.502723	0.096682	1.004414
O36	O	2.752723	0.346682	1.254414
O37	O	1.808336	-0.191656	0.651907
O38	O	2.058336	0.058344	0.901907
O39	O	2.308336	0.308344	1.151907
O40	O	2.558336	0.558344	1.401907
O41	O	1.660737	-0.312136	0.309866
O42	O	1.910737	-0.062136	0.559866
O43	O	2.160737	0.187864	0.809866
O44	O	2.410737	0.437864	1.059866
O45	O	1.466227	-0.312078	0.504424
O46	O	1.716227	-0.062078	0.754424
O47	O	1.966227	0.187922	1.004424
O48	O	2.216227	0.437922	1.254424
O49	O	1.660836	-0.403216	0.846386
O50	O	1.910836	-0.153216	1.096386
O51	O	2.160836	0.096784	1.346386
O52	O	2.410836	0.346784	1.596386
O53	O	1.466212	-0.403261	0.651810
O54	O	1.716212	-0.153261	0.901810
O55	O	1.966212	0.096739	1.151810
O56	O	2.216212	0.346739	1.401810
O57	O	1.808315	-0.312000	0.846428
O58	O	2.058315	-0.062000	1.096428
O59	O	2.308315	0.188000	1.346428
O60	O	2.558315	0.438000	1.596428
O61	O	1.808078	-0.523706	0.504359
O62	O	2.058078	-0.273706	0.754359
O63	O	2.308078	-0.023706	1.004359
O64	O	2.558078	0.226294	1.254359
O65	O	1.660701	-0.523662	0.651773
O66	O	1.910701	-0.273662	0.901773
O67	O	2.160701	-0.023662	1.151773
O68	O	2.410701	0.226338	1.401773
C69	C	1.422672	-0.357669	0.578116
C70	C	1.672672	-0.107669	0.828116
C71	C	1.922672	0.142331	1.078116
C72	C	2.172672	0.392331	1.328116
C73	C	1.289272	-0.357682	0.578138
C74	C	1.539272	-0.107682	0.828138
C75	C	1.789272	0.142318	1.078138
C76	C	2.039272	0.392318	1.328138
C77	C	1.734404	-0.550631	0.578082
C78	C	1.984404	-0.300631	0.828082
C79	C	2.234404	-0.050631	1.078082
C80	C	2.484404	0.199369	1.328082
C81	C	1.734475	-0.633177	0.578101
C82	C	1.984475	-0.383177	0.828101
C83	C	2.234475	-0.133177	1.078101
C84	C	2.484475	0.116823	1.328101
C85	C	1.814785	-0.832624	0.498050
C86	C	2.064785	-0.582624	0.748050
C87	C	2.314785	-0.332624	0.998050
C88	C	2.564785	-0.082624	1.248050
C89	C	1.844109	-0.881945	0.607586
C90	C	2.094109	-0.631945	0.857586
C91	C	2.344109	-0.381945	1.107586
C92	C	2.594109	-0.131945	1.357586
C93	C	1.734543	-0.784307	0.578149
C94	C	1.984543	-0.534307	0.828149
C95	C	2.234543	-0.284307	1.078149
C96	C	2.484543	-0.034307	1.328149
C97	C	1.705341	-0.882068	0.468663
C98	C	1.955341	-0.632068	0.718663
C99	C	2.205341	-0.382068	0.968663
C100	C	2.455341	-0.132068	1.218663
C101	C	1.734611	-0.930292	0.578186
C102	C	1.984611	-0.680292	0.828186
C103	C	2.234611	-0.430292	1.078186
C104	C	2.484611	-0.180292	1.328186
C105	C	1.763923	-0.832541	0.687743
C106	C	2.013923	-0.582541	0.937743
C107	C	2.263923	-0.332541	1.187743
C108	C	2.513923	-0.082541	1.437743
C109	C	1.625104	-0.832659	0.548746
C110	C	1.875104	-0.582659	0.798746
C111	C	2.125104	-0.332659	1.048746
C112	C	2.375104	-0.082659	1.298746
C113	C	1.654386	-0.881958	0.658357
C114	C	1.904386	-0.631958	0.908357
C115	C	2.154386	-0.381958	1.158357
C116	C	2.404386	-0.131958	1.408357
C117	C	1.734507	-0.700209	0.578127
C118	C	1.984507	-0.450209	0.828127
C119	C	2.234507	-0.200209	1.078127
C120	C	2.484507	0.049791	1.328127
C121	C	1.734647	-1.014389	0.578221
C122	C	1.984647	-0.764389	0.828221
C123	C	2.234647	-0.514389	1.078221
C124	C	2.484647	-0.264389	1.328221
C125	C	2.047539	-0.357689	0.578144
C126	C	2.297539	-0.107689	0.828144
C127	C	2.547539	0.142311	1.078144
C128	C	2.797539	0.392311	1.328144
C129	C	2.180939	-0.357694	0.578150
C130	C	2.430939	-0.107694	0.828150
C131	C	2.680939	0.142306	1.078150
C132	C	2.930939	0.392306	1.328150
C133	C	1.734589	-0.357596	0.891172
C134	C	1.984589	-0.107596	1.141172
C135	C	2.234589	0.142404	1.391172
C136	C	2.484589	0.392404	1.641172
C137	C	1.734628	-0.357561	1.024572
C138	C	1.984628	-0.107561	1.274572
C139	C	2.234628	0.142439	1.524572
C140	C	2.484628	0.392439	1.774572
C141	C	1.734622	-0.163973	0.578204
C142	C	1.984622	0.086027	0.828204
C143	C	2.234622	0.336027	1.078204
C144	C	2.484622	0.586027	1.328204
C145	C	1.734675	-0.081427	0.578236
C146	C	1.984675	0.168573	0.828236
C147	C	2.234675	0.418573	1.078236
C148	C	2.484675	0.668573	1.328236
C149	C	1.734474	-0.357707	0.266305
C150	C	1.984474	-0.107707	0.516305
C151	C	2.234474	0.142293	0.766305
C152	C	2.484474	0.392293	1.016305
C153	C	1.734667	-0.357533	0.132905
C154	C	1.984667	-0.107533	0.382905
C155	C	2.234667	0.142467	0.632905
C156	C	2.484667	0.392467	0.882905
H157	H	1.882666	-0.810962	0.430382
H158	H	2.132666	-0.560962	0.680382
H159	H	2.382666	-0.310962	0.930382
H160	H	2.632666	-0.060962	1.180382
H161	H	1.936688	-0.903596	0.632479
H162	H	2.186688	-0.653596	0.882479
H163	H	2.436688	-0.403596	1.132479
H164	H	2.686688	-0.153596	1.382479
N165	N	1.564549	-0.910471	0.748214
N166	N	1.814549	-0.660471	0.998214
N167	N	2.064549	-0.410471	1.248214
N168	N	2.314549	-0.160471	1.498214
H169	H	1.564565	-0.966422	0.747256
H170	H	1.814565	-0.716422	0.997256
H171	H	2.064565	-0.466422	1.247256
H172	H	2.314565	-0.216422	1.497256
H173	H	1.482145	-0.891693	0.726686
H174	H	1.732145	-0.641693	0.976686
H175	H	1.982145	-0.391693	1.226686
H176	H	2.232145	-0.141693	1.476686
H177	H	1.532551	-0.810992	0.523820
H178	H	1.782551	-0.560992	0.773820
H179	H	2.032551	-0.310992	1.023820
H180	H	2.282551	-0.060992	1.273820
H181	H	1.788558	-0.810879	0.780429
H182	H	2.038558	-0.560879	1.030429
H183	H	2.288558	-0.310879	1.280429
H184	H	2.538558	-0.060879	1.530429
H185	H	1.680614	-0.903822	0.376056
H186	H	1.930614	-0.653822	0.626056
H187	H	2.180614	-0.403822	0.876056
H188	H	2.430614	-0.153822	1.126056
