data_functionalizedCrystal
_audit_creation_method	'MofGen! by Chris Wilmer'
_symmetry_space_group_name_H-M	'P1'
_symmetry_Int_Tables_number	1
_symmetry_cell_setting	triclinic
loop_
_symmetry_equiv_pos_as_xyz
  x,y,z
_cell_length_a	17.699104
_cell_length_b	15.995292
_cell_length_c	16.176319
_cell_angle_alpha	89.996390
_cell_angle_beta	89.991696
_cell_angle_gamma	83.380067
loop_
_atom_site_label
_atom_site_type_symbol
_atom_site_fract_x
_atom_site_fract_y
_atom_site_fract_z
O1	O	1.004225	0.105971	-0.068757
O2	O	0.783869	0.119729	-0.068755
O3	O	0.900094	-0.009052	-0.068757
O4	O	0.888001	0.234753	-0.068755
O5	O	0.900078	-0.009061	0.068736
O6	O	0.783853	0.119721	0.068739
O7	O	1.004209	0.105963	0.068736
Cu8	Cu	0.894030	0.112841	0.081291
Cu9	Cu	0.894049	0.112851	-0.081310
O10	O	0.887985	0.234745	0.068738
C11	C	0.755664	0.119229	-0.000008
C12	C	0.671644	0.117741	-0.000007
C13	C	0.146872	0.184943	-0.000015
C14	C	0.225818	0.186336	-0.000017
C15	C	0.274324	0.110736	-0.000018
C16	C	0.243881	0.033738	-0.000025
C17	C	0.164936	0.032346	-0.000028
C18	C	0.562255	0.039351	-0.000011
C19	C	0.641204	0.040749	-0.000005
C20	C	0.623137	0.193340	-0.000000
C21	C	0.544192	0.191948	-0.000004
C22	C	0.513756	0.114951	-0.000015
C23	C	0.428154	0.113442	-0.000014
C24	C	0.359925	0.112245	-0.000013
C25	C	0.899593	-0.040251	-0.000013
C26	C	0.898118	-0.133201	-0.000019
C27	C	0.892693	-0.470929	-0.000011
C28	C	0.976581	-0.447781	0.000295
C29	C	0.978175	-0.351108	-0.000018
C30	C	0.895385	-0.303378	-0.000015
C31	C	0.853454	-0.332393	-0.078527
C32	C	0.852444	-0.429181	-0.078590
C33	C	0.850713	-0.429045	0.077766
C34	C	0.853822	-0.332558	0.078800
C35	C	0.896902	-0.208685	-0.000019
C36	C	0.891174	-0.565622	-0.000012
C37	C	1.032414	0.106463	-0.000013
C38	C	1.116434	0.107951	-0.000019
C39	C	0.888485	0.265944	-0.000008
C40	C	0.889960	0.358894	-0.000007
N41	N	0.894022	0.112834	0.195657
N42	N	0.894062	0.112852	-0.195675
C43	C	0.945502	0.055833	0.238920
C44	C	0.945505	0.055832	0.325467
C45	C	0.894033	0.112837	0.368749
C46	C	0.842547	0.169841	0.325480
C47	C	0.842540	0.169837	0.238935
C48	C	0.842573	0.169857	0.674508
C49	C	0.842586	0.169858	0.761060
C50	C	0.945538	0.055851	0.761040
C51	C	0.945531	0.055848	0.674495
C52	C	0.894044	0.112848	0.631233
C53	C	0.894039	0.112847	0.537389
C54	C	0.894040	0.112842	0.462592
H55	H	0.250597	0.249030	-0.000022
H56	H	0.987448	0.009432	0.639257
Cl57	Cl	0.891222	-0.472818	0.169643
Cl58	Cl	0.524003	-0.057446	-0.000045
Cl59	Cl	0.483217	0.286992	-0.000001
H60	H	1.011015	-0.332150	0.056261
H61	H	0.881497	-0.456051	-0.137282
Cl62	Cl	1.010223	-0.015829	0.379856
H63	H	0.647927	0.256035	0.000005
Cl64	Cl	0.757486	-0.451465	-0.084094
H65	H	0.283381	-0.027816	-0.000030
H66	H	0.140155	-0.030349	-0.000033
H67	H	0.987460	0.009435	0.796273
Cl68	Cl	0.759395	-0.283005	-0.083038
H69	H	0.800633	0.216253	0.360726
Cl70	Cl	1.029193	-0.322781	-0.087067
Cl71	Cl	0.898430	-0.301511	-0.168742
Cl72	Cl	0.900953	-0.303984	0.168479
Cl73	Cl	0.777871	0.241526	0.815472
Cl74	Cl	0.760520	-0.281478	0.086126
H75	H	0.800652	0.216270	0.639292
Cl76	Cl	0.702184	-0.054299	-0.000008
Cl77	Cl	1.026497	-0.491108	0.087225
Cl78	Cl	0.777817	0.241497	0.184548
Cl79	Cl	1.026239	-0.492670	-0.086148
H80	H	0.107383	0.246505	-0.000008
H81	H	0.788965	-0.442915	0.078297
H82	H	0.987420	0.009416	0.203685
