data_functionalizedCrystal
_audit_creation_method	'MofGen! by Chris Wilmer'
_symmetry_space_group_name_H-M	'P1'
_symmetry_Int_Tables_number	1
_symmetry_cell_setting	triclinic
loop_
_symmetry_equiv_pos_as_xyz
  x,y,z
_cell_length_a	16.109301
_cell_length_b	10.654541
_cell_length_c	14.586319
_cell_angle_alpha	89.996435
_cell_angle_beta	89.999213
_cell_angle_gamma	83.972705
loop_
_atom_site_label
_atom_site_type_symbol
_atom_site_fract_x
_atom_site_fract_y
_atom_site_fract_z
O1	O	1.104090	0.161419	-0.076182
O2	O	0.862147	0.181508	-0.076196
O3	O	0.988682	-0.011352	-0.076183
O4	O	0.977554	0.354278	-0.076195
O5	O	0.988673	-0.011354	0.076298
O6	O	0.862138	0.181505	0.076284
O7	O	1.104081	0.161416	0.076299
Cu8	Cu	0.983109	0.171460	0.090214
Cu9	Cu	0.983119	0.171464	-0.090112
O10	O	0.977546	0.354276	0.076286
C11	C	0.831163	0.180692	0.000042
C12	C	0.738853	0.178253	0.000037
C13	C	0.517227	0.287019	0.000044
C14	C	0.430493	0.284717	0.000050
C15	C	0.449008	0.055896	0.000053
C16	C	0.535740	0.058200	0.000054
C17	C	0.569847	0.173765	0.000045
C18	C	0.396381	0.169159	0.000050
C19	C	0.302340	0.166662	0.000056
C20	C	0.663894	0.176262	0.000040
C21	C	0.987861	-0.058140	0.000057
C22	C	0.985418	-0.197550	0.000055
C23	C	1.136725	-0.227574	0.000076
C24	C	1.211227	-0.308079	0.000088
C25	C	1.208926	-0.439066	0.000085
C26	C	1.132115	-0.489549	0.000067
C27	C	1.057613	-0.409044	0.000055
C28	C	1.059922	-0.278056	0.000060
C29	C	0.906308	-0.379021	0.000027
C30	C	0.908607	-0.248034	0.000037
C31	C	0.829496	-0.429504	0.000010
C32	C	0.754992	-0.348998	0.000004
C33	C	0.757296	-0.218004	0.000008
C34	C	0.834104	-0.167529	0.000025
C35	C	1.135065	0.162231	0.000058
C36	C	1.227375	0.164671	0.000058
C37	C	0.978367	0.401064	0.000044
C38	C	0.980810	0.540474	0.000040
N39	N	0.983107	0.171457	0.217046
N40	N	0.983127	0.171457	-0.216944
C41	C	1.039156	0.086088	0.452058
C42	C	1.039158	0.086085	0.548040
C43	C	0.927072	0.256830	0.548037
C44	C	0.927067	0.256826	0.452058
C45	C	0.983113	0.171457	0.404071
C46	C	0.983121	0.171457	0.596032
C47	C	0.983123	0.171455	0.700099
C48	C	0.983110	0.171457	0.299997
H49	H	0.578586	-0.034032	0.000057
Br50	Br	1.128994	-0.667318	-0.000009
H51	H	0.421227	-0.038193	0.000067
Br52	Br	1.139853	-0.049806	0.000106
H53	H	1.273765	-0.266961	0.000110
H54	H	1.269593	-0.504614	0.000087
H55	H	0.827628	-0.536161	0.000001
Br56	Br	0.650760	-0.417518	-0.000035
H57	H	1.084791	0.016573	0.412990
H58	H	0.696627	-0.152463	-0.000006
Br59	Br	0.837237	0.010239	0.000040
Br60	Br	1.115215	-0.029783	0.613164
Br61	Br	0.851014	0.372688	0.613166
Br62	Br	0.850997	0.372682	0.386924
H63	H	0.544993	0.381120	0.000043
H64	H	0.387652	0.376940	0.000051
