data_functionalizedCrystal
_audit_creation_method	'MofGen! by Chris Wilmer'
_symmetry_space_group_name_H-M	'P1'
_symmetry_Int_Tables_number	1
_symmetry_cell_setting	triclinic
loop_
_symmetry_equiv_pos_as_xyz
  x,y,z
_cell_length_a	10.654545
_cell_length_b	13.339070
_cell_length_c	9.130313
_cell_angle_alpha	90.000439
_cell_angle_beta	90.003278
_cell_angle_gamma	100.056187
loop_
_atom_site_label
_atom_site_type_symbol
_atom_site_fract_x
_atom_site_fract_y
_atom_site_fract_z
O1	O	1.715929	0.142410	0.121779
O2	O	1.355033	0.155985	0.121785
O3	O	1.494062	0.001644	0.121778
O4	O	1.576900	0.296751	0.121785
O5	O	1.494047	0.001644	-0.121821
O6	O	1.355019	0.155985	-0.121814
O7	O	1.715914	0.142410	-0.121820
Cu8	Cu	1.535465	0.149197	-0.144060
Cu9	Cu	1.535482	0.149197	0.144024
O10	O	1.576886	0.296751	-0.121813
C11	C	1.307892	0.154989	-0.000014
C12	C	1.167442	0.152010	-0.000012
C13	C	1.101456	0.150607	-0.132798
C14	C	0.969486	0.147791	-0.132799
C15	C	0.969500	0.147784	0.132786
C16	C	1.101467	0.150593	0.132785
C17	C	1.480062	-0.036144	-0.000019
C18	C	1.438352	-0.148738	-0.000013
C19	C	1.762665	-0.511259	-0.000018
C20	C	1.801858	-0.405472	-0.000033
C21	C	1.710985	-0.341283	-0.000027
C22	C	1.580912	-0.382892	-0.000008
C23	C	1.541716	-0.488690	-0.000005
C24	C	1.490035	-0.318714	-0.000014
C25	C	1.359963	-0.360322	0.000005
C26	C	1.320773	-0.466110	0.000009
C27	C	1.411646	-0.530298	0.000003
C28	C	1.529232	-0.212916	-0.000017
C29	C	1.308282	-0.190346	-0.000004
C30	C	1.269090	-0.296134	0.000010
C31	C	1.763056	0.143406	-0.000018
C32	C	1.903505	0.146385	-0.000011
C33	C	1.590886	0.334538	-0.000013
C34	C	1.632596	0.447132	-0.000010
N35	N	1.535462	0.149197	-0.346682
C36	C	1.633254	0.211274	-0.423328
C37	C	1.633273	0.211269	-0.576665
C38	C	1.437695	0.087105	-0.576696
C39	C	1.437683	0.087106	-0.423362
N40	N	1.535493	0.149190	0.346647
H41	H	0.915766	0.146649	-0.240927
C42	C	1.740816	0.279563	-0.338978
C43	C	1.826371	0.231558	-0.233545
C44	C	1.933938	0.299845	-0.149199
C45	C	1.955950	0.416139	-0.170286
C46	C	1.870392	0.464151	-0.275723
C47	C	1.762825	0.395863	-0.360069
H48	H	1.810079	0.145465	-0.217932
H49	H	1.997273	0.264303	-0.071148
H50	H	2.035577	0.466690	-0.107848
H51	H	1.886684	0.550243	-0.291336
H52	H	1.699490	0.431405	-0.438120
C53	C	1.330124	0.018828	-0.661048
C54	C	1.330119	0.018835	-0.829709
C55	C	1.222538	-0.049435	-0.914057
C56	C	1.114962	-0.117714	-0.829744
C57	C	1.114962	-0.117725	-0.661073
C58	C	1.222544	-0.049454	-0.576725
H59	H	1.409758	0.069382	-0.892132
H60	H	1.222539	-0.049427	-1.038919
H61	H	1.035324	-0.168252	-0.892183
H62	H	1.035324	-0.168271	-0.598651
H63	H	1.222543	-0.049462	-0.451863
C64	C	1.174026	0.152156	-0.278873
C65	C	1.248389	0.066186	-0.315404
C66	C	1.320952	0.067731	-0.461483
C67	C	1.319151	0.155246	-0.571032
C68	C	1.244785	0.241223	-0.534504
C69	C	1.172222	0.239677	-0.388424
H70	H	1.249725	0.001396	-0.234307
H71	H	1.376003	0.004085	-0.488523
H72	H	1.372867	0.156390	-0.679169
H73	H	1.243449	0.306012	-0.615601
H74	H	1.117171	0.303323	-0.361384
H75	H	1.836640	-0.563530	-0.000035
C76	C	1.740843	0.279559	-0.660976
C77	C	1.848392	0.347852	-0.576625
C78	C	1.955968	0.416144	-0.660935
C79	C	1.955996	0.416143	-0.829596
C80	C	1.848443	0.347848	-0.913957
C81	C	1.740866	0.279556	-0.829647
H82	H	1.848375	0.347855	-0.451763
H83	H	2.035586	0.466701	-0.598485
H84	H	2.035630	0.466697	-0.892008
H85	H	1.848460	0.347845	-1.038819
H86	H	1.661249	0.228999	-0.892097
H87	H	0.915767	0.146632	0.240905
C88	C	1.174060	0.152137	0.278861
C89	C	1.139560	0.063845	0.388407
C90	C	1.212152	0.065384	0.534476
C91	C	1.319243	0.155214	0.571000
C92	C	1.353748	0.243512	0.461452
C93	C	1.281156	0.241973	0.315383
H94	H	1.060280	-0.002658	0.361372
H95	H	1.186608	0.000019	0.615570
H96	H	1.372980	0.156352	0.679129
H97	H	1.433029	0.310015	0.488486
H98	H	1.306700	0.307338	0.234288
H99	H	1.358046	0.036550	-0.360955
H100	H	1.635137	-0.179049	-0.000033
H101	H	1.907762	-0.371602	-0.000050
H102	H	1.742903	-0.255147	-0.000039
H103	H	1.379742	-0.616440	0.000020
H104	H	1.214860	-0.499984	0.000013
H105	H	1.163183	-0.330027	0.000025
H106	H	1.234285	-0.138083	-0.000007
