data_functionalizedCrystal
_audit_creation_method	'MofGen! by Chris Wilmer'
_symmetry_space_group_name_H-M	'P1'
_symmetry_Int_Tables_number	1
_symmetry_cell_setting	triclinic
loop_
_symmetry_equiv_pos_as_xyz
  x,y,z
_cell_length_a	15.625110
_cell_length_b	15.500237
_cell_length_c	15.538191
_cell_angle_alpha	88.298485
_cell_angle_beta	113.259765
_cell_angle_gamma	105.206422
loop_
_atom_site_label
_atom_site_type_symbol
_atom_site_fract_x
_atom_site_fract_y
_atom_site_fract_z
O1	O	1.133791	0.283818	-0.140175
O2	O	0.872923	0.201964	-0.149848
O3	O	1.054137	0.258821	-0.008918
O4	O	0.952576	0.226961	-0.281105
O5	O	1.043150	0.399262	-0.017436
O6	O	0.861936	0.342405	-0.158367
O7	O	1.122804	0.424260	-0.148693
Cu8	Cu	0.991367	0.396156	-0.154308
Cu9	Cu	1.004360	0.230068	-0.144234
O10	O	0.941589	0.367403	-0.289624
C11	C	0.834858	0.261964	-0.152823
C12	C	0.737808	0.231512	-0.148985
C13	C	0.607009	0.112042	-0.138934
C14	C	0.698201	0.140665	-0.142540
C15	C	0.686230	0.293771	-0.151831
C16	C	0.595033	0.265160	-0.148230
C17	C	0.555430	0.174294	-0.141781
C18	C	0.543455	0.327412	-0.151077
C19	C	0.452268	0.298804	-0.147471
C20	C	0.412660	0.207942	-0.141019
C21	C	0.464244	0.145686	-0.138175
C22	C	0.583062	0.418278	-0.157520
C23	C	0.531484	0.480531	-0.160366
C24	C	0.440292	0.451921	-0.156767
C25	C	0.400684	0.361060	-0.150315
C26	C	0.388708	0.514178	-0.159611
C27	C	0.297521	0.485570	-0.156006
C28	C	0.309497	0.332452	-0.146709
N29	N	0.982235	0.512976	-0.161393
C30	C	1.059034	0.582348	-0.101699
C31	C	1.052133	0.670756	-0.107066
C32	C	0.968434	0.689790	-0.172133
C33	C	0.891628	0.620409	-0.231829
C34	C	0.898527	0.532002	-0.226457
C35	C	0.943586	0.955460	-0.191471
C36	C	0.936693	1.043875	-0.196841
C37	C	1.097198	1.094217	-0.072076
C38	C	1.104092	1.005807	-0.066713
C39	C	1.027284	0.936433	-0.126406
C40	C	0.961379	0.780156	-0.177623
C41	C	1.034337	0.846067	-0.120911
C42	C	1.160869	0.364257	-0.145718
C43	C	1.257919	0.394704	-0.149556
C44	C	1.059270	0.332373	0.021702
C45	C	1.090921	0.342296	0.125631
N46	N	1.013492	1.113248	-0.137146
C47	C	0.936457	0.293849	-0.320244
C48	C	0.904806	0.283921	-0.424172
C49	C	0.776476	0.243649	0.419834
C50	C	0.806239	0.252989	0.517492
C51	C	0.973649	0.305519	0.536521
C52	C	0.943901	0.296178	0.438862
C53	C	0.845313	0.265244	0.380526
C54	C	1.012737	0.317773	0.399554
C55	C	0.982991	0.308437	0.301903
C56	C	0.884407	0.277507	0.243561
C57	C	0.815566	0.255908	0.282875
C58	C	1.111325	0.348713	0.457892
C59	C	1.180161	0.370308	0.418584
C60	C	1.150415	0.360967	0.320932
C61	C	1.051832	0.330036	0.262589
C62	C	1.219256	0.382566	0.281617
C63	C	1.189510	0.373230	0.183967
C64	C	1.022085	0.320701	0.164939
H65	H	0.574757	0.038049	-0.133693
H66	H	0.740191	0.089964	-0.140228
H67	H	1.053920	0.330709	0.584031
H68	H	0.718489	0.367755	-0.157079
H69	H	1.102482	0.830567	-0.067930
H70	H	1.127192	0.566861	-0.048719
O71	O	1.140257	0.357945	0.552746
C72	C	1.190438	0.448204	0.586178
H73	H	1.167839	0.493199	0.526651
H74	H	1.271692	0.456855	0.612992
C75	C	1.193776	0.419065	0.740000
C76	C	1.166013	0.474329	0.666890
H77	H	1.178713	0.435180	0.789790
H78	H	1.159971	0.358255	0.717478
H79	H	1.261486	0.426280	0.762334
H80	H	1.098302	0.467105	0.644550
H81	H	1.199805	0.535139	0.689410
O82	O	0.880078	0.798747	-0.240707
C83	C	0.837938	0.837913	-0.192547
H84	H	0.895465	0.869517	-0.120850
H85	H	0.777641	0.784108	-0.182763
C86	C	0.724992	0.871869	-0.338068
C87	C	0.795650	0.910692	-0.250011
H88	H	0.698902	0.916760	-0.373516
H89	H	0.753380	0.845479	-0.370516
H90	H	0.674753	0.827032	-0.329902
H91	H	0.845892	0.955520	-0.258178
H92	H	0.767269	0.937091	-0.217567
H93	H	0.255517	0.536260	-0.158341
H94	H	1.114668	0.727241	-0.058458
H95	H	0.835988	0.475517	-0.275065
H96	H	1.172246	0.990313	-0.013730
O97	O	0.926297	0.290522	0.108364
C98	C	0.888340	0.204076	0.130833
H99	H	0.935633	0.194074	0.205913
H100	H	0.887201	0.151536	0.080288
C101	C	0.726447	0.206416	0.030017
C102	C	0.784528	0.194135	0.122235
H103	H	0.662409	0.200281	0.024710
H104	H	0.752019	0.264655	0.014876
H105	H	0.725509	0.162631	-0.012093
H106	H	0.785475	0.237926	0.164342
H107	H	0.758953	0.135902	0.137383
O108	O	0.855446	0.268570	0.148688
C109	C	0.793877	0.323761	0.106428
H110	H	0.808522	0.380445	0.159783
H111	H	0.715198	0.282225	0.081617
C112	C	0.795138	0.293967	-0.043821
C113	C	0.813131	0.363592	0.021707
H114	H	0.807010	0.318534	-0.096084
H115	H	0.836614	0.256781	-0.015352
H116	H	0.729572	0.259360	-0.064486
H117	H	0.878698	0.398191	0.042380
H118	H	0.771665	0.400785	-0.006761
H119	H	0.735286	0.230712	0.235374
H120	H	0.431992	0.071692	-0.132934
H121	H	1.245563	0.390816	0.151962
H122	H	0.696196	0.218452	0.372333
H123	H	0.338408	0.184651	-0.138084
O124	O	0.739241	0.231925	0.555525
C125	C	0.645849	0.202642	0.483091
H126	H	0.651266	0.177103	0.417884
H127	H	0.611673	0.260949	0.465693
C128	C	0.576026	0.157757	0.595642
C129	C	0.582679	0.126383	0.515556
H130	H	0.537058	0.110720	0.615668
H131	H	0.638945	0.177489	0.644442
H132	H	0.547549	0.206347	0.581132
H133	H	0.611167	0.077803	0.530069
H134	H	0.519763	0.106641	0.466758
H135	H	0.823475	0.635909	-0.284805
O136	O	0.671713	0.446147	-0.160856
C137	C	0.734868	0.509006	-0.083818
H138	H	0.707577	0.499048	-0.025187
H139	H	0.737560	0.579837	-0.106864
C140	C	0.870605	0.507670	-0.119746
C141	C	0.837090	0.495434	-0.047732
H142	H	0.933661	0.499302	-0.097488
H143	H	0.828056	0.465323	-0.171651
H144	H	0.872840	0.566695	-0.138945
H145	H	0.834843	0.436406	-0.028542
H146	H	0.879641	0.537771	0.004177
H147	H	0.277245	0.258458	-0.141469
H148	H	0.563742	0.554514	-0.165614
O149	O	1.275926	0.400202	0.475304
C150	C	1.303821	0.334446	0.536791
H151	H	1.251327	0.265891	0.505050
H152	H	1.302589	0.350912	0.607243
C153	C	1.471342	0.417181	0.590646
C154	C	1.406872	0.332979	0.551658
H155	H	1.534911	0.416278	0.599822
H156	H	1.452550	0.461484	0.549224
H157	H	1.470304	0.430894	0.649352
H158	H	1.407903	0.319273	0.492949
H159	H	1.425668	0.288674	0.593071
H160	H	0.420971	0.588162	-0.164853
O161	O	1.315020	0.412466	0.338339
C162	C	1.342923	0.346717	0.399832
H163	H	1.290436	0.278158	0.368096
H164	H	1.341686	0.363185	0.470282
C165	C	1.510439	0.429468	0.453689
C166	C	1.445979	0.345261	0.414706
H167	H	1.574010	0.428572	0.462868
H168	H	1.491641	0.473766	0.412262
H169	H	1.509397	0.443182	0.512393
H170	H	1.447013	0.331554	0.355999
H171	H	1.464780	0.300960	0.456123
H172	H	1.159731	1.150708	-0.023475
H173	H	0.868532	1.059364	-0.249829
O174	O	0.869021	0.888136	-0.249597
C175	C	0.851847	0.904893	-0.343852
H176	H	0.920214	0.951218	-0.347258
H177	H	0.790276	0.938163	-0.373430
C178	C	0.739936	0.758776	-0.398070
C179	C	0.823909	0.815668	-0.402254
H180	H	0.722698	0.703739	-0.434097
H181	H	0.751503	0.747488	-0.334570
H182	H	0.688637	0.786512	-0.422717
H183	H	0.875208	0.787936	-0.377596
H184	H	0.812349	0.826950	-0.465752
