data_functionalizedCrystal
_audit_creation_method	'MofGen! by Chris Wilmer'
_symmetry_space_group_name_H-M	'P1'
_symmetry_Int_Tables_number	1
_symmetry_cell_setting	triclinic
loop_
_symmetry_equiv_pos_as_xyz
  x,y,z
_cell_length_a	18.215407
_cell_length_b	16.120484
_cell_length_c	18.215399
_cell_angle_alpha	87.130211
_cell_angle_beta	90.019833
_cell_angle_gamma	92.926015
loop_
_atom_site_label
_atom_site_type_symbol
_atom_site_fract_x
_atom_site_fract_y
_atom_site_fract_z
Zn1	Zn	1.110213	-0.331906	0.430960
Zn2	Zn	1.443546	0.001427	0.764293
Zn3	Zn	1.776879	0.334760	1.097627
Zn4	Zn	1.103879	-0.471328	0.314129
Zn5	Zn	1.437212	-0.137995	0.647462
Zn6	Zn	1.770546	0.195339	0.980796
Zn7	Zn	0.987144	-0.331934	0.307908
Zn8	Zn	1.320477	0.001400	0.641242
Zn9	Zn	1.653811	0.334733	0.974575
Zn10	Zn	0.980871	-0.471282	0.437152
Zn11	Zn	1.314205	-0.137948	0.770485
Zn12	Zn	1.647538	0.195385	1.103818
O13	O	1.045527	-0.401612	0.372537
O14	O	1.378860	-0.068279	0.705871
O15	O	1.712193	0.265054	1.039204
O16	O	1.212356	-0.350409	0.415474
O17	O	1.545690	-0.017076	0.748807
O18	O	1.879023	0.316258	1.082141
O19	O	1.088368	-0.452868	0.210321
O20	O	1.421702	-0.119535	0.543654
O21	O	1.755035	0.213799	0.876988
O22	O	1.008745	-0.215264	0.319037
O23	O	1.342078	0.118069	0.652370
O24	O	1.675412	0.451403	0.985703
O25	O	1.207703	-0.452841	0.329639
O26	O	1.541036	-0.119508	0.662972
O27	O	1.874370	0.213825	0.996305
O28	O	1.099163	-0.215244	0.409442
O29	O	1.432496	0.118089	0.742775
O30	O	1.765830	0.451423	1.076109
O31	O	1.002604	-0.350456	0.205751
O32	O	1.335937	-0.017122	0.539084
O33	O	1.669270	0.316211	0.872417
O34	O	0.883328	-0.350411	0.325041
O35	O	1.216661	-0.017077	0.658374
O36	O	1.549995	0.316256	0.991708
O37	O	0.998054	-0.452762	0.539313
O38	O	1.331387	-0.119429	0.872647
O39	O	1.664721	0.213904	1.205980
O40	O	0.878719	-0.452789	0.419995
O41	O	1.212053	-0.119455	0.753329
O42	O	1.545386	0.213878	1.086662
O43	O	1.093081	-0.350364	0.534764
O44	O	1.426414	-0.017031	0.868097
O45	O	1.759747	0.316303	1.201431
O46	O	1.082286	-0.587988	0.335643
O47	O	1.415619	-0.254654	0.668976
O48	O	1.748953	0.078679	1.002310
O49	O	0.991913	-0.587954	0.426027
O50	O	1.325246	-0.254620	0.759361
O51	O	1.658579	0.078713	1.092694
C52	C	0.854321	-0.401598	0.372516
C53	C	1.187654	-0.068265	0.705849
C54	C	1.520988	0.265068	1.039182
C55	C	0.772522	-0.401612	0.372525
C56	C	1.105855	-0.068279	0.705858
C57	C	1.439188	0.265055	1.039191
C58	C	1.035751	-0.618221	0.382198
C59	C	1.369085	-0.284888	0.715531
C60	C	1.702418	0.048446	1.048865
C61	C	1.031637	-0.710887	0.386356
C62	C	1.364970	-0.377554	0.719689
C63	C	1.698304	-0.044220	1.053022
C64	C	0.581943	-0.455004	0.421912
C65	C	0.915277	-0.121671	0.755245
C66	C	1.248610	0.211662	1.088579
C67	C	0.505085	-0.455007	0.421921
C68	C	0.838418	-0.121674	0.755255
C69	C	1.171751	0.211660	1.088588
C70	C	0.509861	-0.348236	0.323179
C71	C	0.843195	-0.014902	0.656513
C72	C	1.176528	0.318431	0.989846
C73	C	0.586719	-0.348229	0.323174
C74	C	0.920052	-0.014896	0.656507
C75	C	1.253386	0.318437	0.989841
C76	C	0.622758	-0.401619	0.372540
C77	C	0.956091	-0.068285	0.705873
C78	C	1.289424	0.265048	1.039206
C79	C	0.469041	-0.401627	0.372554
C80	C	0.802375	-0.068294	0.705887
C81	C	1.135708	0.265039	1.039221
C82	C	0.385708	-0.401630	0.372564
C83	C	0.719041	-0.068296	0.705897
C84	C	1.052374	0.265037	1.039230
C85	C	0.706097	-0.401615	0.372531
C86	C	1.039430	-0.068282	0.705864
C87	C	1.372764	0.265051	1.039198
C88	C	1.024129	-0.880549	0.393961
C89	C	1.357462	-0.547215	0.727295
C90	C	1.690796	-0.213882	1.060628
C91	C	1.067056	-0.921836	0.351125
C92	C	1.400390	-0.588502	0.684459
C93	C	1.733723	-0.255169	1.017792
C94	C	1.062879	-1.016241	0.355357
C95	C	1.396212	-0.682908	0.688691
C96	C	1.729545	-0.349575	1.022024
C97	C	1.028305	-0.786135	0.389730
C98	C	1.361639	-0.452801	0.723064
C99	C	1.694972	-0.119468	1.056397
C100	C	1.237479	-0.401627	0.372560
C101	C	1.570812	-0.068294	0.705893
C102	C	1.904146	0.265039	1.039226
C103	C	1.319277	-0.401634	0.372569
C104	C	1.652611	-0.068300	0.705902
C105	C	1.985944	0.265033	1.039236
C106	C	1.045574	-0.401555	0.564488
C107	C	1.378907	-0.068222	0.897821
C108	C	1.712241	0.265112	1.231154
C109	C	1.045594	-0.401530	0.646286
C110	C	1.378928	-0.068197	0.979619
C111	C	1.712261	0.265136	1.312952
C112	C	1.055360	-0.184158	0.362855
C113	C	1.388693	0.149175	0.696188
C114	C	1.722027	0.482509	1.029522
C115	C	1.059551	-0.091492	0.358729
C116	C	1.392884	0.241841	0.692062
C117	C	1.726217	0.575175	1.025396
C118	C	1.045524	-0.401610	0.181331
C119	C	1.378858	-0.068276	0.514664
C120	C	1.712191	0.265057	0.847998
C121	C	1.045657	-0.401399	0.099523
C122	C	1.378991	-0.068066	0.432856
C123	C	1.712324	0.265267	0.766190
C124	C	1.095094	-0.348162	0.832110
C125	C	1.428427	-0.014828	1.165443
C126	C	1.761760	0.318505	1.498776
C127	C	1.095104	-0.348138	0.908967
C128	C	1.428437	-0.014804	1.242301
C129	C	1.761770	0.318529	1.575634
C130	C	0.996153	-0.454770	0.913694
C131	C	1.329486	-0.121437	1.247027
C132	C	1.662819	0.211896	1.580360
C133	C	0.996140	-0.454790	0.836837
C134	C	1.329473	-0.121456	1.170170
C135	C	1.662806	0.211877	1.503504
C136	C	1.045615	-0.401487	0.796047
C137	C	1.378948	-0.068153	1.129380
C138	C	1.712281	0.265180	1.462714
C139	C	1.045637	-0.401443	0.949761
C140	C	1.378971	-0.068110	1.283095
C141	C	1.712304	0.265224	1.616428
C142	C	1.045648	-0.401417	1.033094
C143	C	1.378981	-0.068084	1.366427
C144	C	1.712314	0.265250	1.699761
C145	C	1.045603	-0.401511	0.712709
C146	C	1.378937	-0.068178	1.046043
C147	C	1.712270	0.265155	1.379376
H148	H	0.471857	-0.498478	0.462126
H149	H	0.805190	-0.165145	0.795460
H150	H	1.138523	0.168189	1.128793
N151	N	0.620813	-0.512578	0.475161
N152	N	0.954147	-0.179245	0.808495
N153	N	1.287480	0.154088	1.141828
H154	H	0.675696	-0.504478	0.467666
H155	H	1.009029	-0.171144	0.801000
H156	H	1.342363	0.162189	1.134333
H157	H	0.604688	-0.572105	0.466279
H158	H	0.938021	-0.238771	0.799612
H159	H	1.271354	0.094562	1.132945
H160	H	0.480509	-0.304769	0.282986
H161	H	0.813842	0.028564	0.616320
H162	H	1.147176	0.361897	0.949653
H163	H	1.106944	-0.886281	0.311274
H164	H	1.440277	-0.552948	0.644607
H165	H	1.773611	-0.219614	0.977941
N166	N	0.630747	-0.290636	0.269929
N167	N	0.964081	0.042698	0.603262
N168	N	1.297414	0.376031	0.936596
H169	H	0.596256	-0.256817	0.238655
H170	H	0.929589	0.076517	0.571989
H171	H	1.262922	0.409850	0.905322
H172	H	0.661099	-0.324514	0.237332
H173	H	0.994433	0.008820	0.570665
H174	H	1.327766	0.342153	0.903998
H175	H	0.984243	-0.916101	0.433809
H176	H	1.317577	-0.582768	0.767142
H177	H	1.650910	-0.249434	1.100475
N178	N	0.942795	-0.512270	0.957679
N179	N	1.276128	-0.178937	1.291013
N180	N	1.609461	0.154397	1.624346
H181	H	0.890797	-0.499319	0.943714
H182	H	1.224131	-0.165986	1.277047
H183	H	1.557464	0.167347	1.610380
H184	H	0.950368	-0.504150	1.011828
H185	H	1.283701	-0.170817	1.345161
H186	H	1.617034	0.162516	1.678495
N187	N	1.148452	-0.290673	0.788113
N188	N	1.481785	0.042660	1.121447
N189	N	1.815119	0.375994	1.454780
H190	H	1.179797	-0.256888	0.822624
H191	H	1.513130	0.076446	1.155958
H192	H	1.846464	0.409779	1.489291
H193	H	1.120234	-0.252099	0.754502
H194	H	1.453567	0.081235	1.087835
H195	H	1.786901	0.414568	1.421168
H196	H	1.135393	-0.304714	0.938326
H197	H	1.468727	0.028620	1.271659
H198	H	1.802060	0.361953	1.604993
N199	N	0.942774	-0.512314	0.797937
N200	N	1.276108	-0.178981	1.131271
N201	N	1.609441	0.154352	1.464604
H202	H	0.950273	-0.504235	0.743060
H203	H	1.283606	-0.170902	1.076393
H204	H	1.616940	0.162431	1.409727
H205	H	0.890803	-0.499334	0.810783
H206	H	1.224136	-0.166001	1.144116
H207	H	1.557469	0.167332	1.477449
