data_functionalizedCrystal
_audit_creation_method	'MofGen! by Chris Wilmer'
_symmetry_space_group_name_H-M	'P1'
_symmetry_Int_Tables_number	1
_symmetry_cell_setting	triclinic
loop_
_symmetry_equiv_pos_as_xyz
  x,y,z
_cell_length_a	15.186229
_cell_length_b	16.109317
_cell_length_c	10.654552
_cell_angle_alpha	83.976940
_cell_angle_beta	90.000132
_cell_angle_gamma	89.998938
loop_
_atom_site_label
_atom_site_type_symbol
_atom_site_fract_x
_atom_site_fract_y
_atom_site_fract_z
O1	O	-0.073128	-1.104083	-0.161517
O2	O	0.426872	-0.604083	0.338483
O3	O	-0.073150	-0.862143	-0.181584
O4	O	0.426850	-0.362143	0.318416
O5	O	-0.073140	-0.988675	0.011264
O6	O	0.426860	-0.488675	0.511264
O7	O	-0.073138	-0.977551	-0.354364
O8	O	0.426862	-0.477551	0.145636
O9	O	0.073317	-0.988666	0.011266
O10	O	0.573317	-0.488666	0.511266
O11	O	0.073308	-0.862134	-0.181582
O12	O	0.573308	-0.362134	0.318418
O13	O	0.073329	-1.104074	-0.161515
O14	O	0.573329	-0.604074	0.338485
Zn15	Zn	0.096572	-0.983103	-0.171548
Zn16	Zn	0.596572	-0.483103	0.328452
Zn17	Zn	-0.096392	-0.983114	-0.171551
Zn18	Zn	0.403608	-0.483114	0.328449
O19	O	0.073320	-0.977542	-0.354363
O20	O	0.573320	-0.477542	0.145637
C21	C	0.000076	-0.831159	-0.180766
C22	C	0.500076	-0.331159	0.319234
C23	C	0.000068	-0.738849	-0.178318
C24	C	0.500068	-0.238849	0.321682
N25	N	0.228264	-0.983100	-0.171546
N26	N	0.728264	-0.483100	0.328454
C27	C	-0.079756	-0.439733	-0.170413
C28	C	0.420244	0.060267	0.329587
C29	C	-0.079760	-0.526468	-0.172705
C30	C	0.420240	-0.026468	0.327295
C31	C	0.079916	-0.526477	-0.172686
C32	C	0.579916	-0.026477	0.327314
C33	C	0.079919	-0.439745	-0.170385
C34	C	0.579919	0.060255	0.329615
C35	C	0.000080	-0.396374	-0.169256
C36	C	0.500080	0.103626	0.330744
C37	C	0.000073	-0.569842	-0.173848
C38	C	0.500073	-0.069842	0.326152
C39	C	0.000070	-0.663884	-0.176333
C40	C	0.500070	-0.163884	0.323667
C41	C	0.000083	-0.302327	-0.166768
C42	C	0.500083	0.197673	0.333232
C43	C	0.453992	-1.039148	-0.086183
C44	C	0.953992	-0.539148	0.413817
C45	C	0.546181	-1.039150	-0.086181
C46	C	1.046181	-0.539150	0.413819
C47	C	0.546182	-0.927067	-0.256916
C48	C	1.046182	-0.427067	0.243084
C49	C	0.453994	-0.927061	-0.256911
C50	C	0.953994	-0.427061	0.243089
C51	C	0.407901	-0.983106	-0.171546
C52	C	0.907901	-0.483106	0.328454
C53	C	0.592279	-0.983114	-0.171549
C54	C	1.092279	-0.483114	0.328451
C55	C	0.692235	-0.983116	-0.171547
C56	C	1.192235	-0.483116	0.328453
C57	C	0.307939	-0.983103	-0.171546
C58	C	0.807939	-0.483103	0.328454
N59	N	0.771915	-0.983120	-0.171549
N60	N	1.271915	-0.483120	0.328451
C61	C	0.000086	-0.987853	0.058052
C62	C	0.500086	-0.487853	0.558052
C63	C	0.000079	-0.985409	0.197462
C64	C	0.500079	-0.485409	0.697462
C65	C	0.000097	-0.135058	-0.162334
C66	C	0.500097	0.364942	0.337666
C67	C	0.000086	-0.227367	-0.164785
C68	C	0.500086	0.272633	0.335215
C69	C	-0.079754	-0.984267	0.262957
C70	C	0.420246	-0.484267	0.762957
C71	C	-0.079751	-0.981963	0.393947
C72	C	0.420249	-0.481963	0.893947
C73	C	0.079925	-0.981946	0.393934
C74	C	0.579925	-0.481946	0.893934
C75	C	0.079921	-0.984244	0.262946
C76	C	0.579921	-0.484244	0.762946
C77	C	-0.159596	-0.985431	0.197473
C78	C	0.340404	-0.485431	0.697473
C79	C	-0.239435	-0.984290	0.262969
C80	C	0.260565	-0.484290	0.762969
C81	C	-0.239432	-0.981986	0.393958
C82	C	0.260568	-0.481986	0.893958
C83	C	-0.159590	-0.980823	0.459452
C84	C	0.340410	-0.480823	0.959452
C85	C	0.000090	-0.978363	0.598850
C86	C	0.500090	-0.478363	1.098850
C87	C	0.000086	-0.980806	0.459439
C88	C	0.500086	-0.480806	0.959439
H89	H	-0.144766	-0.404424	-0.169492
H90	H	0.355234	0.095576	0.330508
F91	F	-0.159605	-0.987887	0.058064
F92	F	0.340395	-0.487887	0.558064
F93	F	-0.164733	-0.572611	-0.173933
F94	F	0.335267	-0.072611	0.326067
F95	F	0.164893	-0.980709	0.463641
F96	F	0.664893	-0.480709	0.963641
H97	H	0.416464	-0.881421	-0.326425
H98	H	0.916464	-0.381421	0.173575
H99	H	0.583706	-1.084783	-0.016669
H100	H	1.083706	-0.584783	0.483331
H101	H	-0.159594	-0.978935	0.566110
H102	H	0.340406	-0.478935	1.066110
H103	H	0.144918	-0.561800	-0.173608
H104	H	0.644918	-0.061800	0.326392
H105	H	0.144935	-0.404441	-0.169441
H106	H	0.644935	0.095559	0.330559
F107	F	0.404940	-1.098794	0.004673
F108	F	0.904940	-0.598794	0.504673
F109	F	-0.324404	-0.985526	0.193264
F110	F	0.175596	-0.485526	0.693264
H111	H	0.583720	-0.881437	-0.326420
H112	H	1.083720	-0.381437	0.173580
H113	H	-0.304441	-0.981049	0.447280
H114	H	0.195559	-0.481049	0.947280
F115	F	0.164888	-0.985463	0.193238
F116	F	0.664888	-0.485463	0.693238
