data_functionalizedCrystal
_audit_creation_method	'MofGen! by Chris Wilmer'
_symmetry_space_group_name_H-M	'P1'
_symmetry_Int_Tables_number	1
_symmetry_cell_setting	triclinic
loop_
_symmetry_equiv_pos_as_xyz
  x,y,z
_cell_length_a	19.288840
_cell_length_b	23.532407
_cell_length_c	18.366186
_cell_angle_alpha	89.992445
_cell_angle_beta	90.013590
_cell_angle_gamma	97.012658
loop_
_atom_site_label
_atom_site_type_symbol
_atom_site_fract_x
_atom_site_fract_y
_atom_site_fract_z
O1	O	0.921143	-0.070974	0.060681
O2	O	0.718850	-0.080572	0.060657
O3	O	0.826097	0.007146	0.060654
O4	O	0.813896	-0.158692	0.060684
O5	O	0.826083	0.007143	-0.060446
O6	O	0.718836	-0.080575	-0.060443
O7	O	0.921129	-0.070977	-0.060419
Zn8	Zn	0.819980	-0.075777	-0.079658
Zn9	Zn	0.819999	-0.075773	0.079896
O10	O	0.813882	-0.158696	-0.060416
C11	C	0.692967	-0.080267	0.000104
C12	C	0.615866	-0.079347	0.000094
C13	C	0.579671	-0.078904	0.066107
C14	C	0.507227	-0.078033	0.066116
C15	C	0.470982	-0.077594	0.000108
C16	C	0.507185	-0.078041	-0.065914
C17	C	0.579627	-0.078918	-0.065921
C18	C	0.361756	-0.042849	-0.050460
C19	C	0.289316	-0.041969	-0.050450
C20	C	0.247547	-0.074894	0.000126
C21	C	0.278228	-0.108691	0.050705
C22	C	0.350670	-0.109567	0.050698
C23	C	0.392431	-0.076644	0.000108
C24	C	0.132800	-0.073506	0.066153
C25	C	0.060353	-0.072639	0.066159
C26	C	0.060314	-0.072642	-0.065872
C27	C	0.132758	-0.073515	-0.065877
C28	C	0.168997	-0.073944	0.000138
C29	C	0.825779	0.028362	0.000101
C30	C	0.824845	0.091581	0.000094
C31	C	0.882453	0.490568	0.000129
C32	C	0.881585	0.549970	0.000132
O33	O	0.934988	0.586608	0.000164
N34	N	0.817827	0.572724	0.000123
C35	C	0.754932	0.536072	0.000118
O36	O	0.700622	0.560880	0.000112
C37	C	0.755801	0.476671	0.000120
C38	C	0.819563	0.453921	0.000121
C39	C	0.946209	0.467818	0.000131
C40	C	0.947077	0.408420	0.000126
C41	C	0.884187	0.371773	0.000119
C42	C	0.820430	0.394523	0.000116
C43	C	0.692907	0.440021	0.000120
C44	C	0.693781	0.380616	0.000122
C45	C	0.757543	0.357866	0.000124
C46	C	0.758408	0.298478	0.000104
N47	N	0.822166	0.275725	0.000113
C48	C	0.885056	0.312372	0.000120
C49	C	0.753113	0.660818	0.000116
C50	C	0.752244	0.720218	0.000110
C51	C	0.878897	0.734112	0.000125
C52	C	0.879765	0.674711	0.000126
C53	C	0.816871	0.638065	0.000125
C54	C	0.886873	0.187631	0.000109
C55	C	0.887734	0.128228	0.000101
C56	C	0.761082	0.114339	0.000090
C57	C	0.760220	0.173737	0.000094
C58	C	0.823121	0.210383	0.000106
O59	O	0.705034	0.261806	0.000075
O60	O	0.939358	0.287555	0.000136
C61	C	0.947012	-0.071282	0.000136
C62	C	1.024113	-0.072202	0.000151
C63	C	0.814200	0.820089	0.000131
C64	C	0.815134	0.756870	0.000121
N65	N	0.819973	-0.075779	-0.188549
C66	C	0.861898	-0.110211	-0.773087
C67	C	0.861891	-0.110216	-0.696859
C68	C	0.820005	-0.075766	-0.658760
C69	C	0.778110	-0.041319	-0.696896
C70	C	0.778113	-0.041319	-0.773122
C71	C	0.818437	-0.024419	-0.538004
C72	C	0.818438	-0.024418	-0.461779
C73	C	0.819991	-0.075768	-0.423653
C74	C	0.821557	-0.127119	-0.461761
C75	C	0.821560	-0.127119	-0.537987
C76	C	0.819997	-0.075763	-0.576106
C77	C	0.861873	-0.110222	-0.302871
C78	C	0.861860	-0.110229	-0.226642
C79	C	0.778083	-0.041326	-0.226681
C80	C	0.778091	-0.041324	-0.302908
C81	C	0.819990	-0.075771	-0.340999
N82	N	0.820012	-0.075766	0.188787
H83	H	0.375647	-0.137087	0.091880
Br84	Br	0.972239	0.237356	0.000126
H85	H	0.931686	0.656193	0.000128
H86	H	0.743986	-0.013273	-0.333951
Br87	Br	0.418435	0.001836	-0.119108
H88	H	0.701894	0.630983	0.000109
H89	H	0.609172	-0.079254	0.119861
H90	H	0.609096	-0.079280	-0.119678
H91	H	0.998999	0.389903	0.000130
Br92	Br	0.918693	-0.156996	-0.174897
Br93	Br	0.458094	-0.077432	0.155711
Br94	Br	0.816328	0.045276	-0.589739
Br95	Br	0.816310	0.045271	-0.410069
Br96	Br	0.823671	-0.196812	-0.410028
Br97	Br	0.918732	-0.156971	-0.354571
H98	H	0.997425	0.497651	0.000140
H99	H	0.477669	-0.077686	-0.119658
Br100	Br	0.721261	0.005431	-0.824869
Br101	Br	0.918756	-0.156964	-0.824778
Br102	Br	0.964248	0.783859	0.000138
Br103	Br	0.665707	0.751085	0.000090
H104	H	0.640985	0.458533	0.000123
Br105	Br	0.181883	-0.074115	-0.155471
Br106	Br	0.721228	0.005422	-0.174984
Br107	Br	0.247682	0.003884	-0.119107
H108	H	0.744004	-0.013271	-0.665871
H109	H	0.822833	-0.168931	-0.569011
Br110	Br	0.181985	-0.074094	0.155742
H111	H	0.896000	-0.138268	-0.665810
H112	H	0.642564	0.350781	0.000122
H113	H	0.939659	0.109708	0.000100
Br114	Br	0.673685	0.204614	0.000075
Br115	Br	0.675736	0.064592	0.000079
H116	H	0.030803	-0.072288	-0.119618
Br117	Br	0.011229	-0.072044	0.155757
Br118	Br	0.221550	-0.153379	0.119349
