data_functionalizedCrystal
_audit_creation_method	'MofGen! by Chris Wilmer'
_symmetry_space_group_name_H-M	'P1'
_symmetry_Int_Tables_number	1
_symmetry_cell_setting	triclinic
loop_
_symmetry_equiv_pos_as_xyz
  x,y,z
_cell_length_a	6.817900
_cell_length_b	19.551136
_cell_length_c	19.453114
_cell_angle_alpha	96.340680
_cell_angle_beta	101.709288
_cell_angle_gamma	101.650842
loop_
_atom_site_label
_atom_site_type_symbol
_atom_site_fract_x
_atom_site_fract_y
_atom_site_fract_z
V1	V	-3.997720	-0.097405	-0.219347
O2	O	-3.995109	0.003932	-0.214816
O3	O	-3.940469	-0.192418	-0.218190
O4	O	-3.940744	-0.096235	-0.314856
O5	O	-3.994832	-0.092917	-0.117480
V6	V	-4.483606	-0.085245	-0.207122
O7	O	-4.253795	-0.124079	-0.246166
O8	O	-4.677728	-0.058572	-0.180304
O9	O	-4.317650	0.009768	-0.208280
O10	O	-4.603613	-0.186583	-0.211653
O11	O	-4.603890	-0.089734	-0.308989
O12	O	-4.317375	-0.086415	-0.111613
C13	C	-3.783594	-0.215570	-0.214818
C14	C	-3.818014	-0.293247	-0.214508
C15	C	-3.800746	-0.319523	-0.149994
C16	C	-3.833161	-0.392506	-0.149681
C17	C	-3.882804	-0.439210	-0.213885
C18	C	-3.900083	-0.412927	-0.278407
C19	C	-3.867688	-0.339945	-0.278719
C20	C	-3.843135	-0.560376	-0.260437
C21	C	-3.875515	-0.633356	-0.260123
C22	C	-3.982731	-0.664311	-0.212927
C23	C	-4.057530	-0.622276	-0.166033
C24	C	-4.025135	-0.549294	-0.166344
C25	C	-3.917936	-0.518348	-0.213554
C26	C	-4.000611	-0.769724	-0.148070
C27	C	-4.033040	-0.842709	-0.147760
C28	C	-4.099943	-0.863128	-0.276487
C29	C	-4.067534	-0.790145	-0.276796
C30	C	-4.017859	-0.743446	-0.212585
C31	C	-3.783944	-0.092879	-0.338125
C32	C	-3.818585	-0.092551	-0.416206
C33	C	-4.016314	-0.095904	-0.456475
C34	C	-4.048864	-0.095596	-0.529841
C35	C	-3.883679	-0.091949	-0.562937
C36	C	-3.685919	-0.088591	-0.522657
C37	C	-3.653372	-0.088892	-0.449292
N38	N	-3.820498	-0.128850	-0.681858
N39	N	-3.851430	-0.128566	-0.751552
C40	C	-3.981730	-0.091041	-0.783982
N41	N	-4.079965	-0.053819	-0.744086
N42	N	-4.049038	-0.054107	-0.674385
C43	C	-3.918950	-0.091622	-0.642488
C44	C	-4.214765	-0.094059	-0.903802
C45	C	-4.247305	-0.093747	-0.977168
C46	C	-3.884358	-0.086749	-0.969985
C47	C	-3.851821	-0.087054	-0.896619
C48	C	-4.017033	-0.090713	-0.863533
C49	C	-4.137867	0.032916	-0.211650
C50	C	-4.082685	0.110592	-0.211964
C51	C	-4.137517	-0.089774	-0.088341
C52	C	-4.082115	-0.090099	-0.010259
H53	H	-3.814602	-0.667576	-0.298306
F54	F	-4.457765	-0.097315	-1.020026
H55	H	-4.209886	-0.098331	-0.562635
H56	H	-4.081581	-0.768751	-0.329330
H57	H	-3.551426	-0.085619	-0.549608
H58	H	-4.086044	-0.515071	-0.128163
F59	F	-3.947755	-0.720021	-0.079732
F60	F	-3.442914	-0.085325	-0.406433
F61	F	-4.152793	-0.912830	-0.344819
F62	F	-3.952927	-0.462634	-0.346737
H63	H	-3.755828	-0.535179	-0.298873
F64	F	-3.708547	-0.082857	-1.005201
F65	F	-3.641372	-0.083495	-0.853761
H66	H	-3.819095	-0.413904	-0.097145
H67	H	-3.760313	-0.281505	-0.097708
F68	F	-4.171624	-0.655213	-0.115795
H69	H	-4.018989	-0.864100	-0.095223
F70	F	-4.192150	-0.099795	-0.421266
F71	F	-3.886067	-0.311980	-0.347386
H72	H	-4.349290	-0.097036	-0.876862
