data_functionalizedCrystal
_audit_creation_method	'MofGen! by Chris Wilmer'
_symmetry_space_group_name_H-M	'P1'
_symmetry_Int_Tables_number	1
_symmetry_cell_setting	triclinic
loop_
_symmetry_equiv_pos_as_xyz
  x,y,z
_cell_length_a	11.026607
_cell_length_b	11.026607
_cell_length_c	10.065875
_cell_angle_alpha	79.268236
_cell_angle_beta	100.697662
_cell_angle_gamma	108.586017
loop_
_atom_site_label
_atom_site_type_symbol
_atom_site_fract_x
_atom_site_fract_y
_atom_site_fract_z
O1	O	-1.741286	-0.518966	-0.113490
O2	O	-1.374706	-0.458202	-0.113493
O3	O	-1.527614	-0.305294	-0.113487
O4	O	-1.588379	-0.671873	-0.113496
O5	O	-1.498489	-0.334601	0.113501
O6	O	-1.345582	-0.487509	0.113495
O7	O	-1.712161	-0.548273	0.113497
Zn8	Zn	-1.524247	-0.522544	0.149535
Zn9	Zn	-1.562620	-0.483931	-0.149531
O10	O	-1.559254	-0.701180	0.113491
C11	C	-1.312485	-0.461645	0.000001
C12	C	-1.170471	-0.428228	0.000000
C13	C	-1.501842	-0.272288	0.000005
C14	C	-1.468426	-0.130273	0.000000
C15	C	-1.774384	-0.544829	0.000001
C16	C	-1.916399	-0.578244	-0.000007
N17	N	-1.498068	-0.548898	0.353640
C18	C	-1.116822	-0.520498	-0.000003
C19	C	-0.970043	-0.485962	-0.000004
C20	C	-1.585026	-0.734186	-0.000004
C21	C	-1.618444	-0.876199	-0.000008
C22	C	-1.560695	-0.076624	-0.000001
C23	C	-1.526160	0.070155	-0.000006
N24	N	-1.588808	-0.457569	-0.353635
C25	C	-1.553502	-0.493090	0.421421
C26	C	-1.533366	-0.513385	0.578587
H27	H	-0.907318	-0.381388	-0.000036
N28	N	-1.756962	0.040730	0.000006
H29	H	-1.811642	0.070299	-0.084137
H30	H	-1.761892	-0.052324	0.000062
N31	N	-1.671427	-0.374375	0.569120
H32	H	-1.761938	-0.411800	0.593896
H33	H	-1.633490	-0.283937	0.593951
H34	H	-1.363864	-0.067539	-0.000009
N35	N	-1.199909	-0.659004	-0.000018
H36	H	-1.143942	-0.715835	-0.000022
H37	H	-1.244919	-0.687743	0.084129
H38	H	-1.470989	-0.576187	0.636906
N39	N	-1.387641	0.153224	-0.000011
H40	H	-1.380449	0.219900	-0.084157
H41	H	-1.358939	0.198093	0.084188
N42	N	-1.415443	-0.632081	0.430880
H43	H	-1.412767	-0.634785	0.532206
H44	H	-1.453324	-0.722495	0.405973
H45	H	-0.979125	-0.682816	-0.000001
N46	N	-1.699204	-0.159707	0.000016
H47	H	-1.704240	-0.252786	0.000026
H48	H	-1.732190	-0.151745	0.084171
N49	N	-1.636083	-0.409873	0.344156
H50	H	-1.710817	-0.463156	0.284841
H51	H	-1.670220	-0.375415	0.411051
N52	N	-1.087387	-0.289721	0.000020
H53	H	-0.994309	-0.284684	0.000023
H54	H	-1.116993	-0.235049	-0.084124
