data_functionalizedCrystal
_audit_creation_method	'MofGen! by Chris Wilmer'
_symmetry_space_group_name_H-M	'P1'
_symmetry_Int_Tables_number	1
_symmetry_cell_setting	triclinic
loop_
_symmetry_equiv_pos_as_xyz
  x,y,z
_cell_length_a	13.635800
_cell_length_b	19.480096
_cell_length_c	17.078481
_cell_angle_alpha	87.321648
_cell_angle_beta	80.693839
_cell_angle_gamma	120.097258
loop_
_atom_site_label
_atom_site_type_symbol
_atom_site_fract_x
_atom_site_fract_y
_atom_site_fract_z
V1	V	2.035737	0.109582	-0.247281
V2	V	2.535737	0.609582	0.252719
O3	O	1.981736	-0.005456	-0.242657
O4	O	2.481736	0.494544	0.257343
O5	O	2.056864	0.217466	-0.245510
O6	O	2.556864	0.717466	0.254490
O7	O	2.000518	0.107813	-0.355165
O8	O	2.500518	0.607813	0.144835
O9	O	2.038472	0.104956	-0.132242
O10	O	2.538472	0.604956	0.367758
V11	V	2.273105	0.095832	-0.233531
V12	V	2.773105	0.595832	0.266469
O13	O	2.176003	0.139744	-0.277442
O14	O	2.676003	0.639744	0.222558
O15	O	2.357938	0.065670	-0.203370
O16	O	2.857938	0.565670	0.296630
O17	O	2.140374	-0.012052	-0.235302
O18	O	2.640374	0.487948	0.264698
O19	O	2.385804	0.210870	-0.238155
O20	O	2.885804	0.710870	0.261845
O21	O	2.329068	0.100458	-0.348570
O22	O	2.829068	0.600458	0.151430
O23	O	2.196720	0.097601	-0.125647
O24	O	2.696720	0.597601	0.374353
V25	V	2.535737	0.109582	-0.247281
V26	V	3.035737	0.609582	0.252719
O27	O	2.481736	-0.005456	-0.242657
O28	O	2.981736	0.494544	0.257343
O29	O	2.556864	0.217466	-0.245510
O30	O	3.056864	0.717466	0.254490
O31	O	2.500518	0.107813	-0.355165
O32	O	3.000518	0.607813	0.144835
O33	O	2.538472	0.104956	-0.132242
O34	O	3.038472	0.604956	0.367758
V35	V	2.773105	0.095832	-0.233531
V36	V	3.273105	0.595832	0.266469
O37	O	2.676003	0.139744	-0.277442
O38	O	3.176003	0.639744	0.222558
O39	O	2.857938	0.065670	-0.203370
O40	O	3.357938	0.565670	0.296630
O41	O	2.640374	-0.012052	-0.235302
O42	O	3.140374	0.487948	0.264698
O43	O	2.885804	0.210870	-0.238155
O44	O	3.385804	0.710870	0.261845
O45	O	2.829068	0.100458	-0.348570
O46	O	3.329068	0.600458	0.151430
O47	O	2.696720	0.097601	-0.125647
O48	O	3.196720	0.597601	0.374353
C49	C	1.990748	0.243768	-0.241588
C50	C	2.490748	0.743768	0.258412
C51	C	2.048592	0.331964	-0.240859
C52	C	2.548592	0.831964	0.259141
C53	C	1.918872	0.103894	-0.381464
C54	C	2.418872	0.603894	0.118536
C55	C	1.931019	0.103161	-0.469659
C56	C	2.431019	0.603161	0.030341
C57	C	2.168137	0.377437	-0.244471
C58	C	2.668137	0.877437	0.255529
C59	C	2.222482	0.460307	-0.243791
C60	C	2.722482	0.960307	0.256209
C61	C	2.157281	0.497702	-0.239493
C62	C	2.657281	0.997702	0.260507
C63	C	2.037726	0.452224	-0.235883
C64	C	2.537726	0.952224	0.264117
C65	C	1.983384	0.369356	-0.236569
C66	C	2.483384	0.869356	0.263431
C67	C	2.309903	0.745107	-0.237022
C68	C	2.809903	1.245107	0.262978
C69	C	2.364255	0.827980	-0.236334
C70	C	2.864255	1.327980	0.263666
C71	C	2.549009	0.836058	-0.244243
C72	C	3.049009	1.336058	0.255757
C73	C	2.494655	0.753188	-0.244924
C74	C	2.994655	1.253188	0.255076
C75	C	2.375107	0.707718	-0.241319
C76	C	2.875107	1.207718	0.258681
N77	N	2.212828	0.582408	-0.238795
N78	N	2.712828	1.082408	0.261205
N79	N	2.319563	0.623014	-0.242022
N80	N	2.819563	1.123014	0.257978
C81	C	2.038163	-0.038350	-0.239222
C82	C	2.538163	0.461650	0.260778
C83	C	1.969938	-0.126545	-0.239956
C84	C	2.469938	0.373455	0.260044
C85	C	2.541646	0.961649	-0.239219
C86	C	3.041646	1.461649	0.260781
C87	C	2.483800	0.873453	-0.239946
C88	C	2.983800	1.373453	0.260054
C89	C	2.022885	-0.172005	-0.236339
C90	C	2.522885	0.327995	0.263661
C91	C	1.958789	-0.254876	-0.237016
C92	C	2.458789	0.245124	0.262984
C93	C	1.841748	-0.292286	-0.241315
C94	C	2.341748	0.207714	0.258685
C95	C	1.788798	-0.246820	-0.244929
C96	C	2.288798	0.253180	0.255071
C97	C	1.852892	-0.163951	-0.244247
C98	C	2.352892	0.336049	0.255753
C99	C	2.029056	0.106777	-0.515132
C100	C	2.529056	0.606777	-0.015132
C101	C	2.040463	0.106088	-0.598001
C102	C	2.540463	0.606088	-0.098001
C103	C	1.953835	0.101789	-0.635396
C104	C	2.453835	0.601789	-0.135396
C105	C	1.855789	0.098170	-0.589916
C106	C	2.355789	0.598170	-0.089916
C107	C	1.844380	0.098853	-0.507048
C108	C	2.344380	0.598853	-0.007048
C109	C	1.978054	0.099316	-0.882801
C110	C	2.478054	0.599316	-0.382801
C111	C	1.989473	0.098635	-0.965675
C112	C	2.489473	0.598635	-0.465675
C113	C	2.174145	0.106552	-0.973754
C114	C	2.674145	0.606552	-0.473754
C115	C	2.162730	0.107240	-0.890885
C116	C	2.662730	0.607240	-0.390885
C117	C	2.064683	0.103617	-0.845412
C118	C	2.564683	0.603617	-0.345412
N119	N	1.965495	0.101087	-0.720101
N120	N	2.465495	0.601087	-0.220101
N121	N	2.053021	0.104313	-0.760707
N122	N	2.553021	0.604313	-0.260707
C123	C	2.110039	0.101523	-0.099344
C124	C	2.610039	0.601523	0.400656
C125	C	2.087510	0.102251	-0.011148
C126	C	2.587510	0.602251	0.488852
C127	C	2.490748	0.243768	-0.241588
C128	C	2.990748	0.743768	0.258412
C129	C	2.548592	0.331964	-0.240859
C130	C	3.048592	0.831964	0.259141
C131	C	2.418872	0.103894	-0.381464
C132	C	2.918872	0.603894	0.118536
C133	C	2.431019	0.103161	-0.469659
C134	C	2.931019	0.603161	0.030341
C135	C	2.610039	0.101523	-0.099344
C136	C	3.110039	0.601523	0.400656
C137	C	2.587510	0.102251	-0.011148
C138	C	3.087510	0.602251	0.488852
C139	C	2.668139	0.377424	-0.244478
C140	C	3.168139	0.877424	0.255522
C141	C	2.722507	0.460296	-0.243805
C142	C	3.222507	0.960296	0.256195
C143	C	2.657325	0.497706	-0.239508
C144	C	3.157325	0.997706	0.260492
C145	C	2.537768	0.452240	-0.235892
C146	C	3.037768	0.952240	0.264108
C147	C	2.483403	0.369370	-0.236570
C148	C	2.983403	0.869370	0.263430
C149	C	2.529058	0.106770	-0.515117
C150	C	3.029058	0.606770	-0.015117
C151	C	2.540478	0.106071	-0.597985
C152	C	3.040478	0.606071	-0.097985
C153	C	2.453862	0.101769	-0.635394
C154	C	2.953862	0.601769	-0.135394
C155	C	2.355813	0.098158	-0.589929
C156	C	2.855813	0.598158	-0.089929
C157	C	2.344390	0.098851	-0.507062
C158	C	2.844390	0.598851	-0.007062
C159	C	2.491890	0.106544	0.026240
C160	C	2.991890	0.606544	0.526240
C161	C	2.470700	0.107219	0.109111
C162	C	2.970700	0.607219	0.609111
C163	C	2.545136	0.103607	0.154591
C164	C	3.045136	0.603607	0.654591
C165	C	2.640762	0.099312	0.117197
C166	C	3.140762	0.599312	0.617197
C167	C	2.661945	0.098631	0.034329
C168	C	3.161945	0.598631	0.534329
H169	H	2.221237	0.346995	-0.247963
H170	H	2.721237	0.846995	0.252037
H171	H	2.739814	0.095141	0.003894
H172	H	3.239814	0.595141	0.503894
H173	H	1.789571	-0.359763	-0.241870
H174	H	2.289571	0.140237	0.258130
Cl175	Cl	1.880561	0.093230	-1.012685
Cl176	Cl	2.380561	0.593230	-0.512685
Cl177	Cl	2.872804	0.517436	-0.248347
Cl178	Cl	3.372804	1.017436	0.251653
Cl179	Cl	2.637963	0.112176	-0.468107
Cl180	Cl	3.137963	0.612176	0.031893
H181	H	2.001923	-0.291883	-0.234074
H182	H	2.501923	0.208117	0.265926
H183	H	2.547758	0.722748	-0.248430
H184	H	3.047758	1.222748	0.251570
H185	H	2.484708	0.482711	-0.232393
H186	H	2.984708	0.982711	0.267607
H187	H	2.701607	0.565184	-0.238956
H188	H	3.201607	1.065184	0.261044
Cl189	Cl	2.246941	0.092762	-0.636971
Cl190	Cl	2.746941	0.592762	-0.136971
H191	H	1.809768	-0.126943	-0.247199
H192	H	2.309768	0.373057	0.252801
H193	H	2.620324	0.109015	-0.634992
H194	H	3.120324	0.609015	-0.134992
Cl195	Cl	2.734336	0.094782	0.174382
Cl196	Cl	3.234336	0.594782	0.674382
Cl197	Cl	2.333108	0.312229	-0.232013
Cl198	Cl	2.833108	0.812229	0.267987
Cl199	Cl	2.350487	0.112626	0.156101
Cl200	Cl	2.850487	0.612626	0.656101
H201	H	1.898239	0.096394	-0.845791
H202	H	2.398239	0.596394	-0.345791
Cl203	Cl	2.137970	0.112188	-0.468131
Cl204	Cl	2.637970	0.612188	0.031869
Cl205	Cl	1.833096	0.312191	-0.232033
Cl206	Cl	2.333096	0.812191	0.267967
H207	H	2.319822	0.497327	-0.246733
H208	H	2.819822	0.997327	0.253267
Cl209	Cl	2.170021	-0.124995	-0.230934
Cl210	Cl	2.670021	0.375005	0.269066
H211	H	2.463178	0.101206	-0.702871
H212	H	2.963178	0.601206	-0.202871
H213	H	1.785254	0.094665	-0.620369
H214	H	2.285254	0.594665	-0.120369
Cl215	Cl	2.282281	0.874992	-0.230943
Cl216	Cl	2.782281	1.374992	0.269057
Cl217	Cl	2.699294	0.893225	-0.248777
Cl218	Cl	3.199294	1.393225	0.251223
H219	H	2.212566	0.708094	-0.234082
H220	H	2.712566	1.208094	0.265918
H221	H	2.264555	0.095914	-0.470056
H222	H	2.764555	0.595914	0.029944
H223	H	2.431268	0.109485	-0.010779
H224	H	2.931268	0.609485	0.489221
H225	H	1.693496	-0.277292	-0.248429
H226	H	2.193496	0.222708	0.251571
H227	H	1.984643	0.482678	-0.232389
H228	H	2.484643	0.982678	0.267611
H229	H	2.120290	0.109028	-0.635021
H230	H	2.620290	0.609028	-0.135021
H231	H	2.527881	0.104172	0.222065
H232	H	3.027881	0.604172	0.722065
Cl233	Cl	2.271641	0.112648	-0.843881
Cl234	Cl	2.771641	0.612648	-0.343881
H235	H	2.253971	0.109501	-1.010787
H236	H	2.753971	0.609501	-0.510787
Cl237	Cl	2.750111	0.330415	-0.249888
Cl238	Cl	3.250111	0.830415	0.250112
Cl239	Cl	1.721124	0.094300	-0.449880
Cl240	Cl	2.221124	0.594300	0.050120
