data_functionalizedCrystal
_audit_creation_method	'MofGen! by Chris Wilmer'
_symmetry_space_group_name_H-M	'P1'
_symmetry_Int_Tables_number	1
_symmetry_cell_setting	triclinic
loop_
_symmetry_equiv_pos_as_xyz
  x,y,z
_cell_length_a	10.654562
_cell_length_b	14.044190
_cell_length_c	9.130313
_cell_angle_alpha	89.993628
_cell_angle_beta	89.996930
_cell_angle_gamma	88.840940
loop_
_atom_site_label
_atom_site_type_symbol
_atom_site_fract_x
_atom_site_fract_y
_atom_site_fract_z
O1	O	1.681223	0.133285	-0.121915
O2	O	2.181223	0.633285	0.378085
O3	O	1.317021	0.145966	-0.121899
O4	O	1.817021	0.645966	0.378101
O5	O	1.493651	0.001605	-0.121878
O6	O	1.993651	0.501605	0.378122
O7	O	1.504593	0.277647	-0.121936
O8	O	2.004593	0.777647	0.378064
O9	O	1.493649	0.001609	0.121721
O10	O	1.993649	0.501609	0.621721
O11	O	1.317019	0.145970	0.121700
O12	O	1.817019	0.645970	0.621700
O13	O	1.681221	0.133289	0.121684
O14	O	2.181221	0.633289	0.621684
Cu15	Cu	1.499120	0.139630	0.143935
Cu16	Cu	1.999120	0.639630	0.643935
Cu17	Cu	1.499122	0.139626	-0.144149
Cu18	Cu	1.999122	0.639626	0.355851
O19	O	1.504591	0.277651	0.121663
O20	O	2.004591	0.777651	0.621663
C21	C	1.270129	0.145035	-0.000097
C22	C	1.770129	0.645035	0.499903
C23	C	1.130405	0.142241	-0.000089
C24	C	1.630405	0.642241	0.499911
C25	C	1.064743	0.140941	0.132685
C26	C	1.564743	0.640941	0.632685
C27	C	0.933457	0.138324	0.132662
C28	C	1.433457	0.638324	0.632662
C29	C	0.933509	0.138312	-0.132923
C30	C	1.433509	0.638312	0.367077
C31	C	1.064792	0.140922	-0.132898
C32	C	1.564792	0.640922	0.367102
C33	C	1.064712	0.140951	0.286019
C34	C	1.564712	0.640951	0.786019
C35	C	0.933426	0.138334	0.285995
C36	C	1.433426	0.638334	0.785995
C37	C	1.488863	-0.033739	-0.000074
C38	C	1.988863	0.466261	0.499926
C39	C	1.474584	-0.139060	-0.000060
C40	C	1.974584	0.360940	0.499940
C41	C	1.549749	-0.388849	-0.000121
C42	C	2.049749	0.111151	0.499879
C43	C	1.448499	-0.331889	-0.000106
C44	C	1.948499	0.168111	0.499894
C45	C	1.463016	-0.224589	-0.000081
C46	C	1.963016	0.275411	0.499919
C47	C	1.535234	-0.496160	-0.000147
C48	C	2.035234	0.003840	0.499853
C49	C	1.728114	0.134221	-0.000121
C50	C	2.228114	0.634221	0.499879
C51	C	1.867837	0.137014	-0.000138
C52	C	2.367837	0.637014	0.499862
C53	C	1.509379	0.312995	-0.000144
C54	C	2.009379	0.812995	0.499856
C55	C	1.523659	0.418315	-0.000167
C56	C	2.023659	0.918315	0.499833
N57	N	1.499127	0.139633	0.346557
N58	N	1.999127	0.639633	0.846557
N59	N	1.499124	0.139615	-0.346772
N60	N	1.999124	0.639615	0.153228
C61	C	1.577363	0.075732	0.423218
C62	C	2.077363	0.575732	0.923218
C63	C	1.577359	0.075720	0.576555
C64	C	2.077359	0.575720	1.076555
C65	C	1.420879	0.203520	0.576556
C66	C	1.920879	0.703520	1.076556
C67	C	1.420878	0.203526	0.423222
C68	C	1.920878	0.703526	0.923222
C69	C	1.667709	0.001950	0.423219
C70	C	2.167709	0.501950	0.923219
C71	C	1.667705	0.001939	0.576556
C72	C	2.167705	0.501939	1.076556
H73	H	0.880071	0.137239	-0.241051
H74	H	1.380071	0.637239	0.258949
H75	H	1.357170	0.255539	0.638993
H76	H	1.857170	0.755539	1.138993
H77	H	1.118251	0.141967	-0.241016
H78	H	1.618251	0.641967	0.258984
H79	H	1.104381	0.075397	0.344916
H80	H	1.604381	0.575397	0.844916
H81	H	1.101240	0.210133	0.333581
H82	H	1.601240	0.710133	0.833581
Cl83	Cl	0.876990	0.031624	0.359790
Cl84	Cl	1.376990	0.531624	0.859790
Cl85	Cl	1.297833	-0.381013	-0.000101
Cl86	Cl	1.797833	0.118987	0.499899
H87	H	1.357161	0.255551	0.360806
H88	H	1.857161	0.755551	0.860806
Cl89	Cl	0.872128	0.239546	0.376852
Cl90	Cl	1.372128	0.739546	0.876852
Cl91	Cl	1.700405	-0.339724	-0.000105
Cl92	Cl	2.200405	0.160276	0.499895
H93	H	1.638937	-0.070961	0.381616
H94	H	2.138937	0.429039	0.881616
Cl95	Cl	1.609893	-0.104431	0.650003
Cl96	Cl	2.109893	0.395569	1.150003
Cl97	Cl	1.819229	0.027028	0.640807
Cl98	Cl	2.319229	0.527028	1.140807
H99	H	1.761215	0.025056	0.375651
H100	H	2.261215	0.525056	0.875651
