data_functionalizedCrystal
_audit_creation_method	'MofGen! by Chris Wilmer'
_symmetry_space_group_name_H-M	'P1'
_symmetry_Int_Tables_number	1
_symmetry_cell_setting	triclinic
loop_
_symmetry_equiv_pos_as_xyz
  x,y,z
_cell_length_a	17.077404
_cell_length_b	12.759400
_cell_length_c	17.077396
_cell_angle_alpha	89.974414
_cell_angle_beta	89.980499
_cell_angle_gamma	90.014910
loop_
_atom_site_label
_atom_site_type_symbol
_atom_site_fract_x
_atom_site_fract_y
_atom_site_fract_z
Zn1	Zn	1.200099	-0.418260	-0.443859
Zn2	Zn	1.200025	-0.593961	-0.312599
Zn3	Zn	1.068831	-0.418297	-0.312606
Zn4	Zn	1.068818	-0.593898	-0.443823
O5	O	1.134443	-0.506104	-0.378222
O6	O	1.309936	-0.441578	-0.426459
O7	O	1.182597	-0.570700	-0.202753
O8	O	1.086281	-0.271271	-0.330035
O9	O	1.309882	-0.570664	-0.330023
O10	O	1.182723	-0.271244	-0.426466
O11	O	1.086209	-0.441641	-0.202759
O12	O	0.958983	-0.441580	-0.330001
O13	O	1.086258	-0.570558	-0.553674
O14	O	0.958973	-0.570594	-0.426405
O15	O	1.182710	-0.441517	-0.553701
O16	O	1.182584	-0.740973	-0.329988
O17	O	1.086186	-0.740927	-0.426398
C18	C	0.930496	-0.506085	-0.378200
C19	C	0.843246	-0.506102	-0.378209
C20	C	0.802271	-0.573381	-0.428326
C21	C	0.720291	-0.573383	-0.428339
C22	C	0.679286	-0.506111	-0.378230
C23	C	0.720267	-0.438825	-0.328111
C24	C	0.802246	-0.438818	-0.328103
C25	C	0.549397	-0.438846	-0.328130
C26	C	0.467412	-0.438854	-0.328136
C27	C	0.467442	-0.573410	-0.428366
C28	C	0.549421	-0.573404	-0.428358
C29	C	0.590395	-0.506119	-0.378237
C30	C	1.134397	-0.779071	-0.378205
C31	C	1.134449	-0.895848	-0.378225
C32	C	1.184699	-0.950699	-0.328080
C33	C	1.184747	-1.060423	-0.328104
C34	C	1.084289	-1.060435	-0.428420
C35	C	1.084245	-0.950713	-0.428399
C36	C	1.234902	-0.895833	-0.277905
C37	C	1.285156	-0.950685	-0.227755
C38	C	1.285204	-1.060409	-0.227780
C39	C	1.234999	-1.115282	-0.277954
C40	C	1.339188	-0.506124	-0.378244
C41	C	1.426437	-0.506132	-0.378253
C42	C	1.134491	-0.506026	-0.582966
C43	C	1.134511	-0.505993	-0.670216
C44	C	1.134512	-0.232071	-0.378255
C45	C	1.134541	-0.115294	-0.378270
C46	C	1.184735	-0.438796	-0.711221
C47	C	1.184745	-0.438761	-0.793202
C48	C	1.134533	-0.505930	-0.834175
C49	C	1.084304	-0.573130	-0.793165
C50	C	1.084291	-0.573159	-0.711186
C51	C	1.084335	-0.573066	-0.964035
C52	C	1.084349	-0.573039	-1.046019
C53	C	1.184789	-0.438669	-1.046051
C54	C	1.184777	-0.438698	-0.964072
C55	C	1.134547	-0.505900	-0.923066
C56	C	1.134441	-0.506105	-0.174274
C57	C	1.134573	-0.505842	-0.087025
H58	H	1.234867	-0.806491	-0.277878
H59	H	1.043421	-0.627773	-0.930651
H60	H	0.434076	-0.628193	-0.469178
C61	C	0.375141	-0.424026	-0.222604
C62	C	0.422323	-0.364881	-0.273089
H63	H	0.347305	-0.378350	-0.188626
H64	H	0.339023	-0.464112	-0.252452
H65	H	0.407101	-0.469716	-0.192485
H66	H	0.390362	-0.319197	-0.303212
H67	H	0.458445	-0.324777	-0.243237
C68	C	1.384461	-0.961694	-0.128602
C69	C	1.340341	-0.890374	-0.172608
H70	H	1.418533	-0.924460	-0.094560
H71	H	1.350295	-1.004556	-0.098558
H72	H	1.414486	-1.004423	-0.162848
H73	H	1.310312	-0.847650	-0.138362
H74	H	1.374511	-0.847494	-0.202655
H75	H	1.043385	-0.627867	-0.677800
C76	C	1.390908	-1.183602	-0.217059
C77	C	1.340497	-1.120663	-0.172690
H78	H	1.425061	-1.220782	-0.183053
H79	H	1.361018	-1.232011	-0.246906
H80	H	1.420844	-1.140694	-0.251301
H81	H	1.310557	-1.163573	-0.138452
H82	H	1.370390	-1.072249	-0.142829
C83	C	1.039746	-1.228640	-0.472986
C84	C	1.029099	-1.120750	-0.483561
H85	H	1.005668	-1.265872	-0.507025
H86	H	1.092482	-1.246549	-0.484529
H87	H	1.028296	-1.246669	-0.420234
H88	H	1.040555	-1.102720	-0.536313
H89	H	0.976351	-1.102833	-0.472024
H90	H	1.235048	-1.204626	-0.277975
C91	C	0.984954	-0.961738	-0.527563
C92	C	1.029014	-0.890413	-0.483523
H93	H	0.950857	-0.924508	-0.561595
H94	H	1.019156	-1.004472	-0.557621
H95	H	0.954957	-1.004594	-0.493339
H96	H	1.059015	-0.847561	-0.517747
H97	H	0.994808	-0.847661	-0.453463
H98	H	1.043418	-0.627815	-0.826532
H99	H	1.225626	-0.384103	-0.677866
H100	H	0.835651	-0.628165	-0.469129
H101	H	1.225644	-0.384045	-0.826584
H102	H	1.225668	-0.384010	-0.930713
C103	C	1.229390	-0.378923	-1.171729
C104	C	1.239989	-0.364781	-1.091120
H105	H	1.263463	-0.333303	-1.199553
H106	H	1.240871	-0.449497	-1.185160
H107	H	1.176649	-0.363543	-1.185141
H108	H	1.292729	-0.380169	-1.077707
H109	H	1.228514	-0.294191	-1.077684
H110	H	1.043460	-0.627731	-1.079378
H111	H	0.686933	-0.628169	-0.469149
H112	H	0.582804	-0.628188	-0.469157
H113	H	0.686875	-0.384046	-0.287314
C114	C	0.541137	-0.305860	-0.229039
C115	C	0.594438	-0.364897	-0.273028
H116	H	0.568946	-0.260220	-0.195016
H117	H	0.509190	-0.265724	-0.263291
H118	H	0.509136	-0.351603	-0.198967
H119	H	0.626435	-0.319155	-0.303104
H120	H	0.626399	-0.405036	-0.238771
H121	H	0.835606	-0.384027	-0.287296
