data_functionalizedCrystal
_audit_creation_method	'MofGen! by Chris Wilmer'
_symmetry_space_group_name_H-M	'P1'
_symmetry_Int_Tables_number	1
_symmetry_cell_setting	triclinic
loop_
_symmetry_equiv_pos_as_xyz
  x,y,z
_cell_length_a	12.759394
_cell_length_b	12.827893
_cell_length_c	12.827885
_cell_angle_alpha	89.980538
_cell_angle_beta	89.968776
_cell_angle_gamma	90.014998
loop_
_atom_site_label
_atom_site_type_symbol
_atom_site_fract_x
_atom_site_fract_y
_atom_site_fract_z
Zn1	Zn	-0.418211	1.597676	-0.590838
Zn2	Zn	-0.593927	1.597571	-0.416094
Zn3	Zn	-0.418263	1.422916	-0.416112
Zn4	Zn	-0.593849	1.422904	-0.590794
O5	O	-0.506062	1.510267	-0.503460
O6	O	-0.441531	1.743898	-0.567669
O7	O	-0.570679	1.574364	-0.269860
O8	O	-0.271235	1.446148	-0.439316
O9	O	-0.570629	1.743821	-0.439285
O10	O	-0.271197	1.574542	-0.567686
O11	O	-0.441619	1.446046	-0.269873
O12	O	-0.441544	1.276679	-0.439273
O13	O	-0.570496	1.446126	-0.737036
O14	O	-0.570546	1.276670	-0.567611
O15	O	-0.441456	1.574530	-0.737069
O16	O	-0.740938	1.574352	-0.439243
O17	O	-0.740881	1.446025	-0.567594
C18	C	-0.506043	1.238757	-0.503440
C19	C	-0.506060	1.122604	-0.503456
C20	C	-0.442292	1.070857	-0.567083
C21	C	-0.442308	0.950807	-0.567102
C22	C	-0.779030	1.510204	-0.503434
C23	C	-0.895807	1.510273	-0.503458
C24	C	-0.895813	1.644000	-0.369906
C25	C	-0.950676	1.710891	-0.303143
C26	C	-1.060398	1.710952	-0.303171
C27	C	-1.115258	1.644117	-0.369973
C28	C	-1.060395	1.577227	-0.436736
C29	C	-0.950670	1.577170	-0.436698
C30	C	-1.060389	1.443506	-0.570292
C31	C	-0.950667	1.443438	-0.570260
C32	C	-1.115249	1.376672	-0.637094
C33	C	-1.060385	1.309774	-0.703854
C34	C	-0.950657	1.309715	-0.703822
C35	C	-0.895803	1.376547	-0.637024
C36	C	-0.232029	1.510358	-0.503508
C37	C	-0.115252	1.510397	-0.503528
C38	C	-0.505962	1.510339	-0.776030
C39	C	-0.505919	1.510369	-0.892183
C40	C	-0.506083	1.782837	-0.503480
C41	C	-0.506091	1.898990	-0.503489
C42	C	-0.442043	1.446894	-0.943974
C43	C	-0.441997	1.446924	-1.064025
C44	C	-0.506087	1.510255	-0.231950
C45	C	-0.505834	1.510427	-0.115797
H46	H	-0.560694	0.943484	-0.449018
C47	C	-0.579752	1.583820	-0.952333
H48	H	-0.619837	1.623636	-0.904272
H49	H	-0.539510	1.629335	-0.994924
H50	H	-0.625477	1.543796	-0.994899
H51	H	-1.204599	1.644182	-0.369999
C52	C	-0.368522	1.131063	-0.640658
H53	H	-0.378194	1.203852	-0.630999
H54	H	-0.297899	1.113228	-0.625509
H55	H	-0.383977	1.113260	-0.710868
C56	C	-0.368221	1.373432	-0.883824
H57	H	-0.328149	1.333604	-0.931885
H58	H	-0.322500	1.413437	-0.841247
H59	H	-0.408482	1.327913	-0.841245
C60	C	-0.368552	0.890698	-0.640693
H61	H	-0.378234	0.817896	-0.631046
H62	H	-0.383989	0.908567	-0.710894
H63	H	-0.297921	0.908534	-0.625525
H64	H	-0.387307	1.392585	-1.108564
H65	H	-0.560664	1.078029	-0.448994
H66	H	-0.806472	1.643943	-0.369863
C67	C	-0.890334	1.784404	-0.229664
H68	H	-0.938725	1.824255	-0.189913
H69	H	-0.847601	1.744428	-0.184088
H70	H	-0.847463	1.829901	-0.269668
H71	H	-0.905992	1.255248	-0.758193
C72	C	-1.120750	1.784527	-0.229731
H73	H	-1.072368	1.824318	-0.189938
H74	H	-1.163487	1.830061	-0.269753
H75	H	-1.163619	1.744583	-0.184178
C76	C	-1.235939	1.376736	-0.637124
H77	H	-1.260759	1.426137	-0.587788
H78	H	-1.260695	1.394789	-0.704580
H79	H	-1.260823	1.309314	-0.619001
H80	H	-0.806462	1.376499	-0.636984
C81	C	-1.120731	1.236266	-0.777324
H82	H	-1.193934	1.245883	-0.767779
H83	H	-1.102675	1.251511	-0.847545
H84	H	-1.102826	1.166045	-0.761959
H85	H	-0.560519	1.564777	-1.071265
