data_functionalizedCrystal
_audit_creation_method	'MofGen! by Chris Wilmer'
_symmetry_space_group_name_H-M	'P1'
_symmetry_Int_Tables_number	1
_symmetry_cell_setting	triclinic
loop_
_symmetry_equiv_pos_as_xyz
  x,y,z
_cell_length_a	10.489716
_cell_length_b	15.944551
_cell_length_c	9.565339
_cell_angle_alpha	90.001754
_cell_angle_beta	89.996907
_cell_angle_gamma	84.013937
loop_
_atom_site_label
_atom_site_type_symbol
_atom_site_fract_x
_atom_site_fract_y
_atom_site_fract_z
O1	O	1.692418	0.118405	0.116252
O2	O	1.321063	0.129550	0.116258
O3	O	1.516881	0.001763	0.116242
O4	O	1.496600	0.246192	0.116268
O5	O	1.516890	0.001767	-0.116278
O6	O	1.321072	0.129554	-0.116262
O7	O	1.692426	0.118408	-0.116268
Zn8	Zn	1.506750	0.123982	-0.153183
Zn9	Zn	1.506739	0.123977	0.153172
O10	O	1.496608	0.246195	-0.116252
C11	C	1.273547	0.128714	-0.000002
C12	C	1.131951	0.126209	-0.000000
C13	C	1.033191	0.204572	0.000011
C14	C	0.956423	0.163165	-0.114644
C15	C	0.956421	0.163143	0.114603
C16	C	1.057048	0.084835	-0.114750
C17	C	1.057052	0.084824	0.114600
C18	C	0.980334	0.043360	-0.000084
C19	C	1.516044	-0.029534	-0.000018
C20	C	1.513519	-0.122795	-0.000019
C21	C	1.386109	-0.338411	0.000002
C22	C	1.445278	-0.399074	-0.114645
C23	C	1.508953	-0.293548	-0.000008
C24	C	1.445299	-0.399061	0.114601
C25	C	1.504533	-0.458487	0.000008
C26	C	1.568156	-0.352983	-0.114750
C27	C	1.568159	-0.352964	0.114599
C28	C	1.627418	-0.413609	-0.000076
C29	C	1.511496	-0.198531	-0.000019
C30	C	1.501999	-0.553504	0.000009
C31	C	1.739942	0.119244	-0.000005
C32	C	1.881539	0.121749	0.000002
C33	C	1.497446	0.277493	0.000011
C34	C	1.499970	0.370754	0.000021
N35	N	1.506767	0.123985	-0.362262
C36	C	1.597355	0.064891	-0.453435
C37	C	1.482094	0.047886	-0.546606
C38	C	1.621983	0.140935	-0.546647
C39	C	1.391448	0.106941	-0.453381
C40	C	1.531413	0.200024	-0.453414
C41	C	1.416068	0.183050	-0.546543
N42	N	1.506732	0.123967	0.362252
H43	H	1.100826	0.051775	-0.211777
H44	H	1.101002	0.051768	0.211528
H45	H	1.339362	0.233019	-0.587166
H46	H	1.393324	-0.419490	-0.211569
H47	H	1.673890	0.014892	-0.412552
H48	H	1.729474	-0.446160	-0.000142
H49	H	1.293975	0.092524	-0.412586
H50	H	0.956849	-0.024854	-0.000157
H51	H	1.620069	-0.332526	0.211528
H52	H	1.620074	-0.332682	-0.211782
H53	H	1.393321	-0.419449	0.211534
H54	H	0.912485	0.196247	-0.211567
H55	H	0.912475	0.196238	0.211521
H56	H	1.461224	-0.016426	-0.587541
H57	H	1.284142	-0.305710	-0.000111
H58	H	1.552319	0.264316	-0.412449
H59	H	1.056915	0.272736	-0.000089
H60	H	1.719434	0.155280	-0.587615
