data_functionalizedCrystal
_audit_creation_method	'MofGen! by Chris Wilmer'
_symmetry_space_group_name_H-M	'P1'
_symmetry_Int_Tables_number	1
_symmetry_cell_setting	triclinic
loop_
_symmetry_equiv_pos_as_xyz
  x,y,z
_cell_length_a	10.654556
_cell_length_b	16.992695
_cell_length_c	9.730223
_cell_angle_alpha	89.995280
_cell_angle_beta	89.998368
_cell_angle_gamma	87.577880
loop_
_atom_site_label
_atom_site_type_symbol
_atom_site_fract_x
_atom_site_fract_y
_atom_site_fract_z
O1	O	1.677359	0.110214	-0.114239
O2	O	1.312788	0.120707	-0.114254
O3	O	1.493612	0.001310	-0.114236
O4	O	1.496535	0.229611	-0.114257
O5	O	1.493599	0.001306	0.114344
O6	O	1.312775	0.120703	0.114326
O7	O	1.677346	0.110210	0.114341
Zn8	Zn	1.495059	0.115456	0.150625
Zn9	Zn	1.495075	0.115461	-0.150539
O10	O	1.496522	0.229608	0.114323
C11	C	1.265917	0.119934	0.000035
C12	C	1.126275	0.117625	0.000029
C13	C	0.929455	0.114377	-0.124559
C14	C	1.060665	0.116541	-0.124567
C15	C	1.060670	0.116537	0.124643
C16	C	0.929463	0.114368	0.124650
C17	C	1.489845	-0.027925	0.000054
C18	C	1.478626	-0.115030	0.000053
C19	C	1.586877	-0.164681	0.000059
C20	C	1.576327	-0.246525	0.000045
C21	C	1.457527	-0.278717	0.000036
C22	C	1.349268	-0.229060	0.000026
C23	C	1.359818	-0.147218	0.000030
C24	C	1.413800	-0.522553	0.000015
C25	C	1.403257	-0.604402	0.000016
C26	C	1.630318	-0.621861	0.000032
C27	C	1.640858	-0.540016	0.000044
C28	C	1.532599	-0.490367	0.000027
N29	N	1.446741	-0.362375	0.000027
N30	N	1.543386	-0.406710	0.000027
C31	C	1.724217	0.110984	0.000049
C32	C	1.863859	0.113292	0.000045
C33	C	1.500289	0.258842	0.000030
C34	C	1.511508	0.345948	0.000022
N35	N	1.495056	0.115453	0.356162
N36	N	1.495087	0.115458	-0.356075
C37	C	1.575156	0.062607	0.428096
C38	C	1.575169	0.062607	0.571979
C39	C	1.414978	0.168307	0.571981
C40	C	1.414960	0.168302	0.428101
H41	H	0.876053	0.113483	0.226124
O42	O	1.131428	0.117715	0.259034
H43	H	1.197055	0.065333	0.265003
O44	O	1.715013	-0.129960	0.000056
H45	H	1.788512	-0.178238	0.000040
O46	O	1.693082	-0.300079	0.000074
H47	H	1.777463	-0.263944	0.000106
O48	O	1.768993	-0.505293	0.000021
H49	H	1.842497	-0.553569	0.000002
H50	H	1.349727	0.211337	0.369528
O51	O	1.661526	0.005599	0.350497
H52	H	1.717215	-0.031154	0.424696
H53	H	1.271669	-0.106793	0.000025
H54	H	0.876045	0.113500	-0.226020
H55	H	1.718456	-0.662294	0.000044
O56	O	1.328606	0.225317	0.649570
H57	H	1.342085	0.216450	0.761705
O58	O	1.131424	0.117711	-0.258958
H59	H	1.100418	0.170677	-0.318706
O60	O	1.275117	-0.639129	-0.000010
H61	H	1.201609	-0.590855	-0.000036
O62	O	1.297041	-0.469007	0.000032
H63	H	1.212663	-0.505145	0.000050
H64	H	1.252537	-0.255278	0.000010
H65	H	1.640392	0.019574	0.630543
