data_functionalizedCrystal
_audit_creation_method	'MofGen! by Chris Wilmer'
_symmetry_space_group_name_H-M	'P1'
_symmetry_Int_Tables_number	1
_symmetry_cell_setting	triclinic
loop_
_symmetry_equiv_pos_as_xyz
  x,y,z
_cell_length_a	21.295417
_cell_length_b	18.215407
_cell_length_c	18.215399
_cell_angle_alpha	89.980167
_cell_angle_beta	90.032152
_cell_angle_gamma	89.969045
loop_
_atom_site_label
_atom_site_type_symbol
_atom_site_fract_x
_atom_site_fract_y
_atom_site_fract_z
Zn1	Zn	-0.250608	-1.125043	0.416094
Zn2	Zn	-0.355879	-1.124940	0.293019
Zn3	Zn	-0.250629	-1.001976	0.293042
Zn4	Zn	-0.355844	-1.001930	0.416044
O5	O	-0.303240	-1.063472	0.354550
O6	O	-0.264579	-1.228014	0.399780
O7	O	-0.341941	-1.108604	0.190038
O8	O	-0.162537	-1.018364	0.309396
O9	O	-0.341921	-1.227938	0.309357
O10	O	-0.162521	-1.108781	0.399802
O11	O	-0.264614	-1.018263	0.190054
O12	O	-0.264580	-0.898985	0.309347
O13	O	-0.341861	-1.018285	0.519035
O14	O	-0.341881	-0.898951	0.399716
O15	O	-0.264545	-1.108736	0.519072
O16	O	-0.443964	-1.108559	0.309308
O17	O	-0.443938	-1.018184	0.399694
C18	C	-0.303229	-0.872266	0.354529
C19	C	-0.303240	-0.790467	0.354537
C20	C	-0.466792	-1.063376	0.354509
C21	C	-0.536760	-1.063402	0.354516
C22	C	-0.303197	-1.063517	0.546503
C23	C	-0.303178	-1.063536	0.628302
C24	C	-0.569619	-1.110502	0.307500
C25	C	-0.635361	-1.110536	0.307517
C26	C	-0.668242	-1.063457	0.354542
C27	C	-0.635375	-1.016354	0.401566
C28	C	-0.569634	-1.016326	0.401554
N29	N	-0.771508	-0.999079	0.360145
N30	N	-0.833960	-0.999107	0.360153
C31	C	-0.866317	-1.063540	0.354584
N32	N	-0.833863	-1.127944	0.348993
N33	N	-0.771406	-1.127915	0.348981
C34	C	-0.739528	-1.063483	0.354561
C35	C	-0.970462	-1.110681	0.307584
C36	C	-1.036205	-1.110717	0.307605
C37	C	-1.036218	-1.016528	0.401651
C38	C	-0.970475	-1.016499	0.401633
C39	C	-0.937601	-1.063575	0.354595
C40	C	-0.139050	-1.063589	0.354607
C41	C	-0.069082	-1.063639	0.354631
C42	C	-0.303251	-1.255425	0.354571
C43	C	-0.303256	-1.337224	0.354581
C44	C	-0.343554	-0.602275	0.401533
C45	C	-0.343556	-0.525416	0.401542
C46	C	-0.262938	-0.525422	0.307582
C47	C	-0.262933	-0.602279	0.307577
C48	C	-0.303245	-0.640703	0.354552
C49	C	-0.303251	-0.486987	0.354566
C50	C	-0.303253	-0.403654	0.354575
C51	C	-0.303242	-0.724042	0.354543
C52	C	-0.303238	-1.063470	0.163344
C53	C	-0.303079	-1.063593	0.081545
C54	C	-0.262882	-1.110651	0.816516
C55	C	-0.262863	-1.110660	0.893375
C56	C	-0.343377	-1.016473	0.893325
C57	C	-0.343392	-1.016461	0.816468
C58	C	-0.303145	-1.063554	0.778065
C59	C	-0.303112	-1.063575	0.931781
C60	C	-0.303093	-1.063584	1.015115
C61	C	-0.303164	-1.063544	0.694726
H62	H	-0.542855	-1.148835	0.269202
H63	H	-0.230118	-0.494127	0.269336
C64	C	-0.934298	-1.162475	0.255853
N65	N	-0.907061	-1.201490	0.216891
H66	H	-0.943720	-0.978143	0.439914
H67	H	-0.662121	-1.148893	0.269231
H68	H	-0.230076	-1.149009	0.924678
C69	C	-0.671545	-0.964565	0.453291
N70	N	-0.698789	-0.925556	0.492252
H71	H	-0.376377	-0.633557	0.439785
H72	H	-1.062958	-1.149076	0.269321
C73	C	-1.072383	-0.964742	0.453380
N74	N	-1.099626	-0.925737	0.492345
C75	C	-0.387645	-0.964672	0.935575
N76	N	-0.420988	-0.925655	0.967397
H77	H	-0.230104	-0.633569	0.269319
C78	C	-0.387685	-0.964646	0.774169
N79	N	-0.421044	-0.925619	0.742310
H80	H	-0.376379	-0.494130	0.439801
H81	H	-0.542879	-0.977971	0.439840
H82	H	-0.230109	-1.148995	0.785251
