data_functionalizedCrystal
_audit_creation_method	'MofGen! by Chris Wilmer'
_symmetry_space_group_name_H-M	'P1'
_symmetry_Int_Tables_number	1
_symmetry_cell_setting	triclinic
loop_
_symmetry_equiv_pos_as_xyz
  x,y,z
_cell_length_a	10.654551
_cell_length_b	10.654550
_cell_length_c	9.730223
_cell_angle_alpha	89.999807
_cell_angle_beta	90.000351
_cell_angle_gamma	84.485087
loop_
_atom_site_label
_atom_site_type_symbol
_atom_site_fract_x
_atom_site_fract_y
_atom_site_fract_z
O1	O	1.667833	0.176399	-0.114269
O2	O	1.302355	0.193204	-0.114275
O3	O	1.493497	0.002062	-0.114266
O4	O	1.476691	0.367540	-0.114277
O5	O	1.493495	0.002067	0.114314
O6	O	1.302353	0.193208	0.114305
O7	O	1.667831	0.176403	0.114311
Zn8	Zn	1.485092	0.184807	0.150600
Zn9	Zn	1.485094	0.184800	-0.150564
O10	O	1.476689	0.367545	0.114303
C11	C	1.255556	0.191972	0.000014
C12	C	1.116113	0.188279	0.000012
C13	C	0.919580	0.183064	0.124612
C14	C	1.050600	0.186545	0.124613
C15	C	1.050597	0.186546	-0.124598
C16	C	0.919578	0.183075	-0.124596
C17	C	0.854075	0.181317	0.249222
C18	C	0.919582	0.183052	0.373832
C19	C	1.050602	0.186533	0.373832
C20	C	1.116116	0.188278	0.249222
C21	C	1.492262	-0.044734	0.000022
C22	C	1.488570	-0.184177	0.000017
C23	C	1.601112	-0.263662	0.000023
C24	C	1.597635	-0.394683	0.000013
C25	C	1.369066	-0.366720	-0.000003
C26	C	1.372544	-0.235702	-0.000003
C27	C	1.717138	-0.212137	0.000043
C28	C	1.829689	-0.291624	0.000051
C29	C	1.826212	-0.422645	0.000041
C30	C	1.710185	-0.474179	0.000024
C31	C	1.714630	0.177635	0.000019
C32	C	1.854073	0.181327	0.000013
C33	C	1.477924	0.414341	0.000012
C34	C	1.481616	0.553784	0.000008
N35	N	1.485099	0.184810	0.356137
N36	N	1.485097	0.184787	-0.356100
C37	C	1.569758	0.100202	0.428066
C38	C	1.569755	0.100186	0.571949
C39	C	1.400428	0.269399	0.571960
C40	C	1.400427	0.269408	0.428080
C41	C	1.654431	0.015604	0.356123
C42	C	1.739098	-0.069010	0.428053
C43	C	1.739095	-0.069026	0.571936
C44	C	1.654424	0.015574	0.643889
H45	H	1.222800	0.191127	0.249233
H46	H	1.719982	-0.105455	0.000055
H47	H	1.103933	0.187959	0.475295
H48	H	1.280902	-0.170983	-0.000006
H49	H	1.808028	-0.137895	0.369462
H50	H	1.654444	0.015611	0.238967
H51	H	1.808026	-0.137930	0.630500
H52	H	1.103948	0.187966	-0.226049
H53	H	1.924154	-0.249656	0.000030
H54	H	0.866241	0.181664	-0.226057
H55	H	1.917857	-0.487360	0.000033
H56	H	1.707364	-0.580866	0.000001
H57	H	1.274602	-0.408691	-0.000015
H58	H	1.654420	0.015546	0.761048
H59	H	1.331494	0.338278	0.630554
H60	H	1.331488	0.338303	0.369514
H61	H	0.747392	0.178481	0.249235
H62	H	0.866231	0.181642	0.475284
