data_functionalizedCrystal
_audit_creation_method	'MofGen! by Chris Wilmer'
_symmetry_space_group_name_H-M	'P1'
_symmetry_Int_Tables_number	1
_symmetry_cell_setting	triclinic
loop_
_symmetry_equiv_pos_as_xyz
  x,y,z
_cell_length_a	10.654550
_cell_length_b	17.038272
_cell_length_c	9.730223
_cell_angle_alpha	89.998176
_cell_angle_beta	89.996251
_cell_angle_gamma	87.798229
loop_
_atom_site_label
_atom_site_type_symbol
_atom_site_fract_x
_atom_site_fract_y
_atom_site_fract_z
O1	O	1.678036	0.109875	-0.114405
O2	O	1.313530	0.120343	-0.114384
O3	O	1.493617	0.001281	-0.114383
O4	O	1.497950	0.228936	-0.114406
O5	O	1.493615	0.001284	0.114196
O6	O	1.313528	0.120346	0.114196
O7	O	1.678034	0.109878	0.114175
Zn8	Zn	1.495781	0.115112	0.150477
Zn9	Zn	1.495783	0.115108	-0.150686
O10	O	1.497948	0.228939	0.114174
C11	C	1.266660	0.119576	-0.000091
C12	C	1.127003	0.117276	-0.000082
C13	C	1.054026	0.187378	-0.000109
C14	C	0.922804	0.185212	-0.000132
C15	C	0.937548	0.042837	-0.000108
C16	C	1.068767	0.045004	-0.000075
C17	C	1.045513	0.269577	-0.000129
C18	C	0.914292	0.267411	-0.000152
C19	C	1.489675	-0.027867	-0.000093
C20	C	1.477918	-0.114726	-0.000093
C21	C	1.585862	-0.164237	-0.000098
C22	C	1.574808	-0.245850	-0.000111
C23	C	1.455808	-0.277949	-0.000108
C24	C	1.347856	-0.228431	-0.000107
C25	C	1.358911	-0.146821	-0.000105
C26	C	1.416750	-0.523925	-0.000125
C27	C	1.405702	-0.605542	-0.000123
C28	C	1.632656	-0.622955	-0.000129
C29	C	1.643701	-0.541342	-0.000118
C30	C	1.535749	-0.491831	-0.000124
C31	C	1.444505	-0.361370	-0.000116
C32	C	1.547052	-0.408412	-0.000126
C33	C	1.724905	0.110645	-0.000121
C34	C	1.864562	0.112944	-0.000139
C35	C	1.501889	0.258088	-0.000119
C36	C	1.513646	0.344947	-0.000128
N37	N	1.495788	0.115115	0.356014
N38	N	1.495785	0.115100	-0.356223
C39	C	1.575554	0.062412	0.427940
C40	C	1.575550	0.062402	0.571823
C41	C	1.416010	0.167805	0.571841
C42	C	1.416009	0.167810	0.427961
C43	C	1.667667	0.001561	0.427931
C44	C	1.667663	0.001551	0.571814
H45	H	0.875436	0.298382	-0.095823
H46	H	1.250963	-0.254573	-0.000114
H47	H	1.347615	-0.387514	-0.000111
N48	N	0.859899	0.298569	0.123651
N49	N	0.928895	0.323715	0.216383
H50	H	0.890480	0.345716	0.303821
H51	H	1.760620	0.020614	0.383297
N52	N	1.093259	0.302474	-0.123896
N53	N	1.156306	0.362781	-0.118900
H54	H	1.190011	0.386032	-0.206305
H55	H	1.631874	-0.055271	0.616437
H56	H	1.765419	0.014955	0.610857
N57	N	1.086088	0.309895	0.119875
N58	N	1.200579	0.318496	0.140212
H59	H	1.229238	0.346968	0.224964
N60	N	1.334508	0.221620	0.645337
N61	N	1.253861	0.196336	0.725619
H62	H	1.196296	0.234344	0.777525
N63	N	1.143293	-0.026611	-0.000022
N64	N	1.091277	-0.091131	-0.000014
H65	H	1.143910	-0.141712	0.000026
H66	H	1.640641	-0.058569	0.388884
N67	N	1.707429	-0.131465	-0.000082
N68	N	1.803797	-0.175685	-0.000085
H69	H	1.889658	-0.152543	-0.000075
H70	H	1.271011	-0.106509	-0.000101
H71	H	1.662708	-0.286159	-0.000112
N72	N	0.878059	-0.030984	-0.000078
N73	N	0.806465	-0.048072	0.096268
H74	H	0.764453	-0.100210	0.096291
H75	H	1.740603	-0.515213	-0.000120
N76	N	1.742919	-0.673528	-0.000106
N77	N	1.762072	-0.721012	0.096247
H78	H	1.839951	-0.756730	0.096262
N79	N	1.284130	-0.638319	-0.000094
N80	N	1.187755	-0.594106	-0.000084
H81	H	1.101898	-0.617254	-0.000053
H82	H	1.643941	-0.382273	-0.000158
H83	H	1.328847	-0.483623	-0.000129
N84	N	1.334501	0.221637	0.354510
N85	N	1.263277	0.268678	0.418769
H86	H	1.205705	0.306694	0.366896
