data_functionalizedCrystal
_audit_creation_method	'MofGen! by Chris Wilmer'
_symmetry_space_group_name_H-M	'P1'
_symmetry_Int_Tables_number	1
_symmetry_cell_setting	triclinic
loop_
_symmetry_equiv_pos_as_xyz
  x,y,z
_cell_length_a	15.297475
_cell_length_b	21.295417
_cell_length_c	15.298025
_cell_angle_alpha	99.688613
_cell_angle_beta	110.777163
_cell_angle_gamma	80.332118
loop_
_atom_site_label
_atom_site_type_symbol
_atom_site_fract_x
_atom_site_fract_y
_atom_site_fract_z
Zn1	Zn	1.512550	-0.340537	0.771398
Zn2	Zn	1.485522	-0.461294	0.615847
Zn3	Zn	1.330149	-0.340485	0.589034
Zn4	Zn	1.356971	-0.430204	0.744460
O5	O	1.421298	-0.393130	0.680185
O6	O	1.639099	-0.369589	0.773259
O7	O	1.442375	-0.458258	0.482145
O8	O	1.354430	-0.252406	0.613277
O9	O	1.619242	-0.458308	0.658976
O10	O	1.488440	-0.252445	0.747259
O11	O	1.328223	-0.369500	0.462445
O12	O	1.203572	-0.339353	0.587156
O13	O	1.400145	-0.405320	0.878179
O14	O	1.223278	-0.405270	0.701347
O15	O	1.514448	-0.339442	0.897970
O16	O	1.468383	-0.545255	0.632855
O17	O	1.373938	-0.522414	0.727347
C18	C	1.179683	-0.368932	0.638420
C19	C	1.076323	-0.358594	0.620575
C20	C	1.421167	-0.556675	0.680112
C21	C	1.421201	-0.626645	0.680127
C22	C	0.826046	-0.467027	0.807729
C23	C	0.923158	-0.476746	0.824493
C24	C	0.961454	-0.447209	0.773515
C25	C	0.902629	-0.407951	0.705770
C26	C	0.805507	-0.398235	0.688999
C27	C	0.940914	-0.378417	0.654785
C28	C	0.882089	-0.339159	0.587040
C29	C	0.784977	-0.329445	0.570273
C30	C	0.746681	-0.358982	0.621251
C31	C	1.038036	-0.388132	0.671556
C32	C	1.017497	-0.319340	0.552826
C33	C	0.920385	-0.309622	0.536062
C34	C	1.470443	-0.671384	0.630995
C35	C	1.470490	-0.737128	0.631024
C36	C	1.421278	-0.758131	0.680171
C37	C	1.372034	-0.713383	0.729314
C38	C	1.371996	-0.647640	0.729292
N39	N	1.341152	-0.852547	0.673199
N40	N	1.341190	-0.915001	0.673215
C41	C	1.421391	-0.956211	0.680242
N42	N	1.501551	-0.932609	0.687236
N43	N	1.501511	-0.870150	0.687215
C44	C	1.421314	-0.829417	0.680201
C45	C	1.470688	-1.072239	0.631139
C46	C	1.470738	-1.137984	0.631175
C47	C	1.372273	-1.114237	0.729458
C48	C	1.372232	-1.048493	0.729429
C49	C	1.421437	-1.027498	0.680265
C50	C	1.663856	-0.417422	0.722113
C51	C	1.767220	-0.427774	0.739981
C52	C	1.463303	-0.368919	0.922763
C53	C	1.481204	-0.358602	1.026135
C54	C	1.421458	-0.228947	0.680282
C55	C	1.421526	-0.158982	0.680324
C56	C	1.293618	-0.466719	1.276309
C57	C	1.276791	-0.476408	1.179184
C58	C	1.327893	-0.446957	1.140917
C59	C	1.395825	-0.407816	1.199785
C60	C	1.412648	-0.398121	1.296918
C61	C	1.446923	-0.378360	1.161526
C62	C	1.514855	-0.339218	1.220394
C63	C	1.531676	-0.329526	1.317518
C64	C	1.480574	-0.358976	1.355785
C65	C	1.430099	-0.388054	1.064393
C66	C	1.549130	-0.319457	1.085002
C67	C	1.565957	-0.309768	1.182127
C68	C	1.379447	-0.417259	1.438548
C69	C	1.361544	-0.427574	1.335175
H70	H	1.085923	-0.420096	0.726715
H71	H	0.872476	-0.277658	0.480903
O72	O	1.518170	-0.780652	0.583201
C73	C	1.454854	-0.819409	0.513947
H74	H	1.390047	-0.818967	0.534537
H75	H	1.490602	-0.870656	0.508044
H76	H	1.432717	-0.799946	0.443262
H77	H	1.331967	-0.730488	0.769332
H78	H	1.510758	-1.055144	0.591110
H79	H	1.510842	-1.174411	0.591168
H80	H	1.332208	-1.131337	0.769480
O81	O	1.518333	-0.651099	0.583235
C82	C	1.561788	-0.704690	0.539859
H83	H	1.571594	-0.748057	0.578519
H84	H	1.633351	-0.693976	0.542662
H85	H	1.515561	-0.715372	0.463321
H86	H	1.040527	-0.455124	0.787169
H87	H	0.971046	-0.508711	0.879649
H88	H	0.794854	-0.491077	0.849223
O89	O	1.324075	-0.604263	0.777032
C90	C	1.280671	-0.636894	0.820443
H91	H	1.270912	-0.687256	0.781816
H92	H	1.209089	-0.609621	0.817632
H93	H	1.326911	-0.640191	0.896984
H94	H	0.667606	-0.351070	0.607607
O95	O	1.324305	-1.005116	0.777160
C96	C	1.280896	-1.037749	0.820565
H97	H	1.271140	-1.088111	0.781936
H98	H	1.209313	-1.010476	0.817749
H99	H	1.327130	-1.041046	0.897107
H100	H	0.737082	-0.297486	0.515101
O101	O	1.598918	-0.290880	1.047960
C102	C	1.695700	-0.311560	1.087678
H103	H	1.709828	-0.328909	1.158523
H104	H	1.738014	-0.269976	1.098223
H105	H	1.717518	-0.352517	1.038406
H106	H	1.374782	-0.419920	1.016470
O107	O	1.054781	-0.290746	0.503274
C108	C	1.100486	-0.338144	0.452785
H109	H	1.120668	-0.384076	0.487964
H110	H	1.166647	-0.320561	0.452188
H111	H	1.051105	-0.348122	0.377378
O112	O	1.311474	-0.456469	1.046557
C113	C	1.240548	-0.497323	1.002803
H114	H	1.237169	-0.527199	1.056508
H115	H	1.257342	-0.530514	0.942672
H116	H	1.169782	-0.467293	0.973847
H117	H	1.221487	-0.508283	1.131261
O118	O	1.244091	-0.495293	1.313639
C119	C	1.273487	-0.478325	1.411985
H120	H	1.347575	-0.463580	1.437664
H121	H	1.273518	-0.521153	1.447788
H122	H	1.223139	-0.436522	1.430030
O123	O	1.597595	-0.291417	1.374588
C124	C	1.573209	-0.229011	1.347389
H125	H	1.525245	-0.231167	1.270690
H126	H	1.639775	-0.207840	1.355676
H127	H	1.534889	-0.197563	1.393803
H128	H	1.621268	-0.277898	1.230071
H129	H	1.494275	-0.351092	1.434872
