data_functionalizedCrystal
_audit_creation_method	'MofGen! by Chris Wilmer'
_symmetry_space_group_name_H-M	'P1'
_symmetry_Int_Tables_number	1
_symmetry_cell_setting	triclinic
loop_
_symmetry_equiv_pos_as_xyz
  x,y,z
_cell_length_a	6.817900
_cell_length_b	17.982723
_cell_length_c	11.102193
_cell_angle_alpha	94.239663
_cell_angle_beta	108.604059
_cell_angle_gamma	102.447564
loop_
_atom_site_label
_atom_site_type_symbol
_atom_site_fract_x
_atom_site_fract_y
_atom_site_fract_z
V1	V	-4.080366	-0.105419	-0.396798
O2	O	-4.072043	0.005060	-0.388688
O3	O	-4.026531	-0.209022	-0.394619
O4	O	-4.057619	-0.103799	-0.569611
O5	O	-4.040740	-0.100891	-0.212485
V6	V	-4.561374	-0.092204	-0.374688
O7	O	-4.347141	-0.134406	-0.445299
O8	O	-4.744797	-0.063216	-0.326187
O9	O	-4.392003	0.011400	-0.376867
O10	O	-4.687095	-0.202682	-0.382797
O11	O	-4.718398	-0.096732	-0.559001
O12	O	-4.360915	-0.093823	-0.201874
C13	C	-3.869380	-0.234278	-0.388497
C14	C	-3.906821	-0.318975	-0.387868
C15	C	-3.909034	-0.100055	-0.611716
C16	C	-3.971683	-0.099417	-0.752995
C17	C	-4.319569	-0.842741	-0.390291
C18	C	-4.284379	-0.763159	-0.390888
C19	C	-4.083918	-0.719491	-0.384826
C20	C	-3.918629	-0.755408	-0.378154
C21	C	-3.953815	-0.834987	-0.377548
C22	C	-3.776722	-0.434473	-0.380598
C23	C	-3.741549	-0.354889	-0.381209
C24	C	-4.107286	-0.362645	-0.393938
C25	C	-4.142472	-0.442224	-0.393332
C26	C	-3.977178	-0.478133	-0.386653
C27	C	-4.015336	-0.564424	-0.386003
C28	C	-4.045764	-0.633202	-0.385486
C29	C	-4.050779	-0.238964	-0.790037
C30	C	-4.119752	-0.308435	-0.874929
C31	C	-4.178617	-0.307831	-1.007672
C32	C	-4.168512	-0.237749	-1.055524
C33	C	-4.099539	-0.168278	-0.970632
C34	C	-4.040671	-0.168890	-0.837888
C35	C	-4.020458	-0.028733	-0.933591
C36	C	-3.961578	-0.029335	-0.800847
C37	C	-4.010353	0.041349	-0.981442
C38	C	-3.941365	0.110822	-0.896549
C39	C	-3.882496	0.110215	-0.763799
C40	C	-3.892605	0.040136	-0.715955
C41	C	-4.212495	0.036652	-0.382985
C42	C	-4.154293	0.121348	-0.383623
C43	C	-4.172841	-0.097569	-0.159763
C44	C	-4.089431	-0.098204	-0.018483
H45	H	-4.482807	-0.878290	-0.395234
C46	C	-4.130883	-0.385522	-0.822297
H47	H	-4.180414	-0.426808	-0.891869
H48	H	-3.992569	-0.386228	-0.767128
H49	H	-4.226589	-0.391092	-0.775442
H50	H	-4.418969	-0.733924	-0.396323
C51	C	-4.362979	-0.490260	-0.400011
H52	H	-4.360269	-0.542799	-0.398708
H53	H	-4.395932	-0.471848	-0.328236
H54	H	-4.468778	-0.485776	-0.477230
H55	H	-3.826347	0.166786	-0.694686
C56	C	-3.930252	0.187901	-0.949189
H57	H	-3.975186	0.178311	-1.040403
H58	H	-4.021349	0.214038	-0.923972
H59	H	-3.787338	0.218904	-0.915681
C60	C	-3.698118	-0.707378	-0.371477
H61	H	-3.604719	-0.740164	-0.367405
H62	H	-3.713210	-0.683137	-0.445939
H63	H	-3.640361	-0.669208	-0.296945
H64	H	-3.642117	-0.463699	-0.375144
C65	C	-4.254498	-0.384246	-1.101056
H66	H	-4.252082	-0.426071	-1.053551
H67	H	-4.396105	-0.389342	-1.157761
H68	H	-4.162086	-0.384472	-1.149455
H69	H	-4.216472	-0.237264	-1.163613
C70	C	-3.521025	-0.306854	-0.374524
H71	H	-3.427612	-0.339635	-0.370445
H72	H	-3.536116	-0.282614	-0.448986
H73	H	-3.463285	-0.268683	-0.299994
C74	C	-4.075097	0.042015	-1.127455
H75	H	-4.117601	-0.009395	-1.171162
H76	H	-4.190812	0.065484	-1.154802
H77	H	-3.956784	0.070359	-1.146482
H78	H	-3.844663	0.039635	-0.607870
H79	H	-4.241870	-0.333398	-0.399370
C80	C	-3.772015	-0.874490	-0.370218
H81	H	-3.647593	-0.837088	-0.366706
H82	H	-3.741704	-0.898407	-0.295224
H83	H	-3.814580	-0.912339	-0.444219
C84	C	-3.986040	-0.239632	-0.644025
H85	H	-4.001952	-0.291318	-0.627685
H86	H	-3.841121	-0.211561	-0.602995
H87	H	-4.075154	-0.216441	-0.611320
