data_functionalizedCrystal
_audit_creation_method	'MofGen! by Chris Wilmer'
_symmetry_space_group_name_H-M	'P1'
_symmetry_Int_Tables_number	1
_symmetry_cell_setting	triclinic
loop_
_symmetry_equiv_pos_as_xyz
  x,y,z
_cell_length_a	14.971486
_cell_length_b	14.044220
_cell_length_c	13.448316
_cell_angle_alpha	89.992660
_cell_angle_beta	89.998199
_cell_angle_gamma	88.401503
loop_
_atom_site_label
_atom_site_type_symbol
_atom_site_fract_x
_atom_site_fract_y
_atom_site_fract_z
O1	O	1.196679	0.123538	-0.082579
O2	O	1.696679	0.623538	0.417421
O3	O	0.937445	0.138332	-0.082607
O4	O	1.437445	0.638332	0.417393
O5	O	1.063171	-0.007054	-0.082584
O6	O	1.563171	0.492946	0.417416
O7	O	1.070953	0.268924	-0.082602
O8	O	1.570953	0.768924	0.417398
O9	O	1.063153	-0.007063	0.082800
O10	O	1.563153	0.492937	0.582800
O11	O	0.937427	0.138323	0.082777
O12	O	1.437427	0.638323	0.582777
O13	O	1.196661	0.123529	0.082804
O14	O	1.696661	0.623529	0.582804
Cu15	Cu	1.067042	0.130925	0.097892
Cu16	Cu	1.567042	0.630925	0.597892
Cu17	Cu	1.067064	0.130936	-0.097694
Cu18	Cu	1.567064	0.630936	0.402306
O19	O	1.070935	0.268915	0.082781
O20	O	1.570935	0.768915	0.582781
C21	C	0.904059	0.137666	0.000082
C22	C	1.404059	0.637666	0.500082
C23	C	0.804606	0.135683	0.000072
C24	C	1.304606	0.635683	0.500072
C25	C	0.754109	0.221093	0.000067
C26	C	1.254109	0.721093	0.500067
C27	C	0.660662	0.219225	0.000082
C28	C	1.160662	0.719225	0.500082
C29	C	0.617714	0.131945	0.000094
C30	C	1.117714	0.631945	0.500094
C31	C	0.668218	0.046528	0.000102
C32	C	1.168218	0.546528	0.500102
C33	C	0.761663	0.048398	0.000094
C34	C	1.261663	0.548398	0.500094
C35	C	0.473449	0.042638	0.000116
C36	C	0.973449	0.542638	0.500116
C37	C	0.379997	0.040767	0.000122
C38	C	0.879997	0.540767	0.500122
C39	C	0.372448	0.213465	0.000104
C40	C	0.872448	0.713465	0.500104
C41	C	0.465893	0.215334	0.000096
C42	C	0.965893	0.715334	0.500096
C43	C	0.516390	0.129917	0.000102
C44	C	1.016390	0.629917	0.500102
C45	C	1.059755	-0.042377	0.000108
C46	C	1.559755	0.457623	0.500108
C47	C	1.049594	-0.147614	0.000108
C48	C	1.549594	0.352386	0.500108
C49	C	1.031018	-0.340297	0.000092
C50	C	1.531018	0.159703	0.500092
C51	C	1.103085	-0.397848	0.000097
C52	C	1.603085	0.102152	0.500097
C53	C	1.092748	-0.505063	0.000088
C54	C	1.592748	-0.005063	0.500088
C55	C	1.041353	-0.233071	0.000101
C56	C	1.541353	0.266929	0.500101
C57	C	1.230047	0.124195	0.000114
C58	C	1.730047	0.624195	0.500114
C59	C	1.329501	0.126178	0.000117
C60	C	1.829501	0.626178	0.500117
C61	C	1.074351	0.304238	0.000087
C62	C	1.574351	0.804238	0.500087
C63	C	1.084512	0.409475	0.000080
C64	C	1.584512	0.909475	0.500080
N65	N	1.067034	0.130917	0.235456
N66	N	1.567034	0.630917	0.735456
N67	N	1.067079	0.130936	-0.235258
N68	N	1.567079	0.630936	0.264742
C69	C	1.122727	0.066567	0.287506
C70	C	1.622727	0.566567	0.787506
C71	C	1.122732	0.066566	0.391610
C72	C	1.622732	0.566566	0.891610
C73	C	1.067049	0.130921	0.443660
C74	C	1.567049	0.630921	0.943660
C75	C	1.011350	0.195274	0.391603
C76	C	1.511350	0.695274	0.891603
C77	C	1.011341	0.195270	0.287501
C78	C	1.511341	0.695270	0.787501
C79	C	1.011376	0.195281	0.608583
C80	C	1.511376	0.695281	1.108583
C81	C	1.011386	0.195287	0.712691
C82	C	1.511386	0.695287	1.212691
C83	C	1.122767	0.066577	0.712691
C84	C	1.622767	0.566577	1.212691
C85	C	1.122757	0.066572	0.608590
C86	C	1.622757	0.566572	1.108590
C87	C	1.067060	0.130927	0.556539
C88	C	1.567060	0.630927	1.056539
H89	H	0.331329	0.283015	0.000104
H90	H	0.831329	0.783015	0.500104
N91	N	0.800432	0.315230	0.000058
N92	N	1.300432	0.815230	0.500058
H93	H	0.839031	0.319859	-0.061254
H94	H	1.339031	0.819859	0.438746
H95	H	0.754208	0.368999	0.000098
H96	H	1.254208	0.868999	0.500098
H97	H	0.619551	0.288775	0.000077
H98	H	1.119551	0.788775	0.500077
N99	N	1.182833	-0.002808	0.447751
N100	N	1.682833	0.497192	0.947751
H101	H	1.218122	-0.043561	0.398981
H102	H	1.718122	0.456439	0.898981
H103	H	1.225262	0.033596	0.490911
H104	H	1.725262	0.533596	0.990911
H105	H	0.633242	-0.024537	0.000126
H106	H	1.133242	0.475463	0.500126
H107	H	0.500859	0.286405	0.000077
H108	H	1.000859	0.786405	0.500077
H109	H	1.172546	-0.366598	0.000037
H110	H	1.672546	0.133402	0.500037
N111	N	0.939013	-0.381684	0.000098
N112	N	1.439013	0.118316	0.500098
H113	H	0.892352	-0.328340	0.000101
H114	H	1.392352	0.171660	0.500101
H115	H	0.931603	-0.422228	-0.061212
H116	H	1.431603	0.077772	0.438788
H117	H	1.168074	0.014166	0.245134
H118	H	1.668074	0.514166	0.745134
H119	H	1.168103	0.014175	0.566210
H120	H	1.668103	0.514175	1.066210
H121	H	1.168118	0.014177	0.755077
H122	H	1.668118	0.514177	1.255077
H123	H	0.966042	0.247690	0.755066
H124	H	1.466042	0.747690	1.255066
N125	N	0.333671	-0.053367	0.000133
N126	N	0.833671	0.446633	0.500133
H127	H	0.379838	-0.107195	0.000142
H128	H	0.879838	0.392805	0.500142
H129	H	0.295063	-0.057899	0.061444
H130	H	0.795063	0.442101	0.561444
H131	H	0.966017	0.247682	0.566206
H132	H	1.466017	0.747682	1.066206
H133	H	0.966007	0.247670	0.433988
H134	H	1.466007	0.747670	0.933988
N135	N	0.527917	-0.049489	0.000128
N136	N	1.027917	0.450511	0.500128
H137	H	0.486532	-0.105065	0.000134
H138	H	0.986532	0.394935	0.500134
H139	H	0.566850	-0.052470	-0.061184
H140	H	1.066850	0.447530	0.438816
N141	N	0.951267	0.264675	0.231363
N142	N	1.451267	0.764675	0.731363
H143	H	0.966932	0.331977	0.249462
H144	H	1.466932	0.831977	0.749462
H145	H	0.959731	0.254824	0.157535
H146	H	1.459731	0.754824	0.657535
N147	N	0.816132	-0.043723	0.000106
N148	N	1.316132	0.456277	0.500106
H149	H	0.774747	-0.099299	0.000115
H150	H	1.274747	0.400701	0.500115
H151	H	0.855068	-0.046709	-0.061204
H152	H	1.355068	0.453291	0.438796
