data_functionalizedCrystal
_audit_creation_method	'MofGen! by Chris Wilmer'
_symmetry_space_group_name_H-M	'P1'
_symmetry_Int_Tables_number	1
_symmetry_cell_setting	triclinic
loop_
_symmetry_equiv_pos_as_xyz
  x,y,z
_cell_length_a	6.817900
_cell_length_b	9.514072
_cell_length_c	11.102193
_cell_angle_alpha	88.635780
_cell_angle_beta	108.604059
_cell_angle_gamma	118.843421
loop_
_atom_site_label
_atom_site_type_symbol
_atom_site_fract_x
_atom_site_fract_y
_atom_site_fract_z
V1	V	-4.170264	-0.222216	-0.397253
O2	O	-4.067727	0.010666	-0.388667
O3	O	-4.204780	-0.440605	-0.395522
O4	O	-4.146136	-0.218803	-0.570059
O5	O	-4.126777	-0.212671	-0.212920
V6	V	-4.640003	-0.194360	-0.375086
O7	O	-4.461759	-0.283320	-0.445879
O8	O	-4.798706	-0.133255	-0.326460
O9	O	-4.382281	0.024030	-0.376817
O10	O	-4.859937	-0.427242	-0.383672
O11	O	-4.800888	-0.203904	-0.559419
O12	O	-4.440925	-0.197773	-0.202280
C13	C	-4.069166	-0.493844	-0.389509
C14	C	-4.178835	-0.672380	-0.389245
C15	C	-3.994359	-0.210911	-0.612148
C16	C	-4.056463	-0.209565	-0.753424
C17	C	-4.254562	-0.503723	-0.791069
C18	C	-4.382777	-0.650162	-0.876262
C19	C	-4.441127	-0.648889	-1.009002
C20	C	-4.371258	-0.501160	-1.056551
C21	C	-4.243042	-0.354721	-0.971359
C22	C	-4.184696	-0.356009	-0.838617
C23	C	-4.044961	-0.060568	-0.933715
C24	C	-3.986594	-0.061837	-0.800973
C25	C	-3.975091	0.087161	-0.981264
C26	C	-3.846859	0.233605	-0.896071
C27	C	-3.788508	0.232326	-0.763323
C28	C	-3.858379	0.084603	-0.715781
C29	C	-4.181240	0.077260	-0.382826
C30	C	-4.050811	0.255794	-0.383099
C31	C	-4.256046	-0.205670	-0.160185
C32	C	-4.173176	-0.207007	-0.018907
H33	H	-4.372381	-0.747490	-0.394350
O34	O	-4.198178	-0.505256	-0.662167
C35	C	-4.287286	-0.667035	-0.638465
H36	H	-4.441628	-0.752376	-0.727882
H37	H	-4.353430	-0.681107	-0.554278
H38	H	-4.138859	-0.698440	-0.614068
H39	H	-4.439663	-0.770441	-0.837532
H40	H	-3.857268	-0.669101	-0.377975
H41	H	-4.545533	-0.768134	-1.078367
H42	H	-4.418804	-0.500138	-1.164638
O43	O	-4.032187	0.088180	-1.110243
C44	C	-4.282865	0.000331	-1.171096
H45	H	-4.366036	-0.088831	-1.107652
H46	H	-4.330808	-0.069403	-1.267761
H47	H	-4.354454	0.088186	-1.187082
O48	O	-3.779094	0.376954	-0.942472
C49	C	-3.858165	0.346672	-1.077901
H50	H	-3.886611	0.223231	-1.109945
H51	H	-3.717960	0.445361	-1.112875
H52	H	-4.033855	0.346938	-1.120395
H53	H	-3.684116	0.351575	-0.693966
H54	H	-3.810863	0.083548	-0.607699
