data_functionalizedCrystal
_audit_creation_method	'MofGen! by Chris Wilmer'
_symmetry_space_group_name_H-M	'P1'
_symmetry_Int_Tables_number	1
_symmetry_cell_setting	triclinic
loop_
_symmetry_equiv_pos_as_xyz
  x,y,z
_cell_length_a	12.594517
_cell_length_b	12.594516
_cell_length_c	12.645323
_cell_angle_alpha	90.023946
_cell_angle_beta	90.022797
_cell_angle_gamma	90.015853
loop_
_atom_site_label
_atom_site_type_symbol
_atom_site_fract_x
_atom_site_fract_y
_atom_site_fract_z
Zn1	Zn	1.627282	-0.423739	0.599457
Zn2	Zn	1.627169	-0.601743	0.422199
Zn3	Zn	1.449282	-0.423778	0.422201
Zn4	Zn	1.449268	-0.601676	0.599414
O5	O	1.538250	-0.512734	0.510818
O6	O	1.776213	-0.447364	0.575960
O7	O	1.603530	-0.578179	0.273852
O8	O	1.472947	-0.274827	0.445732
O9	O	1.776130	-0.578142	0.445730
O10	O	1.603723	-0.274799	0.575961
O11	O	1.472837	-0.447429	0.273853
O12	O	1.300334	-0.447364	0.445691
O13	O	1.472924	-0.578028	0.747767
O14	O	1.300324	-0.578065	0.575890
O15	O	1.603711	-0.447299	0.747798
O16	O	1.603517	-0.750680	0.445689
O17	O	1.472814	-0.750630	0.575888
C18	C	1.261709	-0.512713	0.510787
C19	C	1.143404	-0.512729	0.510798
C20	C	1.538181	-0.789275	0.510807
C21	C	1.538248	-0.907580	0.510838
C22	C	1.074125	-0.441544	0.440118
C23	C	1.003314	-0.538632	0.414047
C24	C	1.003417	-0.415689	0.536888
C25	C	1.074150	-0.609868	0.484676
C26	C	1.074260	-0.486860	0.607562
C27	C	1.003480	-0.584014	0.581527
C28	C	1.467152	-0.976845	0.581604
C29	C	1.441216	-1.047707	0.484871
C30	C	1.564281	-1.047518	0.607588
C31	C	1.512261	-0.976884	0.414054
C32	C	1.635371	-0.976688	0.536836
C33	C	1.609472	-1.047518	0.440037
C34	C	1.815871	-0.512756	0.510850
C35	C	1.934177	-0.512766	0.510863
C36	C	1.538329	-0.512652	0.787323
C37	C	1.538362	-0.512616	0.905153
C38	C	1.538349	-0.235113	0.510851
C39	C	1.538392	-0.116808	0.510866
C40	C	1.538233	-0.512739	0.235388
C41	C	1.538406	-0.512474	0.117558
C42	C	1.455831	-0.594471	1.072698
C43	C	1.456047	-0.594876	0.950138
C44	C	1.650513	-0.543058	0.949674
C45	C	1.650061	-0.543571	1.072272
C46	C	1.509803	-0.399864	1.072349
C47	C	1.507301	-0.400539	0.949743
H48	H	0.972153	-0.560535	0.332244
C49	C	1.481810	-0.707635	0.910636
C50	C	1.580399	-0.726820	0.841226
C51	C	1.606265	-0.839580	0.801777
C52	C	1.533542	-0.933154	0.831737
C53	C	1.434946	-0.913971	0.901151
C54	C	1.409081	-0.801211	0.940600
H55	H	1.634239	-0.657549	0.819044
H56	H	1.679253	-0.853780	0.750392
H57	H	1.552689	-1.016625	0.802535
H58	H	1.381106	-0.983242	0.923333
H59	H	1.336093	-0.787011	0.991984
H60	H	1.429446	-0.372115	1.103253
C61	C	1.116044	-0.360300	0.359279
C62	C	1.086552	-0.242150	0.370175
C63	C	1.128473	-0.160913	0.289333
C64	C	1.199886	-0.197826	0.197596
C65	C	1.229382	-0.315982	0.186696
C66	C	1.187461	-0.397219	0.267537
H67	H	1.033685	-0.214820	0.438087
H68	H	1.106638	-0.073446	0.297403
H69	H	1.230918	-0.137690	0.137753
H70	H	1.282249	-0.343312	0.118783
H71	H	1.209296	-0.484686	0.259468
H72	H	1.669657	-1.078353	0.380135
C73	C	1.582619	-0.313639	0.908390
C74	C	1.674058	-0.343058	0.833075
C75	C	1.749390	-0.256161	0.791726
C76	C	1.733282	-0.139845	0.825692
C77	C	1.641839	-0.110421	0.901012
C78	C	1.566508	-0.197318	0.942361
H79	H	1.685986	-0.429166	0.807927
H80	H	1.817082	-0.277943	0.735969
H81	H	1.789047	-0.075519	0.795084
H82	H	1.629912	-0.024313	0.926160
H83	H	1.498816	-0.175536	0.998117
H84	H	0.972656	-0.644298	0.641327
H85	H	1.372883	-0.575827	0.920036
H86	H	1.105091	-0.691973	0.462546
C87	C	1.116401	-0.457234	0.718039
C88	C	1.088570	-0.348730	0.766874
C89	C	1.130714	-0.319090	0.877350
C90	C	1.200688	-0.397953	0.938993
C91	C	1.228522	-0.506464	0.890158
C92	C	1.186378	-0.536104	0.779682
H93	H	1.036768	-0.290344	0.721242
H94	H	1.110109	-0.238763	0.913500
H95	H	1.231885	-0.376012	1.020774
H96	H	1.280324	-0.564850	0.935790
H97	H	1.206983	-0.616431	0.743532
C98	C	1.682812	-0.654772	1.110951
C99	C	1.782105	-0.668234	1.180767
C100	C	1.814859	-0.779435	1.219447
C101	C	1.748319	-0.877174	1.188312
C102	C	1.649019	-0.863716	1.118493
C103	C	1.616266	-0.752515	1.079812
H104	H	1.831368	-0.595878	1.203818
H105	H	1.888367	-0.789397	1.271132
H106	H	1.772565	-0.959491	1.216946
H107	H	1.599757	-0.936071	1.095441
H108	H	1.542758	-0.742553	1.028127
H109	H	1.359148	-1.078925	0.462904
C110	C	1.343145	-0.568976	1.112505
C111	C	1.292060	-0.460980	1.086673
C112	C	1.179372	-0.435479	1.126490
C113	C	1.117770	-0.517975	1.192138
C114	C	1.168854	-0.625979	1.217973
C115	C	1.281542	-0.651480	1.178156
H116	H	1.337662	-0.399905	1.038074
H117	H	1.141556	-0.355527	1.107365
H118	H	1.034352	-0.499098	1.221613
H119	H	1.123252	-0.687054	1.266573
H120	H	1.319358	-0.731432	1.197281
C121	C	1.736017	-0.466424	1.112374
C122	C	1.804855	-0.404549	1.032841
C123	C	1.890821	-0.327417	1.072938
C124	C	1.907949	-0.312159	1.192568
C125	C	1.839110	-0.374036	1.272109
C126	C	1.753144	-0.451168	1.232012
H127	H	1.792177	-0.415842	0.944277
H128	H	1.941780	-0.281612	1.014056
H129	H	1.971586	-0.255061	1.222250
H130	H	1.851787	-0.362743	1.360673
H131	H	1.702184	-0.496973	1.290894
C132	C	1.746212	-0.934507	0.566573
C133	C	1.836615	-1.012797	0.591851
C134	C	1.947456	-0.970614	0.621602
C135	C	1.967895	-0.850140	0.626075
C136	C	1.877489	-0.771842	0.600797
C137	C	1.766648	-0.814026	0.571046
H138	H	1.821488	-1.101986	0.588540
H139	H	2.014380	-1.028576	0.640315
H140	H	2.049946	-0.818913	0.648099
H141	H	1.892617	-0.682654	0.604108
H142	H	1.699724	-0.756064	0.552333
C143	C	1.735863	-0.464935	0.910311
C144	C	1.830198	-0.505816	0.844435
C145	C	1.915545	-0.427690	0.805070
C146	C	1.906556	-0.308684	0.831581
C147	C	1.812217	-0.267798	0.897461
C148	C	1.726871	-0.345923	0.936826
H149	H	1.836856	-0.593917	0.824806
H150	H	1.985380	-0.457958	0.756301
H151	H	1.969734	-0.250851	0.802441
H152	H	1.805560	-0.179697	0.917090
H153	H	1.657035	-0.315655	0.985595
H154	H	0.972290	-0.333619	0.558891
H155	H	1.406921	-0.945813	0.641361
H156	H	1.675173	-0.624516	0.918987
H157	H	1.490205	-0.945985	0.332223
H158	H	1.586242	-1.078545	0.689397
H159	H	1.474530	-0.677432	1.103518
H160	H	1.424767	-0.377582	0.920643
H161	H	1.569947	-0.338773	1.101362
