data_functionalizedCrystal
_audit_creation_method	'MofGen! by Chris Wilmer'
_symmetry_space_group_name_H-M	'P1'
_symmetry_Int_Tables_number	1
_symmetry_cell_setting	triclinic
loop_
_symmetry_equiv_pos_as_xyz
  x,y,z
_cell_length_a	12.759395
_cell_length_b	17.640280
_cell_length_c	12.759387
_cell_angle_alpha	78.769403
_cell_angle_beta	89.982772
_cell_angle_gamma	78.802277
loop_
_atom_site_label
_atom_site_type_symbol
_atom_site_fract_x
_atom_site_fract_y
_atom_site_fract_z
Zn1	Zn	1.690791	-0.314596	-0.509546
Zn2	Zn	1.726222	-0.446789	-0.298376
Zn3	Zn	1.515111	-0.314638	-0.333871
Zn4	Zn	1.550597	-0.446734	-0.474030
O5	O	1.620680	-0.380689	-0.403956
O6	O	1.842513	-0.332137	-0.481542
O7	O	1.698195	-0.429300	-0.156052
O8	O	1.508735	-0.204026	-0.386893
O9	O	1.868545	-0.429259	-0.326397
O10	O	1.637807	-0.203995	-0.515960
O11	O	1.543092	-0.332209	-0.182130
O12	O	1.372795	-0.332155	-0.352455
O13	O	1.569217	-0.429164	-0.625773
O14	O	1.398867	-0.429206	-0.455429
O15	O	1.672217	-0.332083	-0.651867
O16	O	1.732605	-0.557388	-0.291959
O17	O	1.603574	-0.557347	-0.421011
C18	C	1.347710	-0.380680	-0.403940
C19	C	1.230937	-0.380695	-0.403953
C20	C	1.675813	-0.586047	-0.348802
C21	C	1.699495	-0.673899	-0.325242
C22	C	1.258169	-0.481916	-0.510919
C23	C	1.216925	-0.532533	-0.564403
C24	C	1.107206	-0.532543	-0.564413
C25	C	1.038726	-0.481928	-0.510936
C26	C	1.079970	-0.431311	-0.457452
C27	C	1.189693	-0.431309	-0.457445
C28	C	1.052738	-0.330087	-0.350494
C29	C	1.162458	-0.330080	-0.350476
C30	C	0.984258	-0.279472	-0.297017
C31	C	1.025502	-0.228858	-0.243525
C32	C	1.135229	-0.228851	-0.243516
C33	C	1.203701	-0.279463	-0.296992
C34	C	1.441200	-0.962867	-0.583319
C35	C	1.463455	-1.045418	-0.561147
C36	C	1.597898	-1.045395	-0.426901
C37	C	1.575658	-0.962842	-0.449065
C38	C	1.497307	-0.921585	-0.527274
C39	C	1.631765	-0.921560	-0.393020
C40	C	1.609523	-0.839015	-0.415179
C41	C	1.531173	-0.797751	-0.493382
C42	C	1.475064	-0.839039	-0.549433
C43	C	1.710111	-0.962819	-0.314806
C44	C	1.766218	-0.921537	-0.258762
C45	C	1.743981	-0.838990	-0.280925
C46	C	1.665631	-0.797727	-0.359128
C47	C	1.800089	-0.797702	-0.224875
C48	C	1.777847	-0.715157	-0.247033
C49	C	1.643388	-0.715181	-0.381287
C50	C	1.894716	-0.380700	-0.403972
C51	C	2.011494	-0.380704	-0.403978
C52	C	1.620723	-0.380613	-0.678010
C53	C	1.620742	-0.380580	-0.794795
C54	C	1.565361	-0.174530	-0.459348
C55	C	1.541787	-0.086677	-0.482952
C56	C	1.782309	-0.481626	-0.987080
C57	C	1.863048	-0.532193	-0.918627
C58	C	1.863021	-0.532223	-0.808897
C59	C	1.782245	-0.481683	-0.767619
C60	C	1.701507	-0.431116	-0.836072
C61	C	1.701544	-0.431090	-0.945803
C62	C	1.540003	-0.330014	-0.863248
C63	C	1.540032	-0.329978	-0.972980
C64	C	1.459227	-0.279474	-0.821970
C65	C	1.378491	-0.228902	-0.890425
C66	C	1.378522	-0.228874	-1.000161
C67	C	1.459293	-0.279412	-1.041433
C68	C	1.620682	-0.380709	-0.130983
C69	C	1.620808	-0.380518	-0.014258
H70	H	1.347511	-0.481919	-0.510907
O71	O	1.459011	-0.279428	-0.715400
C72	C	1.370423	-0.223965	-0.693652
H73	H	1.306087	-0.212878	-0.759866
H74	H	1.396611	-0.166338	-0.689668
C75	C	1.404201	-0.269819	-0.504508
C76	C	1.325179	-0.256207	-0.585829
H77	H	1.376294	-0.289704	-0.437996
H78	H	1.463887	-0.307183	-0.519159
H79	H	1.426017	-0.221792	-0.501202
H80	H	1.303374	-0.304235	-0.589143
H81	H	1.265488	-0.218851	-0.571176
H82	H	0.969737	-0.187648	-0.199995
O83	O	0.877644	-0.279355	-0.297153
C84	C	0.820655	-0.203628	-0.344626
H85	H	0.875136	-0.170991	-0.399268
H86	H	0.791944	-0.169315	-0.279542
C87	C	0.656681	-0.251434	-0.343477
C88	C	0.723593	-0.211351	-0.410596
H89	H	0.596805	-0.256196	-0.384167
H90	H	0.695074	-0.302452	-0.311490
H91	H	0.632766	-0.222835	-0.289244
H92	H	0.747517	-0.239955	-0.464819
H93	H	0.685202	-0.160337	-0.442594
H94	H	1.863875	-0.831307	-0.161190
H95	H	1.377406	-0.929273	-0.647013
H96	H	1.293043	-0.279464	-0.296986
H97	H	1.830008	-0.955140	-0.195081
H98	H	1.312726	-0.187760	-0.856805
H99	H	1.417772	-1.079027	-0.606804
H100	H	1.579595	-0.681588	-0.444981
H101	H	1.073626	-0.573756	-0.607971
O102	O	1.509558	-0.717567	-0.514719
C103	C	1.475193	-0.690043	-0.421400
H104	H	1.506003	-0.737624	-0.348124
H105	H	1.384088	-0.675453	-0.423012
C106	C	1.481264	-0.556975	-0.506268
C107	C	1.519113	-0.615411	-0.416268
H108	H	1.508350	-0.510936	-0.503103
H109	H	1.504412	-0.575517	-0.569140
H110	H	1.405344	-0.544826	-0.507601
H111	H	1.595030	-0.627566	-0.414943
H112	H	1.495978	-0.596870	-0.353395
O113	O	1.674124	-1.085395	-0.351007
C114	C	1.773379	-1.065176	-0.379507
H115	H	1.759388	-1.005223	-0.435986
H116	H	1.821232	-1.111592	-0.421097
C117	C	1.853243	-1.135012	-0.208792
C118	C	1.836058	-1.061374	-0.278154
H119	H	1.891909	-1.132670	-0.146274
H120	H	1.786374	-1.148637	-0.189593
H121	H	1.893116	-1.173684	-0.243464
H122	H	1.796175	-1.022706	-0.243487
H123	H	1.902922	-1.047743	-0.297346
H124	H	0.949387	-0.481934	-0.510961
H125	H	1.312772	-0.187698	-1.055890
O126	O	1.832476	-0.675172	-0.192525
C127	C	1.906381	-0.729287	-0.118727
H128	H	1.925853	-0.788108	-0.145973
H129	H	1.870332	-0.738125	-0.036529
C130	C	1.985588	-0.624758	-0.078879
C131	C	2.009510	-0.697001	-0.112348
H132	H	2.049201	-0.604842	-0.074939
H133	H	1.935794	-0.588299	-0.128595
H134	H	1.955545	-0.632133	-0.010384
H135	H	2.039540	-0.689624	-0.180846
H136	H	2.059311	-0.733459	-0.062642
H137	H	1.272693	-0.573742	-0.607945
H138	H	1.411270	-0.805446	-0.613126
O139	O	1.941591	-0.581171	-0.958805
C140	C	1.997377	-0.536160	-1.034385
H141	H	1.987157	-0.473918	-1.018044
H142	H	1.964183	-0.533414	-1.118280
C143	C	2.129509	-0.651230	-1.045759
C144	C	2.116965	-0.574784	-1.025684
H145	H	2.203276	-0.675056	-1.040396
H146	H	2.091924	-0.681555	-0.994842
H147	H	2.101841	-0.648930	-1.115671
H148	H	2.144620	-0.577085	-0.955768
H149	H	2.154558	-0.544459	-1.076589
H150	H	1.459330	-0.279390	-1.130780
H151	H	1.728221	-1.030033	-0.296770
O152	O	1.175120	-0.179657	-0.191465
C153	C	1.091144	-0.134976	-0.144296
H154	H	1.021621	-0.167352	-0.131904
H155	H	1.063386	-0.074984	-0.199021
C156	C	1.216212	-0.083712	-0.050805
C157	C	1.130826	-0.123479	-0.035577
H158	H	1.240690	-0.076616	0.016256
H159	H	1.272789	-0.113811	-0.082587
H160	H	1.193069	-0.033723	-0.096413
H161	H	1.153974	-0.173470	0.010019
H162	H	1.074254	-0.093387	-0.003785
H163	H	1.928770	-0.573394	-0.753163
H164	H	1.782224	-0.481718	-0.678268
H165	H	1.782347	-0.481599	-1.076428
