data_functionalizedCrystal
_audit_creation_method	'MofGen! by Chris Wilmer'
_symmetry_space_group_name_H-M	'P1'
_symmetry_Int_Tables_number	1
_symmetry_cell_setting	triclinic
loop_
_symmetry_equiv_pos_as_xyz
  x,y,z
_cell_length_a	10.686220
_cell_length_b	25.639239
_cell_length_c	10.685880
_cell_angle_alpha	94.335559
_cell_angle_beta	89.641379
_cell_angle_gamma	94.420854
loop_
_atom_site_label
_atom_site_type_symbol
_atom_site_fract_x
_atom_site_fract_y
_atom_site_fract_z
Zn1	Zn	1.972091	-0.163211	-0.562352
Zn2	Zn	1.955791	-0.244516	-0.352585
Zn3	Zn	1.746219	-0.164277	-0.368673
Zn4	Zn	1.762195	-0.257806	-0.578354
O5	O	1.859074	-0.207453	-0.465491
O6	O	2.145478	-0.167989	-0.521096
O7	O	1.914484	-0.228756	-0.179179
O8	O	1.776317	-0.090968	-0.394401
O9	O	2.133502	-0.227723	-0.366981
O10	O	1.942264	-0.090184	-0.536695
O11	O	1.760512	-0.169805	-0.190999
O12	O	1.572790	-0.182692	-0.409918
O13	O	1.803546	-0.250374	-0.751772
O14	O	1.584527	-0.251407	-0.563970
O15	O	1.957755	-0.180876	-0.740015
O16	O	1.929975	-0.319447	-0.382499
O17	O	1.787741	-0.329212	-0.548370
C18	C	1.533141	-0.218608	-0.490427
C19	C	1.393707	-0.223394	-0.501124
C20	C	1.858859	-0.343301	-0.465450
C21	C	1.858885	-0.401415	-0.465465
C22	C	1.933355	-0.756672	-0.379243
C23	C	1.933405	-0.811276	-0.379256
O24	O	1.996499	-0.835177	-0.305900
N25	N	1.859301	-0.843687	-0.465557
C26	C	1.785152	-0.821492	-0.551860
O27	O	1.722126	-0.854074	-0.625269
C28	C	1.785110	-0.766890	-0.551852
C29	C	1.859209	-0.734481	-0.465536
C30	C	2.007450	-0.724264	-0.292935
C31	C	2.007398	-0.669665	-0.292920
C32	C	1.933251	-0.647474	-0.379214
C33	C	1.859157	-0.679882	-0.465522
C34	C	1.710968	-0.744696	-0.638160
C35	C	1.710933	-0.690090	-0.638144
C36	C	1.785032	-0.657681	-0.551829
C37	C	1.784959	-0.603092	-0.551801
N38	N	1.859063	-0.570680	-0.465499
C39	C	1.933209	-0.592872	-0.379206
C40	C	1.785248	-0.936160	-0.551872
C41	C	1.785282	-0.990761	-0.551876
C42	C	1.933538	-0.980541	-0.379272
C43	C	1.933496	-0.925939	-0.379264
C44	C	1.859352	-0.903749	-0.465570
C45	C	1.933094	-0.478209	-0.379182
C46	C	1.933031	-0.423606	-0.379172
C47	C	1.784781	-0.433831	-0.551779
C48	C	1.784838	-0.488430	-0.551785
C49	C	1.859004	-0.510617	-0.465482
O50	O	1.721901	-0.579153	-0.625123
O51	O	1.996237	-0.560284	-0.305821
C52	C	2.186281	-0.196254	-0.440459
C53	C	2.325716	-0.191482	-0.429791
C54	C	1.884251	-0.216988	-0.792682
C55	C	1.894980	-0.221052	-0.932111
C56	C	1.859327	-0.071074	-0.465557
C57	C	1.859434	-0.012957	-0.465586
C58	C	1.834068	-0.197914	-0.139568
C59	C	1.823582	-0.193695	-0.000121
H60	H	1.374183	-0.160501	-0.360526
O61	O	1.740680	-0.162108	-0.942412
C62	C	1.618063	-0.178725	-0.983932
H63	H	1.614401	-0.221752	-1.020498
H64	H	1.591106	-0.154002	-1.062414
C65	C	1.529984	-0.119307	-0.828963
C66	C	1.525484	-0.172155	-0.873864
H67	H	1.472875	-0.115252	-0.761071
H68	H	1.612593	-0.108110	-0.800992
H69	H	1.507523	-0.098710	-0.894375
H70	H	1.547960	-0.192750	-0.808457
H71	H	1.442876	-0.183355	-0.901821
O72	O	1.335952	-0.260424	-0.583617
C73	C	1.365704	-0.310630	-0.553586
H74	H	1.394064	-0.309064	-0.450626
H75	H	1.446836	-0.323720	-0.615020
C76	C	1.215468	-0.351830	-0.703336
C77	C	1.250289	-0.349907	-0.576875
H78	H	1.144278	-0.376059	-0.717707
H79	H	1.195426	-0.318006	-0.723572
H80	H	1.283088	-0.362737	-0.754516
H81	H	1.182676	-0.338994	-0.525698
H82	H	1.270317	-0.383731	-0.556631
O83	O	1.977853	-0.252626	-0.989937
C84	C	2.064681	-0.222269	-1.059565
H85	H	2.069487	-0.179683	-1.019434
H86	H	2.033456	-0.224656	-1.161793
C87	C	2.189311	-0.295714	-1.101033
C88	C	2.195222	-0.243409	-1.051735
H89	H	2.269835	-0.308755	-1.096209
H90	H	2.130812	-0.316167	-1.054127
H91	H	2.163286	-0.297697	-1.186218
H92	H	2.221232	-0.241428	-0.966548
H93	H	2.253729	-0.222956	-1.098627
O94	O	2.005320	-0.499691	-0.295392
C95	C	2.132429	-0.482810	-0.313368
H96	H	2.138643	-0.444479	-0.361410
H97	H	2.179640	-0.513947	-0.374656
C98	C	2.191474	-0.521164	-0.126313
C99	C	2.199107	-0.474083	-0.185309
H100	H	2.232607	-0.515783	-0.047321
H101	H	2.105839	-0.532539	-0.114203
H102	H	2.230815	-0.547107	-0.177399
H103	H	2.159752	-0.448143	-0.134230
H104	H	2.284737	-0.462704	-0.197407
O105	O	2.079508	-0.638263	-0.209036
C106	C	2.144934	-0.669568	-0.132868
H107	H	2.153200	-0.709830	-0.183940
H108	H	2.091754	-0.674201	-0.041064
C109	C	2.266923	-0.593665	-0.041963
C110	C	2.277085	-0.643115	-0.104695
H111	H	2.348438	-0.577347	-0.024579
H112	H	2.222842	-0.572574	-0.093275
H113	H	2.222601	-0.597533	0.034533
H114	H	2.321392	-0.639246	-0.181197
H115	H	2.321177	-0.664205	-0.053396
O116	O	2.079703	-0.745821	-0.209303
C117	C	2.166189	-0.776660	-0.274640
H118	H	2.181338	-0.762816	-0.372879
H119	H	2.127842	-0.819521	-0.281841
C120	C	2.273394	-0.788150	-0.082917
C121	C	2.292008	-0.771144	-0.203573
H122	H	2.351004	-0.784750	-0.039078
H123	H	2.215124	-0.767375	-0.038897
H124	H	2.241434	-0.823867	-0.088935
H125	H	2.323952	-0.735427	-0.197554
H126	H	2.350287	-0.791913	-0.247591
H127	H	1.993371	-0.397220	-0.308879
H128	H	1.993835	-0.899554	-0.308979
O129	O	2.005806	-1.002107	-0.295658
C130	C	2.092270	-1.032941	-0.361043
H131	H	2.107397	-1.019084	-0.459273
H132	H	2.053913	-1.075801	-0.368269
C133	C	2.199520	-1.044462	-0.169365
C134	C	2.218107	-1.027441	-0.290009
H135	H	2.277141	-1.041072	-0.125547
H136	H	2.141265	-1.023690	-0.125313
H137	H	2.167553	-1.080178	-0.175404
H138	H	2.250059	-0.991724	-0.283969
H139	H	2.276371	-1.048207	-0.334060
O140	O	1.713092	-0.914693	-0.635755
C141	C	1.647727	-0.955013	-0.711940
H142	H	1.639513	-0.992592	-0.660881
H143	H	1.700925	-0.961996	-0.803741
C144	C	1.525644	-0.892706	-0.802836
C145	C	1.515548	-0.938861	-0.740120
H146	H	1.444112	-0.882742	-0.820225
H147	H	1.569685	-0.865542	-0.751513
H148	H	1.569981	-0.898531	-0.879330
H149	H	1.471226	-0.933033	-0.663621
H150	H	1.471496	-0.966024	-0.791432
H151	H	1.724930	-1.017144	-0.622152
O152	O	1.639140	-0.776145	-0.722185
C153	C	1.676067	-0.765460	-0.845126
H154	H	1.776765	-0.747165	-0.843847
H155	H	1.611291	-0.737040	-0.882994
C156	C	1.544201	-0.839362	-0.931564
C157	C	1.667884	-0.816896	-0.929995
H158	H	1.539149	-0.871090	-0.983918
H159	H	1.519318	-0.846560	-0.848737
H160	H	1.490235	-0.815674	-0.963117
H161	H	1.721846	-0.840581	-0.898427
H162	H	1.692776	-0.809703	-1.012819
O163	O	1.639096	-0.668509	-0.722103
C164	C	1.716662	-0.636789	-0.797692
H165	H	1.816076	-0.650042	-0.797959
H166	H	1.717988	-0.594131	-0.758569
C167	C	1.543203	-0.625582	-0.932418
C168	C	1.665304	-0.641862	-0.932755
H169	H	1.511521	-0.628709	-1.015730
H170	H	1.490943	-0.646950	-0.881490
H171	H	1.544324	-0.590035	-0.899810
H172	H	1.664178	-0.677410	-0.965348
H173	H	1.717562	-0.620499	-0.983692
O174	O	1.712955	-0.412241	-0.635723
C175	C	1.790544	-0.380522	-0.711293
H176	H	1.889951	-0.393784	-0.711558
H177	H	1.791889	-0.337866	-0.672157
C178	C	1.617109	-0.369290	-0.846028
C179	C	1.739199	-0.385582	-0.846362
H180	H	1.585435	-0.372409	-0.929343
H181	H	1.564834	-0.390658	-0.795113
H182	H	1.618246	-0.333745	-0.813408
H183	H	1.738059	-0.421129	-0.878966
H184	H	1.791473	-0.364220	-0.897286
H185	H	1.724505	-0.514818	-0.622074
