data_functionalizedCrystal
_audit_creation_method	'MofGen! by Chris Wilmer'
_symmetry_space_group_name_H-M	'P1'
_symmetry_Int_Tables_number	1
_symmetry_cell_setting	triclinic
loop_
_symmetry_equiv_pos_as_xyz
  x,y,z
_cell_length_a	9.065215
_cell_length_b	9.065218
_cell_length_c	7.540329
_cell_angle_alpha	89.999725
_cell_angle_beta	89.998457
_cell_angle_gamma	85.015291
loop_
_atom_site_label
_atom_site_type_symbol
_atom_site_fract_x
_atom_site_fract_y
_atom_site_fract_z
O1	O	1.960399	0.216331	-0.147454
O2	O	2.293733	0.549665	0.185879
O3	O	2.627066	0.882998	0.519213
O4	O	1.531114	0.234082	-0.147461
O5	O	1.864447	0.567416	0.185872
O6	O	2.197781	0.900749	0.519205
O7	O	1.754630	0.010564	-0.147454
O8	O	2.087963	0.343898	0.185880
O9	O	2.421296	0.677231	0.519213
O10	O	1.736883	0.439849	-0.147461
O11	O	2.070217	0.773183	0.185872
O12	O	2.403550	1.106516	0.519205
O13	O	1.754620	0.010567	0.147511
O14	O	2.087953	0.343901	0.480845
O15	O	2.421286	0.677234	0.814178
O16	O	1.531104	0.234085	0.147504
O17	O	1.864437	0.567419	0.480837
O18	O	2.197770	0.900752	0.814170
O19	O	1.960389	0.216334	0.147511
O20	O	2.293722	0.549668	0.480844
O21	O	2.627056	0.883001	0.814178
Cu22	Cu	1.745745	0.225210	0.174440
Cu23	Cu	2.079079	0.558543	0.507773
Cu24	Cu	2.412412	0.891877	0.841107
Cu25	Cu	1.745757	0.225206	-0.174390
Cu26	Cu	2.079091	0.558540	0.158943
Cu27	Cu	2.412424	0.891873	0.492276
O28	O	1.736873	0.439852	0.147504
O29	O	2.070206	0.773186	0.480837
O30	O	2.403540	1.106519	0.814170
C31	C	1.476122	0.232379	0.000020
C32	C	1.809455	0.565712	0.333354
C33	C	2.142789	0.899045	0.666687
C34	C	1.312279	0.227281	0.000017
C35	C	1.645612	0.560614	0.333351
C36	C	1.978946	0.893947	0.666684
C37	C	1.752919	-0.044421	0.000026
C38	C	2.086252	0.288913	0.333359
C39	C	2.419586	0.622246	0.666692
C40	C	1.747819	-0.208264	0.000017
C41	C	2.081153	0.125070	0.333351
C42	C	2.414486	0.458403	0.666684
C43	C	2.015381	0.218038	0.000026
C44	C	2.348714	0.551371	0.333359
C45	C	2.682047	0.884704	0.666692
C46	C	2.179224	0.223136	0.000017
C47	C	2.512557	0.556469	0.333350
C48	C	2.845891	0.889802	0.666684
C49	C	1.738584	0.494837	0.000020
C50	C	2.071917	0.828171	0.333354
C51	C	2.405250	1.161504	0.666687
C52	C	1.743683	0.658680	0.000017
C53	C	2.077017	0.992014	0.333350
C54	C	2.410350	1.325347	0.666684
N55	N	1.745748	0.225212	0.419789
N56	N	2.079081	0.558545	0.753122
N57	N	2.412414	0.891879	1.086455
N58	N	1.745759	0.225210	0.580261
N59	N	2.079092	0.558543	0.913595
N60	N	2.412425	0.891876	1.246928
