data_functionalizedCrystal
_audit_creation_method	'MofGen! by Chris Wilmer'
_symmetry_space_group_name_H-M	'P1'
_symmetry_Int_Tables_number	1
_symmetry_cell_setting	triclinic
loop_
_symmetry_equiv_pos_as_xyz
  x,y,z
_cell_length_a	21.295417
_cell_length_b	12.759401
_cell_length_c	21.295420
_cell_angle_alpha	89.986727
_cell_angle_beta	90.017552
_cell_angle_gamma	89.971285
loop_
_atom_site_label
_atom_site_type_symbol
_atom_site_fract_x
_atom_site_fract_y
_atom_site_fract_z
Zn1	Zn	-0.250736	-1.606075	0.355874
Zn2	Zn	-0.355981	-1.605940	0.250600
Zn3	Zn	-0.250726	-1.430396	0.250623
Zn4	Zn	-0.355968	-1.430317	0.355835
O5	O	-0.303353	-1.518182	0.303233
O6	O	-0.264707	-1.753078	0.341916
O7	O	-0.342019	-1.582630	0.162514
O8	O	-0.162638	-1.453790	0.264611
O9	O	-0.342029	-1.752979	0.264571
O10	O	-0.162646	-1.582861	0.341939
O11	O	-0.264689	-1.453659	0.162531
O12	O	-0.264677	-1.283365	0.264574
O13	O	-0.342008	-1.453655	0.443930
O14	O	-0.341998	-1.283307	0.341872
O15	O	-0.264695	-1.582784	0.443959
O16	O	-0.444069	-1.582554	0.264533
O17	O	-0.444059	-1.453525	0.341850
C18	C	-0.303336	-1.245215	0.303222
C19	C	-0.303344	-1.128438	0.303232
C20	C	-0.263153	-1.073629	0.343567
C21	C	-0.263157	-0.963905	0.343570
C22	C	-0.343547	-0.963810	0.262901
C23	C	-0.343540	-1.073532	0.262896
C24	C	-0.466905	-1.518045	0.303198
C25	C	-0.536873	-1.518082	0.303205
C26	C	-0.569723	-1.585327	0.262987
C27	C	-0.635466	-1.585376	0.263001
C28	C	-0.668355	-1.518161	0.303226
C29	C	-0.635497	-1.450911	0.343451
C30	C	-0.569756	-1.450872	0.343440
N31	N	-0.771620	-1.426253	0.308021
N32	N	-0.834072	-1.426294	0.308028
C33	C	-0.866430	-1.518279	0.303262
N34	N	-0.833977	-1.610224	0.298477
N35	N	-0.771520	-1.610182	0.298468
C36	C	-0.739641	-1.518198	0.303243
C37	C	-0.970566	-1.585584	0.263058
C38	C	-1.036310	-1.585635	0.263077
C39	C	-1.036339	-1.451160	0.343523
C40	C	-0.970597	-1.451119	0.343508
C41	C	-0.937714	-1.518329	0.303272
C42	C	-0.139163	-1.518349	0.303282
C43	C	-0.069195	-1.518420	0.303303
C44	C	-0.303351	-1.518226	0.467423
C45	C	-0.303351	-1.518245	0.537392
C46	C	-0.303365	-0.792216	0.303243
C47	C	-0.303355	-0.908992	0.303241
C48	C	-0.263088	-1.451099	0.570257
C49	C	-0.263091	-1.451080	0.636000
C50	C	-0.303351	-1.518225	0.668874
C51	C	-0.343621	-1.585375	0.636000
C52	C	-0.343621	-1.585385	0.570259
N53	N	-0.308184	-1.610170	0.772110
N54	N	-0.308180	-1.610158	0.834562
C55	C	-0.303354	-1.518198	0.866949
N56	N	-0.298520	-1.426249	0.834525
N57	N	-0.298520	-1.426262	0.772068
C58	C	-0.303356	-1.518221	0.740159
C59	C	-0.263093	-1.451026	0.971100
C60	C	-0.263101	-1.451005	1.036844
C61	C	-0.343628	-1.585310	1.036843
C62	C	-0.343623	-1.585321	0.971101
C63	C	-0.303352	-1.518181	0.938233
C64	C	-0.303367	-1.518140	1.139682
C65	C	-0.303361	-1.518150	1.069714
H66	H	-0.376274	-0.919091	0.230062
Cl67	Cl	-0.212457	-1.366686	0.677326
Cl68	Cl	-0.394062	-1.142441	0.212178
Cl69	Cl	-0.212472	-1.366617	0.929778
H70	H	-1.063117	-1.396437	0.376278
Cl71	Cl	-0.528388	-1.669835	0.212414
H72	H	-0.230429	-0.919283	0.376414
Cl73	Cl	-0.212465	-1.366690	0.528942
Cl74	Cl	-0.929224	-1.670074	0.212477
Cl75	Cl	-0.676772	-1.669918	0.212437
H76	H	-0.376408	-1.640067	0.543500
Cl77	Cl	-0.676843	-1.366418	0.394023
Cl78	Cl	-0.394237	-1.669781	0.677327
Cl79	Cl	-0.528456	-1.366327	0.394003
Cl80	Cl	-1.077608	-1.670187	0.212518
Cl81	Cl	-0.212619	-1.142650	0.394272
H82	H	-0.943848	-1.396357	0.376254
H83	H	-0.376408	-1.640001	0.944341
Cl84	Cl	-0.212497	-1.366556	1.078162
Cl85	Cl	-0.394244	-1.669715	1.078164
