data_functionalizedCrystal
_audit_creation_method	'MofGen! by Chris Wilmer'
_symmetry_space_group_name_H-M	'P1'
_symmetry_Int_Tables_number	1
_symmetry_cell_setting	triclinic
loop_
_symmetry_equiv_pos_as_xyz
  x,y,z
_cell_length_a	16.109301
_cell_length_b	11.792254
_cell_length_c	15.186229
_cell_angle_alpha	90.012130
_cell_angle_beta	90.005553
_cell_angle_gamma	83.830091
loop_
_atom_site_label
_atom_site_type_symbol
_atom_site_fract_x
_atom_site_fract_y
_atom_site_fract_z
O1	O	1.103826	0.145898	0.073181
O2	O	1.437160	0.479232	0.406514
O3	O	1.770493	0.812565	0.739847
O4	O	0.861850	0.164053	0.073193
O5	O	1.195184	0.497387	0.406526
O6	O	1.528517	0.830720	0.739860
O7	O	0.988705	-0.010245	0.073180
O8	O	1.322038	0.323088	0.406514
O9	O	1.655372	0.656422	0.739847
O10	O	0.976972	0.320197	0.073193
O11	O	1.310305	0.653530	0.406527
O12	O	1.643639	0.986864	0.739860
O13	O	0.988688	-0.010273	-0.073277
O14	O	1.322021	0.323060	0.260056
O15	O	1.655354	0.656393	0.593390
O16	O	0.861833	0.164025	-0.073264
O17	O	1.195166	0.497358	0.260069
O18	O	1.528500	0.830692	0.593402
O19	O	1.103809	0.145870	-0.073277
O20	O	1.437142	0.479204	0.260057
O21	O	1.770476	0.812537	0.593390
Zn22	Zn	0.982818	0.154943	-0.096524
Zn23	Zn	1.316152	0.488277	0.236810
Zn24	Zn	1.649485	0.821610	0.570143
Zn25	Zn	0.982841	0.154980	0.096440
Zn26	Zn	1.316175	0.488314	0.429773
Zn27	Zn	1.649508	0.821647	0.763107
O28	O	0.976954	0.320169	-0.073264
O29	O	1.310288	0.653502	0.260069
O30	O	1.643621	0.986835	0.593403
C31	C	0.987957	-0.052543	-0.000048
C32	C	1.321291	0.280790	0.333285
C33	C	1.654624	0.614123	0.666619
C34	C	0.985745	-0.178537	-0.000047
C35	C	1.319078	0.154796	0.333286
C36	C	1.652412	0.488130	0.666619
C37	C	0.830863	0.163304	-0.000034
C38	C	1.164197	0.496637	0.333299
C39	C	1.497530	0.829970	0.666633
C40	C	0.738558	0.161099	-0.000030
C41	C	1.071891	0.494432	0.333304
C42	C	1.405224	0.827766	0.666637
C43	C	0.983947	-0.280858	-0.000044
C44	C	1.317281	0.052475	0.333289
C45	C	1.650614	0.385809	0.666623
C46	C	0.981700	-0.409225	-0.000036
C47	C	1.315033	-0.075891	0.333298
C48	C	1.648366	0.257442	0.666631
C49	C	0.430015	0.257316	-0.000041
C50	C	0.763349	0.590650	0.333292
C51	C	1.096682	0.923983	0.666626
C52	C	0.516745	0.259399	-0.000036
C53	C	0.850079	0.592732	0.333297
C54	C	1.183412	0.926065	0.666631
C55	C	0.535639	0.052599	-0.000032
C56	C	0.868972	0.385933	0.333301
C57	C	1.202305	0.719266	0.666634
C58	C	0.448910	0.050518	-0.000031
C59	C	0.782243	0.383851	0.333302
C60	C	1.115577	0.717185	0.666635
C61	C	0.396100	0.152880	-0.000040
C62	C	0.729434	0.486213	0.333293
C63	C	1.062767	0.819547	0.666627
C64	C	0.569559	0.157044	-0.000036
C65	C	0.902892	0.490377	0.333297
C66	C	1.236226	0.823710	0.666631
C67	C	0.663596	0.159300	-0.000030
C68	C	0.996929	0.492634	0.333303
C69	C	1.330262	0.825967	0.666636
C70	C	0.302058	0.150623	-0.000044
C71	C	0.635391	0.483957	0.333289
C72	C	0.968724	0.817290	0.666623
C73	C	1.134796	0.146620	-0.000048
C74	C	1.468129	0.479953	0.333286
C75	C	1.801463	0.813287	0.666619
C76	C	1.227102	0.148825	-0.000047
C77	C	1.560435	0.482158	0.333287
C78	C	1.893768	0.815491	0.666620
C79	C	0.977702	0.362467	-0.000034
C80	C	1.311036	0.695800	0.333300
C81	C	1.644369	1.029134	0.666633
C82	C	0.979914	0.488461	-0.000029
C83	C	1.313248	0.821794	0.333304
C84	C	1.646581	1.155127	0.666638
N85	N	0.982809	0.154917	-0.228216
N86	N	1.316142	0.488251	0.105117
N87	N	1.649475	0.821584	0.438450
C88	C	0.932101	0.086112	-0.546169
C89	C	1.265435	0.419445	-0.212835
C90	C	1.598768	0.752778	0.120498
C91	C	0.932094	0.086095	-0.453979
C92	C	1.265428	0.419428	-0.120646
C93	C	1.598761	0.752762	0.212688
C94	C	1.033570	0.223806	-0.453921
C95	C	1.366904	0.557139	-0.120588
C96	C	1.700237	0.890473	0.212745
C97	C	1.033581	0.223815	-0.546109
C98	C	1.366915	0.557149	-0.212776
C99	C	1.700248	0.890482	0.120557
C100	C	0.982842	0.154970	-0.592231
C101	C	1.316175	0.488304	-0.258897
C102	C	1.649509	0.821637	0.074436
C103	C	0.982824	0.154944	-0.407853
C104	C	1.316157	0.488278	-0.074520
C105	C	1.649491	0.821611	0.258814
C106	C	0.982817	0.154927	-0.307897
C107	C	1.316150	0.488260	0.025436
C108	C	1.649483	0.821594	0.358770
C109	C	0.982850	0.154986	-0.692193
C110	C	1.316184	0.488319	-0.358860
C111	C	1.649517	0.821652	-0.025527
N112	N	0.982857	0.154997	0.228133
N113	N	1.316191	0.488331	0.561466
N114	N	1.649524	0.821664	0.894799
H115	H	0.387020	0.340666	-0.000048
H116	H	0.720353	0.673999	0.333286
H117	H	1.053686	1.007333	0.666619
H118	H	0.890777	0.030022	-0.416479
H119	H	1.224111	0.363355	-0.083146
H120	H	1.557444	0.696689	0.250187
H121	H	1.074879	0.279859	-0.416358
H122	H	1.408212	0.613192	-0.083025
H123	H	1.741546	0.946525	0.250308
H124	H	1.074905	0.279889	-0.583614
H125	H	1.408238	0.613223	-0.250281
H126	H	1.741571	0.946556	0.083053
H127	H	0.578647	-0.030740	-0.000027
H128	H	0.911980	0.302593	0.333306
H129	H	1.245313	0.635927	0.666640
C130	C	0.554049	0.374278	-0.000042
C131	C	0.887382	0.707612	0.333291
C132	C	1.220715	1.040945	0.666624
H133	H	0.510173	0.434938	-0.000054
H134	H	0.843507	0.768272	0.333280
H135	H	1.176840	1.101605	0.666613
H136	H	0.587492	0.379409	0.051030
H137	H	0.920825	0.712743	0.384364
H138	H	1.254158	1.046076	0.717697
H139	H	0.587485	0.379370	-0.051122
H140	H	0.920818	0.712703	0.282211
H141	H	1.254151	1.046037	0.615545
C142	C	0.411597	-0.064364	-0.000025
C143	C	0.744930	0.268969	0.333308
C144	C	1.078263	0.602302	0.666641
H145	H	0.352381	-0.050941	-0.000014
H146	H	0.685714	0.282393	0.333319
H147	H	1.019048	0.615726	0.666652
H148	H	0.429683	-0.106531	-0.051095
H149	H	0.763016	0.226802	0.282238
H150	H	1.096350	0.560136	0.615572
H151	H	0.429696	-0.106486	0.051057
H152	H	0.763029	0.226848	0.384390
H153	H	1.096363	0.560181	0.717724
C154	C	0.876291	0.010386	-0.596899
C155	C	1.209624	0.343719	-0.263566
C156	C	1.542958	0.677052	0.069767
H157	H	0.846075	-0.030631	-0.556259
H158	H	1.179408	0.302703	-0.222926
H159	H	1.512742	0.636036	0.110407
H160	H	0.838246	0.056890	-0.632857
H161	H	1.171579	0.390224	-0.299524
H162	H	1.504912	0.723557	0.033809
H163	H	0.910127	-0.041840	-0.632868
H164	H	1.243460	0.291493	-0.299535
H165	H	1.576794	0.624827	0.033799
