data_functionalizedCrystal
_audit_creation_method	'MofGen! by Chris Wilmer'
_symmetry_space_group_name_H-M	'P1'
_symmetry_Int_Tables_number	1
_symmetry_cell_setting	triclinic
loop_
_symmetry_equiv_pos_as_xyz
  x,y,z
_cell_length_a	8.559649
_cell_length_b	8.559649
_cell_length_c	7.540329
_cell_angle_alpha	89.998238
_cell_angle_beta	89.997379
_cell_angle_gamma	69.778664
loop_
_atom_site_label
_atom_site_type_symbol
_atom_site_fract_x
_atom_site_fract_y
_atom_site_fract_z
O1	O	2.126878	-0.055037	-0.147455
O2	O	1.651394	0.028744	-0.147461
O3	O	1.931027	-0.250889	-0.147456
O4	O	1.847245	0.224596	-0.147460
O5	O	1.931012	-0.250890	0.147509
O6	O	1.651379	0.028743	0.147504
O7	O	2.126864	-0.055038	0.147510
Cu8	Cu	1.889120	-0.013148	0.174440
Cu9	Cu	1.889137	-0.013146	-0.174391
O10	O	1.847231	0.224595	0.147505
C11	C	1.591077	0.035093	0.000020
C12	C	1.411378	0.053992	0.000017
C13	C	1.937369	-0.311198	0.000024
C14	C	1.956268	-0.490898	0.000014
C15	C	2.187180	-0.061387	0.000025
C16	C	2.366879	-0.080286	0.000016
C17	C	1.840889	0.284904	0.000021
C18	C	1.821990	0.464604	0.000019
N19	N	1.889120	-0.013151	0.419788
N20	N	1.889152	-0.013157	-0.419739
H21	H	1.311990	0.183420	0.000006
C22	C	2.128995	-0.623159	0.000112
C23	C	2.249078	-0.546096	0.000145
C24	C	2.408207	-0.667879	0.000258
H25	H	2.142322	-0.690642	-0.102714
H26	H	2.142164	-0.690549	0.103021
H27	H	2.235915	-0.478734	-0.102754
H28	H	2.235805	-0.478623	0.102963
H29	H	2.421377	-0.735270	0.103168
H30	H	2.421517	-0.735355	-0.102569
H31	H	2.489703	-0.615610	0.000298
C32	C	1.649314	-0.403072	-0.000270
C33	C	1.562971	-0.421446	-0.152001
C34	C	1.403888	-0.299583	-0.152317
H35	H	1.658881	-0.295770	-0.000371
H36	H	1.590387	-0.415267	0.102537
H37	H	1.621883	-0.409237	-0.254782
H38	H	1.553357	-0.528723	-0.151932
H39	H	1.344961	-0.311778	-0.049509
H40	H	1.413472	-0.192289	-0.152413
H41	H	1.345279	-0.312042	-0.255255
H42	H	1.466258	-0.209705	0.000009
