data_functionalizedCrystal
_audit_creation_method	'MofGen! by Chris Wilmer'
_symmetry_space_group_name_H-M	'P1'
_symmetry_Int_Tables_number	1
_symmetry_cell_setting	triclinic
loop_
_symmetry_equiv_pos_as_xyz
  x,y,z
_cell_length_a	8.597340
_cell_length_b	17.038272
_cell_length_c	7.088929
_cell_angle_alpha	83.325468
_cell_angle_beta	103.954719
_cell_angle_gamma	88.193829
loop_
_atom_site_label
_atom_site_type_symbol
_atom_site_fract_x
_atom_site_fract_y
_atom_site_fract_z
O1	O	2.115945	0.107367	0.189570
O2	O	1.652995	0.120129	0.113304
O3	O	1.881720	-0.000066	0.150999
O4	O	1.887220	0.227563	0.151875
O5	O	1.912282	-0.016165	0.474011
O6	O	1.683557	0.104030	0.436316
O7	O	2.146507	0.091268	0.512582
Cu8	Cu	1.917823	0.096179	0.503943
Cu9	Cu	1.881680	0.115218	0.121944
O10	O	1.917782	0.211464	0.474887
C11	C	1.608749	0.111606	0.265004
C12	C	1.431374	0.110185	0.235784
C13	C	1.891996	-0.037241	0.311681
C14	C	1.877064	-0.124026	0.309220
C15	C	2.014161	-0.174217	0.331807
C16	C	2.000119	-0.255758	0.329476
C17	C	1.848980	-0.287109	0.304571
C18	C	1.711872	-0.236911	0.281976
C19	C	1.725914	-0.155370	0.284294
C20	C	1.799371	-0.532838	0.296372
C21	C	1.785340	-0.614385	0.294062
C22	C	2.073588	-0.633226	0.341558
C23	C	2.087618	-0.551684	0.343886
C24	C	1.950509	-0.501493	0.321281
C25	C	1.834624	-0.370458	0.302193
C26	C	1.964865	-0.418145	0.323644
C27	C	2.190753	0.099792	0.360878
C28	C	2.368126	0.101213	0.390086
C29	C	1.907506	0.248639	0.314201
C30	C	1.922437	0.335424	0.316649
N31	N	1.943255	0.082787	0.772622
N32	N	1.856259	0.128604	-0.146734
H33	H	1.449675	0.094613	0.544552
O34	O	1.748867	0.185348	0.738263
C35	C	1.790165	0.260246	0.793863
H36	H	1.923262	0.257720	0.870914
H37	H	1.764660	0.306115	0.657932
H38	H	1.715968	0.277469	0.897696
H39	H	2.033436	0.035311	0.869140
H40	H	1.349817	0.116780	0.081307
O41	O	2.161093	-0.143892	0.355930
C42	C	2.279088	-0.205683	0.375407
H43	H	2.221037	-0.257996	0.305647
H44	H	2.375066	-0.184038	0.298895
H45	H	2.336577	-0.224981	0.537425
H46	H	2.111759	-0.296621	0.347873
H47	H	2.210691	-0.526165	0.364166
O48	O	2.206594	-0.682088	0.363385
C49	C	2.161806	-0.760784	0.356049
H50	H	2.030242	-0.760775	0.274179
H51	H	2.239639	-0.793112	0.276548
H52	H	2.179320	-0.792099	0.511482
H53	H	2.087918	-0.392614	0.343879
O54	O	1.638383	-0.644704	0.269740
C55	C	1.520379	-0.582923	0.250325
H56	H	1.566852	-0.524509	0.197791
H57	H	1.406666	-0.595220	0.139254
H58	H	1.492197	-0.579081	0.398224
H59	H	1.687726	-0.491982	0.277966
H60	H	1.711566	-0.395992	0.281920
O61	O	1.565117	-0.267443	0.257537
C62	C	1.532528	-0.305688	0.087463
H63	H	1.650279	-0.323303	0.051958
H64	H	1.465220	-0.360917	0.113414
H65	H	1.455733	-0.263773	-0.040507
H66	H	1.614274	-0.114505	0.265900
