data_functionalizedCrystal
_audit_creation_method	'MofGen! by Chris Wilmer'
_symmetry_space_group_name_H-M	'P1'
_symmetry_Int_Tables_number	1
_symmetry_cell_setting	triclinic
loop_
_symmetry_equiv_pos_as_xyz
  x,y,z
_cell_length_a	27.732048
_cell_length_b	10.489716
_cell_length_c	8.965430
_cell_angle_alpha	89.996523
_cell_angle_beta	89.995481
_cell_angle_gamma	83.585895
loop_
_atom_site_label
_atom_site_type_symbol
_atom_site_fract_x
_atom_site_fract_y
_atom_site_fract_z
O1	O	0.068131	1.691077	-0.124046
O2	O	0.074544	1.319596	-0.124053
O3	O	0.001013	1.516874	-0.124021
O4	O	0.141662	1.493799	-0.124078
O5	O	0.001018	1.516857	0.124058
O6	O	0.074549	1.319579	0.124026
O7	O	0.068136	1.691060	0.124033
Cu8	Cu	0.071343	1.505318	0.146681
Cu9	Cu	0.071337	1.505338	-0.146701
O10	O	0.141666	1.493782	0.124001
C11	C	0.074064	1.272076	-0.000014
C12	C	0.072623	1.130509	-0.000015
C13	C	0.117714	1.030853	-0.000037
C14	C	0.093889	0.954546	0.122295
C15	C	0.093874	0.954569	-0.122291
C16	C	0.048817	1.056066	0.122418
C17	C	0.048808	1.056095	-0.122278
C18	C	0.024950	0.979838	0.000084
C19	C	-0.016995	1.516381	0.000023
C20	C	-0.070659	1.514923	0.000035
C21	C	-0.408799	1.622319	-0.000039
C22	C	-0.610493	1.616907	-0.000060
O23	O	-0.641132	1.715114	-0.000123
N24	N	-0.630351	1.499929	-0.000061
C25	C	-0.599782	1.384296	-0.000066
O26	O	-0.621301	1.284675	-0.000083
C27	C	-0.398090	1.389709	-0.000056
C28	C	-0.378235	1.506695	-0.000040
C29	C	-0.388944	1.739295	-0.000025
C30	C	-0.338523	1.740646	-0.000012
C31	C	-0.307958	1.625022	-0.000013
C32	C	-0.327814	1.508046	-0.000027
C33	C	-0.367522	1.274077	-0.000072
C34	C	-0.317096	1.275441	-0.000074
C35	C	-0.297241	1.392426	-0.000058
C36	C	-0.246829	1.393774	-0.000015
N37	N	-0.226971	1.510751	-0.000014
C38	C	-0.257536	1.626376	-0.000013
C39	C	-0.705674	1.381463	-0.000069
C40	C	-0.756097	1.380109	-0.000069
C41	C	-0.766804	1.612721	-0.000065
C42	C	-0.716380	1.614073	-0.000055
C43	C	-0.685816	1.498441	-0.000068
C44	C	-0.151649	1.629205	0.000017
C45	C	-0.101223	1.630547	0.000036
C46	C	-0.090521	1.397936	0.000025
C47	C	-0.140942	1.396594	0.000013
C48	C	-0.171505	1.512239	0.000004
O49	O	-0.216161	1.295620	0.000032
O50	O	-0.236008	1.725982	-0.000029
C51	C	-0.459220	1.620967	-0.000053
C52	C	-0.479075	1.503991	-0.000067
C53	C	-0.448511	1.388367	-0.000068
C54	C	-0.529498	1.502638	-0.000067
C55	C	-0.560063	1.618262	-0.000066
C56	C	-0.540205	1.735240	-0.000065
C57	C	-0.489785	1.736591	-0.000052
C58	C	-0.468369	1.271389	-0.000069
C59	C	-0.518790	1.270047	-0.000081
C60	C	-0.549355	1.385671	-0.000080
C61	C	0.159674	1.494275	-0.000046
C62	C	0.213338	1.495733	-0.000068
C63	C	0.068615	1.738580	-0.000009
C64	C	0.070057	1.880147	-0.000017
N65	N	0.071346	1.505314	0.353030
N66	N	0.071329	1.505353	-0.353050
C67	C	0.105341	1.414052	0.450321
C68	C	0.115117	1.529120	0.549733
C69	C	0.061575	1.390294	0.549746
C70	C	0.081144	1.620439	0.450253
C71	C	0.027583	1.481538	0.450258
C72	C	0.037341	1.596690	0.549624
H73	H	-0.085060	1.725814	0.000053
Cl74	Cl	-0.667257	1.236080	-0.000084
Cl75	Cl	-0.543744	1.122964	-0.000093
Cl76	Cl	-0.007056	1.715996	0.616533
H77	H	-0.413825	1.833455	-0.000030
Cl78	Cl	-0.035649	0.944768	0.000217
H79	H	0.152119	1.549256	0.593426
Cl80	Cl	0.123280	0.886106	0.281943
Cl81	Cl	0.019444	1.124575	-0.281937
Cl82	Cl	-0.429952	1.126017	-0.000073
Cl83	Cl	0.178268	1.066295	0.000115
H84	H	-0.322362	1.835908	-0.000005
H85	H	0.089446	1.717746	0.406733
Cl86	Cl	0.019450	1.124215	0.282256
Cl87	Cl	-0.805238	1.758076	-0.000071
H88	H	0.112916	0.910256	-0.225698
H89	H	0.134115	1.336944	0.406720
H90	H	0.053317	1.293008	0.593453
H91	H	-0.009407	1.461366	0.406529
H92	H	-0.176528	1.723375	0.000004
Cl93	Cl	-0.278675	1.130065	-0.000092
Cl94	Cl	-0.691425	1.761145	-0.000036
Cl95	Cl	-0.578639	1.880594	-0.000057
Cl96	Cl	-0.781052	1.233036	-0.000060
H97	H	-0.383679	1.178815	-0.000094
H98	H	-0.157108	1.301335	0.000042
H99	H	-0.065626	1.303798	0.000029
Cl100	Cl	-0.464832	1.883667	-0.000044
