data_functionalizedCrystal
_audit_creation_method	'MofGen! by Chris Wilmer'
_symmetry_space_group_name_H-M	'P1'
_symmetry_Int_Tables_number	1
_symmetry_cell_setting	triclinic
loop_
_symmetry_equiv_pos_as_xyz
  x,y,z
_cell_length_a	18.215407
_cell_length_b	21.295417
_cell_length_c	18.215399
_cell_angle_alpha	89.965438
_cell_angle_beta	89.983176
_cell_angle_gamma	90.030955
loop_
_atom_site_label
_atom_site_type_symbol
_atom_site_fract_x
_atom_site_fract_y
_atom_site_fract_z
Zn1	Zn	1.125021	-0.250593	-0.416094
Zn2	Zn	1.458355	0.082740	-0.082761
Zn3	Zn	1.791688	0.416073	0.250572
Zn4	Zn	1.124924	-0.355869	-0.293019
Zn5	Zn	1.458257	-0.022535	0.040314
Zn6	Zn	1.791591	0.310798	0.373648
Zn7	Zn	1.001960	-0.250618	-0.293042
Zn8	Zn	1.335294	0.082715	0.040292
Zn9	Zn	1.668627	0.416048	0.373625
Zn10	Zn	1.001908	-0.355829	-0.416044
Zn11	Zn	1.335241	-0.022496	-0.082711
Zn12	Zn	1.668574	0.310837	0.250623
O13	O	1.063453	-0.303227	-0.354550
O14	O	1.396787	0.030106	-0.021216
O15	O	1.730120	0.363439	0.312117
O16	O	1.227993	-0.264564	-0.399780
O17	O	1.561326	0.068769	-0.066446
O18	O	1.894659	0.402102	0.266887
O19	O	1.108594	-0.341934	-0.190038
O20	O	1.441927	-0.008601	0.143296
O21	O	1.775261	0.324733	0.476629
O22	O	1.018347	-0.162525	-0.309396
O23	O	1.351681	0.170808	0.023938
O24	O	1.685014	0.504141	0.357271
O25	O	1.227921	-0.341910	-0.309357
O26	O	1.561255	-0.008576	0.023976
O27	O	1.894588	0.324757	0.357310
O28	O	1.108760	-0.162507	-0.399802
O29	O	1.442093	0.170826	-0.066468
O30	O	1.775426	0.504160	0.266865
O31	O	1.018253	-0.264607	-0.190054
O32	O	1.351586	0.068726	0.143279
O33	O	1.684920	0.402060	0.476612
O34	O	0.898969	-0.264569	-0.309347
O35	O	1.232302	0.068765	0.023987
O36	O	1.565636	0.402098	0.357320
O37	O	1.018258	-0.341843	-0.519035
O38	O	1.351591	-0.008509	-0.185702
O39	O	1.684924	0.324824	0.147632
O40	O	0.898930	-0.341867	-0.399716
O41	O	1.232264	-0.008533	-0.066383
O42	O	1.565597	0.324800	0.266951
O43	O	1.108709	-0.264526	-0.519072
O44	O	1.442042	0.068807	-0.185739
O45	O	1.775375	0.402141	0.147595
O46	O	1.108543	-0.443953	-0.309308
O47	O	1.441876	-0.110620	0.024025
O48	O	1.775210	0.222714	0.357359
O49	O	1.018163	-0.443924	-0.399694
O50	O	1.351497	-0.110591	-0.066361
O51	O	1.684830	0.222743	0.266973
C52	C	0.872247	-0.303217	-0.354529
C53	C	1.205580	0.030117	-0.021195
C54	C	1.538914	0.363450	0.312138
C55	C	0.790448	-0.303227	-0.354537
C56	C	1.123782	0.030106	-0.021204
C57	C	1.457115	0.363440	0.312130
C58	C	0.602253	-0.343540	-0.401533
C59	C	0.935587	-0.010206	-0.068200
C60	C	1.268920	0.323127	0.265133
C61	C	0.525395	-0.343542	-0.401542
C62	C	0.858728	-0.010208	-0.068209
C63	C	1.192061	0.323125	0.265124
C64	C	0.525405	-0.262927	-0.307582
C65	C	0.858739	0.070407	0.025751
C66	C	1.192072	0.403740	0.359084
C67	C	0.602263	-0.262922	-0.307577
C68	C	0.935596	0.070411	0.025756
C69	C	1.268929	0.403745	0.359089
C70	C	0.640685	-0.303232	-0.354552
C71	C	0.974018	0.030101	-0.021218
C72	C	1.307351	0.363435	0.312115
C73	C	0.486969	-0.303239	-0.354566
C74	C	0.820302	0.030095	-0.021233
C75	C	1.153635	0.363428	0.312101
C76	C	0.403635	-0.303240	-0.354575
C77	C	0.736968	0.030093	-0.021242
C78	C	1.070302	0.363426	0.312091
C79	C	0.724024	-0.303229	-0.354543
C80	C	1.057357	0.030104	-0.021210
C81	C	1.390690	0.363437	0.312123
C82	C	1.063357	-0.466779	-0.354509
C83	C	1.396690	-0.133446	-0.021176
C84	C	1.730024	0.199888	0.312158
C85	C	1.063383	-0.536747	-0.354516
C86	C	1.396716	-0.203414	-0.021183
C87	C	1.730050	0.129920	0.312150
C88	C	1.110485	-0.569608	-0.307500
C89	C	1.443819	-0.236275	0.025833
C90	C	1.777152	0.097059	0.359166
C91	C	1.110520	-0.635350	-0.307517
C92	C	1.443853	-0.302017	0.025816
C93	C	1.777187	0.031316	0.359150
C94	C	1.063439	-0.668230	-0.354542
C95	C	1.396772	-0.334896	-0.021208
C96	C	1.730106	-0.001563	0.312125
C97	C	1.016333	-0.635361	-0.401566
C98	C	1.349666	-0.302027	-0.068233
C99	C	1.683000	0.031306	0.265100
C100	C	1.016305	-0.569620	-0.401554
C101	C	1.349638	-0.236286	-0.068220
C102	C	1.682972	0.097047	0.265113
N103	N	0.999060	-0.771496	-0.360145
N104	N	1.332393	-0.438162	-0.026811
N105	N	1.665727	-0.104829	0.306522
N106	N	0.999088	-0.833947	-0.360153
N107	N	1.332422	-0.500614	-0.026819
N108	N	1.665755	-0.167280	0.306514
C109	C	1.063521	-0.866304	-0.354584
C110	C	1.396855	-0.532971	-0.021250
C111	C	1.730188	-0.199638	0.312083
N112	N	1.127926	-0.833851	-0.348993
N113	N	1.461259	-0.500518	-0.015659
N114	N	1.794592	-0.167184	0.317674
N115	N	1.127896	-0.771394	-0.348981
N116	N	1.461230	-0.438060	-0.015648
N117	N	1.794563	-0.104727	0.317686
C118	C	1.063464	-0.739515	-0.354561
C119	C	1.396798	-0.406182	-0.021228
C120	C	1.730131	-0.072848	0.312106
C121	C	1.110665	-0.970451	-0.307584
C122	C	1.443998	-0.637117	0.025750
C123	C	1.777332	-0.303784	0.359083
C124	C	1.110701	-1.036194	-0.307605
C125	C	1.444034	-0.702861	0.025728
C126	C	1.777368	-0.369528	0.359061
C127	C	1.016507	-1.036203	-0.401651
C128	C	1.349841	-0.702870	-0.068317
C129	C	1.683174	-0.369537	0.265016
C130	C	1.016478	-0.970461	-0.401633
C131	C	1.349812	-0.637128	-0.068300
C132	C	1.683145	-0.303794	0.265034
C133	C	1.063556	-0.937589	-0.354595
C134	C	1.396889	-0.604255	-0.021262
C135	C	1.730223	-0.270922	0.312071
C136	C	1.255406	-0.303239	-0.354571
C137	C	1.588740	0.030095	-0.021238
C138	C	1.922073	0.363428	0.312095
C139	C	1.337205	-0.303243	-0.354581
C140	C	1.670539	0.030090	-0.021247
C141	C	2.003872	0.363423	0.312086
C142	C	1.063488	-0.303177	-0.546503
C143	C	1.396822	0.030156	-0.213169
C144	C	1.730155	0.363490	0.120164
C145	C	1.063503	-0.303156	-0.628302
C146	C	1.396836	0.030178	-0.294968
C147	C	1.730170	0.363511	0.038365
C148	C	1.063570	-0.139037	-0.354607
C149	C	1.396904	0.194296	-0.021273
C150	C	1.730237	0.527630	0.312060
C151	C	1.063620	-0.069069	-0.354631
C152	C	1.396953	0.264264	-0.021298
C153	C	1.730287	0.597598	0.312036
C154	C	1.016502	-0.262864	-0.816505
C155	C	1.349836	0.070469	-0.483172
C156	C	1.683169	0.403802	-0.149839
C157	C	1.016515	-0.262852	-0.893364
C158	C	1.349848	0.070482	-0.560031
C159	C	1.683182	0.403815	-0.226697
C160	C	1.110592	-0.343372	-0.893336
C161	C	1.443925	-0.010039	-0.560003
C162	C	1.777258	0.323295	-0.226669
C163	C	1.110575	-0.343387	-0.816479
C164	C	1.443908	-0.010054	-0.483145
C165	C	1.777241	0.323279	-0.149812
C166	C	1.063531	-0.303130	-0.778065
C167	C	1.396864	0.030203	-0.444732
C168	C	1.730198	0.363537	-0.111399
C169	C	1.063561	-0.303102	-0.931781
C170	C	1.396894	0.030231	-0.598448
C171	C	1.730228	0.363565	-0.265115
C172	C	1.063575	-0.303088	-1.015115
C173	C	1.396908	0.030245	-0.681782
C174	C	1.730242	0.363578	-0.348449
C175	C	1.063516	-0.303144	-0.694726
C176	C	1.396849	0.030189	-0.361393
C177	C	1.730182	0.363523	-0.028060
C178	C	1.063461	-0.303232	-0.163344
C179	C	1.396794	0.030101	0.169990
C180	C	1.730128	0.363435	0.503323
C181	C	1.063589	-0.303076	-0.081545
C182	C	1.396922	0.030257	0.251788
C183	C	1.730256	0.363591	0.585122
H184	H	0.633554	-0.230095	-0.269319
H185	H	0.966888	0.103239	0.064014
H186	H	1.300221	0.436572	0.397347
C187	C	0.964720	-1.072360	-0.453381
C188	C	1.298053	-0.739026	-0.120047
C189	C	1.631386	-0.405693	0.213286
H190	H	0.936664	-1.043370	-0.481383
H191	H	1.269997	-0.710037	-0.148049
H192	H	1.603331	-0.376703	0.185284
H193	H	0.932683	-1.098051	-0.425208
H194	H	1.266017	-0.764718	-0.091874
H195	H	1.599350	-0.431384	0.241459
H196	H	0.992869	-1.097959	-0.485480
H197	H	1.326202	-0.764626	-0.152147
H198	H	1.659536	-0.431293	0.181186
C199	C	1.162516	-1.072342	-0.255885
C200	C	1.495849	-0.739008	0.077449
C201	C	1.829182	-0.405675	0.410782
H202	H	1.190542	-1.043346	-0.227866
H203	H	1.523876	-0.710012	0.105467
H204	H	1.857209	-0.376679	0.438800
H205	H	1.194578	-1.097943	-0.284067
H206	H	1.527912	-0.764610	0.049266
H207	H	1.861245	-0.431276	0.382600
H208	H	1.134387	-1.098030	-0.223799
H209	H	1.467721	-0.764697	0.109534
H210	H	1.801054	-0.431364	0.442867
C211	C	0.644515	-0.387873	-0.453209
C212	C	0.977849	-0.054539	-0.119876
C213	C	1.311182	0.278794	0.213457
H214	H	0.610616	-0.411874	-0.481196
H215	H	0.943950	-0.078540	-0.147862
H216	H	1.277283	0.254793	0.185471
H217	H	0.674474	-0.415271	-0.425002
H218	H	1.007807	-0.081938	-0.091668
H219	H	1.341140	0.251396	0.241665
H220	H	0.674520	-0.363818	-0.485326
H221	H	1.007853	-0.030485	-0.151992
H222	H	1.341187	0.302849	0.181341
H223	H	0.978120	-0.943704	-0.439914
H224	H	1.311453	-0.610371	-0.106581
H225	H	1.644786	-0.277037	0.226752
C226	C	1.162342	-0.387645	-0.935593
C227	C	1.495676	-0.054312	-0.602260
C228	C	1.829009	0.279021	-0.268926
H229	H	1.155624	-0.381865	-0.986872
H230	H	1.488957	-0.048532	-0.653539
H231	H	1.822290	0.284801	-0.320206
H232	H	1.151544	-0.429944	-0.922980
H233	H	1.484878	-0.096610	-0.589647
H234	H	1.818211	0.236723	-0.256314
H235	H	1.211794	-0.378430	-0.923003
H236	H	1.545127	-0.045097	-0.589669
H237	H	1.878461	0.288236	-0.256336
C238	C	1.162310	-0.387681	-0.774192
C239	C	1.495644	-0.054347	-0.440858
C240	C	1.828977	0.278986	-0.107525
H241	H	1.190338	-0.411648	-0.808076
H242	H	1.523671	-0.078315	-0.474742
H243	H	1.857004	0.255019	-0.141409
H244	H	1.134133	-0.415112	-0.744195
H245	H	1.467466	-0.081779	-0.410862
H246	H	1.800800	0.251554	-0.077529
H247	H	1.194387	-0.363602	-0.744223
H248	H	1.527720	-0.030269	-0.410890
H249	H	1.861053	0.303064	-0.077556
H250	H	0.494113	-0.230108	-0.269336
H251	H	0.827446	0.103225	0.063997
H252	H	1.160779	0.436558	0.397330
C253	C	0.483123	-0.387878	-0.453224
C254	C	0.816457	-0.054545	-0.119890
C255	C	1.149790	0.278788	0.213443
H256	H	0.517016	-0.411885	-0.481195
H257	H	0.850349	-0.078552	-0.147861
H258	H	1.183683	0.254782	0.185472
H259	H	0.453169	-0.363832	-0.485343
H260	H	0.786502	-0.030499	-0.152010
H261	H	1.119836	0.302835	0.181324
H262	H	0.453114	-0.415281	-0.425015
H263	H	0.786447	-0.081948	-0.091681
H264	H	1.119781	0.251385	0.241652
C265	C	0.964753	-0.218589	-0.774249
C266	C	1.298087	0.114745	-0.440916
C267	C	1.631420	0.448078	-0.107583
H268	H	0.971482	-0.224359	-0.722970
H269	H	1.304815	0.108974	-0.389637
H270	H	1.638149	0.442307	-0.056303
H271	H	0.915304	-0.227798	-0.786838
H272	H	1.248637	0.105536	-0.453504
H273	H	1.581970	0.438869	-0.120171
H274	H	0.975559	-0.176289	-0.786866
H275	H	1.308892	0.157044	-0.453532
H276	H	1.642226	0.490378	-0.120199
C277	C	1.162277	-0.533452	-0.255770
C278	C	1.495610	-0.200118	0.077564
C279	C	1.828944	0.133215	0.410897
H280	H	1.190340	-0.562442	-0.227776
H281	H	1.523673	-0.229109	0.105557
H282	H	1.857006	0.104225	0.438891
H283	H	1.134139	-0.507846	-0.223673
H284	H	1.467472	-0.174513	0.109660
H285	H	1.800806	0.158821	0.442993
H286	H	1.194318	-0.507766	-0.283953
H287	H	1.527651	-0.174433	0.049381
H288	H	1.860985	0.158900	0.382714
H289	H	0.978219	-0.230064	-0.924659
H290	H	1.311552	0.103270	-0.591325
H291	H	1.644885	0.436603	-0.257992
H292	H	1.148879	-0.662111	-0.269231
H293	H	1.482212	-0.328778	0.064102
H294	H	1.815546	0.004556	0.397435
H295	H	0.978001	-0.662135	-0.439855
H296	H	1.311334	-0.328802	-0.106522
H297	H	1.644667	0.004531	0.226811
H298	H	1.149001	-0.943685	-0.269285
H299	H	1.482335	-0.610351	0.064048
H300	H	1.815668	-0.277018	0.397382
C301	C	0.964486	-0.533471	-0.453269
C302	C	1.297819	-0.200138	-0.119936
C303	C	1.631153	0.133196	0.213398
H304	H	0.936448	-0.562466	-0.481277
H305	H	1.269781	-0.229133	-0.147944
H306	H	1.603114	0.104201	0.185390
H307	H	0.992605	-0.507779	-0.485353
H308	H	1.325938	-0.174446	-0.152020
H309	H	1.659272	0.158887	0.181314
H310	H	0.932424	-0.507872	-0.425076
H311	H	1.265757	-0.174539	-0.091743
H312	H	1.599090	0.158794	0.241591
