data_functionalizedCrystal
_audit_creation_method	'MofGen! by Chris Wilmer'
_symmetry_space_group_name_H-M	'P1'
_symmetry_Int_Tables_number	1
_symmetry_cell_setting	triclinic
loop_
_symmetry_equiv_pos_as_xyz
  x,y,z
_cell_length_a	11.792241
_cell_length_b	11.792241
_cell_length_c	14.185569
_cell_angle_alpha	76.753184
_cell_angle_beta	103.250243
_cell_angle_gamma	84.193416
loop_
_atom_site_label
_atom_site_type_symbol
_atom_site_fract_x
_atom_site_fract_y
_atom_site_fract_z
O1	O	1.481350	0.181114	-0.083323
O2	O	1.151001	0.197154	-0.083346
O3	O	1.324194	0.023961	-0.083327
O4	O	1.308157	0.354307	-0.083342
O5	O	1.375357	-0.027196	0.083513
O6	O	1.202164	0.145997	0.083494
O7	O	1.532512	0.129957	0.083517
Cu8	Cu	1.372010	0.133306	0.098739
Cu9	Cu	1.311504	0.193805	-0.098569
O10	O	1.359319	0.303150	0.083498
C11	C	1.134291	0.170569	0.000071
C12	C	1.008274	0.167557	0.000062
C13	C	0.777571	0.162006	0.000091
C14	C	0.905952	0.165090	0.000075
C15	C	1.348768	-0.043908	0.000093
C16	C	1.345754	-0.169922	0.000091
C17	C	1.340205	-0.400629	0.000074
C18	C	1.343288	-0.272246	0.000084
C19	C	1.549222	0.156542	0.000098
C20	C	1.675237	0.159556	0.000100
C21	C	1.334745	0.371020	0.000076
C22	C	1.337757	0.497035	0.000071
N23	N	1.414575	0.090753	0.237515
N24	N	1.268948	0.236349	-0.237344
C25	C	1.143892	0.361319	0.605135
C26	C	1.176142	0.329093	0.710160
C27	C	1.329536	0.175789	0.710138
C28	C	1.297295	0.207997	0.605111
C29	C	1.204473	0.300764	0.552617
C30	C	1.357876	0.147443	0.552593
C31	C	1.325641	0.179653	0.447575
C32	C	1.232825	0.272419	0.395075
C33	C	1.172238	0.332975	0.447599
C34	C	1.450703	0.054682	0.605089
C35	C	1.511284	-0.005873	0.552571
C36	C	1.479044	0.026332	0.447551
C37	C	1.386228	0.119097	0.395051
C38	C	1.539631	-0.034224	0.395027
C39	C	1.507396	-0.002013	0.290008
C40	C	1.353993	0.151308	0.290032
H41	H	1.278401	0.226840	0.247290
H42	H	1.206584	0.298647	0.309562
H43	H	1.586864	-0.081402	0.595324
Cl44	Cl	1.656329	-0.150829	0.461028
H45	H	1.405116	0.100260	0.752890
Cl46	Cl	1.583562	-0.078139	0.223985
H47	H	1.096645	0.408506	0.404857
H48	H	1.068299	0.436851	0.562393
H49	H	1.126802	0.378414	0.752915
Cl50	Cl	1.491228	0.014198	0.737113
