data_functionalizedCrystal
_audit_creation_method	'MofGen! by Chris Wilmer'
_symmetry_space_group_name_H-M	'P1'
_symmetry_Int_Tables_number	1
_symmetry_cell_setting	triclinic
loop_
_symmetry_equiv_pos_as_xyz
  x,y,z
_cell_length_a	19.851628
_cell_length_b	21.606444
_cell_length_c	21.606444
_cell_angle_alpha	60.001331
_cell_angle_beta	90.005276
_cell_angle_gamma	59.997133
loop_
_atom_site_label
_atom_site_type_symbol
_atom_site_fract_x
_atom_site_fract_y
_atom_site_fract_z
Zr1	Zr	0.648965	0.677381	-0.081128
O2	O	0.541391	0.806515	-0.179963
O3	O	0.681943	0.548258	-0.050833
O4	O	0.681934	0.677382	-0.179951
O5	O	0.541405	0.677387	0.051009
O6	O	0.792796	0.677370	-0.179939
O7	O	0.541400	0.677391	-0.050845
O8	O	0.792812	0.446391	0.051030
O9	O	0.541390	0.908366	-0.179960
O10	O	0.778741	0.601355	-0.037900
O11	O	0.696011	0.601361	0.038104
O12	O	0.696001	0.753387	-0.113917
O13	O	0.613270	0.753393	-0.037913
Zr14	Zr	0.825786	0.677355	0.081337
Zr15	Zr	0.825777	0.677362	-0.081109
Zr16	Zr	0.648974	0.677374	0.081317
Zr17	Zr	0.648963	0.839821	-0.081123
Zr18	Zr	0.825787	0.514915	0.081332
O19	O	0.792807	0.806478	0.051042
O20	O	0.792795	0.806488	-0.179935
O21	O	0.541404	0.806505	0.051014
O22	O	0.933359	0.548221	0.180172
O23	O	0.933347	0.548231	-0.050805
O24	O	0.681956	0.548248	0.180144
O25	O	0.933345	0.677349	-0.050801
O26	O	0.792816	0.677354	0.180160
O27	O	0.681954	0.677366	0.180148
O28	O	0.933351	0.677345	0.051053
O29	O	0.681932	0.908351	-0.179944
O30	O	0.792819	0.446385	0.180153
O31	O	0.933360	0.446370	0.180168
O32	O	0.933353	0.446375	0.051046
O33	O	0.541397	0.908360	-0.050837
O34	O	0.681939	0.908345	-0.050821
O35	O	0.778750	0.601349	0.114125
O36	O	0.861481	0.601343	0.038122
O37	O	0.778740	0.753375	-0.037895
O38	O	0.696009	0.753381	0.038108
C39	C	0.737378	0.474180	0.000098
C40	C	0.737378	0.405220	0.000095
C41	C	0.780561	0.372819	-0.039579
C42	C	0.780564	0.308019	-0.039573
C43	C	0.737379	0.275625	0.000102
C44	C	0.694195	0.308029	0.039781
C45	C	0.694197	0.372823	0.039780
C46	C	0.694185	0.046719	0.039787
C47	C	0.694184	-0.018078	0.039783
C48	C	0.780552	-0.018084	-0.039566
C49	C	0.780554	0.046710	-0.039567
C50	C	0.737374	0.079104	0.000115
C51	C	0.737373	0.149367	0.000110
C52	C	0.737375	0.205369	0.000103
C53	C	0.516211	0.677392	0.000080
C54	C	0.441149	0.677400	0.000071
C55	C	0.214691	0.760275	-0.041351
C56	C	0.192328	0.718841	-0.071387
C57	C	0.303743	0.677377	0.000093
C58	C	0.192365	0.718817	0.030115
C59	C	0.171011	0.677362	0.000114
C60	C	0.282369	0.635943	-0.029984
C61	C	0.282403	0.635931	0.071556
C62	C	0.260094	0.594436	0.041539
C63	C	0.380205	0.677389	0.000079
C64	C	0.094554	0.677344	0.000126
C65	C	0.958540	0.677344	0.000129
C66	C	1.033601	0.677336	0.000137
C67	C	0.737364	0.677377	-0.203090
C68	C	0.737360	0.677380	-0.272053
C69	C	0.737373	0.880556	0.000111
C70	C	0.737372	0.949516	0.000113
C71	C	0.694170	0.756738	-0.344131
C72	C	0.694177	0.756736	-0.408926
C73	C	0.737370	0.677374	-0.401641
C74	C	0.780566	0.598009	-0.329554
C75	C	0.780563	0.598012	-0.264761
C76	C	0.780579	0.597994	-0.590857
C77	C	0.780576	0.597997	-0.655658
C78	C	0.694193	0.756717	-0.735022
C79	C	0.694190	0.756721	-0.670229
C80	C	0.737389	0.677357	-0.598149
C81	C	0.737382	0.677360	-0.527891
C82	C	0.737373	0.677369	-0.471897
C83	C	0.737386	0.677359	0.203299
C84	C	0.737390	0.677356	0.272261
C85	C	0.958542	0.474156	0.000122
C86	C	1.033604	0.405188	0.000129
C87	C	0.737389	0.474171	0.203292
C88	C	0.737393	0.405208	0.272252
C89	C	0.958553	0.474147	0.203317
C90	C	1.033619	0.405176	0.272286
C91	C	0.516197	0.880589	-0.203108
C92	C	0.441131	0.949560	-0.272077
C93	C	0.516208	0.880580	0.000086
C94	C	0.441146	0.949548	0.000080
C95	C	0.737362	0.880565	-0.203084
C96	C	0.737357	0.949528	-0.272044
C97	C	1.025665	0.372806	-0.039558
C98	C	1.096187	0.308012	-0.039567
C99	C	1.174647	0.275597	0.000115
C100	C	1.182585	0.307985	0.039802
C101	C	1.112064	0.372782	0.039807
C102	C	0.780584	0.372816	0.344326
C103	C	0.780586	0.308027	0.409128
C104	C	0.737400	0.275627	0.401854
C105	C	0.694204	0.308025	0.329773
C106	C	0.694198	0.372818	0.264973
C107	C	1.112063	0.372784	0.265001
C108	C	1.182602	0.307987	0.329798
C109	C	1.174696	0.275579	0.401879
C110	C	1.096244	0.307978	0.409162
C111	C	1.025706	0.372778	0.344366
C112	C	0.362688	0.981960	-0.264792
C113	C	0.292149	1.046777	-0.329589
C114	C	0.300055	1.079188	-0.401670
C115	C	0.378507	1.046785	-0.408953
C116	C	0.449044	0.981974	-0.344157
C117	C	0.449085	0.981937	0.039760
C118	C	0.378563	1.046749	0.039751
C119	C	0.300103	1.079166	0.000067
C120	C	0.292166	1.046775	-0.039618
C121	C	0.362687	0.981969	-0.039613
C122	C	0.780551	0.981907	-0.264746
C123	C	0.780563	1.046697	-0.329535
C124	C	0.737375	1.079110	-0.401621
C125	C	0.694180	1.046724	-0.408918
C126	C	0.694174	0.981931	-0.344130
H127	H	0.659037	0.281644	0.072089
C128	C	0.646668	1.082391	-0.488217
C129	C	0.646674	1.153669	-0.559475
C130	C	0.599157	1.189343	-0.638776
C131	C	0.551634	1.153740	-0.646818
C132	C	0.551627	1.082458	-0.575558
C133	C	0.599144	1.046784	-0.496257
H134	H	0.681855	1.180028	-0.553524
H135	H	0.599162	1.242111	-0.691527
H136	H	0.516459	1.180149	-0.705521
H137	H	0.516446	1.056099	-0.581509
H138	H	0.599138	0.994016	-0.443506
H139	H	1.232138	0.222815	0.454634
H140	H	0.658996	0.955575	-0.350083
C141	C	0.387194	1.082437	-0.488247
C142	C	0.432499	1.020081	-0.512082
C143	C	0.441182	1.055731	-0.591378
C144	C	0.404559	1.153737	-0.646838
C145	C	0.359250	1.216100	-0.623004
C146	C	0.350568	1.180450	-0.543709
H147	H	0.459613	0.947525	-0.471026
H148	H	0.474723	1.009565	-0.609021
H149	H	0.410987	1.180127	-0.705537
H150	H	0.332137	1.288655	-0.664061
H151	H	0.317027	1.226615	-0.526066
C152	C	0.828064	0.408451	-0.083225
C153	C	0.875567	0.372805	-0.126862
C154	C	0.923074	0.408434	-0.170508
C155	C	0.923077	0.479708	-0.170516
C156	C	0.875572	0.515358	-0.126877
C157	C	0.828066	0.479730	-0.083231
H158	H	0.875567	0.320040	-0.126858
H159	H	0.958240	0.382043	-0.202813
H160	H	0.958244	0.506083	-0.202826
H161	H	0.875573	0.568123	-0.126881
H162	H	0.792900	0.506120	-0.050926
C163	C	0.939419	0.408398	0.352386
C164	C	0.861820	0.479672	0.281123
C165	C	0.775534	0.515288	0.289150
C166	C	0.766847	0.479629	0.368441
C167	C	0.844449	0.408351	0.439710
C168	C	0.930735	0.372735	0.431683
H169	H	0.868248	0.506072	0.222422
H170	H	0.718088	0.568053	0.236392
H171	H	0.702973	0.505994	0.374383
H172	H	0.838021	0.381950	0.498410
H173	H	0.988181	0.319970	0.484441
H174	H	0.815752	0.533367	-0.649718
H175	H	0.242612	1.131961	-0.454425
H176	H	0.228274	1.073179	-0.071927
C177	C	0.535386	0.946291	0.083412
C178	C	0.544101	0.981938	0.127047
C179	C	0.630399	0.946303	0.170697
C180	C	0.707982	0.875020	0.170711
C181	C	0.699269	0.839369	0.127074
C182	C	0.612971	0.875005	0.083424
H183	H	0.486668	1.034710	0.127038
H184	H	0.636849	0.972694	0.203000
H185	H	0.771865	0.848640	0.203023
H186	H	0.756703	0.786598	0.127083
H187	H	0.606522	0.848613	0.051121
H188	H	0.815752	0.399189	0.350263
H189	H	0.815716	0.073086	-0.071877
H190	H	1.246476	0.281583	0.072110
H191	H	0.815736	1.073059	-0.323579
C192	C	0.646681	0.082345	0.083435
C193	C	0.669240	0.019966	0.169623
C194	C	0.621732	0.055591	0.213275
C195	C	0.551666	0.153595	0.170738
C196	C	0.529104	0.215980	0.084545
C197	C	0.576612	0.180355	0.040894
H198	H	0.721110	-0.052588	0.201115
H199	H	0.638435	0.009409	0.277081
H200	H	0.516498	0.179967	0.203052
H201	H	0.477234	0.288534	0.053053
H202	H	0.559909	0.226537	-0.022912
C203	C	0.387308	1.082361	0.083415
C204	C	0.432658	1.126874	0.062717
C205	C	0.441406	1.162482	0.106383
C206	C	0.404803	1.153578	0.170746
C207	C	0.359450	1.109063	0.191447
C208	C	0.350703	1.073454	0.147782
H209	H	0.459756	1.133468	0.015069
H210	H	0.474979	1.195435	0.091058
H211	H	0.411279	1.179937	0.203070
H212	H	0.332352	1.102469	0.239096
H213	H	0.317129	1.040502	0.163107
H214	H	0.659009	0.821358	-0.467614
C215	C	0.646694	0.408435	0.185692
C216	C	0.646682	0.479701	0.114404
C217	C	0.599175	0.515314	0.035125
C218	C	0.551682	0.479663	0.027134
C219	C	0.551693	0.408394	0.098424
C220	C	0.599199	0.372780	0.177703
H221	H	0.681841	0.506095	0.120318
H222	H	0.599167	0.568072	-0.017648
H223	H	0.516515	0.506026	-0.031554
H224	H	0.516534	0.381999	0.092510
H225	H	0.599207	0.320022	0.230476
H226	H	0.659014	0.821346	-0.676168
C227	C	0.353946	0.946334	-0.083253
C228	C	0.267638	0.981992	-0.126895
C229	C	0.258890	0.946360	-0.170536
C230	C	0.336449	0.875071	-0.170536
C231	C	0.422763	0.839409	-0.126893
C232	C	0.431511	0.875040	-0.083251
H233	H	0.210218	1.034768	-0.126896
H234	H	0.194994	0.972760	-0.202844
H235	H	0.329973	0.848694	-0.202842
H236	H	0.480183	0.786632	-0.126891
H237	H	0.495407	0.848641	-0.050944
C238	C	1.120774	0.408426	0.185717
C239	C	1.207070	0.372790	0.177720
C240	C	1.215790	0.408432	0.098439
C241	C	1.138214	0.479710	0.027154
C242	C	1.051912	0.515351	0.035149
C243	C	1.043192	0.479709	0.114430
H244	H	1.264502	0.320022	0.230491
H245	H	1.279677	0.382048	0.092521
H246	H	1.144669	0.506094	-0.031535
H247	H	0.994480	0.568119	-0.017622
H248	H	0.979305	0.506093	0.120348
C249	C	0.828069	0.946255	-0.185455
C250	C	0.875588	0.981875	-0.177444
C251	C	0.923115	0.946222	-0.098156
C252	C	0.923124	0.874949	-0.026880
C253	C	0.875603	0.839325	-0.034890
C254	C	0.828076	0.874978	-0.114177
H255	H	0.875583	1.034639	-0.230208
H256	H	0.958293	0.972594	-0.092227
H257	H	0.958306	0.848557	0.031813
H258	H	0.875608	0.786561	0.017875
H259	H	0.792898	0.848607	-0.120106
H260	H	0.815727	0.281638	-0.071878
C261	C	0.205859	1.082403	-0.321566
C262	C	0.179943	1.126919	-0.279899
C263	C	0.093657	1.162542	-0.271873
C264	C	0.033286	1.153648	-0.305513
C265	C	0.059200	1.109130	-0.347183
C266	C	0.145487	1.073507	-0.355209
H267	H	0.224635	1.133505	-0.254993
H268	H	0.074474	1.195497	-0.241026
H269	H	-0.030588	1.180017	-0.299572
H270	H	0.014509	1.102544	-0.372089
H271	H	0.164670	1.040552	-0.386056
H272	H	0.737411	0.222869	0.454625
H273	H	0.512915	0.955594	-0.350097
H274	H	0.815715	-0.044470	-0.071875
H275	H	0.659016	-0.044452	0.072094
H276	H	0.659031	0.399205	0.072084
H277	H	0.815764	0.281656	0.467813
C278	C	0.828085	0.510693	-0.511578
C279	C	0.921898	0.445205	-0.487741
C280	C	0.969404	0.357898	-0.408456
C281	C	0.923098	0.336079	-0.353009
C282	C	0.829280	0.401568	-0.376844
C283	C	0.781774	0.488875	-0.456129
H284	H	0.956181	0.461356	-0.528787
H285	H	1.038854	0.309419	-0.390812
H286	H	0.958265	0.271449	-0.294318
H287	H	0.794997	0.385417	-0.335798
H288	H	0.712324	0.537354	-0.473773
H289	H	0.196237	0.830369	-0.076449
H290	H	0.659043	0.281635	0.323861
H291	H	0.242687	1.131936	0.000070
H292	H	0.153514	0.753878	-0.131814
H293	H	0.815739	0.533391	-0.323627
H294	H	0.321063	0.600933	-0.055435
C295	C	0.285217	0.499673	0.088884
C296	C	0.336851	0.437668	0.066152
C297	C	0.361969	0.342908	0.113492
C298	C	0.335453	0.310152	0.183562
C299	C	0.283815	0.372158	0.206297
C300	C	0.258697	0.466918	0.158958
H301	H	0.356483	0.461915	0.014279
H302	H	0.400195	0.297008	0.096661
H303	H	0.354046	0.240005	0.218605
H304	H	0.264183	0.347911	0.258171
H305	H	0.220472	0.512818	0.175788
H306	H	0.321215	0.600923	0.131971
H307	H	0.153564	0.753867	0.055496
H308	H	0.658992	0.821364	-0.350073
H309	H	0.659021	0.821340	-0.793720
H310	H	0.737387	1.131869	-0.454370
H311	H	0.815733	0.533390	-0.206071
H312	H	0.961785	0.399198	-0.071881
H313	H	1.232063	0.222834	0.000106
H314	H	1.089708	0.281649	-0.071886
H315	H	1.118539	0.399139	0.072129
H316	H	1.246475	0.281614	0.323854
H317	H	1.089818	0.281583	0.467859
H318	H	0.356234	0.955575	-0.206106
