data_functionalizedCrystal
_audit_creation_method	'MofGen! by Chris Wilmer'
_symmetry_space_group_name_H-M	'P1'
_symmetry_Int_Tables_number	1
_symmetry_cell_setting	triclinic
loop_
_symmetry_equiv_pos_as_xyz
  x,y,z
_cell_length_a	14.446369
_cell_length_b	23.196402
_cell_length_c	23.196402
_cell_angle_alpha	90.003744
_cell_angle_beta	60.000820
_cell_angle_gamma	60.001144
loop_
_atom_site_label
_atom_site_type_symbol
_atom_site_fract_x
_atom_site_fract_y
_atom_site_fract_z
Zr1	Zr	1.013254	-0.075702	0.555361
O2	O	1.206368	-0.167754	0.463304
O3	O	0.820136	-0.047479	0.583581
O4	O	1.013252	-0.167753	0.583572
O5	O	1.013254	0.047390	0.463321
O6	O	1.013254	-0.167756	0.678442
O7	O	1.013252	-0.047480	0.463313
O8	O	0.667805	0.047392	0.678458
O9	O	1.358704	-0.167758	0.463305
O10	O	0.899571	-0.035449	0.666417
O11	O	0.899571	0.035354	0.595623
O12	O	1.126940	-0.106253	0.595612
O13	O	1.126940	-0.035451	0.524818
Zr14	Zr	1.013261	0.075600	0.706680
Zr15	Zr	1.013257	-0.075707	0.706668
Zr16	Zr	1.013257	0.075605	0.555374
Zr17	Zr	1.256212	-0.075709	0.555362
Zr18	Zr	0.770303	0.075607	0.706679
O19	O	1.206379	0.047377	0.678461
O20	O	1.206374	-0.167762	0.678443
O21	O	1.206374	0.047384	0.463322
O22	O	0.820147	0.167652	0.798737
O23	O	0.820141	-0.047486	0.798719
O24	O	0.820141	0.167660	0.583599
O25	O	1.013260	-0.047492	0.798720
O26	O	1.013263	0.167651	0.678470
O27	O	1.013260	0.167654	0.583600
O28	O	1.013263	0.047378	0.798728
O29	O	1.358707	-0.167763	0.583574
O30	O	0.667808	0.167661	0.678468
O31	O	0.667811	0.167657	0.798737
O32	O	0.667808	0.047388	0.798726
O33	O	1.358707	-0.047490	0.463315
O34	O	1.358710	-0.047494	0.583584
O35	O	0.899574	0.106152	0.666429
O36	O	0.899574	0.035349	0.737224
O37	O	1.126944	-0.035456	0.666419
O38	O	1.126944	0.035347	0.595624
C39	C	0.709354	-0.000042	0.631019
C40	C	0.606212	-0.000039	0.631018
C41	C	1.013253	-0.000044	0.441759
C42	C	1.013251	-0.000042	0.377526
C43	C	1.013262	0.189211	0.631037
C44	C	1.013264	0.253444	0.631042
C45	C	0.459202	0.044821	0.586582
C46	C	0.566822	0.044639	0.586341
C47	C	0.655205	-0.076975	0.598437
C48	C	0.547973	-0.076742	0.598104
C49	C	0.372757	0.031375	0.708067
C50	C	0.478908	0.032945	0.707954
C51	C	1.317161	-0.000060	0.631022
C52	C	1.420303	-0.000063	0.631023
C53	C	1.013253	-0.189312	0.631005
C54	C	1.013251	-0.253546	0.630999
C55	C	1.131945	0.246660	0.594086
C56	C	1.131946	0.307014	0.594075
C57	C	1.013260	0.374152	0.631035
C58	C	0.894564	0.380934	0.667993
C59	C	0.894566	0.320580	0.667997
C60	C	0.922331	0.498090	0.692936
C61	C	0.922335	0.558442	0.692935
C62	C	1.013250	0.560306	0.631023
C63	C	1.104185	0.501805	0.569114
C64	C	1.104186	0.441451	0.569117
C65	C	1.013245	0.439601	0.631035
C66	C	1.131941	0.618963	0.594052
C67	C	1.131938	0.679320	0.594040
C68	C	0.894552	0.753239	0.667965
C69	C	0.894559	0.692882	0.667970
C70	C	1.013257	0.625747	0.631016
C71	C	0.894570	0.036910	0.384310
C72	C	0.894568	0.036913	0.323956
C73	C	1.013254	-0.000050	0.256817
C74	C	1.131951	-0.037004	0.250035
C75	C	1.131949	-0.037000	0.310390
C76	C	1.104183	-0.061963	0.132884
C77	C	1.104180	-0.061969	0.072532
C78	C	1.013264	-0.000061	0.070663
C79	C	0.922330	0.061852	0.129161
C80	C	0.922328	0.061856	0.189515
C81	C	1.013269	-0.000058	0.191369
C82	C	0.894573	0.036898	0.012007
C83	C	0.894577	0.036903	-0.048350
C84	C	1.131962	-0.037021	-0.122270
C85	C	1.131956	-0.037019	-0.061913
C86	C	1.013258	-0.000061	0.005223
C87	C	1.013262	-0.000058	0.820282
C88	C	1.013264	-0.000060	0.884516
C89	C	0.709359	-0.000049	0.820281
C90	C	0.606218	-0.000048	0.884514
C91	C	0.709359	0.189219	0.631035
C92	C	0.606218	0.253456	0.631040
C93	C	0.709363	0.189213	0.820297
C94	C	0.606225	0.253447	0.884535
C95	C	1.317151	-0.189314	0.441745
C96	C	1.420290	-0.253549	0.377507
C97	C	1.317156	-0.000053	0.441761
C98	C	1.420296	-0.000054	0.377528
C99	C	1.317156	-0.189321	0.631006
C100	C	1.420296	-0.253558	0.631002
C101	C	0.557781	-0.037010	0.877718
C102	C	0.460883	-0.037023	0.938066
C103	C	0.412418	-0.000071	1.005209
C104	C	0.460865	0.036892	1.012003
C105	C	0.557768	0.036901	0.951656
C106	C	0.557784	0.320584	0.668002
C107	C	0.460887	0.380947	0.668004
C108	C	0.412418	0.374180	0.631047
C109	C	0.460861	0.307045	0.594080
C110	C	0.557764	0.246683	0.594075
C111	C	0.557790	0.246654	0.951662
C112	C	0.460893	0.307003	1.012027
C113	C	0.412427	0.374145	1.005263
C114	C	0.460872	0.380936	0.938128
C115	C	0.557773	0.320588	0.877765
C116	C	1.468737	-0.246756	0.310379
C117	C	1.565663	-0.307105	0.250015
C118	C	1.614135	-0.374246	0.256779
C119	C	1.565684	-0.381038	0.323913
C120	C	1.468766	-0.320690	0.384276
C121	C	1.468744	0.036902	0.384324
C122	C	1.565669	0.036899	0.323976
C123	C	1.614138	-0.000056	0.256833
C124	C	1.565686	-0.037016	0.250038
C125	C	1.468769	-0.037017	0.310386
C126	C	1.468734	-0.246768	0.667966
C127	C	1.565633	-0.307119	0.667975
C128	C	1.614098	-0.374260	0.631015
C129	C	1.565651	-0.381048	0.594050
C130	C	1.468747	-0.320697	0.594046
H131	H	0.530114	0.101292	0.608196
H132	H	0.370336	0.101615	0.608322
O133	O	0.248624	0.105278	0.744109
H134	H	0.169523	0.107027	0.792247
O135	O	1.718630	-0.439346	0.631018
H136	H	1.681448	-0.471219	0.654147
H137	H	1.228599	-0.067115	-0.067440
H138	H	1.429326	-0.067109	0.304843
O139	O	1.416513	-0.328030	0.554174
H140	H	1.340977	-0.274790	0.560379
H141	H	0.597196	0.326129	0.823109
H142	H	1.693053	-0.000050	0.207700
O143	O	1.617896	0.076777	0.331313
H144	H	1.662015	0.055431	0.360634
H145	H	1.178217	0.503319	0.518700
H146	H	0.494963	0.023208	0.530088
O147	O	1.259956	0.546548	0.554187
H148	H	1.342486	0.551972	0.528476
O149	O	0.307887	0.439293	0.631070
H150	H	0.345068	0.439271	0.576041
O151	O	0.601860	-0.110074	0.523009
H152	H	0.704111	-0.126203	0.487273
O153	O	1.416497	-0.328020	0.456679
H154	H	1.466480	-0.384848	0.451233
O155	O	1.416496	0.076751	0.456739
H156	H	1.466498	0.102434	0.451314
H157	H	0.421384	0.301545	0.563991
O158	O	1.718682	-0.439335	0.191670
H159	H	1.744218	-0.423325	0.143858
O160	O	1.617880	-0.299765	0.177613
H161	H	1.661994	-0.270440	0.171485
H162	H	1.605164	-0.067104	0.195363
H163	H	1.228586	0.673790	0.563941
O164	O	1.416456	-0.174356	0.707840
H165	H	1.466416	-0.179785	0.733551
O166	O	1.416473	-0.174345	0.303068
H167	H	1.340928	-0.133513	0.356315
H168	H	0.683991	-0.111862	0.629251
H169	H	0.848297	0.606068	0.743346
O170	O	0.609819	0.174280	0.554320
H171	H	0.559756	0.179723	0.528671
O172	O	1.617881	-0.299791	0.707843
H173	H	1.567910	-0.242964	0.733530
O174	O	1.617932	-0.453474	0.554207
H175	H	1.536588	-0.459618	0.575574
O176	O	0.408641	-0.076892	0.930728
H177	H	0.301734	-0.039585	0.956466
O178	O	0.684468	0.015749	0.511066
H179	H	0.655535	0.049483	0.481142
O180	O	0.518876	-0.123453	0.638197
H181	H	0.581395	-0.146112	0.657733
H182	H	0.421459	0.301460	1.066685
O183	O	0.777051	-0.110404	0.523916
H184	H	0.802979	-0.072384	0.509968
H185	H	0.439309	0.089624	0.732294
O186	O	0.408576	0.076755	1.084423
H187	H	0.333045	0.070542	1.125238
H188	H	0.500410	0.003654	0.743856
H189	H	0.346782	-0.001161	0.741334
H190	H	1.228598	0.191999	0.563993
O191	O	0.609989	0.076781	0.958989
H192	H	0.559989	0.102480	1.015817
O193	O	0.610069	0.174240	0.958967
H194	H	0.560112	0.179667	1.015790
H195	H	0.421396	0.435611	0.932631
O196	O	1.259956	0.299708	0.554220
H197	H	1.342492	0.242885	0.528528
H198	H	0.333512	-0.000083	1.054342
O199	O	1.202251	0.378355	0.502350
H200	H	1.265472	0.389786	0.459294
H201	H	1.605162	-0.435712	0.329412
O202	O	0.610057	0.327891	0.707862
H203	H	0.560097	0.384715	0.733554
O204	O	0.408631	0.453350	0.707892
H205	H	0.489990	0.459479	0.686550
O206	O	0.766534	0.825644	0.707846
H207	H	0.786469	0.866474	0.701644
O208	O	0.766553	0.700193	0.707864
H209	H	0.684020	0.757017	0.733578
O210	O	0.824272	0.496080	0.759717
H211	H	0.761058	0.546891	0.802767
H212	H	0.797918	0.326109	0.698092
O213	O	0.766548	0.453343	0.707897
H214	H	0.786484	0.494173	0.701705
O215	O	0.307897	0.439234	1.070371
H216	H	0.282355	0.423223	1.118183
O217	O	1.202246	-0.128735	0.134901
H218	H	1.188794	-0.170596	0.127512
O219	O	0.766552	0.076773	0.456721
H220	H	0.684025	0.102473	0.451295
O221	O	0.766559	0.076762	0.331263
H222	H	0.684023	0.102457	0.388086
H223	H	0.848292	0.112268	0.237140
O224	O	0.824266	0.128633	0.127158
H225	H	0.839552	0.118235	0.075360
H226	H	0.797928	0.066999	-0.042819
O227	O	0.766559	0.076766	0.084422
H228	H	0.684028	0.102473	0.078999
H229	H	1.228599	-0.067118	-0.176934
H230	H	1.178220	-0.112382	0.024908
H231	H	1.228586	-0.067099	0.195367
H232	H	0.597240	-0.067110	0.823052
O233	O	1.259959	-0.076865	0.303077
H234	H	1.342493	-0.102572	0.246253
