data_functionalizedCrystal
_audit_creation_method	'MofGen! by Chris Wilmer'
_symmetry_space_group_name_H-M	'P1'
_symmetry_Int_Tables_number	1
_symmetry_cell_setting	triclinic
loop_
_symmetry_equiv_pos_as_xyz
  x,y,z
_cell_length_a	12.837943
_cell_length_b	17.038272
_cell_length_c	11.295483
_cell_angle_alpha	94.391706
_cell_angle_beta	85.461227
_cell_angle_gamma	92.970248
loop_
_atom_site_label
_atom_site_type_symbol
_atom_site_fract_x
_atom_site_fract_y
_atom_site_fract_z
O1	O	1.400057	0.199823	-0.099006
O2	O	1.097361	0.189716	-0.099013
O3	O	1.246909	0.080820	-0.099000
O4	O	1.250509	0.308719	-0.099019
O5	O	1.233773	0.090368	0.099049
O6	O	1.084224	0.199264	0.099036
O7	O	1.386921	0.209371	0.099043
Cu8	Cu	1.234373	0.205189	0.117123
Cu9	Cu	1.249908	0.193897	-0.117093
O10	O	1.237372	0.318267	0.099030
C11	C	1.051871	0.191076	0.000011
C12	C	0.935896	0.180893	0.000008
C13	C	0.705733	0.303310	0.000015
C14	C	0.596764	0.293746	0.000014
C15	C	0.608986	0.152201	0.000013
C16	C	0.717955	0.161765	0.000014
C17	C	0.766324	0.237322	0.000014
C18	C	0.875296	0.246885	0.000007
C19	C	0.887516	0.105342	0.000014
C20	C	0.778546	0.095777	0.000013
C21	C	1.237069	0.056221	0.000024
C22	C	1.227305	-0.031301	0.000024
C23	C	1.316945	-0.074719	0.000027
C24	C	1.307766	-0.156956	0.000015
C25	C	1.208945	-0.195773	0.000009
C26	C	1.119299	-0.152349	0.000002
C27	C	1.128480	-0.070114	0.000005
C28	C	1.176511	-0.443954	-0.000008
C29	C	1.167337	-0.526195	-0.000007
C30	C	1.355805	-0.530796	0.000004
C31	C	1.364977	-0.448559	0.000014
C32	C	1.275331	-0.405143	0.000001
C33	C	1.199560	-0.279832	0.000001
C34	C	1.284718	-0.321086	0.000000
C35	C	1.432411	0.208011	0.000017
C36	C	1.548386	0.218194	0.000011
C37	C	1.247213	0.342865	0.000003
C38	C	1.256977	0.430387	-0.000004
N39	N	1.223454	0.213132	0.281859
N40	N	1.260835	0.185950	-0.281829
C41	C	1.339435	0.128734	0.531158
C42	C	1.331191	0.134742	0.655821
C43	C	1.198717	0.231151	0.655850
C44	C	1.206961	0.225143	0.531187
C45	C	1.277323	0.173934	0.468845
C46	C	1.285572	0.167930	0.344180
C47	C	1.153093	0.264335	0.344211
C48	C	1.144849	0.270343	0.468874
H49	H	0.569577	0.090691	0.000112
C50	C	1.021540	-0.276364	0.000007
C51	C	1.010672	-0.195015	-0.000000
H52	H	0.954475	-0.302700	0.000016
H53	H	1.063326	-0.294111	-0.069053
H54	H	1.054176	-0.287450	0.069077
H55	H	0.978043	-0.183927	-0.069075
H56	H	0.968870	-0.177261	0.069066
C57	C	0.424297	0.341934	0.000013
C58	C	0.530159	0.366281	0.000012
H59	H	0.383180	0.386717	0.000019
H60	H	0.413536	0.307967	-0.069048
H61	H	0.404379	0.314616	0.069081
H62	H	0.550080	0.393594	-0.069062
H63	H	0.540926	0.400261	0.069079
H64	H	1.103515	-0.408614	-0.000018
C65	C	0.616931	0.018266	0.000005
C66	C	0.725373	0.012728	0.000007
H67	H	0.584108	-0.033007	-0.000008
H68	H	0.591989	0.049096	0.069069
H69	H	0.601152	0.042456	-0.069060
H70	H	0.741152	-0.011456	0.069077
H71	H	0.750323	-0.018113	-0.069064
H72	H	1.396734	0.087042	0.480399
H73	H	0.745116	0.364831	0.000013
C74	C	0.984008	0.344657	0.101811
C75	C	0.928473	0.329933	0.000005
H76	H	1.016840	0.395927	0.101805
H77	H	0.937173	0.341314	0.170863
H78	H	1.035689	0.306720	0.101795
H79	H	0.876787	0.367867	0.000025
H80	H	0.975312	0.333283	-0.069065
C81	C	1.462963	0.038843	0.643265
C82	C	1.399467	0.085058	0.724316
H83	H	1.505118	0.008172	0.685554
H84	H	1.420245	0.004940	0.594657
H85	H	1.506603	0.072079	0.594630
H86	H	1.355822	0.051821	0.772946
H87	H	1.442190	0.118964	0.772946
C88	C	1.059983	0.057147	0.000008
C89	C	0.954121	0.032801	0.000011
H90	H	1.101100	0.012364	0.000008
H91	H	1.079901	0.084463	-0.069051
H92	H	1.070744	0.091118	0.069078
H93	H	0.943359	-0.001165	-0.069065
H94	H	0.934198	0.005473	0.069076
C95	C	0.941266	-0.073820	0.000003
C96	C	1.029945	-0.022386	0.000005
H97	H	0.880434	-0.044353	0.000006
H98	H	0.946188	-0.109316	-0.069056
H99	H	0.937028	-0.102664	0.069073
H100	H	1.034187	0.006455	-0.069070
H101	H	1.025022	0.013124	0.069071
H102	H	1.087559	0.312035	0.519647
H103	H	1.365179	-0.289479	-0.000021
H104	H	1.397415	-0.043120	0.000039
H105	H	1.380760	-0.192303	0.000021
H106	H	1.141422	0.272839	0.706625
C107	C	1.415677	0.073230	0.356678
C108	C	1.362908	0.111638	0.275651
H109	H	1.463415	0.038473	0.314371
H110	H	1.452887	0.111143	0.405287
H111	H	1.366514	0.044015	0.405316
H112	H	1.412070	0.140858	0.227018
H113	H	1.325696	0.073720	0.227022
H114	H	1.445447	-0.416960	0.000019
C115	C	1.106377	0.394149	0.305851
C116	C	1.084815	0.314027	0.275718
H117	H	1.064233	0.424827	0.263560
H118	H	1.091394	0.405045	0.389008
H119	H	1.178127	0.406914	0.285399
H120	H	1.013066	0.301260	0.296177
H121	H	1.099791	0.303126	0.192541
H122	H	1.119099	-0.311445	-0.000001
C123	C	1.543016	-0.527083	0.000011
C124	C	1.454341	-0.578521	0.000006
H125	H	1.603850	-0.556547	0.000016
H126	H	1.547254	-0.498240	-0.069047
H127	H	1.538088	-0.491585	0.069082
H128	H	1.459265	-0.614015	-0.069071
H129	H	1.450103	-0.607377	0.069071
C130	C	1.010634	-0.552513	-0.101851
C131	C	1.058710	-0.568870	-0.000029
H132	H	0.943580	-0.578865	-0.101865
H133	H	1.003262	-0.497331	-0.101844
H134	H	1.052450	-0.570264	-0.170900
H135	H	1.016896	-0.551115	0.069020
H136	H	1.066077	-0.624064	-0.000025
