data_functionalizedCrystal
_audit_creation_method	'MofGen! by Chris Wilmer'
_symmetry_space_group_name_H-M	'P1'
_symmetry_Int_Tables_number	1
_symmetry_cell_setting	triclinic
loop_
_symmetry_equiv_pos_as_xyz
  x,y,z
_cell_length_a	16.625548
_cell_length_b	16.625546
_cell_length_c	16.625539
_cell_angle_alpha	89.971468
_cell_angle_beta	89.982945
_cell_angle_gamma	90.023536
loop_
_atom_site_label
_atom_site_type_symbol
_atom_site_fract_x
_atom_site_fract_y
_atom_site_fract_z
Zn1	Zn	-1.232652	0.320992	0.455898
Zn2	Zn	-0.899319	0.654325	0.789231
Zn3	Zn	-0.565986	0.987659	1.122564
Zn4	Zn	-1.232564	0.455831	0.321060
Zn5	Zn	-0.899231	0.789164	0.654393
Zn6	Zn	-0.565897	1.122497	0.987727
Zn7	Zn	-1.097823	0.321018	0.321078
Zn8	Zn	-0.764489	0.654352	0.654411
Zn9	Zn	-0.431156	0.987685	0.987745
Zn10	Zn	-1.097785	0.455789	0.455850
Zn11	Zn	-0.764451	0.789122	0.789183
Zn12	Zn	-0.431118	1.122456	1.122516
O13	O	-1.165206	0.388408	0.388471
O14	O	-0.831873	0.721741	0.721805
O15	O	-0.498539	1.055074	1.055138
O16	O	-1.345473	0.338885	0.438024
O17	O	-1.012140	0.672219	0.771357
O18	O	-0.678806	1.005552	1.104690
O19	O	-1.214669	0.437976	0.208230
O20	O	-0.881336	0.771310	0.541563
O21	O	-0.548002	1.104643	0.874897
O22	O	-1.115761	0.208182	0.338990
O23	O	-0.782428	0.541516	0.672323
O24	O	-0.449094	0.874849	1.005657
O25	O	-1.345408	0.437951	0.338959
O26	O	-1.012075	0.771284	0.672292
O27	O	-0.678741	1.104617	1.005625
O28	O	-1.214820	0.208163	0.438041
O29	O	-0.881487	0.541496	0.771375
O30	O	-0.548153	0.874830	1.104708
O31	O	-1.115675	0.338930	0.208243
O32	O	-0.782342	0.672263	0.541577
O33	O	-0.449008	1.005597	0.874910
O34	O	-0.984985	0.338889	0.338944
O35	O	-0.651652	0.672223	0.672277
O36	O	-0.318319	1.005556	1.005610
O37	O	-1.115696	0.437879	0.568689
O38	O	-0.782363	0.771213	0.902022
O39	O	-0.449030	1.104546	1.235355
O40	O	-0.984957	0.437905	0.437960
O41	O	-0.651624	0.771238	0.771293
O42	O	-0.318291	1.104571	1.104626
O43	O	-1.214783	0.338845	0.568724
O44	O	-0.881450	0.672178	0.902057
O45	O	-0.548117	1.005511	1.235390
O46	O	-1.214632	0.568658	0.338912
O47	O	-0.881299	0.901991	0.672246
O48	O	-0.547966	1.235324	1.005579
O49	O	-1.115611	0.568627	0.437942
O50	O	-0.782277	0.901960	0.771275
O51	O	-0.448944	1.235294	1.104609
C52	C	-0.955715	0.388396	0.388449
C53	C	-0.622382	0.721729	0.721782
C54	C	-0.289048	1.055063	1.055116
C55	C	-0.866094	0.388410	0.388458
C56	C	-0.532761	0.721744	0.721792
C57	C	-0.199427	1.055077	1.055125
C58	C	-1.165130	0.597898	0.388438
C59	C	-0.831796	0.931232	0.721771
C60	C	-0.498463	1.264565	1.055104
C61	C	-1.165171	0.687519	0.388450
C62	C	-0.831837	1.020853	0.721783
C63	C	-0.498504	1.354186	1.055117
C64	C	-1.165245	0.388354	0.598780
C65	C	-0.831912	0.721688	0.932114
C66	C	-0.498579	1.055021	1.265447
C67	C	-1.165262	0.388332	0.688402
C68	C	-0.831929	0.721665	1.021735
C69	C	-0.498596	1.054998	1.355068
C70	C	-1.375515	0.388420	0.388494
C71	C	-1.042181	0.721753	0.721828
C72	C	-0.708848	1.055086	1.055161
C73	C	-1.465136	0.388425	0.388504
C74	C	-1.131803	0.721758	0.721838
C75	C	-0.798469	1.055092	1.055171
C76	C	-0.537918	0.388416	0.388493
C77	C	-0.204585	0.721749	0.721826
C78	C	0.128748	1.055082	1.055159
C79	C	-0.629227	0.388412	0.388481
C80	C	-0.295893	0.721745	0.721814
C81	C	0.037440	1.055079	1.055147
C82	C	-0.702003	0.388414	0.388475
C83	C	-0.368670	0.721747	0.721808
C84	C	-0.035337	1.055080	1.055142
C85	C	-0.793318	0.388409	0.388464
C86	C	-0.459984	0.721742	0.721797
C87	C	-0.126651	1.055076	1.055131
C88	C	-1.165305	0.178099	0.388523
C89	C	-0.831971	0.511432	0.721856
C90	C	-0.498638	0.844765	1.055190
C91	C	-1.165347	0.088477	0.388545
C92	C	-0.832013	0.421811	0.721878
C93	C	-0.498680	0.755144	1.055212
C94	C	-1.165311	1.015695	0.388534
C95	C	-0.831978	1.349028	0.721867
C96	C	-0.498645	1.682362	1.055201
C97	C	-1.165270	0.924387	0.388513
C98	C	-0.831936	1.257720	0.721846
C99	C	-0.498603	1.591053	1.055180
C100	C	-1.165240	0.851610	0.388492
C101	C	-0.831907	1.184944	0.721825
C102	C	-0.498574	1.518277	1.055158
C103	C	-1.165200	0.760296	0.388471
C104	C	-0.831867	1.093629	0.721805
C105	C	-0.498533	1.426963	1.055138
C106	C	-1.165213	0.388402	0.178981
C107	C	-0.831880	0.721736	0.512314
C108	C	-0.498546	1.055069	0.845647
C109	C	-1.165352	0.388198	0.089360
C110	C	-0.832019	0.721531	0.422693
C111	C	-0.498686	1.054865	0.756027
C112	C	-1.165275	0.388314	0.761184
C113	C	-0.831942	0.721647	1.094517
C114	C	-0.498609	1.054980	1.427851
C115	C	-1.165294	0.388284	0.852493
C116	C	-0.831961	0.721617	1.185826
C117	C	-0.498628	1.054950	1.519159
C118	C	-1.165313	0.388255	0.925269
C119	C	-0.831980	0.721589	1.258602
C120	C	-0.498647	1.054922	1.591936
C121	C	-1.165333	0.388226	1.016583
C122	C	-0.832000	0.721560	1.349917
C123	C	-0.498667	1.054893	1.683250
