data_functionalizedCrystal
_audit_creation_method	'MofGen! by Chris Wilmer'
_symmetry_space_group_name_H-M	'P1'
_symmetry_Int_Tables_number	1
_symmetry_cell_setting	triclinic
loop_
_symmetry_equiv_pos_as_xyz
  x,y,z
_cell_length_a	12.759401
_cell_length_b	13.032868
_cell_length_c	12.759393
_cell_angle_alpha	97.146575
_cell_angle_beta	90.019676
_cell_angle_gamma	82.787713
loop_
_atom_site_label
_atom_site_type_symbol
_atom_site_fract_x
_atom_site_fract_y
_atom_site_fract_z
Zn1	Zn	1.553052	0.415975	0.647049
Zn2	Zn	1.530584	0.590754	0.493665
Zn3	Zn	1.377344	0.416027	0.471395
Zn4	Zn	1.354993	0.590678	0.669296
O5	O	1.453993	0.503358	0.570351
O6	O	1.697091	0.439170	0.626712
O7	O	1.510207	0.567630	0.343696
O8	O	1.419409	0.269783	0.476065
O9	O	1.680584	0.567579	0.514021
O10	O	1.548500	0.269744	0.605117
O11	O	1.397622	0.439259	0.327335
O12	O	1.227359	0.439185	0.497637
O13	O	1.381315	0.567449	0.813359
O14	O	1.210938	0.567500	0.643034
O15	O	1.526828	0.439096	0.797014
O16	O	1.488534	0.736982	0.535593
O17	O	1.359529	0.736925	0.664629
C18	C	1.181028	0.503340	0.570334
C19	C	1.064249	0.503358	0.570355
C20	C	1.017968	0.436616	0.629152
C21	C	0.908242	0.436627	0.629160
C22	C	0.891088	0.570130	0.511573
C23	C	1.000813	0.570114	0.511559
C24	C	0.774080	0.313449	0.651215
C25	C	0.727794	0.246716	0.710030
C26	C	0.765490	0.230789	0.810537
C27	C	0.849469	0.281610	0.852252
C28	C	0.895749	0.348350	0.793444
C29	C	0.858057	0.364258	0.692920
C30	C	1.134976	0.693292	0.489515
C31	C	1.181257	0.760039	0.430712
C32	C	1.143562	0.775977	0.330205
C33	C	1.059577	0.725175	0.288496
C34	C	1.013296	0.658428	0.347299
C35	C	1.050999	0.642488	0.447805
C36	C	1.419197	0.774871	0.604965
C37	C	1.404407	0.891026	0.619808
C38	C	1.461699	0.942804	0.562629
C39	C	1.446414	1.062855	0.577968
C40	C	1.728024	0.503377	0.570369
C41	C	1.844799	0.503385	0.570377
C42	C	1.454084	0.503258	0.844372
C43	C	1.454123	0.503215	0.961143
C44	C	1.488919	1.230786	0.535614
C45	C	1.503714	1.114631	0.520782
C46	C	1.453972	0.503383	0.297387
C47	C	1.454174	0.503131	0.180579
C48	C	1.529898	0.436371	1.007495
C49	C	1.529922	0.436326	1.117213
C50	C	1.378392	0.569979	1.134220
C51	C	1.378364	0.570018	1.024503
C52	C	1.583307	0.313031	1.251462
C53	C	1.659097	0.246196	1.297818
C54	C	1.763660	0.230173	1.260181
C55	C	1.792451	0.281001	1.176190
C56	C	1.716665	0.347843	1.129841
C57	C	1.612091	0.363846	1.167474
C58	C	1.324990	0.693314	0.890252
C59	C	1.249208	0.760163	0.843901
C60	C	1.144643	0.776197	0.881538
C61	C	1.115853	0.725387	0.965534
C62	C	1.191634	0.658539	1.011885
C63	C	1.296199	0.642503	0.974240
H64	H	1.181229	0.830358	0.282345
Br65	Br	0.804990	0.660724	0.431784
H66	H	1.030708	0.738446	0.996182
Br67	Br	1.441390	0.334754	1.302534
Br68	Br	0.899341	0.589449	0.290677
H69	H	1.165683	0.680312	0.571353
Br70	Br	1.562327	0.868565	0.462115
Br71	Br	1.303798	0.965264	0.720341
Br72	Br	1.295231	0.828995	0.487322
Br73	Br	1.009711	0.417321	0.850046
Br74	Br	1.008400	0.746817	0.152097
Br75	Br	1.345801	1.137090	0.678506
Br76	Br	1.288284	0.829134	0.729916
H77	H	1.564089	1.070088	0.460472
H78	H	1.591584	0.381974	0.955909
Br79	Br	1.755729	0.416824	1.015864
Br80	Br	0.613807	0.177771	0.653432
H81	H	1.877600	0.267956	1.145559
H82	H	1.825368	0.175753	1.297931
H83	H	1.635645	0.204812	1.366203
H84	H	1.069615	0.382256	0.677023
Br85	Br	0.722932	0.335040	0.514796
Br86	Br	1.275584	0.660638	1.220214
Br87	Br	1.466896	0.671519	0.839135
Br88	Br	1.152563	0.589581	1.125882
H89	H	0.880147	0.268645	0.934099
Br90	Br	0.702664	0.140230	0.890358
Br91	Br	1.041802	0.866947	0.818652
