data_functionalizedCrystal
_audit_creation_method	'MofGen! by Chris Wilmer'
_symmetry_space_group_name_H-M	'P1'
_symmetry_Int_Tables_number	1
_symmetry_cell_setting	triclinic
loop_
_symmetry_equiv_pos_as_xyz
  x,y,z
_cell_length_a	19.805407
_cell_length_b	18.050589
_cell_length_c	19.805399
_cell_angle_alpha	90.022294
_cell_angle_beta	90.019573
_cell_angle_gamma	90.028221
loop_
_atom_site_label
_atom_site_type_symbol
_atom_site_fract_x
_atom_site_fract_y
_atom_site_fract_z
Zn1	Zn	1.034727	-0.295677	0.382745
Zn2	Zn	1.368060	0.037657	0.716078
Zn3	Zn	1.701394	0.370990	1.049411
Zn4	Zn	1.034638	-0.419869	0.269567
Zn5	Zn	1.367972	-0.086535	0.602900
Zn6	Zn	1.701305	0.246798	0.936233
Zn7	Zn	0.921542	-0.295697	0.269569
Zn8	Zn	1.254875	0.037636	0.602902
Zn9	Zn	1.588208	0.370970	0.936236
Zn10	Zn	0.921502	-0.419829	0.382713
Zn11	Zn	1.254835	-0.086496	0.716047
Zn12	Zn	1.588168	0.246837	1.049380
O13	O	0.978102	-0.357768	0.326148
O14	O	1.311436	-0.024435	0.659482
O15	O	1.644769	0.308899	0.992815
O16	O	1.129432	-0.312159	0.367743
O17	O	1.462765	0.021174	0.701077
O18	O	1.796099	0.354508	1.034410
O19	O	1.019616	-0.403422	0.174850
O20	O	1.352949	-0.070089	0.508184
O21	O	1.686282	0.263244	0.841517
O22	O	0.936610	-0.191770	0.284596
O23	O	1.269943	0.141564	0.617929
O24	O	1.603277	0.474897	0.951263
O25	O	1.129367	-0.403402	0.284592
O26	O	1.462700	-0.070069	0.617925
O27	O	1.796033	0.263264	0.951259
O28	O	1.019767	-0.191755	0.367746
O29	O	1.353100	0.141579	0.701079
O30	O	1.686433	0.474912	1.034412
O31	O	0.936524	-0.312194	0.174852
O32	O	1.269857	0.021139	0.508186
O33	O	1.603191	0.354473	0.841519
O34	O	0.826820	-0.312156	0.284566
O35	O	1.160153	0.021178	0.617899
O36	O	1.493487	0.354511	0.951233
O37	O	0.936542	-0.403335	0.477434
O38	O	1.269875	-0.070002	0.810768
O39	O	1.603208	0.263332	1.144101
O40	O	0.826791	-0.403355	0.367693
O41	O	1.160124	-0.070022	0.701026
O42	O	1.493457	0.263312	1.034359
O43	O	1.019728	-0.312121	0.477457
O44	O	1.353061	0.021213	0.810790
O45	O	1.686395	0.354546	1.144124
O46	O	1.019577	-0.523788	0.284562
O47	O	1.352910	-0.190455	0.617895
O48	O	1.686243	0.142878	0.951229
O49	O	0.936456	-0.523759	0.367690
O50	O	1.269789	-0.190426	0.701024
O51	O	1.603122	0.142907	1.034357
C52	C	0.802246	-0.357754	0.326127
C53	C	1.135580	-0.024420	0.659460
C54	C	1.468913	0.308913	0.992793
C55	C	0.727014	-0.357766	0.326133
C56	C	1.060348	-0.024432	0.659467
C57	C	1.393681	0.308901	0.992800
C58	C	0.691673	-0.405325	0.369347
C59	C	1.025006	-0.071991	0.702681
C60	C	1.358339	0.261342	1.036014
C61	C	0.620984	-0.405326	0.369357
C62	C	0.954317	-0.071993	0.702690
C63	C	1.287651	0.261341	1.036023
C64	C	0.585639	-0.357771	0.326148
C65	C	0.918972	-0.024438	0.659482
C66	C	1.252305	0.308895	0.992815
C67	C	0.620985	-0.310207	0.282933
C68	C	0.954319	0.023126	0.616266
C69	C	1.287652	0.356460	0.949599
C70	C	0.691673	-0.310203	0.282927
C71	C	1.025006	0.023131	0.616260
C72	C	1.358339	0.356464	0.949594
C73	C	0.335912	-0.310224	0.282955
C74	C	0.669245	0.023110	0.616288
C75	C	1.002579	0.356443	0.949622
C76	C	0.265220	-0.310233	0.282962
C77	C	0.598553	0.023100	0.616296
C78	C	0.931887	0.356433	0.949629
C79	C	0.265224	-0.405347	0.369385
C80	C	0.598557	-0.072013	0.702718
C81	C	0.931890	0.261320	1.036051
C82	C	0.335911	-0.405342	0.369379
C83	C	0.669244	-0.072009	0.702712
C84	C	1.002577	0.261324	1.036046
C85	C	0.371251	-0.357776	0.326166
C86	C	0.704585	-0.024442	0.659499
C87	C	1.037918	0.308891	0.992833
C88	C	0.447900	-0.357774	0.326157
C89	C	0.781233	-0.024440	0.659491
C90	C	1.114566	0.308893	0.992824
C91	C	0.508992	-0.357776	0.326153
C92	C	0.842325	-0.024443	0.659487
C93	C	1.175658	0.308890	0.992820
C94	C	0.978021	-0.550720	0.326137
C95	C	1.311354	-0.217387	0.659471
C96	C	1.644687	0.115947	0.992804
C97	C	0.978048	-0.633266	0.326155
C98	C	1.311381	-0.299933	0.659488
C99	C	1.644714	0.033401	0.992822
C100	C	0.932891	-0.832728	0.371344
C101	C	1.266224	-0.499394	0.704678
C102	C	1.599557	-0.166061	1.038011
C103	C	0.916392	-0.882167	0.309581
C104	C	1.249726	-0.548833	0.642915
C105	C	1.583059	-0.215500	0.976248
C106	C	0.978114	-0.784396	0.326164
C107	C	1.311447	-0.451063	0.659497
C108	C	1.644781	-0.117730	0.992831
C109	C	0.994646	-0.882039	0.387934
C110	C	1.327979	-0.548706	0.721267
C111	C	1.661312	-0.215372	1.054601
C112	C	0.978177	-0.930381	0.326178
C113	C	1.311510	-0.597048	0.659511
C114	C	1.644844	-0.263715	0.992844
C115	C	0.961583	-0.832748	0.264368
C116	C	1.294917	-0.499415	0.597701
C117	C	1.628250	-0.166081	0.931035
C118	C	1.039865	-0.832616	0.342762
C119	C	1.373198	-0.499283	0.676096
C120	C	1.706532	-0.165949	1.009429
C121	C	1.023390	-0.882033	0.280957
C122	C	1.356724	-0.548699	0.614290
C123	C	1.690057	-0.215366	0.947623
C124	C	0.978076	-0.700298	0.326157
C125	C	1.311409	-0.366965	0.659490
C126	C	1.644743	-0.033631	0.992823
C127	C	0.978215	-1.014478	0.326178
C128	C	1.311548	-0.681144	0.659511
C129	C	1.644882	-0.347811	0.992845
C130	C	1.154645	-0.357783	0.326171
C131	C	1.487978	-0.024449	0.659504
C132	C	1.821312	0.308884	0.992837
C133	C	1.229877	-0.357789	0.326180
C134	C	1.563210	-0.024456	0.659514
C135	C	1.896544	0.308878	0.992847
C136	C	0.978140	-0.357721	0.502691
C137	C	1.311474	-0.024388	0.836025
C138	C	1.644807	0.308945	1.169358
C139	C	0.978156	-0.357701	0.577923
C140	C	1.311490	-0.024368	0.911257
C141	C	1.644823	0.308965	1.244590
C142	C	0.978203	-0.164062	0.326175
C143	C	1.311536	0.169271	0.659508
C144	C	1.644869	0.502604	0.992841
C145	C	0.978246	-0.081517	0.326186
C146	C	1.311579	0.251817	0.659519
C147	C	1.644912	0.585150	0.992852
C148	C	0.978103	-0.357761	0.150292
C149	C	1.311437	-0.024428	0.483626
C150	C	1.644770	0.308906	0.816959
C151	C	0.978218	-0.357572	0.075061
C152	C	1.311552	-0.024238	0.408394
C153	C	1.644885	0.309095	0.741728
C154	C	1.021472	-0.310204	0.613280
C155	C	1.354806	0.023130	0.946614
C156	C	1.688139	0.356463	1.279947
C157	C	1.021479	-0.310182	0.683969
C158	C	1.354813	0.023151	1.017302
C159	C	1.688146	0.356485	1.350636
C160	C	0.978173	-0.357662	0.719299
C161	C	1.311507	-0.024329	1.052632
C162	C	1.644840	0.309004	1.385966
C163	C	0.934852	-0.405162	0.683937
C164	C	1.268186	-0.071829	1.017270
C165	C	1.601519	0.261504	1.350603
C166	C	0.934843	-0.405180	0.613250
C167	C	1.268176	-0.071846	0.946583
C168	C	1.601509	0.261487	1.279916
C169	C	0.934891	-0.405093	0.969010
C170	C	1.268224	-0.071760	1.302344
C171	C	1.601557	0.261574	1.635677
C172	C	0.934905	-0.405074	1.039702
C173	C	1.268239	-0.071740	1.373036
C174	C	1.601572	0.261593	1.706369
C175	C	1.021527	-0.310096	1.039729
C176	C	1.354861	0.023238	1.373063
C177	C	1.688194	0.356571	1.706396
C178	C	1.021518	-0.310113	0.969042
C179	C	1.354851	0.023221	1.302376
C180	C	1.688184	0.356554	1.635709
C181	C	0.978195	-0.357609	0.933686
C182	C	1.311528	-0.024276	1.267020
C183	C	1.644861	0.309057	1.600353
C184	C	0.978187	-0.357631	0.857038
C185	C	1.311520	-0.024298	1.190371
C186	C	1.644853	0.309035	1.523705
C187	C	0.978184	-0.357645	0.795946
C188	C	1.311517	-0.024312	1.129279
C189	C	1.644851	0.309022	1.462613
H190	H	0.592212	-0.444054	0.404545
H191	H	0.925545	-0.110721	0.737879
H192	H	1.258879	0.222613	1.071212
Cl193	Cl	0.380341	-0.465130	0.423698
Cl194	Cl	0.713674	-0.131797	0.757031
Cl195	Cl	1.047008	0.201537	1.090365
Cl196	Cl	0.939942	-0.799462	0.183701
Cl197	Cl	1.273275	-0.466129	0.517034
Cl198	Cl	1.606609	-0.132796	0.850368
H199	H	0.899589	-0.443819	0.712708
H200	H	1.232923	-0.110486	1.046042
H201	H	1.566256	0.222848	1.379375
Cl202	Cl	0.880384	-0.464891	0.568800
Cl203	Cl	1.213717	-0.131558	0.902134
Cl204	Cl	1.547050	0.201775	1.235467
H205	H	1.056740	-0.271542	0.584520
H206	H	1.390073	0.061792	0.917853
H207	H	1.723406	0.395125	1.251186
H208	H	0.720446	-0.444052	0.404530
H209	H	1.053779	-0.110718	0.737864
H210	H	1.387112	0.222615	1.071197
Cl211	Cl	0.576551	-0.250419	0.228617
Cl212	Cl	0.909884	0.082914	0.561951
Cl213	Cl	1.243218	0.416248	0.895284
H214	H	1.092045	-0.810837	0.356819
H215	H	1.425378	-0.477504	0.690152
H216	H	1.758711	-0.144170	1.023485
H217	H	1.008603	-0.903691	0.440167
H218	H	1.341936	-0.570358	0.773500
H219	H	1.675270	-0.237024	1.106834
H220	H	1.056753	-0.271506	0.712754
H221	H	1.390087	0.061827	1.046087
H222	H	1.723420	0.395160	1.379420
H223	H	0.236441	-0.444075	0.404574
H224	H	0.569774	-0.110742	0.737907
H225	H	0.903108	0.222592	1.071240
H226	H	0.899624	-0.443779	0.940232
H227	H	1.232958	-0.110445	1.273565
H228	H	1.566291	0.222888	1.606899
Cl229	Cl	0.873762	-0.799299	0.430252
Cl230	Cl	1.207095	-0.465965	0.763585
Cl231	Cl	1.540429	-0.132632	1.096918
Cl232	Cl	0.380331	-0.250423	0.228632
Cl233	Cl	0.713664	0.082910	0.561965
Cl234	Cl	1.046998	0.416243	0.895298
H235	H	1.056784	-0.271452	0.940280
H236	H	1.390118	0.061882	1.273613
H237	H	1.723451	0.395215	1.606947
H238	H	0.864201	-0.903948	0.295555
H239	H	1.197534	-0.570614	0.628888
H240	H	1.530868	-0.237281	0.962221
H241	H	1.056801	-0.271419	1.068525
H242	H	1.390134	0.061915	1.401858
H243	H	1.723468	0.395248	1.735191
H244	H	0.899637	-0.443740	1.068466
H245	H	1.232971	-0.110406	1.401800
H246	H	1.566304	0.222927	1.735133
H247	H	0.236444	-0.271504	0.247777
H248	H	0.569777	0.061829	0.581110
H249	H	0.903110	0.395163	0.914444
Cl250	Cl	1.082479	-0.915249	0.221911
Cl251	Cl	1.415813	-0.581915	0.555245
Cl252	Cl	1.749146	-0.248582	0.888578
Cl253	Cl	0.736102	-0.250410	0.228600
Cl254	Cl	1.069436	0.082924	0.561933
Cl255	Cl	1.402769	0.416257	0.895267
