data_functionalizedCrystal
_audit_creation_method	'MofGen! by Chris Wilmer'
_symmetry_space_group_name_H-M	'P1'
_symmetry_Int_Tables_number	1
_symmetry_cell_setting	triclinic
loop_
_symmetry_equiv_pos_as_xyz
  x,y,z
_cell_length_a	12.827893
_cell_length_b	15.297327
_cell_length_c	12.827893
_cell_angle_alpha	80.337892
_cell_angle_beta	90.003976
_cell_angle_gamma	99.706564
loop_
_atom_site_label
_atom_site_type_symbol
_atom_site_fract_x
_atom_site_fract_y
_atom_site_fract_z
Zn1	Zn	1.525380	-0.359341	0.662818
Zn2	Zn	2.025380	0.140659	1.162818
Zn3	Zn	1.495042	-0.510177	0.518289
Zn4	Zn	1.995042	-0.010177	1.018289
Zn5	Zn	1.350671	-0.359326	0.488089
Zn6	Zn	1.850671	0.140674	0.988089
Zn7	Zn	1.320330	-0.510169	0.692987
Zn8	Zn	1.820330	-0.010169	1.192987
O9	O	1.422856	-0.434753	0.590546
O10	O	1.922856	0.065247	1.090546
O11	O	1.667589	-0.379359	0.643659
O12	O	2.167589	0.120641	1.143659
O13	O	1.475893	-0.490163	0.368046
O14	O	1.975893	0.009837	0.868046
O15	O	1.399240	-0.233074	0.486003
O16	O	1.899240	0.266926	0.986003
O17	O	1.645301	-0.490178	0.537474
O18	O	2.145301	0.009822	1.037474
O19	O	1.527598	-0.233085	0.614376
O20	O	2.027598	0.266915	1.114376
O21	O	1.369823	-0.379334	0.345859
O22	O	1.869823	0.120666	0.845859
O23	O	1.200412	-0.379326	0.515256
O24	O	1.700412	0.120674	1.015256
O25	O	1.347529	-0.490164	0.835222
O26	O	1.847529	0.009836	1.335222
O27	O	1.178121	-0.490149	0.665794
O28	O	1.678121	0.009851	1.165794
O29	O	1.498178	-0.379351	0.813057
O30	O	1.998178	0.120649	1.313057
O31	O	1.446472	-0.636430	0.566727
O32	O	1.946472	-0.136430	1.066727
O33	O	1.318112	-0.636423	0.695077
O34	O	1.818112	-0.136423	1.195077
C35	C	1.151349	-0.434736	0.590522
C36	C	1.651349	0.065264	1.090522
C37	C	1.035193	-0.434750	0.590542
C38	C	1.535193	0.065250	1.090542
C39	C	1.375736	-0.669163	0.637476
C40	C	1.875736	-0.169163	1.137476
C41	C	1.355674	-0.769444	0.657588
C42	C	1.855674	-0.269444	1.157588
C43	C	0.972389	-0.489674	0.664952
C44	C	1.472389	0.010326	1.164952
C45	C	0.852335	-0.489690	0.664973
C46	C	1.352335	0.010310	1.164973
C47	C	1.566675	-1.052008	0.447160
C48	C	2.066675	-0.552008	0.947160
C49	C	1.585524	-0.957789	0.428259
C50	C	2.085524	-0.457789	0.928259
C51	C	1.528063	-0.910698	0.485589
C52	C	2.028063	-0.410698	0.985589
C53	C	1.451750	-0.957836	0.561824
C54	C	1.951750	-0.457836	1.061824
C55	C	1.432893	-1.052065	0.580722
C56	C	1.932893	-0.552065	1.080722
C57	C	1.394282	-0.910754	0.619151
C58	C	1.894282	-0.410754	1.119151
C59	C	1.317968	-0.957892	0.695386
C60	C	1.817968	-0.457892	1.195386
C61	C	1.299116	-1.052112	0.714281
C62	C	1.799116	-0.552112	1.214281
C63	C	1.356576	-1.099203	0.656950
C64	C	1.856576	-0.599203	1.156950
C65	C	1.413138	-0.816526	0.600254
C66	C	1.913138	-0.316526	1.100254
C67	C	1.279357	-0.816582	0.733816
C68	C	1.779357	-0.316582	1.233816
C69	C	1.260508	-0.910801	0.752717
C70	C	1.760508	-0.410801	1.252717
C71	C	1.695422	-0.434771	0.590570
C72	C	2.195422	0.065229	1.090570
C73	C	1.811574	-0.434779	0.590580
C74	C	2.311574	0.065221	1.090580
C75	C	1.422853	-0.434758	0.863117
C76	C	1.922853	0.065242	1.363117
C77	C	1.422852	-0.434760	0.979270
C78	C	1.922852	0.065240	1.479270
C79	C	1.470188	-0.199428	0.543455
C80	C	1.970188	0.300572	1.043455
C81	C	1.490358	-0.099146	0.523388
C82	C	1.990358	0.400854	1.023388
C83	C	1.497386	-0.379937	1.140134
C84	C	1.997386	0.120063	1.640134
C85	C	1.497389	-0.379933	1.020083
C86	C	1.997389	0.120067	1.520083
C87	C	1.422847	-0.434768	1.319039
C88	C	1.922847	0.065232	1.819039
C89	C	1.422848	-0.434766	1.202885
C90	C	1.922848	0.065234	1.702885
H91	H	1.007499	-0.536682	0.728644
H92	H	1.507499	-0.036682	1.228644
H93	H	0.798366	-0.536716	0.728676
H94	H	1.298366	-0.036716	1.228676
Br95	Br	0.901510	-0.356404	0.484383
Br96	Br	1.401510	0.143596	0.984383
H97	H	1.543414	-0.833980	0.470194
H98	H	2.043414	-0.333980	0.970194
H99	H	1.000084	-0.387735	0.526856
H100	H	1.500084	0.112265	1.026856
H101	H	1.359038	-0.481707	1.167733
H102	H	1.859038	0.018293	1.667733
H103	H	1.359028	-0.481698	1.033186
H104	H	1.859028	0.018302	1.533186
Br105	Br	1.516701	-0.752564	0.496794
Br106	Br	2.016701	-0.252564	0.996794
Br107	Br	1.330530	-1.227076	0.682130
Br108	Br	1.830530	-0.727076	1.182130
Br109	Br	1.689096	-0.893822	0.324811
Br110	Br	2.189096	-0.393822	0.824811
H111	H	1.561203	-0.333002	1.175288
H112	H	2.061203	0.166998	1.675288
Br113	Br	1.156945	-0.974785	0.856178
Br114	Br	1.656945	-0.474785	1.356178
Br115	Br	1.603752	-0.301683	0.930213
Br116	Br	2.103752	0.198317	1.430213
H117	H	1.236964	-1.090489	0.776344
H118	H	1.736964	-0.590489	1.276344
H119	H	1.613445	-1.090358	0.400483
H120	H	2.113445	-0.590358	0.900483
Br121	Br	1.201359	-0.752681	0.811617
Br122	Br	1.701359	-0.252681	1.311617
