data_functionalizedCrystal
_audit_creation_method	'MofGen! by Chris Wilmer'
_symmetry_space_group_name_H-M	'P1'
_symmetry_Int_Tables_number	1
_symmetry_cell_setting	triclinic
loop_
_symmetry_equiv_pos_as_xyz
  x,y,z
_cell_length_a	18.215407
_cell_length_b	29.839131
_cell_length_c	18.215399
_cell_angle_alpha	90.030873
_cell_angle_beta	90.019833
_cell_angle_gamma	90.041868
loop_
_atom_site_label
_atom_site_type_symbol
_atom_site_fract_x
_atom_site_fract_y
_atom_site_fract_z
Zn1	Zn	1.124987	-0.178853	0.416101
Zn2	Zn	1.124860	-0.253982	0.293028
Zn3	Zn	1.001920	-0.178867	0.293048
Zn4	Zn	1.001850	-0.253957	0.416053
O5	O	1.063404	-0.216415	0.354558
O6	O	1.227955	-0.188823	0.399787
O7	O	1.108528	-0.244034	0.190047
O8	O	1.018327	-0.115998	0.309400
O9	O	1.227861	-0.244020	0.309366
O10	O	1.108745	-0.115987	0.399806
O11	O	1.018204	-0.188848	0.190061
O12	O	0.898926	-0.188824	0.309354
O13	O	1.018209	-0.243978	0.519044
O14	O	0.898875	-0.243992	0.399725
O15	O	1.108677	-0.188799	0.519079
O16	O	1.108460	-0.316846	0.309320
O17	O	1.018086	-0.316827	0.399705
C18	C	0.872198	-0.216407	0.354537
C19	C	0.790399	-0.216414	0.354545
C20	C	0.602198	-0.245186	0.401542
C21	C	0.525339	-0.245187	0.401551
C22	C	0.525363	-0.187652	0.307589
C23	C	0.602220	-0.187648	0.307584
C24	C	0.640636	-0.216418	0.354560
C25	C	0.486920	-0.216423	0.354574
C26	C	0.403586	-0.216424	0.354583
C27	C	0.723975	-0.216416	0.354551
C28	C	1.063272	-0.333137	0.354521
C29	C	1.063282	-0.383072	0.354530
C30	C	1.110548	-0.692712	0.307563
C31	C	1.110639	-0.880385	0.307591
O32	O	1.150721	-0.904647	0.267629
N33	N	1.063557	-0.903857	0.354613
C34	C	1.016452	-0.880407	0.401635
O35	O	0.976414	-0.904678	0.441636
C36	C	1.016366	-0.692735	0.401609
C37	C	1.063446	-0.669266	0.354579
C38	C	1.157625	-0.669243	0.260536
C39	C	1.157599	-0.622327	0.260527
C40	C	1.110496	-0.598881	0.307544
C41	C	1.063420	-0.622350	0.354570
C42	C	0.969265	-0.669287	0.448634
C43	C	0.969249	-0.622365	0.448625
C44	C	1.016329	-0.598896	0.401595
C45	C	1.016291	-0.551989	0.401577
N46	N	1.063373	-0.528517	0.354554
C47	C	1.110476	-0.551963	0.307538
C48	C	1.016500	-0.978938	0.401644
C49	C	1.016521	-1.025856	0.401649
C50	C	1.110709	-1.025830	0.307606
C51	C	1.110684	-0.978911	0.307598
C52	C	1.063582	-0.955466	0.354622
C53	C	1.110417	-0.453437	0.307521
C54	C	1.110385	-0.406518	0.307514
C55	C	1.016200	-0.406547	0.401559
C56	C	1.016229	-0.453463	0.401564
C57	C	1.063344	-0.476907	0.354543
O58	O	0.976236	-0.527698	0.441523
O59	O	1.150520	-0.527685	0.267554
C60	C	1.110574	-0.739627	0.307572
C61	C	1.063498	-0.763097	0.354598
C62	C	1.016395	-0.739651	0.401615
C63	C	1.063518	-0.810015	0.354604
C64	C	1.110621	-0.833461	0.307587
C65	C	1.157703	-0.809989	0.260565
C66	C	1.157677	-0.763074	0.260555
C67	C	0.969313	-0.763122	0.448637
C68	C	0.969342	-0.810038	0.448642
C69	C	1.016445	-0.833484	0.401625
C70	C	1.255357	-0.216423	0.354579
C71	C	1.337156	-0.216426	0.354589
C72	C	1.063449	-0.216384	0.546511
C73	C	1.063468	-0.216370	0.628310
C74	C	1.063558	-0.099236	0.354610
C75	C	1.063623	-0.049302	0.354633
C76	C	1.063402	-0.216413	0.163351
C77	C	1.063526	-0.216300	0.081553
C78	C	1.110592	-0.187612	0.816523
C79	C	1.110601	-0.187599	0.893382
C80	C	1.016397	-0.245059	0.893334
C81	C	1.016385	-0.245070	0.816477
C82	C	1.063487	-0.216347	0.778073
C83	C	1.063507	-0.216323	0.931789
C84	C	1.063517	-0.216309	1.015123
C85	C	1.063477	-0.216360	0.694734
H86	H	1.148784	-0.472520	0.269233
H87	H	1.148723	-0.387411	0.269213
H88	H	0.633517	-0.164220	0.269325
H89	H	1.148958	-0.164199	0.924684
H90	H	0.978050	-0.268446	0.924612
H91	H	1.149062	-1.044928	0.269324
O92	O	0.488158	-0.159668	0.261931
C93	C	0.496295	-0.102622	0.168697
C94	C	0.538518	-0.134283	0.220383
H95	H	0.536992	-0.082097	0.135082
H96	H	0.460369	-0.079128	0.202518
H97	H	0.460256	-0.123229	0.130190
H98	H	0.574596	-0.113712	0.258901
H99	H	0.574397	-0.157778	0.186517
O100	O	1.203410	-0.599602	0.214826
C101	C	1.296812	-0.604546	0.121529
C102	C	1.244974	-0.630334	0.173260
H103	H	1.330419	-0.629382	0.087899
H104	H	1.335314	-0.582558	0.155316
H105	H	1.263036	-0.582602	0.083038
H106	H	1.278691	-0.652302	0.211761
H107	H	1.206470	-0.652293	0.139427
O108	O	1.203504	-0.692019	0.214988
C109	C	1.302948	-0.744898	0.205238
C110	C	1.251021	-0.719139	0.256899
H111	H	1.341368	-0.766838	0.239102
H112	H	1.336638	-0.720061	0.171676
H113	H	1.269238	-0.766892	0.166679
H114	H	1.284673	-0.697145	0.295503
H115	H	1.217329	-0.744000	0.290409
H116	H	1.149021	-0.959806	0.269302
O117	O	0.639597	-0.273065	0.447214
C118	C	0.726369	-0.279177	0.546582
C119	C	0.684077	-0.247554	0.494890
H120	H	0.762329	-0.258563	0.585152
H121	H	0.762362	-0.302635	0.512767
H122	H	0.685677	-0.299747	0.580130
H123	H	0.724716	-0.226954	0.461331
H124	H	0.648073	-0.224126	0.528748
H125	H	0.978177	-1.044960	0.439939
H126	H	0.978143	-0.959852	0.439938
O127	O	1.156313	-0.159749	0.779103
C128	C	1.198007	-0.134273	0.660723
C129	C	1.146206	-0.165861	0.703006
H130	H	1.189842	-0.139197	0.599191
H131	H	1.257359	-0.142158	0.675786
H132	H	1.185132	-0.098052	0.675898
H133	H	1.159015	-0.202093	0.687854
H134	H	1.086869	-0.157938	0.687940
H135	H	0.930924	-0.688387	0.486928
H136	H	0.977895	-0.472573	0.439862
O137	O	0.923426	-0.599661	0.494331
C138	C	0.830053	-0.604642	0.587655
C139	C	0.881896	-0.630409	0.535919
H140	H	0.796474	-0.629491	0.621303
H141	H	0.791525	-0.582726	0.553871
H142	H	0.863823	-0.582629	0.626129
H143	H	0.848185	-0.652447	0.497434
H144	H	0.920426	-0.652297	0.569748
H145	H	0.977847	-0.387450	0.439837
O146	O	1.203378	-0.740328	0.214771
C147	C	1.239145	-0.725991	0.089614
C148	C	1.187350	-0.751781	0.141384
H149	H	1.226194	-0.735233	0.030270
H150	H	1.298493	-0.735186	0.102537
H151	H	1.231059	-0.688431	0.097714
H152	H	1.195370	-0.789347	0.133313
H153	H	1.128021	-0.742548	0.128449
O154	O	0.488082	-0.273111	0.447291
C155	C	0.464566	-0.295000	0.572413
C156	C	0.506817	-0.263355	0.520693
H157	H	0.479686	-0.287117	0.631771
H158	H	0.479646	-0.331222	0.559440
H159	H	0.403038	-0.290069	0.564314
H160	H	0.568354	-0.268246	0.528764
H161	H	0.491676	-0.227144	0.533679
H162	H	1.196053	-0.829087	0.222280
O163	O	0.923581	-0.832764	0.494399
C164	C	0.830138	-0.827824	0.587655
C165	C	0.881928	-0.802034	0.535881
H166	H	0.796437	-0.802990	0.621195
H167	H	0.863882	-0.849738	0.626222
H168	H	0.791715	-0.849842	0.553833
H169	H	0.920361	-0.779991	0.569643
H170	H	0.848138	-0.780148	0.497311
H171	H	0.930957	-0.744036	0.486924
H172	H	0.978021	-0.268469	0.785170
