data_functionalizedCrystal
_audit_creation_method	'MofGen! by Chris Wilmer'
_symmetry_space_group_name_H-M	'P1'
_symmetry_Int_Tables_number	1
_symmetry_cell_setting	triclinic
loop_
_symmetry_equiv_pos_as_xyz
  x,y,z
_cell_length_a	14.560432
_cell_length_b	12.970454
_cell_length_c	12.970454
_cell_angle_alpha	119.999888
_cell_angle_beta	89.998479
_cell_angle_gamma	60.001316
loop_
_atom_site_label
_atom_site_type_symbol
_atom_site_fract_x
_atom_site_fract_y
_atom_site_fract_z
Zr1	Zr	0.884747	1.128547	0.135308
O2	O	0.738099	1.343635	0.299933
O3	O	0.929703	0.913457	0.084840
O4	O	0.929699	1.128549	0.299932
O5	O	0.738105	1.128542	-0.084826
O6	O	1.080837	1.128554	0.299933
O7	O	0.738102	1.128543	0.084841
O8	O	1.080843	0.743794	-0.084828
O9	O	0.738099	1.513302	0.299934
O10	O	1.061668	1.001931	0.063318
O11	O	0.948878	1.001927	-0.063303
O12	O	0.948874	1.255170	0.189940
O13	O	0.836083	1.255166	0.063319
Zr14	Zr	1.125798	1.128553	-0.135292
Zr15	Zr	1.125794	1.128554	0.135308
Zr16	Zr	0.884751	1.128546	-0.135292
Zr17	Zr	0.884747	1.399147	0.135309
Zr18	Zr	1.125798	0.857953	-0.135293
O19	O	1.080843	1.343643	-0.084824
O20	O	1.080837	1.343645	0.299934
O21	O	0.738105	1.343633	-0.084825
O22	O	1.272447	0.913466	-0.299917
O23	O	1.272441	0.913467	0.084841
O24	O	0.929709	0.913456	-0.299918
O25	O	1.272441	1.128558	0.084842
O26	O	1.080846	1.128551	-0.299916
O27	O	0.929709	1.128547	-0.299917
O28	O	1.272443	1.128558	-0.084825
O29	O	0.929699	1.513308	0.299934
O30	O	1.080846	0.743793	-0.299918
O31	O	1.272447	0.743798	-0.299918
O32	O	1.272443	0.743799	-0.084827
O33	O	0.738102	1.513301	0.084843
O34	O	0.929703	1.513307	0.084843
O35	O	1.061672	1.001930	-0.189924
O36	O	1.174462	1.001934	-0.063303
O37	O	1.061668	1.255173	0.063319
O38	O	0.948878	1.255169	-0.063302
C39	C	1.005273	0.790071	0.000006
C40	C	1.005273	0.675194	0.000006
C41	C	0.703760	1.128541	0.000007
C42	C	0.601429	1.128538	0.000007
C43	C	0.719170	0.864154	-0.132175
C44	C	0.729964	0.731967	-0.198260
C45	C	0.633811	0.731973	-0.198257
C46	C	0.526856	0.864181	-0.132164
C47	C	0.516063	0.996368	-0.066079
C48	C	0.612224	0.996348	-0.066087
C49	C	0.398323	1.260749	0.066094
C50	C	0.494474	1.260746	0.066099
C51	C	0.291368	1.392957	0.132186
C52	C	0.280573	1.525148	0.198280
C53	C	0.376734	1.525136	0.198275
C54	C	0.483681	1.392934	0.132184
C55	C	1.306786	1.128559	0.000009
C56	C	1.409117	1.128562	0.000009
C57	C	1.005267	1.128552	0.338487
C58	C	1.005266	1.128552	0.453364
C59	C	1.005273	1.467029	0.000010
C60	C	1.005273	1.581906	0.000010
C61	C	1.005275	1.128549	0.661529
C62	C	1.005268	1.128548	0.546652
C63	C	1.306786	0.790080	0.000007
C64	C	1.409117	0.675206	0.000006
C65	C	1.005278	0.790069	-0.338473
C66	C	1.005280	0.675192	-0.453350
C67	C	1.306791	0.790078	-0.338472
C68	C	1.409124	0.675204	-0.453349
C69	C	0.703754	1.467022	0.338488
C70	C	0.601422	1.581896	0.453365
C71	C	0.703760	1.467021	0.000009
C72	C	0.601429	1.581894	0.000009
C73	C	1.005268	1.467031	0.338489
C74	C	1.005266	1.581908	0.453366
C75	C	1.457175	0.527774	-0.093470
C76	C	1.553316	0.419823	-0.093475
C77	C	1.601401	0.459307	-0.000007
C78	C	1.553335	0.606753	0.093480
C79	C	1.457191	0.714702	0.093488
C80	C	1.457188	0.527773	-0.507296
C81	C	1.553351	0.419819	-0.615224
C82	C	1.601444	0.459300	-0.669207
C83	C	1.553375	0.606746	-0.615250
C84	C	1.457218	0.714697	-0.507320
C85	C	0.553366	1.729328	0.507322
C86	C	0.457224	1.837281	0.615273
C87	C	0.409135	1.797799	0.669260
C88	C	0.457200	1.650353	0.615298
C89	C	0.553345	1.542403	0.507354
C90	C	0.553374	1.542365	-0.093475
C91	C	0.457233	1.650286	-0.093501
C92	C	0.409144	1.797736	-0.000035
C93	C	0.457208	1.837265	0.093455
C94	C	0.553352	1.729345	0.093474
H95	H	0.797468	0.864136	-0.132174
Br96	Br	0.278651	1.944323	0.815757
Br97	Br	1.391936	0.474149	-0.220334
H98	H	1.418043	0.495598	-0.463358
H99	H	1.592471	0.299770	-0.659145
H100	H	0.418101	1.957330	0.659192
Br101	Br	0.396364	0.864187	-0.132189
H102	H	0.592460	1.422359	0.463425
Br103	Br	0.875115	0.552550	-0.287984
H104	H	0.592511	1.422311	-0.169586
Br105	Br	0.648455	0.552576	-0.287952
Br106	Br	0.391919	1.596795	0.688578
H107	H	0.418110	1.618073	-0.169631
H108	H	1.592439	0.299773	-0.169606
H109	H	0.592504	1.761502	0.463377
Br110	Br	1.731884	0.312785	-0.000037
H111	H	0.330857	1.885597	-0.000064
H112	H	1.592500	0.638882	0.169579
H113	H	1.679740	0.371386	-0.757092
H114	H	0.418041	1.957332	0.169550
H115	H	1.592547	0.638872	-0.659219
H116	H	0.592468	1.761551	0.169606
Br117	Br	1.391995	0.914782	-0.434125
H118	H	0.213080	1.392953	0.132177
H119	H	0.193488	1.632781	0.252081
H120	H	0.561981	1.392912	0.132178
Br121	Br	0.362073	1.704544	0.287954
Br122	Br	1.391975	0.914788	0.220370
