data_functionalizedCrystal
_audit_creation_method	'MofGen! by Chris Wilmer'
_symmetry_space_group_name_H-M	'P1'
_symmetry_Int_Tables_number	1
_symmetry_cell_setting	triclinic
loop_
_symmetry_equiv_pos_as_xyz
  x,y,z
_cell_length_a	18.050591
_cell_length_b	19.121063
_cell_length_c	18.050582
_cell_angle_alpha	92.414363
_cell_angle_beta	89.978183
_cell_angle_gamma	92.465257
loop_
_atom_site_label
_atom_site_type_symbol
_atom_site_fract_x
_atom_site_fract_y
_atom_site_fract_z
Zn1	Zn	1.122683	-0.279729	-0.432630
Zn2	Zn	1.372683	-0.029729	-0.182630
Zn3	Zn	1.622683	0.220271	0.067370
Zn4	Zn	1.872683	0.470271	0.317370
Zn5	Zn	1.117295	-0.397174	-0.313729
Zn6	Zn	1.367295	-0.147174	-0.063729
Zn7	Zn	1.617295	0.102826	0.186271
Zn8	Zn	1.867295	0.352826	0.436271
Zn9	Zn	0.998500	-0.279733	-0.308441
Zn10	Zn	1.248500	-0.029733	-0.058441
Zn11	Zn	1.498500	0.220267	0.191559
Zn12	Zn	1.748500	0.470267	0.441559
Zn13	Zn	0.993155	-0.397136	-0.437863
Zn14	Zn	1.243155	-0.147136	-0.187863
Zn15	Zn	1.493155	0.102864	0.062137
Zn16	Zn	1.743155	0.352864	0.312137
O17	O	1.057909	-0.338443	-0.373165
O18	O	1.307909	-0.088443	-0.123165
O19	O	1.557909	0.161557	0.126835
O20	O	1.807909	0.411557	0.376835
O21	O	1.225892	-0.295323	-0.416880
O22	O	1.475892	-0.045323	-0.166880
O23	O	1.725892	0.204677	0.083120
O24	O	1.975892	0.454677	0.333120
O25	O	1.101519	-0.381613	-0.209104
O26	O	1.351519	-0.131613	0.040896
O27	O	1.601519	0.118387	0.290896
O28	O	1.851519	0.368387	0.540896
O29	O	1.019465	-0.181448	-0.320512
O30	O	1.269465	0.068552	-0.070512
O31	O	1.519465	0.318552	0.179488
O32	O	1.769465	0.568552	0.429488
O33	O	1.221934	-0.381609	-0.329524
O34	O	1.471934	-0.131609	-0.079524
O35	O	1.721934	0.118391	0.170476
O36	O	1.971934	0.368391	0.420476
O37	O	1.110702	-0.181445	-0.411752
O38	O	1.360702	0.068555	-0.161752
O39	O	1.610702	0.318555	0.088248
O40	O	1.860702	0.568555	0.338248
O41	O	1.014241	-0.295330	-0.205218
O42	O	1.264241	-0.045330	0.044782
O43	O	1.514241	0.204670	0.294782
O44	O	1.764241	0.454670	0.544782
O45	O	0.893867	-0.295292	-0.325586
O46	O	1.143867	-0.045292	-0.075586
O47	O	1.393867	0.204708	0.174414
O48	O	1.643867	0.454708	0.424414
O49	O	1.010356	-0.381543	-0.541092
O50	O	1.260356	-0.131543	-0.291092
O51	O	1.510356	0.118457	-0.041092
O52	O	1.760356	0.368457	0.208908
O53	O	0.889940	-0.381548	-0.420672
O54	O	1.139940	-0.131548	-0.170672
O55	O	1.389940	0.118452	0.079328
O56	O	1.639940	0.368452	0.329328
O57	O	1.105519	-0.295285	-0.537248
O58	O	1.355519	-0.045285	-0.287248
O59	O	1.605519	0.204715	-0.037248
O60	O	1.855519	0.454715	0.212752
O61	O	1.096336	-0.495454	-0.334599
O62	O	1.346336	-0.245454	-0.084599
O63	O	1.596336	0.004546	0.165401
O64	O	1.846336	0.254546	0.415401
O65	O	1.005131	-0.495425	-0.425799
O66	O	1.255131	-0.245425	-0.175799
O67	O	1.505131	0.004575	0.074201
O68	O	1.755131	0.254575	0.324201
C69	C	0.864958	-0.338417	-0.373123
C70	C	1.114958	-0.088417	-0.123123
C71	C	1.364958	0.161583	0.126877
C72	C	1.614958	0.411583	0.376877
C73	C	0.782412	-0.338422	-0.373124
C74	C	1.032412	-0.088422	-0.123124
C75	C	1.282412	0.161578	0.126876
C76	C	1.532412	0.411578	0.376876
C77	C	1.049589	-0.520924	-0.381357
C78	C	1.299589	-0.270924	-0.131357
C79	C	1.549589	-0.020924	0.118643
C80	C	1.799589	0.229076	0.368643
C81	C	1.046098	-0.598990	-0.384886
C82	C	1.296098	-0.348990	-0.134886
C83	C	1.546098	-0.098990	0.115114
C84	C	1.796098	0.151010	0.365114
C85	C	0.585077	-0.291463	-0.321528
C86	C	0.835077	-0.041463	-0.071528
C87	C	1.085077	0.208537	0.178472
C88	C	1.335077	0.458537	0.428472
C89	C	0.532768	-0.355523	-0.306137
C90	C	0.782768	-0.105523	-0.056137
C91	C	1.032768	0.144477	0.193863
C92	C	1.282768	0.394477	0.443863
C93	C	0.631280	-0.338444	-0.373158
C94	C	0.881280	-0.088444	-0.123158
C95	C	1.131280	0.161556	0.126842
C96	C	1.381280	0.411556	0.376842
C97	C	0.536507	-0.274406	-0.388548
C98	C	0.786507	-0.024406	-0.138548
C99	C	1.036507	0.225594	0.111452
C100	C	1.286507	0.475594	0.361452
C101	C	0.485294	-0.338459	-0.373190
C102	C	0.735294	-0.088459	-0.123190
C103	C	0.985294	0.161541	0.126810
C104	C	1.235294	0.411541	0.376810
C105	C	0.580057	-0.402538	-0.357733
C106	C	0.830057	-0.152538	-0.107733
C107	C	1.080057	0.097462	0.142267
C108	C	1.330057	0.347462	0.392267
C109	C	0.583802	-0.321378	-0.440174
C110	C	0.833802	-0.071378	-0.190174
C111	C	1.083802	0.178622	0.059826
C112	C	1.333802	0.428622	0.309826
C113	C	0.531513	-0.385482	-0.424811
C114	C	0.781513	-0.135482	-0.174811
C115	C	1.031513	0.114518	0.075189
C116	C	1.281513	0.364518	0.325189
C117	C	0.715379	-0.338434	-0.373138
C118	C	0.965379	-0.088434	-0.123138
C119	C	1.215379	0.161566	0.126862
C120	C	1.465379	0.411566	0.376862
C121	C	0.401197	-0.338475	-0.373210
C122	C	0.651197	-0.088475	-0.123210
C123	C	0.901197	0.161525	0.126790
C124	C	1.151197	0.411525	0.376790
C125	C	1.091980	-0.635657	-0.339100
C126	C	1.341980	-0.385657	-0.089100
C127	C	1.591980	-0.135657	0.160900
C128	C	1.841980	0.114343	0.410900
C129	C	1.088701	-0.709008	-0.342423
C130	C	1.338701	-0.459008	-0.092423
C131	C	1.588701	-0.209008	0.157577
C132	C	1.838701	0.040992	0.407577
C133	C	1.039535	-0.745691	-0.391530
C134	C	1.289535	-0.495691	-0.141530
C135	C	1.539535	-0.245691	0.108470
C136	C	1.789535	0.004309	0.358470
C137	C	0.993651	-0.709019	-0.437321
C138	C	1.243651	-0.459019	-0.187321
C139	C	1.493651	-0.209019	0.062679
C140	C	1.743651	0.040981	0.312679
C141	C	0.996935	-0.635669	-0.434000
C142	C	1.246935	-0.385669	-0.184000
C143	C	1.496935	-0.135669	0.066000
C144	C	1.746935	0.114331	0.316000
C145	C	1.027248	-0.967161	-0.403932
C146	C	1.277248	-0.717161	-0.153932
C147	C	1.527248	-0.467161	0.096068
C148	C	1.777248	-0.217161	0.346068
C149	C	1.023966	-1.040516	-0.407247
C150	C	1.273966	-0.790516	-0.157247
C151	C	1.523966	-0.540516	0.092753
C152	C	1.773966	-0.290516	0.342753
C153	C	1.119017	-1.040501	-0.312350
C154	C	1.369017	-0.790501	-0.062350
C155	C	1.619017	-0.540501	0.187650
C156	C	1.869017	-0.290501	0.437650
C157	C	1.122293	-0.967149	-0.309031
C158	C	1.372293	-0.717149	-0.059031
C159	C	1.622293	-0.467149	0.190969
C160	C	1.872293	-0.217149	0.440969
C161	C	1.076412	-0.930483	-0.354825
C162	C	1.326412	-0.680483	-0.104825
C163	C	1.576412	-0.430483	0.145175
C164	C	1.826412	-0.180483	0.395175
C165	C	1.036181	-0.820668	-0.394926
C166	C	1.286181	-0.570668	-0.144926
C167	C	1.536181	-0.320668	0.105074
C168	C	1.786181	-0.070668	0.355074
C169	C	1.079771	-0.855508	-0.351432
C170	C	1.329771	-0.605508	-0.101432
C171	C	1.579771	-0.355508	0.148568
C172	C	1.829771	-0.105508	0.398568
C173	C	1.251613	-0.338470	-0.373208
C174	C	1.501613	-0.088470	-0.123208
C175	C	1.751613	0.161530	0.126792
C176	C	2.001613	0.411530	0.376792
C177	C	1.334158	-0.338481	-0.373227
C178	C	1.584158	-0.088481	-0.123227
C179	C	1.834158	0.161519	0.126773
C180	C	2.084158	0.411519	0.376773
C181	C	1.057942	-0.338409	-0.566870
C182	C	1.307942	-0.088409	-0.316870
C183	C	1.557942	0.161591	-0.066870
C184	C	1.807942	0.411591	0.183130
C185	C	1.057956	-0.338395	-0.649415
C186	C	1.307956	-0.088395	-0.399415
C187	C	1.557956	0.161605	-0.149415
C188	C	1.807956	0.411605	0.100585
C189	C	1.066281	-0.155250	-0.364958
C190	C	1.316281	0.094750	-0.114958
C191	C	1.566281	0.344750	0.135042
C192	C	1.816281	0.594750	0.385042
C193	C	1.069849	-0.077183	-0.361461
C194	C	1.319849	0.172817	-0.111461
C195	C	1.569849	0.422817	0.138539
C196	C	1.819849	0.672817	0.388539
C197	C	1.006256	-0.385226	-0.900328
C198	C	1.256256	-0.135226	-0.650328
C199	C	1.506256	0.114774	-0.400328
C200	C	1.756256	0.364774	-0.150328
C201	C	0.991005	-0.321164	-0.848053
C202	C	1.241005	-0.071164	-0.598053
C203	C	1.491005	0.178836	-0.348053
C204	C	1.741005	0.428836	-0.098053
C205	C	1.058024	-0.338292	-0.946531
C206	C	1.308024	-0.088292	-0.696531
C207	C	1.558024	0.161708	-0.446531
C208	C	1.808024	0.411708	-0.196531
C209	C	1.073207	-0.402402	-0.851726
C210	C	1.323207	-0.152402	-0.601726
C211	C	1.573207	0.097598	-0.351726
C212	C	1.823207	0.347598	-0.101726
C213	C	1.057989	-0.338346	-0.800548
C214	C	1.307989	-0.088346	-0.550548
C215	C	1.557989	0.161654	-0.300548
C216	C	1.807989	0.411654	-0.050548
C217	C	1.042740	-0.274195	-0.895342
C218	C	1.292740	-0.024195	-0.645342
C219	C	1.542740	0.225805	-0.395342
C220	C	1.792740	0.475805	-0.145342
C221	C	1.124971	-0.355477	-0.899021
C222	C	1.374971	-0.105477	-0.649021
C223	C	1.624971	0.144523	-0.399021
C224	C	1.874971	0.394523	-0.149021
C225	C	1.109747	-0.291370	-0.846766
C226	C	1.359747	-0.041370	-0.596766
C227	C	1.609747	0.208630	-0.346766
C228	C	1.859747	0.458630	-0.096766
C229	C	1.058042	-0.338262	-1.030628
C230	C	1.308042	-0.088262	-0.780628
C231	C	1.558042	0.161738	-0.530628
C232	C	1.808042	0.411738	-0.280628
C233	C	1.057971	-0.338369	-0.716452
C234	C	1.307971	-0.088369	-0.466452
C235	C	1.557971	0.161631	-0.216452
C236	C	1.807971	0.411631	0.033548
C237	C	1.057920	-0.338426	-0.180213
C238	C	1.307920	-0.088426	0.069787
C239	C	1.557920	0.161574	0.319787
C240	C	1.807920	0.411574	0.569787
C241	C	1.058059	-0.338242	-0.097659
C242	C	1.308059	-0.088242	0.152341
C243	C	1.558059	0.161758	0.402341
C244	C	1.808059	0.411758	0.652341
H245	H	0.608524	-0.251775	-0.277822
H246	H	0.858524	-0.001775	-0.027822
H247	H	1.108524	0.248225	0.222178
H248	H	1.358524	0.498225	0.472178
Br249	Br	0.495448	-0.379603	-0.211701
Br250	Br	0.745448	-0.129603	0.038299
Br251	Br	0.995448	0.120397	0.288299
Br252	Br	1.245448	0.370397	0.538299
H253	H	0.996149	-0.850543	-0.434907
H254	H	1.246149	-0.600543	-0.184907
H255	H	1.496149	-0.350543	0.065093
H256	H	1.746149	-0.100543	0.315093
Br257	Br	1.189030	-0.917370	-0.242394
Br258	Br	1.439030	-0.667370	0.007606
Br259	Br	1.689030	-0.417370	0.257606
Br260	Br	1.939030	-0.167370	0.507606
Br261	Br	0.492650	-0.451785	-0.497612
Br262	Br	0.742650	-0.201785	-0.247612
Br263	Br	0.992650	0.048215	0.002388
Br264	Br	1.242650	0.298215	0.252388
H265	H	1.086064	-0.456596	-0.832473
H266	H	1.336064	-0.206596	-0.582473
H267	H	1.586064	0.043404	-0.332473
H268	H	1.836064	0.293404	-0.082473
H269	H	0.517242	-0.220251	-0.401527
H270	H	0.767242	0.029749	-0.151527
H271	H	1.017242	0.279749	0.098473
H272	H	1.267242	0.529749	0.348473
H273	H	0.599192	-0.456716	-0.344666
H274	H	0.849192	-0.206716	-0.094666
H275	H	1.099192	0.043284	0.155334
H276	H	1.349192	0.293284	0.405334
H277	H	0.606210	-0.306912	-0.496816
H278	H	0.856210	-0.056912	-0.246816
H279	H	1.106210	0.193088	0.003184
H280	H	1.356210	0.443088	0.253184
Br281	Br	0.933270	-0.451259	-0.939412
Br282	Br	1.183270	-0.201259	-0.689412
Br283	Br	1.433270	0.048741	-0.439412
Br284	Br	1.683270	0.298741	-0.189412
H285	H	0.953623	-0.738892	-0.477307
H286	H	1.203623	-0.488892	-0.227307
H287	H	1.453623	-0.238892	0.022693
H288	H	1.703623	0.011108	0.272693
H289	H	1.132013	-0.605794	-0.299109
H290	H	1.382013	-0.355794	-0.049109
H291	H	1.632013	-0.105794	0.200891
H292	H	1.882013	0.144206	0.450891
H293	H	1.156373	-1.070362	-0.275069
H294	H	1.406373	-0.820362	-0.025069
H295	H	1.656373	-0.570362	0.224931
H296	H	1.906373	-0.320362	0.474931
Br297	Br	1.150977	-0.758768	-0.280287
Br298	Br	1.400977	-0.508768	-0.030287
Br299	Br	1.650977	-0.258768	0.219713
Br300	Br	1.900977	-0.008768	0.469713
H301	H	0.934375	-0.306647	-0.825690
H302	H	1.184375	-0.056647	-0.575690
H303	H	1.434375	0.193353	-0.325690
H304	H	1.684375	0.443353	-0.075690
H305	H	0.983939	-1.070382	-0.447248
H306	H	1.233939	-0.820382	-0.197248
H307	H	1.483939	-0.570382	0.052752
H308	H	1.733939	-0.320382	0.302752
H309	H	0.959573	-0.605815	-0.471285
H310	H	1.209573	-0.355815	-0.221285
H311	H	1.459573	-0.105815	0.028715
H312	H	1.709573	0.144185	0.278715
Br313	Br	0.964980	-0.917410	-0.466081
Br314	Br	1.214980	-0.667410	-0.216081
Br315	Br	1.464980	-0.417410	0.033919
Br316	Br	1.714980	-0.167410	0.283919
H317	H	1.119804	-0.825638	-0.311452
H318	H	1.369804	-0.575638	-0.061452
H319	H	1.619804	-0.325638	0.188548
H320	H	1.869804	-0.075638	0.438548
H321	H	1.029819	-0.219985	-0.914504
H322	H	1.279819	0.030015	-0.664504
H323	H	1.529819	0.280015	-0.414504
H324	H	1.779819	0.530015	-0.164504
Br325	Br	1.182695	-0.225183	-0.807906
Br326	Br	1.432695	0.024817	-0.557906
Br327	Br	1.682695	0.274817	-0.307906
Br328	Br	1.932695	0.524817	-0.057906
H329	H	1.181583	-0.370012	-0.921400
H330	H	1.431583	-0.120012	-0.671400
H331	H	1.681583	0.129988	-0.421400
H332	H	1.931583	0.379988	-0.171400
