data_functionalizedCrystal
_audit_creation_method	'MofGen! by Chris Wilmer'
_symmetry_space_group_name_H-M	'P1'
_symmetry_Int_Tables_number	1
_symmetry_cell_setting	triclinic
loop_
_symmetry_equiv_pos_as_xyz
  x,y,z
_cell_length_a	12.645330
_cell_length_b	14.908618
_cell_length_c	14.908308
_cell_angle_alpha	89.826377
_cell_angle_beta	93.270481
_cell_angle_gamma	93.287528
loop_
_atom_site_label
_atom_site_type_symbol
_atom_site_fract_x
_atom_site_fract_y
_atom_site_fract_z
Zn1	Zn	-0.553274	-1.345314	-0.587645
Zn2	Zn	-0.053274	-0.845314	-0.087645
Zn3	Zn	-0.720953	-1.353901	-0.437294
Zn4	Zn	-0.220953	-0.853901	0.062706
Zn5	Zn	-0.532907	-1.203629	-0.428638
Zn6	Zn	-0.032907	-0.703629	0.071362
Zn7	Zn	-0.719688	-1.194929	-0.578941
Zn8	Zn	-0.219688	-0.694929	-0.078941
O9	O	-0.631705	-1.274443	-0.508130
O10	O	-0.131705	-0.774443	-0.008130
O11	O	-0.584570	-1.472280	-0.574966
O12	O	-0.084570	-0.972280	-0.074966
O13	O	-0.688014	-1.341202	-0.310321
O14	O	-0.188014	-0.841202	0.189679
O15	O	-0.387266	-1.222471	-0.449751
O16	O	0.112734	-0.722471	0.050249
O17	O	-0.707763	-1.478588	-0.464503
O18	O	-0.207763	-0.978588	0.035497
O19	O	-0.402229	-1.326567	-0.566573
O20	O	0.097771	-0.826567	-0.066573
O21	O	-0.549858	-1.230798	-0.303961
O22	O	-0.049858	-0.730798	0.196039
O23	O	-0.548631	-1.076649	-0.441311
O24	O	-0.048631	-0.576649	0.058689
O25	O	-0.705607	-1.207643	-0.705921
O26	O	-0.205607	-0.707643	-0.205921
O27	O	-0.685858	-1.070257	-0.551738
O28	O	-0.185858	-0.570257	-0.051738
O29	O	-0.583343	-1.318131	-0.712315
O30	O	-0.083343	-0.818131	-0.212315
O31	O	-0.869128	-1.332766	-0.456064
O32	O	-0.369128	-0.832766	0.043936
O33	O	-0.868198	-1.215969	-0.560131
O34	O	-0.368198	-0.715969	-0.060131
C35	C	-0.614898	-1.040827	-0.494641
C36	C	-0.114898	-0.540827	0.005359
C37	C	-0.607734	-0.940884	-0.488892
C38	C	-0.107734	-0.440884	0.011108
C39	C	-0.907130	-1.274378	-0.508113
C40	C	-0.407130	-0.774378	-0.008113
C41	C	-1.024965	-1.274431	-0.508141
C42	C	-0.524965	-0.774431	-0.008141
C43	C	-0.737369	-0.746482	-0.592923
C44	C	-0.237369	-0.246482	-0.092923
C45	C	-0.730641	-0.652576	-0.587524
C46	C	-0.230641	-0.152576	-0.087524
C47	C	-0.587549	-0.659165	-0.472702
C48	C	-0.087549	-0.159165	0.027298
C49	C	-0.594276	-0.753071	-0.478100
C50	C	-0.094276	-0.253071	0.021900
C51	C	-0.669189	-0.796726	-0.538212
C52	C	-0.169189	-0.296726	-0.038212
C53	C	-0.675921	-0.890634	-0.543605
C54	C	-0.175921	-0.390634	-0.043605
C55	C	-0.532824	-0.897221	-0.428788
C56	C	-0.032824	-0.397221	0.071212
C57	C	-0.526097	-0.803315	-0.423390
C58	C	-0.026097	-0.303315	0.076610
C59	C	-1.192023	-1.201229	-0.573841
C60	C	-0.692023	-0.701229	-0.073841
C61	C	-1.069424	-1.200888	-0.573596
C62	C	-0.569424	-0.700888	-0.073596
C63	C	-1.061664	-1.254253	-0.411904
C64	C	-0.561664	-0.754253	0.088096
C65	C	-1.184259	-1.253806	-0.412303
C66	C	-0.684259	-0.753806	0.087697
C67	C	-1.200451	-1.368280	-0.537934
C68	C	-0.700451	-0.868280	-0.037934
C69	C	-1.077934	-1.367576	-0.539972
C70	C	-0.577934	-0.867576	-0.039972
C71	C	-0.355209	-1.274532	-0.508167
C72	C	0.144791	-0.774532	-0.008167
C73	C	-0.237382	-1.274570	-0.508183
C74	C	0.262618	-0.774570	-0.008183
C75	C	-0.646606	-1.260959	-0.742655
C76	C	-0.146606	-0.760959	-0.242655
C77	C	-0.652955	-1.255212	-0.842596
C78	C	-0.152955	-0.755212	-0.342596
C79	C	-0.648571	-0.508972	-0.521664
C80	C	-0.148571	-0.008972	-0.021664
C81	C	-0.655735	-0.608915	-0.527415
C82	C	-0.155735	-0.108915	-0.027415
C83	C	-0.537549	-1.359463	-1.037056
C84	C	-0.037549	-0.859463	-0.537056
C85	C	-0.543512	-1.354066	-1.130959
C86	C	-0.043512	-0.854066	-0.630959
C87	C	-0.670837	-1.239019	-1.124308
C88	C	-0.170837	-0.739019	-0.624308
C89	C	-0.664874	-1.244416	-1.030405
C90	C	-0.164874	-0.744416	-0.530405
C91	C	-0.598229	-1.304640	-0.986782
C92	C	-0.098229	-0.804640	-0.486782
C93	C	-0.592273	-1.310041	-0.892877
C94	C	-0.092273	-0.810041	-0.392877
C95	C	-0.719592	-1.194990	-0.886227
C96	C	-0.219592	-0.694990	-0.386227
C97	C	-0.725555	-1.189594	-0.980131
C98	C	-0.225555	-0.689594	-0.480131
C99	C	-0.616790	-1.287927	-0.274519
C100	C	-0.116790	-0.787927	0.225481
C101	C	-0.610154	-1.293848	-0.174589
C102	C	-0.110154	-0.793848	0.325411
H103	H	-0.736921	-0.926176	-0.592550
H104	H	-0.236921	-0.426176	-0.092550
H105	H	-1.054627	-1.382893	-0.610825
H106	H	-0.554627	-0.882893	-0.110825
Cl107	Cl	-0.809331	-1.113886	-1.034979
Cl108	Cl	-0.309331	-0.613886	-0.534979
H109	H	-0.786158	-0.611671	-0.632077
H110	H	-0.286158	-0.111671	-0.132077
H111	H	-0.465102	-0.767758	-0.374451
H112	H	0.034898	-0.267758	0.125549
H113	H	-0.526551	-0.623605	-0.423768
H114	H	-0.026551	-0.123605	0.076232
Cl115	Cl	-0.831553	-0.801366	-0.668479
Cl116	Cl	-0.331553	-0.301366	-0.168479
Cl117	Cl	-0.447116	-0.960391	-0.359997
Cl118	Cl	0.052884	-0.460391	0.140003
H119	H	-1.044910	-1.212879	-0.644784
H120	H	-0.544910	-0.712879	-0.144784
Cl121	Cl	-0.467223	-1.422988	-1.194158
Cl122	Cl	0.032777	-0.922988	-0.694158
H123	H	-0.769005	-1.150352	-0.845284
H124	H	-0.269005	-0.650352	-0.345284
H125	H	-1.227079	-1.213059	-0.645250
H126	H	-0.727079	-0.713059	-0.145250
H127	H	-1.032613	-1.306219	-0.361407
H128	H	-0.532613	-0.806219	0.138593
H129	H	-0.725095	-1.189987	-1.159842
H130	H	-0.225095	-0.689987	-0.659842
H131	H	-1.213959	-1.305203	-0.361420
H132	H	-0.713959	-0.805203	0.138580
H133	H	-1.216875	-1.132075	-0.553929
H134	H	-0.716875	-0.632075	-0.053929
Cl135	Cl	-0.453782	-1.435181	-0.982213
Cl136	Cl	0.046218	-0.935181	-0.482213
H137	H	-1.034096	-1.131305	-0.553454
H138	H	-0.534096	-0.631305	-0.053454
Cl139	Cl	-1.218821	-1.148294	-0.374376
Cl140	Cl	-0.718821	-0.648294	0.125624
Cl141	Cl	-1.004716	-1.149890	-0.373465
Cl142	Cl	-0.504716	-0.649890	0.126535
Cl143	Cl	-1.257361	-1.398351	-0.644886
Cl144	Cl	-0.757361	-0.898351	-0.144886
Cl145	Cl	-1.245955	-1.452541	-0.464220
Cl146	Cl	-0.745955	-0.952541	0.035780
Cl147	Cl	-1.032000	-1.455711	-0.472195
Cl148	Cl	-0.532000	-0.955711	0.027805
Cl149	Cl	-0.508495	-1.385752	-0.838038
Cl150	Cl	-0.008495	-0.885752	-0.338038
