data_functionalizedCrystal
_audit_creation_method	'MofGen! by Chris Wilmer'
_symmetry_space_group_name_H-M	'P1'
_symmetry_Int_Tables_number	1
_symmetry_cell_setting	triclinic
loop_
_symmetry_equiv_pos_as_xyz
  x,y,z
_cell_length_a	10.654550
_cell_length_b	10.489741
_cell_length_c	9.730223
_cell_angle_alpha	89.995878
_cell_angle_beta	89.999957
_cell_angle_gamma	84.512052
loop_
_atom_site_label
_atom_site_type_symbol
_atom_site_fract_x
_atom_site_fract_y
_atom_site_fract_z
O1	O	1.667923	0.179162	-0.114186
O2	O	1.302452	0.196231	-0.114212
O3	O	1.493504	0.002095	-0.114190
O4	O	1.476872	0.373298	-0.114208
O5	O	1.493491	0.002089	0.114390
O6	O	1.302440	0.196226	0.114368
O7	O	1.667911	0.179157	0.114393
Zn8	Zn	1.485173	0.187690	0.150673
Zn9	Zn	1.485190	0.187697	-0.150491
O10	O	1.476859	0.373293	0.114372
C11	C	1.255648	0.194975	0.000075
C12	C	1.116203	0.191225	0.000066
C13	C	1.036771	0.305530	0.000064
C14	C	0.905748	0.301999	0.000088
C15	C	0.933603	0.069849	0.000110
C16	C	1.064623	0.073381	0.000095
C17	C	1.492241	-0.045439	0.000099
C18	C	1.488483	-0.187067	0.000096
C19	C	1.366923	-0.255148	0.000078
C20	C	1.424341	-0.347301	0.112783
C21	C	1.424382	-0.347270	-0.112579
C22	C	1.545951	-0.277354	0.112895
C23	C	1.545975	-0.277314	-0.112568
C24	C	1.603481	-0.369439	0.000165
C25	C	1.714715	0.180413	0.000104
C26	C	1.854160	0.184162	0.000104
C27	C	1.478122	0.420827	0.000080
C28	C	1.481880	0.562454	0.000074
N29	N	1.485171	0.187685	0.356209
N30	N	1.485201	0.187693	-0.356027
C31	C	1.569798	0.101758	0.428145
C32	C	1.569811	0.101758	0.572028
C33	C	1.400566	0.273624	0.572027
C34	C	1.400548	0.273616	0.428147
H35	H	0.841079	0.395078	0.000090
N36	N	1.150308	-0.049910	0.000113
H37	H	1.097753	-0.125099	0.000127
H38	H	1.205274	-0.053504	-0.084626
H39	H	1.331629	0.343589	0.369573
N40	N	0.877964	-0.057246	0.000114
H41	H	0.948169	-0.129122	0.000114
H42	H	0.824213	-0.063773	0.084854
H43	H	1.372900	-0.378290	0.208061
N44	N	1.092407	0.432627	0.000031
H45	H	1.022201	0.504501	0.000035
H46	H	1.146172	0.439152	0.084760
N47	N	1.234540	-0.189303	0.000206
H48	H	1.188131	-0.215797	-0.084044
H49	H	1.188889	-0.214602	0.085473
N50	N	1.614023	-0.236566	0.239251
H51	H	1.616110	-0.140510	0.238501
H52	H	1.568406	-0.262699	0.324198
N53	N	1.735981	-0.434989	0.000239
H54	H	1.798422	-0.368359	0.001090
H55	H	1.748750	-0.490851	0.084579
H56	H	1.597372	-0.246292	-0.207851
H57	H	1.372936	-0.378207	-0.207872
H58	H	1.638702	0.031785	0.369576
H59	H	1.638720	0.031787	0.630593
N60	N	1.309298	0.366304	0.649617
H61	H	1.322150	0.353274	0.751681
H62	H	1.324611	0.456934	0.624450
