data_functionalizedCrystal
_audit_creation_method	'MofGen! by Chris Wilmer'
_symmetry_space_group_name_H-M	'P1'
_symmetry_Int_Tables_number	1
_symmetry_cell_setting	triclinic
loop_
_symmetry_equiv_pos_as_xyz
  x,y,z
_cell_length_a	21.395362
_cell_length_b	19.077068
_cell_length_c	21.395355
_cell_angle_alpha	92.279051
_cell_angle_beta	89.956060
_cell_angle_gamma	92.343691
loop_
_atom_site_label
_atom_site_type_symbol
_atom_site_fract_x
_atom_site_fract_y
_atom_site_fract_z
Zn1	Zn	0.947861	-0.279990	-0.364586
Zn2	Zn	1.447861	0.220010	0.135414
Zn3	Zn	0.943561	-0.397672	-0.264012
Zn4	Zn	1.443561	0.102328	0.235988
Zn5	Zn	0.843074	-0.280023	-0.259789
Zn6	Zn	1.343074	0.219977	0.240211
Zn7	Zn	0.838842	-0.397686	-0.368717
Zn8	Zn	1.338842	0.102314	0.131283
O9	O	0.893334	-0.338843	-0.314276
O10	O	1.393334	0.161157	0.185724
O11	O	1.034969	-0.295581	-0.351283
O12	O	1.534969	0.204419	0.148717
O13	O	0.930203	-0.382073	-0.175774
O14	O	1.430203	0.117927	0.324226
O15	O	0.860546	-0.181525	-0.270194
O16	O	1.360546	0.318475	0.229806
O17	O	1.031810	-0.382041	-0.277392
O18	O	1.531810	0.117959	0.222608
O19	O	0.937532	-0.181501	-0.347188
O20	O	1.437532	0.318499	0.152812
O21	O	0.856376	-0.295637	-0.172671
O22	O	1.356376	0.204363	0.327329
O23	O	0.754834	-0.295651	-0.274200
O24	O	1.254834	0.204349	0.225800
O25	O	0.853331	-0.382066	-0.455847
O26	O	1.353331	0.117934	0.044153
O27	O	0.751725	-0.382098	-0.354229
O28	O	1.251725	0.117902	0.145771
O29	O	0.933427	-0.295595	-0.452812
O30	O	1.433427	0.204405	0.047188
O31	O	0.926098	-0.496167	-0.281398
O32	O	1.426098	0.003833	0.218602
O33	O	0.849162	-0.496177	-0.358324
O34	O	1.349162	0.003823	0.141676
C35	C	0.730545	-0.338880	-0.314205
C36	C	1.230545	0.161120	0.185795
C37	C	0.660903	-0.338913	-0.314190
C38	C	1.160903	0.161087	0.185810
C39	C	0.626585	-0.383985	-0.355803
C40	C	1.126585	0.116015	0.144197
C41	C	0.561150	-0.383968	-0.355830
C42	C	1.061150	0.116032	0.144170
C43	C	0.530036	-0.338886	-0.314233
C44	C	1.030036	0.161114	0.185767
C45	C	0.564362	-0.293804	-0.272617
C46	C	1.064362	0.206196	0.227383
C47	C	0.629796	-0.293818	-0.272595
C48	C	1.129796	0.206182	0.227405
C49	C	0.426513	-0.333216	-0.257626
C50	C	0.926513	0.166784	0.242374
C51	C	0.361081	-0.333207	-0.257647
C52	C	0.861081	0.166793	0.242353
C53	C	0.328216	-0.338840	-0.314301
C54	C	0.828216	0.161160	0.185699
C55	C	0.360792	-0.344496	-0.370937
C56	C	0.860792	0.155504	0.129063
C57	C	0.426226	-0.344510	-0.370915
C58	C	0.926226	0.155490	0.129085
C59	C	0.459084	-0.338866	-0.314253
C60	C	0.959084	0.161134	0.185747
C61	C	0.222946	-0.383896	-0.355947
C62	C	0.722946	0.116104	0.144053
C63	C	0.157511	-0.383874	-0.355976
C64	C	0.657511	0.116126	0.144024
C65	C	0.160724	-0.293714	-0.272756
C66	C	0.660724	0.206286	0.227244
C67	C	0.226158	-0.293732	-0.272734
C68	C	0.726158	0.206268	0.227266
C69	C	0.257266	-0.338827	-0.314328
C70	C	0.757266	0.161173	0.185672
C71	C	0.886721	-0.521710	-0.320781
C72	C	1.386721	-0.021710	0.179219
C73	C	0.883949	-0.599942	-0.323585
C74	C	1.383949	-0.099942	0.176415
C75	C	0.922735	-0.636666	-0.284884
C76	C	1.422735	-0.136666	0.215116
C77	C	0.920132	-0.710173	-0.287525
C78	C	1.420132	-0.210173	0.212475
C79	C	0.878739	-0.746954	-0.328864
C80	C	1.378739	-0.246954	0.171136
C81	C	0.839952	-0.710224	-0.367570
C82	C	1.339952	-0.210224	0.132430
C83	C	0.842559	-0.636719	-0.364931
C84	C	1.342559	-0.136719	0.135069
C85	C	0.866647	-0.966795	-0.341049
C86	C	1.366647	-0.466795	0.158951
C87	C	0.864041	-1.040305	-0.343683
C88	C	1.364041	-0.540305	0.156317
C89	C	0.944222	-1.040249	-0.263639
C90	C	1.444222	-0.540249	0.236361
C91	C	0.946823	-0.966742	-0.261002
C92	C	1.446823	-0.466742	0.238998
C93	C	0.908038	-0.930019	-0.299709
C94	C	1.408038	-0.430019	0.200291
N95	N	0.876076	-0.822090	-0.331564
N96	N	1.376076	-0.322090	0.168436
N97	N	0.910705	-0.854884	-0.297013
N98	N	1.410705	-0.354884	0.202987
C99	C	1.056759	-0.338806	-0.314348
C100	C	1.556759	0.161194	0.185652
C101	C	1.126401	-0.338790	-0.314379
C102	C	1.626401	0.161210	0.185621
C103	C	0.893387	-0.338828	-0.477699
C104	C	1.393387	0.161172	0.022301
C105	C	0.893409	-0.338822	-0.547340
C106	C	1.393409	0.161178	-0.047340
C107	C	0.899990	-0.155261	-0.307759
C108	C	1.399990	0.344739	0.192241
C109	C	0.902827	-0.077030	-0.304982
C110	C	1.402827	0.422970	0.195018
C111	C	0.935113	-0.293795	-0.578474
C112	C	1.435113	0.206205	-0.078474
C113	C	0.935114	-0.293765	-0.643908
C114	C	1.435114	0.206235	-0.143908
C115	C	0.893416	-0.338774	-0.678207
C116	C	1.393416	0.161226	-0.178207
C117	C	0.851704	-0.383805	-0.647065
C118	C	1.351704	0.116195	-0.147065
C119	C	0.851700	-0.383829	-0.581632
C120	C	1.351700	0.116171	-0.081632
C121	C	0.886177	-0.402150	-0.784134
C122	C	1.386177	0.097850	-0.284134
C123	C	0.886184	-0.402127	-0.849566
C124	C	1.386184	0.097873	-0.349566
C125	C	0.893422	-0.338700	-0.880025
C126	C	1.393422	0.161300	-0.380025
C127	C	0.900666	-0.275294	-0.845043
C128	C	1.400666	0.224706	-0.345043
C129	C	0.900663	-0.275318	-0.779610
C130	C	1.400663	0.224682	-0.279610
C131	C	0.893414	-0.338753	-0.749158
C132	C	1.393414	0.161247	-0.249158
C133	C	0.935129	-0.293636	-0.982110
C134	C	1.435129	0.206364	-0.482110
C135	C	0.935125	-0.293605	-1.047545
C136	C	1.435125	0.206395	-0.547545
C137	C	0.851718	-0.383651	-1.050701
C138	C	1.351718	0.116349	-0.550701
C139	C	0.851719	-0.383676	-0.985267
C140	C	1.351719	0.116324	-0.485267
C141	C	0.893428	-0.338670	-0.950975
C142	C	1.393428	0.161330	-0.450975
C143	C	0.893320	-0.338806	-0.151487
C144	C	1.393320	0.161194	0.348513
C145	C	0.893426	-0.338614	-0.081839
C146	C	1.393426	0.161386	0.418161
H147	H	0.135391	-0.257003	-0.238890
H148	H	0.635391	0.242997	0.261110
N149	N	0.819397	-1.079976	-0.388276
N150	N	1.319397	-0.579976	0.111724
H151	H	0.823629	-1.132114	-0.384069
H152	H	1.323629	-0.632114	0.115931
H153	H	0.775107	-1.067187	-0.378011
H154	H	1.275107	-0.567187	0.121989
H155	H	0.835065	-0.936900	-0.372565
H156	H	1.335065	-0.436900	0.127435
N157	N	0.980104	-0.245024	-1.081120
N158	N	1.480104	0.254976	-0.581120
H159	H	1.024475	-0.255950	-1.070158
H160	H	1.524475	0.244050	-0.570158
H161	H	0.973724	-0.251849	-1.127766
H162	H	1.473724	0.248151	-0.627766
H163	H	0.906561	-0.223645	-0.869841
H164	H	1.406561	0.276355	-0.369841
N165	N	0.795308	-0.749891	-0.412160
N166	N	1.295308	-0.249891	0.087840
H167	H	0.799539	-0.802030	-0.407958
H168	H	1.299539	-0.302030	0.092042
H169	H	0.751020	-0.737101	-0.401892
H170	H	1.251020	-0.237101	0.098108
N171	N	0.878376	-0.470567	-0.751288
N172	N	1.378376	0.029433	-0.251288
H173	H	0.879472	-0.460962	-0.704528
H174	H	1.379472	0.039038	-0.204528
H175	H	0.836962	-0.494494	-0.763550
H176	H	1.336962	0.005506	-0.263550
N177	N	0.967379	-0.596994	-0.240298
N178	N	1.467379	-0.096994	0.259702
H179	H	0.957218	-0.609825	-0.195979
H180	H	1.457218	-0.109825	0.304021
H181	H	1.011672	-0.609741	-0.250599
H182	H	1.511672	-0.109741	0.249401
N183	N	0.908467	-0.206931	-0.741886
N184	N	1.408467	0.293069	-0.241886
H185	H	0.870535	-0.200352	-0.714475
H186	H	1.370535	0.299648	-0.214475
H187	H	0.947061	-0.207920	-0.714836
H188	H	1.447061	0.292080	-0.214836
N189	N	0.325357	-0.350576	-0.432048
N190	N	0.825357	0.149424	0.067952
H191	H	0.278962	-0.349706	-0.423471
H192	H	0.778962	0.150294	0.076529
H193	H	0.338317	-0.309924	-0.458669
H194	H	0.838317	0.190076	0.041331
N195	N	0.986050	-1.079856	-0.221890
N196	N	1.486050	-0.579856	0.278110
H197	H	0.978118	-1.132003	-0.229831
H198	H	1.478118	-0.632003	0.270169
H199	H	1.031251	-1.066948	-0.231232
H200	H	1.531251	-0.566948	0.268768
N201	N	0.263178	-0.245113	-0.227854
N202	N	0.763178	0.254887	0.272146
H203	H	0.233540	-0.216548	-0.201508
H204	H	0.733540	0.283452	0.298492
H205	H	0.289252	-0.273714	-0.199823
H206	H	0.789252	0.226286	0.300177
H207	H	0.817761	-0.420292	-1.078627
H208	H	1.317761	0.079708	-0.578627
H209	H	0.817763	-0.420347	-0.959918
H210	H	1.317763	0.079653	-0.459918
H211	H	0.951715	-0.740071	-0.256010
H212	H	1.451715	-0.240071	0.243990
H213	H	0.248275	-0.420611	-0.389819
H214	H	0.748275	0.079389	0.110181
N215	N	0.120493	-0.432495	-0.400857
N216	N	0.620493	0.067505	0.099143
H217	H	0.094424	-0.403940	-0.428934
H218	H	0.594424	0.096060	0.071066
H219	H	0.150172	-0.461054	-0.427157
H220	H	0.650172	0.038946	0.072843
N221	N	0.878377	-0.470511	-0.887294
N222	N	1.378377	0.029489	-0.387294
H223	H	0.873783	-0.510695	-0.858071
H224	H	1.373783	-0.010695	-0.358071
H225	H	0.839810	-0.469494	-0.914380
H226	H	1.339810	0.030506	-0.414380
H227	H	0.657737	-0.257112	-0.238708
H228	H	1.157737	0.242888	0.261292
N229	N	0.530805	-0.245186	-0.227747
N230	N	1.030805	0.254814	0.272253
H231	H	0.562477	-0.216634	-0.201380
H232	H	1.062477	0.283366	0.298620
H233	H	0.504873	-0.212651	-0.252149
H234	H	1.004873	0.287349	0.247851
N235	N	0.980110	-0.245095	-0.945118
N236	N	1.480110	0.254905	-0.445118
H237	H	1.006527	-0.216560	-0.974773
H238	H	1.506527	0.283440	-0.474773
H239	H	0.955786	-0.212540	-0.916784
H240	H	1.455786	0.287460	-0.416784
H241	H	0.651908	-0.420704	-0.389674
H242	H	1.151908	0.079296	0.110326
H243	H	0.334562	-0.328606	-0.211530
H244	H	0.834562	0.171394	0.288470
N245	N	0.991477	-0.927072	-0.216424
N246	N	1.491477	-0.427072	0.283576
H247	H	1.015657	-0.961491	-0.192311
H248	H	1.515657	-0.461491	0.307689
H249	H	1.021538	-0.896530	-0.240879
H250	H	1.521538	-0.396530	0.259121
H251	H	0.817751	-0.420450	-0.674995
H252	H	1.317751	0.079550	-0.174995
N253	N	0.800728	-0.597105	-0.406675
N254	N	1.300728	-0.097105	0.093325
H255	H	0.774110	-0.631558	-0.433263
H256	H	1.274110	-0.131558	0.066737
H257	H	0.772825	-0.566656	-0.380043
H258	H	1.272825	-0.066656	0.119957
H259	H	0.817737	-0.420495	-0.556283
H260	H	1.317737	0.079505	-0.056283
N261	N	0.461957	-0.327137	-0.196516
N262	N	0.961957	0.172863	0.303484
H263	H	0.431393	-0.323558	-0.160643
H264	H	0.931393	0.176442	0.339357
H265	H	0.487530	-0.370017	-0.192153
H266	H	0.987530	0.129983	0.307847
N267	N	0.980103	-0.245204	-0.677497
N268	N	1.480103	0.254796	-0.177497
H269	H	0.973777	-0.252021	-0.724152
H270	H	1.473777	0.247979	-0.224152
H271	H	0.972181	-0.194941	-0.664260
H272	H	1.472181	0.305059	-0.164260
H273	H	0.969075	-0.257146	-0.550557
H274	H	1.469075	0.242854	-0.050557
H275	H	0.533203	-0.420671	-0.389719
H276	H	1.033203	0.079329	0.110281
H277	H	0.452747	-0.349113	-0.417029
H278	H	0.952747	0.150887	0.082971
