data_functionalizedCrystal
_audit_creation_method	'MofGen! by Chris Wilmer'
_symmetry_space_group_name_H-M	'P1'
_symmetry_Int_Tables_number	1
_symmetry_cell_setting	triclinic
loop_
_symmetry_equiv_pos_as_xyz
  x,y,z
_cell_length_a	12.759401
_cell_length_b	19.120786
_cell_length_c	12.759393
_cell_angle_alpha	92.476000
_cell_angle_beta	90.020938
_cell_angle_gamma	92.466720
loop_
_atom_site_label
_atom_site_type_symbol
_atom_site_fract_x
_atom_site_fract_y
_atom_site_fract_z
Zn1	Zn	1.588347	-0.279569	0.576137
Zn2	Zn	1.580708	-0.397044	0.392943
Zn3	Zn	1.412643	-0.279607	0.400470
Zn4	Zn	1.405111	-0.396995	0.568583
O5	O	1.496702	-0.338304	0.484533
O6	O	1.734354	-0.295157	0.551847
O7	O	1.558370	-0.381502	0.246918
O8	O	1.442300	-0.181311	0.430084
O9	O	1.728742	-0.381465	0.417255
O10	O	1.571389	-0.181283	0.559146
O11	O	1.434893	-0.295221	0.252448
O12	O	1.264623	-0.295174	0.422759
O13	O	1.429462	-0.381382	0.716609
O14	O	1.259089	-0.381418	0.546271
O15	O	1.564085	-0.295110	0.722158
O16	O	1.551066	-0.495328	0.409930
O17	O	1.422055	-0.495292	0.538972
C18	C	1.223736	-0.338295	0.484513
C19	C	1.106958	-0.338308	0.484528
C20	C	1.049238	-0.383284	0.548731
C21	C	0.939513	-0.383287	0.548751
C22	C	0.945240	-0.293336	0.420358
C23	C	1.054962	-0.293330	0.420343
C24	C	0.788002	-0.408490	0.671000
C25	C	0.730277	-0.453477	0.735192
C26	C	0.761481	-0.522024	0.746755
C27	C	0.850408	-0.545598	0.694110
C28	C	0.908126	-0.500615	0.629909
C29	C	0.876925	-0.432058	0.618366
C30	C	1.206475	-0.268134	0.298093
C31	C	1.264196	-0.223154	0.233886
C32	C	1.232994	-0.154606	0.222312
C33	C	1.144064	-0.131034	0.274940
C34	C	1.086343	-0.176014	0.339146
C35	C	1.117553	-0.244562	0.350722
C36	C	1.484943	-0.520796	0.472838
C37	C	1.480008	-0.598867	0.467870
C38	C	1.544849	-0.635470	0.532786
C39	C	1.540208	-0.708826	0.528119
C40	C	1.470731	-0.745577	0.458531
C41	C	1.405883	-0.708969	0.393612
C42	C	1.410519	-0.635615	0.398284
C43	C	1.453367	-0.967065	0.441064
C44	C	1.448738	-1.040425	0.436394
C45	C	1.583063	-1.040276	0.570903
C46	C	1.587698	-0.966920	0.575565
C47	C	1.522846	-0.930318	0.510650
C48	C	1.465988	-0.820559	0.453757
C49	C	1.527584	-0.855338	0.515430
C50	C	1.770735	-0.338313	0.484554
C51	C	1.887511	-0.338317	0.484563
C52	C	1.496785	-0.338236	0.758571
C53	C	1.496821	-0.338207	0.875349
C54	C	1.508536	-0.155099	0.496297
C55	C	1.513579	-0.077028	0.501310
C56	C	1.496683	-0.338320	0.211565
C57	C	1.496864	-0.338151	0.094799
C58	C	1.566924	-0.293278	0.933103
C59	C	1.566944	-0.293248	1.042829
C60	C	1.426753	-0.383082	1.037038
C61	C	1.426729	-0.383108	0.927314
C62	C	1.609868	-0.210377	1.198109
C63	C	1.679987	-0.165454	1.255866
C64	C	1.783190	-0.154683	1.220963
C65	C	1.816294	-0.188846	1.128305
C66	C	1.746180	-0.233774	1.070553
C67	C	1.642963	-0.244531	1.105455
C68	C	1.383816	-0.465980	0.772033
C69	C	1.313706	-0.510912	0.714278
C70	C	1.210501	-0.521690	0.749178
C71	C	1.177400	-0.487540	0.841840
C72	C	1.247510	-0.442608	0.899594
C73	C	1.350714	-0.431829	0.864686
H74	H	1.336607	-0.242352	0.191033
N75	N	1.112165	-0.061017	0.263128
N76	N	1.023577	-0.050605	0.226523
H77	H	1.001046	-0.001155	0.218177
H78	H	1.400564	-0.937269	0.388206
N79	N	1.638523	-0.247410	0.880039
N80	N	1.701109	-0.207298	0.931623
H81	H	1.751677	-0.174900	0.894150
H82	H	1.840282	-0.118106	1.267997
H83	H	1.349308	-0.738898	0.336956
H84	H	0.902891	-0.256717	0.368099
N85	N	1.291957	-0.108671	0.156709
N86	N	1.371347	-0.129723	0.109710
H87	H	1.412988	-0.097282	0.063379
H88	H	0.657874	-0.434276	0.778058
H89	H	1.644272	-0.936999	0.632230
N90	N	1.238344	-0.338157	0.309930
N91	N	1.261466	-0.358134	0.398692
H92	H	1.283974	-0.407589	0.407047
N93	N	1.598552	-0.817811	0.586521
N94	N	1.591030	-0.825956	0.682943
H95	H	1.641155	-0.799447	0.733150
H96	H	1.773134	-0.261591	0.995115
H97	H	1.467853	-0.457203	0.743603
N98	N	1.615835	-0.597944	0.603867
N99	N	1.673722	-0.630637	0.661822
H100	H	1.723858	-0.604137	0.712027
N101	N	1.347506	-0.545789	0.619615
N102	N	1.302910	-0.535702	0.534682
H103	H	1.326777	-0.560332	0.467824
N104	N	1.606442	-0.746204	0.594445
N105	N	1.668472	-0.713382	0.656571
H106	H	1.715251	-0.739780	0.703420
H107	H	1.091569	-0.419907	0.600997
H108	H	1.635861	-1.070086	0.623755
H109	H	1.900336	-0.180077	1.099900
N110	N	1.377799	-1.077956	0.365261
N111	N	1.319927	-1.045268	0.307282
H112	H	1.269844	-1.071774	0.257030
N113	N	1.395028	-0.858080	0.382644
N114	N	1.298590	-0.849943	0.390007
H115	H	1.248478	-0.876439	0.339775
N116	N	1.646159	-0.130566	1.350510
N117	N	1.554003	-0.140180	1.381659
H118	H	1.530116	-0.115543	1.448503
N119	N	1.344271	-0.598234	0.331973
N120	N	1.282239	-0.631054	0.269847
H121	H	1.235445	-0.604655	0.223015
N122	N	1.504443	-0.221360	1.233766
N123	N	1.474909	-0.190857	1.316497
H124	H	1.400451	-0.198613	1.341686
H125	H	1.369690	-0.419640	1.079360
H126	H	1.220551	-0.414802	0.975044
N127	N	1.071976	-0.498558	0.877486
N128	N	1.009389	-0.538675	0.825911
H129	H	0.934932	-0.546461	0.851085
H130	H	0.980528	-0.519809	0.587045
N131	N	1.138900	-0.567597	0.690178
N132	N	1.168463	-0.598093	0.607454
H133	H	1.117895	-0.630513	0.565786
H134	H	0.714474	-0.558652	0.799024
N135	N	0.882253	-0.615627	0.705916
N136	N	0.830707	-0.655783	0.763237
H137	H	0.853200	-0.705242	0.771578
H138	H	1.013937	-0.156814	0.382006
N139	N	0.756123	-0.338467	0.659216
N140	N	0.676723	-0.317435	0.706220
H141	H	0.654202	-0.267980	0.697898
