data_functionalizedCrystal
_audit_creation_method	'MofGen! by Chris Wilmer'
_symmetry_space_group_name_H-M	'P1'
_symmetry_Int_Tables_number	1
_symmetry_cell_setting	triclinic
loop_
_symmetry_equiv_pos_as_xyz
  x,y,z
_cell_length_a	16.992694
_cell_length_b	11.026607
_cell_length_c	16.053802
_cell_angle_alpha	93.134017
_cell_angle_beta	87.249047
_cell_angle_gamma	99.627120
loop_
_atom_site_label
_atom_site_type_symbol
_atom_site_fract_x
_atom_site_fract_y
_atom_site_fract_z
O1	O	1.079834	0.256038	-0.069317
O2	O	1.579834	0.756038	0.430683
O3	O	0.851145	0.253175	-0.069342
O4	O	1.351145	0.753175	0.430658
O5	O	0.946536	0.076115	-0.069328
O6	O	1.446536	0.576115	0.430672
O7	O	0.984443	0.433098	-0.069330
O8	O	1.484443	0.933098	0.430670
O9	O	0.941279	0.085818	0.069530
O10	O	1.441279	0.585818	0.569530
O11	O	0.845889	0.262878	0.069516
O12	O	1.345889	0.762878	0.569516
O13	O	1.074577	0.265741	0.069541
O14	O	1.574577	0.765741	0.569541
Zn15	Zn	0.959398	0.265850	0.091575
Zn16	Zn	1.459398	0.765850	0.591575
Zn17	Zn	0.966324	0.253066	-0.091376
Zn18	Zn	1.466324	0.753066	0.408624
O19	O	0.979186	0.442801	0.069528
O20	O	1.479186	0.942801	0.569528
C21	C	0.818785	0.254344	0.000084
C22	C	1.318785	0.754344	0.500084
C23	C	0.730190	0.243357	0.000075
C24	C	1.230190	0.743357	0.500075
C25	C	0.694911	0.349355	0.000075
C26	C	1.194911	0.849355	0.500075
C27	C	0.611666	0.339026	0.000086
C28	C	1.111666	0.839026	0.500086
C29	C	0.563702	0.222698	0.000092
C30	C	1.063702	0.722698	0.500092
C31	C	0.598986	0.116693	0.000094
C32	C	1.098986	0.616693	0.500094
C33	C	0.682229	0.127024	0.000089
C34	C	1.182229	0.627024	0.500089
C35	C	0.314060	0.179883	0.000114
C36	C	0.814060	0.679883	0.500114
C37	C	0.230811	0.169561	0.000117
C38	C	0.730811	0.669561	0.500117
C39	C	0.243497	0.391895	0.000111
C40	C	0.743497	0.891895	0.500111
C41	C	0.326741	0.402215	0.000100
C42	C	0.826741	0.902215	0.500100
C43	C	0.362018	0.296210	0.000107
C44	C	0.862018	0.796210	0.500107
N45	N	0.478612	0.212138	0.000101
N46	N	0.978612	0.712138	0.500101
N47	N	0.447107	0.306772	0.000104
N48	N	0.947107	0.806772	0.500104
C49	C	0.936914	0.035078	0.000099
C50	C	1.436914	0.535078	0.500099
C51	C	0.916068	-0.101658	0.000094
C52	C	1.416068	0.398342	0.500094
C53	C	0.973629	-0.169881	0.000099
C54	C	1.473629	0.330119	0.500099
C55	C	0.952085	-0.311205	0.000093
C56	C	1.452085	0.188795	0.500093
C57	C	1.106937	0.264572	0.000113
C58	C	1.606937	0.764572	0.500113
C59	C	1.195532	0.275558	0.000117
C60	C	1.695532	0.775558	0.500117
C61	C	0.988808	0.483838	0.000099
C62	C	1.488808	0.983838	0.500099
C63	C	1.009655	0.620574	0.000098
C64	C	1.509655	1.120574	0.500098
N65	N	0.954677	0.274575	0.216435
N66	N	1.454677	0.774575	0.716435
N67	N	0.971050	0.244332	-0.216236
N68	N	1.471050	0.744332	0.283764
C69	C	0.995289	0.199266	0.260135
C70	C	1.495289	0.699266	0.760135
C71	C	0.991996	0.205382	0.347541
C72	C	1.491996	0.705382	0.847541
C73	C	0.948095	0.286813	0.391246
C74	C	1.448095	0.786813	0.891246
C75	C	0.907478	0.362124	0.347540
C76	C	1.407478	0.862124	0.847540
C77	C	0.910767	0.356002	0.260136
C78	C	1.410767	0.856002	0.760136
C79	C	0.933722	0.313521	0.652654
C80	C	1.433722	0.813521	1.152654
C81	C	0.930438	0.319641	0.740065
C82	C	1.430438	0.819641	1.240065
C83	C	1.014955	0.162896	0.740059
C84	C	1.514955	0.662896	1.240059
C85	C	1.018244	0.156786	0.652653
C86	C	1.518244	0.656786	1.152653
C87	C	0.977624	0.232093	0.608955
C88	C	1.477624	0.732093	1.108955
N89	N	0.944729	0.293068	0.480589
N90	N	1.444729	0.793068	0.980589
N91	N	0.980985	0.225830	0.519613
N92	N	1.480985	0.725830	1.019613
H93	H	1.038860	-0.123663	0.000111
H94	H	1.538860	0.376337	0.500111
H95	H	1.048025	0.101583	0.775646
H96	H	1.548025	0.601583	1.275646
H97	H	0.886850	-0.357419	0.000081
H98	H	1.386850	0.142581	0.500081
N99	N	0.746639	0.474826	0.000075
N100	N	1.246639	0.974826	0.500075
H101	H	0.804727	0.465291	0.000070
H102	H	1.304727	0.965291	0.500070
H103	H	0.736796	0.517968	-0.051400
H104	H	1.236796	1.017968	0.448600
N105	N	0.889927	0.394752	0.605521
N106	N	1.389927	0.894752	1.105521
H107	H	0.849453	0.341752	0.569267
H108	H	1.349453	0.841752	1.069267
H109	H	0.861669	0.447262	0.646520
H110	H	1.361669	0.947262	1.146520
H111	H	0.850837	-0.147877	0.000081
H112	H	1.350837	0.352123	0.500081
N113	N	0.720282	0.012696	0.000081
N114	N	1.220282	0.512696	0.500081
H115	H	0.780294	0.036890	0.000080
H116	H	1.280294	0.536890	0.500080
H117	H	0.701021	-0.034053	0.051560
H118	H	1.201021	0.465947	0.551560
N119	N	1.096069	-0.318230	0.000101
N120	N	1.596069	0.181770	0.500101
H121	H	1.099213	-0.225948	0.000103
H122	H	1.599213	0.274052	0.500103
H123	H	1.121446	-0.340369	0.051580
H124	H	1.621446	0.159631	0.551580
N125	N	1.035831	0.124187	0.394663
N126	N	1.535831	0.624187	0.894663
H127	H	1.014949	0.034893	0.379461
H128	H	1.514949	0.534893	0.879461
H129	H	1.094814	0.142965	0.379403
H130	H	1.594814	0.642965	0.879403
N131	N	1.065596	0.068958	0.605515
N132	N	1.565596	0.568958	1.105515
H133	H	1.090823	0.022176	0.646462
H134	H	1.590823	0.522176	1.146462
H135	H	1.028847	0.009047	0.569258
H136	H	1.528847	0.509047	1.069258
N137	N	0.573611	0.453358	0.000181
N138	N	1.073611	0.953358	0.500181
H139	H	0.616626	0.528619	0.000202
H140	H	1.116626	1.028619	0.500202
H141	H	0.541255	0.450406	-0.051261
H142	H	1.041255	0.950406	0.448739
N143	N	0.883095	0.407486	0.787207
N144	N	1.383095	0.907486	1.287207
H145	H	0.857862	0.454267	0.746262
H146	H	1.357862	0.954267	1.246262
H147	H	0.839939	0.359490	0.823488
H148	H	1.339939	0.859490	1.323488
N149	N	0.860133	0.449961	0.394678
N150	N	1.360133	0.949961	0.894678
H151	H	0.834904	0.496739	0.353729
H152	H	1.334904	0.996739	0.853729
H153	H	0.816974	0.401962	0.430954
H154	H	1.316974	0.901962	0.930954
H155	H	0.559926	0.021977	0.000111
H156	H	1.059926	0.521977	0.500111
H157	H	0.214765	0.478198	0.000107
H158	H	0.714765	0.978198	0.500107
N159	N	0.378474	0.527681	0.000079
N160	N	0.878474	1.027681	0.500079
H161	H	0.343493	0.593265	0.000077
H162	H	0.843493	1.093265	0.500077
H163	H	0.411355	0.540422	0.051547
H164	H	0.911355	1.040422	0.551547
N165	N	0.866959	0.437225	0.213004
N166	N	1.366959	0.937225	0.713004
H167	H	0.887863	0.526512	0.228203
H168	H	1.387863	1.026512	0.728203
H169	H	0.875713	0.420886	0.151017
H170	H	1.375713	0.920886	0.651017
N171	N	0.179075	0.044087	0.000118
N172	N	0.679075	0.544087	0.500118
H173	H	0.214053	-0.021500	0.000122
H174	H	0.714053	0.478500	0.500122
H175	H	0.142316	0.038562	0.051594
H176	H	0.642316	0.538562	0.551594
H177	H	1.031042	0.132962	0.224556
H178	H	1.531042	0.632962	0.724556
H179	H	0.342772	0.093566	0.000121
H180	H	0.842772	0.593566	0.500121
