data_functionalizedCrystal
_audit_creation_method	'MofGen! by Chris Wilmer'
_symmetry_space_group_name_H-M	'P1'
_symmetry_Int_Tables_number	1
_symmetry_cell_setting	triclinic
loop_
_symmetry_equiv_pos_as_xyz
  x,y,z
_cell_length_a	12.759399
_cell_length_b	17.640112
_cell_length_c	12.759393
_cell_angle_alpha	101.175386
_cell_angle_beta	89.967969
_cell_angle_gamma	101.239729
loop_
_atom_site_label
_atom_site_type_symbol
_atom_site_fract_x
_atom_site_fract_y
_atom_site_fract_z
Zn1	Zn	-0.093192	1.208348	-0.269866
Zn2	Zn	-0.268932	1.208268	-0.094206
Zn3	Zn	-0.128797	1.076175	-0.129658
Zn4	Zn	-0.304383	1.076165	-0.305281
O5	O	-0.198826	1.142239	-0.199753
O6	O	-0.086767	1.318938	-0.216906
O7	O	-0.250408	1.190716	0.048104
O8	O	0.022957	1.093745	-0.148272
O9	O	-0.215883	1.318879	-0.087849
O10	O	0.049116	1.190853	-0.251282
O11	O	-0.147451	1.093667	0.022058
O12	O	-0.181826	0.965573	-0.182613
O13	O	-0.276303	1.093729	-0.447596
O14	O	-0.310828	0.965566	-0.311642
O15	O	-0.121142	1.190843	-0.421577
O16	O	-0.420666	1.190707	-0.122190
O17	O	-0.446711	1.093651	-0.277266
C18	C	-0.254039	0.936892	-0.254818
C19	C	-0.277684	0.849043	-0.278400
C20	C	-0.019175	0.560029	-0.020610
C21	C	-0.041415	0.477482	-0.042783
C22	C	-0.175930	0.477529	-0.176910
C23	C	-0.153697	0.560078	-0.154751
C24	C	-0.075320	0.601321	-0.076599
C25	C	-0.209842	0.601370	-0.210741
C26	C	-0.187615	0.683911	-0.188580
C27	C	-0.109244	0.725161	-0.110430
C28	C	-0.053093	0.683863	-0.054438
C29	C	-0.288225	0.560125	-0.288888
C30	C	-0.344369	0.601417	-0.344877
C31	C	-0.322138	0.683960	-0.322722
C32	C	-0.243766	0.725209	-0.244572
C33	C	-0.378288	0.725258	-0.378713
C34	C	-0.356062	0.807799	-0.356553
C35	C	-0.221539	0.807751	-0.222411
C36	C	-0.471806	1.142190	-0.199742
C37	C	-0.588569	1.142242	-0.199753
C38	C	-0.629819	1.192837	-0.119066
C39	C	-0.739529	1.192887	-0.119087
C40	C	-0.766732	1.091742	-0.280488
C41	C	-0.657023	1.091696	-0.280470
C42	C	-0.864316	1.286177	-0.056674
C43	C	-0.905572	1.336764	0.024028
C44	C	-0.866763	1.348925	0.129800
C45	C	-0.786703	1.310486	0.154889
C46	C	-0.745455	1.259893	0.074191
C47	C	-0.784259	1.247747	-0.031592
C48	C	-0.532234	0.998406	-0.342872
C49	C	-0.490985	0.947808	-0.423567
C50	C	-0.529794	0.935639	-0.529343
C51	C	-0.609861	0.974064	-0.554431
C52	C	-0.651109	1.024662	-0.473737
C53	C	-0.612292	1.036832	-0.367961
C54	C	0.075226	1.142309	-0.199781
C55	C	0.192011	1.142339	-0.199793
C56	C	-0.198705	1.142294	-0.473771
C57	C	-0.198653	1.142318	-0.590542
C58	C	-0.143398	1.348388	-0.144473
C59	C	-0.119779	1.436237	-0.120915
C60	C	-0.145027	1.091803	-0.658961
C61	C	-0.144989	1.091821	-0.768680
C62	C	-0.252206	1.192876	-0.741550
C63	C	-0.252249	1.192853	-0.631834
C64	C	-0.132449	0.998651	-0.943624
C65	C	-0.078804	0.948143	-1.012045
C66	C	0.020441	0.936029	-0.979705
C67	C	0.066066	0.974434	-0.878944
C68	C	0.012428	1.024948	-0.810527
C69	C	-0.086836	1.037047	-0.842869
C70	C	-0.264778	1.286024	-0.456887
C71	C	-0.318410	1.336543	-0.388467
C72	C	-0.417655	1.348665	-0.420802
C73	C	-0.463273	1.310274	-0.521564
C74	C	-0.409641	1.259755	-0.589984
C75	C	-0.310397	1.247632	-0.557641
C76	C	-0.198858	1.142229	0.073212
C77	C	-0.198573	1.142359	0.190023
H78	H	0.044663	0.593612	0.043014
F79	F	-0.490919	1.011358	-0.230293
F80	F	-0.556969	1.246633	-0.033161
F81	F	-0.269854	1.377406	-0.281230
H82	H	-0.755119	1.320385	0.241023
F83	F	-0.905614	1.273249	-0.169251
F84	F	-0.311890	0.472276	-0.312461
H85	H	0.049577	1.056220	-0.728492
H86	H	-0.822480	1.050588	-0.346203
F87	F	-0.736324	1.065558	-0.500441
H88	H	-0.970756	1.368061	0.003591
H89	H	-0.641460	0.964157	-0.640563
F90	F	-0.427792	0.557514	-0.428039
F91	F	-0.485935	0.881749	-0.615213
F92	F	-0.309242	1.246658	-0.785505
H93	H	-0.425785	0.916525	-0.403133
H94	H	0.004318	0.443865	0.002809
H95	H	-0.239748	0.443937	-0.240538
F96	F	0.171706	0.961548	-0.844540
H97	H	-0.101385	1.050653	-0.625345
F98	F	0.077533	0.882275	-1.052528
H99	H	-0.115962	0.916874	-1.094085
H100	H	-0.213271	1.008501	-0.969959
H101	H	-0.442110	0.691665	-0.442337
H102	H	-0.157701	0.841334	-0.158787
H103	H	-0.461315	1.389809	-0.365087
H104	H	-0.446790	1.228496	-0.672030
F105	F	-0.568898	1.323179	-0.555984
H106	H	-0.401779	0.841420	-0.402146
H107	H	-0.183980	1.276136	-0.430535
F108	F	-0.660261	1.218981	0.100887
H109	H	-0.091151	0.792371	-0.092386
H110	H	0.010745	0.717446	0.009185
F111	F	-0.910674	1.402764	0.215687
