data_functionalizedCrystal
_audit_creation_method	'MofGen! by Chris Wilmer'
_symmetry_space_group_name_H-M	'P1'
_symmetry_Int_Tables_number	1
_symmetry_cell_setting	triclinic
loop_
_symmetry_equiv_pos_as_xyz
  x,y,z
_cell_length_a	12.827893
_cell_length_b	18.101395
_cell_length_c	12.827885
_cell_angle_alpha	89.967625
_cell_angle_beta	89.980728
_cell_angle_gamma	90.031075
loop_
_atom_site_label
_atom_site_type_symbol
_atom_site_fract_x
_atom_site_fract_y
_atom_site_fract_z
Zn1	Zn	1.597556	-0.294794	-0.590830
Zn2	Zn	1.597402	-0.418654	-0.416082
Zn3	Zn	1.422797	-0.294830	-0.416103
Zn4	Zn	1.422734	-0.418598	-0.590782
O5	O	1.510122	-0.356719	-0.503449
O6	O	1.743771	-0.311233	-0.567660
O7	O	1.574202	-0.402266	-0.269849
O8	O	1.446070	-0.191193	-0.439310
O9	O	1.743658	-0.402231	-0.439274
O10	O	1.574464	-0.191166	-0.567681
O11	O	1.445920	-0.311294	-0.269865
O12	O	1.276553	-0.311241	-0.439264
O13	O	1.445963	-0.402137	-0.737025
O14	O	1.276507	-0.402172	-0.567600
O15	O	1.574403	-0.311179	-0.737060
O16	O	1.574141	-0.522279	-0.439228
O17	O	1.445814	-0.522239	-0.567579
C18	C	1.238612	-0.356705	-0.503430
C19	C	1.122459	-0.356717	-0.503446
C20	C	1.070679	-0.401783	-0.566852
C21	C	0.950629	-0.401796	-0.566871
C22	C	1.509982	-0.549130	-0.503419
C23	C	1.510018	-0.631444	-0.503440
C24	C	1.510247	-0.930535	-0.503497
C25	C	1.429695	-0.899215	-0.584452
C26	C	1.429312	-0.813597	-0.584199
C27	C	1.510134	-0.782152	-0.503470
C28	C	1.480314	-0.813311	-0.393335
C29	C	1.479795	-0.898956	-0.393820
C30	C	1.620796	-0.898877	-0.531706
C31	C	1.620146	-0.813226	-0.534121
C32	C	1.510071	-0.698293	-0.503448
C33	C	1.510307	-1.014394	-0.503511
C34	C	1.782692	-0.356734	-0.503470
C35	C	1.898845	-0.356740	-0.503479
C36	C	1.510193	-0.356648	-0.776020
C37	C	1.510224	-0.356618	-0.892173
C38	C	1.510291	-0.163557	-0.503503
C39	C	1.510363	-0.081243	-0.503526
C40	C	1.573787	-0.311600	-0.943975
C41	C	1.573820	-0.311568	-1.064025
C42	C	1.510111	-0.356737	-0.231940
C43	C	1.510284	-0.356558	-0.115787
H44	H	0.943368	-0.318158	-0.449188
H45	H	1.077913	-0.318141	-0.449179
H46	H	1.537139	-0.792944	-0.331373
N47	N	1.642040	-0.263276	-0.888143
N48	N	1.701801	-0.220953	-0.936784
H49	H	1.750008	-0.186822	-0.897356
H50	H	1.455822	-0.395130	-0.936700
N51	N	0.894760	-0.450204	-0.634958
N52	N	0.797318	-0.450149	-0.634872
H53	H	0.757857	-0.484340	-0.682959
N54	N	1.642093	-0.263225	-1.119918
N55	N	1.642027	-0.263269	-1.217360
H56	H	1.690247	-0.229126	-1.256837
H57	H	1.447969	-0.792528	-0.665863
N58	N	1.326524	-0.787949	-0.560789
N59	N	1.311157	-0.748534	-0.482301
H60	H	1.238559	-0.730411	-0.465784
N61	N	1.452928	-0.924937	-0.687242
N62	N	1.529119	-0.966657	-0.702037
H63	H	1.545550	-0.984810	-0.774640
N64	N	1.648348	-0.787671	-0.635802
N65	N	1.587708	-0.746724	-0.685567
H66	H	1.607621	-0.728673	-0.757381
N67	N	1.699423	-0.786365	-0.465550
N68	N	1.715710	-0.718484	-0.458108
H69	H	1.771696	-0.699514	-0.409669
H70	H	1.115225	-0.440353	-0.621127
N71	N	1.327530	-0.926303	-0.561305
N72	N	1.313787	-0.968575	-0.485444
H73	H	1.241634	-0.987708	-0.469093
N74	N	1.442006	-0.404902	-1.059902
N75	N	1.375479	-0.378816	-0.998977
H76	H	1.327256	-0.412958	-0.959500
H77	H	1.398984	-0.919000	-0.369923
H78	H	1.535921	-0.919677	-0.331445
N79	N	1.380018	-0.786483	-0.362805
N80	N	1.364740	-0.718569	-0.354131
H81	H	1.293905	-0.699622	-0.332572
H82	H	1.647982	-0.920420	-0.610647
H83	H	1.680811	-0.919130	-0.472743
