data_functionalizedCrystal
_audit_creation_method	'MofGen! by Chris Wilmer'
_symmetry_space_group_name_H-M	'P1'
_symmetry_Int_Tables_number	1
_symmetry_cell_setting	triclinic
loop_
_symmetry_equiv_pos_as_xyz
  x,y,z
_cell_length_a	21.395364
_cell_length_b	11.169416
_cell_length_c	21.395355
_cell_angle_alpha	89.988582
_cell_angle_beta	89.975448
_cell_angle_gamma	90.025100
loop_
_atom_site_label
_atom_site_type_symbol
_atom_site_fract_x
_atom_site_fract_y
_atom_site_fract_z
Zn1	Zn	0.957949	-0.477467	-0.354292
Zn2	Zn	0.957889	-0.678138	-0.249528
Zn3	Zn	0.853164	-0.477520	-0.249529
Zn4	Zn	0.853170	-0.678159	-0.354268
O5	O	0.905543	-0.577821	-0.301904
O6	O	1.045619	-0.504056	-0.340405
O7	O	0.943969	-0.651539	-0.161850
O8	O	0.867086	-0.309563	-0.263437
O9	O	1.045575	-0.651488	-0.263435
O10	O	0.944071	-0.309525	-0.340406
O11	O	0.867028	-0.504145	-0.161851
O12	O	0.765487	-0.504166	-0.263413
O13	O	0.867097	-0.651524	-0.441949
O14	O	0.765492	-0.651575	-0.340365
O15	O	0.944078	-0.504077	-0.441967
O16	O	0.943975	-0.846091	-0.263411
O17	O	0.867039	-0.846106	-0.340363
C18	C	0.742755	-0.577880	-0.301887
C19	C	0.673114	-0.577933	-0.301894
C20	C	0.640446	-0.501291	-0.342034
C21	C	0.575011	-0.501259	-0.342037
C22	C	0.542246	-0.577891	-0.301906
C23	C	0.574921	-0.654539	-0.261757
C24	C	0.640356	-0.654560	-0.261752
C25	C	0.438542	-0.685974	-0.296875
C26	C	0.373109	-0.685955	-0.296885
C27	C	0.340425	-0.577825	-0.301919
C28	C	0.373182	-0.469711	-0.306957
C29	C	0.438616	-0.469732	-0.306951
C30	C	0.471293	-0.577876	-0.301907
C31	C	0.236805	-0.501142	-0.342064
C32	C	0.171368	-0.501108	-0.342062
C33	C	0.171280	-0.654398	-0.261786
C34	C	0.236715	-0.654421	-0.261785
C35	C	0.269474	-0.577795	-0.301928
C36	C	0.905519	-0.889646	-0.301898
C37	C	0.905566	-1.023046	-0.301917
C38	C	1.068966	-0.577763	-0.301922
C39	C	1.138607	-0.577739	-0.301930
C40	C	0.905595	-0.577797	-0.465328
C41	C	0.905617	-0.577786	-0.534969
C42	C	0.905584	-0.264779	-0.301924
C43	C	0.905602	-0.131379	-0.301933
C44	C	0.945699	-0.501007	-0.567692
C45	C	0.945698	-0.500956	-0.633128
C46	C	0.905622	-0.577705	-0.665837
C47	C	0.865532	-0.654489	-0.633106
C48	C	0.865530	-0.654530	-0.567672
C49	C	0.900666	-0.685772	-0.769510
C50	C	0.900673	-0.685734	-0.834943
C51	C	0.905626	-0.577578	-0.867658
C52	C	0.910585	-0.469458	-0.834933
C53	C	0.910582	-0.469499	-0.769498
C54	C	0.905620	-0.577668	-0.736790
C55	C	0.945709	-0.500736	-0.971334
C56	C	0.945704	-0.500683	-1.036771
C57	C	0.865541	-0.654227	-1.036748
C58	C	0.865543	-0.654270	-0.971312
C59	C	0.905630	-0.577526	-0.938610
C60	C	0.905527	-0.577759	-0.139117
C61	C	0.905626	-0.577431	-0.069476
H62	H	0.144771	-0.438689	-0.374748
H63	H	0.263314	-0.716836	-0.229101
H64	H	0.832908	-0.716799	-0.944669
C65	C	0.676477	-0.416985	-0.386184
N66	N	0.703616	-0.353479	-0.419436
C67	C	0.337082	-0.804881	-0.291337
N68	N	0.309948	-0.894459	-0.287154
C69	C	0.895218	-0.804667	-0.870935
N70	N	0.891107	-0.894251	-0.898043
H71	H	0.144603	-0.716792	-0.229111
H72	H	0.896465	-0.773823	-0.742879
C73	C	0.474487	-0.804934	-0.291340
N74	N	0.501560	-0.894533	-0.287172
H75	H	0.978342	-0.438153	-1.063413
C76	C	0.474647	-0.350808	-0.312484
N77	N	0.501785	-0.261232	-0.316648
H78	H	0.666953	-0.716973	-0.229064
C79	C	0.821446	-0.738908	-0.669088
N80	N	0.788236	-0.802490	-0.696189
H81	H	0.978336	-0.438426	-0.659776
C82	C	0.916032	-0.350476	-0.870914
N83	N	0.920135	-0.260863	-0.898019
C84	C	0.821436	-0.739000	-0.531675
N85	N	0.788225	-0.802626	-0.504561
C86	C	0.821457	-0.738653	-1.072725
N87	N	0.788252	-0.802245	-1.099825
C88	C	0.538879	-0.738834	-0.217613
N89	N	0.511731	-0.802326	-0.184361
H90	H	0.978340	-0.438515	-0.541070
C91	C	0.916029	-0.350568	-0.733503
N92	N	0.920127	-0.260987	-0.706391
H93	H	0.548407	-0.438842	-0.374723
C94	C	0.989799	-0.416307	-0.935359
N95	N	1.023008	-0.352712	-0.908264
C96	C	0.272841	-0.416841	-0.386216
N97	N	0.299982	-0.353343	-0.419470
H98	H	0.346573	-0.381661	-0.311057
