data_functionalizedCrystal
_audit_creation_method	'MofGen! by Chris Wilmer'
_symmetry_space_group_name_H-M	'P1'
_symmetry_Int_Tables_number	1
_symmetry_cell_setting	triclinic
loop_
_symmetry_equiv_pos_as_xyz
  x,y,z
_cell_length_a	17.699104
_cell_length_b	15.995292
_cell_length_c	16.176319
_cell_angle_alpha	89.996390
_cell_angle_beta	89.991696
_cell_angle_gamma	83.380067
loop_
_atom_site_label
_atom_site_type_symbol
_atom_site_fract_x
_atom_site_fract_y
_atom_site_fract_z
O1	O	1.004225	0.105971	-0.068757
O2	O	1.337558	0.439305	0.264576
O3	O	1.670892	0.772638	0.597909
O4	O	0.783869	0.119729	-0.068755
O5	O	1.117202	0.453063	0.264579
O6	O	1.450536	0.786396	0.597912
O7	O	0.900094	-0.009052	-0.068757
O8	O	1.233427	0.324281	0.264576
O9	O	1.566760	0.657614	0.597909
O10	O	0.888001	0.234753	-0.068755
O11	O	1.221334	0.568086	0.264579
O12	O	1.554667	0.901420	0.597912
O13	O	0.900078	-0.009061	0.068736
O14	O	1.233411	0.324273	0.402069
O15	O	1.566744	0.657606	0.735402
O16	O	0.783853	0.119721	0.068739
O17	O	1.117186	0.453054	0.402072
O18	O	1.450520	0.786388	0.735405
O19	O	1.004209	0.105963	0.068736
O20	O	1.337542	0.439296	0.402069
O21	O	1.670876	0.772630	0.735402
Cu22	Cu	0.894030	0.112841	0.081291
Cu23	Cu	1.227363	0.446175	0.414625
Cu24	Cu	1.560696	0.779508	0.747958
Cu25	Cu	0.894049	0.112851	-0.081310
Cu26	Cu	1.227382	0.446184	0.252023
Cu27	Cu	1.560715	0.779518	0.585356
O28	O	0.887985	0.234745	0.068738
O29	O	1.221318	0.568078	0.402072
O30	O	1.554651	0.901412	0.735405
C31	C	0.755664	0.119229	-0.000008
C32	C	1.088997	0.452563	0.333326
C33	C	1.422330	0.785896	0.666659
C34	C	0.671644	0.117741	-0.000007
C35	C	1.004978	0.451075	0.333326
C36	C	1.338311	0.784408	0.666660
C37	C	0.146872	0.184943	-0.000015
C38	C	0.480206	0.518276	0.333318
C39	C	0.813539	0.851610	0.666652
C40	C	0.225818	0.186336	-0.000017
C41	C	0.559151	0.519669	0.333316
C42	C	0.892485	0.853002	0.666649
C43	C	0.274324	0.110736	-0.000018
C44	C	0.607657	0.444069	0.333315
C45	C	0.940991	0.777403	0.666649
C46	C	0.243881	0.033738	-0.000025
C47	C	0.577214	0.367072	0.333309
C48	C	0.910548	0.700405	0.666642
C49	C	0.164936	0.032346	-0.000028
C50	C	0.498270	0.365679	0.333305
C51	C	0.831603	0.699013	0.666638
C52	C	0.562255	0.039351	-0.000011
C53	C	0.895589	0.372684	0.333322
C54	C	1.228922	0.706017	0.666655
C55	C	0.641204	0.040749	-0.000005
C56	C	0.974538	0.374082	0.333328
C57	C	1.307871	0.707415	0.666661
C58	C	0.623137	0.193340	-0.000000
C59	C	0.956470	0.526674	0.333333
C60	C	1.289803	0.860007	0.666666
C61	C	0.544192	0.191948	-0.000004
C62	C	0.877526	0.525282	0.333329
C63	C	1.210859	0.858615	0.666663
C64	C	0.513756	0.114951	-0.000015
C65	C	0.847089	0.448284	0.333318
C66	C	1.180423	0.781618	0.666652
C67	C	0.428154	0.113442	-0.000014
C68	C	0.761487	0.446775	0.333319
C69	C	1.094821	0.780108	0.666653
C70	C	0.359925	0.112245	-0.000013
C71	C	0.693258	0.445578	0.333320
C72	C	1.026592	0.778911	0.666654
C73	C	0.899593	-0.040251	-0.000013
C74	C	1.232927	0.293082	0.333320
C75	C	1.566260	0.626415	0.666654
C76	C	0.898118	-0.133201	-0.000019
C77	C	1.231451	0.200132	0.333314
C78	C	1.564784	0.533465	0.666648
C79	C	0.892693	-0.470929	-0.000011
C80	C	1.226027	-0.137596	0.333322
C81	C	1.559360	0.195738	0.666655
C82	C	0.976581	-0.447781	0.000295
C83	C	1.309914	-0.114447	0.333628
C84	C	1.643248	0.218886	0.666961
C85	C	0.978175	-0.351108	-0.000018
C86	C	1.311509	-0.017775	0.333315
C87	C	1.644842	0.315559	0.666648
C88	C	0.895385	-0.303378	-0.000015
C89	C	1.228718	0.029955	0.333319
C90	C	1.562052	0.363288	0.666652
C91	C	0.853454	-0.332393	-0.078527
C92	C	1.186788	0.000940	0.254806
C93	C	1.520121	0.334274	0.588140
C94	C	0.852444	-0.429181	-0.078590
C95	C	1.185778	-0.095848	0.254744
C96	C	1.519111	0.237485	0.588077
C97	C	0.850713	-0.429045	0.077766
C98	C	1.184046	-0.095711	0.411099
C99	C	1.517380	0.237622	0.744432
C100	C	0.853822	-0.332558	0.078800
C101	C	1.187155	0.000775	0.412134
C102	C	1.520488	0.334109	0.745467
C103	C	0.896902	-0.208685	-0.000019
C104	C	1.230235	0.124648	0.333314
C105	C	1.563568	0.457981	0.666647
C106	C	0.891174	-0.565622	-0.000012
C107	C	1.224507	-0.232289	0.333321
C108	C	1.557841	0.101045	0.666654
C109	C	1.032414	0.106463	-0.000013
C110	C	1.365748	0.439796	0.333320
C111	C	1.699081	0.773130	0.666654
C112	C	1.116434	0.107951	-0.000019
C113	C	1.449767	0.441284	0.333314
C114	C	1.783101	0.774618	0.666648
C115	C	0.888485	0.265944	-0.000008
C116	C	1.221818	0.599277	0.333325
C117	C	1.555151	0.932610	0.666659
C118	C	0.889960	0.358894	-0.000007
C119	C	1.223294	0.692227	0.333326
C120	C	1.556627	1.025560	0.666660
N121	N	0.894022	0.112834	0.195657
N122	N	1.227355	0.446167	0.528990
N123	N	1.560688	0.779501	0.862323
N124	N	0.894062	0.112852	-0.195675
N125	N	1.227396	0.446185	0.137658
N126	N	1.560729	0.779518	0.470991
C127	C	0.945502	0.055833	0.238920
C128	C	1.278835	0.389166	0.572253
C129	C	1.612168	0.722499	0.905586
C130	C	0.945505	0.055832	0.325467
C131	C	1.278839	0.389165	0.658800
C132	C	1.612172	0.722498	0.992133
C133	C	0.894033	0.112837	0.368749
C134	C	1.227366	0.446170	0.702082
C135	C	1.560699	0.779504	1.035416
C136	C	0.842547	0.169841	0.325480
C137	C	1.175881	0.503174	0.658813
C138	C	1.509214	0.836508	0.992147
C139	C	0.842540	0.169837	0.238935
C140	C	1.175874	0.503171	0.572268
C141	C	1.509207	0.836504	0.905601
C142	C	0.842573	0.169857	0.674508
C143	C	1.175907	0.503190	1.007842
C144	C	1.509240	0.836523	1.341175
C145	C	0.842586	0.169858	0.761060
C146	C	1.175919	0.503191	1.094393
C147	C	1.509252	0.836524	1.427727
C148	C	0.945538	0.055851	0.761040
C149	C	1.278871	0.389185	1.094374
C150	C	1.612205	0.722518	1.427707
C151	C	0.945531	0.055848	0.674495
C152	C	1.278865	0.389181	1.007828
C153	C	1.612198	0.722514	1.341162
C154	C	0.894044	0.112848	0.631233
C155	C	1.227377	0.446182	0.964567
C156	C	1.560710	0.779515	1.297900
C157	C	0.894039	0.112847	0.537389
C158	C	1.227373	0.446181	0.870723
C159	C	1.560706	0.779514	1.204056
C160	C	0.894040	0.112842	0.462592
C161	C	1.227373	0.446176	0.795925
C162	C	1.560707	0.779509	1.129258
H163	H	0.250597	0.249030	-0.000022
H164	H	0.583930	0.582364	0.333312
H165	H	0.917263	0.915697	0.666645
H166	H	0.987448	0.009432	0.639257
H167	H	1.320781	0.342765	0.972590
H168	H	1.654114	0.676098	1.305924
Cl169	Cl	0.891222	-0.472818	0.169643
Cl170	Cl	1.224555	-0.139485	0.502976
Cl171	Cl	1.557889	0.193848	0.836310
Cl172	Cl	0.524003	-0.057446	-0.000045
Cl173	Cl	0.857336	0.275887	0.333289
Cl174	Cl	1.190669	0.609221	0.666622
Cl175	Cl	0.483217	0.286992	-0.000001
Cl176	Cl	0.816551	0.620325	0.333332
Cl177	Cl	1.149884	0.953658	0.666665
H178	H	1.011015	-0.332150	0.056261
H179	H	1.344348	0.001183	0.389594
H180	H	1.677682	0.334516	0.722928
H181	H	0.881497	-0.456051	-0.137282
H182	H	1.214830	-0.122718	0.196052
H183	H	1.548164	0.210616	0.529385
Cl184	Cl	1.010223	-0.015829	0.379856
Cl185	Cl	1.343556	0.317504	0.713189
Cl186	Cl	1.676890	0.650838	1.046523
H187	H	0.647927	0.256035	0.000005
H188	H	0.981261	0.589369	0.333338
H189	H	1.314594	0.922702	0.666672
Cl190	Cl	0.757486	-0.451465	-0.084094
Cl191	Cl	1.090820	-0.118132	0.249239
Cl192	Cl	1.424153	0.215202	0.582572
H193	H	0.283381	-0.027816	-0.000030
H194	H	0.616714	0.305517	0.333303
H195	H	0.950048	0.638850	0.666637
H196	H	0.140155	-0.030349	-0.000033
H197	H	0.473489	0.302985	0.333300
H198	H	0.806822	0.636318	0.666633
H199	H	0.987460	0.009435	0.796273
H200	H	1.320793	0.342769	1.129606
H201	H	1.654127	0.676102	1.462940
Cl202	Cl	0.759395	-0.283005	-0.083038
Cl203	Cl	1.092729	0.050328	0.250295
Cl204	Cl	1.426062	0.383662	0.583628
H205	H	0.800633	0.216253	0.360726
H206	H	1.133967	0.549586	0.694059
H207	H	1.467300	0.882920	1.027392
Cl208	Cl	1.029193	-0.322781	-0.087067
Cl209	Cl	1.362526	0.010553	0.246266
Cl210	Cl	1.695860	0.343886	0.579599
Cl211	Cl	0.898430	-0.301511	-0.168742
Cl212	Cl	1.231764	0.031823	0.164591
Cl213	Cl	1.565097	0.365156	0.497924
Cl214	Cl	0.900953	-0.303984	0.168479
Cl215	Cl	1.234286	0.029349	0.501812
Cl216	Cl	1.567620	0.362683	0.835146
Cl217	Cl	0.777871	0.241526	0.815472
Cl218	Cl	1.111204	0.574859	1.148805
Cl219	Cl	1.444538	0.908192	1.482138
Cl220	Cl	0.760520	-0.281478	0.086126
Cl221	Cl	1.093853	0.051855	0.419460
Cl222	Cl	1.427187	0.385188	0.752793
H223	H	0.800652	0.216270	0.639292
H224	H	1.133985	0.549603	0.972625
H225	H	1.467318	0.882937	1.305958
Cl226	Cl	0.702184	-0.054299	-0.000008
Cl227	Cl	1.035517	0.279035	0.333326
Cl228	Cl	1.368850	0.612368	0.666659
Cl229	Cl	1.026497	-0.491108	0.087225
Cl230	Cl	1.359831	-0.157774	0.420559
Cl231	Cl	1.693164	0.175559	0.753892
Cl232	Cl	0.777817	0.241497	0.184548
Cl233	Cl	1.111151	0.574830	0.517881
Cl234	Cl	1.444484	0.908163	0.851214
Cl235	Cl	1.026239	-0.492670	-0.086148
Cl236	Cl	1.359572	-0.159337	0.247185
Cl237	Cl	1.692905	0.173996	0.580518
H238	H	0.107383	0.246505	-0.000008
H239	H	0.440717	0.579839	0.333325
H240	H	0.774050	0.913172	0.666658
H241	H	0.788965	-0.442915	0.078297
H242	H	1.122299	-0.109581	0.411631
H243	H	1.455632	0.223752	0.744964
H244	H	0.987420	0.009416	0.203685
H245	H	1.320753	0.342749	0.537018
H246	H	1.654086	0.676083	0.870351
