data_functionalizedCrystal
_audit_creation_method	'MofGen! by Chris Wilmer'
_symmetry_space_group_name_H-M	'P1'
_symmetry_Int_Tables_number	1
_symmetry_cell_setting	triclinic
loop_
_symmetry_equiv_pos_as_xyz
  x,y,z
_cell_length_a	14.853567
_cell_length_b	19.288865
_cell_length_c	18.366186
_cell_angle_alpha	89.989632
_cell_angle_beta	89.993887
_cell_angle_gamma	83.385589
loop_
_atom_site_label
_atom_site_type_symbol
_atom_site_fract_x
_atom_site_fract_y
_atom_site_fract_z
O1	O	-1.195855	-0.090684	0.060508
O2	O	-0.933334	-0.101487	0.060522
O3	O	-1.072180	0.005019	0.060500
O4	O	-1.057009	-0.197190	0.060530
O5	O	-1.072156	0.005022	-0.060599
O6	O	-0.933310	-0.101484	-0.060578
O7	O	-1.195831	-0.090681	-0.060591
Zn8	Zn	-1.064567	-0.096082	-0.079812
Zn9	Zn	-1.064598	-0.096086	0.079742
O10	O	-1.056985	-0.197187	-0.060570
C11	C	-0.899736	-0.100996	-0.000027
C12	C	-0.799661	-0.099529	-0.000022
C13	C	-1.229429	-0.091172	-0.000041
C14	C	-1.329504	-0.092639	-0.000041
C15	C	-1.071680	0.030899	-0.000052
C16	C	-1.070215	0.108008	-0.000058
C17	C	-0.387522	-0.030061	-0.000048
C18	C	-0.365522	-0.156593	-0.000029
C19	C	-0.459547	-0.157972	-0.000027
C20	C	-0.517565	-0.095395	-0.000034
C21	C	-0.481557	-0.031439	-0.000044
C22	C	-0.495563	-0.221927	-0.000009
C23	C	-0.589594	-0.223309	-0.000006
C24	C	-0.647614	-0.160731	-0.000019
C25	C	-0.611600	-0.096772	-0.000029
C26	C	-0.669618	-0.034195	-0.000037
C27	C	-0.633606	0.029764	-0.000052
C28	C	-0.539577	0.031139	-0.000056
C29	C	-0.741643	-0.162106	-0.000015
C30	C	-0.763653	-0.035572	-0.000032
C31	C	-1.057485	-0.223067	-0.000016
C32	C	-1.058951	-0.300175	-0.000005
N33	N	-1.064552	-0.096079	-0.188703
C34	C	-1.151683	0.152429	-0.000066
C35	C	-1.150307	0.224881	-0.000054
C36	C	-1.067457	0.252908	-0.000050
C37	C	-0.985977	0.208477	-0.000038
C38	C	-0.987356	0.136027	-0.000042
C39	C	-1.002319	0.361416	-0.042465
C40	C	-1.000943	0.433865	-0.042465
C41	C	-1.063200	0.476368	-0.000033
C42	C	-1.126848	0.446414	0.042390
C43	C	-1.128227	0.373964	0.042385
C44	C	-1.065952	0.331467	-0.000044
C45	C	-1.143181	0.599350	-0.000027
C46	C	-1.141801	0.671803	-0.000011
C47	C	-0.977470	0.655397	-0.000002
C48	C	-0.978852	0.582946	-0.000011
C49	C	-1.061710	0.554927	-0.000027
C50	C	-1.119049	-0.138286	-0.226794
C51	C	-1.119064	-0.138285	-0.303021
C52	C	-1.064565	-0.096083	-0.341156
C53	C	-1.010064	-0.053867	-0.303056
C54	C	-1.010058	-0.053864	-0.226829
C55	C	-0.983299	-0.094052	-0.461933
C56	C	-0.983303	-0.094059	-0.538158
C57	C	-1.064585	-0.096085	-0.576263
C58	C	-1.145864	-0.098119	-0.538134
C59	C	-1.145857	-0.098117	-0.461907
C60	C	-1.064566	-0.096080	-0.423810
C61	C	-1.119103	-0.138293	-0.697009
C62	C	-1.119119	-0.138286	-0.773238
C63	C	-1.010111	-0.053872	-0.773271
C64	C	-1.010103	-0.053875	-0.697043
C65	C	-1.064597	-0.096089	-0.658916
N66	N	-1.064621	-0.096083	0.188633
H67	H	-0.680856	0.080715	-0.000053
H68	H	-1.180049	0.349578	0.076929
O69	O	-0.348686	0.038921	-0.000072
H70	H	-0.372015	0.068997	0.049279
H71	H	-1.212037	-0.099771	-0.430866
O72	O	-1.177901	-0.183812	-0.814328
H73	H	-1.215784	-0.213169	-0.775006
O74	O	-0.500732	0.100118	-0.000067
H75	H	-0.524041	0.130190	-0.049433
O76	O	-0.951323	-0.008357	-0.655944
H77	H	-0.879206	-0.023370	-0.670571
O78	O	-0.826226	0.031924	-0.000047
H79	H	-0.869600	0.034325	0.049310
O80	O	-0.935170	0.315579	-0.088241
H81	H	-0.893298	0.278323	-0.052464
O82	O	-0.895669	-0.091738	-0.579282
H83	H	-0.839159	-0.090267	-0.539981
H84	H	-0.318279	-0.207540	-0.000017
H85	H	-0.917104	-0.092406	-0.430914
H86	H	-0.448319	-0.272874	0.000004
H87	H	-1.219153	0.129621	-0.000076
H88	H	-1.163426	-0.172658	-0.195756
O89	O	-0.628435	-0.292289	-0.000007
H90	H	-0.572294	-0.335570	-0.000011
O91	O	-0.951276	-0.008351	-0.344179
H92	H	-0.960427	-0.015449	-0.403584
O93	O	-1.194015	0.492250	0.088145
H94	H	-1.238511	0.459251	0.117633
H95	H	-0.770960	-0.214181	-0.000003
O96	O	-1.238178	0.272806	-0.000072
H97	H	-1.296025	0.241151	-0.000090
H98	H	-1.210650	0.576536	-0.000037
H99	H	-0.921013	0.099858	-0.000036
H100	H	-1.208146	0.707971	-0.000013
H101	H	-0.965738	-0.019510	-0.804319
O102	O	-0.951268	-0.008345	-0.185738
H103	H	-0.913368	0.020999	-0.225058
H104	H	-0.912511	0.546777	-0.000008
H105	H	-0.910012	0.678216	0.000006
H106	H	-0.949113	0.458247	-0.077004
O107	O	-0.896615	0.238699	-0.000041
H108	H	-0.909342	0.296542	-0.000049
H109	H	-1.212050	-0.099773	-0.569157
O110	O	-1.177879	-0.183816	-0.655876
H111	H	-1.249997	-0.168799	-0.670489
O112	O	-1.177837	-0.183816	-0.344120
H113	H	-1.215723	-0.213173	-0.304802
