data_functionalizedCrystal
_audit_creation_method	'MofGen! by Chris Wilmer'
_symmetry_space_group_name_H-M	'P1'
_symmetry_Int_Tables_number	1
_symmetry_cell_setting	triclinic
loop_
_symmetry_equiv_pos_as_xyz
  x,y,z
_cell_length_a	12.759401
_cell_length_b	12.759400
_cell_length_c	12.759387
_cell_angle_alpha	89.937874
_cell_angle_beta	89.959638
_cell_angle_gamma	90.014328
loop_
_atom_site_label
_atom_site_type_symbol
_atom_site_fract_x
_atom_site_fract_y
_atom_site_fract_z
Zn1	Zn	1.606476	-0.417897	-0.594000
Zn2	Zn	2.106476	0.082103	-0.094000
Zn3	Zn	1.606305	-0.593710	-0.418320
Zn4	Zn	2.106305	-0.093710	0.081680
Zn5	Zn	1.430713	-0.418045	-0.418337
Zn6	Zn	1.930713	0.081955	0.081663
Zn7	Zn	1.430766	-0.593534	-0.593959
Zn8	Zn	1.930766	-0.093534	-0.093959
O9	O	1.518565	-0.505796	-0.506154
O10	O	2.018565	-0.005796	-0.006154
O11	O	1.753474	-0.441232	-0.570705
O12	O	2.253474	0.058768	-0.070705
O13	O	1.582918	-0.570543	-0.271301
O14	O	2.082918	-0.070543	0.228699
O15	O	1.454077	-0.271004	-0.441663
O16	O	1.954077	0.228996	0.058337
O17	O	1.753349	-0.570400	-0.441634
O18	O	2.253349	-0.070400	0.058366
O19	O	1.583209	-0.270896	-0.570722
O20	O	2.083209	0.229104	-0.070722
O21	O	1.453911	-0.441482	-0.271313
O22	O	1.953911	0.058518	0.228687
O23	O	1.283699	-0.441311	-0.441624
O24	O	1.783699	0.058689	0.058376
O25	O	1.454169	-0.570100	-0.740986
O26	O	1.954169	-0.070100	-0.240986
O27	O	1.283738	-0.570243	-0.570653
O28	O	1.783738	-0.070243	-0.070653
O29	O	1.583261	-0.441061	-0.741016
O30	O	2.083261	0.058939	-0.241016
O31	O	1.582970	-0.740708	-0.441594
O32	O	2.082970	-0.240708	0.058406
O33	O	1.454003	-0.740578	-0.570636
O34	O	1.954003	-0.240578	-0.070636
C35	C	1.245598	-0.505775	-0.506137
C36	C	1.745598	-0.005775	-0.006137
C37	C	1.128821	-0.505791	-0.506154
C38	C	1.628821	-0.005791	-0.006154
C39	C	1.518503	-0.778764	-0.506132
C40	C	2.018503	-0.278764	-0.006132
C41	C	1.518572	-0.895540	-0.506158
C42	C	2.018572	-0.395540	-0.006158
C43	C	0.964183	-0.438590	-0.439097
C44	C	1.464183	0.061410	0.060903
C45	C	1.073907	-0.438568	-0.439087
C46	C	1.573907	0.061432	0.060913
C47	C	1.074005	-0.573032	-0.573244
C48	C	1.574005	-0.073032	-0.073244
C49	C	0.964283	-0.573048	-0.573258
C50	C	1.464283	-0.073048	-0.073258
C51	C	0.909274	-0.371371	-0.372018
C52	C	1.409274	0.128629	0.127982
C53	C	0.964082	-0.304128	-0.304930
C54	C	1.464082	0.195872	0.195070
C55	C	1.073806	-0.304106	-0.304920
C56	C	1.573806	0.195894	0.195080
C57	C	1.128722	-0.371327	-0.371998
C58	C	1.628722	0.128673	0.128002
C59	C	1.585800	-0.950435	-0.439040
C60	C	2.085800	-0.450435	0.060960
C61	C	1.585864	-1.060159	-0.439072
C62	C	2.085864	-0.560159	0.060928
C63	C	1.451464	-1.060084	-0.573343
C64	C	1.951464	-0.560084	-0.073343
C65	C	1.451406	-0.950362	-0.573315
C66	C	1.951406	-0.450362	-0.073315
C67	C	1.652966	-0.895613	-0.371882
C68	C	2.152966	-0.395613	0.128118
C69	C	1.720199	-0.950508	-0.304758
C70	C	2.220199	-0.450508	0.195242
C71	C	1.720263	-1.060232	-0.304791
C72	C	2.220263	-0.560232	0.195209
C73	C	1.653095	-1.115061	-0.371947
C74	C	2.153095	-0.615061	0.128053
C75	C	1.792598	-0.505819	-0.506172
C76	C	2.292598	-0.005819	-0.006172
C77	C	1.909375	-0.505829	-0.506179
C78	C	2.409375	-0.005829	-0.006179
C79	C	1.518740	-0.505544	-0.780188
C80	C	2.018740	-0.005544	-0.280188
C81	C	1.518815	-0.505437	-0.896964
C82	C	2.018815	-0.005437	-0.396964
C83	C	1.518656	-0.231763	-0.506199
C84	C	2.018656	0.268237	-0.006199
C85	C	1.518695	-0.114986	-0.506218
C86	C	2.018695	0.385014	-0.006218
C87	C	1.518451	-0.505972	-0.233186
C88	C	2.018451	-0.005972	0.266814
C89	C	1.518580	-0.505783	-0.116410
C90	C	2.018580	-0.005783	0.383590
C91	C	1.452032	-0.573190	0.048477
C92	C	1.952032	-0.073190	0.548477
C93	C	1.451917	-0.573367	-0.061247
C94	C	1.951917	-0.073367	0.438753
C95	C	1.585370	-0.438027	-0.061843
C96	C	2.085370	0.061973	0.438157
C97	C	1.585489	-0.437857	0.047878
C98	C	2.085489	0.062143	0.547878
C99	C	1.385358	-0.640771	0.103634
C100	C	1.885358	-0.140771	0.603634
C101	C	1.318569	-0.708529	0.049075
C102	C	1.818569	-0.208529	0.549075
C103	C	1.318454	-0.708705	-0.060649
C104	C	1.818454	-0.208705	0.439351
C105	C	1.385127	-0.641123	-0.115814
C106	C	1.885127	-0.141123	0.384186
H107	H	0.819931	-0.371384	-0.372018
H108	H	1.319931	0.128616	0.127982
C109	C	1.384999	-0.641324	-0.236514
C110	C	1.884999	-0.141324	0.263486
N111	N	1.384898	-0.641472	-0.327424
N112	N	1.884898	-0.141472	0.172576
H113	H	1.264292	-0.763557	0.093997
H114	H	1.764292	-0.263557	0.593997
H115	H	1.118727	-0.627760	-0.627855
H116	H	1.618727	-0.127760	-0.127855
C117	C	0.903991	-0.647013	-0.647053
C118	C	1.403991	-0.147013	-0.147053
N119	N	0.858579	-0.702723	-0.702639
N120	N	1.358579	-0.202723	-0.202639
C121	C	1.658952	-0.363322	0.107897
C122	C	2.158952	0.136678	0.607897
N123	N	1.714287	-0.307183	0.153102
N124	N	2.214287	0.192817	0.653102
H125	H	1.639651	-0.383004	-0.106767
H126	H	2.139651	0.116996	0.393233
C127	C	0.903673	-0.230185	-0.231153
C128	C	1.403673	0.269815	0.268847
N129	N	0.858173	-0.174489	-0.175583
N130	N	1.358173	0.325511	0.324417
C131	C	1.134092	-0.230135	-0.231126
C132	C	1.634092	0.269865	0.268874
N133	N	1.179497	-0.174422	-0.175538
N134	N	1.679497	0.325578	0.324462
C135	C	1.244988	-0.783241	-0.120661
C136	C	1.744988	-0.283241	0.379339
N137	N	1.189646	-0.839380	-0.165859
N138	N	1.689646	-0.339380	0.334141
C139	C	1.377575	-1.120401	-0.647200
C140	C	1.877575	-0.620401	-0.147200
N141	N	1.321915	-1.165832	-0.702826
N142	N	1.821915	-0.665832	-0.202826
H143	H	1.396664	-0.905667	-0.627970
H144	H	1.896664	-0.405667	-0.127970
H145	H	1.652918	-0.806270	-0.371845
H146	H	2.152918	-0.306270	0.128155
H147	H	1.218067	-0.371294	-0.371994
H148	H	1.718067	0.128706	0.128006
H149	H	1.385443	-0.640633	0.192976
H150	H	1.885443	-0.140633	0.692976
H151	H	1.774891	-0.905860	-0.250088
H152	H	2.274891	-0.405860	0.249912
H153	H	1.775015	-1.104924	-0.250143
H154	H	2.275015	-0.604924	0.249857
C155	C	1.653174	-1.235761	-0.371982
C156	C	2.153174	-0.735761	0.128018
N157	N	1.653230	-1.326672	-0.372004
N158	N	2.153230	-0.826672	0.127996
