data_functionalizedCrystal
_audit_creation_method	'MofGen! by Chris Wilmer'
_symmetry_space_group_name_H-M	'P1'
_symmetry_Int_Tables_number	1
_symmetry_cell_setting	triclinic
loop_
_symmetry_equiv_pos_as_xyz
  x,y,z
_cell_length_a	16.109301
_cell_length_b	17.038272
_cell_length_c	15.186229
_cell_angle_alpha	89.995962
_cell_angle_beta	89.999362
_cell_angle_gamma	87.286518
loop_
_atom_site_label
_atom_site_type_symbol
_atom_site_fract_x
_atom_site_fract_y
_atom_site_fract_z
O1	O	1.110268	0.100495	-0.073174
O2	O	0.869094	0.113001	-0.073188
O3	O	0.988247	-0.007067	-0.073174
O4	O	0.991114	0.220563	-0.073187
O5	O	0.988239	-0.007069	0.073284
O6	O	0.869085	0.113000	0.073270
O7	O	1.110259	0.100493	0.073284
Zn8	Zn	0.989671	0.106746	0.096530
Zn9	Zn	0.989682	0.106748	-0.096434
O10	O	0.991105	0.220562	0.073270
C11	C	0.838079	0.112494	0.000039
C12	C	0.745676	0.110975	0.000034
C13	C	0.528212	0.178690	0.000040
C14	C	0.441390	0.177257	0.000046
C15	C	0.451147	0.034799	0.000051
C16	C	0.537968	0.036233	0.000051
C17	C	0.576498	0.108181	0.000042
C18	C	0.402855	0.105314	0.000047
C19	C	0.308719	0.103759	0.000053
C20	C	0.670640	0.109736	0.000037
C21	C	0.985636	-0.036196	0.000055
C22	C	0.977857	-0.122989	0.000054
C23	C	1.049277	-0.173104	0.000059
C24	C	1.041963	-0.254654	0.000050
C25	C	0.963228	-0.286089	0.000043
C26	C	0.891802	-0.235967	0.000035
C27	C	0.899116	-0.154418	0.000038
C28	C	0.937385	-0.531846	0.000029
C29	C	0.930076	-0.613402	0.000029
C30	C	1.080238	-0.632083	0.000043
C31	C	1.087546	-0.550532	0.000051
C32	C	1.016120	-0.500418	0.000038
C33	C	0.955749	-0.369446	0.000037
C34	C	1.023599	-0.417062	0.000038
C35	C	1.141274	0.101001	0.000055
C36	C	1.233677	0.102519	0.000054
C37	C	0.993717	0.249691	0.000039
C38	C	1.001496	0.336484	0.000034
N39	N	0.989669	0.106744	0.228223
N40	N	0.989690	0.106744	-0.228126
C41	C	1.042451	0.053596	0.453952
C42	C	1.042453	0.053594	0.546141
C43	C	0.936902	0.159895	0.546138
C44	C	0.936896	0.159893	0.453950
C45	C	0.989675	0.106744	0.407859
C46	C	0.989684	0.106745	0.592237
C47	C	0.989686	0.106743	0.692193
C48	C	0.989672	0.106744	0.307897
H49	H	1.113392	-0.147517	0.000071
O50	O	0.879993	0.217227	0.595856
H51	H	0.843291	0.254182	0.548314
H52	H	1.151661	-0.524945	0.000057
O53	O	1.157274	-0.686132	0.000051
H54	H	1.138964	-0.748119	0.000042
O55	O	1.099386	-0.003720	0.595859
H56	H	1.136089	-0.040669	0.548318
O57	O	0.569774	0.256286	0.000048
H58	H	0.521608	0.305074	0.000059
O59	O	0.389307	0.253305	0.000042
H60	H	0.430689	0.303571	0.000030
H61	H	0.891642	-0.395049	0.000032
O62	O	0.409584	-0.042796	0.000057
H63	H	0.457749	-0.091585	0.000068
H64	H	0.577284	-0.021187	0.000055
O65	O	0.845147	-0.647303	0.000028
H66	H	0.852063	-0.712429	0.000043
H67	H	0.893916	0.203173	0.416419
O68	O	1.118994	-0.308710	0.000070
H69	H	1.174973	-0.273151	0.000092
O70	O	0.860351	-0.477799	0.000038
H71	H	0.804375	-0.513360	0.000048
H72	H	0.827693	-0.261567	0.000023
O73	O	0.822083	-0.100363	0.000044
H74	H	0.784676	-0.111534	-0.059648
O75	O	1.108521	-0.383166	0.000043
H76	H	1.115439	-0.346467	0.059741
O77	O	1.099363	-0.003734	0.404235
H78	H	1.136054	-0.040698	0.451778
