data_functionalizedCrystal
_audit_creation_method	'MofGen! by Chris Wilmer'
_symmetry_space_group_name_H-M	'P1'
_symmetry_Int_Tables_number	1
_symmetry_cell_setting	triclinic
loop_
_symmetry_equiv_pos_as_xyz
  x,y,z
_cell_length_a	12.827893
_cell_length_b	12.645330
_cell_length_c	12.827885
_cell_angle_alpha	89.971022
_cell_angle_beta	89.980728
_cell_angle_gamma	90.017662
loop_
_atom_site_label
_atom_site_type_symbol
_atom_site_fract_x
_atom_site_fract_y
_atom_site_fract_z
Zn1	Zn	1.597653	-0.421989	-0.590855
Zn2	Zn	2.097653	0.078011	-0.090855
Zn3	Zn	1.597540	-0.599290	-0.416117
Zn4	Zn	2.097540	-0.099290	0.083883
Zn5	Zn	1.422894	-0.422040	-0.416128
Zn6	Zn	1.922894	0.077960	0.083872
Zn7	Zn	1.422873	-0.599211	-0.590817
Zn8	Zn	1.922873	-0.099211	-0.090817
O9	O	1.510240	-0.510632	-0.503479
O10	O	2.010240	-0.010632	-0.003479
O11	O	1.743874	-0.445520	-0.567686
O12	O	2.243874	0.054480	-0.067686
O13	O	1.574335	-0.575832	-0.269883
O14	O	2.074335	-0.075832	0.230117
O15	O	1.446133	-0.273686	-0.439326
O16	O	1.946133	0.226314	0.060674
O17	O	1.743791	-0.575782	-0.439308
O18	O	2.243791	-0.075782	0.060692
O19	O	1.574527	-0.273648	-0.567697
O20	O	2.074527	0.226352	-0.067697
O21	O	1.446023	-0.445608	-0.269891
O22	O	1.946023	0.054392	0.230109
O23	O	1.276655	-0.445531	-0.439290
O24	O	1.776655	0.054469	0.060710
O25	O	1.446096	-0.575647	-0.737058
O26	O	1.946096	-0.075647	-0.237058
O27	O	1.276639	-0.575697	-0.567633
O28	O	1.776639	-0.075697	-0.067633
O29	O	1.574506	-0.445443	-0.737086
O30	O	2.074506	0.054557	-0.237086
O31	O	1.574314	-0.747626	-0.439271
O32	O	2.074314	-0.247626	0.060729
O33	O	1.445986	-0.747568	-0.567623
O34	O	1.945986	-0.247568	-0.067623
C35	C	1.238730	-0.510612	-0.503459
C36	C	1.738730	-0.010612	-0.003459
C37	C	1.122577	-0.510629	-0.503476
C38	C	1.622577	-0.010629	-0.003476
C39	C	1.070812	-0.575140	-0.566886
C40	C	1.570812	-0.075140	-0.066886
C41	C	0.950762	-0.575159	-0.566904
C42	C	1.450762	-0.075159	-0.066904
C43	C	1.510164	-0.786062	-0.503465
C44	C	2.010164	-0.286062	-0.003465
C45	C	1.510227	-0.903892	-0.503493
C46	C	2.010227	-0.403892	-0.003493
C47	C	1.429829	-1.071464	-0.584488
C48	C	1.929829	-0.571464	-0.084488
C49	C	1.429418	-0.948904	-0.584228
C50	C	1.929418	-0.448904	-0.084228
C51	C	1.480414	-0.948494	-0.393362
C52	C	1.980414	-0.448494	0.106638
C53	C	1.479923	-1.071093	-0.393854
C54	C	1.979923	-0.571093	0.106146
C55	C	1.620929	-1.070979	-0.531736
C56	C	2.120929	-0.570979	-0.031736
C57	C	1.620251	-0.948372	-0.534144
C58	C	2.120251	-0.448372	-0.034144
C59	C	1.782810	-0.510654	-0.503500
C60	C	2.282810	-0.010654	-0.003500
C61	C	1.898963	-0.510663	-0.503509
C62	C	2.398963	-0.010663	-0.003509
C63	C	1.510311	-0.510531	-0.776050
C64	C	2.010311	-0.010531	-0.276050
C65	C	1.510341	-0.510487	-0.892203
C66	C	2.010341	-0.010487	-0.392203
C67	C	1.510345	-0.234127	-0.503517
C68	C	2.010345	0.265873	-0.003517
C69	C	1.510390	-0.116297	-0.503533
C70	C	2.010390	0.383703	-0.003533
C71	C	1.573890	-0.446045	-0.944001
C72	C	2.073890	0.053955	-0.444001
C73	C	1.573923	-0.445999	-1.064052
C74	C	2.073923	0.054001	-0.564052
C75	C	1.510229	-0.510657	-0.231969
C76	C	2.010229	-0.010657	0.268031
C77	C	1.510401	-0.510402	-0.115817
C78	C	2.010401	-0.010402	0.384183
H79	H	1.078018	-0.455408	-0.449206
H80	H	1.578018	0.044592	0.050794
H81	H	1.448310	-1.100870	-0.666417
H82	H	1.948310	-0.600870	-0.166417
H83	H	1.348392	-1.102366	-0.566042
H84	H	1.848392	-0.602366	-0.066042
C85	C	1.318718	-0.909405	-0.558972
C86	C	1.818718	-0.409405	-0.058972
H87	H	1.273826	-0.968286	-0.548822
H88	H	1.773826	-0.468286	-0.048822
H89	H	1.293608	-0.867674	-0.615201
H90	H	1.793608	-0.367674	-0.115201
H91	H	1.320424	-0.867897	-0.497289
H92	H	1.820424	-0.367897	0.002711
H93	H	1.448070	-0.918744	-0.665889
H94	H	1.948070	-0.418744	-0.165889
C95	C	1.436910	-0.584956	-1.055660
C96	C	1.936910	-0.084956	-0.555660
H97	H	1.397072	-0.625365	-1.103710
H98	H	1.897072	-0.125365	-0.603710
H99	H	1.391417	-0.544394	-1.013073
H100	H	1.891417	-0.044394	-0.513073
H101	H	1.476916	-0.631127	-1.013089
H102	H	1.976916	-0.131127	-0.513089
H103	H	1.399118	-1.099786	-0.369962
H104	H	1.899118	-0.599786	0.130038
H105	H	0.943473	-0.455433	-0.449214
H106	H	1.443473	0.044567	0.050786
H107	H	1.628332	-0.390832	-1.108597
H108	H	2.128332	0.109168	-0.608597
H109	H	1.115371	-0.630352	-0.621164
H110	H	1.615371	-0.130352	-0.121164
C111	C	1.555730	-1.111169	-0.309580
C112	C	2.055730	-0.611169	0.190420
H113	H	1.586683	-1.052521	-0.275190
H114	H	2.086683	-0.552521	0.224810
H115	H	1.608589	-1.152838	-0.341215
H116	H	2.108589	-0.652838	0.158785
H117	H	1.518667	-1.152859	-0.260323
H118	H	2.018667	-0.652859	0.239677
C119	C	1.557157	-0.909107	-0.309646
C120	C	2.057157	-0.409107	0.190354
H121	H	1.608180	-0.865002	-0.341190
H122	H	2.108180	-0.365002	0.158810
H123	H	1.590393	-0.967958	-0.277811
H124	H	2.090393	-0.467958	0.222189
H125	H	1.520240	-0.870039	-0.258295
H126	H	2.020240	-0.370039	0.241705
C127	C	1.701989	-1.110039	-0.452015
C128	C	2.201989	-0.610039	0.047985
H129	H	1.668690	-1.153765	-0.401793
H130	H	2.168690	-0.653765	0.098207
H131	H	1.732777	-1.051020	-0.418112
H132	H	2.232777	-0.551020	0.081888
H133	H	1.754491	-1.149422	-0.486937
H134	H	2.254491	-0.649422	0.013063
H135	H	0.906245	-0.630392	-0.621189
H136	H	1.406245	-0.130392	-0.121189
H137	H	1.400452	-0.917885	-0.369038
H138	H	1.900452	-0.417885	0.130962
C139	C	1.657668	-1.112629	-0.638382
C140	C	2.157668	-0.612629	-0.138382
H141	H	1.605928	-1.158050	-0.666706
H142	H	2.105928	-0.658050	-0.166706
H143	H	1.720898	-1.150757	-0.629922
H144	H	2.220898	-0.650757	-0.129922
H145	H	1.668817	-1.054770	-0.684321
H146	H	2.168817	-0.554770	-0.184321
C147	C	1.650637	-0.908972	-0.643627
C148	C	2.150637	-0.408972	-0.143627
H149	H	1.596508	-0.865591	-0.670551
H150	H	2.096508	-0.365591	-0.170551
H151	H	1.660846	-0.967847	-0.688443
H152	H	2.160846	-0.467847	-0.188443
H153	H	1.713300	-0.869145	-0.639423
H154	H	2.213300	-0.369145	-0.139423
H155	H	1.683433	-0.917726	-0.479474
H156	H	2.183433	-0.417726	0.020526
H157	H	1.628268	-0.390905	-0.899471
H158	H	2.128268	0.109095	-0.399471
H159	H	1.455953	-0.565617	-0.936733
H160	H	1.955953	-0.065617	-0.436733
