data_functionalizedCrystal
_audit_creation_method	'MofGen! by Chris Wilmer'
_symmetry_space_group_name_H-M	'P1'
_symmetry_Int_Tables_number	1
_symmetry_cell_setting	triclinic
loop_
_symmetry_equiv_pos_as_xyz
  x,y,z
_cell_length_a	11.792254
_cell_length_b	11.792254
_cell_length_c	11.804365
_cell_angle_alpha	78.069043
_cell_angle_beta	78.082096
_cell_angle_gamma	95.801402
loop_
_atom_site_label
_atom_site_type_symbol
_atom_site_fract_x
_atom_site_fract_y
_atom_site_fract_z
O1	O	-0.132863	1.529692	-0.099015
O2	O	-0.148881	1.199354	-0.099016
O3	O	0.024299	1.372534	-0.099021
O4	O	-0.306042	1.356513	-0.099010
O5	O	-0.021247	1.326942	0.099036
O6	O	-0.194426	1.153763	0.099041
O7	O	-0.178408	1.484101	0.099042
Cu8	Cu	-0.190576	1.314769	0.117126
Cu9	Cu	-0.136713	1.368686	-0.117100
O10	O	-0.351588	1.310921	0.099047
C11	C	-0.170644	1.134268	0.000012
C12	C	-0.167624	1.008255	0.000011
C13	C	-0.165169	0.905919	0.000006
C14	C	-0.162100	0.777533	0.000005
C15	C	-0.371106	1.334726	0.000020
C16	C	-0.497120	1.337745	0.000024
C17	C	-0.599455	1.340201	0.000017
C18	C	-0.727839	1.343272	0.000003
C19	C	0.043818	1.348730	0.000004
C20	C	0.169833	1.345712	-0.000008
C21	C	-0.156644	1.549188	0.000011
C22	C	-0.159663	1.675203	0.000005
N23	N	-0.228459	1.276854	0.281867
N24	N	-0.098821	1.406610	-0.281841
C25	C	-0.007827	1.497656	0.655810
C26	C	0.020836	1.526337	0.531148
C27	C	-0.041485	1.463968	0.468821
C28	C	-0.132475	1.372915	0.531170
C29	C	-0.161148	1.344237	0.655845
C30	C	-0.194805	1.310549	0.468856
C31	C	-0.285795	1.219496	0.531205
C32	C	-0.314462	1.190822	0.655867
C33	C	-0.252141	1.253191	0.718193
C34	C	-0.166133	1.339227	0.344181
C35	C	-0.319453	1.185808	0.344216
C36	C	-0.348116	1.157127	0.468878
H37	H	-0.092049	1.413363	0.293428
C38	C	-0.010145	1.495236	0.333473
C39	C	0.082899	1.588303	0.292210
C40	C	0.111819	1.617128	0.167529
H41	H	-0.076204	1.517774	0.305113
H42	H	0.012439	1.429117	0.305245
H43	H	0.060310	1.654408	0.320425
H44	H	0.148977	1.565791	0.320536
H45	H	0.134403	1.551009	0.139301
H46	H	0.045753	1.639661	0.139181
H47	H	0.174958	1.680269	0.139516
H48	H	-0.370203	1.135024	0.293471
H49	H	0.094918	1.600472	0.480388
H50	H	0.042901	1.548434	0.706564
C51	C	-0.413260	1.091897	0.723347
C52	C	-0.461685	1.043394	0.642088
C53	C	-0.552689	0.952253	0.704204
H54	H	-0.472076	1.121698	0.771975
H55	H	-0.383318	1.033157	0.771965
H56	H	-0.491628	1.102123	0.593490
H57	H	-0.402899	1.013568	0.593457
H58	H	-0.522747	0.893513	0.752822
H59	H	-0.611497	0.982065	0.752830
H60	H	-0.585550	0.919326	0.649080
H61	H	-0.275475	1.229836	0.819704
H62	H	-0.422203	1.082990	0.519658
