data_functionalizedCrystal
_audit_creation_method	'MofGen! by Chris Wilmer'
_symmetry_space_group_name_H-M	'P1'
_symmetry_Int_Tables_number	1
_symmetry_cell_setting	triclinic
loop_
_symmetry_equiv_pos_as_xyz
  x,y,z
_cell_length_a	13.033286
_cell_length_b	13.032721
_cell_length_c	17.077395
_cell_angle_alpha	82.845542
_cell_angle_beta	82.821870
_cell_angle_gamma	89.137287
loop_
_atom_site_label
_atom_site_type_symbol
_atom_site_fract_x
_atom_site_fract_y
_atom_site_fract_z
Zn1	Zn	1.520111	-0.608909	0.356575
Zn2	Zn	1.498163	-0.780887	0.243810
Zn3	Zn	1.348150	-0.587125	0.239687
Zn4	Zn	1.326270	-0.759020	0.389384
O5	O	1.423173	-0.683985	0.307364
O6	O	1.661104	-0.649990	0.329611
O7	O	1.478235	-0.755218	0.133422
O8	O	1.389303	-0.446102	0.239736
O9	O	1.644979	-0.776342	0.246764
O10	O	1.515642	-0.462107	0.325613
O11	O	1.368021	-0.612862	0.130393
O12	O	1.201343	-0.591659	0.271550
O13	O	1.352012	-0.739073	0.494872
O14	O	1.185268	-0.717950	0.381531
O15	O	1.494426	-0.628787	0.470768
O16	O	1.457019	-0.921899	0.278577
O17	O	1.330730	-0.905833	0.385529
C18	C	1.155993	-0.650068	0.329654
C19	C	1.041689	-0.635584	0.339211
C20	C	0.982762	-0.691545	0.302396
C21	C	0.864623	-0.676576	0.312272
C22	C	1.389146	-0.951184	0.336076
C23	C	1.374684	-1.065505	0.348377
C24	C	1.430776	-1.124394	0.300974
C25	C	1.415830	-1.242551	0.313687
C26	C	1.691397	-0.718035	0.284988
C27	C	1.805698	-0.732545	0.275452
C28	C	1.423226	-0.683921	0.512097
C29	C	1.423249	-0.683893	0.599342
C30	C	1.457361	-0.415746	0.278555
C31	C	1.471930	-0.301438	0.266278
C32	C	1.423189	-0.683982	0.103414
C33	C	1.423403	-0.683745	0.016122
C34	C	1.497536	-0.626342	0.962582
C35	C	1.497510	-0.626376	0.880607
C36	C	1.423346	-0.683807	0.852174
C37	C	1.349209	-0.741217	0.905720
C38	C	1.349240	-0.741189	0.987693
C39	C	1.349148	-0.741270	0.734861
C40	C	1.349116	-0.741296	0.652882
C41	C	1.497419	-0.626457	0.627775
C42	C	1.497450	-0.626428	0.709748
C43	C	1.423311	-0.683837	0.763289
H44	H	1.004675	-0.576594	0.378044
H45	H	0.827614	-0.617582	0.351108
H46	H	1.557783	-0.579710	0.584177
N47	N	1.269140	-0.803254	0.622210
H48	H	1.275768	-0.878755	0.643031
H49	H	1.280423	-0.794470	0.562158
N50	N	1.509057	-1.075322	0.234753
H51	H	1.508641	-0.997871	0.235060
H52	H	1.490743	-1.092081	0.182018
H53	H	1.356741	-1.279605	0.363688
H54	H	0.842705	-0.791550	0.236626
H55	H	1.531027	-1.264387	0.216283
N56	N	1.296416	-1.114579	0.414607
H57	H	1.296834	-1.192030	0.414301
H58	H	1.225324	-1.086612	0.406477
N59	N	1.577519	-0.564386	0.993247
H60	H	1.624478	-0.528027	0.946888
H61	H	1.619786	-0.612275	1.027784
H62	H	1.557879	-0.579635	0.837018
H63	H	1.557837	-0.579658	0.732895
N64	N	1.269191	-0.803193	0.792611
H65	H	1.222200	-0.839577	0.762161
H66	H	1.226953	-0.755275	0.826098
N67	N	1.269211	-0.803153	0.875054
H68	H	1.222253	-0.839514	0.921412
H69	H	1.304986	-0.856072	0.842658
H70	H	1.288874	-0.787933	1.031286
H71	H	1.019775	-0.750541	0.263568
