data_functionalizedCrystal
_audit_creation_method	'MofGen! by Chris Wilmer'
_symmetry_space_group_name_H-M	'P1'
_symmetry_Int_Tables_number	1
_symmetry_cell_setting	triclinic
loop_
_symmetry_equiv_pos_as_xyz
  x,y,z
_cell_length_a	25.639239
_cell_length_b	25.639242
_cell_length_c	25.639233
_cell_angle_alpha	90.022166
_cell_angle_beta	89.981253
_cell_angle_gamma	89.965787
loop_
_atom_site_label
_atom_site_type_symbol
_atom_site_fract_x
_atom_site_fract_y
_atom_site_fract_z
Zn1	Zn	-0.208277	-0.799225	-0.295742
Zn2	Zn	0.291723	-0.299225	0.204258
Zn3	Zn	-0.295696	-0.799149	-0.208307
Zn4	Zn	0.204304	-0.299149	0.291693
Zn5	Zn	-0.208269	-0.711801	-0.208306
Zn6	Zn	0.291731	-0.211801	0.291694
Zn7	Zn	-0.295676	-0.711746	-0.295696
Zn8	Zn	0.204324	-0.211746	0.204304
O9	O	-0.251979	-0.755480	-0.252013
O10	O	0.248021	-0.255480	0.247987
O11	O	-0.219884	-0.872380	-0.284163
O12	O	0.280116	-0.372380	0.215837
O13	O	-0.284103	-0.787553	-0.135141
O14	O	0.215897	-0.287553	0.364859
O15	O	-0.135105	-0.723453	-0.219924
O16	O	0.364895	-0.223453	0.280076
O17	O	-0.284111	-0.872324	-0.219924
O18	O	0.215889	-0.372324	0.280076
O19	O	-0.135111	-0.787683	-0.284163
O20	O	0.364889	-0.287683	0.215837
O21	O	-0.219871	-0.723379	-0.135141
O22	O	0.280129	-0.223379	0.364859
O23	O	-0.219853	-0.638629	-0.219880
O24	O	0.280147	-0.138629	0.280120
O25	O	-0.284078	-0.723360	-0.368868
O26	O	0.215922	-0.223360	0.131132
O27	O	-0.284070	-0.638589	-0.284085
O28	O	0.215930	-0.138589	0.215915
O29	O	-0.219866	-0.787630	-0.368901
O30	O	0.280134	-0.287630	0.131099
O31	O	-0.368858	-0.787499	-0.219880
O32	O	0.131142	-0.287499	0.280120
O33	O	-0.368844	-0.723286	-0.284085
O34	O	0.131156	-0.223286	0.215915
C35	C	-0.251959	-0.619638	-0.251977
C36	C	0.248041	-0.119638	0.248023
C37	C	-0.251963	-0.561524	-0.251975
C38	C	0.248037	-0.061524	0.248025
C39	C	-0.387822	-0.755392	-0.251989
C40	C	0.112178	-0.255392	0.248011
C41	C	-0.445936	-0.755403	-0.251996
C42	C	0.054064	-0.255403	0.248004
C43	C	-0.251970	-0.755497	-0.388386
C44	C	0.248030	-0.255497	0.111614
C45	C	-0.251966	-0.755504	-0.446500
C46	C	0.248034	-0.255504	0.053500
C47	C	-0.806294	-0.789004	-0.218638
C48	C	-0.306294	-0.289004	0.281362
C49	C	-0.860898	-0.789024	-0.218645
C50	C	-0.360898	-0.289024	0.281355
O51	O	-0.889131	-0.817502	-0.190257
O52	O	-0.389131	-0.317502	0.309743
N53	N	-0.888218	-0.755572	-0.252048
N54	N	-0.388218	-0.255572	0.247952
C55	C	-0.860932	-0.722102	-0.285449
C56	C	-0.360932	-0.222102	0.214551
O57	O	-0.889184	-0.693651	-0.313861
O58	O	-0.389184	-0.193651	0.186139
C59	C	-0.806328	-0.722085	-0.285444
C60	C	-0.306328	-0.222085	0.214556
C61	C	-0.779011	-0.755535	-0.252036
C62	C	-0.279011	-0.255535	0.247964
C63	C	-0.778976	-0.822452	-0.185233
C64	C	-0.278976	-0.322452	0.314767
C65	C	-0.724376	-0.822431	-0.185226
C66	C	-0.224376	-0.322431	0.314774
C67	C	-0.697093	-0.788962	-0.218623
C68	C	-0.197093	-0.288962	0.281377
C69	C	-0.724410	-0.755514	-0.252028
C70	C	-0.224410	-0.255514	0.247972
C71	C	-0.779042	-0.688617	-0.318847
C72	C	-0.279042	-0.188617	0.181153
C73	C	-0.724435	-0.688603	-0.318840
C74	C	-0.224435	-0.188603	0.181160
C75	C	-0.697118	-0.722053	-0.285432
C76	C	-0.197118	-0.222053	0.214568
C77	C	-0.642527	-0.722024	-0.285418
C78	C	-0.142527	-0.222024	0.214582
N79	N	-0.615206	-0.755475	-0.252016
N80	N	-0.115206	-0.255475	0.247984
C81	C	-0.642490	-0.788944	-0.218618
C82	C	-0.142490	-0.288944	0.281382
C83	C	-0.975602	-0.722141	-0.285457
C84	C	-0.475602	-0.222141	0.214543
C85	C	-1.030204	-0.722155	-0.285459
C86	C	-0.530204	-0.222155	0.214541
C87	C	-1.030167	-0.789078	-0.218656
C88	C	-0.530167	-0.289078	0.281344
C89	C	-0.975564	-0.789061	-0.218652
C90	C	-0.475564	-0.289061	0.281348
C91	C	-0.948282	-0.755593	-0.252055
C92	C	-0.448282	-0.255593	0.247945
C93	C	-0.527824	-0.788897	-0.218605
C94	C	-0.027824	-0.288897	0.281395
C95	C	-0.473219	-0.788872	-0.218599
C96	C	0.026781	-0.288872	0.281401
C97	C	-0.473261	-0.721951	-0.285403
C98	C	0.026739	-0.221951	0.214597
C99	C	-0.527862	-0.721974	-0.285408
C100	C	-0.027862	-0.221974	0.214592
C101	C	-0.555142	-0.755452	-0.252007
C102	C	-0.055142	-0.255452	0.247993
O103	O	-0.614260	-0.693562	-0.313793
O104	O	-0.114260	-0.193562	0.186207
O105	O	-0.614231	-0.817396	-0.190216
O106	O	-0.114231	-0.317396	0.309784
C107	C	-0.115606	-0.755583	-0.252048
C108	C	0.384394	-0.255583	0.247952
C109	C	-0.057492	-0.755627	-0.252064
C110	C	0.442508	-0.255627	0.247936
C111	C	-0.252000	-0.891853	-0.252049
C112	C	0.248000	-0.391853	0.247951
C113	C	-0.252009	-0.949967	-0.252064
C114	C	0.247991	-0.449967	0.247936
C115	C	-0.285473	-0.201149	-0.285413
C116	C	0.214527	0.298851	0.214587
C117	C	-0.285477	-0.146544	-0.285421
C118	C	0.214523	0.353456	0.214579
O119	O	-0.313943	-0.118297	-0.313821
O120	O	0.186057	0.381703	0.186179
N121	N	-0.251994	-0.119241	-0.252047
N122	N	0.248006	0.380759	0.247953
C123	C	-0.218502	-0.146545	-0.218666
C124	C	0.281498	0.353455	0.281334
O125	O	-0.190022	-0.118308	-0.190280
O126	O	0.309978	0.381692	0.309720
C127	C	-0.218496	-0.201149	-0.218661
C128	C	0.281504	0.298851	0.281339
C129	C	-0.251985	-0.228449	-0.252034
C130	C	0.248015	0.271551	0.247966
C131	C	-0.318959	-0.228449	-0.318783
C132	C	0.181041	0.271551	0.181217
C133	C	-0.318956	-0.283049	-0.318774
C134	C	0.181044	0.216951	0.181226
C135	C	-0.285468	-0.310350	-0.285395
C136	C	0.214532	0.189650	0.214605
C137	C	-0.251983	-0.283049	-0.252024
C138	C	0.248017	0.216951	0.247976
C139	C	-0.185002	-0.228452	-0.185283
C140	C	0.314998	0.271548	0.314717
C141	C	-0.185000	-0.283059	-0.185281
C142	C	0.315000	0.216941	0.314719
C143	C	-0.218488	-0.310359	-0.218654
C144	C	0.281512	0.189641	0.281346
C145	C	-0.218492	-0.364950	-0.218636
C146	C	0.281508	0.135050	0.281364
N147	N	-0.251974	-0.392253	-0.252010
N148	N	0.248026	0.107747	0.247990
C149	C	-0.285463	-0.364953	-0.285389
C150	C	0.214537	0.135047	0.214611
C151	C	-0.218515	-0.031875	-0.218680
C152	C	0.281485	0.468125	0.281320
C153	C	-0.218523	0.022728	-0.218683
C154	C	0.281477	0.522728	0.281317
C155	C	-0.285497	0.022725	-0.285438
C156	C	0.214503	0.522725	0.214562
C157	C	-0.285492	-0.031878	-0.285433
C158	C	0.214508	0.468122	0.214567
C159	C	-0.251998	-0.059178	-0.252054
C160	C	0.248002	0.440822	0.247946
C161	C	-0.285455	-0.479618	-0.285368
C162	C	0.214545	0.020382	0.214632
C163	C	-0.285451	-0.534223	-0.285354
C164	C	0.214549	-0.034223	0.214646
C165	C	-0.218475	-0.534216	-0.218601
C166	C	0.281525	-0.034216	0.281399
C167	C	-0.218481	-0.479615	-0.218612
C168	C	0.281519	0.020385	0.281388
C169	C	-0.251972	-0.452318	-0.252000
C170	C	0.248028	0.047682	0.248000
O171	O	-0.190038	-0.393232	-0.190252
O172	O	0.309962	0.106768	0.309748
O173	O	-0.313933	-0.393197	-0.313776
O174	O	0.186067	0.106803	0.186224
C175	C	-0.218432	-0.789012	-0.806886
C176	C	0.281568	-0.289012	-0.306886
C177	C	-0.218417	-0.789019	-0.861491
C178	C	0.281583	-0.289019	-0.361491
O179	O	-0.189967	-0.817466	-0.889747
O180	O	0.310033	-0.317466	-0.389747
N181	N	-0.251844	-0.755562	-0.888783
N182	N	0.248156	-0.255562	-0.388783
C183	C	-0.285283	-0.722093	-0.861468
C184	C	0.214717	-0.222093	-0.361468
O185	O	-0.313713	-0.693636	-0.889695
O186	O	0.186287	-0.193636	-0.389695
C187	C	-0.285294	-0.722084	-0.806864
C188	C	0.214706	-0.222084	-0.306864
C189	C	-0.251870	-0.755547	-0.779575
C190	C	0.248130	-0.255547	-0.279575
C191	C	-0.185009	-0.822472	-0.779597
C192	C	0.314991	-0.322472	-0.279597
C193	C	-0.185025	-0.822466	-0.724997
C194	C	0.314975	-0.322466	-0.224997
C195	C	-0.218462	-0.789000	-0.697685
C196	C	0.281538	-0.289000	-0.197685
C197	C	-0.251885	-0.755541	-0.724974
C198	C	0.248115	-0.255541	-0.224974
C199	C	-0.318731	-0.688613	-0.779550
C200	C	0.181269	-0.188613	-0.279550
C201	C	-0.318739	-0.688607	-0.724943
C202	C	0.181261	-0.188607	-0.224943
C203	C	-0.285314	-0.722069	-0.697654
C204	C	0.214686	-0.222069	-0.197654
C205	C	-0.285338	-0.722070	-0.643063
C206	C	0.214662	-0.222070	-0.143063
N207	N	-0.251912	-0.755526	-0.615771
N208	N	0.248088	-0.255526	-0.115771
C209	C	-0.218474	-0.788992	-0.643082
C210	C	0.281526	-0.288992	-0.143082
C211	C	-0.285256	-0.722113	-0.976138
C212	C	0.214744	-0.222113	-0.476138
C213	C	-0.285247	-0.722124	-1.030741
C214	C	0.214753	-0.222124	-0.530741
C215	C	-0.218381	-0.789049	-1.030760
C216	C	0.281619	-0.289049	-0.530760
C217	C	-0.218392	-0.789041	-0.976157
C218	C	0.281608	-0.289041	-0.476157
C219	C	-0.251829	-0.755570	-0.948846
C220	C	0.248171	-0.255570	-0.448846
C221	C	-0.218509	-0.788977	-0.528417
C222	C	0.281491	-0.288977	-0.028417
C223	C	-0.218529	-0.788970	-0.473811
C224	C	0.281471	-0.288970	0.026189
C225	C	-0.285393	-0.722043	-0.473797
C226	C	0.214607	-0.222043	0.026203
C227	C	-0.285375	-0.722052	-0.528397
C228	C	0.214625	-0.222052	-0.028397
C229	C	-0.251929	-0.755521	-0.555706
C230	C	0.248071	-0.255521	-0.055706
O231	O	-0.313773	-0.693635	-0.614771
O232	O	0.186227	-0.193635	-0.114771
O233	O	-0.190044	-0.817439	-0.614847
O234	O	0.309956	-0.317439	-0.114847
C235	C	-0.251951	-0.755494	-0.116170
C236	C	0.248049	-0.255494	0.383830
C237	C	-0.251807	-0.755588	-0.058057
C238	C	0.248193	-0.255588	0.441943
H239	H	-0.450979	-0.816111	-0.191392
H240	H	0.049021	-0.316111	0.308608
H241	H	-0.157721	-0.305283	-0.158103
H242	H	0.342279	0.194717	0.341897
C243	C	-0.148134	-0.418257	-0.211498
C244	C	0.351866	0.081743	0.288502
C245	C	-0.181663	-0.449608	-0.181932
C246	C	0.318337	0.050392	0.318068
H247	H	-0.125401	-0.399735	-0.188856
H248	H	0.374599	0.100265	0.311144
H249	H	-0.128181	-0.439589	-0.234310
H250	H	0.371819	0.060411	0.265690
H251	H	-0.168082	-0.394179	-0.231373
H252	H	0.331918	0.105821	0.268627
H253	H	-0.161715	-0.473689	-0.162061
H254	H	0.338285	0.026311	0.337939
H255	H	-0.201618	-0.428275	-0.159111
H256	H	0.298382	0.071725	0.340889
C257	C	-0.211233	-0.859324	-0.589834
C258	C	0.288767	-0.359324	-0.089834
C259	C	-0.181747	-0.825767	-0.558431
C260	C	0.318253	-0.325767	-0.058431
H261	H	-0.188538	-0.882035	-0.608366
H262	H	0.311462	-0.382035	-0.108366
H263	H	-0.234019	-0.879299	-0.568536
H264	H	0.265981	-0.379299	-0.068536
H265	H	-0.231131	-0.839394	-0.613905
H266	H	0.268869	-0.339394	-0.113905
H267	H	-0.161852	-0.845697	-0.534358
H268	H	0.338148	-0.345697	-0.034358
H269	H	-0.158951	-0.805791	-0.579731
H270	H	0.341049	-0.305791	-0.079731
C271	C	-0.351472	-0.655899	-0.522891
C272	C	0.148528	-0.155899	-0.022891
C273	C	-0.322118	-0.685273	-0.558397
C274	C	0.177882	-0.185273	-0.058397
H275	H	-0.374151	-0.633189	-0.541409
H276	H	0.125849	-0.133189	-0.041409
H277	H	-0.371481	-0.678664	-0.501603
H278	H	0.128519	-0.178664	-0.001603
H279	H	-0.328690	-0.635918	-0.501585
H280	H	0.171310	-0.135918	-0.001585
H281	H	-0.344901	-0.705257	-0.579700
H282	H	0.155099	-0.205257	-0.079700
H283	H	-0.302108	-0.662506	-0.579693
H284	H	0.197892	-0.162506	-0.079693
C285	C	-0.589258	-0.796251	-0.148295
C286	C	-0.089258	-0.296251	0.351705
C287	C	-0.557813	-0.825698	-0.181898
C288	C	-0.057813	-0.325698	0.318102
H289	H	-0.607775	-0.818971	-0.125638
H290	H	-0.107775	-0.318971	0.374362
H291	H	-0.567991	-0.773483	-0.128265
H292	H	-0.067991	-0.273483	0.371735
H293	H	-0.613341	-0.776333	-0.168195
H294	H	-0.113341	-0.276333	0.331805
H295	H	-0.533727	-0.845613	-0.161998
H296	H	-0.033727	-0.345613	0.338002
H297	H	-0.579082	-0.848475	-0.201931
H298	H	-0.079082	-0.348475	0.298069
H299	H	-0.312723	-0.556449	-0.312530
H300	H	0.187277	-0.056449	0.187470
C301	C	-0.355604	-0.714788	-0.914726
C302	C	0.144396	-0.214788	-0.414726
C303	C	-0.322019	-0.685327	-0.946118
C304	C	0.177981	-0.185327	-0.446118
H305	H	-0.378297	-0.692077	-0.896193
H306	H	0.121703	-0.192077	-0.396193
H307	H	-0.375597	-0.737553	-0.936032
H308	H	0.124403	-0.237553	-0.436032
H309	H	-0.335694	-0.734708	-0.890658
H310	H	0.164306	-0.234708	-0.390658
H311	H	-0.341930	-0.665410	-0.970190
H312	H	0.158070	-0.165410	-0.470190
H313	H	-0.302024	-0.662552	-0.924811
H314	H	0.197976	-0.162552	-0.424811
C315	C	-0.351690	-0.026384	-0.351419
C316	C	0.148310	0.473616	0.148581
C317	C	-0.322298	-0.061884	-0.322122
C318	C	0.177702	0.438116	0.177878
H319	H	-0.374410	-0.044907	-0.374072
H320	H	0.125590	0.455093	0.125928
H321	H	-0.371657	-0.005069	-0.328603
H322	H	0.128343	0.494931	0.171397
H323	H	-0.328935	-0.005104	-0.371456
H324	H	0.171065	0.494896	0.128544
H325	H	-0.345053	-0.083161	-0.302081
H326	H	0.154947	0.416839	0.197919
H327	H	-0.302330	-0.083208	-0.344941
H328	H	0.197670	0.416792	0.155059
H329	H	-0.702137	-0.849670	-0.158024
H330	H	-0.202137	-0.349670	0.341976
C331	C	-0.188733	-0.617923	-0.188962
C332	C	0.311267	-0.117923	0.311038
C333	C	-0.181663	-0.564232	-0.181914
C334	C	0.318337	-0.064232	0.318086
H335	H	-0.166002	-0.636453	-0.166317
H336	H	0.333998	-0.136453	0.333683
H337	H	-0.223846	-0.626845	-0.181240
H338	H	0.276154	-0.126845	0.318760
H339	H	-0.181137	-0.626884	-0.224108
H340	H	0.318863	-0.126884	0.275892
H341	H	-0.189262	-0.555270	-0.146769
H342	H	0.310738	-0.055270	0.353231
H343	H	-0.146542	-0.555307	-0.189632
H344	H	0.353458	-0.055307	0.310368
H345	H	-0.346225	-0.305272	-0.345950
H346	H	0.153775	0.194728	0.154050
C347	C	-0.385163	-0.233950	-0.384758
C348	C	0.114837	0.266050	0.115242
C349	C	-0.355777	-0.198446	-0.355475
C350	C	0.144223	0.301554	0.144525
H351	H	-0.407899	-0.215430	-0.407406
H352	H	0.092101	0.284570	0.092594
H353	H	-0.362409	-0.255265	-0.404796
H354	H	0.137591	0.244735	0.095204
H355	H	-0.405118	-0.255229	-0.361929
H356	H	0.094882	0.244771	0.138071
H357	H	-0.335819	-0.177170	-0.378304
H358	H	0.164181	0.322830	0.121696
H359	H	-0.378534	-0.177123	-0.335435
H360	H	0.121466	0.322877	0.164565
C361	C	-0.152428	-0.855123	-0.479324
C362	C	0.347572	-0.355123	0.020676
C363	C	-0.181783	-0.825752	-0.443816
C364	C	0.318217	-0.325752	0.056184
H365	H	-0.129742	-0.877826	-0.460806
H366	H	0.370258	-0.377826	0.039194
H367	H	-0.175206	-0.875106	-0.500623
H368	H	0.324794	-0.375106	-0.000623
H369	H	-0.132423	-0.832353	-0.500617
H370	H	0.367577	-0.332353	-0.000617
H371	H	-0.201791	-0.848522	-0.422525
H372	H	0.298209	-0.348522	0.077475
H373	H	-0.159002	-0.805767	-0.422507
H374	H	0.340998	-0.305767	0.077493
H375	H	-0.801185	-0.849709	-0.158037
H376	H	-0.301185	-0.349709	0.341963
C377	C	-0.663009	-0.681270	-0.389160
C378	C	-0.163009	-0.181270	0.110840
C379	C	-0.694447	-0.651813	-0.355558
C380	C	-0.194447	-0.151813	0.144442
H381	H	-0.644499	-0.658556	-0.411829
H382	H	-0.144499	-0.158556	0.088171
H383	H	-0.638926	-0.701181	-0.369264
H384	H	-0.138926	-0.201181	0.130736
H385	H	-0.684285	-0.704044	-0.409183
H386	H	-0.184285	-0.204044	0.090817
H387	H	-0.673170	-0.629041	-0.335533
H388	H	-0.173170	-0.129041	0.164467
H389	H	-0.718533	-0.631893	-0.375456
H390	H	-0.218533	-0.131893	0.124544
C391	C	-0.981025	-0.855211	-0.152621
C392	C	-0.481025	-0.355211	0.347379
C393	C	-0.945539	-0.825834	-0.181932
C394	C	-0.445539	-0.325834	0.318068
H395	H	-0.962490	-0.877916	-0.129954
H396	H	-0.462490	-0.377916	0.370046
H397	H	-1.002348	-0.832449	-0.132601
H398	H	-0.502348	-0.332449	0.367399
H399	H	-1.002296	-0.875198	-0.175431
H400	H	-0.502296	-0.375198	0.324569
H401	H	-0.924270	-0.805843	-0.159122
H402	H	-0.424270	-0.305843	0.340878
H403	H	-0.924207	-0.848598	-0.201953
H404	H	-0.424207	-0.348598	0.298047
H405	H	-1.052391	-0.816333	-0.191464
H406	H	-0.552391	-0.316333	0.308536
C407	C	-0.118925	-0.888611	-0.730517
C408	C	0.381075	-0.388611	-0.230517
C409	C	-0.148276	-0.859243	-0.695005
C410	C	0.351724	-0.359243	-0.195005
H411	H	-0.096234	-0.911313	-0.712003
H412	H	0.403766	-0.411313	-0.212003
H413	H	-0.141704	-0.908596	-0.751814
H414	H	0.358296	-0.408596	-0.251814
H415	H	-0.098924	-0.865839	-0.751813
H416	H	0.401076	-0.365839	-0.251813
H417	H	-0.168280	-0.882015	-0.673711
H418	H	0.331720	-0.382015	-0.173711
H419	H	-0.125494	-0.839257	-0.673699
H420	H	0.374506	-0.339257	-0.173699
C421	C	-0.384840	-0.622461	-0.730413
C422	C	0.115160	-0.122461	-0.230413
C423	C	-0.355505	-0.651823	-0.694924
C424	C	0.144495	-0.151823	-0.194924
H425	H	-0.407542	-0.599758	-0.711880
H426	H	0.092458	-0.099758	-0.211880
H427	H	-0.362052	-0.602477	-0.751700
H428	H	0.137948	-0.102477	-0.251700
H429	H	-0.404829	-0.645237	-0.751720
H430	H	0.095171	-0.145237	-0.251720
H431	H	-0.335513	-0.629047	-0.673619
H432	H	0.164487	-0.129047	-0.173619
H433	H	-0.378296	-0.671808	-0.673628
H434	H	0.121704	-0.171808	-0.173628
C435	C	-1.024743	-0.656005	-0.351490
C436	C	-0.524743	-0.156005	0.148510
C437	C	-1.060228	-0.685383	-0.322180
C438	C	-0.560228	-0.185383	0.177820
H439	H	-1.043278	-0.633307	-0.374164
H440	H	-0.543278	-0.133307	0.125836
H441	H	-1.003478	-0.636015	-0.328684
H442	H	-0.503478	-0.136015	0.171316
H443	H	-1.003413	-0.678771	-0.371507
H444	H	-0.503413	-0.178771	0.128493
H445	H	-1.081556	-0.662617	-0.302159
H446	H	-0.581556	-0.162617	0.197841
H447	H	-1.081502	-0.705374	-0.344989
H448	H	-0.581502	-0.205374	0.155011
C449	C	-0.795819	-0.663108	-0.407360
C450	C	-0.295819	-0.163108	0.092640
C451	C	-0.809059	-0.651851	-0.355576
C452	C	-0.309059	-0.151851	0.144424
H453	H	-0.814353	-0.640410	-0.430037
H454	H	-0.314353	-0.140410	0.069963
H455	H	-0.759398	-0.658310	-0.412126
H456	H	-0.259398	-0.158310	0.087874
H457	H	-0.804738	-0.698236	-0.415040
H458	H	-0.304738	-0.198236	0.084960
H459	H	-0.800138	-0.616723	-0.347895
H460	H	-0.300138	-0.116723	0.152105
H461	H	-0.845489	-0.656644	-0.350808
H462	H	-0.345489	-0.156644	0.149192
H463	H	-0.191241	-0.054099	-0.191496
H464	H	0.308759	0.445901	0.308504
H465	H	-0.312619	-0.694798	-0.451550
H466	H	0.187381	-0.194798	0.048450
C467	C	-0.914180	-0.714795	-0.355780
C468	C	-0.414180	-0.214795	0.144220
C469	C	-0.945616	-0.685344	-0.322172
C470	C	-0.445616	-0.185344	0.177828
H471	H	-0.895673	-0.692078	-0.378448
H472	H	-0.395673	-0.192078	0.121552
H473	H	-0.890094	-0.734708	-0.335889
H474	H	-0.390094	-0.234708	0.164111
H475	H	-0.935457	-0.737568	-0.375804
H476	H	-0.435457	-0.237568	0.124196
H477	H	-0.924339	-0.662574	-0.302146
H478	H	-0.424339	-0.162574	0.197854
H479	H	-0.969706	-0.665423	-0.342065
H480	H	-0.469706	-0.165423	0.157935
H481	H	-0.312763	0.044963	-0.312619
H482	H	0.187237	0.544963	0.187381
H483	H	-0.191258	0.044951	-0.191502
H484	H	0.308742	0.544951	0.308498
C485	C	-0.522411	-0.655825	-0.351442
C486	C	-0.022411	-0.155825	0.148558
C487	C	-0.557892	-0.685206	-0.322130
C488	C	-0.057892	-0.185206	0.177870
H489	H	-0.540949	-0.633131	-0.374118
H490	H	-0.040949	-0.133131	0.125882
H491	H	-0.501149	-0.635830	-0.328637
H492	H	-0.001149	-0.135830	0.171363
H493	H	-0.501077	-0.678589	-0.371457
H494	H	-0.001077	-0.178589	0.128543
H495	H	-0.579224	-0.662442	-0.302112
H496	H	-0.079224	-0.162442	0.197888
H497	H	-0.579162	-0.705202	-0.344938
H498	H	-0.079162	-0.205202	0.155062
C499	C	-0.389569	-0.692219	-0.315053
C500	C	0.110431	-0.192219	0.184947
C501	C	-0.443264	-0.685165	-0.322115
C502	C	0.056736	-0.185165	0.177885
H503	H	-0.371051	-0.669513	-0.337723
H504	H	0.128949	-0.169513	0.162277
H505	H	-0.380648	-0.684583	-0.279919
H506	H	0.119352	-0.184583	0.220081
H507	H	-0.380594	-0.727343	-0.322737
H508	H	0.119406	-0.227343	0.177263
H509	H	-0.452241	-0.650041	-0.314427
H510	H	0.047759	-0.150041	0.185573
H511	H	-0.452189	-0.692797	-0.357257
H512	H	0.047811	-0.192797	0.142743
C513	C	-0.292837	-0.418257	-0.355704
C514	C	0.207163	0.081743	0.144296
C515	C	-0.322270	-0.449617	-0.322066
C516	C	0.177730	0.050383	0.177934
H517	H	-0.315567	-0.399738	-0.378360
H518	H	0.184433	0.100262	0.121640
H519	H	-0.272902	-0.394180	-0.335833
H520	H	0.227098	0.105820	0.164167
H521	H	-0.270086	-0.439586	-0.375739
H522	H	0.229914	0.060414	0.124261
H523	H	-0.345018	-0.428287	-0.302028
H524	H	0.154982	0.071713	0.197972
H525	H	-0.342214	-0.473696	-0.341939
H526	H	0.157786	0.026304	0.158061
C527	C	-0.118791	-0.233957	-0.119313
C528	C	0.381209	0.266043	0.380687
C529	C	-0.148185	-0.198453	-0.148603
C530	C	0.351815	0.301547	0.351397
H531	H	-0.096057	-0.215437	-0.096671
H532	H	0.403943	0.284563	0.403329
H533	H	-0.141540	-0.255229	-0.099269
H534	H	0.358460	0.244771	0.400731
H535	H	-0.098833	-0.255280	-0.142138
H536	H	0.401167	0.244720	0.357862
H537	H	-0.168146	-0.177133	-0.125778
H538	H	0.331854	0.322867	0.374222
H539	H	-0.125433	-0.177173	-0.168649
H540	H	0.374567	0.322827	0.331351
C541	C	-0.211143	-0.859368	-0.914768
C542	C	0.288857	-0.359368	-0.414768
C543	C	-0.181647	-0.825818	-0.946162
C544	C	0.318353	-0.325818	-0.446162
H545	H	-0.188454	-0.882074	-0.896256
H546	H	0.311546	-0.382074	-0.396256
H547	H	-0.231051	-0.839437	-0.890687
H548	H	0.268949	-0.339437	-0.390687
H549	H	-0.233920	-0.879354	-0.936075
H550	H	0.266080	-0.379354	-0.436075
H551	H	-0.158871	-0.805830	-0.924855
H552	H	0.341129	-0.305830	-0.424855
H553	H	-0.161729	-0.845751	-0.970246
H554	H	0.338271	-0.345751	-0.470246
H555	H	-0.157777	-0.849723	-0.801828
H556	H	0.342223	-0.349723	-0.301828
H557	H	-0.191153	-0.816298	-1.053007
H558	H	0.308847	-0.316298	-0.553007
C559	C	-0.373777	-0.696592	-1.047525
C560	C	0.126223	-0.196592	-0.547525
C561	C	-0.321995	-0.685345	-1.060730
C562	C	0.178005	-0.185345	-0.560730
H563	H	-0.396462	-0.673881	-1.066035
H564	H	0.103538	-0.173881	-0.566035
H565	H	-0.381428	-0.731711	-1.056489
H566	H	0.118572	-0.231711	-0.556489
H567	H	-0.378559	-0.691803	-1.011094
H568	H	0.121441	-0.191803	-0.511094
H569	H	-0.317212	-0.690138	-1.097161
H570	H	0.182788	-0.190138	-0.597161
H571	H	-0.314341	-0.650217	-1.051769
H572	H	0.185659	-0.150217	-0.551769
C573	C	-0.325975	-0.618287	-0.840936
C574	C	0.174025	-0.118287	-0.340936
C575	C	-0.355474	-0.651835	-0.809543
C576	C	0.144526	-0.151835	-0.309543
H577	H	-0.348662	-0.595585	-0.859455
H578	H	0.151338	-0.095585	-0.359455
H579	H	-0.303201	-0.598302	-0.819634
H580	H	0.196799	-0.098302	-0.319634
H581	H	-0.306062	-0.638224	-0.865018
H582	H	0.193938	-0.138224	-0.365018
H583	H	-0.375384	-0.631898	-0.785459
H584	H	0.124616	-0.131898	-0.285459
H585	H	-0.378257	-0.671821	-0.830848
H586	H	0.121743	-0.171821	-0.330848
