data_functionalizedCrystal
_audit_creation_method	'MofGen! by Chris Wilmer'
_symmetry_space_group_name_H-M	'P1'
_symmetry_Int_Tables_number	1
_symmetry_cell_setting	triclinic
loop_
_symmetry_equiv_pos_as_xyz
  x,y,z
_cell_length_a	25.639234
_cell_length_b	25.639242
_cell_length_c	25.639239
_cell_angle_alpha	90.034811
_cell_angle_beta	90.025460
_cell_angle_gamma	90.029352
loop_
_atom_site_label
_atom_site_type_symbol
_atom_site_fract_x
_atom_site_fract_y
_atom_site_fract_z
Zn1	Zn	-0.295740	-0.799260	0.208245
Zn2	Zn	-0.208304	-0.799172	0.295673
Zn3	Zn	-0.208304	-0.711825	0.208247
Zn4	Zn	-0.295694	-0.711780	0.295644
O5	O	-0.252010	-0.755509	0.251952
O6	O	-0.284161	-0.872413	0.219854
O7	O	-0.135139	-0.787567	0.284089
O8	O	-0.219923	-0.723479	0.135081
O9	O	-0.219922	-0.872348	0.284087
O10	O	-0.284161	-0.787717	0.135080
O11	O	-0.135139	-0.723394	0.219857
O12	O	-0.219877	-0.638654	0.219829
O13	O	-0.368865	-0.723403	0.284038
O14	O	-0.284082	-0.638621	0.284040
O15	O	-0.368899	-0.787674	0.219826
O16	O	-0.219876	-0.787523	0.368835
O17	O	-0.284081	-0.723317	0.368813
C18	C	-0.251985	-0.755420	0.387795
C19	C	-0.251992	-0.755430	0.445909
C20	C	-0.251975	-0.619667	0.251932
C21	C	-0.251972	-0.561553	0.251935
C22	C	-0.388384	-0.755543	0.251928
C23	C	-0.446498	-0.755558	0.251918
C24	C	-0.806867	-0.722158	0.218411
C25	C	-0.861471	-0.722160	0.218401
O26	O	-0.889712	-0.693736	0.189969
N27	N	-0.888780	-0.755575	0.251836
C28	C	-0.861483	-0.788986	0.285287
O29	O	-0.889725	-0.817407	0.313726
C30	C	-0.806879	-0.788980	0.285299
C31	C	-0.779573	-0.755567	0.251857
C32	C	-0.779560	-0.688747	0.184972
C33	C	-0.724959	-0.688745	0.184981
C34	C	-0.697665	-0.722154	0.218428
C35	C	-0.724972	-0.755565	0.251866
C36	C	-0.779582	-0.822387	0.318752
C37	C	-0.724975	-0.822378	0.318761
C38	C	-0.697669	-0.788965	0.285319
C39	C	-0.643078	-0.788971	0.285322
N40	N	-0.615768	-0.755557	0.251887
C41	C	-0.643062	-0.722148	0.218440
C42	C	-0.976153	-0.788995	0.285260
C43	C	-1.030756	-0.789003	0.285246
C44	C	-1.030740	-0.722178	0.218361
C45	C	-0.976137	-0.722172	0.218373
C46	C	-0.948844	-0.755580	0.251825
C47	C	-0.528397	-0.722146	0.218461
C48	C	-0.473792	-0.722149	0.218471
C49	C	-0.473812	-0.788973	0.285358
C50	C	-0.528412	-0.788972	0.285346
C51	C	-0.555704	-0.755555	0.251896
O52	O	-0.614801	-0.817380	0.313741
O53	O	-0.614813	-0.693726	0.190011
C54	C	-0.116168	-0.755506	0.251938
C55	C	-0.058054	-0.755592	0.251801
C56	C	-0.252046	-0.891882	0.251973
C57	C	-0.252062	-0.949996	0.251982
C58	C	-0.285410	-0.201181	0.285443
C59	C	-0.285418	-0.146577	0.285446
O60	O	-0.313818	-0.118333	0.313909
N61	N	-0.252045	-0.119270	0.251967
C62	C	-0.218664	-0.146571	0.218478
O63	O	-0.190278	-0.118330	0.190002
C64	C	-0.218659	-0.201174	0.218473
C65	C	-0.252031	-0.228478	0.251958
C66	C	-0.318780	-0.228485	0.318925
C67	C	-0.318771	-0.283086	0.318922
C68	C	-0.285392	-0.310382	0.285437
C69	C	-0.252022	-0.283078	0.251955
C70	C	-0.185282	-0.228473	0.184982
C71	C	-0.185279	-0.283080	0.184980
C72	C	-0.218652	-0.310384	0.218465
C73	C	-0.218634	-0.364975	0.218468
N74	N	-0.252008	-0.392282	0.251947
C75	C	-0.285387	-0.364986	0.285432
C76	C	-0.218678	-0.031900	0.218492
C77	C	-0.218680	0.022702	0.218499
C78	C	-0.285436	0.022692	0.285466
C79	C	-0.285430	-0.031911	0.285461
C80	C	-0.252052	-0.059207	0.251971
C81	C	-0.285365	-0.479651	0.285424
C82	C	-0.285351	-0.534256	0.285420
C83	C	-0.218598	-0.534241	0.218451
C84	C	-0.218610	-0.479641	0.218457
C85	C	-0.251997	-0.452347	0.251945
O86	O	-0.190250	-0.393254	0.190018
O87	O	-0.313773	-0.393233	0.313899
C88	C	-0.252047	-0.755613	0.115579
C89	C	-0.252063	-0.755658	0.057465
C90	C	-0.285431	-0.722071	0.697104
C91	C	-0.285425	-0.722052	0.642499
O92	O	-0.313839	-0.693603	0.614264
N93	N	-0.252019	-0.755495	0.615183
C94	C	-0.218621	-0.788964	0.642473
O95	O	-0.190206	-0.817409	0.614224
C96	C	-0.218630	-0.788986	0.697077
C97	C	-0.252034	-0.755536	0.724390
C98	C	-0.318834	-0.688624	0.724418
C99	C	-0.318839	-0.688643	0.779018
C100	C	-0.285442	-0.722109	0.806305
C101	C	-0.252040	-0.755555	0.778991
C102	C	-0.185235	-0.822457	0.724366
C103	C	-0.185247	-0.822476	0.778973
C104	C	-0.218651	-0.789027	0.806287
C105	C	-0.218648	-0.789039	0.860878
N106	N	-0.252054	-0.755596	0.888195
C107	C	-0.285451	-0.722130	0.860908
C108	C	-0.218605	-0.788917	0.527803
C109	C	-0.218593	-0.788893	0.473200
C110	C	-0.285398	-0.721981	0.473230
C111	C	-0.285407	-0.722003	0.527834
C112	C	-0.252011	-0.755473	0.555119
C113	C	-0.285459	-0.722172	0.975573
C114	C	-0.285460	-0.722192	1.030179
C115	C	-0.218657	-0.789106	1.030144
C116	C	-0.218654	-0.789084	0.975543
C117	C	-0.252059	-0.755615	0.948259
O118	O	-0.190250	-0.817475	0.889148
O119	O	-0.313866	-0.693695	0.889164
H120	H	-0.451561	-0.694940	0.191237
F121	F	-0.183084	-0.450581	0.182827
H122	H	-0.550646	-0.816186	0.312571
H123	H	-0.158034	-0.849695	0.702135
H124	H	-0.191494	-0.054121	0.191221
F125	F	-0.183155	0.051755	0.182866
H126	H	-0.550611	-0.694935	0.191222
F127	F	-0.695904	-0.653179	0.149391
F128	F	-0.695931	-0.857935	0.354368
F129	F	-0.808600	-0.653180	0.149376
F130	F	-0.183076	-0.563302	0.182817
H131	H	-0.158105	-0.206252	0.157717
F132	F	-1.059798	-0.686620	0.182764
F133	F	-0.183117	-0.824722	1.059194
F134	F	-0.183092	-0.824675	0.946473
F135	F	-0.321015	-0.686589	1.059245
F136	F	-0.444754	-0.824530	0.320951
H137	H	-0.345964	-0.206266	0.346192
H138	H	-0.312527	-0.556485	0.312690
H139	H	-0.345947	-0.305312	0.346188
F140	F	-0.947080	-0.686609	0.182781
F141	F	-0.320900	-0.450610	0.321066
H142	H	-1.052984	-0.816218	0.312472
F143	F	-0.354399	-0.653047	0.808081
H144	H	-0.158101	-0.305301	0.157704
H145	H	-0.801806	-0.849595	0.345983
F146	F	-0.947111	-0.824558	0.320864
H147	H	-0.312606	-0.054139	0.312727
F148	F	-0.183054	-0.824540	0.556837
F149	F	-0.320965	0.051753	0.321100
H150	H	-0.312662	-0.694919	0.953365
H151	H	-0.346032	-0.661373	0.702206
F152	F	-0.320961	-0.686402	0.556898
H153	H	-0.312592	-0.694732	0.451004
H154	H	-0.191386	-0.816125	0.450965
H155	H	-0.158053	-0.849735	0.801186
