data_functionalizedCrystal
_audit_creation_method	'MofGen! by Chris Wilmer'
_symmetry_space_group_name_H-M	'P1'
_symmetry_Int_Tables_number	1
_symmetry_cell_setting	triclinic
loop_
_symmetry_equiv_pos_as_xyz
  x,y,z
_cell_length_a	29.839134
_cell_length_b	13.897448
_cell_length_c	13.897441
_cell_angle_alpha	90.028012
_cell_angle_beta	89.968382
_cell_angle_gamma	89.985569
loop_
_atom_site_label
_atom_site_type_symbol
_atom_site_fract_x
_atom_site_fract_y
_atom_site_fract_z
Zn1	Zn	0.686831	0.384116	-0.545679
Zn2	Zn	0.686779	0.545438	-0.384387
Zn3	Zn	0.611701	0.384144	-0.384366
Zn4	Zn	0.611690	0.545357	-0.545609
O5	O	0.649250	0.464764	-0.465010
O6	O	0.749691	0.405538	-0.524321
O7	O	0.676802	0.524088	-0.249403
O8	O	0.621693	0.249159	-0.405785
O9	O	0.749653	0.524061	-0.405821
O10	O	0.676891	0.249138	-0.524300
O11	O	0.621643	0.405586	-0.249387
O12	O	0.548832	0.405507	-0.405718
O13	O	0.621674	0.523922	-0.680600
O14	O	0.548824	0.523949	-0.524182
O15	O	0.676880	0.405459	-0.680651
O16	O	0.676792	0.680409	-0.405753
O17	O	0.621624	0.680349	-0.524202
C18	C	0.532527	0.464723	-0.464941
C19	C	0.482593	0.464729	-0.464934
C20	C	0.649213	0.715378	-0.464994
C21	C	0.649239	0.822592	-0.465019
C22	C	0.649282	0.464678	-0.716603
C23	C	0.649295	0.464642	-0.823817
C24	C	0.172955	0.526528	-0.526619
C25	C	-0.014718	0.526555	-0.526662
O26	O	-0.038978	0.579053	-0.579068
N27	N	-0.038192	0.464799	-0.465083
C28	C	-0.014745	0.403028	-0.403493
O29	O	-0.039017	0.350494	-0.351124
C30	C	0.172927	0.402996	-0.403456
C31	C	0.196399	0.464763	-0.465032
C32	C	0.196426	0.588289	-0.588191
C33	C	0.243342	0.588285	-0.588176
C34	C	0.266786	0.526520	-0.526589
C35	C	0.243314	0.464759	-0.465017
C36	C	0.196374	0.341221	-0.341872
C37	C	0.243295	0.341217	-0.341870
C38	C	0.266766	0.402983	-0.403446
C39	C	0.313674	0.402991	-0.403415
N40	N	0.337148	0.464747	-0.464994
C41	C	0.313704	0.526511	-0.526581
C42	C	-0.113275	0.403050	-0.403516
C43	C	-0.160193	0.403059	-0.403524
C44	C	-0.160163	0.526585	-0.526694
C45	C	-0.113245	0.526580	-0.526681
C46	C	-0.089802	0.464806	-0.465095
C47	C	0.412229	0.526500	-0.526544
C48	C	0.459149	0.526493	-0.526521
C49	C	0.459115	0.402964	-0.403355
C50	C	0.412200	0.402973	-0.403374
C51	C	0.388758	0.464744	-0.464977
O52	O	0.337963	0.350512	-0.351044
O53	O	0.337984	0.579022	-0.578957
C54	C	0.126039	0.526531	-0.526634
C55	C	0.102568	0.464770	-0.465062
C56	C	0.126012	0.403006	-0.403475
C57	C	0.055650	0.464779	-0.465070
C58	C	0.032206	0.526544	-0.526657
C59	C	0.055680	0.588300	-0.588236
C60	C	0.102596	0.588296	-0.588221
C61	C	0.102538	0.341250	-0.341896
C62	C	0.055622	0.341259	-0.341915
C63	C	0.032179	0.403024	-0.403502
C64	C	0.766428	0.464805	-0.465081
C65	C	0.816363	0.464823	-0.465111
C66	C	0.649283	1.018887	-0.465088
C67	C	0.649257	0.909655	-0.465053
C68	C	0.649295	1.213171	-0.465059
C69	C	0.649305	1.105957	-0.465109
C70	C	0.649308	0.464577	-1.020113
C71	C	0.649299	0.464616	-0.910880
C72	C	0.649244	0.464779	-0.214396
C73	C	0.649318	0.464544	-0.107183
H74	H	0.478257	0.576795	-0.576664
F75	F	0.484074	0.337233	-0.337812
H76	H	0.177343	0.638585	-0.638348
H77	H	-0.094137	0.576875	-0.576823
F78	F	0.127570	0.654037	-0.653760
H79	H	0.262448	0.638580	-0.638320
H80	H	0.036584	0.638594	-0.638380
H81	H	-0.179259	0.576876	-0.576841
F82	F	-0.088331	0.337296	-0.337964
F83	F	0.171404	0.275474	-0.276338
H84	H	0.262380	0.290905	-0.291724
F85	F	-0.185168	0.337330	-0.337974
F86	F	0.387219	0.337249	-0.337824
F87	F	0.030647	0.275518	-0.276369
F88	F	0.127483	0.275505	-0.276345
H89	H	0.393149	0.576797	-0.576709
