data_functionalizedCrystal
_audit_creation_method	'MofGen! by Chris Wilmer'
_symmetry_space_group_name_H-M	'P1'
_symmetry_Int_Tables_number	1
_symmetry_cell_setting	triclinic
loop_
_symmetry_equiv_pos_as_xyz
  x,y,z
_cell_length_a	9.130313
_cell_length_b	10.654550
_cell_length_c	10.654550
_cell_angle_alpha	84.484931
_cell_angle_beta	89.995631
_cell_angle_gamma	89.999724
loop_
_atom_site_label
_atom_site_type_symbol
_atom_site_fract_x
_atom_site_fract_y
_atom_site_fract_z
O1	O	0.121690	-1.667839	-0.176399
O2	O	0.121716	-1.302361	-0.193205
O3	O	0.121693	-1.493503	-0.002063
O4	O	0.121713	-1.476697	-0.367541
O5	O	-0.121906	-1.493490	-0.002057
O6	O	-0.121882	-1.302348	-0.193199
O7	O	-0.121909	-1.667826	-0.176393
Cu8	Cu	-0.144138	-1.485086	-0.184796
Cu9	Cu	0.143946	-1.485101	-0.184802
O10	O	-0.121886	-1.476684	-0.367535
C11	C	-0.000080	-1.255556	-0.191968
C12	C	-0.000070	-1.116113	-0.188276
N13	N	-0.346761	-1.485084	-0.184790
C14	C	-0.000105	-1.492263	0.044738
C15	C	-0.000103	-1.488571	0.184181
C16	C	-0.423423	-1.569751	-0.100188
C17	C	-0.576760	-1.569763	-0.100189
C18	C	-0.576759	-1.400437	-0.269404
C19	C	-0.423425	-1.400420	-0.269396
N20	N	0.346568	-1.485113	-0.184798
C21	C	-0.000110	-1.714631	-0.177630
C22	C	-0.000110	-1.854074	-0.181322
C23	C	-0.000068	-1.036628	-0.300818
C24	C	-0.000093	-0.905607	-0.297341
C25	C	-0.000117	-0.933570	-0.068772
C26	C	-0.000101	-1.064588	-0.072250
C27	C	-0.000084	-1.477925	-0.414336
C28	C	-0.000077	-1.481616	-0.553779
C29	C	-0.000111	-1.601112	0.263667
C30	C	-0.000092	-1.597636	0.394688
C31	C	-0.000065	-1.369066	0.366725
C32	C	-0.000073	-1.372544	0.235706
H33	H	-0.639174	-1.638704	-0.031297
C34	C	-0.000065	-0.995823	-0.526397
C35	C	-0.000053	-1.093265	-0.428352
H36	H	-0.000068	-1.030788	-0.605132
H37	H	0.084872	-0.945299	-0.520291
H38	H	-0.085025	-0.945308	-0.520272
H39	H	0.084913	-1.143775	-0.434472
H40	H	-0.084999	-1.143810	-0.434462
C41	C	-0.624009	-1.183668	-0.341117
C42	C	-0.661040	-1.307383	-0.362400
H43	H	-0.676048	-1.126223	-0.398527
H44	H	-0.521731	-1.171546	-0.353228
H45	H	-0.649160	-1.169331	-0.257164
H46	H	-0.635879	-1.321724	-0.446351
H47	H	-0.763341	-1.319511	-0.350300
H48	H	-0.361002	-1.331468	-0.338290
C49	C	-0.000093	-1.277850	0.023906
C50	C	-0.000102	-1.151972	0.051465
H51	H	-0.000106	-1.331794	0.100280
H52	H	0.084857	-1.293562	-0.023611
H53	H	-0.085040	-1.293566	-0.023623
H54	H	0.084851	-1.136253	0.098987
H55	H	-0.085061	-1.136253	0.099003
H56	H	-0.000132	-1.695588	0.221720
C57	C	0.125137	-1.726344	0.558220
C58	C	-0.000099	-1.721347	0.482056
H59	H	0.125137	-1.802727	0.612150
H60	H	0.125141	-1.656762	0.607659
H61	H	0.210068	-1.722953	0.506499
H62	H	-0.085031	-1.724729	0.533776
H63	H	-0.000117	-1.790949	0.432612
H64	H	-0.361007	-1.638687	-0.031295
C65	C	-0.000060	-1.146254	0.221215
C66	C	-0.000069	-1.248828	0.148325
H67	H	-0.000063	-1.069883	0.167266
H68	H	0.084885	-1.149654	0.272887
H69	H	-0.085012	-1.149651	0.272909
H70	H	0.084889	-1.245437	0.096636
H71	H	-0.085023	-1.245426	0.096630
C72	C	-0.000135	-0.745143	0.038050
C73	C	-0.000132	-0.876928	0.058760
H74	H	-0.000132	-0.710180	0.116787
H75	H	-0.085077	-0.717939	-0.008325
H76	H	0.084820	-0.717936	-0.008340
H77	H	-0.085094	-0.904137	0.105143
H78	H	0.084818	-0.904143	0.105156
H79	H	-0.000095	-0.840894	-0.388984
H80	H	-0.000043	-1.274601	0.408693
