data_functionalizedCrystal
_audit_creation_method	'MofGen! by Chris Wilmer'
_symmetry_space_group_name_H-M	'P1'
_symmetry_Int_Tables_number	1
_symmetry_cell_setting	triclinic
loop_
_symmetry_equiv_pos_as_xyz
  x,y,z
_cell_length_a	19.851628
_cell_length_b	14.446369
_cell_length_c	14.446369
_cell_angle_alpha	60.000250
_cell_angle_beta	90.001668
_cell_angle_gamma	60.005192
loop_
_atom_site_label
_atom_site_type_symbol
_atom_site_fract_x
_atom_site_fract_y
_atom_site_fract_z
Zr1	Zr	0.648908	1.013340	-0.121569
O2	O	0.541355	1.206433	-0.269371
O3	O	0.681877	0.820228	-0.076254
O4	O	0.681879	1.013337	-0.269373
O5	O	0.541353	1.013333	0.076077
O6	O	0.792728	1.013355	-0.269382
O7	O	0.541353	1.013325	-0.076252
O8	O	0.792725	0.667919	0.076073
O9	O	0.541356	1.358769	-0.269378
O10	O	0.778665	0.899678	-0.056941
O11	O	0.695940	0.899671	0.056746
O12	O	0.695941	1.127031	-0.170627
O13	O	0.613216	1.127024	-0.056939
Zr14	Zr	0.825698	1.013382	0.121364
Zr15	Zr	0.825699	1.013368	-0.121583
Zr16	Zr	0.648907	1.013353	0.121377
Zr17	Zr	0.648909	1.256298	-0.121581
Zr18	Zr	0.825697	0.770424	0.121375
O19	O	0.792729	1.206493	0.076048
O20	O	0.792729	1.206474	-0.269391
O21	O	0.541355	1.206452	0.076068
O22	O	0.933251	0.820288	0.269166
O23	O	0.933251	0.820269	-0.076273
O24	O	0.681877	0.820247	0.269185
O25	O	0.933253	1.013388	-0.076282
O26	O	0.792727	1.013384	0.269168
O27	O	0.681878	1.013367	0.269176
O28	O	0.933253	1.013397	0.076047
O29	O	0.681881	1.358792	-0.269389
O30	O	0.792725	0.667930	0.269183
O31	O	0.933250	0.667952	0.269173
O32	O	0.933250	0.667942	0.076062
O33	O	0.541356	1.358780	-0.076268
O34	O	0.681881	1.358802	-0.076279
O35	O	0.778665	0.899690	0.170421
O36	O	0.861390	0.899697	0.056734
O37	O	0.778666	1.127051	-0.056952
O38	O	0.695941	1.127044	0.056736
C39	C	0.737301	0.709457	-0.000089
C40	C	0.737300	0.606315	-0.000084
C41	C	0.516164	1.013325	-0.000086
C42	C	0.441112	1.013313	-0.000080
C43	C	0.685375	0.459301	0.071947
C44	C	0.685093	0.566921	0.071656
C45	C	0.699239	0.655299	-0.123616
C46	C	0.698849	0.548066	-0.123242
C47	C	0.827323	0.372875	0.050354
C48	C	0.827191	0.479026	0.052874
C49	C	0.304850	0.889379	0.061892
C50	C	0.237402	0.951349	0.106818
C51	C	0.303681	1.013347	-0.000095
C52	C	0.237394	0.951369	-0.044983
C53	C	0.170931	1.013370	-0.000108
C54	C	0.237221	1.075317	0.044894
C55	C	0.237223	1.075320	-0.106966
C56	C	0.169762	1.137380	-0.062066
C57	C	0.380155	1.013330	-0.000084
C58	C	0.094455	1.013397	-0.000116
C59	C	0.958442	1.013396	-0.000120
C60	C	1.033494	1.013409	-0.000125
C61	C	0.737303	1.013344	-0.303992
C62	C	0.737303	1.013338	-0.407130
C63	C	0.737305	1.317264	-0.000117
C64	C	0.737306	1.420406	-0.000122
C65	C	0.789737	0.869962	-0.482109
C66	C	0.789510	0.869865	-0.374781
C67	C	0.647417	1.084552	-0.481686
C68	C	0.647704	1.083642	-0.588545
C69	C	0.774030	1.086615	-0.590128
C70	C	0.775849	1.083913	-0.481456
C71	C	0.737303	1.013377	0.303787
C72	C	0.737303	1.013383	0.406924
C73	C	0.958440	0.709493	-0.000106
C74	C	1.033491	0.606363	-0.000107
C75	C	0.737301	0.709474	0.303800
C76	C	0.737300	0.606338	0.406942
C77	C	0.958439	0.709510	0.303784
C78	C	1.033491	0.606385	0.406920
C79	C	0.516167	1.317212	-0.303989
C80	C	0.441115	1.420336	-0.407126
C81	C	0.516166	1.317228	-0.000100
C82	C	0.441115	1.420358	-0.000099
C83	C	0.737305	1.317247	-0.304006
C84	C	0.737306	1.420384	-0.407148
C85	C	1.025555	0.557922	-0.059455
C86	C	1.096067	0.461034	-0.059478
C87	C	1.174515	0.412582	-0.000147
C88	C	1.182450	0.461033	0.059203
C89	C	1.111939	0.557926	0.059219
C90	C	1.111925	0.557961	0.396010
C91	C	1.182451	0.461078	0.492908
C92	C	1.174541	0.412615	0.600715
C93	C	1.096098	0.461049	0.611623
C94	C	1.025574	0.557937	0.514726
C95	C	0.362681	1.468772	-0.396216
C96	C	0.292155	1.565685	-0.493114
C97	C	0.300065	1.614153	-0.600921
C98	C	0.378508	1.565713	-0.611829
C99	C	0.449032	1.468808	-0.514931
C100	C	0.449051	1.468810	0.059239
C101	C	0.378539	1.565724	0.059236
C102	C	0.300091	1.614180	-0.000099
C103	C	0.292156	1.565724	-0.059444
C104	C	0.362667	1.468818	-0.059447
C105	C	0.684872	0.460015	0.481936
C106	C	0.685094	0.566936	0.374602
C107	C	0.827188	0.479499	0.481495
C108	C	0.826906	0.372124	0.588359
C109	C	0.700581	0.547077	0.589946
C110	C	0.698757	0.655546	0.481270
H111	H	0.710624	0.530220	0.162620
H112	H	0.242634	1.693058	-0.679812
H113	H	1.118412	0.597354	0.107554
C114	C	0.238024	1.146045	0.096320
H115	H	0.190327	1.175608	0.117741
H116	H	0.286028	1.087311	0.161171
H117	H	0.238198	1.218868	0.041758
C118	C	1.120643	0.611257	0.277435
H119	H	1.177461	0.568540	0.284832
H120	H	1.094934	0.595364	0.237163
H121	H	1.094926	0.702752	0.237166
C122	C	0.722680	1.229347	-0.695780
H123	H	0.679077	1.244290	-0.741494
H124	H	0.700328	1.286902	-0.672949
H125	H	0.756954	1.244894	-0.738090
C126	C	0.353968	1.415475	-0.277638
H127	H	0.407198	1.350816	-0.221481
H128	H	0.324673	1.485045	-0.269139
H129	H	0.324661	1.377667	-0.269137
H130	H	1.089670	0.421576	0.699412
C131	C	0.387198	1.619026	-0.730419
H132	H	0.333959	1.683662	-0.786556
H133	H	0.416499	1.656841	-0.738945
H134	H	0.416487	1.549456	-0.738925
C135	C	0.535307	1.415488	-0.526940
H136	H	0.576182	1.350826	-0.453798
H137	H	0.541454	1.377700	-0.567212
H138	H	0.541513	1.485042	-0.567211
H139	H	1.246316	0.421653	0.484007
C140	C	0.535335	1.415525	0.124513
H141	H	0.529951	1.458280	0.159839
H142	H	0.564639	1.324040	0.180675
H143	H	0.564640	1.431413	0.073285
H144	H	0.385016	1.605160	0.107566
H145	H	0.606652	1.190043	-0.508918
H146	H	0.961712	0.597352	0.523625
H147	H	0.228291	1.605109	-0.484211
C148	C	0.222536	1.720770	-0.000083
H149	H	0.238505	1.742671	0.043766
H150	H	0.190630	1.796382	-0.075684
H151	H	0.190633	1.689000	0.031705
C152	C	0.205861	1.619025	-0.124698
H153	H	0.165010	1.683665	-0.116179
H154	H	0.199659	1.656832	-0.202773
H155	H	0.199670	1.549450	-0.095373
C156	C	0.612515	0.600529	0.595512
H157	H	0.591492	0.676935	0.593624
H158	H	0.578094	0.621598	0.532535
H159	H	0.613631	0.536026	0.663826
C160	C	0.882559	0.331647	0.694515
H161	H	0.882761	0.265815	0.760484
H162	H	0.937159	0.298521	0.692198
H163	H	0.862082	0.405637	0.696360
C164	C	0.353927	1.415515	-0.124706
H165	H	0.297106	1.458249	-0.160029
H166	H	0.379637	1.431385	-0.180870
H167	H	0.379632	1.324025	-0.073471
H168	H	0.618903	0.656273	0.320335
C169	C	1.252122	0.306031	0.707292
H170	H	1.299965	0.284129	0.685344
H171	H	1.252138	0.337783	0.751140
H172	H	1.252132	0.230408	0.751131
C173	C	0.718970	0.338900	0.480524
H174	H	0.765026	0.264318	0.547263
H175	H	0.677285	0.324953	0.477607
H176	H	0.735655	0.352705	0.415835
H177	H	0.112022	1.242285	-0.114479
H178	H	0.618512	0.497243	0.479604
H179	H	0.842074	1.031978	-0.430041
H180	H	0.710571	0.529471	0.320816
H181	H	0.710771	0.370442	0.163138
C182	C	0.879843	0.337784	-0.020210
H183	H	0.934166	0.309144	0.010693
H184	H	0.881898	0.269819	-0.018528
H185	H	0.855866	0.412760	-0.096336
H186	H	0.839221	1.040727	-0.594247
H187	H	0.856308	0.281375	0.588086
C188	C	0.882263	0.509556	0.518271
H189	H	0.850852	0.599944	0.488408
H190	H	0.902688	0.458863	0.598675
H191	H	0.927222	0.488425	0.490393
C192	C	0.867189	0.427400	0.411789
H193	H	0.829250	0.482746	0.337269
H194	H	0.915402	0.426118	0.408186
H195	H	0.881574	0.341193	0.446902
C196	C	0.609299	0.777780	0.411814
H197	H	0.595491	0.798752	0.337823
H198	H	0.573000	0.760728	0.448034
H199	H	0.604225	0.849287	0.406712
C200	C	0.744993	0.698940	0.515759
H201	H	0.788606	0.687555	0.485149
H202	H	0.707876	0.788562	0.487342
H203	H	0.767041	0.647443	0.596075
H204	H	0.738592	0.522296	0.668159
H205	H	0.619368	0.495051	0.037247
H206	H	0.618694	0.655709	0.036663
C207	C	0.609366	0.603014	-0.177816
H208	H	0.573595	0.690530	-0.200000
H209	H	0.605293	0.601552	-0.242527
H210	H	0.594001	0.550869	-0.124570
H211	H	0.734230	0.526100	-0.179855
H212	H	0.237927	1.127665	-0.197322
H213	H	0.735246	0.684087	-0.179634
H214	H	0.869142	0.500532	0.005843
C215	C	0.610621	0.780003	-0.178596
H216	H	0.596683	0.802390	-0.126459
H217	H	0.607098	0.849831	-0.244838
H218	H	0.573410	0.764715	-0.198392
H219	H	0.859123	0.279138	0.139918
C220	C	0.865600	0.425518	0.175825
H221	H	0.827025	0.480519	0.194811
H222	H	0.879532	0.339426	0.225682
H223	H	0.913932	0.423622	0.182828
H224	H	0.362683	0.784559	0.114379
C225	C	0.236499	0.880562	-0.096267
H226	H	0.283909	0.792492	-0.052129
H227	H	0.188213	0.881769	-0.096545
H228	H	0.236843	0.923729	-0.171761
H229	H	0.236730	0.898959	0.197194
C230	C	0.878930	0.794217	-0.301372
H231	H	0.878912	0.794010	-0.235506
H232	H	0.909122	0.706681	-0.279668
H233	H	0.903921	0.835258	-0.343630
C234	C	0.879384	0.793917	-0.478952
H235	H	0.885641	0.848946	-0.545282
H236	H	0.915720	0.766450	-0.413873
H237	H	0.892095	0.719444	-0.475778
H238	H	0.764038	0.813612	-0.320990
C239	C	0.607990	1.015249	-0.588183
H240	H	0.607811	1.014097	-0.653359
H241	H	0.638737	0.928005	-0.521852
H242	H	0.552909	1.061473	-0.589131
C243	C	0.592047	1.225783	-0.694702
H244	H	0.569356	1.283828	-0.672390
H245	H	0.623748	1.244683	-0.740688
H246	H	0.548681	1.236534	-0.736509
C247	C	1.087324	0.407742	-0.124751
H248	H	1.030503	0.450463	-0.160063
H249	H	1.113025	0.423631	-0.180924
H250	H	1.113039	0.316248	-0.073522
H251	H	0.764496	0.813944	-0.481071
H252	H	0.741629	1.188584	-0.506974
C253	C	0.607413	1.017712	-0.411980
H254	H	0.645349	0.946418	-0.337458
H255	H	0.559198	1.079075	-0.408383
H256	H	0.593028	0.986378	-0.447088
C257	C	1.252070	0.305991	-0.000162
H258	H	1.236101	0.284077	-0.043998
H259	H	1.283980	0.337743	-0.031936
H260	H	1.283968	0.230375	0.075447
H261	H	0.961685	0.597371	-0.107783
H262	H	1.246332	0.421569	0.107508
