data_functionalizedCrystal
_audit_creation_method	'MofGen! by Chris Wilmer'
_symmetry_space_group_name_H-M	'P1'
_symmetry_Int_Tables_number	1
_symmetry_cell_setting	triclinic
loop_
_symmetry_equiv_pos_as_xyz
  x,y,z
_cell_length_a	12.827893
_cell_length_b	12.827892
_cell_length_c	11.169409
_cell_angle_alpha	90.033086
_cell_angle_beta	90.021188
_cell_angle_gamma	90.015553
loop_
_atom_site_label
_atom_site_type_symbol
_atom_site_fract_x
_atom_site_fract_y
_atom_site_fract_z
Zn1	Zn	1.597689	-0.415944	0.678580
Zn2	Zn	1.597578	-0.590731	0.477894
Zn3	Zn	1.422925	-0.416005	0.477910
Zn4	Zn	1.422916	-0.590644	0.678535
O5	O	1.510277	-0.503331	0.578230
O6	O	1.743911	-0.439141	0.651971
O7	O	1.574367	-0.567616	0.309947
O8	O	1.446158	-0.269761	0.504555
O9	O	1.743828	-0.567556	0.504529
O10	O	1.574557	-0.269716	0.651986
O11	O	1.446050	-0.439245	0.309958
O12	O	1.276688	-0.439161	0.504510
O13	O	1.446143	-0.567407	0.846490
O14	O	1.276681	-0.567467	0.651909
O15	O	1.574548	-0.439056	0.846524
O16	O	1.574358	-0.736956	0.504484
O17	O	1.446035	-0.736892	0.651894
C18	C	1.238767	-0.503312	0.578207
C19	C	1.122614	-0.503329	0.578226
C20	C	1.070870	-0.439897	0.651299
C21	C	0.950819	-0.439913	0.651320
C22	C	1.510212	-0.774841	0.578209
C23	C	1.510279	-0.890994	0.578240
C24	C	1.573853	-0.942776	0.505378
C25	C	1.573924	-1.062826	0.505408
C26	C	1.782847	-0.503351	0.578253
C27	C	1.899000	-0.503360	0.578263
C28	C	1.510357	-0.503215	0.891272
C29	C	1.510391	-0.503166	1.024672
C30	C	1.510371	-0.230761	0.578277
C31	C	1.510411	-0.114608	0.578298
C32	C	1.510257	-0.503371	0.266405
C33	C	1.510425	-0.503126	0.133006
H34	H	1.078037	-0.557644	0.515678
H35	H	1.628349	-1.107358	0.443025
Cl36	Cl	1.657815	-0.874012	0.409036
Cl37	Cl	1.426365	-1.045868	0.674609
H38	H	1.455909	-0.935539	0.640647
Cl39	Cl	0.967690	-0.587217	0.481673
H40	H	1.115446	-0.385576	0.713839
Cl41	Cl	0.882122	-0.356070	0.747920
