data_functionalizedCrystal
_audit_creation_method	'MofGen! by Chris Wilmer'
_symmetry_space_group_name_H-M	'P1'
_symmetry_Int_Tables_number	1
_symmetry_cell_setting	triclinic
loop_
_symmetry_equiv_pos_as_xyz
  x,y,z
_cell_length_a	10.654550
_cell_length_b	14.971486
_cell_length_c	9.730223
_cell_angle_alpha	89.995390
_cell_angle_beta	89.999957
_cell_angle_gamma	84.049530
loop_
_atom_site_label
_atom_site_type_symbol
_atom_site_fract_x
_atom_site_fract_y
_atom_site_fract_z
O1	O	1.666491	0.125631	-0.114188
O2	O	1.300884	0.137600	-0.114213
O3	O	1.493487	0.001469	-0.114190
O4	O	1.473889	0.261762	-0.114211
O5	O	1.493475	0.001465	0.114390
O6	O	1.300872	0.137596	0.114366
O7	O	1.666479	0.125627	0.114392
Zn8	Zn	1.483674	0.131611	0.150671
Zn9	Zn	1.483690	0.131616	-0.150493
O10	O	1.473876	0.261759	0.114369
C11	C	1.254090	0.136720	0.000073
C12	C	1.114675	0.134090	0.000064
C13	C	1.034329	0.214242	0.000061
C14	C	0.903335	0.211766	0.000086
C15	C	0.933044	0.048979	0.000109
C16	C	1.064036	0.051456	0.000095
C17	C	1.492604	-0.031863	0.000099
C18	C	1.489978	-0.131174	0.000098
C19	C	1.603127	-0.187783	0.000107
C20	C	1.600651	-0.281096	0.000093
C21	C	1.485026	-0.317798	0.000080
C22	C	1.371868	-0.261181	0.000067
C23	C	1.374345	-0.167870	0.000071
C24	C	1.366714	-0.455672	0.000061
C25	C	1.364237	-0.548989	0.000060
C26	C	1.593020	-0.568898	0.000083
C27	C	1.595497	-0.475587	0.000087
C28	C	1.482339	-0.418976	0.000077
C29	C	1.713274	0.126508	0.000102
C30	C	1.852689	0.129137	0.000102
C31	C	1.474759	0.295090	0.000076
C32	C	1.477385	0.394401	0.000069
N33	N	1.483672	0.131607	0.356208
N34	N	1.483702	0.131613	-0.356029
C35	C	1.568985	0.071354	0.428144
C36	C	1.568997	0.071354	0.572027
C37	C	1.398379	0.191869	0.572025
C38	C	1.398362	0.191864	0.428144
H39	H	1.697282	-0.157909	0.000126
F40	F	0.879140	-0.038961	0.000136
H41	H	1.075554	0.281528	0.000047
F42	F	0.817830	0.297075	0.000085
H43	H	1.129457	-0.013817	0.000101
F44	F	1.307550	0.255993	0.351578
F45	F	1.307594	0.255998	0.648594
H46	H	1.638448	0.022288	0.369576
F47	F	1.721080	-0.341341	0.000104
F48	F	1.659797	0.007223	0.648582
H49	H	1.689649	-0.445708	0.000108
H50	H	1.270084	-0.578868	0.000071
F51	F	1.713453	-0.629148	0.000088
H52	H	1.274568	-0.409581	0.000049
H53	H	1.277724	-0.291071	0.000047
H54	H	1.282207	-0.121779	0.000063
