data_functionalizedCrystal
_audit_creation_method	'MofGen! by Chris Wilmer'
_symmetry_space_group_name_H-M	'P1'
_symmetry_Int_Tables_number	1
_symmetry_cell_setting	triclinic
loop_
_symmetry_equiv_pos_as_xyz
  x,y,z
_cell_length_a	21.295417
_cell_length_b	21.295419
_cell_length_c	17.640968
_cell_angle_alpha	78.778187
_cell_angle_beta	78.765192
_cell_angle_gamma	90.045308
loop_
_atom_site_label
_atom_site_type_symbol
_atom_site_fract_x
_atom_site_fract_y
_atom_site_fract_z
Zn1	Zn	-0.178377	1.034311	-0.446934
Zn2	Zn	-0.304942	1.012930	-0.314736
Zn3	Zn	-0.199714	0.907755	-0.314761
Zn4	Zn	-0.283648	0.928995	-0.446880
O5	O	-0.241670	0.970998	-0.380828
O6	O	-0.195148	1.119566	-0.429410
O7	O	-0.308824	0.981141	-0.204121
O8	O	-0.108788	0.924602	-0.332327
O9	O	-0.288135	1.103857	-0.332284
O10	O	-0.093112	1.017582	-0.429434
O11	O	-0.231513	0.903869	-0.204139
O12	O	-0.210866	0.822481	-0.332274
O13	O	-0.251842	0.960803	-0.557505
O14	O	-0.272532	0.838086	-0.429342
O15	O	-0.174500	1.038178	-0.557545
O16	O	-0.390212	1.001737	-0.332232
O17	O	-0.374567	0.940070	-0.429318
C18	C	-0.241704	0.807442	-0.380806
C19	C	-0.241730	0.737476	-0.380815
C20	C	-0.193365	0.712824	-0.431466
C21	C	-0.193348	0.647082	-0.431469
C22	C	-0.241705	0.605996	-0.380829
C23	C	-0.290075	0.630654	-0.330168
C24	C	-0.290087	0.696394	-0.330161
N25	N	-0.297779	0.501726	-0.374651
N26	N	-0.297764	0.439276	-0.374663
C27	C	-0.241670	0.407924	-0.380847
N28	N	-0.185587	0.441383	-0.387034
N29	N	-0.185601	0.503839	-0.387027
C30	C	-0.241697	0.534711	-0.380831
C31	C	-0.193282	0.311987	-0.431504
C32	C	-0.193265	0.246243	-0.431502
C33	C	-0.289997	0.229817	-0.330205
C34	C	-0.290009	0.295559	-0.330203
C35	C	-0.241652	0.336641	-0.380857
C36	C	-0.405229	0.970908	-0.380784
C37	C	-0.475195	0.970932	-0.380792
C38	C	-0.516179	1.003085	-0.330291
C39	C	-0.581919	1.003118	-0.330309
C40	C	-0.606673	0.970984	-0.380819
C41	C	-0.565680	0.938829	-0.431330
C42	C	-0.499941	0.938803	-0.431316
N43	N	-0.708984	0.916886	-0.386838
N44	N	-0.771434	0.916912	-0.386846
C45	C	-0.804741	0.971062	-0.380864
N46	N	-0.773241	1.025183	-0.374858
N47	N	-0.710786	1.025156	-0.374846
C48	C	-0.677955	0.971009	-0.380840
C49	C	-0.917007	1.003253	-0.330380
C50	C	-0.982747	1.003288	-0.330403
C51	C	-0.966508	0.938992	-0.431420
C52	C	-0.900769	0.938964	-0.431401
C53	C	-0.876023	0.971093	-0.380877
C54	C	-0.077470	0.971107	-0.380889
C55	C	-0.007497	0.971154	-0.380915
C56	C	-0.208415	1.004245	-0.587009
C57	C	-0.194244	1.018413	-0.674871
C58	C	-0.241636	1.135192	-0.380850
C59	C	-0.241622	1.205161	-0.380860
C60	C	-0.348983	0.863607	-0.963736
C61	C	-0.335659	0.876933	-1.046296
C62	C	-0.255130	0.957497	-1.046327
C63	C	-0.268444	0.944176	-0.963765
C64	C	-0.315372	0.897231	-0.922476
C65	C	-0.234834	0.977799	-0.922505
C66	C	-0.248150	0.964481	-0.839951
C67	C	-0.295077	0.917539	-0.798656
C68	C	-0.328689	0.883912	-0.839922
C69	C	-0.187909	1.024747	-0.963796
C70	C	-0.154299	1.058371	-0.922536
C71	C	-0.167612	1.045049	-0.839980
C72	C	-0.214539	0.998108	-0.798686
C73	C	-0.134000	1.078676	-0.798715
C74	C	-0.147317	1.065358	-0.716160
C75	C	-0.227855	0.984789	-0.716131
C76	C	-0.274749	0.937916	-0.175448
C77	C	-0.288743	0.923870	-0.087587
H78	H	-0.329395	0.315631	-0.288960
O79	O	-0.114574	1.097954	-0.676108
C80	C	-0.011559	1.124534	-0.650905
C81	C	-0.048559	1.087572	-0.696301
H82	H	0.041821	1.116164	-0.667227
H83	H	-0.029089	1.106946	-0.584800
H84	H	-0.020020	1.177899	-0.667122
H85	H	-0.040116	1.034201	-0.680150
H86	H	-0.031023	1.105214	-0.762394
H87	H	-0.329447	0.597197	-0.288936
O88	O	-0.337137	0.720243	-0.280934
C89	C	-0.433057	0.697008	-0.180429
C90	C	-0.379819	0.669915	-0.236149
H91	H	-0.467571	0.656330	-0.144194
H92	H	-0.460231	0.733574	-0.216606
H93	H	-0.410751	0.721180	-0.139197
H94	H	-0.402072	0.645712	-0.277393
H95	H	-0.352651	0.633381	-0.199923
O96	O	-0.308018	0.904714	-0.718463
C97	C	-0.343329	0.945924	-0.599985
C98	C	-0.328683	0.960540	-0.690802
H99	H	-0.360052	0.991046	-0.577593
H100	H	-0.298201	0.929310	-0.577543
H101	H	-0.382620	0.906574	-0.577583
H102	H	-0.289411	0.999901	-0.713271
H103	H	-0.373841	0.977117	-0.713190
O104	O	-0.589615	0.907605	-0.480469
C105	C	-0.566577	0.843803	-0.580632
C106	C	-0.539387	0.879148	-0.525029
H107	H	-0.525983	0.820775	-0.616660
H108	H	-0.590610	0.879338	-0.622056
H109	H	-0.603283	0.805089	-0.544295
H110	H	-0.502657	0.917861	-0.561301
H111	H	-0.515394	0.843574	-0.483602
H112	H	-0.867398	0.912778	-0.472520
O113	O	-0.174856	1.037681	-1.043990
C114	C	-0.095404	1.040626	-1.162478
C115	C	-0.110095	1.025971	-1.071660
H116	H	-0.043049	1.031151	-1.184877
H117	H	-0.104797	1.092989	-1.184933
H118	H	-0.127512	1.008541	-1.184857
H119	H	-0.077998	1.058015	-1.049214
H120	H	-0.100721	0.973594	-1.049258
O121	O	-0.368367	0.844361	-1.086415
C122	C	-0.438289	0.850874	-1.179636
C123	C	-0.401294	0.887837	-1.134236
H124	H	-0.464909	0.886010	-1.218322
H125	H	-0.474156	0.815050	-1.135981
H126	H	-0.403147	0.824197	-1.218257
H127	H	-0.436387	0.914553	-1.095613
H128	H	-0.365418	0.923624	-1.177933
H129	H	-0.496033	1.029249	-0.289153
O130	O	-0.621655	1.034359	-0.281172
C131	C	-0.630825	1.098146	-0.180997
C132	C	-0.585757	1.062781	-0.236591
H133	H	-0.601818	1.121146	-0.144951
H134	H	-0.668311	1.062630	-0.139589
H135	H	-0.655710	1.136884	-0.217342
H136	H	-0.560828	1.024045	-0.200310
H137	H	-0.548310	1.098337	-0.278001
O138	O	-0.088491	1.124363	-0.838791
C139	C	-0.053821	1.235529	-0.864022
C140	C	-0.105414	1.183855	-0.818603
H141	H	-0.067477	1.283637	-0.847704
H142	H	-0.050080	1.239332	-0.930123
H143	H	-0.005680	1.221858	-0.847823
H144	H	-0.153582	1.197487	-0.834736
H145	H	-0.109098	1.180062	-0.752513
H146	H	-0.986662	0.912831	-0.472550
O147	O	-0.209617	1.003181	-1.086402
C148	C	-0.174934	1.114343	-1.111633
C149	C	-0.226534	1.062675	-1.066217
H150	H	-0.188585	1.162453	-1.095318
H151	H	-0.171189	1.118145	-1.177734
H152	H	-0.126796	1.100667	-1.095428
H153	H	-0.274699	1.076313	-1.082356
H154	H	-0.230222	1.058883	-1.000127
H155	H	-0.153960	0.627006	-0.472714
O156	O	-0.374365	0.838391	-0.799833
C157	C	-0.485531	0.803697	-0.774549
C158	C	-0.433867	0.855293	-0.819991
H159	H	-0.533647	0.817338	-0.790842
H160	H	-0.489326	0.799971	-0.708452
H161	H	-0.471853	0.755557	-0.790754
H162	H	-0.447507	0.903462	-0.803852
H163	H	-0.430082	0.858964	-0.886077
O164	O	-0.337053	0.189990	-0.281050
C165	C	-0.450306	0.163517	-0.242461
C166	C	-0.397079	0.208680	-0.298170
H167	H	-0.498847	0.178603	-0.256294
H168	H	-0.449505	0.166182	-0.178733
H169	H	-0.441960	0.112296	-0.251149
H170	H	-0.405389	0.259921	-0.289552
H171	H	-0.397894	0.205959	-0.361878
H172	H	-0.153904	0.345437	-0.472745
O173	O	-0.460076	0.907515	-0.480262
C174	C	-0.384281	0.824161	-0.490777
C175	C	-0.429394	0.859551	-0.435258
H176	H	-0.359473	0.785365	-0.454413
H177	H	-0.346741	0.859656	-0.532122
H178	H	-0.413272	0.801232	-0.526903
H179	H	-0.400457	0.882481	-0.399081
H180	H	-0.466935	0.824028	-0.393966
O181	O	-0.146247	0.222403	-0.480780
C182	C	-0.050290	0.245632	-0.581226
C183	C	-0.103507	0.272718	-0.525471
H184	H	-0.015713	0.286296	-0.617361
H185	H	-0.072543	0.221509	-0.622544
H186	H	-0.023190	0.209024	-0.545002
H187	H	-0.130626	0.309349	-0.561631
H188	H	-0.081215	0.296801	-0.484152
O189	O	-0.893065	1.034520	-0.281282
C190	C	-0.916114	1.098258	-0.181052
C191	C	-0.943308	1.062888	-0.236630
H192	H	-0.956724	1.121191	-0.144925
H193	H	-0.879445	1.137030	-0.217333
H194	H	-0.892039	1.062692	-0.139712
H195	H	-0.967416	1.098405	-0.277981
H196	H	-0.979945	1.024106	-0.200300
O197	O	-1.022537	1.034667	-0.281493
C198	C	-1.098279	1.118077	-0.271085
C199	C	-1.053253	1.082567	-0.326543
H200	H	-1.123136	1.156803	-0.307485
H201	H	-1.069283	1.141087	-0.235034
H202	H	-1.135789	1.082592	-0.229668
H203	H	-1.015735	1.118010	-0.368008
H204	H	-1.082292	1.059546	-0.362539
O205	O	-0.394620	0.818014	-0.923743
C206	C	-0.473098	0.739503	-0.932416
C207	C	-0.421435	0.791117	-0.977806
H208	H	-0.494783	0.717732	-0.976105
H209	H	-0.512274	0.762140	-0.893790
H210	H	-0.450446	0.700390	-0.893740
H211	H	-0.444029	0.830246	-1.016524
H212	H	-0.382266	0.768433	-1.016381
O213	O	-0.108713	1.104009	-0.962525
C214	C	-0.030201	1.182482	-0.953840
C215	C	-0.081824	1.130825	-0.908457
H216	H	-0.008437	1.204168	-0.910145
H217	H	-0.052832	1.221656	-0.992458
H218	H	0.008918	1.159828	-0.992522
H219	H	-0.120959	1.153422	-0.869731
H220	H	-0.059145	1.091658	-0.869888
O221	O	-0.146324	0.752634	-0.480687
C222	C	-0.050399	0.761990	-0.581188
C223	C	-0.103627	0.716830	-0.525477
H224	H	-0.015872	0.733062	-0.617427
H225	H	-0.023237	0.786939	-0.545004
H226	H	-0.072713	0.799415	-0.622417
H227	H	-0.081366	0.679368	-0.484237
H228	H	-0.130783	0.691928	-0.561710
H229	H	-0.266053	0.946547	-0.682511
