data_functionalizedCrystal
_audit_creation_method	'MofGen! by Chris Wilmer'
_symmetry_space_group_name_H-M	'P1'
_symmetry_Int_Tables_number	1
_symmetry_cell_setting	triclinic
loop_
_symmetry_equiv_pos_as_xyz
  x,y,z
_cell_length_a	19.805407
_cell_length_b	12.827892
_cell_length_c	19.805399
_cell_angle_alpha	89.977471
_cell_angle_beta	89.980427
_cell_angle_gamma	90.015392
loop_
_atom_site_label
_atom_site_type_symbol
_atom_site_fract_x
_atom_site_fract_y
_atom_site_fract_z
Zn1	Zn	1.034788	-0.416057	-0.382743
Zn2	Zn	1.034724	-0.590812	-0.269565
Zn3	Zn	0.921602	-0.416086	-0.269568
Zn4	Zn	0.921587	-0.590757	-0.382712
O5	O	0.978175	-0.503428	-0.326147
O6	O	1.129496	-0.439250	-0.367742
O7	O	1.019698	-0.567670	-0.174849
O8	O	0.936649	-0.269846	-0.284595
O9	O	1.129449	-0.567642	-0.284590
O10	O	1.019806	-0.269825	-0.367745
O11	O	0.936588	-0.439299	-0.174851
O12	O	0.826884	-0.439245	-0.284565
O13	O	0.936624	-0.567547	-0.477433
O14	O	0.826873	-0.567575	-0.367691
O15	O	1.019792	-0.439196	-0.477456
O16	O	1.019684	-0.737041	-0.284560
O17	O	0.936563	-0.737000	-0.367688
C18	C	0.802319	-0.503408	-0.326125
C19	C	0.727087	-0.503425	-0.326132
C20	C	0.691755	-0.570347	-0.369346
C21	C	0.621067	-0.570349	-0.369355
C22	C	0.585712	-0.503433	-0.326147
C23	C	0.621049	-0.436504	-0.282931
C24	C	0.691736	-0.436497	-0.282926
C25	C	0.335975	-0.436527	-0.282954
C26	C	0.265283	-0.436540	-0.282961
C27	C	0.265306	-0.570378	-0.369383
C28	C	0.335993	-0.570372	-0.369378
C29	C	0.371324	-0.503439	-0.326165
C30	C	0.447973	-0.503436	-0.326156
C31	C	0.509065	-0.503440	-0.326152
C32	C	0.978133	-0.774938	-0.326135
C33	C	0.978177	-0.891091	-0.326153
C34	C	1.019357	-0.942862	-0.285064
C35	C	1.019403	-1.062912	-0.285081
C36	C	1.154718	-0.503449	-0.326169
C37	C	1.229950	-0.503458	-0.326179
C38	C	0.978213	-0.503362	-0.502690
C39	C	0.978229	-0.503334	-0.577922
C40	C	0.978236	-0.230858	-0.326174
C41	C	0.978262	-0.114705	-0.326185
C42	C	1.021536	-0.436499	-0.613279
C43	C	1.021543	-0.436468	-0.683968
C44	C	0.978246	-0.503280	-0.719298
C45	C	0.934935	-0.570118	-0.683935
C46	C	0.934925	-0.570143	-0.613248
C47	C	0.934973	-0.570021	-0.969009
C48	C	0.934988	-0.569994	-1.039701
C49	C	1.021591	-0.436347	-1.039728
C50	C	1.021581	-0.436371	-0.969041
C51	C	0.978268	-0.503205	-0.933685
C52	C	0.978260	-0.503236	-0.857037
C53	C	0.978257	-0.503255	-0.795945
C54	C	0.978176	-0.503418	-0.150291
C55	C	0.978291	-0.503152	-0.075060
H56	H	0.592303	-0.624844	-0.404544
H57	H	0.942958	-0.935645	-0.361346
H58	H	1.056809	-0.382046	-0.712753
C59	C	1.068614	-0.363716	-0.930806
C60	C	1.106529	-0.305155	-0.976901
C61	C	1.149855	-0.238201	-0.941704
H62	H	1.098152	-0.403586	-0.903229
H63	H	1.042741	-0.318136	-0.903246
H64	H	1.132400	-0.350730	-1.004449
H65	H	1.077009	-0.265264	-1.004479
H66	H	1.123982	-0.192620	-0.914145
H67	H	1.179389	-0.278079	-0.914128
H68	H	1.175581	-0.198453	-0.972974
C69	C	1.068538	-0.363809	-1.078238
C70	C	1.059268	-0.378059	-1.147705
C71	C	1.102498	-0.311250	-1.183199
H72	H	1.114038	-0.379048	-1.066744
H73	H	1.058640	-0.293577	-1.066695
H74	H	1.069171	-0.448275	-1.159244
H75	H	1.013778	-0.362812	-1.159220
H76	H	1.092600	-0.241018	-1.171656
H77	H	1.147994	-0.326495	-1.171699
H78	H	1.096210	-0.320902	-1.230336
C79	C	0.887824	-0.642543	-0.574827
C80	C	0.844434	-0.583387	-0.534256
C81	C	0.801026	-0.650046	-0.498863
H82	H	0.913622	-0.688111	-0.547197
H83	H	0.862003	-0.682311	-0.605973
H84	H	0.870252	-0.543636	-0.503113
H85	H	0.818621	-0.537821	-0.561869
H86	H	0.775205	-0.689814	-0.530009
H87	H	0.826829	-0.695610	-0.471237
H88	H	0.771576	-0.609918	-0.471336
C89	C	0.887899	-0.642570	-1.077939
C90	C	0.849951	-0.701086	-1.031847
C91	C	0.806563	-0.767940	-1.067047
H92	H	0.913708	-0.688192	-1.105516
H93	H	0.858390	-0.602598	-1.105499
H94	H	0.879457	-0.741055	-1.004298
H95	H	0.824128	-0.655492	-1.004269
H96	H	0.777054	-0.727968	-1.094607
H97	H	0.832378	-0.813555	-1.094622
H98	H	0.780806	-0.807644	-1.035779
H99	H	0.899715	-0.624457	-0.940230
C100	C	1.066441	-1.122078	-0.238098
C101	C	1.104375	-1.051021	-0.200163
C102	C	1.147709	-1.105489	-0.156867
H103	H	1.095968	-1.164599	-0.263973
H104	H	1.040573	-1.164696	-0.208576
H105	H	1.130241	-1.008422	-0.229681
H106	H	1.074867	-1.008498	-0.174274
H107	H	1.121841	-1.148106	-0.127346
H108	H	1.177231	-1.148008	-0.182748
H109	H	1.173448	-1.057286	-0.131119
H110	H	0.899680	-0.624514	-0.712707
C111	C	0.374207	-0.363819	-0.235965
C112	C	0.328112	-0.305241	-0.198115
C113	C	0.363309	-0.238256	-0.154815
H114	H	0.401798	-0.318242	-0.261832
H115	H	0.401753	-0.403699	-0.206389
H116	H	0.300578	-0.265363	-0.227688
H117	H	0.300520	-0.350790	-0.172234
H118	H	0.390855	-0.278136	-0.125239
H119	H	0.390898	-0.192686	-0.180688
H120	H	0.332039	-0.198510	-0.129125
H121	H	0.720536	-0.624841	-0.404529
H122	H	1.056795	-0.382096	-0.584519
H123	H	0.364776	-0.624865	-0.404560
C124	C	0.226908	-0.642865	-0.416392
C125	C	0.186369	-0.583786	-0.459858
C126	C	0.150996	-0.650523	-0.503174
H127	H	0.199259	-0.688367	-0.390532
H128	H	0.258066	-0.682701	-0.442163
H129	H	0.155215	-0.543967	-0.434090
H130	H	0.214002	-0.538287	-0.485733
H131	H	0.182154	-0.690359	-0.528945
H132	H	0.123350	-0.696021	-0.477308
H133	H	0.123491	-0.610447	-0.532675
C134	C	0.582543	-0.363959	-0.236048
C135	C	0.513076	-0.378305	-0.245289
C136	C	0.477586	-0.311503	-0.202104
H137	H	0.594061	-0.293723	-0.245991
H138	H	0.594067	-0.379164	-0.190537
H139	H	0.501557	-0.363092	-0.290789
H140	H	0.501538	-0.448526	-0.235341
H141	H	0.489109	-0.326708	-0.156593
H142	H	0.489108	-0.241271	-0.212051
H143	H	0.430448	-0.321234	-0.208363
H144	H	0.720502	-0.381997	-0.247740
C145	C	1.066209	-0.883408	-0.238054
C146	C	1.027848	-0.820857	-0.194654
C147	C	1.070986	-0.766086	-0.151333
H148	H	1.095657	-0.840679	-0.263914
H149	H	1.092040	-0.931420	-0.212237
H150	H	1.002029	-0.772850	-0.220469
H151	H	0.998402	-0.863559	-0.168779
H152	H	1.096816	-0.814098	-0.125515
H153	H	1.100431	-0.723364	-0.177198
H154	H	1.044964	-0.723646	-0.121877
C155	C	0.931362	-1.055300	-0.373180
C156	C	0.969674	-0.992565	-0.416563
C157	C	0.926494	-0.937829	-0.459870
H158	H	0.901881	-1.012700	-0.347309
H159	H	0.905569	-1.103334	-0.399011
H160	H	0.995456	-0.944537	-0.390735
H161	H	0.999154	-1.035140	-0.442449
H162	H	0.900701	-0.985863	-0.485701
H163	H	0.897015	-0.895235	-0.433993
H164	H	0.952483	-0.895265	-0.489314
H165	H	0.236499	-0.382043	-0.247776
