data_functionalizedCrystal
_audit_creation_method	'MofGen! by Chris Wilmer'
_symmetry_space_group_name_H-M	'P1'
_symmetry_Int_Tables_number	1
_symmetry_cell_setting	triclinic
loop_
_symmetry_equiv_pos_as_xyz
  x,y,z
_cell_length_a	11.792241
_cell_length_b	16.109301
_cell_length_c	15.186229
_cell_angle_alpha	89.996650
_cell_angle_beta	89.996105
_cell_angle_gamma	83.827448
loop_
_atom_site_label
_atom_site_type_symbol
_atom_site_fract_x
_atom_site_fract_y
_atom_site_fract_z
O1	O	0.145885	1.103817	-0.073229
O2	O	0.164040	0.861841	-0.073231
O3	O	-0.010259	0.988701	-0.073223
O4	O	0.320185	0.976957	-0.073236
O5	O	-0.010262	0.988692	0.073234
O6	O	0.164038	0.861832	0.073227
O7	O	0.145883	1.103809	0.073229
Zn8	Zn	0.154960	0.982819	0.096481
Zn9	Zn	0.154963	0.982830	-0.096483
O10	O	0.320182	0.976948	0.073221
C11	C	-0.052545	0.987959	0.000005
C12	C	-0.178539	0.985751	0.000004
C13	C	0.163304	0.830858	-0.000002
C14	C	0.161099	0.738552	-0.000003
C15	C	0.146619	1.134791	-0.000002
C16	C	0.148824	1.227097	-0.000007
C17	C	-0.409216	0.981691	-0.000011
C18	C	-0.280850	0.983947	-0.000003
C19	C	0.362468	0.977690	-0.000009
C20	C	0.488462	0.979898	-0.000014
N21	N	0.154957	0.982817	0.228174
C22	C	0.050525	1.448907	0.000001
C23	C	0.052605	1.535637	0.000004
C24	C	0.259406	1.516736	-0.000008
C25	C	0.257324	1.430007	-0.000005
C26	C	0.152880	1.396095	-0.000005
C27	C	0.157043	1.569554	-0.000005
C28	C	0.159299	1.663591	-0.000002
C29	C	0.150623	1.302053	-0.000006
N30	N	0.154957	0.982838	-0.228175
C31	C	0.077803	1.039011	0.453900
C32	C	0.077800	1.039013	0.546089
C33	C	0.232115	0.926639	0.546092
C34	C	0.232111	0.926633	0.453904
C35	C	0.154957	0.982824	0.407810
C36	C	0.154958	0.982832	0.592188
C37	C	0.154955	0.982835	0.692144
C38	C	0.154957	0.982820	0.307848
H39	H	-0.034520	1.421299	0.000003
H40	H	0.294939	0.880875	0.416376
O41	O	0.356790	1.378735	-0.000168
C42	C	0.532932	1.336075	-0.076026
C43	C	0.420326	1.394173	-0.075965
H44	H	0.584343	1.348547	-0.137291
H45	H	0.513569	1.268247	-0.076076
H46	H	0.584284	1.348459	-0.014710
H47	H	0.368918	1.381863	-0.137270
H48	H	0.439768	1.461982	-0.075868
O49	O	0.360828	1.549721	-0.000170
C50	C	0.483163	1.636714	-0.076031
C51	C	0.368273	1.599401	-0.075965
H52	H	0.489209	1.676902	-0.137294
H53	H	0.556010	1.584102	-0.076088
H54	H	0.489291	1.676810	-0.014713
H55	H	0.362034	1.559314	-0.137272
H56	H	0.295481	1.652052	-0.075861
H57	H	0.014978	1.084763	0.416372
O58	O	0.002813	1.093675	0.590724
C59	C	-0.150288	1.205102	0.580986
C60	C	-0.065404	1.143254	0.530329
H61	H	-0.205480	1.245191	0.532179
H62	H	-0.101329	1.246913	0.624115
H63	H	-0.206953	1.168941	0.624177
H64	H	-0.008717	1.179347	0.487091
H65	H	-0.114434	1.101444	0.487256
O66	O	0.306908	0.872029	0.590969
C67	C	0.331029	0.758576	0.695030
C68	C	0.246197	0.820385	0.644280
H69	H	0.281978	0.716793	0.738130
H70	H	0.387728	0.794684	0.738239
H71	H	0.386196	0.718451	0.646236
H72	H	0.190956	0.860525	0.693010
H73	H	0.189578	0.784226	0.601058
O74	O	-0.046928	1.586819	-0.000032
C75	C	-0.252265	1.596407	0.000028
C76	C	-0.139624	1.538349	0.000047
H77	H	-0.327239	1.557243	0.000111
H78	H	-0.256540	1.637472	-0.061278
H79	H	-0.256400	1.637497	0.061306
H80	H	-0.135414	1.497207	-0.061190
H81	H	-0.135396	1.497341	0.061393
