data_functionalizedCrystal
_audit_creation_method	'MofGen! by Chris Wilmer'
_symmetry_space_group_name_H-M	'P1'
_symmetry_Int_Tables_number	1
_symmetry_cell_setting	triclinic
loop_
_symmetry_equiv_pos_as_xyz
  x,y,z
_cell_length_a	14.971486
_cell_length_b	16.992695
_cell_length_c	13.448316
_cell_angle_alpha	89.993283
_cell_angle_beta	89.998199
_cell_angle_gamma	87.141176
loop_
_atom_site_label
_atom_site_type_symbol
_atom_site_fract_x
_atom_site_fract_y
_atom_site_fract_z
O1	O	1.194127	0.102190	-0.082578
O2	O	1.694127	0.602190	0.417422
O3	O	0.934587	0.114427	-0.082605
O4	O	1.434587	0.614427	0.417395
O5	O	1.063317	-0.005835	-0.082584
O6	O	1.563317	0.494165	0.417416
O7	O	1.065398	0.222452	-0.082599
O8	O	1.565398	0.722452	0.417401
O9	O	1.063299	-0.005843	0.082800
O10	O	1.563299	0.494157	0.582800
O11	O	0.934569	0.114420	0.082779
O12	O	1.434569	0.614420	0.582779
O13	O	1.194110	0.102182	0.082806
O14	O	1.694110	0.602182	0.582806
Cu15	Cu	1.064338	0.108300	0.097893
Cu16	Cu	1.564338	0.608300	0.597893
Cu17	Cu	1.064359	0.108309	-0.097692
Cu18	Cu	1.564359	0.608309	0.402308
O19	O	1.065380	0.222445	0.082785
O20	O	1.565380	0.722445	0.582785
C21	C	0.901215	0.113876	0.000083
C22	C	1.401215	0.613876	0.500083
C23	C	0.801803	0.112236	0.000073
C24	C	1.301803	0.612236	0.500073
C25	C	0.749541	0.182887	0.000070
C26	C	1.249541	0.682887	0.500070
C27	C	0.656133	0.181341	0.000085
C28	C	1.156133	0.681341	0.500085
C29	C	0.614988	0.109144	0.000096
C30	C	1.114988	0.609144	0.500096
C31	C	0.667257	0.038488	0.000102
C32	C	1.167257	0.538488	0.500102
C33	C	0.760663	0.040034	0.000095
C34	C	1.260663	0.540034	0.500095
C35	C	0.472568	0.035269	0.000116
C36	C	0.972568	0.535269	0.500116
C37	C	0.379155	0.033723	0.000122
C38	C	0.879155	0.533723	0.500122
C39	C	0.368038	0.176577	0.000106
C40	C	0.868038	0.676577	0.500106
C41	C	0.461445	0.178123	0.000099
C42	C	0.961445	0.678123	0.500099
C43	C	0.513707	0.107466	0.000103
C44	C	1.013707	0.607466	0.500103
C45	C	1.060631	-0.035054	0.000108
C46	C	1.560631	0.464946	0.500108
C47	C	1.052644	-0.122105	0.000107
C48	C	1.552644	0.377895	0.500107
C49	C	1.129708	-0.172274	0.000116
C50	C	1.629708	0.327726	0.500116
C51	C	1.122198	-0.254067	0.000106
C52	C	1.622198	0.245933	0.500106
C53	C	1.037623	-0.285691	0.000093
C54	C	1.537623	0.214309	0.500093
C55	C	0.960553	-0.235517	0.000081
C56	C	1.460553	0.264483	0.500081
C57	C	0.968064	-0.153724	0.000084
C58	C	1.468064	0.346276	0.500084
C59	C	1.006493	-0.529318	0.000076
C60	C	1.506493	-0.029318	0.500076
C61	C	0.998988	-0.611117	0.000076
C62	C	1.498988	-0.111117	0.500076
C63	C	1.160634	-0.629662	0.000099
C64	C	1.660634	-0.129662	0.500099
C65	C	1.168138	-0.547867	0.000108
C66	C	1.668138	-0.047867	0.500108
C67	C	1.091068	-0.497700	0.000090
C68	C	1.591068	0.002300	0.500090
N69	N	1.029945	-0.369297	0.000086
N70	N	1.529945	0.130703	0.500086
N71	N	1.098747	-0.414095	0.000091
N72	N	1.598747	0.085905	0.500091
C73	C	1.227482	0.102733	0.000115
C74	C	1.727482	0.602733	0.500115
C75	C	1.326894	0.104373	0.000119
C76	C	1.826894	0.604373	0.500119
C77	C	1.068066	0.251664	0.000091
C78	C	1.568066	0.751664	0.500091
C79	C	1.076053	0.338715	0.000085
C80	C	1.576053	0.838715	0.500085
N81	N	1.064329	0.108294	0.235457
N82	N	1.564329	0.608294	0.735457
N83	N	1.064374	0.108310	-0.235257
N84	N	1.564374	0.608310	0.264743
C85	C	1.121351	0.055064	0.287507
C86	C	1.621351	0.555064	0.787507
C87	C	1.121357	0.055063	0.391611
C88	C	1.621357	0.555063	0.891611
C89	C	1.064344	0.108297	0.443662
C90	C	1.564344	0.608297	0.943662
C91	C	1.007316	0.161530	0.391605
C92	C	1.507316	0.661530	0.891605
C93	C	1.007307	0.161526	0.287504
C94	C	1.507307	0.661526	0.787504
C95	C	1.007341	0.161535	0.608585
C96	C	1.507341	0.661535	1.108585
C97	C	1.007352	0.161540	0.712694
C98	C	1.507352	0.661540	1.212694
C99	C	1.121392	0.055072	0.712692
C100	C	1.621392	0.555072	1.212692
C101	C	1.121382	0.055068	0.608591
C102	C	1.621382	0.555068	1.108591
C103	C	1.064355	0.108302	0.556541
C104	C	1.564355	0.608302	1.056541
H105	H	0.803213	-0.017497	0.000097
H106	H	1.303213	0.482503	0.500097
H107	H	0.905310	-0.112878	0.000077
H108	H	1.405310	0.387122	0.500077
H109	H	0.930114	-0.636861	0.000082
H110	H	1.430114	-0.136861	0.500082
H111	H	1.167825	0.011727	0.755077
H112	H	1.667825	0.511727	1.255077
O113	O	0.945843	0.218938	0.768842
O114	O	1.445843	0.718938	1.268842
H115	H	0.906171	0.255942	0.715161
H116	H	1.406171	0.755942	1.215161
O117	O	0.945840	0.218954	0.552439
O118	O	1.445840	0.718954	1.052439
H119	H	0.906205	0.255979	0.606121
H120	H	1.406205	0.755979	1.106121
O121	O	0.945829	0.218955	0.447739
O122	O	1.445829	0.718955	0.947739
H123	H	0.900004	0.185891	0.495193
H124	H	1.400004	0.685891	0.995193
O125	O	0.622881	-0.039383	0.000124
O126	O	1.122881	0.460617	0.500124
H127	H	0.643479	-0.073340	-0.067275
H128	H	1.143479	0.426660	0.432725
H129	H	0.345658	-0.025067	0.000133
H130	H	0.845658	0.474933	0.500133
O131	O	1.182871	-0.002349	0.447738
O132	O	1.682871	0.497651	0.947738
H133	H	1.142509	-0.040529	0.495172
H134	H	1.642509	0.459471	0.995172
O135	O	1.182869	-0.002349	0.552443
O136	O	1.682869	0.497651	1.052443
H137	H	1.222518	-0.039371	0.606123
H138	H	1.722518	0.460629	1.106123
O139	O	0.945810	0.218942	0.231356
O140	O	1.445810	0.718942	0.731356
H141	H	0.906173	0.255965	0.285038
H142	H	1.406173	0.755965	0.785038
H143	H	1.198578	-0.146533	0.000132
H144	H	1.698578	0.353467	0.500132
O145	O	1.205316	-0.308180	0.000132
O146	O	1.705316	0.191820	0.500132
H147	H	1.265388	-0.272449	0.000159
H148	H	1.765388	0.227551	0.500159
H149	H	1.237008	-0.522126	0.000118
H150	H	1.737008	-0.022126	0.500118
H151	H	0.613586	0.238873	0.000081
H152	H	1.113586	0.738873	0.500081
O153	O	0.793919	0.260758	0.000067
O154	O	1.293919	0.760758	0.500067
H155	H	0.741881	0.309625	0.000081
H156	H	1.241881	0.809625	0.500081
H157	H	1.223380	-0.670517	0.000111
H158	H	1.723380	-0.170517	0.500111
H159	H	1.167781	0.011718	0.245134
H160	H	1.667781	0.511718	0.745134
O161	O	0.923372	-0.475213	0.000083
O162	O	1.423372	0.024787	0.500083
H163	H	0.863303	-0.510947	0.000092
H164	H	1.363303	-0.010947	0.500092
H165	H	0.494942	0.236912	0.000080
H166	H	0.994942	0.736912	0.500080
H167	H	0.325482	0.234108	0.000107
H168	H	0.825482	0.734108	0.500107
H169	H	0.891690	-0.261271	0.000065
H170	H	1.391690	0.238729	0.500065
H171	H	0.515117	-0.022267	0.000121
H172	H	1.015117	0.477733	0.500121
