data_functionalizedCrystal
_audit_creation_method	'MofGen! by Chris Wilmer'
_symmetry_space_group_name_H-M	'P1'
_symmetry_Int_Tables_number	1
_symmetry_cell_setting	triclinic
loop_
_symmetry_equiv_pos_as_xyz
  x,y,z
_cell_length_a	19.805407
_cell_length_b	19.121063
_cell_length_c	19.805398
_cell_angle_alpha	92.409806
_cell_angle_beta	89.986879
_cell_angle_gamma	92.469032
loop_
_atom_site_label
_atom_site_type_symbol
_atom_site_fract_x
_atom_site_fract_y
_atom_site_fract_z
Zn1	Zn	1.023190	-0.279623	-0.394203
Zn2	Zn	1.273190	-0.029623	-0.144203
Zn3	Zn	1.523190	0.220377	0.105797
Zn4	Zn	1.773190	0.470377	0.355797
Zn5	Zn	1.018285	-0.397078	-0.285838
Zn6	Zn	1.268285	-0.147078	-0.035838
Zn7	Zn	1.518285	0.102922	0.214162
Zn8	Zn	1.768285	0.352922	0.464162
Zn9	Zn	0.910016	-0.279645	-0.281028
Zn10	Zn	1.160016	-0.029645	-0.031028
Zn11	Zn	1.410016	0.220355	0.218972
Zn12	Zn	1.660016	0.470355	0.468972
Zn13	Zn	0.905138	-0.397038	-0.398983
Zn14	Zn	1.155138	-0.147038	-0.148983
Zn15	Zn	1.405138	0.102962	0.101017
Zn16	Zn	1.655138	0.352962	0.351017
O17	O	0.964157	-0.338346	-0.340013
O18	O	1.214157	-0.088346	-0.090013
O19	O	1.464157	0.161654	0.159987
O20	O	1.714157	0.411654	0.409987
O21	O	1.117255	-0.295211	-0.379840
O22	O	1.367255	-0.045211	-0.129840
O23	O	1.617255	0.204789	0.120160
O24	O	1.867255	0.454789	0.370160
O25	O	1.003913	-0.381526	-0.190484
O26	O	1.253913	-0.131526	0.059516
O27	O	1.503913	0.118474	0.309516
O28	O	1.753913	0.368474	0.559516
O29	O	0.929123	-0.181357	-0.292027
O30	O	1.179123	0.068643	-0.042027
O31	O	1.429123	0.318643	0.207973
O32	O	1.679123	0.568643	0.457973
O33	O	1.113652	-0.381505	-0.300225
O34	O	1.363652	-0.131505	-0.050225
O35	O	1.613652	0.118495	0.199775
O36	O	1.863652	0.368495	0.449775
O37	O	1.012271	-0.181342	-0.375176
O38	O	1.262271	0.068658	-0.125176
O39	O	1.512271	0.318658	0.124824
O40	O	1.762271	0.568658	0.374824
O41	O	0.924368	-0.295248	-0.186950
O42	O	1.174368	-0.045248	0.063050
O43	O	1.424368	0.204752	0.313050
O44	O	1.674368	0.454752	0.563050
O45	O	0.814653	-0.295210	-0.296663
O46	O	1.064653	-0.045210	-0.046663
O47	O	1.314653	0.204790	0.203337
O48	O	1.564653	0.454790	0.453337
O49	O	0.920808	-0.381437	-0.493064
O50	O	1.170808	-0.131437	-0.243064
O51	O	1.420808	0.118563	0.006936
O52	O	1.670808	0.368563	0.256936
O53	O	0.811069	-0.381458	-0.383323
O54	O	1.061069	-0.131458	-0.133323
O55	O	1.311069	0.118542	0.116677
O56	O	1.561069	0.368542	0.366677
O57	O	1.007541	-0.295173	-0.489552
O58	O	1.257541	-0.045173	-0.239552
O59	O	1.507541	0.204827	0.010448
O60	O	1.757541	0.454827	0.260448
O61	O	0.999182	-0.495357	-0.304860
O62	O	1.249182	-0.245357	-0.054860
O63	O	1.499182	0.004643	0.195140
O64	O	1.749182	0.254643	0.445140
O65	O	0.916053	-0.495328	-0.387987
O66	O	1.166053	-0.245328	-0.137987
O67	O	1.416053	0.004672	0.112013
O68	O	1.666053	0.254672	0.362013
C69	C	0.788302	-0.338333	-0.339990
C70	C	1.038302	-0.088333	-0.089990
C71	C	1.288302	0.161667	0.160010
C72	C	1.538302	0.411667	0.410010
C73	C	0.713069	-0.338344	-0.339997
C74	C	0.963069	-0.088344	-0.089997
C75	C	1.213069	0.161656	0.160003
C76	C	1.463069	0.411656	0.410003
C77	C	0.675874	-0.383321	-0.385054
C78	C	0.925874	-0.133321	-0.135054
C79	C	1.175874	0.116679	0.114946
C80	C	1.425874	0.366679	0.364946
C81	C	0.605185	-0.383322	-0.385064
C82	C	0.855185	-0.133322	-0.135064
C83	C	1.105185	0.116678	0.114936
C84	C	1.355185	0.366678	0.364936
C85	C	0.571694	-0.338349	-0.340013
C86	C	0.821694	-0.088349	-0.090013
C87	C	1.071694	0.161651	0.159987
C88	C	1.321694	0.411651	0.409987
C89	C	0.608894	-0.293367	-0.294954
C90	C	0.858894	-0.043367	-0.044954
C91	C	1.108894	0.206633	0.205046
C92	C	1.358894	0.456633	0.455046
C93	C	0.679582	-0.293363	-0.294948
C94	C	0.929582	-0.043363	-0.044948
C95	C	1.179582	0.206637	0.205052
C96	C	1.429582	0.456637	0.455052
C97	C	0.323820	-0.293383	-0.294977
C98	C	0.573820	-0.043383	-0.044977
C99	C	0.823820	0.206617	0.205023
C100	C	1.073820	0.456617	0.455023
C101	C	0.253128	-0.293392	-0.294985
C102	C	0.503128	-0.043392	-0.044985
C103	C	0.753128	0.206608	0.205015
C104	C	1.003128	0.456608	0.455015
C105	C	0.249424	-0.383342	-0.385093
C106	C	0.499424	-0.133342	-0.135093
C107	C	0.749424	0.116658	0.114907
C108	C	0.999424	0.366658	0.364907
C109	C	0.320111	-0.383338	-0.385087
C110	C	0.570111	-0.133338	-0.135087
C111	C	0.820111	0.116662	0.114913
C112	C	1.070111	0.366662	0.364913
C113	C	0.357306	-0.338353	-0.340031
C114	C	0.607306	-0.088353	-0.090031
C115	C	0.857306	0.161647	0.159969
C116	C	1.107306	0.411647	0.409969
C117	C	0.433954	-0.338352	-0.340022
C118	C	0.683954	-0.088352	-0.090022
C119	C	0.933954	0.161648	0.159978
C120	C	1.183954	0.411648	0.409978
C121	C	0.495046	-0.338354	-0.340018
C122	C	0.745046	-0.088354	-0.090018
C123	C	0.995046	0.161646	0.159982
C124	C	1.245046	0.411646	0.409982
C125	C	0.956574	-0.520827	-0.347479
C126	C	1.206574	-0.270827	-0.097479
C127	C	1.456574	-0.020827	0.152521
C128	C	1.706574	0.229173	0.402521
C129	C	0.953392	-0.598893	-0.350696
C130	C	1.203392	-0.348893	-0.100696
C131	C	1.453392	-0.098893	0.149304
C132	C	1.703392	0.151107	0.399304
C133	C	0.995212	-0.635560	-0.308963
C134	C	1.245212	-0.385560	-0.058963
C135	C	1.495212	-0.135560	0.191037
C136	C	1.745212	0.114440	0.441037
C137	C	0.992223	-0.708912	-0.311992
C138	C	1.242223	-0.458912	-0.061992
C139	C	1.492223	-0.208912	0.188008
C140	C	1.742223	0.041088	0.438008
C141	C	0.947411	-0.745594	-0.356751
C142	C	1.197411	-0.495594	-0.106751
C143	C	1.447411	-0.245594	0.143249
C144	C	1.697411	0.004406	0.393249
C145	C	0.905590	-0.708922	-0.398489
C146	C	1.155590	-0.458922	-0.148489
C147	C	1.405590	-0.208922	0.101511
C148	C	1.655590	0.041078	0.351511
C149	C	0.908582	-0.635572	-0.395462
C150	C	1.158582	-0.385572	-0.145462
C151	C	1.408582	-0.135572	0.104538
C152	C	1.658582	0.114428	0.354538
C153	C	0.936211	-0.967064	-0.368055
C154	C	1.186211	-0.717064	-0.118055
C155	C	1.436211	-0.467064	0.131945
C156	C	1.686211	-0.217064	0.381945
C157	C	0.933220	-1.040419	-0.371077
C158	C	1.183220	-0.790419	-0.121077
C159	C	1.433220	-0.540419	0.128923
C160	C	1.683220	-0.290419	0.378923
C161	C	1.019855	-1.040404	-0.284581
C162	C	1.269855	-0.790404	-0.034581
C163	C	1.519855	-0.540404	0.215419
C164	C	1.769855	-0.290404	0.465419
C165	C	1.022841	-0.967053	-0.281556
C166	C	1.272841	-0.717053	-0.031556
C167	C	1.522841	-0.467053	0.218444
C168	C	1.772841	-0.217053	0.468444
C169	C	0.981022	-0.930387	-0.323296
C170	C	1.231022	-0.680387	-0.073296
C171	C	1.481022	-0.430387	0.176704
C172	C	1.731022	-0.180387	0.426704
C173	C	0.944353	-0.820571	-0.359847
C174	C	1.194353	-0.570571	-0.109847
C175	C	1.444353	-0.320571	0.140153
C176	C	1.694353	-0.070571	0.390153
C177	C	0.984084	-0.855411	-0.320203
C178	C	1.234084	-0.605411	-0.070203
C179	C	1.484084	-0.355411	0.179797
C180	C	1.734084	-0.105411	0.429797
C181	C	1.140699	-0.338360	-0.340036
C182	C	1.390699	-0.088360	-0.090036
C183	C	1.640699	0.161640	0.159964
C184	C	1.890699	0.411640	0.409964
C185	C	1.215931	-0.338366	-0.340045
C186	C	1.465931	-0.088366	-0.090045
C187	C	1.715931	0.161634	0.159955
C188	C	1.965931	0.411634	0.409955
C189	C	0.964177	-0.338299	-0.516554
C190	C	1.214177	-0.088299	-0.266554
C191	C	1.464177	0.161701	-0.016554
C192	C	1.714177	0.411701	0.233446
C193	C	0.964186	-0.338278	-0.591785
C194	C	1.214186	-0.088278	-0.341785
C195	C	1.464186	0.161722	-0.091785
C196	C	1.714186	0.411722	0.158215
C197	C	0.971788	-0.155153	-0.332532
C198	C	1.221788	0.094847	-0.082532
C199	C	1.471788	0.344847	0.167468
C200	C	1.721788	0.594847	0.417468
C201	C	0.975040	-0.077087	-0.329344
C202	C	1.225040	0.172913	-0.079344
C203	C	1.475040	0.422913	0.170656
C204	C	1.725040	0.672913	0.420656
C205	C	1.005716	-0.383091	-1.055409
C206	C	1.255716	-0.133091	-0.805409
C207	C	1.505716	0.116909	-0.555409
C208	C	1.755716	0.366909	-0.305409
C209	C	1.005697	-0.383110	-0.984721
C210	C	1.255697	-0.133110	-0.734721
C211	C	1.505697	0.116890	-0.484721
C212	C	1.755697	0.366890	-0.234721
C213	C	0.964273	-0.338199	-0.947543
C214	C	1.214273	-0.088199	-0.697543
C215	C	1.464273	0.161801	-0.447543
C216	C	1.714273	0.411801	-0.197543
C217	C	0.922861	-0.293271	-0.981057
C218	C	1.172861	-0.043271	-0.731057
C219	C	1.422861	0.206729	-0.481057
C220	C	1.672861	0.456729	-0.231057
C221	C	0.922878	-0.293256	-1.051744
C222	C	1.172878	-0.043256	-0.801744
C223	C	1.422878	0.206744	-0.551744
C224	C	1.672878	0.456744	-0.301744
C225	C	0.922793	-0.293331	-0.695986
C226	C	1.172793	-0.043331	-0.445986
C227	C	1.422793	0.206669	-0.195986
C228	C	1.672793	0.456669	0.054014
C229	C	0.922782	-0.293348	-0.625295
C230	C	1.172782	-0.043348	-0.375295
C231	C	1.422782	0.206652	-0.125295
C232	C	1.672782	0.456652	0.124705
C233	C	1.005612	-0.383186	-0.628964
C234	C	1.255612	-0.133186	-0.378964
C235	C	1.505612	0.116814	-0.128964
C236	C	1.755612	0.366814	0.121036
C237	C	1.005629	-0.383171	-0.699650
C238	C	1.255629	-0.133171	-0.449650
C239	C	1.505629	0.116829	-0.199650
C240	C	1.755629	0.366829	0.050350
C241	C	0.964215	-0.338245	-0.733158
C242	C	1.214215	-0.088245	-0.483158
C243	C	1.464215	0.161755	-0.233158
C244	C	1.714215	0.411755	0.016842
C245	C	0.964235	-0.338226	-0.809806
C246	C	1.214235	-0.088226	-0.559806
C247	C	1.464235	0.161774	-0.309806
C248	C	1.714235	0.411774	-0.059806
C249	C	0.964256	-0.338214	-0.870897
C250	C	1.214256	-0.088214	-0.620897
C251	C	1.464256	0.161786	-0.370897
C252	C	1.714256	0.411786	-0.120897
C253	C	0.964178	-0.338343	-0.164157
C254	C	1.214178	-0.088343	0.085843
C255	C	1.464178	0.161657	0.335843
C256	C	1.714178	0.411657	0.585843
C257	C	0.964309	-0.338165	-0.088918
C258	C	1.214309	-0.088165	0.161082
C259	C	1.464309	0.161835	0.411082
C260	C	1.714309	0.411835	0.661082
H261	H	0.225861	-0.256765	-0.258298
H262	H	0.475861	-0.006765	-0.008298
H263	H	0.725861	0.243235	0.241702
H264	H	0.975861	0.493235	0.491702
Cl265	Cl	1.040420	-0.809295	-0.263939
Cl266	Cl	1.290420	-0.559295	-0.013939
Cl267	Cl	1.540420	-0.309295	0.236061
Cl268	Cl	1.790420	-0.059295	0.486061
H269	H	1.039406	-0.419702	-0.957442
H270	H	1.289406	-0.169702	-0.707442
H271	H	1.539406	0.080298	-0.457442
H272	H	1.789406	0.330298	-0.207442
H273	H	0.889130	-0.256707	-0.950781
H274	H	1.139130	-0.006707	-0.700781
H275	H	1.389130	0.243293	-0.450781
H276	H	1.639130	0.493293	-0.200781
Cl277	Cl	1.079188	-0.920943	-0.225294
Cl278	Cl	1.329188	-0.670943	0.024706
Cl279	Cl	1.579188	-0.420943	0.274706
Cl280	Cl	1.829188	-0.170943	0.524706
H281	H	0.896737	-1.070284	-0.407537
H282	H	1.146737	-0.820284	-0.157537
H283	H	1.396737	-0.570284	0.092463
H284	H	1.646737	-0.320284	0.342463
Cl285	Cl	0.870701	-0.236885	-0.578557
Cl286	Cl	1.120701	0.013115	-0.328557
Cl287	Cl	1.370701	0.263115	-0.078557
Cl288	Cl	1.620701	0.513115	0.171443
H289	H	0.574904	-0.419948	-0.421753
H290	H	0.824904	-0.169948	-0.171753
H291	H	1.074904	0.080052	0.078247
H292	H	1.324904	0.330052	0.328247
H293	H	1.039332	-0.419768	-0.601673
H294	H	1.289332	-0.169768	-0.351673
H295	H	1.539332	0.080232	-0.101673
H296	H	1.789332	0.330232	0.148327
H297	H	0.219132	-0.419968	-0.421782
H298	H	0.469132	-0.169968	-0.171782
H299	H	0.719132	0.080032	0.078218
H300	H	0.969132	0.330032	0.328218
Cl301	Cl	0.362211	-0.439880	-0.441723
Cl302	Cl	0.612211	-0.189880	-0.191723
Cl303	Cl	0.862211	0.060120	0.058277
Cl304	Cl	1.112211	0.310120	0.308277
Cl305	Cl	1.057707	-0.439632	-0.746384
Cl306	Cl	1.307707	-0.189632	-0.496384
Cl307	Cl	1.557707	0.060368	-0.246384
Cl308	Cl	1.807707	0.310368	0.003616
H309	H	0.709866	-0.256734	-0.258261
H310	H	0.959866	-0.006734	-0.008261
H311	H	1.209866	0.243266	0.241739
H312	H	1.459866	0.493266	0.491739
Cl313	Cl	0.870824	-0.236771	-1.093869
Cl314	Cl	1.120824	0.013229	-0.843869
Cl315	Cl	1.370824	0.263229	-0.593869
Cl316	Cl	1.620824	0.513229	-0.343869
H317	H	0.354095	-0.256759	-0.258284
H318	H	0.604095	-0.006759	-0.008284
H319	H	0.854095	0.243241	0.241716
H320	H	1.104095	0.493241	0.491716
Cl321	Cl	1.057799	-0.439551	-1.102140
Cl322	Cl	1.307799	-0.189551	-0.852140
Cl323	Cl	1.557799	0.060449	-0.602140
Cl324	Cl	1.807799	0.310449	-0.352140
Cl325	Cl	1.051546	-0.589452	-0.252687
Cl326	Cl	1.301546	-0.339452	-0.002687
Cl327	Cl	1.551546	-0.089452	0.247313
Cl328	Cl	1.801546	0.160548	0.497313
Cl329	Cl	0.717971	-0.439865	-0.441691
Cl330	Cl	0.967971	-0.189865	-0.191691
Cl331	Cl	1.217971	0.060135	0.058309
Cl332	Cl	1.467971	0.310135	0.308309
Cl333	Cl	0.566790	-0.236825	-0.238322
Cl334	Cl	0.816790	0.013175	0.011678
Cl335	Cl	1.066790	0.263175	0.261678
Cl336	Cl	1.316790	0.513175	0.511678
H337	H	1.026277	-0.738763	-0.278008
H338	H	1.276277	-0.488763	-0.028008
H339	H	1.526277	-0.238763	0.221992
H340	H	1.776277	0.011237	0.471992
Cl341	Cl	1.072428	-1.086503	-0.232116
Cl342	Cl	1.322428	-0.836503	0.017884
Cl343	Cl	1.572428	-0.586503	0.267884
Cl344	Cl	1.822428	-0.336503	0.517884
Cl345	Cl	0.883637	-0.920979	-0.420528
Cl346	Cl	1.133637	-0.670979	-0.170528
Cl347	Cl	1.383637	-0.420979	0.079472
Cl348	Cl	1.633637	-0.170979	0.329472
Cl349	Cl	0.856009	-0.589475	-0.447931
Cl350	Cl	1.106009	-0.339475	-0.197931
Cl351	Cl	1.356009	-0.089475	0.052069
Cl352	Cl	1.606009	0.160525	0.302069
Cl353	Cl	0.849258	-0.755037	-0.454762
Cl354	Cl	1.099258	-0.505037	-0.204762
Cl355	Cl	1.349258	-0.255037	0.045238
Cl356	Cl	1.599258	-0.005037	0.295238
Cl357	Cl	0.888019	-0.866692	-0.416114
Cl358	Cl	1.138019	-0.616692	-0.166114
Cl359	Cl	1.388019	-0.366692	0.083886
Cl360	Cl	1.638019	-0.116692	0.333886
H361	H	0.889070	-0.256751	-0.723259
H362	H	1.139070	-0.006751	-0.473259
H363	H	1.389070	0.243249	-0.223259
H364	H	1.639070	0.493249	0.026741
