data_functionalizedCrystal
_audit_creation_method	'MofGen! by Chris Wilmer'
_symmetry_space_group_name_H-M	'P1'
_symmetry_Int_Tables_number	1
_symmetry_cell_setting	triclinic
loop_
_symmetry_equiv_pos_as_xyz
  x,y,z
_cell_length_a	23.532355
_cell_length_b	23.532407
_cell_length_c	22.610064
_cell_angle_alpha	89.995564
_cell_angle_beta	89.997644
_cell_angle_gamma	82.838123
loop_
_atom_site_label
_atom_site_type_symbol
_atom_site_fract_x
_atom_site_fract_y
_atom_site_fract_z
O1	O	0.755283	0.068986	-0.049115
O2	O	1.088616	0.402320	0.284218
O3	O	1.421949	0.735653	0.617552
O4	O	0.589415	0.079020	-0.049135
O5	O	0.922748	0.412354	0.284198
O6	O	1.256082	0.745687	0.617531
O7	O	0.677351	-0.008929	-0.049108
O8	O	1.010684	0.324404	0.284225
O9	O	1.344017	0.657737	0.617559
O10	O	0.667347	0.156936	-0.049142
O11	O	1.000681	0.490269	0.284191
O12	O	1.334014	0.823603	0.617524
O13	O	0.677335	-0.008916	0.049261
O14	O	1.010668	0.324417	0.382595
O15	O	1.344002	0.657750	0.715928
O16	O	0.589400	0.079033	0.049234
O17	O	0.922733	0.412367	0.382567
O18	O	1.256066	0.745700	0.715901
O19	O	0.755267	0.068999	0.049254
O20	O	1.088601	0.402333	0.382588
O21	O	1.421934	0.735666	0.715921
Zn22	Zn	0.672331	0.074018	0.064862
Zn23	Zn	1.005664	0.407352	0.398196
Zn24	Zn	1.338998	0.740685	0.731529
Zn25	Zn	0.672351	0.074001	-0.064743
Zn26	Zn	1.005685	0.407335	0.268590
Zn27	Zn	1.339018	0.740668	0.601923
O28	O	0.667332	0.156949	0.049227
O29	O	1.000665	0.490282	0.382560
O30	O	1.333998	0.823616	0.715894
C31	C	0.568191	0.078776	0.000047
C32	C	0.901524	0.412109	0.333380
C33	C	1.234857	0.745443	0.666714
C34	C	0.504972	0.078022	0.000040
C35	C	0.838305	0.411355	0.333373
C36	C	1.171639	0.744689	0.666707
C37	C	0.677088	-0.030139	0.000080
C38	C	1.010421	0.303195	0.333413
C39	C	1.343755	0.636528	0.666746
C40	C	0.676322	-0.093356	0.000089
C41	C	1.009656	0.239978	0.333422
C42	C	1.342989	0.573311	0.666755
C43	C	0.112950	0.073291	0.053687
C44	C	0.446283	0.406624	0.387020
C45	C	0.779617	0.739958	0.720353
C46	C	0.053550	0.072573	0.053689
C47	C	0.386884	0.405907	0.387023
C48	C	0.720217	0.739240	0.720356
O49	O	0.022825	0.072189	0.099291
O50	O	0.356158	0.405522	0.432625
O51	O	0.689491	0.738856	0.765958
N52	N	0.023850	0.072211	0.000068
N53	N	0.357184	0.405544	0.333402
N54	N	0.690517	0.738877	0.666735
C55	C	0.053554	0.072560	-0.053558
C56	C	0.386887	0.405893	0.279775
C57	C	0.720220	0.739226	0.613108
O58	O	0.022837	0.072185	-0.099167
O59	O	0.356171	0.405518	0.234167
O60	O	0.689504	0.738851	0.567500
C61	C	0.112953	0.073273	-0.053560
C62	C	0.446286	0.406606	0.279773
C63	C	0.779619	0.739940	0.613107
C64	C	0.142649	0.073641	0.000064
C65	C	0.475982	0.406975	0.333398
C66	C	0.809315	0.740308	0.666731
C67	C	0.142646	0.073659	0.107307
C68	C	0.475979	0.406992	0.440640
C69	C	0.809313	0.740325	0.773973
C70	C	0.202041	0.074377	0.107304
C71	C	0.535375	0.407711	0.440637
C72	C	0.868708	0.741044	0.773971
C73	C	0.231740	0.074728	0.053681
C74	C	0.565074	0.408061	0.387015
C75	C	0.898407	0.741395	0.720348
C76	C	0.202044	0.074360	0.000062
C77	C	0.535377	0.407693	0.333395
C78	C	0.868711	0.741027	0.666728
C79	C	0.142655	0.073618	-0.107186
C80	C	0.475989	0.406951	0.226147
C81	C	0.809322	0.740284	0.559481
C82	C	0.202058	0.074331	-0.107183
C83	C	0.535392	0.407664	0.226150
C84	C	0.868725	0.740997	0.559483
C85	C	0.231754	0.074699	-0.053559
C86	C	0.565088	0.408033	0.279774
C87	C	0.898421	0.741366	0.613108
C88	C	0.291138	0.075429	-0.053564
C89	C	0.624471	0.408762	0.279770
C90	C	0.957805	0.742096	0.613103
N91	N	0.320838	0.075792	0.000057
N92	N	0.654171	0.409125	0.333390
N93	N	0.987505	0.742458	0.666724
C94	C	0.291139	0.075441	0.053680
C95	C	0.624472	0.408775	0.387013
C96	C	0.957806	0.742108	0.720346
C97	C	-0.071188	0.071061	-0.053550
C98	C	0.262146	0.404394	0.279783
C99	C	0.595479	0.737727	0.613116
C100	C	-0.130586	0.070351	-0.053549
C101	C	0.202747	0.403685	0.279784
C102	C	0.536081	0.737018	0.613118
C103	C	-0.130585	0.070364	0.053699
C104	C	0.202748	0.403697	0.387032
C105	C	0.536081	0.737031	0.720365
C106	C	-0.071186	0.071077	0.053697
C107	C	0.262147	0.404411	0.387030
C108	C	0.595480	0.737744	0.720363
C109	C	-0.041488	0.071423	0.000070
C110	C	0.291846	0.404757	0.333404
C111	C	0.625179	0.738090	0.666737
C112	C	0.415873	0.076951	0.053670
C113	C	0.749207	0.410284	0.387003
C114	C	1.082540	0.743617	0.720337
C115	C	0.475273	0.077671	0.053663
C116	C	0.808607	0.411005	0.386996
C117	C	1.141940	0.744338	0.720329
C118	C	0.475268	0.077656	-0.053585
C119	C	0.808601	0.410989	0.279749
C120	C	1.141934	0.744322	0.613082
C121	C	0.415872	0.076938	-0.053578
C122	C	0.749206	0.410271	0.279756
C123	C	1.082539	0.743604	0.613089
C124	C	0.386177	0.076583	0.000055
C125	C	0.719510	0.409917	0.333388
C126	C	1.052843	0.743250	0.666721
O127	O	0.321902	0.075812	-0.099142
O128	O	0.655235	0.409145	0.234191
O129	O	0.988568	0.742478	0.567524
O130	O	0.321864	0.075809	0.099280
O131	O	0.655197	0.409142	0.432614
O132	O	0.988530	0.742475	0.765947
C133	C	0.621125	-0.359513	0.000045
C134	C	0.954459	-0.026179	0.333378
C135	C	1.287792	0.307154	0.666712
C136	C	0.621837	-0.300113	0.000050
C137	C	0.955170	0.033221	0.333383
C138	C	1.288504	0.366554	0.666716
O139	O	0.578050	-0.263360	0.000025
O140	O	0.911383	0.069973	0.333359
O141	O	1.244717	0.403307	0.666692
N142	N	0.674114	-0.277496	0.000063
N143	N	1.007448	0.055837	0.333396
N144	N	1.340781	0.389170	0.666729
C145	C	0.725684	-0.314283	0.000065
C146	C	1.059017	0.019050	0.333399
C147	C	1.392351	0.352383	0.666732
O148	O	0.770216	-0.289592	0.000076
O149	O	1.103549	0.043741	0.333410
O150	O	1.436882	0.377075	0.666743
C151	C	0.724972	-0.373682	0.000056
C152	C	1.058305	-0.040349	0.333390
C153	C	1.391639	0.292984	0.666723
C154	C	0.672691	-0.396295	0.000049
C155	C	1.006024	-0.062962	0.333383
C156	C	1.339358	0.270371	0.666716
C157	C	0.568849	-0.382126	0.000037
C158	C	0.902182	-0.048793	0.333370
C159	C	1.235515	0.284540	0.666704
C160	C	0.568137	-0.441522	0.000033
C161	C	0.901471	-0.108189	0.333367
C162	C	1.234804	0.225144	0.666700
C163	C	0.619703	-0.478305	0.000038
C164	C	0.953036	-0.144972	0.333371
C165	C	1.286370	0.188362	0.666705
C166	C	0.671980	-0.455691	0.000046
C167	C	1.005313	-0.122358	0.333379
C168	C	1.338646	0.210975	0.666712
C169	C	0.776541	-0.410468	0.000055
C170	C	1.109874	-0.077135	0.333388
C171	C	1.443208	0.256198	0.666721
C172	C	0.775824	-0.469871	0.000045
C173	C	1.109158	-0.136537	0.333379
C174	C	1.442491	0.196796	0.666712
C175	C	0.723543	-0.492484	0.000038
C176	C	1.056877	-0.159150	0.333372
C177	C	1.390210	0.174183	0.666705
C178	C	0.722834	-0.551870	0.000047
C179	C	1.056167	-0.218536	0.333380
C180	C	1.389501	0.114797	0.666713
N181	N	0.670556	-0.574486	0.000033
N182	N	1.003890	-0.241153	0.333367
N183	N	1.337223	0.092180	0.666700
C184	C	0.618991	-0.537704	0.000029
C185	C	0.952324	-0.204370	0.333362
C186	C	1.285658	0.128963	0.666696
C187	C	0.727175	-0.189541	0.000083
C188	C	1.060509	0.143792	0.333416
C189	C	1.393842	0.477126	0.666750
C190	C	0.727888	-0.130143	0.000096
C191	C	1.061221	0.203190	0.333429
C192	C	1.394555	0.536523	0.666763
C193	C	0.624041	-0.115977	0.000079
C194	C	0.957374	0.217357	0.333412
C195	C	1.290707	0.550690	0.666746
C196	C	0.623329	-0.175376	0.000070
C197	C	0.956662	0.157958	0.333404
C198	C	1.289995	0.491291	0.666737
C199	C	0.674898	-0.212158	0.000070
C200	C	1.008231	0.121176	0.333403
C201	C	1.341564	0.454509	0.666736
C202	C	0.617501	-0.662440	0.000022
C203	C	0.950835	-0.329107	0.333355
C204	C	1.284168	0.004226	0.666689
C205	C	0.616795	-0.721842	0.000021
C206	C	0.950128	-0.388509	0.333354
C207	C	1.283461	-0.055176	0.666688
C208	C	0.720642	-0.736004	0.000035
C209	C	1.053975	-0.402670	0.333368
C210	C	1.387308	-0.069337	0.666701
C211	C	0.721349	-0.676607	0.000039
C212	C	1.054682	-0.343274	0.333372
C213	C	1.388015	-0.009940	0.666706
C214	C	0.669774	-0.639826	0.000031
C215	C	1.003107	-0.306493	0.333364
C216	C	1.336440	0.026841	0.666697
O217	O	0.766598	-0.588657	0.000068
O218	O	1.099931	-0.255324	0.333402
O219	O	1.433265	0.078010	0.666735
O220	O	0.574467	-0.562403	0.000010
O221	O	0.907800	-0.229070	0.333343
O222	O	1.241133	0.104263	0.666677
C223	C	0.776492	0.069244	0.000071
C224	C	1.109825	0.402577	0.333404
C225	C	1.443158	0.735910	0.666737
C226	C	0.839710	0.069998	0.000074
C227	C	1.173044	0.403331	0.333407
C228	C	1.506377	0.736664	0.666741
C229	C	0.667594	0.178158	0.000038
C230	C	1.000928	0.511492	0.333371
C231	C	1.334261	0.844825	0.666705
C232	C	0.668360	0.241375	0.000025
C233	C	1.001693	0.574709	0.333359
C234	C	1.335027	0.908042	0.666692
N235	N	0.672321	0.074029	0.153315
N236	N	1.005654	0.407363	0.486648
N237	N	1.338988	0.740696	0.819981
N238	N	0.672366	0.073986	-0.153196
N239	N	1.005699	0.407319	0.180138
N240	N	1.339032	0.740652	0.513471
C241	C	0.711291	0.035063	0.561968
C242	C	1.044624	0.368397	0.895302
C243	C	1.377958	0.701730	1.228635
C244	C	0.711294	0.035059	0.623888
C245	C	1.044627	0.368392	0.957222
C246	C	1.377961	0.701726	1.290555
O247	O	0.744403	0.001937	0.655917
O248	O	1.077736	0.335270	0.989251
O249	O	1.411070	0.668604	1.322584
N250	N	0.672351	0.073990	0.654852
N251	N	1.005684	0.407323	0.988185
N252	N	1.339018	0.740656	1.321519
C253	C	0.633399	0.112923	0.623893
C254	C	0.966732	0.446256	0.957226
C255	C	1.300065	0.779590	1.290559
O256	O	0.600275	0.146036	0.655915
O257	O	0.933608	0.479369	0.989249
O258	O	1.266941	0.812702	1.322582
C259	C	0.633394	0.112924	0.561974
C260	C	0.966727	0.446257	0.895307
C261	C	1.300060	0.779591	1.228640
C262	C	0.672343	0.073995	0.531013
C263	C	1.005676	0.407328	0.864347
C264	C	1.339010	0.740661	1.197680
C265	C	0.750237	-0.003863	0.531008
C266	C	1.083570	0.329470	0.864341
C267	C	1.416903	0.662803	1.197674
C268	C	0.750234	-0.003858	0.469092
C269	C	1.083568	0.329475	0.802425
C270	C	1.416901	0.662808	1.135759
C271	C	0.711286	0.035073	0.438137
C272	C	1.044620	0.368407	0.771470
C273	C	1.377953	0.701740	1.104804
C274	C	0.672341	0.074000	0.469098
C275	C	1.005674	0.407333	0.802431
C276	C	1.339007	0.740666	1.135764
C277	C	0.594439	0.151854	0.531016
C278	C	0.927773	0.485187	0.864349
C279	C	1.261106	0.818521	1.197682
C280	C	0.594437	0.151851	0.469093
C281	C	0.927770	0.485185	0.802426
C282	C	1.261104	0.818518	1.135759
C283	C	0.633386	0.112922	0.438132
C284	C	0.966720	0.446256	0.771465
C285	C	1.300053	0.779589	1.104799
C286	C	0.633390	0.112936	0.376227
C287	C	0.966723	0.446269	0.709560
C288	C	1.300057	0.779603	1.042894
N289	N	0.672333	0.074006	0.345263
N290	N	1.005666	0.407339	0.678597
N291	N	1.339000	0.740672	1.011930
C292	C	0.711281	0.035074	0.376218
C293	C	1.044614	0.368407	0.709552
C294	C	1.377948	0.701741	1.042885
C295	C	0.633412	0.112917	0.753926
C296	C	0.966745	0.446251	1.087260
C297	C	1.300079	0.779584	1.420593
C298	C	0.633419	0.112919	0.815844
C299	C	0.966753	0.446253	1.149177
C300	C	1.300086	0.779586	1.482510
C301	C	0.711314	0.035055	0.815835
C302	C	1.044647	0.368388	1.149169
C303	C	1.377981	0.701721	1.482502
C304	C	0.711309	0.035056	0.753916
C305	C	1.044642	0.368389	1.087250
C306	C	1.377975	0.701722	1.420583
C307	C	0.672355	0.073987	0.722962
C308	C	1.005688	0.407320	1.056296
C309	C	1.339022	0.740653	1.389629
C310	C	0.711273	0.035088	0.246191
C311	C	1.044607	0.368421	0.579524
C312	C	1.377940	0.701755	0.912858
C313	C	0.711269	0.035098	0.184270
C314	C	1.044602	0.368431	0.517603
C315	C	1.377936	0.701765	0.850937
C316	C	0.633373	0.112960	0.184284
C317	C	0.966706	0.446294	0.517617
C318	C	1.300040	0.779627	0.850951
C319	C	0.633379	0.112953	0.246200
C320	C	0.966712	0.446286	0.579533
C321	C	1.300046	0.779619	0.912866
C322	C	0.672331	0.074012	0.277152
C323	C	1.005665	0.407345	0.610485
C324	C	1.338998	0.740678	0.943818
O325	O	0.600296	0.146040	0.344159
O326	O	0.933630	0.479373	0.677492
O327	O	1.266963	0.812706	1.010825
O328	O	0.744395	0.001962	0.344188
O329	O	1.077728	0.335295	0.677521
O330	O	1.411061	0.668629	1.010855
H331	H	0.499449	0.077973	0.097332
H332	H	0.832782	0.411307	0.430665
H333	H	1.166116	0.744640	0.763999
H334	H	-0.154777	0.070078	0.097361
H335	H	0.178557	0.403411	0.430694
H336	H	0.511890	0.736744	0.764028
H337	H	-0.047012	0.071348	-0.097222
H338	H	0.286322	0.404681	0.236111
H339	H	0.619655	0.738014	0.569445
C340	C	0.560766	-0.621990	0.000017
C341	C	0.894099	-0.288656	0.333350
C342	C	1.227433	0.044677	0.666683
N343	N	0.518033	-0.591523	0.000017
N344	N	0.851366	-0.258189	0.333350
N345	N	1.184700	0.075144	0.666684
C346	C	0.383216	0.076566	0.112668
C347	C	0.716549	0.409900	0.446002
C348	C	1.049883	0.743233	0.779335
N349	N	0.358618	0.076282	0.157106
N350	N	0.691952	0.409615	0.490439
N351	N	1.025285	0.742949	0.823772
H352	H	0.601668	0.144658	0.271408
H353	H	0.935002	0.477991	0.604741
H354	H	1.268335	0.811325	0.938075
C355	C	-0.163246	0.069951	-0.112540
C356	C	0.170087	0.403284	0.220793
C357	C	0.503421	0.736617	0.554127
N358	N	-0.187842	0.069644	-0.156974
N359	N	0.145491	0.402978	0.176359
N360	N	0.478824	0.736311	0.509693
C361	C	0.590583	0.155773	0.719882
C362	C	0.923916	0.489107	1.053216
C363	C	1.257249	0.822440	1.386549
N364	N	0.558331	0.188060	0.694244
N365	N	0.891665	0.521393	1.027577
N366	N	1.224998	0.854727	1.360910
H367	H	0.118487	0.073317	-0.150853
H368	H	0.451820	0.406650	0.182480
H369	H	0.785154	0.739984	0.515814
C370	C	0.234723	0.074713	-0.166178
C371	C	0.568056	0.408046	0.167155
C372	C	0.901389	0.741380	0.500488
N373	N	0.259324	0.075003	-0.210613
N374	N	0.592657	0.408336	0.122720
N375	N	0.925991	0.741670	0.456054
C376	C	0.783910	-0.229997	0.000095
C377	C	1.117243	0.103336	0.333428
C378	C	1.450576	0.436670	0.666761
N379	N	0.826642	-0.260465	0.000105
N380	N	1.159975	0.072868	0.333438
N381	N	1.493308	0.406201	0.666772
H382	H	0.391691	0.076647	-0.097243
H383	H	0.725024	0.409980	0.236090
H384	H	1.058358	0.743314	0.569424
H385	H	0.226215	0.074674	0.150971
H386	H	0.559548	0.408007	0.484304
H387	H	0.892882	0.741340	0.817637
H388	H	0.817819	-0.499816	0.000042
H389	H	1.151153	-0.166483	0.333375
H390	H	1.484486	0.166850	0.666709
H391	H	0.525565	-0.459928	0.000023
H392	H	0.858898	-0.126595	0.333356
H393	H	1.192232	0.206739	0.666689
H394	H	0.562723	0.183553	0.556215
H395	H	0.896056	0.516887	0.889548
H396	H	1.229390	0.850220	1.222882
H397	H	0.601663	0.144660	0.159071
H398	H	0.934997	0.477993	0.492404
H399	H	1.268330	0.811326	0.825737
C400	C	0.777361	-0.776475	0.000038
C401	C	1.110694	-0.443142	0.333372
C402	C	1.444028	-0.109809	0.666705
N403	N	0.820082	-0.806960	0.000037
N404	N	1.153416	-0.473627	0.333370
N405	N	1.486749	-0.140294	0.666703
C406	C	0.778860	-0.651732	0.000050
C407	C	1.112193	-0.318399	0.333384
C408	C	1.445527	0.014935	0.666717
N409	N	0.822179	-0.633000	0.000052
N410	N	1.155512	-0.299667	0.333385
N411	N	1.488845	0.033666	0.666719
C412	C	0.559279	-0.746712	0.000011
C413	C	0.892612	-0.413379	0.333344
C414	C	1.225946	-0.080045	0.666678
N415	N	0.515960	-0.765442	0.000002
N416	N	0.849293	-0.432109	0.333335
N417	N	1.182626	-0.098775	0.666668
C418	C	0.507948	0.078037	-0.112567
C419	C	0.841282	0.411371	0.220767
C420	C	1.174615	0.744704	0.554100
N421	N	0.532566	0.078320	-0.156992
N422	N	0.865899	0.411653	0.176341
N423	N	1.199232	0.744986	0.509674
C424	C	0.512117	-0.341674	0.000032
C425	C	0.845450	-0.008340	0.333365
C426	C	1.178784	0.324993	0.666699
N427	N	0.469383	-0.311208	0.000032
N428	N	0.802716	0.022125	0.333365
N429	N	1.136050	0.355458	0.666699
H430	H	-0.047012	0.071378	0.097362
H431	H	0.286322	0.404711	0.430696
H432	H	0.619655	0.738045	0.764029
H433	H	0.743024	0.003356	0.728712
H434	H	1.076358	0.336689	1.062045
H435	H	1.409691	0.670023	1.395379
C436	C	0.565816	-0.200244	0.000057
C437	C	0.899149	0.133090	0.333390
C438	C	1.232483	0.466423	0.666724
N439	N	0.522495	-0.218971	0.000045
N440	N	0.855829	0.114362	0.333378
N441	N	1.189162	0.447695	0.666711
C442	C	0.109986	0.073281	0.166301
C443	C	0.443319	0.406614	0.499635
C444	C	0.776652	0.739948	0.832968
N445	N	0.085389	0.073003	0.210740
N446	N	0.418722	0.406337	0.544073
N447	N	0.752055	0.739670	0.877406
H448	H	0.819114	-0.392068	0.000060
H449	H	1.152447	-0.058735	0.333394
H450	H	1.485780	0.274599	0.666727
H451	H	0.582053	-0.086017	0.000076
H452	H	0.915387	0.247316	0.333409
H453	H	1.248720	0.580649	0.666743
C454	C	0.785401	-0.105276	0.000112
C455	C	1.118734	0.228057	0.333445
C456	C	1.452068	0.561390	0.666778
N457	N	0.828722	-0.086549	0.000120
N458	N	1.162055	0.246784	0.333453
N459	N	1.495389	0.580118	0.666787
H460	H	0.742988	0.003397	0.159064
H461	H	1.076322	0.336730	0.492397
H462	H	1.409655	0.670064	0.825730
H463	H	0.742991	0.003378	0.271385
H464	H	1.076325	0.336711	0.604718
H465	H	1.409658	0.670045	0.938052
H466	H	0.781953	-0.035569	0.556206
H467	H	1.115286	0.297765	0.889539
H468	H	1.448619	0.631098	1.222873
C469	C	0.793076	-0.046690	0.435044
C470	C	1.126409	0.286643	0.768377
C471	C	1.459743	0.619977	1.101710
N472	N	0.825344	-0.078956	0.409402
N473	N	1.158677	0.254378	0.742735
N474	N	1.492011	0.587711	1.076069
C475	C	0.754154	-0.007775	0.849898
C476	C	1.087487	0.325558	1.183231
C477	C	1.420821	0.658892	1.516564
N478	N	0.786419	-0.040033	0.875555
N479	N	1.119752	0.293301	1.208889
N480	N	1.453085	0.626634	1.542222
C481	C	0.590576	0.155749	0.849893
C482	C	0.923909	0.489082	1.183227
C483	C	1.257243	0.822415	1.516560
N484	N	0.558302	0.188006	0.875537
N485	N	0.891636	0.521340	1.208871
N486	N	1.224969	0.854673	1.542204
C487	C	0.551589	0.194686	0.435047
C488	C	0.884923	0.528019	0.768380
C489	C	1.218256	0.861352	1.101714
N490	N	0.519320	0.226952	0.409405
N491	N	0.852653	0.560285	0.742738
N492	N	1.185986	0.893618	1.076072
