data_functionalizedCrystal
_audit_creation_method	'MofGen! by Chris Wilmer'
_symmetry_space_group_name_H-M	'P1'
_symmetry_Int_Tables_number	1
_symmetry_cell_setting	triclinic
loop_
_symmetry_equiv_pos_as_xyz
  x,y,z
_cell_length_a	10.654554
_cell_length_b	13.262508
_cell_length_c	9.730223
_cell_angle_alpha	105.916979
_cell_angle_beta	89.999646
_cell_angle_gamma	84.460141
loop_
_atom_site_label
_atom_site_type_symbol
_atom_site_fract_x
_atom_site_fract_y
_atom_site_fract_z
O1	O	1.667065	0.147442	-0.059176
O2	O	1.301514	0.161483	-0.053929
O3	O	1.493486	0.001739	-0.113636
O4	O	1.475094	0.307185	0.000531
O5	O	1.493484	0.001743	0.114945
O6	O	1.301512	0.161487	0.174652
O7	O	1.667063	0.147446	0.169405
Zn8	Zn	1.484287	0.154467	0.208321
Zn9	Zn	1.484290	0.154462	-0.092845
O10	O	1.475091	0.307189	0.229112
C11	C	1.254721	0.160453	0.059976
C12	C	1.115294	0.157365	0.058821
C13	C	0.904312	0.248522	0.092890
C14	C	1.035318	0.251424	0.093974
C15	C	1.064257	0.060399	0.022567
C16	C	0.933253	0.057498	0.021473
C17	C	0.887605	0.358810	0.134122
C18	C	1.018612	0.361711	0.135207
C19	C	1.492454	-0.037370	-0.013967
C20	C	1.489367	-0.153909	-0.057535
C21	C	1.480655	-0.482417	0.318070
C22	C	1.483545	-0.372922	0.359005
C23	C	1.485001	-0.318163	0.254874
C24	C	1.483566	-0.372910	0.109800
C25	C	1.480665	-0.482415	0.068860
C26	C	1.485012	-0.318161	0.005664
C27	C	1.483576	-0.372908	-0.139410
C28	C	1.480677	-0.482402	-0.180342
C29	C	1.479221	-0.537161	-0.076211
C30	C	1.487912	-0.208657	0.046604
C31	C	1.487923	-0.208655	-0.202606
C32	C	1.485032	-0.318150	-0.243542
C33	C	1.713856	0.148476	0.055497
C34	C	1.853283	0.151563	0.056643
C35	C	1.476123	0.346298	0.129440
C36	C	1.479210	0.462837	0.172999
N37	N	1.484294	0.154470	0.413858
N38	N	1.484293	0.154450	-0.298386
C39	C	1.569321	0.083760	0.459355
C40	C	1.569318	0.083747	0.603233
C41	C	1.399257	0.225164	0.656109
C42	C	1.399255	0.225171	0.512231
C43	C	1.667508	0.002117	0.428830
C44	C	1.667505	0.002104	0.572708
H45	H	1.129384	-0.016185	-0.006069
H46	H	1.479497	-0.526973	-0.298471
C47	C	1.182171	0.285088	0.722819
C48	C	1.305787	0.302875	0.764248
H49	H	1.124468	0.333061	0.789585
H50	H	1.170012	0.295221	0.630635
H51	H	1.168195	0.214922	0.720165
H52	H	1.319767	0.373039	0.766891
H53	H	1.317952	0.292751	0.856456
H54	H	1.054064	0.396832	0.049637
C55	C	0.950790	0.452317	0.376549
C56	C	1.057958	0.419920	0.286108
H57	H	0.975085	0.488242	0.469706
H58	H	0.894294	0.498257	0.340583
H59	H	0.910324	0.392417	0.380709
H60	H	1.098419	0.479820	0.281939
H61	H	1.114475	0.373978	0.322082
H62	H	1.489069	-0.164091	0.164725
H63	H	1.479460	-0.527010	0.402838
H64	H	1.487352	-0.229007	0.288213
C65	C	1.762586	0.126774	0.334245
C66	C	1.790411	0.036668	0.381518
H67	H	1.838459	0.148121	0.305059
H68	H	1.707848	0.111387	0.255784
H69	H	1.722599	0.181929	0.409844
H70	H	1.830390	-0.018490	0.305915
H71	H	1.845170	0.052051	0.459987
H72	H	1.646484	-0.078560	0.359621
H73	H	1.484727	-0.328356	0.477124
H74	H	1.476874	-0.626322	-0.109534
H75	H	1.763923	0.020089	0.618482
H76	H	1.483862	-0.362740	-0.361663
H77	H	1.637388	-0.074135	0.588828
H78	H	1.489099	-0.164070	-0.287399
H79	H	0.845645	0.400369	0.053999
H80	H	0.841781	0.392132	0.245269
C81	C	0.802697	-0.056589	0.096292
C82	C	0.877153	-0.049078	-0.018391
H83	H	0.768058	-0.122385	0.071671
H84	H	0.853197	-0.051504	0.177896
H85	H	0.736328	-0.000978	0.117069
H86	H	0.943529	-0.104685	-0.039161
H87	H	0.826650	-0.054173	-0.100019
C88	C	1.326428	0.406304	0.535663
C89	C	1.305785	0.302894	0.462222
H90	H	1.268723	0.454287	0.504783
H91	H	1.314259	0.416407	0.635415
H92	H	1.410298	0.418352	0.516576
H93	H	1.221917	0.290843	0.481318
H94	H	1.317943	0.292786	0.362446
