data_functionalizedCrystal
_audit_creation_method	'MofGen! by Chris Wilmer'
_symmetry_space_group_name_H-M	'P1'
_symmetry_Int_Tables_number	1
_symmetry_cell_setting	triclinic
loop_
_symmetry_equiv_pos_as_xyz
  x,y,z
_cell_length_a	21.395362
_cell_length_b	18.215404
_cell_length_c	21.395355
_cell_angle_alpha	90.016814
_cell_angle_beta	89.956060
_cell_angle_gamma	89.960299
loop_
_atom_site_label
_atom_site_type_symbol
_atom_site_fract_x
_atom_site_fract_y
_atom_site_fract_z
Zn1	Zn	0.957889	0.292758	-0.354593
Zn2	Zn	0.957805	0.415806	-0.249819
Zn3	Zn	0.853104	0.292792	-0.249794
Zn4	Zn	0.853086	0.415821	-0.354523
O5	O	0.905471	0.354294	-0.302182
O6	O	1.045556	0.309060	-0.340734
O7	O	0.943888	0.399496	-0.162137
O8	O	0.867048	0.189803	-0.263715
O9	O	1.045494	0.399463	-0.263757
O10	O	0.944033	0.189778	-0.340710
O11	O	0.866965	0.309118	-0.162120
O12	O	0.765424	0.309133	-0.263647
O13	O	0.867016	0.399488	-0.442211
O14	O	0.765411	0.399522	-0.340591
O15	O	0.944015	0.309074	-0.442262
O16	O	0.943870	0.518792	-0.263689
O17	O	0.866934	0.518803	-0.340615
C18	C	0.742683	0.354333	-0.302110
C19	C	0.673042	0.354367	-0.302093
C20	C	0.640338	0.401495	-0.342098
C21	C	0.574903	0.401477	-0.342126
C22	C	0.542174	0.354339	-0.302138
C23	C	0.574885	0.307202	-0.262131
C24	C	0.640320	0.307216	-0.262108
C25	C	0.438449	0.348410	-0.245733
C26	C	0.373016	0.348401	-0.245754
C27	C	0.340353	0.354291	-0.302207
C28	C	0.373132	0.360205	-0.358641
C29	C	0.438566	0.360219	-0.358619
C30	C	0.471222	0.354318	-0.302158
C31	C	0.236697	0.401402	-0.342246
C32	C	0.171260	0.401379	-0.342275
C33	C	0.171244	0.307107	-0.262273
C34	C	0.236679	0.307127	-0.262250
C35	C	0.269402	0.354278	-0.302235
C36	C	0.905408	0.545500	-0.302161
C37	C	0.905438	0.627299	-0.302173
C38	C	0.945596	0.815463	-0.262199
C39	C	0.945625	0.892322	-0.262218
C40	C	0.865442	0.892373	-0.342255
C41	C	0.865417	0.815516	-0.342239
C42	C	0.905493	0.777063	-0.302208
C43	C	0.905547	0.930779	-0.302243
C44	C	0.905579	1.014112	-0.302263
C45	C	0.905462	0.693724	-0.302188
C46	C	1.068894	0.354256	-0.302256
C47	C	1.138536	0.354239	-0.302287
C48	C	0.905523	0.354279	-0.465606
C49	C	0.905545	0.354273	-0.535247
C50	C	0.905556	1.162341	-0.302229
C51	C	0.905602	1.080542	-0.302278
C52	C	0.945637	0.307192	-0.567988
C53	C	0.945636	0.307161	-0.633423
C54	C	0.905550	0.354223	-0.666115
C55	C	0.865451	0.401307	-0.633367
C56	C	0.865449	0.401332	-0.567933
C57	C	0.900581	0.420488	-0.769781
C58	C	0.900588	0.420465	-0.835214
C59	C	0.905554	0.354145	-0.867936
C60	C	0.910527	0.287847	-0.835218
C61	C	0.910524	0.287872	-0.769783
C62	C	0.905548	0.354200	-0.737068
C63	C	0.945647	0.307026	-0.971630
C64	C	0.945641	0.306993	-1.037066
C65	C	0.865460	0.401146	-1.037008
C66	C	0.865462	0.401172	-0.971573
C67	C	0.905559	0.354113	-0.938888
C68	C	0.905455	0.354256	-0.139395
C69	C	0.905555	0.354055	-0.069754
H70	H	0.666947	0.268837	-0.229531
N71	N	0.988821	0.773987	-0.219028
H72	H	1.014232	0.809979	-0.193687
H73	H	1.017791	0.742045	-0.244565
N74	N	0.915876	0.216306	-0.870496
H75	H	0.956436	0.191258	-0.859139
H76	H	0.915091	0.226399	-0.916902
H77	H	0.978282	0.923584	-0.229640
N78	N	0.822161	0.774088	-0.385391
H79	H	0.831870	0.787422	-0.430174
H80	H	0.777420	0.787540	-0.375551
H81	H	0.832813	0.923691	-0.374847
N82	N	0.988881	0.256437	-0.532734
H83	H	1.014278	0.226606	-0.563409
H84	H	0.963391	0.222394	-0.505566
N85	N	0.988878	0.256379	-0.668747
H86	H	1.014278	0.226571	-0.638112
H87	H	1.017858	0.286325	-0.695917
N88	N	0.915889	0.216373	-0.734493
H89	H	0.919037	0.174353	-0.765146
H90	H	0.877716	0.209559	-0.707314
H91	H	0.978292	0.268704	-0.945016
N92	N	0.988874	0.256197	-1.072383
H93	H	1.014271	0.226390	-1.041745
H94	H	1.017857	0.286129	-1.099561
N95	N	0.822218	0.451901	-1.072260
H96	H	0.828301	0.444740	-1.118681
H97	H	0.831946	0.504464	-1.060832
N98	N	0.822210	0.451941	-0.936255
H99	H	0.796811	0.481746	-0.966892
H100	H	0.847686	0.486008	-0.909118
H101	H	0.263307	0.268754	-0.229671
N102	N	0.895227	0.491966	-0.870502
H103	H	0.931438	0.524900	-0.859139
H104	H	0.854643	0.516956	-0.859074
N105	N	0.675625	0.452349	-0.385228
H106	H	0.664293	0.440995	-0.430015
H107	H	0.722030	0.445189	-0.379095
N108	N	0.895233	0.492024	-0.734490
H109	H	0.892093	0.534018	-0.765145
H110	H	0.933409	0.498849	-0.707374
H111	H	0.548233	0.268820	-0.229573
H112	H	0.832811	0.439623	-0.659989
H113	H	0.832798	0.439669	-0.541275
N114	N	0.473671	0.342058	-0.184838
H115	H	0.500780	0.386885	-0.178887
H116	H	0.500817	0.296689	-0.185778
N117	N	0.539615	0.452310	-0.385272
H118	H	0.551056	0.440968	-0.430054
H119	H	0.550964	0.504857	-0.375400
N120	N	0.473917	0.366595	-0.419483
H121	H	0.462594	0.324086	-0.447590
H122	H	0.520313	0.365732	-0.410848
N123	N	0.337930	0.366578	-0.419544
H124	H	0.310821	0.321755	-0.425521
H125	H	0.368679	0.370354	-0.455236
N126	N	0.271997	0.452252	-0.385371
H127	H	0.241347	0.482102	-0.410723
H128	H	0.299203	0.422353	-0.414401
H129	H	0.144597	0.268723	-0.229717
N130	N	0.135984	0.452215	-0.385422
H131	H	0.166645	0.482088	-0.410745
H132	H	0.108782	0.486215	-0.359869
N133	N	0.337664	0.342029	-0.184890
H134	H	0.368283	0.338291	-0.149124
H135	H	0.310548	0.296681	-0.185872
