data_functionalizedCrystal
_audit_creation_method	'MofGen! by Chris Wilmer'
_symmetry_space_group_name_H-M	'P1'
_symmetry_Int_Tables_number	1
_symmetry_cell_setting	triclinic
loop_
_symmetry_equiv_pos_as_xyz
  x,y,z
_cell_length_a	29.839131
_cell_length_b	13.897449
_cell_length_c	13.897441
_cell_angle_alpha	90.018596
_cell_angle_beta	89.965828
_cell_angle_gamma	89.957300
loop_
_atom_site_label
_atom_site_type_symbol
_atom_site_fract_x
_atom_site_fract_y
_atom_site_fract_z
Zn1	Zn	-0.178828	-1.474523	-0.545351
Zn2	Zn	-0.253962	-1.474356	-0.384039
Zn3	Zn	-0.178848	-1.313218	-0.384069
Zn4	Zn	-0.253933	-1.313127	-0.545292
O5	O	-0.216393	-1.393806	-0.464688
O6	O	-0.188798	-1.609483	-0.523965
O7	O	-0.244018	-1.452949	-0.249061
O8	O	-0.115978	-1.334724	-0.405500
O9	O	-0.243998	-1.609360	-0.405450
O10	O	-0.115964	-1.453234	-0.523993
O11	O	-0.188832	-1.334562	-0.249083
O12	O	-0.188805	-1.178225	-0.405443
O13	O	-0.243950	-1.334569	-0.680281
O14	O	-0.243970	-1.178158	-0.523893
O15	O	-0.188771	-1.453145	-0.680325
O16	O	-0.316825	-1.452861	-0.405393
O17	O	-0.316804	-1.334407	-0.523864
C18	C	-0.216387	-1.143192	-0.464666
C19	C	-0.216395	-1.035978	-0.464679
C20	C	-0.333115	-1.393632	-0.464640
C21	C	-0.383050	-1.393646	-0.464652
C22	C	-0.216355	-1.393865	-0.716281
C23	C	-0.216339	-1.393891	-0.823495
C24	C	-0.692691	-1.455598	-0.403090
C25	C	-0.880364	-1.455717	-0.403127
O26	O	-0.904628	-1.508252	-0.350748
N27	N	-0.903835	-1.394006	-0.464760
C28	C	-0.880384	-1.332266	-0.526393
O29	O	-0.904653	-1.279788	-0.578824
C30	C	-0.692712	-1.332153	-0.526360
C31	C	-0.669244	-1.393860	-0.464716
C32	C	-0.669223	-1.517301	-0.341451
C33	C	-0.622308	-1.517267	-0.341439
C34	C	-0.598860	-1.455529	-0.403065
C35	C	-0.622328	-1.393826	-0.464703
C36	C	-0.669262	-1.270418	-0.587997
C37	C	-0.622341	-1.270397	-0.587985
C38	C	-0.598873	-1.332105	-0.526341
C39	C	-0.551966	-1.332055	-0.526317
N40	N	-0.528495	-1.393765	-0.464684
C41	C	-0.551943	-1.455503	-0.403057
C42	C	-0.978915	-1.332329	-0.526405
C43	C	-1.025833	-1.332356	-0.526412
C44	C	-1.025810	-1.455808	-0.403147
C45	C	-0.978891	-1.455775	-0.403136
C46	C	-0.955444	-1.394039	-0.464772
C47	C	-0.453417	-1.455426	-0.403035
C48	C	-0.406497	-1.455383	-0.403026
C49	C	-0.406524	-1.331935	-0.526294
C50	C	-0.453440	-1.331974	-0.526301
C51	C	-0.476885	-1.393727	-0.464668
O52	O	-0.527674	-1.279555	-0.578676
O53	O	-0.527665	-1.507988	-0.350650
C54	C	-0.739607	-1.455632	-0.403102
C55	C	-0.763075	-1.393929	-0.464741
C56	C	-0.739627	-1.332191	-0.526367
C57	C	-0.809993	-1.393955	-0.464748
C58	C	-0.833440	-1.455693	-0.403122
C59	C	-0.809970	-1.517403	-0.341489
C60	C	-0.763054	-1.517369	-0.341476
C61	C	-0.763098	-1.270481	-0.588000
C62	C	-0.810013	-1.270519	-0.588007
C63	C	-0.833461	-1.332256	-0.526381
C64	C	-0.099214	-1.394007	-0.464757
C65	C	-0.049280	-1.394093	-0.464786
C66	C	-0.216399	-1.645399	-0.464710
C67	C	-0.216402	-1.752613	-0.464720
C68	C	-0.216397	-0.839683	-0.464704
C69	C	-0.216394	-0.948915	-0.464688
C70	C	-0.216326	-1.393910	-0.910565
C71	C	-0.216306	-1.393938	-1.019797
C72	C	-0.216398	-1.393803	-0.214073
C73	C	-0.216287	-1.393965	-0.106860
H74	H	-0.472500	-1.505713	-0.352851
H75	H	-0.829069	-1.567669	-0.291308
H76	H	-1.044908	-1.506077	-0.352969
H77	H	-0.959828	-1.282054	-0.576598
O78	O	-1.048557	-1.272375	-0.586377
C79	C	-1.017795	-1.217867	-0.640748
H80	H	-0.984332	-1.257360	-0.644110
H81	H	-1.031328	-1.207542	-0.716743
H82	H	-1.012850	-1.144626	-0.605358
H83	H	-0.387391	-1.505633	-0.352824
O84	O	-0.476170	-1.271999	-0.586268
C85	C	-0.445411	-1.217481	-0.640637
H86	H	-0.411944	-1.256960	-0.643992
H87	H	-0.458943	-1.207164	-0.716634
H88	H	-0.440474	-1.144236	-0.605250
H89	H	-0.387426	-1.281666	-0.576466
H90	H	-0.603203	-1.567517	-0.291246
O91	O	-0.599518	-1.210375	-0.647726
C92	C	-0.572436	-1.148063	-0.592754
H93	H	-0.565410	-1.182114	-0.519683
H94	H	-0.539439	-1.135088	-0.632032
H95	H	-0.590559	-1.076602	-0.582098
O96	O	-0.740330	-1.577408	-0.281568
C97	C	-0.771094	-1.631881	-0.227169
H98	H	-0.804523	-1.635209	-0.266696
H99	H	-0.757510	-1.707882	-0.216943
H100	H	-0.776127	-1.596604	-0.153880
H101	H	-0.829117	-1.220261	-0.638204
O102	O	-0.691926	-1.577306	-0.281489
C103	C	-0.661143	-1.631770	-0.227111
H104	H	-0.627720	-1.592235	-0.223749
H105	H	-0.674710	-1.642108	-0.151117
H106	H	-0.656106	-1.705008	-0.262495
H107	H	-0.959786	-1.506023	-0.352940
H108	H	-0.688362	-1.220165	-0.638190
H109	H	-0.744011	-1.220208	-0.638185
