data_functionalizedCrystal
_audit_creation_method	'MofGen! by Chris Wilmer'
_symmetry_space_group_name_H-M	'P1'
_symmetry_Int_Tables_number	1
_symmetry_cell_setting	triclinic
loop_
_symmetry_equiv_pos_as_xyz
  x,y,z
_cell_length_a	15.944493
_cell_length_b	8.559649
_cell_length_c	7.088929
_cell_angle_alpha	95.344185
_cell_angle_beta	96.206503
_cell_angle_gamma	103.373146
loop_
_atom_site_label
_atom_site_type_symbol
_atom_site_fract_x
_atom_site_fract_y
_atom_site_fract_z
O1	O	1.091611	-0.222051	-0.158813
O2	O	0.845406	-0.247560	-0.158853
O3	O	0.990199	-0.002197	-0.158827
O4	O	0.946817	-0.467414	-0.158838
O5	O	1.009554	0.030668	0.159151
O6	O	0.864761	-0.214695	0.159126
O7	O	1.110966	-0.189186	0.159166
Cu8	Cu	0.989630	-0.198940	0.188180
Cu9	Cu	0.966741	-0.237806	-0.187867
O10	O	0.966172	-0.434550	0.159140
C11	C	0.823855	-0.230086	0.000131
C12	C	0.730808	-0.226962	0.000116
C13	C	1.003164	0.073766	0.000159
C14	C	1.012949	0.251148	0.000150
C15	C	1.132516	-0.206661	0.000178
C16	C	1.225563	-0.209786	0.000180
C17	C	1.470642	-0.065364	0.000155
C18	C	1.525727	-0.127043	0.156934
C19	C	1.395909	-0.215579	0.000162
C20	C	1.506618	-0.159480	-0.156568
C21	C	1.560457	-0.221164	0.000136
C22	C	1.449776	-0.277204	0.157070
C23	C	1.430656	-0.309633	-0.156572
C24	C	1.485703	-0.371419	0.000245
C25	C	1.301118	-0.212357	0.000179
C26	C	1.655245	-0.224396	0.000133
C27	C	0.953207	-0.510513	0.000150
C28	C	0.943421	-0.687896	0.000146
N29	N	1.005736	-0.171603	0.452671
N30	N	0.950643	-0.265131	-0.452358
H31	H	1.463374	0.064044	0.000315
C32	C	1.495323	-0.546339	0.000361
N33	N	1.502573	-0.678086	0.000461
H34	H	0.876408	0.228587	0.000142
C35	C	1.540328	-0.092249	-0.335627
N36	N	1.565717	-0.041599	-0.470489
C37	C	1.103489	0.363984	0.000175
N38	N	1.171682	0.448973	0.000192
C39	C	1.416231	-0.344310	0.336336
N40	N	1.390964	-0.394845	0.471361
C41	C	0.873502	-0.396063	0.437328
N42	N	0.815398	-0.494681	0.354227
H43	H	1.062842	-0.074686	0.534337
H44	H	1.389537	-0.386715	-0.289128
C45	C	1.581264	-0.022835	0.336000
N46	N	1.623092	0.055664	0.470868
