data_functionalizedCrystal
_audit_creation_method	'MofGen! by Chris Wilmer'
_symmetry_space_group_name_H-M	'P1'
_symmetry_Int_Tables_number	1
_symmetry_cell_setting	triclinic
loop_
_symmetry_equiv_pos_as_xyz
  x,y,z
_cell_length_a	27.732048
_cell_length_b	19.188930
_cell_length_c	17.666332
_cell_angle_alpha	90.011603
_cell_angle_beta	90.003861
_cell_angle_gamma	82.893719
loop_
_atom_site_label
_atom_site_type_symbol
_atom_site_fract_x
_atom_site_fract_y
_atom_site_fract_z
O1	O	-0.641184	-0.083079	-0.062859
O2	O	-0.391184	0.166921	0.187141
O3	O	-0.141184	0.416921	0.437141
O4	O	0.108816	0.666921	0.687141
O5	O	-0.500430	-0.095711	-0.062883
O6	O	-0.250430	0.154289	0.187117
O7	O	-0.000430	0.404289	0.437117
O8	O	0.249570	0.654289	0.687117
O9	O	-0.574869	0.012286	-0.062856
O10	O	-0.324869	0.262286	0.187144
O11	O	-0.074869	0.512286	0.437144
O12	O	0.175131	0.762286	0.687144
O13	O	-0.566745	-0.191077	-0.062887
O14	O	-0.316745	0.058923	0.187113
O15	O	-0.066745	0.308923	0.437113
O16	O	0.183255	0.558923	0.687113
O17	O	-0.574856	0.012292	0.063041
O18	O	-0.324856	0.262292	0.313041
O19	O	-0.074856	0.512292	0.563041
O20	O	0.175144	0.762292	0.813041
O21	O	-0.500417	-0.095706	0.063014
O22	O	-0.250417	0.154294	0.313014
O23	O	-0.000417	0.404294	0.563014
O24	O	0.249583	0.654294	0.813014
O25	O	-0.641171	-0.083074	0.063038
O26	O	-0.391171	0.166926	0.313038
O27	O	-0.141171	0.416926	0.563038
O28	O	0.108829	0.666926	0.813038
Cu29	Cu	-0.570793	-0.089389	0.074521
Cu30	Cu	-0.320793	0.160611	0.324521
Cu31	Cu	-0.070793	0.410611	0.574521
Cu32	Cu	0.179207	0.660611	0.824521
Cu33	Cu	-0.570808	-0.089396	-0.074367
Cu34	Cu	-0.320808	0.160604	0.175633
Cu35	Cu	-0.070808	0.410604	0.425633
Cu36	Cu	0.179192	0.660604	0.675633
O37	O	-0.566732	-0.191071	0.063010
O38	O	-0.316732	0.058929	0.313010
O39	O	-0.066732	0.308929	0.563010
O40	O	0.183268	0.558929	0.813010
C41	C	-0.482415	-0.095443	0.000062
C42	C	-0.232415	0.154557	0.250062
C43	C	0.017585	0.404557	0.500062
C44	C	0.267585	0.654557	0.750062
C45	C	-0.428758	-0.094645	0.000054
C46	C	-0.178758	0.155355	0.250054
C47	C	0.071242	0.405355	0.500054
C48	C	0.321242	0.655355	0.750054
C49	C	-0.659186	-0.083341	0.000090
C50	C	-0.409186	0.166659	0.250090
C51	C	-0.159186	0.416659	0.500090
C52	C	0.090814	0.666659	0.750090
C53	C	-0.712843	-0.084140	0.000094
C54	C	-0.462843	0.165860	0.250094
C55	C	-0.212843	0.415860	0.500094
C56	C	0.037157	0.665860	0.750094
C57	C	-0.574599	0.038299	0.000095
C58	C	-0.324599	0.288299	0.250095
C59	C	-0.074599	0.538299	0.500095
C60	C	0.175401	0.788299	0.750095
C61	C	-0.573810	0.115798	0.000101
C62	C	-0.323810	0.365798	0.250101
C63	C	-0.073810	0.615798	0.500101
C64	C	0.176190	0.865798	0.750101
C65	C	-0.090123	-0.153438	0.000078
C66	C	0.159877	0.096562	0.250078
C67	C	0.409877	0.346562	0.500078
C68	C	0.659877	0.596562	0.750078
C69	C	0.111546	-0.150475	0.000085
C70	C	0.361546	0.099525	0.250085
C71	C	0.611546	0.349525	0.500085
C72	C	0.861546	0.599525	0.750085
O73	O	0.142637	-0.204237	0.000109
O74	O	0.392637	0.045763	0.250109
O75	O	0.642637	0.295763	0.500109
O76	O	0.892637	0.545763	0.750109
N77	N	0.130866	-0.086437	0.000093
N78	N	0.380866	0.163563	0.250093
N79	N	0.630866	0.413563	0.500093
N80	N	0.880866	0.663563	0.750093
C81	C	0.099764	-0.023135	0.000105
C82	C	0.349764	0.226865	0.250105
C83	C	0.599764	0.476865	0.500105
C84	C	0.849764	0.726865	0.750105
O85	O	0.120824	0.031401	0.000120
O86	O	0.370824	0.281401	0.250120
O87	O	0.620824	0.531401	0.500120
O88	O	0.870824	0.781401	0.750120
C89	C	-0.101903	-0.026098	0.000103
C90	C	0.148097	0.223902	0.250103
C91	C	0.398097	0.473902	0.500103
C92	C	0.648097	0.723902	0.750103
C93	C	-0.121220	-0.090140	0.000087
C94	C	0.128780	0.159860	0.250087
C95	C	0.378780	0.409860	0.500087
C96	C	0.628780	0.659860	0.750087
C97	C	-0.109440	-0.217475	0.000062
C98	C	0.140560	0.032525	0.250062
C99	C	0.390560	0.282525	0.500062
C100	C	0.640560	0.532525	0.750062
C101	C	-0.159854	-0.218215	0.000056
C102	C	0.090146	0.031785	0.250056
C103	C	0.340146	0.281785	0.500056
C104	C	0.590146	0.531785	0.750056
C105	C	-0.190951	-0.154917	0.000066
C106	C	0.059049	0.095083	0.250066
C107	C	0.309049	0.345083	0.500066
C108	C	0.559049	0.595083	0.750066
C109	C	-0.171634	-0.090880	0.000081
C110	C	0.078366	0.159120	0.250081
C111	C	0.328366	0.409120	0.500081
C112	C	0.578366	0.659120	0.750081
C113	C	-0.133003	0.037203	0.000120
C114	C	0.116997	0.287203	0.250120
C115	C	0.366997	0.537203	0.500120
C116	C	0.616997	0.787203	0.750120
C117	C	-0.183423	0.036457	0.000121
C118	C	0.066577	0.286457	0.250121
C119	C	0.316577	0.536457	0.500121
C120	C	0.566577	0.786457	0.750121
C121	C	-0.202740	-0.027586	0.000105
C122	C	0.047260	0.222414	0.250105
C123	C	0.297260	0.472414	0.500105
C124	C	0.547260	0.722414	0.750105
C125	C	-0.253145	-0.028323	0.000084
C126	C	-0.003145	0.221677	0.250084
C127	C	0.246855	0.471677	0.500084
C128	C	0.496855	0.721677	0.750084
N129	N	-0.272465	-0.092361	0.000076
N130	N	-0.022465	0.157639	0.250076
N131	N	0.227535	0.407639	0.500076
N132	N	0.477535	0.657639	0.750076
C133	C	-0.241368	-0.155658	0.000067
C134	C	0.008632	0.094342	0.250067
C135	C	0.258632	0.344342	0.500067
C136	C	0.508632	0.594342	0.750067
C137	C	0.205643	-0.021584	0.000104
C138	C	0.455643	0.228416	0.250104
C139	C	0.705643	0.478416	0.500104
C140	C	0.955643	0.728416	0.750104
C141	C	0.256060	-0.020843	0.000103
C142	C	0.506060	0.229157	0.250103
C143	C	0.756060	0.479157	0.500103
C144	C	1.006060	0.729157	0.750103
C145	C	0.267838	-0.148183	0.000085
C146	C	0.517838	0.101817	0.250085
C147	C	0.767838	0.351817	0.500085
C148	C	1.017838	0.601817	0.750085
C149	C	0.217420	-0.148923	0.000080
C150	C	0.467420	0.101077	0.250080
C151	C	0.717420	0.351077	0.500080
C152	C	0.967420	0.601077	0.750080
C153	C	0.186324	-0.085622	0.000096
C154	C	0.436324	0.164378	0.250096
C155	C	0.686324	0.414378	0.500096
C156	C	0.936324	0.664378	0.750096
C157	C	-0.347242	-0.157208	0.000054
C158	C	-0.097242	0.092792	0.250054
C159	C	0.152758	0.342792	0.500054
C160	C	0.402758	0.592792	0.750054
C161	C	-0.397661	-0.157942	0.000044
C162	C	-0.147661	0.092058	0.250044
C163	C	0.102339	0.342058	0.500044
C164	C	0.352339	0.592058	0.750044
C165	C	-0.409435	-0.030602	0.000067
C166	C	-0.159435	0.219398	0.250067
C167	C	0.090565	0.469398	0.500067
C168	C	0.340565	0.719398	0.750067
C169	C	-0.359020	-0.029867	0.000072
C170	C	-0.109020	0.220133	0.250072
C171	C	0.140980	0.470133	0.500072
C172	C	0.390980	0.720133	0.750072
C173	C	-0.327924	-0.093176	0.000068
C174	C	-0.077924	0.156824	0.250068
C175	C	0.172076	0.406824	0.500068
C176	C	0.422076	0.656824	0.750068
O177	O	-0.284265	0.025410	0.000068
O178	O	-0.034265	0.275410	0.250068
O179	O	0.215735	0.525410	0.500068
O180	O	0.465735	0.775410	0.750068
O181	O	-0.262437	-0.210187	0.000068
O182	O	-0.012437	0.039813	0.250068
O183	O	0.237563	0.289813	0.500068
O184	O	0.487563	0.539813	0.750068
C185	C	-0.039708	-0.152698	0.000084
C186	C	0.210292	0.097302	0.250084
C187	C	0.460292	0.347302	0.500084
C188	C	0.710292	0.597302	0.750084
C189	C	-0.020391	-0.088661	0.000099
C190	C	0.229609	0.161339	0.250099
C191	C	0.479609	0.411339	0.500099
C192	C	0.729609	0.661339	0.750099
C193	C	-0.051489	-0.025363	0.000108
C194	C	0.198511	0.224637	0.250108
C195	C	0.448511	0.474637	0.500108
C196	C	0.698511	0.724637	0.750108
C197	C	0.030025	-0.087920	0.000098
C198	C	0.280025	0.162080	0.250098
C199	C	0.530025	0.412080	0.500098
C200	C	0.780025	0.662080	0.750098
C201	C	0.061122	-0.151217	0.000089
C202	C	0.311122	0.098783	0.250089
C203	C	0.561122	0.348783	0.500089
C204	C	0.811122	0.598783	0.750089
C205	C	0.041803	-0.215255	0.000080
C206	C	0.291803	0.034745	0.250080
C207	C	0.541803	0.284745	0.500080
C208	C	0.791803	0.534745	0.750080
C209	C	-0.008611	-0.215995	0.000074
C210	C	0.241389	0.034005	0.250074
C211	C	0.491389	0.284005	0.500074
C212	C	0.741389	0.534005	0.750074
C213	C	-0.032169	0.038675	0.000116
C214	C	0.217831	0.288675	0.250116
C215	C	0.467831	0.538675	0.500116
C216	C	0.717831	0.788675	0.750116
C217	C	0.018246	0.039409	0.000122
C218	C	0.268246	0.289409	0.250122
C219	C	0.518246	0.539409	0.500122
C220	C	0.768246	0.789409	0.750122
C221	C	0.049343	-0.023888	0.000112
C222	C	0.299343	0.226112	0.250112
C223	C	0.549343	0.476112	0.500112
C224	C	0.799343	0.726112	0.750112
C225	C	-0.567002	-0.217083	0.000058
C226	C	-0.317002	0.032917	0.250058
C227	C	-0.067002	0.282917	0.500058
C228	C	0.182998	0.532917	0.750058
C229	C	-0.567791	-0.294583	0.000047
C230	C	-0.317791	-0.044583	0.250047
C231	C	-0.067791	0.205417	0.500047
C232	C	0.182209	0.455417	0.750047
N233	N	-0.570786	-0.089384	0.179240
N234	N	-0.320786	0.160616	0.429240
N235	N	-0.070786	0.410616	0.679240
N236	N	0.179214	0.660616	0.929240
C237	C	-0.617488	0.161001	0.000112
C238	C	-0.367488	0.411001	0.250112
C239	C	-0.117488	0.661001	0.500112
C240	C	0.132512	0.911001	0.750112
C241	C	-0.616746	0.233820	0.000100
C242	C	-0.366746	0.483820	0.250100
C243	C	-0.116746	0.733820	0.500100
C244	C	0.133254	0.983820	0.750100
C245	C	-0.572323	0.261433	0.000092
C246	C	-0.322323	0.511433	0.250092
C247	C	-0.072323	0.761433	0.500092
C248	C	0.177677	1.011433	0.750092
C249	C	-0.528639	0.216220	0.000077
C250	C	-0.278639	0.466220	0.250077
C251	C	-0.028639	0.716220	0.500077
C252	C	0.221361	0.966220	0.750077
C253	C	-0.529382	0.143403	0.000081
C254	C	-0.279382	0.393403	0.250081
C255	C	-0.029382	0.643403	0.500081
C256	C	0.220618	0.893403	0.750081
N257	N	-0.538363	0.369223	0.042931
N258	N	-0.288363	0.619223	0.292931
N259	N	-0.038363	0.869223	0.542931
N260	N	0.211637	1.119223	0.792931
N261	N	-0.537660	0.438397	0.042928
N262	N	-0.287660	0.688397	0.292928
N263	N	-0.037660	0.938397	0.542928
N264	N	0.212340	1.188397	0.792928
C265	C	-0.570081	0.480827	0.000076
C266	C	-0.320081	0.730827	0.250076
C267	C	-0.070081	0.980827	0.500076
C268	C	0.179919	1.230827	0.750076
N269	N	-0.603240	0.451471	-0.042764
N270	N	-0.353240	0.701471	0.207236
N271	N	-0.103240	0.951471	0.457236
N272	N	0.146760	1.201471	0.707236
N273	N	-0.603944	0.382291	-0.042757
N274	N	-0.353944	0.632291	0.207243
N275	N	-0.103944	0.882291	0.457243
N276	N	0.146056	1.132291	0.707243
C277	C	-0.571512	0.340390	0.000086
C278	C	-0.321512	0.590390	0.250086
C279	C	-0.071512	0.840390	0.500086
C280	C	0.178488	1.090390	0.750086
C281	C	-0.612959	0.604989	0.000073
C282	C	-0.362959	0.854989	0.250073
C283	C	-0.112959	1.104989	0.500073
C284	C	0.137041	1.354989	0.750073
C285	C	-0.612215	0.677809	0.000056
C286	C	-0.362215	0.927809	0.250056
C287	C	-0.112215	1.177809	0.500056
C288	C	0.137785	1.427809	0.750056
C289	C	-0.524106	0.660208	0.000040
C290	C	-0.274106	0.910208	0.250040
C291	C	-0.024106	1.160208	0.500040
C292	C	0.225894	1.410208	0.750040
C293	C	-0.524851	0.587390	0.000049
C294	C	-0.274851	0.837390	0.250049
C295	C	-0.024851	1.087390	0.500049
C296	C	0.225149	1.337390	0.750049
C297	C	-0.569279	0.559785	0.000069
C298	C	-0.319279	0.809785	0.250069
C299	C	-0.069279	1.059785	0.500069
C300	C	0.180721	1.309785	0.750069
N301	N	-0.570819	-0.089395	-0.179086
N302	N	-0.320819	0.160605	0.070914
N303	N	-0.070819	0.410605	0.320914
N304	N	0.179181	0.660605	0.570914
C305	C	-0.603758	-0.041586	0.218862
C306	C	-0.353758	0.208414	0.468862
C307	C	-0.103758	0.458414	0.718862
C308	C	0.146242	0.708414	0.968862
C309	C	-0.603761	-0.041582	0.298110
C310	C	-0.353761	0.208418	0.548110
C311	C	-0.103761	0.458418	0.798110
C312	C	0.146239	0.708418	1.048110
C313	C	-0.570796	-0.089389	0.337733
C314	C	-0.320796	0.160611	0.587733
C315	C	-0.070796	0.410611	0.837733
C316	C	0.179204	0.660611	1.087733
C317	C	-0.537817	-0.137191	0.298101
C318	C	-0.287817	0.112809	0.548101
C319	C	-0.037817	0.362809	0.798101
C320	C	0.212183	0.612809	1.048101
C321	C	-0.537812	-0.137188	0.218855
C322	C	-0.287812	0.112812	0.468855
C323	C	-0.037812	0.362812	0.718855
C324	C	0.212188	0.612812	0.968855
N325	N	-0.564512	-0.151237	0.462141
N326	N	-0.314512	0.098763	0.712141
N327	N	-0.064512	0.348763	0.962141
N328	N	0.185488	0.598763	1.212141
N329	N	-0.564520	-0.151237	0.537422
N330	N	-0.314520	0.098763	0.787422
N331	N	-0.064520	0.348763	1.037422
N332	N	0.185480	0.598763	1.287422
C333	C	-0.570808	-0.089399	0.576497
C334	C	-0.320808	0.160601	0.826497
C335	C	-0.070808	0.410601	1.076497
C336	C	0.179192	0.660601	1.326497
N337	N	-0.577098	-0.027558	0.537447
N338	N	-0.327098	0.222442	0.787447
N339	N	-0.077098	0.472442	1.037447
N340	N	0.172902	0.722442	1.287447
N341	N	-0.577093	-0.027559	0.462160
N342	N	-0.327093	0.222441	0.712160
N343	N	-0.077093	0.472441	0.962160
N344	N	0.172907	0.722441	1.212160
C345	C	-0.570797	-0.089397	0.423662
C346	C	-0.320797	0.160603	0.673662
C347	C	-0.070797	0.410603	0.923662
C348	C	0.179203	0.660603	1.173662
C349	C	-0.603786	-0.041593	0.702048
C350	C	-0.353786	0.208407	0.952048
C351	C	-0.103786	0.458407	1.202048
C352	C	0.146214	0.708407	1.452048
C353	C	-0.603785	-0.041589	0.781297
C354	C	-0.353785	0.208411	1.031297
C355	C	-0.103785	0.458411	1.281297
C356	C	0.146215	0.708411	1.531297
C357	C	-0.537844	-0.137203	0.781286
C358	C	-0.287844	0.112797	1.031286
C359	C	-0.037844	0.362797	1.281286
C360	C	0.212156	0.612797	1.531286
C361	C	-0.537842	-0.137202	0.702039
C362	C	-0.287842	0.112798	0.952039
C363	C	-0.037842	0.362798	1.202039
C364	C	0.212158	0.612798	1.452039
C365	C	-0.570816	-0.089397	0.662424
C366	C	-0.320816	0.160603	0.912424
C367	C	-0.070816	0.410603	1.162424
C368	C	0.179184	0.660603	1.412424
H369	H	-0.413385	-0.210095	0.000031
H370	H	-0.163385	0.039905	0.250031
H371	H	0.086615	0.289905	0.500031
H372	H	0.336615	0.539905	0.750031
F373	F	-0.638878	0.009291	0.823467
F374	F	-0.388878	0.259291	1.073467
F375	F	-0.138878	0.509291	1.323467
F376	F	0.111122	0.759291	1.573467
H377	H	-0.493813	0.106598	0.000072
H378	H	-0.243813	0.356598	0.250072
H379	H	0.006187	0.606598	0.500072
H380	H	0.256187	0.856598	0.750072
F381	F	-0.442539	0.036760	0.000078
F382	F	-0.192539	0.286760	0.250078
F383	F	0.057461	0.536760	0.500078
F384	F	0.307461	0.786760	0.750078
H385	H	0.293166	-0.199722	0.000077
H386	H	0.543166	0.050278	0.250077
H387	H	0.793166	0.300278	0.500077
H388	H	1.043166	0.550278	0.750077
F389	F	-0.502732	-0.188068	0.340271
F390	F	-0.252732	0.061932	0.590271
F391	F	-0.002732	0.311932	0.840271
F392	F	0.247268	0.561932	1.090271
F393	F	-0.314154	-0.224588	0.000050
F394	F	-0.064154	0.025412	0.250050
F395	F	0.185846	0.275412	0.500050
F396	F	0.435846	0.525412	0.750050
F397	F	-0.029163	-0.284158	0.000057
F398	F	0.220837	-0.034158	0.250057
F399	F	0.470837	0.215842	0.500057
F400	F	0.720837	0.465842	0.750057
F401	F	0.074908	-0.282620	0.000066
F402	F	0.324908	-0.032620	0.250066
F403	F	0.574908	0.217380	0.500066
F404	F	0.824908	0.467380	0.750066
F405	F	-0.076350	-0.284850	0.000052
F406	F	0.173650	-0.034850	0.250052
F407	F	0.423650	0.215150	0.500052
F408	F	0.673650	0.465150	0.750052
H409	H	-0.653664	0.138530	0.000126
H410	H	-0.403664	0.388530	0.250126
H411	H	-0.153664	0.638530	0.500126
H412	H	0.096336	0.888530	0.750126
F413	F	0.038797	0.107577	0.000129
F414	F	0.288797	0.357577	0.250129
F415	F	0.538797	0.607577	0.500129
F416	F	0.788797	0.857577	0.750129
H417	H	-0.652316	0.270631	0.000106
H418	H	-0.402316	0.520631	0.250106
H419	H	-0.152316	0.770631	0.500106
H420	H	0.097684	1.020631	0.750106
F421	F	-0.216516	0.103833	0.000140
F422	F	0.033484	0.353833	0.250140
F423	F	0.283484	0.603833	0.500140
F424	F	0.533484	0.853833	0.750140
F425	F	0.276612	0.047320	0.000103
F426	F	0.526612	0.297320	0.250103
F427	F	0.776612	0.547320	0.500103
F428	F	1.026612	0.797320	0.750103
H429	H	-0.630606	-0.002659	0.186610
H430	H	-0.380606	0.247341	0.436610
H431	H	-0.130606	0.497341	0.686610
H432	H	0.119394	0.747341	0.936610
F433	F	-0.476828	0.689591	0.000028
F434	F	-0.226828	0.939591	0.250028
F435	F	0.023172	1.189591	0.500028
F436	F	0.273172	1.439591	0.750028
F437	F	-0.481361	0.245609	0.000063
F438	F	-0.231361	0.495609	0.250063
F439	F	0.018639	0.745609	0.500063
F440	F	0.268639	0.995609	0.750063
H441	H	-0.489283	0.550585	0.000045
H442	H	-0.239283	0.800585	0.250045
H443	H	0.010717	1.050585	0.500045
H444	H	0.260717	1.300585	0.750045
H445	H	-0.175576	-0.270364	0.000043
H446	H	0.074424	-0.020364	0.250043
H447	H	0.324424	0.229636	0.500043
H448	H	0.574424	0.479636	0.750043
F449	F	-0.638856	0.009294	0.340285
F450	F	-0.388856	0.259294	0.590285
F451	F	-0.138856	0.509294	0.840285
F452	F	0.111144	0.759294	1.090285
F453	F	-0.660241	0.575607	0.000098
F454	F	-0.410241	0.825607	0.250098
F455	F	-0.160241	1.075607	0.500098
F456	F	0.089759	1.325607	0.750098
F457	F	-0.065259	0.106048	0.000128
F458	F	0.184741	0.356048	0.250128
F459	F	0.434741	0.606048	0.500128
F460	F	0.684741	0.856048	0.750128
F461	F	-0.658706	0.725918	0.000063
F462	F	-0.408706	0.975918	0.250063
F463	F	-0.158706	1.225918	0.500063
F464	F	0.091294	1.475918	0.750063
H465	H	0.201697	-0.201072	0.000071
H466	H	0.451697	0.048928	0.250071
H467	H	0.701697	0.298928	0.500071
H468	H	0.951697	0.548928	0.750071
H469	H	0.180328	0.029967	0.000117
H470	H	0.430328	0.279967	0.250117
H471	H	0.680328	0.529967	0.500117
H472	H	0.930328	0.779967	0.750117
H473	H	-0.510961	-0.176112	0.186594
H474	H	-0.260961	0.073888	0.436594
H475	H	-0.010961	0.323888	0.686594
H476	H	0.239039	0.573888	0.936594
H477	H	-0.511001	-0.176126	0.813547
H478	H	-0.261001	0.073874	1.063547
H479	H	-0.011001	0.323874	1.313547
H480	H	0.238999	0.573874	1.563547
F481	F	-0.112457	0.105367	0.000126
F482	F	0.137543	0.355367	0.250126
F483	F	0.387543	0.605367	0.500126
F484	F	0.637543	0.855367	0.750126
F485	F	-0.338461	0.038293	0.000090
F486	F	-0.088461	0.288293	0.250090
F487	F	0.161539	0.538293	0.500090
F488	F	0.411539	0.788293	0.750090
F489	F	-0.638877	0.009287	0.659886
F490	F	-0.388877	0.259287	0.909886
F491	F	-0.138877	0.509287	1.159886
F492	F	0.111123	0.759287	1.409886
F493	F	-0.502751	-0.188078	0.659867
F494	F	-0.252751	0.061922	0.909867
F495	F	-0.002751	0.311922	1.159867
F496	F	0.247249	0.561922	1.409867
