data_functionalizedCrystal
_audit_creation_method	'MofGen! by Chris Wilmer'
_symmetry_space_group_name_H-M	'P1'
_symmetry_Int_Tables_number	1
_symmetry_cell_setting	triclinic
loop_
_symmetry_equiv_pos_as_xyz
  x,y,z
_cell_length_a	16.959455
_cell_length_b	16.625546
_cell_length_c	16.625548
_cell_angle_alpha	90.011514
_cell_angle_beta	90.003642
_cell_angle_gamma	90.019415
loop_
_atom_site_label
_atom_site_type_symbol
_atom_site_fract_x
_atom_site_fract_y
_atom_site_fract_z
Zn1	Zn	1.208287	-0.321216	0.455873
Zn2	Zn	1.708287	0.178784	0.955873
Zn3	Zn	1.208229	-0.456015	0.321036
Zn4	Zn	1.708229	0.043985	0.821036
Zn5	Zn	1.076140	-0.321193	0.321057
Zn6	Zn	1.576140	0.178807	0.821057
Zn7	Zn	1.076075	-0.456003	0.455828
Zn8	Zn	1.576075	0.043997	0.955828
O9	O	1.142183	-0.388607	0.388449
O10	O	1.642183	0.111393	0.888449
O11	O	1.318890	-0.339112	0.437997
O12	O	1.818890	0.160888	0.937997
O13	O	1.190710	-0.438125	0.208206
O14	O	1.690710	0.061875	0.708206
O15	O	1.093722	-0.208363	0.338968
O16	O	1.593722	0.291637	0.838968
O17	O	1.318847	-0.438148	0.338933
O18	O	1.818847	0.061852	0.838933
O19	O	1.190810	-0.208381	0.438017
O20	O	1.690810	0.291619	0.938017
O21	O	1.093665	-0.339072	0.208222
O22	O	1.593665	0.160928	0.708222
O23	O	0.965521	-0.339061	0.338924
O24	O	1.465521	0.160939	0.838924
O25	O	1.093610	-0.438128	0.568667
O26	O	1.593610	0.061872	1.068667
O27	O	0.965473	-0.438106	0.437940
O28	O	1.465473	0.061894	0.937940
O29	O	1.190746	-0.339101	0.568700
O30	O	1.690746	0.160899	1.068700
O31	O	1.190647	-0.568846	0.338889
O32	O	1.690647	-0.068846	0.838889
O33	O	1.093554	-0.568837	0.437920
O34	O	1.593554	-0.068837	0.937920
C35	C	0.936817	-0.388580	0.388430
C36	C	1.436817	0.111420	0.888430
C37	C	0.848960	-0.388588	0.388441
C38	C	1.348960	0.111412	0.888441
C39	C	0.477485	-0.336992	0.336999
C40	C	0.977485	0.163008	0.836999
C41	C	0.477484	-0.440288	0.439945
C42	C	0.977484	0.059712	0.939945
C43	C	0.560030	-0.440276	0.439940
C44	C	1.060030	0.059724	0.939940
C45	C	0.601307	-0.388623	0.388463
C46	C	1.101307	0.111377	0.888463
C47	C	0.560039	-0.336981	0.336990
C48	C	1.060039	0.163019	0.836990
C49	C	0.601304	-0.491923	0.491405
C50	C	1.101304	0.008077	0.991405
C51	C	0.683855	-0.491914	0.491402
C52	C	1.183855	0.008086	0.991402
C53	C	0.725134	-0.440256	0.439928
C54	C	1.225134	0.059744	0.939928
C55	C	0.683861	-0.388611	0.388454
C56	C	1.183861	0.111389	0.888454
C57	C	0.725138	-0.336957	0.336977
C58	C	1.225138	0.163043	0.836977
C59	C	0.683866	-0.285308	0.285507
C60	C	1.183866	0.214692	0.785507
C61	C	0.601317	-0.285322	0.285517
C62	C	1.101317	0.214678	0.785517
C63	C	0.807683	-0.440242	0.439918
C64	C	1.307683	0.059758	0.939918
C65	C	0.807692	-0.336946	0.336969
C66	C	1.307692	0.163054	0.836969
C67	C	1.142108	-0.598098	0.388415
C68	C	1.642108	-0.098098	0.888415
C69	C	1.142148	-0.687719	0.388427
C70	C	1.642148	-0.187719	0.888427
C71	C	1.142286	-1.015894	0.388511
C72	C	1.642286	-0.515894	0.888511
C73	C	1.142245	-0.924586	0.388490
C74	C	1.642245	-0.424586	0.888490
C75	C	1.142217	-0.851809	0.388469
C76	C	1.642217	-0.351809	0.888469
C77	C	1.142177	-0.760495	0.388449
C78	C	1.642177	-0.260495	0.888449
C79	C	1.348351	-0.388634	0.388468
C80	C	1.848351	0.111366	0.888468
C81	C	1.436208	-0.388646	0.388476
C82	C	1.936208	0.111354	0.888476
C83	C	1.142177	-0.388616	0.598757
C84	C	1.642177	0.111384	1.098757
C85	C	1.142175	-0.388620	0.688379
C86	C	1.642175	0.111380	1.188379
C87	C	1.142279	-0.178298	0.388500
C88	C	1.642279	0.321702	0.888500
C89	C	1.142321	-0.088677	0.388522
C90	C	1.642321	0.411323	0.888522
C91	C	1.142172	-0.388624	0.761161
C92	C	1.642172	0.111376	1.261161
C93	C	1.142172	-0.388621	0.852469
C94	C	1.642172	0.111379	1.352469
C95	C	1.142175	-0.388614	0.925246
C96	C	1.642175	0.111386	1.425246
C97	C	1.142175	-0.388612	1.016560
C98	C	1.642175	0.111388	1.516560
C99	C	1.142181	-0.388614	1.178958
C100	C	1.642181	0.111386	1.678958
C101	C	1.142179	-0.388605	1.089337
C102	C	1.642179	0.111395	1.589337
H103	H	0.717485	-0.243255	0.243591
H104	H	1.217485	0.256745	0.743591
H105	H	0.567690	-0.533983	0.533309
H106	H	1.067690	-0.033983	1.033309
Cl107	Cl	0.549428	-0.220399	0.220817
Cl108	Cl	1.049428	0.279601	0.720817
H109	H	0.841294	-0.294878	0.295054
H110	H	1.341294	0.205122	0.795054
Cl111	Cl	0.425591	-0.505237	0.504638
Cl112	Cl	0.925591	-0.005237	1.004638
H113	H	0.443878	-0.294938	0.295095
H114	H	0.943878	0.205062	0.795095
Cl115	Cl	0.735733	-0.556841	0.556108
Cl116	Cl	1.235733	-0.056841	1.056108
H117	H	0.841283	-0.482297	0.481822
H118	H	1.341283	0.017703	0.981822
