data_functionalizedCrystal
_audit_creation_method	'MofGen! by Chris Wilmer'
_symmetry_space_group_name_H-M	'P1'
_symmetry_Int_Tables_number	1
_symmetry_cell_setting	triclinic
loop_
_symmetry_equiv_pos_as_xyz
  x,y,z
_cell_length_a	10.686220
_cell_length_b	16.625545
_cell_length_c	10.686551
_cell_angle_alpha	85.592418
_cell_angle_beta	89.691918
_cell_angle_gamma	85.594161
loop_
_atom_site_label
_atom_site_type_symbol
_atom_site_fract_x
_atom_site_fract_y
_atom_site_fract_z
Zn1	Zn	1.972238	0.196578	0.562376
Zn2	Zn	2.472238	0.696578	1.062376
Zn3	Zn	1.955972	0.342520	0.352610
Zn4	Zn	2.455972	0.842520	0.852610
Zn5	Zn	1.746351	0.217205	0.368692
Zn6	Zn	2.246351	0.717205	0.868692
Zn7	Zn	1.762403	0.340886	0.578387
Zn8	Zn	2.262403	0.840886	1.078387
O9	O	1.859241	0.274297	0.465516
O10	O	2.359241	0.774297	0.965516
O11	O	2.145624	0.207989	0.521118
O12	O	2.645624	0.707989	1.021118
O13	O	1.914641	0.335213	0.179197
O14	O	2.414641	0.835213	0.679197
O15	O	1.776406	0.101630	0.394415
O16	O	2.276406	0.601630	0.894415
O17	O	2.133674	0.315212	0.367004
O18	O	2.633674	0.815212	0.867004
O19	O	1.942364	0.086476	0.536713
O20	O	2.442364	0.586476	1.036713
O21	O	1.760633	0.243144	0.191013
O22	O	2.260633	0.743144	0.691013
O23	O	1.572937	0.241560	0.409940
O24	O	2.072937	0.741560	0.909940
O25	O	1.803763	0.312427	0.751809
O26	O	2.303763	0.812427	1.251809
O27	O	1.584730	0.332428	0.564002
O28	O	2.084730	0.832428	1.064002
O29	O	1.957928	0.206405	0.740046
O30	O	2.457928	0.706405	1.240046
O31	O	1.930205	0.455142	0.382530
O32	O	2.430205	0.955142	0.882530
O33	O	1.787990	0.453941	0.548408
O34	O	2.287990	0.953941	1.048408
C35	C	1.533317	0.289055	0.490455
C36	C	2.033317	0.789055	0.990455
C37	C	1.393887	0.295387	0.501153
C38	C	1.893887	0.795387	1.001153
C39	C	1.859110	0.483796	0.465486
C40	C	2.359110	0.983796	0.965486
C41	C	1.859172	0.573413	0.465506
C42	C	2.359172	1.073413	0.965506
C43	C	1.859389	0.901571	0.465640
C44	C	2.359389	1.401571	0.965640
C45	C	1.859325	0.810268	0.465607
C46	C	2.359325	1.310268	0.965607
C47	C	1.859279	0.737495	0.465573
C48	C	2.359279	1.237495	0.965573
C49	C	1.859218	0.646186	0.465540
C50	C	2.359218	1.146186	0.965540
C51	C	2.186438	0.259482	0.440481
C52	C	2.686438	0.759482	0.940481
C53	C	2.325870	0.253169	0.429813
C54	C	2.825870	0.753169	0.929813
C55	C	1.884450	0.256933	0.792717
C56	C	2.384450	0.756933	1.292717
C57	C	1.895193	0.249533	0.932151
C58	C	2.395193	0.749533	1.432151
C59	C	1.859399	1.063977	0.465587
C60	C	2.359399	1.563977	0.965587
C61	C	1.859442	0.974350	0.465657
C62	C	2.359442	1.474350	0.965657
C63	C	1.834202	0.291532	0.139583
C64	C	2.334202	0.791532	0.639583
C65	C	1.823703	0.298694	0.000131
C66	C	2.323703	0.798694	0.500131
H67	H	1.345445	0.336382	0.570413
H68	H	1.845445	0.836382	1.070413
H69	H	1.754282	0.346446	0.951661
H70	H	2.254282	0.846446	1.451661
H71	H	1.964627	0.201784	0.980627
H72	H	2.464627	0.701784	1.480627
H73	H	1.374306	0.212181	0.360549
H74	H	1.874306	0.712181	0.860549
