data_functionalizedCrystal
_audit_creation_method	'MofGen! by Chris Wilmer'
_symmetry_space_group_name_H-M	'P1'
_symmetry_Int_Tables_number	1
_symmetry_cell_setting	triclinic
loop_
_symmetry_equiv_pos_as_xyz
  x,y,z
_cell_length_a	13.635800
_cell_length_b	11.353959
_cell_length_c	9.582880
_cell_angle_alpha	77.990090
_cell_angle_beta	111.207034
_cell_angle_gamma	72.473377
loop_
_atom_site_label
_atom_site_type_symbol
_atom_site_fract_x
_atom_site_fract_y
_atom_site_fract_z
V1	V	2.082922	-0.180297	0.513582
O2	O	2.049933	0.009232	0.455314
O3	O	2.082655	-0.358045	0.556707
O4	O	2.077897	-0.177275	0.716295
O5	O	2.054724	-0.172790	0.294620
V6	V	2.319150	-0.157657	0.481727
O7	O	2.225689	-0.229961	0.583458
O8	O	2.401482	-0.107993	0.411850
O9	O	2.207815	0.020091	0.438602
O10	O	2.410838	-0.347185	0.539995
O11	O	2.406047	-0.165164	0.700688
O12	O	2.212573	-0.160679	0.279013
V13	V	2.582922	-0.180297	0.513582
O14	O	2.549933	0.009232	0.455314
O15	O	2.582655	-0.358045	0.556707
O16	O	2.577897	-0.177275	0.716295
O17	O	2.554724	-0.172790	0.294620
V18	V	2.819150	-0.157657	0.481727
O19	O	2.725689	-0.229961	0.583458
O20	O	2.901482	-0.107993	0.411850
O21	O	2.707815	0.020091	0.438602
O22	O	2.910838	-0.347185	0.539995
O23	O	2.906047	-0.165164	0.700688
O24	O	2.712573	-0.160679	0.279013
C25	C	2.010357	-0.401384	0.560639
C26	C	2.050909	-0.546693	0.597250
C27	C	2.034927	-0.593892	0.478748
C28	C	2.076839	-0.744076	0.516585
C29	C	2.004286	-0.170792	0.764207
C30	C	2.040978	-0.169497	0.930233
C31	C	2.111784	0.063423	0.434668
C32	C	2.060852	0.208731	0.398067
C33	C	2.117854	-0.167166	0.231094
C34	C	2.070781	-0.168455	0.065066
C35	C	2.510357	-0.401384	0.560639
C36	C	2.550909	-0.546693	0.597250
C37	C	2.504286	-0.170792	0.764207
C38	C	2.540978	-0.169497	0.930233
C39	C	2.611784	0.063423	0.434668
C40	C	2.560852	0.208731	0.398067
C41	C	2.617854	-0.167166	0.231094
C42	C	2.570781	-0.168455	0.065066
C43	C	2.662648	-0.621588	0.623654
C44	C	2.700772	-0.758125	0.658078
C45	C	2.627152	-0.819764	0.666085
C46	C	2.515404	-0.744860	0.639682
C47	C	2.477285	-0.608326	0.605271
C48	C	2.621607	0.283625	0.371667
C49	C	2.573756	0.420161	0.337250
C50	C	2.465153	0.481800	0.329246
C51	C	2.404394	0.406896	0.355645
C52	C	2.452241	0.270364	0.390049
H53	H	1.990221	-0.523115	0.349285
H54	H	2.121556	-0.814850	0.646058
Br55	Br	2.415503	-0.828532	0.650550
H56	H	2.658205	-0.930939	0.694107
Br57	Br	2.325628	-0.506698	0.569428
Br58	Br	2.125444	-0.664648	0.813042
H59	H	2.016143	-0.720497	0.268593
Br60	Br	2.769000	0.200004	0.382523
H61	H	2.426206	0.592975	0.301230
H62	H	2.722607	-0.571419	0.617130
Br63	Br	2.852429	-0.859752	0.693898
Br64	Br	2.257000	0.490571	0.344763
Br65	Br	2.656235	0.521787	0.301430
H66	H	2.402762	0.209393	0.411556
