data_functionalizedCrystal
_audit_creation_method	'MofGen! by Chris Wilmer'
_symmetry_space_group_name_H-M	'P1'
_symmetry_Int_Tables_number	1
_symmetry_cell_setting	triclinic
loop_
_symmetry_equiv_pos_as_xyz
  x,y,z
_cell_length_a	12.645331
_cell_length_b	12.645330
_cell_length_c	12.645324
_cell_angle_alpha	89.968234
_cell_angle_beta	89.977038
_cell_angle_gamma	90.016671
loop_
_atom_site_label
_atom_site_type_symbol
_atom_site_fract_x
_atom_site_fract_y
_atom_site_fract_z
Zn1	Zn	1.620734	-0.421988	-0.599446
Zn2	Zn	1.620615	-0.599297	-0.422186
Zn3	Zn	1.443448	-0.422045	-0.422191
Zn4	Zn	1.443431	-0.599206	-0.599402
O5	O	1.532057	-0.510634	-0.510806
O6	O	1.769066	-0.445522	-0.575949
O7	O	1.597071	-0.575846	-0.273840
O8	O	1.467023	-0.273690	-0.445724
O9	O	1.768978	-0.575791	-0.445717
O10	O	1.597274	-0.273648	-0.575953
O11	O	1.466907	-0.445620	-0.273843
O12	O	1.295098	-0.445532	-0.445681
O13	O	1.466993	-0.575636	-0.747755
O14	O	1.295086	-0.575692	-0.575877
O15	O	1.597257	-0.445434	-0.747788
O16	O	1.597054	-0.747632	-0.445674
O17	O	1.466877	-0.747566	-0.575873
C18	C	1.256627	-0.510609	-0.510776
C19	C	1.138797	-0.510624	-0.510788
C20	C	0.971206	-0.428363	-0.429333
C21	C	1.093766	-0.428576	-0.428974
C22	C	1.094277	-0.622301	-0.480273
C23	C	0.971678	-0.621852	-0.479717
C24	C	0.971648	-0.482269	-0.623072
C25	C	1.094254	-0.479774	-0.622448
C26	C	1.531980	-0.786064	-0.510791
C27	C	1.532044	-0.903894	-0.510821
C28	C	1.450487	-1.071460	-0.592982
C29	C	1.450070	-0.948901	-0.592717
C30	C	1.501798	-0.948501	-0.399099
C31	C	1.501300	-1.071099	-0.399597
C32	C	1.644345	-1.070982	-0.539475
C33	C	1.643657	-0.948374	-0.541918
C34	C	1.808562	-0.510660	-0.510838
C35	C	1.926392	-0.510671	-0.510851
C36	C	1.532136	-0.510519	-0.787312
C37	C	1.532170	-0.510470	-0.905142
C38	C	1.532164	-0.234129	-0.510844
C39	C	1.532209	-0.116299	-0.510861
C40	C	1.614439	-0.428797	-1.072727
C41	C	1.614175	-0.428502	-0.950167
C42	C	1.420488	-0.480110	-0.949620
C43	C	1.420988	-0.479490	-1.072218
C44	C	1.560678	-0.622622	-1.072340
C45	C	1.563121	-0.622058	-0.949734
C46	C	1.532039	-0.510672	-0.235377
C47	C	1.532210	-0.510423	-0.117547
H48	H	0.942670	-0.542218	-0.683810
H49	H	0.941742	-0.345301	-0.448254
Br50	Br	1.364676	-1.118929	-0.359193
H51	H	1.559433	-0.919351	-0.336240
Br52	Br	1.750492	-0.897293	-0.449496
Br53	Br	1.312796	-1.122991	-0.561817
Br54	Br	0.920157	-0.348904	-0.669326
Br55	Br	0.919766	-0.459279	-0.291545
H56	H	1.357636	-0.536356	-1.101866
H57	H	0.942034	-0.685254	-0.536502
Br58	Br	1.142780	-0.342808	-0.660816
H59	H	1.468994	-0.918737	-0.675558
Br60	Br	1.379529	-0.344931	-0.898472
Br61	Br	1.380711	-0.342808	-1.119909
H62	H	1.507584	-0.686148	-0.919082
Br63	Br	1.366594	-0.897491	-0.357961
H64	H	1.123043	-0.447349	-0.345814
Br65	Br	1.481731	-1.120467	-0.731515
Br66	Br	1.700114	-0.660214	-0.901295
H67	H	1.366938	-0.919667	-0.573760
H68	H	1.666466	-0.919214	-0.624140
Br69	Br	1.596189	-1.120551	-0.294132
Br70	Br	1.583436	-0.291030	-1.124100
Br71	Br	1.142874	-0.727251	-0.576135
Br72	Br	1.690333	-1.122374	-0.672952
Br73	Br	1.745829	-1.119331	-0.439803
H74	H	1.124912	-0.535349	-0.686433
Br75	Br	0.923927	-0.661992	-0.342981
H76	H	1.696989	-0.447515	-0.920096
H77	H	1.697527	-0.447571	-1.102219
H78	H	1.640693	-0.650261	-1.103325
Br79	Br	1.143942	-0.290549	-0.460852
Br80	Br	1.582760	-0.289971	-0.901299
H81	H	1.357554	-0.537735	-0.920453
H82	H	1.500792	-0.683442	-1.101332
Br83	Br	1.145364	-0.663138	-0.345003
