data_functionalizedCrystal
_audit_creation_method	'MofGen! by Chris Wilmer'
_symmetry_space_group_name_H-M	'P1'
_symmetry_Int_Tables_number	1
_symmetry_cell_setting	triclinic
loop_
_symmetry_equiv_pos_as_xyz
  x,y,z
_cell_length_a	19.805407
_cell_length_b	19.805406
_cell_length_c	19.805399
_cell_angle_alpha	89.984242
_cell_angle_beta	90.018378
_cell_angle_gamma	90.001047
loop_
_atom_site_label
_atom_site_type_symbol
_atom_site_fract_x
_atom_site_fract_y
_atom_site_fract_z
Zn1	Zn	-1.034842	-0.269488	-0.382809
Zn2	Zn	-0.701509	0.063846	-0.049476
Zn3	Zn	-0.368175	0.397179	0.283858
Zn4	Zn	-1.034815	-0.382679	-0.269647
Zn5	Zn	-0.701481	-0.049346	0.063687
Zn6	Zn	-0.368148	0.283988	0.397020
Zn7	Zn	-0.921662	-0.269507	-0.269630
Zn8	Zn	-0.588329	0.063826	0.063703
Zn9	Zn	-0.254995	0.397160	0.397036
Zn10	Zn	-0.921673	-0.382638	-0.382791
Zn11	Zn	-0.588339	-0.049305	-0.049457
Zn12	Zn	-0.255006	0.284029	0.283876
O13	O	-0.978248	-0.326078	-0.326219
O14	O	-0.644914	0.007255	0.007114
O15	O	-0.311581	0.340589	0.340448
O16	O	-1.129555	-0.284512	-0.367812
O17	O	-0.796222	0.048822	-0.034479
O18	O	-0.462888	0.382155	0.298855
O19	O	-1.019789	-0.367692	-0.174928
O20	O	-0.686455	-0.034358	0.158405
O21	O	-0.353122	0.298975	0.491739
O22	O	-0.936683	-0.174788	-0.284645
O23	O	-0.603350	0.158545	0.048689
O24	O	-0.270016	0.491879	0.382022
O25	O	-1.129535	-0.367673	-0.284672
O26	O	-0.796201	-0.034339	0.048661
O27	O	-0.462868	0.298994	0.381994
O28	O	-1.019836	-0.174774	-0.367796
O29	O	-0.686502	0.158560	-0.034463
O30	O	-0.353169	0.491893	0.298870
O31	O	-0.936656	-0.284545	-0.174916
O32	O	-0.603323	0.048789	0.158417
O33	O	-0.269989	0.382122	0.491751
O34	O	-0.826947	-0.284505	-0.284627
O35	O	-0.493614	0.048828	0.048706
O36	O	-0.160280	0.382161	0.382040
O37	O	-0.936701	-0.367603	-0.477510
O38	O	-0.603367	-0.034270	-0.144176
O39	O	-0.270034	0.299063	0.189157
O40	O	-0.826955	-0.367622	-0.367765
O41	O	-0.493621	-0.034289	-0.034432
O42	O	-0.160288	0.299045	0.298902
O43	O	-1.019846	-0.284472	-0.477523
O44	O	-0.686513	0.048861	-0.144190
O45	O	-0.353179	0.382195	0.189144
O46	O	-1.019799	-0.477390	-0.284655
O47	O	-0.686465	-0.144057	0.048679
O48	O	-0.353132	0.189277	0.382012
O49	O	-0.936674	-0.477360	-0.367781
O50	O	-0.603341	-0.144027	-0.034448
O51	O	-0.270007	0.189307	0.298886
C52	C	-0.802392	-0.326062	-0.326193
C53	C	-0.469058	0.007271	0.007141
C54	C	-0.135725	0.340605	0.340474
C55	C	-0.727160	-0.326071	-0.326197
C56	C	-0.393826	0.007262	0.007136
C57	C	-0.060493	0.340595	0.340469
C58	C	-0.978253	-0.501934	-0.326232
C59	C	-0.644919	-0.168601	0.007101
C60	C	-0.311586	0.164733	0.340434
C61	C	-0.978317	-0.577166	-0.326261
C62	C	-0.644984	-0.243833	0.007073
C63	C	-0.311650	0.089501	0.340406
C64	C	-0.978277	-0.326031	-0.502762
C65	C	-0.644944	0.007302	-0.169429
C66	C	-0.311611	0.340636	0.163905
C67	C	-0.978290	-0.326011	-0.577994
C68	C	-0.644957	0.007322	-0.244661
C69	C	-0.311623	0.340656	0.088673
C70	C	-0.691837	-0.369415	-0.369417
C71	C	-0.358504	-0.036081	-0.036083
C72	C	-0.025171	0.297252	0.297250
C73	C	-0.621149	-0.369415	-0.369424
C74	C	-0.287816	-0.036081	-0.036091
C75	C	0.045518	0.297252	0.297242
C76	C	-0.585784	-0.326074	-0.326209
C77	C	-0.252451	0.007259	0.007124
C78	C	0.080882	0.340593	0.340458
C79	C	-0.621112	-0.282726	-0.282988
C80	C	-0.287778	0.050607	0.050345
C81	C	0.045555	0.383941	0.383679
C82	C	-0.691799	-0.282723	-0.282984
C83	C	-0.358465	0.050610	0.050349
C84	C	-0.025132	0.383944	0.383683
C85	C	-0.336038	-0.282736	-0.283003
C86	C	-0.002705	0.050598	0.050330
C87	C	0.330628	0.383931	0.383664
C88	C	-0.265346	-0.282743	-0.283009
C89	C	0.067987	0.050590	0.050325
C90	C	0.401320	0.383923	0.383658
C91	C	-0.265388	-0.369427	-0.369443
C92	C	0.067945	-0.036094	-0.036110
C93	C	0.401278	0.297239	0.297224
C94	C	-0.336076	-0.369425	-0.369439
C95	C	-0.002742	-0.036091	-0.036106
C96	C	0.330591	0.297242	0.297227
C97	C	-0.371397	-0.326074	-0.326221
C98	C	-0.038064	0.007259	0.007112
C99	C	0.295270	0.340592	0.340446
C100	C	-0.448045	-0.326074	-0.326214
C101	C	-0.114712	0.007259	0.007119
C102	C	0.218621	0.340593	0.340453
C103	C	-0.509137	-0.326077	-0.326212
C104	C	-0.175804	0.007256	0.007121
C105	C	0.157530	0.340589	0.340455
C106	C	-0.154791	-0.326090	-0.326240
C107	C	0.178543	0.007243	0.007094
C108	C	0.511876	0.340577	0.340427
C109	C	-0.230022	-0.326084	-0.326232
C110	C	0.103311	0.007249	0.007102
C111	C	0.436644	0.340583	0.340435
C112	C	-0.978261	-0.149535	-0.326221
C113	C	-0.644928	0.183798	0.007113
C114	C	-0.311595	0.517131	0.340446
C115	C	-0.978267	-0.074303	-0.326221
C116	C	-0.644934	0.259030	0.007112
C117	C	-0.311600	0.592363	0.340445
C118	C	-0.934979	-0.038965	-0.282931
C119	C	-0.601646	0.294368	0.050403
C120	C	-0.268312	0.627701	0.383736
C121	C	-0.934983	0.031723	-0.282938
C122	C	-0.601650	0.365056	0.050395
C123	C	-0.268317	0.698390	0.383729
C124	C	-0.978279	0.067072	-0.326233
C125	C	-0.644946	0.400406	0.007100
C126	C	-0.311613	0.733739	0.340433
C127	C	-1.021569	0.031730	-0.369529
C128	C	-0.688236	0.365063	-0.036196
C129	C	-0.354903	0.698396	0.297138
C130	C	-1.021561	-0.038958	-0.369524
C131	C	-0.688228	0.294376	-0.036191
C132	C	-0.354894	0.627709	0.297142
C133	C	-1.021602	0.316803	-0.369549
C134	C	-0.688269	0.650136	-0.036215
C135	C	-0.354936	0.983470	0.297118
C136	C	-1.021609	0.387495	-0.369549
C137	C	-0.688275	0.720828	-0.036215
C138	C	-0.354942	1.054162	0.297118
C139	C	-0.935025	0.387483	-0.282962
C140	C	-0.601691	0.720817	0.050371
C141	C	-0.268358	1.054150	0.383704
C142	C	-0.935017	0.316796	-0.282958
C143	C	-0.601683	0.650130	0.050376
C144	C	-0.268350	0.983463	0.383709
C145	C	-0.978304	0.281460	-0.326256
C146	C	-0.644970	0.614793	0.007078
C147	C	-0.311637	0.948126	0.340411
C148	C	-0.978297	0.204811	-0.326248
C149	C	-0.644964	0.538145	0.007085
C150	C	-0.311631	0.871478	0.340419
C151	C	-0.978289	0.143719	-0.326238
C152	C	-0.644956	0.477053	0.007095
C153	C	-0.311623	0.810386	0.340429
C154	C	-0.935015	-0.282712	-0.613331
C155	C	-0.601682	0.050621	-0.279998
C156	C	-0.268349	0.383954	0.053335
C157	C	-0.935025	-0.282699	-0.684020
C158	C	-0.601691	0.050634	-0.350687
C159	C	-0.268358	0.383967	-0.017353
C160	C	-0.978313	-0.325982	-0.719370
C161	C	-0.644979	0.007352	-0.386036
C162	C	-0.311646	0.340685	-0.052703
C163	C	-1.021589	-0.369285	-0.684027
C164	C	-0.688256	-0.035952	-0.350694
C165	C	-0.354923	0.297382	-0.017361
C166	C	-1.021576	-0.369301	-0.613340
C167	C	-0.688243	-0.035968	-0.280007
C168	C	-0.354909	0.297365	0.053327
C169	C	-1.021643	-0.369222	-0.969101
C170	C	-0.688310	-0.035888	-0.635767
C171	C	-0.354976	0.297445	-0.302434
C172	C	-1.021654	-0.369201	-1.039793
C173	C	-0.688321	-0.035868	-0.706459
C174	C	-0.354988	0.297466	-0.373126
C175	C	-0.935091	-0.282620	-1.039780
C176	C	-0.601758	0.050714	-0.706447
C177	C	-0.268425	0.384047	-0.373114
C178	C	-0.935078	-0.282636	-0.969093
C179	C	-0.601745	0.050697	-0.635760
C180	C	-0.268412	0.384031	-0.302427
C181	C	-0.978352	-0.325941	-0.933757
C182	C	-0.645019	0.007392	-0.600424
C183	C	-0.311685	0.340725	-0.267090
C184	C	-0.978341	-0.325956	-0.857109
C185	C	-0.645007	0.007377	-0.523775
C186	C	-0.311674	0.340711	-0.190442
C187	C	-0.978328	-0.325964	-0.796017
C188	C	-0.644995	0.007369	-0.462683
C189	C	-0.311661	0.340703	-0.129350
C190	C	-0.978257	-0.326076	-0.150363
C191	C	-0.644924	0.007257	0.182970
C192	C	-0.311591	0.340591	0.516303
C193	C	-0.978376	-0.325905	-0.075132
C194	C	-0.645042	0.007428	0.258202
C195	C	-0.311709	0.340761	0.591535
H196	H	-0.720626	-0.404710	-0.404605
H197	H	-0.387293	-0.071377	-0.071272
H198	H	-0.053960	0.261957	0.262061
H199	H	-0.592393	-0.404710	-0.404617
H200	H	-0.259059	-0.071377	-0.071284
H201	H	0.074274	0.261957	0.262050
Cl202	Cl	-0.380530	-0.423914	-0.423767
Cl203	Cl	-0.047197	-0.090581	-0.090433
Cl204	Cl	0.286136	0.242752	0.242900
H205	H	-0.592312	-0.247434	-0.247804
H206	H	-0.258979	0.085899	0.085529
H207	H	0.074355	0.419232	0.418862
Cl208	Cl	-0.220888	-0.228253	-0.228678
Cl209	Cl	0.112445	0.105081	0.104656
Cl210	Cl	0.445778	0.438414	0.437989
H211	H	-0.720557	-0.247425	-0.247794
H212	H	-0.387224	0.085909	0.085539
H213	H	-0.053891	0.419242	0.418872
Cl214	Cl	-1.075982	-0.083382	-0.423951
Cl215	Cl	-0.742648	0.249951	-0.090617
Cl216	Cl	-0.409315	0.583284	0.242716
H217	H	-0.899725	-0.067742	-0.247672
H218	H	-0.566391	0.265591	0.085661
H219	H	-0.233058	0.598925	0.418995
H220	H	-0.364788	-0.247442	-0.247807
H221	H	-0.031455	0.085891	0.085527
H222	H	0.301878	0.419224	0.418860
Cl223	Cl	-0.880553	0.076145	-0.228522
Cl224	Cl	-0.547219	0.409478	0.104812
Cl225	Cl	-0.213886	0.742811	0.438145
H226	H	-0.899783	-0.247444	-0.712788
H227	H	-0.566450	0.085890	-0.379455
H228	H	-0.233117	0.419223	-0.046122
Cl229	Cl	-1.076041	0.431933	-0.423982
Cl230	Cl	-0.742708	0.765267	-0.090649
Cl231	Cl	-0.409375	1.098600	0.242684
Cl232	Cl	-1.076005	-0.423702	-0.728467
Cl233	Cl	-0.742672	-0.090369	-0.395134
Cl234	Cl	-0.409338	0.242965	-0.061800
Cl235	Cl	-1.076014	0.272389	-0.423987
Cl236	Cl	-0.742681	0.605722	-0.090653
Cl237	Cl	-0.409348	0.939056	0.242680
Cl238	Cl	-0.880686	-0.228180	-1.084207
Cl239	Cl	-0.547353	0.105153	-0.750874
Cl240	Cl	-0.214020	0.438487	-0.417541
H241	H	-0.899763	0.288018	-0.247700
H242	H	-0.566429	0.621352	0.085633
H243	H	-0.233096	0.954685	0.418967
Cl244	Cl	-1.076077	-0.423619	-1.084232
Cl245	Cl	-0.742743	-0.090285	-0.750898
Cl246	Cl	-0.409410	0.243048	-0.417565
Cl247	Cl	-1.075992	0.076169	-0.423965
Cl248	Cl	-0.742659	0.409502	-0.090631
Cl249	Cl	-0.409326	0.742836	0.242702
H250	H	-0.899769	-0.247463	-0.584555
H251	H	-0.566436	0.085871	-0.251221
H252	H	-0.233102	0.419204	0.082112
Cl253	Cl	-0.880603	0.431911	-0.228533
Cl254	Cl	-0.547270	0.765244	0.104801
Cl255	Cl	-0.213936	1.098578	0.438134
Cl256	Cl	-0.880659	-0.228219	-0.924657
Cl257	Cl	-0.547326	0.105114	-0.591324
Cl258	Cl	-0.213992	0.438447	-0.257991
Cl259	Cl	-1.076050	-0.423658	-0.924687
Cl260	Cl	-0.742717	-0.090325	-0.591354
Cl261	Cl	-0.409383	0.243009	-0.258021
H262	H	-0.236621	-0.404723	-0.404636
H263	H	0.096712	-0.071390	-0.071303
H264	H	0.430045	0.261944	0.262031
Cl265	Cl	-1.075978	-0.423739	-0.568916
Cl266	Cl	-0.742645	-0.090406	-0.235582
Cl267	Cl	-0.409312	0.242928	0.097751
