data_functionalizedCrystal
_audit_creation_method	'MofGen! by Chris Wilmer'
_symmetry_space_group_name_H-M	'P1'
_symmetry_Int_Tables_number	1
_symmetry_cell_setting	triclinic
loop_
_symmetry_equiv_pos_as_xyz
  x,y,z
_cell_length_a	6.817900
_cell_length_b	15.300992
_cell_length_c	17.078481
_cell_angle_alpha	96.105750
_cell_angle_beta	99.306161
_cell_angle_gamma	104.175078
loop_
_atom_site_label
_atom_site_type_symbol
_atom_site_fract_x
_atom_site_fract_y
_atom_site_fract_z
V1	V	-3.983043	-0.124547	-0.247600
O2	O	-3.967876	0.006202	-0.242641
O3	O	-3.938238	-0.247165	-0.246143
O4	O	-3.914034	-0.122537	-0.355479
O5	O	-3.992247	-0.119289	-0.132548
V6	V	-4.468876	-0.108920	-0.233810
O7	O	-4.239235	-0.158828	-0.277849
O8	O	-4.662881	-0.074639	-0.203561
O9	O	-4.290474	0.013698	-0.235267
O10	O	-4.601440	-0.239669	-0.238769
O11	O	-4.577069	-0.114177	-0.348862
O12	O	-4.314679	-0.110930	-0.125931
C13	C	-3.784780	-0.277059	-0.242298
C14	C	-3.829296	-0.377300	-0.241826
C15	C	-3.823453	-0.411578	-0.168927
C16	C	-3.865300	-0.505766	-0.168486
C17	C	-3.912975	-0.565674	-0.240945
C18	C	-3.918823	-0.531390	-0.313850
C19	C	-3.876991	-0.437205	-0.314290
C20	C	-4.006008	-0.727702	-0.312927
C21	C	-4.047839	-0.821895	-0.312486
C22	C	-3.994317	-0.796263	-0.167123
C23	C	-3.952485	-0.702078	-0.167563
C24	C	-3.958332	-0.667801	-0.240468
C25	C	-3.753905	-0.118082	-0.381766
C26	C	-3.778789	-0.117250	-0.469959
C27	C	-3.971944	-0.121360	-0.515443
C28	C	-3.995314	-0.120577	-0.598310
C29	C	-3.825529	-0.115690	-0.635692
C30	C	-3.632357	-0.111577	-0.590202
C31	C	-3.608987	-0.112354	-0.507336
C32	C	-3.875963	-0.112879	-0.883090
C33	C	-3.899350	-0.112106	-0.965962
C34	C	-4.262305	-0.121104	-0.974064
C35	C	-4.238920	-0.121885	-0.891197
C36	C	-4.045749	-0.117767	-0.845713
N37	N	-3.849414	-0.114892	-0.720395
N38	N	-4.021864	-0.118559	-0.761011
C39	C	-4.107275	0.043588	-0.239110
C40	C	-4.041996	0.143828	-0.239587
C41	C	-4.138151	-0.115387	-0.099640
C42	C	-4.092505	-0.116216	-0.011446
H43	H	-3.913654	-0.653302	-0.108560
O44	O	-3.772018	-0.346963	-0.090774
H45	H	-3.775001	-0.386627	-0.040010
H46	H	-3.860544	-0.533669	-0.109124
H47	H	-3.451691	-0.108984	-0.470301
O48	O	-3.883331	-0.400170	-0.392890
H49	H	-3.768497	-0.420909	-0.424728
H50	H	-3.718690	-0.109558	-0.846071
O51	O	-3.449149	-0.106358	-0.630464
H52	H	-3.420809	-0.044072	-0.659457
O53	O	-3.988024	-0.833225	-0.088486
H54	H	-4.025148	-0.908783	-0.100350
O55	O	-4.099289	-0.886516	-0.390636
H56	H	-4.096363	-0.846861	-0.441406
O57	O	-4.012296	-0.690726	-0.391557
H58	H	-4.052448	-0.748205	-0.441869
O59	O	-4.203635	-0.124990	-0.647368
H60	H	-4.317771	-0.128523	-0.607452
O61	O	-3.970267	-0.596002	-0.392004
H62	H	-3.854903	-0.636094	-0.392322
H63	H	-4.110209	-0.125345	-0.485014
H64	H	-4.377180	-0.125864	-0.860766
H65	H	-4.419577	-0.124455	-1.011105
H66	H	-3.761079	-0.108123	-0.996396
