data_functionalizedCrystal
_audit_creation_method	'MofGen! by Chris Wilmer'
_symmetry_space_group_name_H-M	'P1'
_symmetry_Int_Tables_number	1
_symmetry_cell_setting	triclinic
loop_
_symmetry_equiv_pos_as_xyz
  x,y,z
_cell_length_a	15.944551
_cell_length_b	12.837942
_cell_length_c	11.892095
_cell_angle_alpha	85.697431
_cell_angle_beta	93.894845
_cell_angle_gamma	89.163839
loop_
_atom_site_label
_atom_site_type_symbol
_atom_site_fract_x
_atom_site_fract_y
_atom_site_fract_z
O1	O	-1.130053	-0.127078	-0.093883
O2	O	-0.886824	-0.143559	-0.093911
O3	O	-1.003045	0.015584	-0.093891
O4	O	-1.013832	-0.286221	-0.093904
O5	O	-0.993353	0.002336	0.094115
O6	O	-0.877132	-0.156808	0.094095
O7	O	-1.120361	-0.140326	0.094122
Zn8	Zn	-0.997208	-0.150670	0.123958
Zn9	Zn	-1.009977	-0.133215	-0.123747
O10	O	-1.004140	-0.299470	0.094102
C11	C	-0.850629	-0.149499	0.000088
C12	C	-0.757219	-0.147447	0.000078
C13	C	-0.994555	0.047581	0.000111
C14	C	-0.983687	0.162659	0.000108
C15	C	-1.156556	-0.134386	0.000121
C16	C	-1.249966	-0.136438	0.000124
C17	C	-0.534078	-0.043899	0.000104
C18	C	-0.481683	-0.085452	-0.092595
C19	C	-0.586196	-0.143736	0.000091
C20	C	-0.472152	-0.098537	0.092764
C21	C	-0.420995	-0.140145	0.000109
C22	C	-0.535035	-0.185310	-0.092684
C23	C	-0.525505	-0.198388	0.092758
C24	C	-0.473135	-0.240011	0.000036
C25	C	-0.681364	-0.145802	0.000080
C26	C	-0.325829	-0.138086	0.000112
C27	C	-1.012630	-0.331466	0.000098
C28	C	-1.023498	-0.446544	0.000094
N29	N	-0.988499	-0.162583	0.293011
C30	C	-1.114340	0.403609	0.000099
C31	C	-1.104133	0.511736	0.000096
C32	C	-0.953066	0.487042	0.000091
C33	C	-0.963274	0.378915	0.000094
C34	C	-1.043913	0.337203	0.000100
C35	C	-1.054119	0.229073	0.000111
C36	C	-0.903054	0.204382	0.000097
C37	C	-0.892846	0.312509	0.000094
N38	N	-1.018692	-0.121294	-0.292800
C39	C	-1.079287	-0.038343	0.529675
C40	C	-1.073206	-0.046677	0.648016
C41	C	-0.970253	-0.187580	0.648036
C42	C	-0.976334	-0.179246	0.529695
C43	C	-1.030853	-0.104626	0.470519
C44	C	-1.036938	-0.096297	0.352176
C45	C	-0.933981	-0.237194	0.352198
C46	C	-0.927900	-0.245528	0.470539
H47	H	-0.560789	0.038966	-0.000007
C48	C	-1.138614	0.042488	0.465374
C49	C	-1.197952	-0.008015	0.397465
C50	C	-1.252635	0.066405	0.338236
H51	H	-1.107441	0.088965	0.419112
H52	H	-1.166643	0.080741	0.517533
H53	H	-1.169925	-0.046251	0.345313
H54	H	-1.229144	-0.054487	0.443700
H55	H	-1.280664	0.104659	0.390395
H56	H	-1.221455	0.112878	0.291980
H57	H	-1.292906	0.032149	0.292161
H58	H	-0.925858	-0.248327	0.696232
H59	H	-1.081333	-0.035541	0.303995
H60	H	-0.444646	-0.061814	0.171131
H61	H	-1.119779	0.195113	0.000120
H62	H	-0.446614	-0.322950	-0.000019
H63	H	-0.887414	0.521025	0.000074
H64	H	-0.462235	-0.037702	-0.170962
C65	C	-0.868792	-0.326511	0.534997
C66	C	-0.873846	-0.319642	0.651297
C67	C	-0.819417	-0.394240	0.710708
H68	H	-0.812787	-0.313932	0.515749
H69	H	-0.884459	-0.394363	0.515666
H70	H	-0.858174	-0.251807	0.670620
H71	H	-0.929838	-0.332232	0.670578
H72	H	-0.835085	-0.462091	0.691377
H73	H	-0.763417	-0.381654	0.691451
H74	H	-0.822845	-0.389595	0.789623
H75	H	-0.562443	-0.221977	-0.171139
C76	C	-1.125892	0.025349	0.712039
C77	C	-1.174950	0.092462	0.634881
C78	C	-1.223503	0.158823	0.693817
H79	H	-1.089938	0.065369	0.758214
H80	H	-1.161518	-0.015187	0.758173
H81	H	-1.139328	0.132994	0.588766
H82	H	-1.210921	0.052471	0.588704
H83	H	-1.259129	0.118287	0.739952
H84	H	-1.187542	0.198836	0.739990
H85	H	-1.256800	0.204361	0.641475
H86	H	-0.845706	0.150301	0.000106
C87	C	-0.551426	-0.261841	0.197389
C88	C	-0.519539	-0.216036	0.294192
C89	C	-0.543411	-0.274443	0.390608
H90	H	-0.529650	-0.331182	0.198212
H91	H	-0.611034	-0.263176	0.196310
H92	H	-0.459943	-0.214713	0.295271
H93	H	-0.541311	-0.146702	0.293407
H94	H	-0.603019	-0.275778	0.389529
H95	H	-0.521634	-0.343781	0.391419
H96	H	-0.521786	-0.243368	0.456300
C97	C	-0.881539	-0.309212	0.287829
C98	C	-0.934861	-0.367899	0.219869
C99	C	-0.886588	-0.434248	0.160548
H100	H	-0.848194	-0.354936	0.339899
H101	H	-0.845976	-0.268678	0.241600
H102	H	-0.970410	-0.408430	0.266095
H103	H	-0.968206	-0.322203	0.167779
H104	H	-0.851025	-0.393713	0.114318
H105	H	-0.853245	-0.479964	0.212626
H106	H	-0.922759	-0.474068	0.114423
C107	C	-1.201959	0.358518	0.000049
C108	C	-1.261455	0.439820	0.000024
C109	C	-1.342179	0.398326	-0.000039
H110	H	-1.205822	0.312249	0.065592
H111	H	-1.212502	0.321501	-0.065540
H112	H	-1.250915	0.476820	0.065607
H113	H	-1.257619	0.486096	-0.065514
H114	H	-1.352722	0.361309	-0.065628
H115	H	-1.346034	0.352057	0.065505
H116	H	-1.382558	0.453483	-0.000066
C117	C	-1.180579	0.583901	-0.000135
C118	C	-1.184126	0.653491	-0.096876
C119	C	-1.254546	0.719975	-0.097137
H120	H	-1.176438	0.622082	0.065349
H121	H	-1.230088	0.543609	-0.000193
H122	H	-1.134630	0.693778	-0.096807
H123	H	-1.188280	0.615338	-0.162375
H124	H	-1.304055	0.679683	-0.097195
H125	H	-1.250399	0.758149	-0.031649
H126	H	-1.256967	0.767193	-0.162779
H127	H	-0.827192	0.346487	0.000085
