data_functionalizedCrystal
_audit_creation_method	'MofGen! by Chris Wilmer'
_symmetry_space_group_name_H-M	'P1'
_symmetry_Int_Tables_number	1
_symmetry_cell_setting	triclinic
loop_
_symmetry_equiv_pos_as_xyz
  x,y,z
_cell_length_a	16.625548
_cell_length_b	16.625546
_cell_length_c	11.169409
_cell_angle_alpha	89.961577
_cell_angle_beta	89.976847
_cell_angle_gamma	90.023536
loop_
_atom_site_label
_atom_site_type_symbol
_atom_site_fract_x
_atom_site_fract_y
_atom_site_fract_z
Zn1	Zn	1.232701	-0.320913	-0.678599
Zn2	Zn	1.732701	0.179087	-0.178599
Zn3	Zn	1.232598	-0.455775	-0.477894
Zn4	Zn	1.732598	0.044225	0.022106
Zn5	Zn	1.097857	-0.320963	-0.477921
Zn6	Zn	1.597857	0.179037	0.022079
Zn7	Zn	1.097833	-0.455710	-0.678527
Zn8	Zn	1.597833	0.044290	-0.178527
O9	O	1.165247	-0.388340	-0.578235
O10	O	1.665247	0.111660	-0.078235
O11	O	1.345520	-0.338810	-0.651993
O12	O	1.845520	0.161190	-0.151993
O13	O	1.214691	-0.437940	-0.309948
O14	O	1.714691	0.062060	0.190052
O15	O	1.115797	-0.208124	-0.504583
O16	O	1.615797	0.291876	-0.004583
O17	O	1.345444	-0.437892	-0.504536
O18	O	1.845444	0.062108	-0.004536
O19	O	1.214867	-0.208087	-0.652019
O20	O	1.714867	0.291913	-0.152019
O21	O	1.115697	-0.338894	-0.309968
O22	O	1.615697	0.161106	0.190032
O23	O	0.985021	-0.338831	-0.504514
O24	O	1.485021	0.161169	-0.004514
O25	O	1.115757	-0.437781	-0.846487
O26	O	1.615757	0.062219	-0.346487
O27	O	0.985004	-0.437829	-0.651898
O28	O	1.485004	0.062171	-0.151898
O29	O	1.214844	-0.338746	-0.846539
O30	O	1.714844	0.161254	-0.346539
O31	O	1.214668	-0.568599	-0.504467
O32	O	1.714668	-0.068599	-0.004467
O33	O	1.115657	-0.568551	-0.651872
O34	O	1.615657	-0.068551	-0.151872
C35	C	0.955756	-0.388329	-0.578202
C36	C	1.455756	0.111671	-0.078202
C37	C	0.866135	-0.388343	-0.578216
C38	C	1.366135	0.111657	-0.078216
C39	C	0.537960	-0.388349	-0.578267
C40	C	1.037960	0.111651	-0.078267
C41	C	0.629268	-0.388345	-0.578249
C42	C	1.129268	0.111655	-0.078249
C43	C	0.702045	-0.388346	-0.578241
C44	C	1.202045	0.111654	-0.078241
C45	C	0.793359	-0.388342	-0.578224
C46	C	1.293359	0.111658	-0.078224
C47	C	1.165171	-0.597831	-0.578185
C48	C	1.665171	-0.097831	-0.078185
C49	C	1.165212	-0.687452	-0.578204
C50	C	1.665212	-0.187452	-0.078204
C51	C	1.165353	-1.015628	-0.578329
C52	C	1.665353	-0.515628	-0.078329
C53	C	1.165311	-0.924320	-0.578297
C54	C	1.665311	-0.424320	-0.078297
C55	C	1.165282	-0.851543	-0.578266
C56	C	1.665282	-0.351543	-0.078266
C57	C	1.165241	-0.760229	-0.578235
C58	C	1.665241	-0.260229	-0.078235
C59	C	1.375556	-0.388353	-0.578270
C60	C	1.875556	0.111647	-0.078270
C61	C	1.465177	-0.388358	-0.578284
C62	C	1.965177	0.111642	-0.078284
C63	C	1.165309	-0.388251	-0.891278
C64	C	1.665309	0.111749	-0.391278
C65	C	1.165336	-0.388213	-1.024678
C66	C	1.665336	0.111787	-0.524678
C67	C	1.165346	-0.178032	-0.578312
C68	C	1.665346	0.321968	-0.078312
C69	C	1.165388	-0.088410	-0.578345
C70	C	1.665388	0.411590	-0.078345
C71	C	1.165232	-0.388371	-0.266411
C72	C	1.665232	0.111629	0.233589
C73	C	1.165362	-0.388182	-0.133011
C74	C	1.665362	0.111818	0.366989
