data_functionalizedCrystal
_audit_creation_method	'MofGen! by Chris Wilmer'
_symmetry_space_group_name_H-M	'P1'
_symmetry_Int_Tables_number	1
_symmetry_cell_setting	triclinic
loop_
_symmetry_equiv_pos_as_xyz
  x,y,z
_cell_length_a	17.077404
_cell_length_b	16.625546
_cell_length_c	17.077396
_cell_angle_alpha	89.969785
_cell_angle_beta	89.980499
_cell_angle_gamma	90.022693
loop_
_atom_site_label
_atom_site_type_symbol
_atom_site_fract_x
_atom_site_fract_y
_atom_site_fract_z
Zn1	Zn	1.200057	-0.320997	-0.443833
Zn2	Zn	1.533390	0.012337	-0.110500
Zn3	Zn	1.866724	0.345670	0.222833
Zn4	Zn	1.199965	-0.455839	-0.312563
Zn5	Zn	1.533298	-0.122506	0.020770
Zn6	Zn	1.866632	0.210827	0.354103
Zn7	Zn	1.068789	-0.321025	-0.312581
Zn8	Zn	1.402122	0.012308	0.020752
Zn9	Zn	1.735455	0.345642	0.354085
Zn10	Zn	1.068758	-0.455792	-0.443787
Zn11	Zn	1.402091	-0.122458	-0.110454
Zn12	Zn	1.735424	0.210875	0.222880
O13	O	1.134392	-0.388413	-0.378191
O14	O	1.467725	-0.055080	-0.044858
O15	O	1.801059	0.278253	0.288476
O16	O	1.309892	-0.338892	-0.426432
O17	O	1.643225	-0.005559	-0.093099
O18	O	1.976558	0.327775	0.240235
O19	O	1.182539	-0.437988	-0.202719
O20	O	1.515872	-0.104655	0.130615
O21	O	1.849205	0.228679	0.463948
O22	O	1.086253	-0.208189	-0.330019
O23	O	1.419587	0.125144	0.003314
O24	O	1.752920	0.458478	0.336648
O25	O	1.309824	-0.437960	-0.329988
O26	O	1.643157	-0.104627	0.003345
O27	O	1.976491	0.228706	0.336678
O28	O	1.182695	-0.208168	-0.426449
O29	O	1.516029	0.125165	-0.093116
O30	O	1.849362	0.458499	0.240217
O31	O	1.086164	-0.338940	-0.202732
O32	O	1.419497	-0.005607	0.130601
O33	O	1.752831	0.327726	0.463935
O34	O	0.958938	-0.338894	-0.329974
O35	O	1.292271	-0.005561	0.003359
O36	O	1.625604	0.327773	0.336693
O37	O	1.086200	-0.437879	-0.553640
O38	O	1.419534	-0.104546	-0.220307
O39	O	1.752867	0.228788	0.113027
O40	O	0.958915	-0.437906	-0.426370
O41	O	1.292248	-0.104573	-0.093037
O42	O	1.625582	0.228760	0.240296
O43	O	1.182665	-0.338846	-0.553674
O44	O	1.515999	-0.005512	-0.220341
O45	O	1.849332	0.327821	0.112993
O46	O	1.182509	-0.568666	-0.329943
O47	O	1.515842	-0.235332	0.003390
O48	O	1.849175	0.098001	0.336723
O49	O	1.086111	-0.568630	-0.426353
O50	O	1.419444	-0.235297	-0.093020
O51	O	1.752778	0.098036	0.240314
C52	C	0.930444	-0.388399	-0.378169
C53	C	1.263778	-0.055065	-0.044836
C54	C	1.597111	0.278268	0.288497
C55	C	0.843194	-0.388412	-0.378179
C56	C	1.176528	-0.055078	-0.044845
C57	C	1.509861	0.278255	0.288488
C58	C	0.802213	-0.440045	-0.428292
C59	C	1.135546	-0.106712	-0.094959
C60	C	1.468880	0.226621	0.238375
C61	C	0.720232	-0.440047	-0.428304
C62	C	1.053566	-0.106714	-0.094971
C63	C	1.386899	0.226620	0.238362
C64	C	0.679235	-0.388419	-0.378199
C65	C	1.012568	-0.055085	-0.044866
C66	C	1.345902	0.278248	0.288467
C67	C	0.720222	-0.336780	-0.328084
C68	C	1.053556	-0.003446	0.005249
C69	C	1.386889	0.329887	0.338582
C70	C	0.802201	-0.336774	-0.328076
C71	C	1.135535	-0.003441	0.005257
C72	C	1.468868	0.329892	0.338590
C73	C	0.549352	-0.336795	-0.328103
C74	C	0.882686	-0.003462	0.005230
C75	C	1.216019	0.329871	0.338564
C76	C	0.467368	-0.336801	-0.328110
C77	C	0.800701	-0.003468	0.005224
C78	C	1.134034	0.329865	0.338557
C79	C	0.467383	-0.440068	-0.428331
C80	C	0.800717	-0.106735	-0.094998
C81	C	1.134050	0.226598	0.238335
C82	C	0.549362	-0.440063	-0.428323
C83	C	0.882696	-0.106730	-0.094990
C84	C	1.216029	0.226604	0.238343
C85	C	0.590344	-0.388425	-0.378207
C86	C	0.923677	-0.055091	-0.044873
C87	C	1.257011	0.278242	0.288460
C88	C	1.134318	-0.597904	-0.378158
C89	C	1.467651	-0.264571	-0.044825
C90	C	1.800984	0.068763	0.288508
C91	C	1.134358	-0.687525	-0.378170
C92	C	1.467691	-0.354192	-0.044837
C93	C	1.801024	-0.020859	0.288496
C94	C	1.134495	-1.015701	-0.378252
C95	C	1.467828	-0.682367	-0.044919
C96	C	1.801161	-0.349034	0.288414
C97	C	1.134454	-0.924392	-0.378232
C98	C	1.467787	-0.591059	-0.044898
C99	C	1.801121	-0.257726	0.288435
C100	C	1.134426	-0.851616	-0.378211
C101	C	1.467759	-0.518283	-0.044878
C102	C	1.801092	-0.184949	0.288456
C103	C	1.134386	-0.760302	-0.378191
C104	C	1.467720	-0.426968	-0.044858
C105	C	1.801053	-0.093635	0.288475
C106	C	1.339136	-0.388428	-0.378213
C107	C	1.672470	-0.055095	-0.044880
C108	C	2.005803	0.278238	0.288453
C109	C	1.426386	-0.388435	-0.378223
C110	C	1.759719	-0.055102	-0.044889
C111	C	2.093053	0.278232	0.288444
C112	C	1.134440	-0.388354	-0.582936
C113	C	1.467773	-0.055021	-0.249602
C114	C	1.801106	0.278313	0.083731
C115	C	1.134460	-0.388329	-0.670185
C116	C	1.467793	-0.054995	-0.336852
C117	C	1.801126	0.278338	-0.003519
C118	C	1.134488	-0.178104	-0.378241
C119	C	1.467821	0.155229	-0.044908
C120	C	1.801155	0.488562	0.288425
C121	C	1.134529	-0.088483	-0.378263
C122	C	1.467862	0.244850	-0.044929
C123	C	1.801196	0.578183	0.288404
C124	C	1.184691	-0.336758	-0.711195
C125	C	1.518024	-0.003424	-0.377861
C126	C	1.851358	0.329909	-0.044528
C127	C	1.184700	-0.336731	-0.793175
C128	C	1.518034	-0.003397	-0.459842
C129	C	1.851367	0.329936	-0.126508
C130	C	1.134482	-0.388280	-0.834145
C131	C	1.467815	-0.054946	-0.500812
C132	C	1.801149	0.278387	-0.167478
C133	C	1.084245	-0.439853	-0.793130
C134	C	1.417579	-0.106519	-0.459797
C135	C	1.750912	0.226814	-0.126463
C136	C	1.084233	-0.439875	-0.711151
C137	C	1.417566	-0.106541	-0.377818
C138	C	1.750899	0.226792	-0.044484
C139	C	1.084277	-0.439804	-0.964000
C140	C	1.417610	-0.106471	-0.630667
C141	C	1.750944	0.226862	-0.297333
C142	C	1.084291	-0.439783	-1.045985
C143	C	1.417624	-0.106450	-0.712651
C144	C	1.750957	0.226883	-0.379318
C145	C	1.184745	-0.336660	-1.046024
C146	C	1.518078	-0.003327	-0.712691
C147	C	1.851411	0.330007	-0.379358
C148	C	1.184732	-0.336682	-0.964045
C149	C	1.518065	-0.003349	-0.630712
C150	C	1.851399	0.329984	-0.297379
C151	C	1.134496	-0.388257	-0.923036
C152	C	1.467829	-0.054923	-0.589703
C153	C	1.801163	0.278410	-0.256369
C154	C	1.134390	-0.388414	-0.174243
C155	C	1.467723	-0.055081	0.159090
C156	C	1.801057	0.278252	0.492423
C157	C	1.134522	-0.388212	-0.086994
C158	C	1.467855	-0.054879	0.246339
C159	C	1.801188	0.278454	0.579673
H160	H	0.686869	-0.482093	-0.469111
H161	H	1.020202	-0.148760	-0.135777
H162	H	1.353536	0.184574	0.197556
Br163	Br	1.016054	-0.509862	-0.655494
Br164	Br	1.349388	-0.176528	-0.322161
Br165	Br	1.682721	0.156805	0.011172
Br166	Br	0.604970	-0.266712	-0.260089
Br167	Br	0.938303	0.066621	0.073244
Br168	Br	1.271636	0.399954	0.406578
Br169	Br	1.252925	-0.266669	-1.101678
Br170	Br	1.586259	0.066664	-0.768345
Br171	Br	1.919592	0.399997	-0.435012
Br172	Br	0.605002	-0.510139	-0.496316
Br173	Br	0.938335	-0.176805	-0.162983
Br174	Br	1.271669	0.156528	0.170351
Br175	Br	0.411728	-0.266740	-0.260104
Br176	Br	0.745061	0.066593	0.073230
Br177	Br	1.078395	0.399927	0.406563
H178	H	1.043397	-0.481757	-1.079340
H179	H	1.376730	-0.148424	-0.746007
H180	H	1.710063	0.184910	-0.412674
Br181	Br	1.016096	-0.509796	-0.908345
Br182	Br	1.349430	-0.176463	-0.575012
Br183	Br	1.682763	0.156871	-0.241678
Br184	Br	1.252911	-0.266776	-0.848828
Br185	Br	1.586244	0.066557	-0.515494
Br186	Br	1.919577	0.399890	-0.182161
H187	H	1.225629	-0.294711	-0.930690
H188	H	1.558962	0.038622	-0.597356
H189	H	1.892295	0.371955	-0.264023
H190	H	1.043354	-0.481822	-0.826494
H191	H	1.376687	-0.148488	-0.493161
H192	H	1.710021	0.184845	-0.159827
Br193	Br	1.252854	-0.266801	-0.655601
Br194	Br	1.586188	0.066532	-0.322267
Br195	Br	1.919521	0.399866	0.011066
Br196	Br	0.857844	-0.510122	-0.496290
Br197	Br	1.191178	-0.176789	-0.162956
Br198	Br	1.524511	0.156544	0.170377
H199	H	0.686836	-0.294739	-0.287291
H200	H	1.020169	0.038594	0.046042
H201	H	1.353502	0.371927	0.379375
H202	H	0.434012	-0.482112	-0.469140
H203	H	0.767346	-0.148778	-0.135807
H204	H	1.100679	0.184555	0.197526
H205	H	0.835567	-0.294725	-0.287273
H206	H	1.168901	0.038609	0.046060
H207	H	1.502234	0.371942	0.379394
