data_functionalizedCrystal
_audit_creation_method	'MofGen! by Chris Wilmer'
_symmetry_space_group_name_H-M	'P1'
_symmetry_Int_Tables_number	1
_symmetry_cell_setting	triclinic
loop_
_symmetry_equiv_pos_as_xyz
  x,y,z
_cell_length_a	17.038272
_cell_length_b	17.038272
_cell_length_c	15.500227
_cell_angle_alpha	93.033254
_cell_angle_beta	86.956295
_cell_angle_gamma	91.111556
loop_
_atom_site_label
_atom_site_type_symbol
_atom_site_fract_x
_atom_site_fract_y
_atom_site_fract_z
O1	O	1.052160	0.167139	-0.071836
O2	O	0.824350	0.164430	-0.071862
O3	O	0.936901	0.051879	-0.071842
O4	O	0.939609	0.279690	-0.071856
O5	O	0.930069	0.058680	0.072045
O6	O	0.817518	0.171231	0.072026
O7	O	1.045328	0.173940	0.072051
Cu8	Cu	0.930799	0.173207	0.085177
Cu9	Cu	0.938879	0.165164	-0.084987
O10	O	0.932777	0.286491	0.072032
C11	C	0.791641	0.165368	0.000079
C12	C	0.704358	0.158019	0.000069
C13	C	0.931022	0.025987	0.000101
C14	C	0.923674	-0.061297	0.000100
C15	C	0.658749	0.225482	0.000066
C16	C	0.576737	0.218574	0.000078
C17	C	0.540335	0.144201	0.000088
C18	C	0.585950	0.076733	0.000094
C19	C	0.667961	0.083642	0.000088
C20	C	0.292946	0.119792	0.000112
C21	C	0.210929	0.112887	0.000116
C22	C	0.201721	0.254729	0.000102
C23	C	0.283734	0.261632	0.000091
C24	C	0.329342	0.194164	0.000101
C25	C	0.456505	0.137138	0.000098
C26	C	0.413170	0.201228	0.000098
C27	C	0.991137	-0.106906	0.000108
C28	C	0.984229	-0.188918	0.000100
C29	C	0.909856	-0.225320	0.000088
C30	C	0.842388	-0.179705	0.000077
C31	C	0.849297	-0.097694	0.000080
C32	C	0.885446	-0.472708	0.000074
C33	C	0.878541	-0.554725	0.000074
C34	C	1.020383	-0.563932	0.000094
C35	C	1.027286	-0.481919	0.000102
C36	C	0.959818	-0.436312	0.000087
C37	C	0.902792	-0.309149	0.000082
C38	C	0.966882	-0.352484	0.000087
C39	C	1.078037	0.173003	0.000109
C40	C	1.165320	0.180351	0.000113
C41	C	0.938656	0.312383	0.000087
C42	C	0.946004	0.399667	0.000082
N43	N	0.925122	0.178864	0.204861
N44	N	0.944561	0.159501	-0.204671
C45	C	0.972833	0.131192	0.250145
C46	C	0.968547	0.135478	0.340718
C47	C	0.916555	0.187440	0.386003
C48	C	0.868839	0.235114	0.340712
C49	C	0.873121	0.230823	0.250142
C50	C	0.901128	0.202884	0.659467
C51	C	0.896851	0.207172	0.750044
C52	C	0.996559	0.107535	0.750044
C53	C	1.000840	0.103252	0.659471
C54	C	0.953121	0.150923	0.614188
C55	C	0.912174	0.191824	0.478582
C56	C	0.957498	0.146534	0.521610
H57	H	0.688381	0.286045	0.000058
H58	H	1.035409	0.068723	0.786921
H59	H	0.426857	0.076584	0.000130
Cl60	Cl	0.841143	0.262814	0.602546
Cl61	Cl	0.540188	-0.016765	0.000111
Cl62	Cl	0.519403	0.303390	0.000069
H63	H	1.075311	-0.601074	0.000105
Cl64	Cl	0.785037	-0.600485	0.000065
H65	H	0.830508	-0.435584	0.000061
H66	H	0.781832	-0.209350	0.000063
H67	H	0.794361	-0.060560	0.000073
H68	H	1.027437	-0.322844	0.000077
Cl69	Cl	0.165168	0.019384	0.000147
Cl70	Cl	0.831483	0.272504	0.806969
Cl71	Cl	0.725298	-0.001173	0.000096
Cl72	Cl	0.809298	-0.354918	0.000063
H73	H	1.015175	0.088882	0.213280
H74	H	0.313367	0.322194	0.000073
Cl75	Cl	0.350271	0.034973	0.000125
Cl76	Cl	1.028527	0.075546	0.397649
H77	H	0.826501	0.277420	0.377589
H78	H	0.834269	0.269642	0.213271
Cl79	Cl	1.069044	-0.246251	0.000113
Cl80	Cl	1.066204	0.037929	0.602541
H81	H	0.999827	0.104223	0.484736
Cl82	Cl	0.846815	0.257150	0.535517
H83	H	0.442811	0.261782	0.000095
Cl84	Cl	0.144382	0.339541	0.000093
H85	H	1.051699	-0.077273	0.000123
Cl86	Cl	1.120788	-0.436165	0.000088
