data_functionalizedCrystal
_audit_creation_method	'MofGen! by Chris Wilmer'
_symmetry_space_group_name_H-M	'P1'
_symmetry_Int_Tables_number	1
_symmetry_cell_setting	triclinic
loop_
_symmetry_equiv_pos_as_xyz
  x,y,z
_cell_length_a	21.395362
_cell_length_b	12.827892
_cell_length_c	12.827893
_cell_angle_alpha	90.007453
_cell_angle_beta	90.025165
_cell_angle_gamma	90.031271
loop_
_atom_site_label
_atom_site_type_symbol
_atom_site_fract_x
_atom_site_fract_y
_atom_site_fract_z
Zn1	Zn	0.957810	-0.415772	0.591443
Zn2	Zn	0.957775	-0.590481	0.416703
Zn3	Zn	0.853059	-0.415803	0.416652
Zn4	Zn	0.853022	-0.590520	0.591337
O5	O	0.905416	-0.503144	0.504034
O6	O	1.045483	-0.438918	0.568329
O7	O	0.943885	-0.567306	0.270460
O8	O	0.866985	-0.269562	0.439861
O9	O	1.045457	-0.567276	0.439948
O10	O	0.943945	-0.269540	0.568279
O11	O	0.866951	-0.438970	0.270422
O12	O	0.765376	-0.439009	0.439758
O13	O	0.866922	-0.567343	0.737587
O14	O	0.765349	-0.567373	0.568099
O15	O	0.943909	-0.438956	0.737665
O16	O	0.943849	-0.736722	0.439846
O17	O	0.866887	-0.736751	0.568149
C18	C	0.742629	-0.503199	0.503912
C19	C	0.672988	-0.503248	0.503885
C20	C	0.640277	-0.570176	0.570612
C21	C	0.574841	-0.570150	0.570659
C22	C	0.542119	-0.503208	0.503960
C23	C	0.574838	-0.436267	0.437228
C24	C	0.640272	-0.436287	0.437191
C25	C	0.438412	-0.494779	0.409882
C26	C	0.372979	-0.494767	0.409918
C27	C	0.340299	-0.503139	0.504075
C28	C	0.373059	-0.511547	0.598200
C29	C	0.438494	-0.511567	0.598163
C30	C	0.471167	-0.503178	0.503993
C31	C	0.236635	-0.570043	0.570858
C32	C	0.171199	-0.570010	0.570907
C33	C	0.171197	-0.436132	0.437466
C34	C	0.236632	-0.436160	0.437427
C35	C	0.269347	-0.503121	0.504122
C36	C	0.905377	-0.774654	0.504014
C37	C	0.905418	-0.890807	0.504041
C38	C	0.943483	-0.942497	0.567644
C39	C	0.943526	-1.062547	0.567673
C40	C	1.068840	-0.503089	0.504156
C41	C	1.138481	-0.503066	0.504208
C42	C	0.905415	-0.503151	0.776604
C43	C	0.905414	-0.503154	0.892757
C44	C	0.905473	-0.230574	0.504076
C45	C	0.905497	-0.114420	0.504094
C46	C	0.943506	-0.439632	0.944580
C47	C	0.943506	-0.439633	1.064630
C48	C	0.905413	-0.503160	1.232524
C49	C	0.905414	-0.503157	1.116371
H50	H	0.548203	-0.624650	0.625000
H51	H	0.872858	-0.935430	0.449615
Cl52	Cl	0.855063	-0.587135	1.047576
Cl53	Cl	0.993847	-1.131173	0.651742
Cl54	Cl	0.993745	-0.873612	0.651697
Cl55	Cl	0.993842	-0.355635	0.875870
H56	H	0.872908	-1.069975	0.449634
H57	H	0.976119	-0.385253	1.109197
H58	H	0.666909	-0.624699	0.624922
Cl59	Cl	0.479676	-0.522129	0.716486
Cl60	Cl	0.331983	-0.522067	0.716579
Cl61	Cl	0.277766	-0.654214	0.654707
H62	H	0.144566	-0.624509	0.625250
H63	H	0.872799	-0.557531	0.937266
H64	H	0.263265	-0.381665	0.383086
Cl65	Cl	0.331800	-0.484196	0.291591
Cl66	Cl	0.130067	-0.351969	0.353621
H67	H	0.548192	-0.381760	0.382923
Cl68	Cl	0.479488	-0.484257	0.291500
H69	H	0.666905	-0.381783	0.382853
