data_functionalizedCrystal
_audit_creation_method	'MofGen! by Chris Wilmer'
_symmetry_space_group_name_H-M	'P1'
_symmetry_Int_Tables_number	1
_symmetry_cell_setting	triclinic
loop_
_symmetry_equiv_pos_as_xyz
  x,y,z
_cell_length_a	13.897449
_cell_length_b	14.908571
_cell_length_c	14.908308
_cell_angle_alpha	90.175053
_cell_angle_beta	86.722980
_cell_angle_gamma	93.300640
loop_
_atom_site_label
_atom_site_type_symbol
_atom_site_fract_x
_atom_site_fract_y
_atom_site_fract_z
Zn1	Zn	0.503393	1.345437	-0.587663
Zn2	Zn	0.655968	1.354060	-0.437328
Zn3	Zn	0.484866	1.203747	-0.428658
Zn4	Zn	0.654822	1.195088	-0.578979
O5	O	0.574762	1.274583	-0.508157
O6	O	0.531866	1.472409	-0.574983
O7	O	0.625997	1.341354	-0.310352
O8	O	0.352343	1.222558	-0.449756
O9	O	0.643962	1.478745	-0.464533
O10	O	0.365955	1.326657	-0.566576
O11	O	0.500289	1.230919	-0.303982
O12	O	0.499177	1.076770	-0.441336
O13	O	0.642009	1.207799	-0.705957
O14	O	0.624043	1.070408	-0.551776
O15	O	0.530755	1.318260	-0.712337
O16	O	0.790796	1.332957	-0.456112
O17	O	0.789954	1.216161	-0.560183
C18	C	0.559476	1.040963	-0.494673
C19	C	0.552961	0.941018	-0.488926
C20	C	0.323172	1.274611	-0.508168
C21	C	0.215959	1.274623	-0.508172
C22	C	0.670925	0.746644	-0.592974
C23	C	0.664806	0.652737	-0.587578
C24	C	0.534603	0.659295	-0.472741
C25	C	0.540721	0.753202	-0.478138
C26	C	0.608885	0.796873	-0.538256
C27	C	0.615007	0.890783	-0.543647
C28	C	0.484800	0.897338	-0.428816
C29	C	0.478681	0.803431	-0.423419
C30	C	0.019667	1.274649	-0.508202
C31	C	0.128898	1.274637	-0.508188
C32	C	0.825377	1.274578	-0.508167
C33	C	0.932598	1.274657	-0.508206
C34	C	0.588321	1.261102	-0.742684
C35	C	0.594099	1.255357	-0.842626
C36	C	0.590109	1.509115	-0.521694
C37	C	0.596649	1.609059	-0.527462
C38	C	0.489085	1.359582	-1.037072
C39	C	0.494510	1.354187	-1.130976
C40	C	0.610370	1.239168	-1.124340
C41	C	0.604944	1.244563	-1.030436
C42	C	0.544301	1.304773	-0.986805
C43	C	0.538881	1.310172	-0.892900
C44	C	0.654735	1.195149	-0.886265
C45	C	0.660160	1.189754	-0.980169
C46	C	0.561190	1.288064	-0.274545
C47	C	0.555152	1.293983	-0.174614
H48	H	0.670511	0.926338	-0.592596
H49	H	0.489503	1.359199	-0.857377
H50	H	0.434284	0.938245	-0.384258
H51	H	0.726431	0.782202	-0.641919
H52	H	0.439711	1.408612	-1.001547
N53	N	0.434948	1.413294	-1.185194
H54	H	0.395707	1.452250	-1.143301
H55	H	0.479176	1.452668	-1.226559
H56	H	0.423182	0.767861	-0.374476
H57	H	0.709533	1.140731	-1.015706
H58	H	0.715323	0.611843	-0.632137
H59	H	0.699699	1.150521	-0.845328
N60	N	0.675734	1.174211	-1.171427
H61	H	0.725071	1.208495	-1.212512
H62	H	0.709828	1.140304	-1.125295
N63	N	0.461120	0.612186	-0.407874
H64	H	0.466672	0.545076	-0.412751
H65	H	0.473429	0.632294	-0.344591
