data_functionalizedCrystal
_audit_creation_method	'MofGen! by Chris Wilmer'
_symmetry_space_group_name_H-M	'P1'
_symmetry_Int_Tables_number	1
_symmetry_cell_setting	triclinic
loop_
_symmetry_equiv_pos_as_xyz
  x,y,z
_cell_length_a	10.654549
_cell_length_b	27.732048
_cell_length_c	9.730217
_cell_angle_alpha	90.004716
_cell_angle_beta	90.004032
_cell_angle_gamma	83.564786
loop_
_atom_site_label
_atom_site_type_symbol
_atom_site_fract_x
_atom_site_fract_y
_atom_site_fract_z
O1	O	1.664983	0.067894	0.114340
O2	O	1.299233	0.074359	0.114337
O3	O	1.493467	0.000800	0.114312
O4	O	1.470748	0.141452	0.114365
O5	O	1.493454	0.000805	-0.114268
O6	O	1.299220	0.074363	-0.114243
O7	O	1.664969	0.067898	-0.114240
Zn8	Zn	1.482092	0.071132	-0.150534
Zn9	Zn	1.482110	0.071126	0.150631
O10	O	1.470735	0.141457	-0.114215
C11	C	1.252448	0.073886	0.000046
C12	C	1.113065	0.072464	0.000044
C13	C	0.819495	0.157754	0.000114
C14	C	0.869155	0.202403	0.000125
C15	C	1.000117	0.203741	0.000108
C16	C	1.081423	0.160425	0.000083
C17	C	1.031763	0.115776	0.000072
C18	C	0.900797	0.114443	0.000086
C19	C	1.063405	0.027815	0.000033
C20	C	0.932444	0.026477	0.000041
C21	C	1.144712	-0.015501	0.000009
C22	C	1.095052	-0.060151	-0.000012
C23	C	0.964081	-0.061487	0.000004
C24	C	0.882784	-0.018172	0.000030
C25	C	1.492984	-0.017207	0.000019
C26	C	1.491548	-0.070871	0.000007
C27	C	1.597287	-0.409027	0.000079
C28	C	1.591959	-0.610720	0.000098
O29	O	1.688650	-0.641373	0.000159
N30	N	1.476786	-0.630561	0.000096
C31	C	1.362937	-0.599977	0.000098
O32	O	1.264853	-0.621481	0.000110
C33	C	1.368266	-0.398285	0.000088
C34	C	1.483447	-0.378446	0.000077
C35	C	1.712458	-0.389188	0.000069
C36	C	1.713789	-0.338767	0.000056
C37	C	1.599948	-0.308186	0.000054
C38	C	1.484777	-0.328026	0.000064
C39	C	1.254419	-0.367701	0.000100
C40	C	1.255761	-0.317275	0.000101
C41	C	1.370942	-0.297436	0.000090
C42	C	1.372268	-0.247025	0.000050
N43	N	1.487441	-0.227183	0.000052
C44	C	1.601281	-0.257764	0.000054
C45	C	1.360147	-0.705868	0.000100
C46	C	1.358814	-0.756291	0.000100
C47	C	1.587837	-0.767030	0.000102
C48	C	1.589168	-0.716607	0.000093
C49	C	1.475320	-0.686026	0.000102
C50	C	1.604067	-0.151877	0.000027
C51	C	1.605388	-0.101452	0.000009
C52	C	1.376366	-0.090717	0.000014
C53	C	1.375045	-0.141137	0.000025
C54	C	1.488906	-0.171717	0.000036
O55	O	1.275629	-0.216343	0.000005
O56	O	1.699351	-0.236250	0.000072
C57	C	1.595956	-0.459447	0.000091
C58	C	1.480785	-0.479286	0.000101
C59	C	1.366945	-0.448705	0.000099
C60	C	1.479452	-0.529709	0.000101
C61	C	1.593293	-0.560290	0.000103
C62	C	1.708466	-0.540448	0.000105
C63	C	1.709796	-0.490028	0.000093
C64	C	1.251772	-0.468547	0.000097
C65	C	1.250451	-0.518968	0.000108
C66	C	1.364291	-0.549549	0.000110
C67	C	1.711754	0.068371	0.000054
C68	C	1.851137	0.069793	0.000065
C69	C	1.471219	0.159464	0.000081
C70	C	1.472655	0.213128	0.000102
N71	N	1.482090	0.071135	-0.356070
C72	C	1.330966	0.011937	-0.643847
C73	C	1.255374	-0.017647	-0.571915
C74	C	1.255349	-0.017638	-0.428035
C75	C	1.330929	0.011958	-0.356085
C76	C	1.406521	0.041542	-0.428017
C77	C	1.406535	0.041531	-0.571900
C78	C	1.557683	0.100719	-0.428003
C79	C	1.557702	0.100714	-0.571882
C80	C	1.633262	0.130315	-0.356052
C81	C	1.708850	0.159902	-0.427985
C82	C	1.708870	0.159892	-0.571873
C83	C	1.633295	0.130298	-0.643815
N84	N	1.482123	0.071118	0.356167
H85	H	0.802941	0.237670	0.000150
F86	F	1.836380	-0.317660	0.000074
F87	F	1.284093	-0.014076	-0.000000
H88	H	1.283681	-0.065809	0.000007
H89	H	1.699185	-0.085302	-0.000004
H90	H	1.330914	0.011958	-0.238930
F91	F	1.134585	-0.284732	0.000114
F92	F	0.680112	0.156335	0.000108
H93	H	1.770386	0.183994	-0.369392
F94	F	1.252458	-0.162252	0.000012
F95	F	1.633243	0.130321	-0.202922
F96	F	1.220804	0.161851	0.000087
H97	H	1.633300	0.130288	-0.760970
H98	H	1.193798	-0.041729	-0.369468
H99	H	0.923658	-0.097845	0.000003
F100	F	1.052970	0.251261	0.000128
H101	H	1.770432	0.183982	-0.630432
H102	H	0.776146	-0.019256	0.000031
F103	F	1.725251	-0.184415	0.000040
F104	F	1.181588	-0.106246	-0.000030
H105	H	1.682958	-0.700458	0.000084
F106	F	1.833633	-0.421727	0.000072
H107	H	1.803588	-0.473880	0.000084
H108	H	1.680530	-0.791938	0.000103
F109	F	1.236224	-0.777399	0.000087
H110	H	1.267433	-0.680973	0.000107
H111	H	1.160627	-0.383844	0.000118
H112	H	1.801158	-0.565356	0.000101
H113	H	1.156650	-0.535115	0.000105
H114	H	1.159067	-0.443653	0.000098
H115	H	1.330969	0.011931	-0.761002
F116	F	1.174941	-0.049143	-0.648499
