data_functionalizedCrystal
_audit_creation_method	'MofGen! by Chris Wilmer'
_symmetry_space_group_name_H-M	'P1'
_symmetry_Int_Tables_number	1
_symmetry_cell_setting	triclinic
loop_
_symmetry_equiv_pos_as_xyz
  x,y,z
_cell_length_a	12.996460
_cell_length_b	12.837943
_cell_length_c	12.837942
_cell_angle_alpha	94.828940
_cell_angle_beta	89.994579
_cell_angle_gamma	89.995743
loop_
_atom_site_label
_atom_site_type_symbol
_atom_site_fract_x
_atom_site_fract_y
_atom_site_fract_z
O1	O	0.085548	-1.402337	-0.272142
O2	O	0.085554	-1.099204	-0.258699
O3	O	0.085544	-1.244049	-0.113854
O4	O	0.085557	-1.257492	-0.416988
O5	O	-0.085589	-1.244031	-0.113844
O6	O	-0.085580	-1.099186	-0.258689
O7	O	-0.085586	-1.402320	-0.272132
Cu8	Cu	-0.101209	-1.250751	-0.265409
Cu9	Cu	0.101176	-1.250772	-0.265422
O10	O	-0.085577	-1.257475	-0.416977
C11	C	-0.000013	-1.060126	-0.254153
C12	C	-0.000010	-0.943711	-0.240608
N13	N	-0.243556	-1.250744	-0.265401
C14	C	-0.000022	-1.239499	-0.074780
C15	C	-0.000020	-1.225954	0.041635
C16	C	-0.663370	-1.250771	-0.265423
C17	C	-0.546565	-1.250761	-0.265420
C18	C	-0.453467	-1.250758	-0.265413
C19	C	-0.336654	-1.250747	-0.265408
N20	N	0.243524	-1.250787	-0.265423
C21	C	-0.000018	-1.441398	-0.276679
C22	C	-0.000013	-1.557813	-0.290223
C23	C	-0.000018	-0.718837	-0.403437
C24	C	-0.000017	-0.609454	-0.390716
C25	C	-0.000014	-0.615562	-0.202445
C26	C	-0.000015	-0.724944	-0.215166
C27	C	-0.000016	-0.776578	-0.315666
C28	C	-0.000010	-0.885962	-0.328386
C29	C	-0.000014	-0.892067	-0.140116
C30	C	-0.000013	-0.782685	-0.127395
C31	C	-0.000008	-1.262025	-0.456051
C32	C	-0.000004	-1.275569	-0.572467
C33	C	-0.000002	-1.388784	0.266510
C34	C	0.000000	-1.376062	0.375892
C35	C	-0.000007	-1.187791	0.369785
C36	C	-0.000009	-1.200513	0.260402
C37	C	-0.000008	-1.301012	0.208769
C38	C	-0.000017	-1.313732	0.099384
C39	C	-0.000017	-1.125462	0.093279
C40	C	-0.000015	-1.112741	0.202661
H41	H	-0.000012	-0.928000	-0.410218
H42	H	-0.000022	-0.562446	-0.462189
H43	H	-0.000011	-1.470614	0.224469
C44	C	-0.000024	-0.558745	-0.091904
N45	N	-0.000033	-0.515950	-0.008643
H46	H	0.000008	-1.447536	0.422901
H47	H	-0.000024	-0.740630	-0.045571
H48	H	-0.000030	-1.053992	0.046254
H49	H	-0.000005	-0.939092	-0.068646
C50	C	-0.000018	-1.077250	0.426601
N51	N	-0.000033	-0.993990	0.469396
H52	H	-0.000020	-1.395564	0.057346
H53	H	-0.000017	-0.760878	-0.485268
C54	C	-0.000027	-1.002197	0.259471
N55	N	-0.000045	-0.918933	0.302259
