data_functionalizedCrystal
_audit_creation_method	'MofGen! by Chris Wilmer'
_symmetry_space_group_name_H-M	'P1'
_symmetry_Int_Tables_number	1
_symmetry_cell_setting	triclinic
loop_
_symmetry_equiv_pos_as_xyz
  x,y,z
_cell_length_a	25.639242
_cell_length_b	18.101395
_cell_length_c	18.101389
_cell_angle_alpha	90.016841
_cell_angle_beta	89.972230
_cell_angle_gamma	89.973368
loop_
_atom_site_label
_atom_site_type_symbol
_atom_site_fract_x
_atom_site_fract_y
_atom_site_fract_z
Zn1	Zn	0.799282	0.294996	-0.418915
Zn2	Zn	1.132615	0.628329	-0.085582
Zn3	Zn	1.465948	0.961662	0.247752
Zn4	Zn	0.799208	0.418821	-0.295077
Zn5	Zn	1.132541	0.752155	0.038257
Zn6	Zn	1.465875	1.085488	0.371590
Zn7	Zn	0.711849	0.294988	-0.295069
Zn8	Zn	1.045183	0.628322	0.038265
Zn9	Zn	1.378516	0.961655	0.371598
Zn10	Zn	0.711815	0.418790	-0.418858
Zn11	Zn	1.045148	0.752123	-0.085525
Zn12	Zn	1.378481	1.085457	0.247809
O13	O	0.755538	0.356899	-0.356980
O14	O	1.088872	0.690232	-0.023646
O15	O	1.422205	1.023566	0.309687
O16	O	0.872437	0.311437	-0.402515
O17	O	1.205770	0.644771	-0.069181
O18	O	1.539104	0.978104	0.264152
O19	O	0.787604	0.402405	-0.191443
O20	O	1.120937	0.735738	0.141891
O21	O	1.454270	1.069071	0.475224
O22	O	0.723493	0.191357	-0.311517
O23	O	1.056826	0.524690	0.021816
O24	O	1.390159	0.858023	0.355149
O25	O	0.872383	0.402412	-0.311531
O26	O	1.205716	0.735745	0.021802
O27	O	1.539050	1.069078	0.355135
O28	O	0.787729	0.191362	-0.402507
O29	O	1.121062	0.524695	-0.069173
O30	O	1.454395	0.858028	0.264160
O31	O	0.723421	0.311425	-0.191437
O32	O	1.056755	0.644759	0.141897
O33	O	1.390088	0.978092	0.475230
O34	O	0.638679	0.311395	-0.311462
O35	O	0.972013	0.644728	0.021871
O36	O	1.305346	0.978062	0.355204
O37	O	0.723433	0.402358	-0.522498
O38	O	1.056767	0.735692	-0.189165
O39	O	1.390100	1.069025	0.144168
O40	O	0.638654	0.402352	-0.402410
O41	O	0.971987	0.735685	-0.069076
O42	O	1.305321	1.069018	0.264257
O43	O	0.787695	0.311407	-0.522540
O44	O	1.121028	0.644740	-0.189207
O45	O	1.454362	0.978074	0.144126
O46	O	0.787570	0.522450	-0.311476
O47	O	1.120903	0.855783	0.021857
O48	O	1.454236	1.189117	0.355191
O49	O	0.723362	0.522427	-0.402418
O50	O	1.056695	0.855761	-0.069084
O51	O	1.390029	1.189094	0.264249
C52	C	0.619696	0.356870	-0.356929
C53	C	0.953029	0.690203	-0.023596
C54	C	1.286362	1.023536	0.309737
C55	C	0.561582	0.356875	-0.356925
C56	C	0.894915	0.690208	-0.023592
C57	C	1.228248	1.023542	0.309741
C58	C	0.755468	0.549309	-0.356958
C59	C	1.088802	0.882643	-0.023624
C60	C	1.422135	1.215976	0.309709
C61	C	0.755486	0.631624	-0.356973
C62	C	1.088820	0.964957	-0.023640
C63	C	1.422153	1.298290	0.309694
C64	C	0.755569	0.356880	-0.550142
C65	C	1.088902	0.690213	-0.216808
C66	C	1.422235	1.023547	0.116525
C67	C	0.755581	0.356872	-0.632456
C68	C	1.088915	0.690205	-0.299122
C69	C	1.422248	1.023539	0.034211
C70	C	0.201214	0.404339	-0.404291
C71	C	0.534548	0.737672	-0.070958
C72	C	0.867881	1.071006	0.262376
C73	C	0.146610	0.404344	-0.404303
C74	C	0.479943	0.737677	-0.070969
C75	C	0.813277	1.071010	0.262364
O76	O	0.118369	0.444663	-0.444532
O77	O	0.451703	0.777996	-0.111199
O78	O	0.785036	1.111330	0.222135
N79	N	0.119299	0.356919	-0.357028
N80	N	0.452633	0.690253	-0.023694
N81	N	0.785966	1.023586	0.309639
C82	C	0.146596	0.309482	-0.309744
C83	C	0.479929	0.642815	0.023590
C84	C	0.813262	0.976149	0.356923
O85	O	0.118352	0.269144	-0.269534
O86	O	0.451685	0.602477	0.063799
O87	O	0.785019	0.935810	0.397132
C88	C	0.201199	0.309474	-0.309736
C89	C	0.534532	0.642808	0.023597
C90	C	0.867866	0.976141	0.356931
C91	C	0.228507	0.356907	-0.357009
C92	C	0.561840	0.690240	-0.023675
C93	C	0.895174	1.023574	0.309658
C94	C	0.228522	0.451767	-0.451560
C95	C	0.561856	0.785101	-0.118227
C96	C	0.895189	1.118434	0.215106
C97	C	0.283123	0.451764	-0.451547
C98	C	0.616456	0.785097	-0.118214
C99	C	0.949789	1.118430	0.215119
C100	C	0.310415	0.404332	-0.404265
C101	C	0.643749	0.737665	-0.070932
C102	C	0.977082	1.070998	0.262401
C103	C	0.283107	0.356903	-0.356996
C104	C	0.616441	0.690237	-0.023663
C105	C	0.949774	1.023570	0.309671
C106	C	0.228495	0.262034	-0.262456
C107	C	0.561828	0.595367	0.070877
C108	C	0.895161	0.928700	0.404211
C109	C	0.283102	0.262030	-0.262453
C110	C	0.616435	0.595363	0.070880
C111	C	0.949768	0.928696	0.404213
C112	C	0.310409	0.309463	-0.309726
C113	C	0.643743	0.642796	0.023607
C114	C	0.977076	0.976129	0.356941
C115	C	0.365001	0.309467	-0.309701
C116	C	0.698334	0.642801	0.023632
C117	C	1.031667	0.976134	0.356966
N118	N	0.392311	0.356892	-0.356976
N119	N	0.725645	0.690225	-0.023642
N120	N	1.058978	1.023559	0.309691
C121	C	0.365019	0.404324	-0.404258
C122	C	0.698352	0.737657	-0.070925
C123	C	1.031685	1.070991	0.262409
C124	C	0.031925	0.309501	-0.309764
C125	C	0.365258	0.642834	0.023570
C126	C	0.698592	0.976168	0.356903
C127	C	-0.022677	0.309512	-0.309767
C128	C	0.310656	0.642845	0.023567
C129	C	0.643989	0.976178	0.356900
C130	C	-0.022659	0.404373	-0.404327
C131	C	0.310674	0.737706	-0.070994
C132	C	0.644007	1.071039	0.262340
C133	C	0.031944	0.404365	-0.404320
C134	C	0.365277	0.737698	-0.070986
C135	C	0.698611	1.071032	0.262347
C136	C	0.059236	0.356925	-0.357038
C137	C	0.392569	0.690259	-0.023705
C138	C	0.725902	1.023592	0.309628
C139	C	0.479684	0.404313	-0.404227
C140	C	0.813017	0.737646	-0.070894
C141	C	1.146350	1.070980	0.262440
C142	C	0.534289	0.404307	-0.404208
C143	C	0.867622	0.737640	-0.070874
C144	C	1.200956	1.070974	0.262459
C145	C	0.534266	0.309444	-0.309650
C146	C	0.867600	0.642777	0.023683
C147	C	1.200933	0.976110	0.357016
C148	C	0.479666	0.309452	-0.309667
C149	C	0.812999	0.642785	0.023667
C150	C	1.146332	0.976119	0.357000
C151	C	0.452376	0.356889	-0.356961
C152	C	0.785709	0.690222	-0.023627
C153	C	1.119042	1.023556	0.309706
O154	O	0.393276	0.269167	-0.269494
O155	O	0.726609	0.602500	0.063839
O156	O	1.059942	0.935833	0.397173
O157	O	0.393269	0.444648	-0.444467
O158	O	0.726602	0.777982	-0.111134
O159	O	1.059936	1.111315	0.222199
C160	C	0.891911	0.356929	-0.357030
C161	C	1.225245	0.690262	-0.023697
C162	C	1.558578	1.023595	0.309636
C163	C	0.950025	0.356941	-0.357052
C164	C	1.283359	0.690275	-0.023719
C165	C	1.616692	1.023608	0.309615
C166	C	0.755623	0.163737	-0.357018
C167	C	1.088956	0.497070	-0.023684
C168	C	1.422289	0.830404	0.309649
C169	C	0.755659	0.081423	-0.357034
C170	C	1.088992	0.414756	-0.023701
C171	C	1.422325	0.748090	0.309633
C172	C	0.755601	0.930714	-0.357013
C173	C	1.088934	1.264048	-0.023680
C174	C	1.422268	1.597381	0.309654
C175	C	0.715297	0.899406	-0.414373
C176	C	1.048630	1.232739	-0.081040
C177	C	1.381964	1.566072	0.252294
C178	C	0.715105	0.813788	-0.414194
C179	C	1.048439	1.147121	-0.080860
C180	C	1.381772	1.480454	0.252473
C181	C	0.755544	0.782332	-0.356994
C182	C	1.088877	1.115665	-0.023661
C183	C	1.422211	1.448999	0.309673
C184	C	0.740627	0.813467	-0.278941
C185	C	1.073960	1.146801	0.054392
C186	C	1.407293	1.480134	0.387725
C187	C	0.740367	0.899113	-0.279284
C188	C	1.073700	1.232446	0.054049
C189	C	1.407034	1.565779	0.387382
C190	C	0.810911	0.899068	-0.377019
C191	C	1.144244	1.232401	-0.043686
C192	C	1.477577	1.565735	0.289648
C193	C	0.810585	0.813417	-0.378730
C194	C	1.143919	1.146750	-0.045397
C195	C	1.477252	1.480084	0.287936
C196	C	0.755513	0.698472	-0.356978
C197	C	1.088846	1.031806	-0.023645
C198	C	1.422179	1.365139	0.309688
C199	C	0.755631	1.014574	-0.357023
C200	C	1.088964	1.347907	-0.023690
C201	C	1.422298	1.681241	0.309643
C202	C	0.755612	0.356733	-0.931547
C203	C	1.088945	0.690067	-0.598213
C204	C	1.422279	1.023400	-0.264880
C205	C	0.715041	0.413775	-0.900195
C206	C	1.048374	0.747109	-0.566862
C207	C	1.381708	1.080442	-0.233529
C208	C	0.715151	0.414040	-0.814577
C209	C	1.048484	0.747373	-0.481244
C210	C	1.381817	1.080707	-0.147910
C211	C	0.755596	0.356802	-0.783164
C212	C	1.088930	0.690136	-0.449831
C213	C	1.422263	1.023469	-0.116498
C214	C	0.810683	0.377992	-0.814275
C215	C	1.144016	0.711326	-0.480942
C216	C	1.477349	1.044659	-0.147608
C217	C	0.810456	0.378367	-0.899920
C218	C	1.143790	0.711700	-0.566587
C219	C	1.477123	1.045034	-0.233253
C220	C	0.741576	0.278374	-0.899968
C221	C	1.074909	0.611708	-0.566634
C222	C	1.408242	0.945041	-0.233301
C223	C	0.740350	0.278827	-0.814317
C224	C	1.073683	0.612160	-0.480983
C225	C	1.407017	0.945493	-0.147650
C226	C	0.755591	0.356840	-0.699305
C227	C	1.088924	0.690173	-0.365971
C228	C	1.422258	1.023507	-0.032638
C229	C	0.755621	0.356698	-1.015406
C230	C	1.088954	0.690031	-0.682073
C231	C	1.422288	1.023364	-0.348740
C232	C	0.755538	0.356864	-0.164569
C233	C	1.088872	0.690197	0.168764
C234	C	1.422205	1.023531	0.502098
C235	C	0.755627	0.356663	-0.082255
C236	C	1.088960	0.689997	0.251078
C237	C	1.422293	1.023330	0.584411
H238	H	0.556521	0.442935	-0.442703
H239	H	0.889854	0.776269	-0.109370
H240	H	1.223187	1.109602	0.223963
F241	F	0.777789	0.786838	-0.221554
F242	F	1.111122	1.120171	0.111779
F243	F	1.444455	1.453504	0.445113
H244	H	0.724537	0.919965	-0.472435
H245	H	1.057871	1.253298	-0.139102
H246	H	1.391204	1.586632	0.194231
H247	H	-0.044891	0.442992	-0.442829
H248	H	0.288443	0.776325	-0.109496
H249	H	0.621776	1.109659	0.223837
H250	H	0.700624	0.792075	-0.261692
H251	H	1.033957	1.125408	0.071641
H252	H	1.367291	1.458742	0.404974
H253	H	0.724216	0.471503	-0.921723
H254	H	1.057549	0.804836	-0.588390
H255	H	1.390883	1.138170	-0.255056
H256	H	0.767744	0.234071	-0.792934
H257	H	1.101077	0.567404	-0.459600
H258	H	1.434410	0.900737	-0.126267
H259	H	0.841709	0.338624	-0.920662
H260	H	1.175043	0.671957	-0.587329
H261	H	1.508376	1.005290	-0.253995
F262	F	0.825290	0.786818	-0.453812
F263	F	1.158624	1.120151	-0.120479
F264	F	1.491957	1.453484	0.212854
H265	H	0.841723	0.337751	-0.793931
H266	H	1.175056	0.671085	-0.460597
H267	H	1.508389	1.004418	-0.127264
H268	H	0.305352	0.490387	-0.490043
H269	H	0.638685	0.823720	-0.156710
H270	H	0.972019	1.157054	0.176623
F271	F	0.661759	0.396703	-0.787078
F272	F	0.995092	0.730037	-0.453745
F273	F	1.328426	1.063370	-0.120412
H274	H	0.842202	0.792001	-0.339998
H275	H	1.175536	1.125334	-0.006665
H276	H	1.508869	1.458668	0.326668
F277	F	0.450647	0.454801	-0.454563
F278	F	0.783981	0.788134	-0.121229
F279	F	1.117314	1.121467	0.212104
F280	F	0.199483	0.502255	-0.501890
F281	F	0.532817	0.835588	-0.168556
F282	F	0.866150	1.168922	0.164777
H283	H	0.724438	0.792735	-0.472069
H284	H	1.057772	1.126069	-0.138735
H285	H	1.391105	1.459402	0.194598
F286	F	0.450602	0.258980	-0.259343
F287	F	0.783935	0.592313	0.073990
F288	F	1.117268	0.925647	0.407323
F289	F	0.312144	0.211535	-0.212130
F290	F	0.645477	0.544869	0.121204
F291	F	0.978811	0.878202	0.454537
H292	H	0.822788	0.434665	-0.792836
H293	H	1.156121	0.767999	-0.459502
H294	H	1.489454	1.101332	-0.126169
H295	H	-0.044907	0.270895	-0.271265
H296	H	0.288427	0.604228	0.062068
H297	H	0.621760	0.937561	0.395402
F298	F	0.687521	0.925303	-0.257136
F299	F	1.020854	1.258636	0.076198
F300	F	1.354188	1.591969	0.409531
H301	H	0.206270	0.223411	-0.223960
H302	H	0.539603	0.556744	0.109374
H303	H	0.872936	0.890078	0.442707
H304	H	0.702105	0.259070	-0.921550
H305	H	1.035438	0.592403	-0.588216
H306	H	1.368772	0.925736	-0.254883
F307	F	0.850161	0.925542	-0.322422
F308	F	1.183495	1.258875	0.010911
F309	F	1.516828	1.592208	0.344244
H310	H	0.824511	0.920628	-0.432966
H311	H	1.157844	1.253961	-0.099632
H312	H	1.491178	1.587294	0.233701
F313	F	0.061002	0.454848	-0.454634
F314	F	0.394336	0.788181	-0.121301
F315	F	0.727669	1.121514	0.212033
H316	H	0.674069	0.400650	-0.920777
H317	H	1.007403	0.733984	-0.587444
H318	H	1.340736	1.067317	-0.254111
F319	F	0.727288	0.489950	-0.787805
F320	F	1.060621	0.823283	-0.454471
F321	F	1.393954	1.156617	-0.121138
F322	F	0.687360	0.257942	-0.787745
F323	F	1.020694	0.591275	-0.454412
F324	F	1.354027	0.924609	-0.121078
H325	H	0.771126	0.235875	-0.920245
H326	H	1.104459	0.569208	-0.586912
H327	H	1.437792	0.902542	-0.253578
H328	H	0.054143	0.270870	-0.271256
H329	H	0.387476	0.604204	0.062077
H330	H	0.720809	0.937537	0.395410
H331	H	0.556498	0.270828	-0.271152
H332	H	0.889831	0.604162	0.062181
H333	H	1.223165	0.937495	0.395515
F334	F	0.826009	0.453238	-0.926045
F335	F	1.159342	0.786571	-0.592712
F336	F	1.492675	1.119904	-0.259379
H337	H	0.674549	0.920985	-0.401287
H338	H	1.007883	1.254319	-0.067954
H339	H	1.341216	1.587652	0.265380
H340	H	0.674109	0.793358	-0.400941
H341	H	1.007442	1.126691	-0.067608
H342	H	1.340775	1.460024	0.265726
H343	H	0.768449	0.919825	-0.235089
H344	H	1.101783	1.253158	0.098244
H345	H	1.435116	1.586492	0.431578
