data_functionalizedCrystal
_audit_creation_method	'MofGen! by Chris Wilmer'
_symmetry_space_group_name_H-M	'P1'
_symmetry_Int_Tables_number	1
_symmetry_cell_setting	triclinic
loop_
_symmetry_equiv_pos_as_xyz
  x,y,z
_cell_length_a	21.395364
_cell_length_b	12.759401
_cell_length_c	21.395361
_cell_angle_alpha	90.015573
_cell_angle_beta	90.045659
_cell_angle_gamma	90.008753
loop_
_atom_site_label
_atom_site_type_symbol
_atom_site_fract_x
_atom_site_fract_y
_atom_site_fract_z
Zn1	Zn	0.957761	0.594015	-0.249298
Zn2	Zn	0.957693	0.418311	-0.354047
Zn3	Zn	0.853005	0.418344	-0.249315
Zn4	Zn	0.852946	0.593943	-0.354069
O5	O	0.905351	0.506153	-0.301682
O6	O	1.045430	0.570723	-0.263177
O7	O	0.943802	0.271295	-0.340152
O8	O	0.866955	0.441691	-0.161634
O9	O	1.045380	0.441635	-0.340136
O10	O	0.943919	0.570755	-0.161622
O11	O	0.866889	0.271319	-0.263205
O12	O	0.765320	0.441622	-0.263227
O13	O	0.866853	0.740973	-0.340173
O14	O	0.765276	0.570633	-0.340189
O15	O	0.943861	0.741026	-0.263198
O16	O	0.943744	0.441565	-0.441728
O17	O	0.866787	0.570601	-0.441744
C18	C	0.742564	0.506124	-0.301713
C19	C	0.672922	0.506136	-0.301741
C20	C	0.640258	0.573456	-0.261734
C21	C	0.574823	0.573460	-0.261717
C22	C	0.542054	0.506155	-0.301719
C23	C	0.574727	0.438822	-0.341728
C24	C	0.640161	0.438812	-0.341739
C25	C	0.438331	0.497703	-0.358143
C26	C	0.372898	0.497720	-0.358133
C27	C	0.340233	0.506179	-0.301684
C28	C	0.373010	0.514642	-0.245244
C29	C	0.438444	0.514633	-0.245255
C30	C	0.471102	0.506158	-0.301711
C31	C	0.236616	0.573507	-0.261656
C32	C	0.171180	0.573503	-0.261638
C33	C	0.171085	0.438871	-0.341655
C34	C	0.236520	0.438868	-0.341667
C35	C	0.269282	0.506192	-0.301668
C36	C	0.905358	0.780187	-0.301686
C37	C	0.905361	0.896963	-0.301688
C38	C	0.945454	0.951854	-0.261614
C39	C	0.945449	1.061578	-0.261613
C40	C	0.865256	1.061511	-0.341765
C41	C	0.865259	0.951789	-0.341763
C42	C	0.967878	1.211574	-0.187720
C43	C	1.007981	1.266469	-0.147651
C44	C	1.069123	1.230883	-0.138020
C45	C	1.090176	1.140404	-0.168468
C46	C	1.050076	1.085515	-0.208541
C47	C	0.988925	1.121099	-0.218160
C48	C	0.842836	0.801791	-0.415657
C49	C	0.802739	0.746900	-0.455734
C50	C	0.741595	0.782483	-0.465371
C51	C	0.720545	0.872966	-0.434934
C52	C	0.760642	0.927857	-0.394857
C53	C	0.821785	0.892266	-0.385220
C54	C	1.068775	0.506184	-0.301652
C55	C	1.138416	0.506196	-0.301639
C56	C	0.905344	1.233186	-0.301692
C57	C	0.905353	1.116409	-0.301689
C58	C	0.905269	0.506095	-0.464470
C59	C	0.905291	0.506105	-0.534111
C60	C	0.945398	0.438985	-0.566795
C61	C	0.945427	0.439008	-0.632230
C62	C	0.905338	0.506141	-0.664979
C63	C	0.865228	0.573274	-0.632288
C64	C	0.865204	0.573256	-0.566853
C65	C	0.848922	0.514374	-0.768710
C66	C	0.848944	0.514385	-0.834143
C67	C	0.905411	0.506203	-0.866800
C68	C	0.961856	0.497988	-0.834016
C69	C	0.961833	0.497970	-0.768582
C70	C	0.905359	0.506168	-0.735932
C71	C	0.945553	0.439104	-0.970436
C72	C	0.945583	0.439135	-1.035873
C73	C	0.865378	0.573395	-1.035929
C74	C	0.865354	0.573370	-0.970494
C75	C	0.905440	0.506219	-0.937751
C76	C	0.905451	0.506235	-0.138259
C77	C	0.905494	0.506270	-0.068617
H78	H	0.666756	0.383990	-0.374319
H79	H	0.346415	0.521530	-0.199278
O80	O	0.987594	1.354461	-0.118143
C81	C	1.025230	1.440226	-0.135729
H82	H	1.048271	1.423036	-0.182649
H83	H	0.995006	1.513458	-0.139961
H84	H	1.062846	1.453534	-0.098800
H85	H	0.978247	0.384480	-1.062483
H86	H	1.007837	0.491325	-0.860604
O87	O	0.826271	0.638602	-0.535170
C88	C	0.839933	0.743342	-0.551100
H89	H	0.864035	0.745575	-0.598580
H90	H	0.794694	0.790384	-0.553377
H91	H	0.872116	0.778763	-0.514224
O92	O	0.139544	0.638999	-0.222752
C93	C	0.182496	0.698396	-0.187443
H94	H	0.229114	0.701948	-0.213120
H95	H	0.163606	0.781196	-0.180837
H96	H	0.189499	0.660076	-0.139821
H97	H	0.832740	0.628061	-1.062593
H98	H	0.978107	0.907219	-0.228981
H99	H	0.263116	0.384053	-0.374247
H100	H	0.832692	0.628021	-0.943881
O101	O	0.794062	0.522415	-0.865889
C102	C	0.744218	0.529622	-0.823036
H103	H	0.762454	0.560086	-0.776364
H104	H	0.707351	0.585783	-0.841971
H105	H	0.722543	0.448829	-0.816120
H106	H	0.548042	0.384021	-0.374297
O107	O	0.702718	0.729015	-0.504305
C108	C	0.734412	0.641544	-0.529124
H109	H	0.774613	0.619110	-0.496790
H110	H	0.700609	0.572831	-0.533366
H111	H	0.753641	0.661958	-0.577286
H112	H	0.465127	0.521521	-0.199299
O113	O	0.984292	0.373727	-0.664050
C114	C	0.948644	0.305818	-0.701935
H115	H	0.901158	0.342832	-0.711785
H116	H	0.974182	0.291752	-0.747922
H117	H	0.941768	0.227958	-0.676733
H118	H	1.067218	1.011852	-0.233333
O119	O	0.268475	0.639004	-0.222889
C120	C	0.306309	0.706730	-0.258632
H121	H	0.286539	0.713072	-0.307980
H122	H	0.307086	0.787652	-0.236046
H123	H	0.355893	0.674233	-0.260772
H124	H	1.139967	1.111442	-0.160628
H125	H	0.802936	0.521041	-0.742126
O126	O	0.139235	0.373640	-0.380580
C127	C	0.101342	0.433333	-0.421087
H128	H	0.121067	0.516066	-0.425037
H129	H	0.100549	0.395186	-0.469270
H130	H	0.051770	0.437015	-0.401711
H131	H	1.101775	1.275586	-0.105395
H132	H	0.832588	0.627936	-0.658956
H133	H	0.918089	1.240552	-0.195552
H134	H	0.346217	0.490833	-0.404090
O135	O	0.826364	1.114932	-0.380675
C136	C	0.834948	1.223547	-0.372075
H137	H	0.883314	1.238560	-0.351548
H138	H	0.830666	1.265221	-0.419008
H139	H	0.797804	1.254690	-0.338715
H140	H	0.666928	0.628276	-0.229164
O141	O	0.740086	1.015707	-0.365316
C142	C	0.677525	1.035366	-0.382427
H143	H	0.654811	0.959396	-0.398911
H144	H	0.650894	1.067151	-0.340368
H145	H	0.676283	1.095447	-0.421838
H146	H	0.670758	0.901942	-0.442783
H147	H	0.819886	0.673231	-0.480523
O148	O	0.902229	0.767121	-0.406399
C149	C	0.912210	0.675491	-0.441858
H150	H	0.877745	0.673197	-0.482497
H151	H	0.962006	0.675459	-0.460776
H152	H	0.904950	0.603723	-0.410975
H153	H	0.548222	0.628279	-0.229136
H154	H	0.978040	0.384309	-0.540138
O155	O	1.016718	0.490039	-0.736833
C156	C	1.066564	0.482792	-0.779682
H157	H	1.051734	0.518082	-0.826335
H158	H	1.108647	0.527479	-0.760713
H159	H	1.079619	0.396960	-0.786645
H160	H	0.978196	0.384429	-0.943776
H161	H	0.464921	0.490814	-0.404113
