data_functionalizedCrystal
_audit_creation_method	'MofGen! by Chris Wilmer'
_symmetry_space_group_name_H-M	'P1'
_symmetry_Int_Tables_number	1
_symmetry_cell_setting	triclinic
loop_
_symmetry_equiv_pos_as_xyz
  x,y,z
_cell_length_a	18.878441
_cell_length_b	14.560438
_cell_length_c	14.560438
_cell_angle_alpha	89.998417
_cell_angle_beta	119.999441
_cell_angle_gamma	60.000581
loop_
_atom_site_label
_atom_site_type_symbol
_atom_site_fract_x
_atom_site_fract_y
_atom_site_fract_z
Zr1	Zr	0.775361	0.884740	0.120497
O2	O	0.923139	0.738090	0.267145
O3	O	0.627584	0.929698	0.075544
O4	O	0.775363	0.929694	0.267145
O5	O	0.775357	0.738096	-0.075596
O6	O	0.775365	1.080832	0.267142
O7	O	0.775359	0.738094	0.075544
O8	O	0.511014	1.080839	-0.075597
O9	O	1.039709	0.738089	0.267143
O10	O	0.688368	1.061662	0.056367
O11	O	0.688366	0.948871	-0.056425
O12	O	0.862357	0.948866	0.169161
O13	O	0.862355	0.836074	0.056368
Zr14	Zr	0.775362	1.125790	-0.120558
Zr15	Zr	0.775365	1.125788	0.120493
Zr16	Zr	0.775359	0.884742	-0.120554
Zr17	Zr	0.961277	0.884737	0.120494
Zr18	Zr	0.589447	1.125793	-0.120555
O19	O	0.923140	1.080833	-0.075605
O20	O	0.923143	1.080830	0.267140
O21	O	0.923135	0.738094	-0.075599
O22	O	0.627585	1.272440	-0.267206
O23	O	0.627588	1.272437	0.075538
O24	O	0.627580	0.929701	-0.267201
O25	O	0.775366	1.272435	0.075535
O26	O	0.775360	1.080837	-0.267206
O27	O	0.775358	0.929699	-0.267203
O28	O	0.775365	1.272436	-0.075605
O29	O	1.039711	0.929690	0.267140
O30	O	0.511013	1.080841	-0.267201
O31	O	0.511015	1.272442	-0.267204
O32	O	0.511017	1.272440	-0.075600
O33	O	1.039707	0.738090	0.075539
O34	O	1.039709	0.929691	0.075536
O35	O	0.688366	1.061665	-0.169222
O36	O	0.688369	1.174456	-0.056429
O37	O	0.862358	1.061660	0.056364
O38	O	0.862355	0.948868	-0.056428
C39	C	0.542810	1.005269	-0.000026
C40	C	0.463884	1.005270	-0.000025
C41	C	0.059696	1.088530	-0.083300
C42	C	0.133854	1.088537	-0.083295
C43	C	0.235156	1.005268	-0.000030
C44	C	0.262300	0.921994	0.083243
C45	C	0.188142	0.921993	0.083241
C46	C	0.416864	0.922001	0.083239
C47	C	0.491028	0.922000	0.083239
C48	C	0.362577	1.088544	-0.083298
C49	C	0.288419	1.088543	-0.083299
C50	C	0.315568	1.005268	-0.000028
C51	C	0.775358	0.703751	-0.000026
C52	C	0.775356	0.601420	-0.000024
C53	C	0.684538	0.612220	-0.058901
C54	C	0.684542	0.516065	-0.058911
C55	C	0.866193	0.398313	0.058841
C56	C	0.866187	0.494467	0.058844
C57	C	0.593707	0.719173	-0.117769
C58	C	0.502881	0.729977	-0.176649
C59	C	0.502886	0.633822	-0.176659
C60	C	0.593717	0.526863	-0.117789
C61	C	1.007913	1.005262	-0.000035
C62	C	1.086839	1.005261	-0.000036
C63	C	0.775365	1.005262	0.301488
C64	C	0.775366	1.005261	0.403821
C65	C	0.775366	1.306780	-0.000035
C66	C	0.775367	1.409111	-0.000037
C67	C	0.775359	1.088534	0.548043
C68	C	0.775366	1.088528	0.451896
C69	C	0.775369	0.921988	0.451906
C70	C	0.775370	0.921989	0.548056
C71	C	0.775349	1.171813	0.596106
C72	C	0.775348	1.255085	0.548029
C73	C	0.775354	1.255080	0.451882
C74	C	0.775363	1.171802	0.403811
C75	C	0.775359	1.005268	0.698451
C76	C	0.775359	1.005268	0.596119
C77	C	0.542814	1.306783	-0.000031
C78	C	0.463890	1.409115	-0.000031
C79	C	0.542807	1.005272	-0.301545
C80	C	0.463880	1.005274	-0.403876
C81	C	0.542811	1.306786	-0.301550
C82	C	0.463885	1.409119	-0.403883
C83	C	1.007912	0.703745	0.301489
C84	C	1.086838	0.601411	0.403822
C85	C	1.007909	0.703747	-0.000030
C86	C	1.086834	0.601415	-0.000030
C87	C	1.007916	1.005259	0.301484
C88	C	1.086843	1.005257	0.403815
C89	C	0.426826	1.398295	0.058857
C90	C	0.352678	1.494437	0.058880
C91	C	0.315590	1.601400	0.000006
C92	C	0.352662	1.612219	-0.058884
C93	C	0.426813	1.516077	-0.058899
C94	C	0.426815	1.064152	-0.510821
C95	C	0.352666	1.064150	-0.606981
C96	C	0.315577	1.005275	-0.596195
C97	C	0.352649	0.946390	-0.489239
C98	C	0.426802	0.946386	-0.393081
C99	C	0.426823	1.516062	-0.393063
C100	C	0.352674	1.612225	-0.489206
C101	C	0.315584	1.601441	-0.596169
C102	C	0.352655	1.494487	-0.606987
C103	C	0.426807	1.398327	-0.510844
C104	C	1.123910	0.494468	0.393002
C105	C	1.198082	0.398306	0.489145
C106	C	1.235175	0.409089	0.596108
C107	C	1.198100	0.516043	0.606926
C108	C	1.123935	0.612203	0.510783
C109	C	1.123906	0.612236	-0.058908
C110	C	1.198074	0.516093	-0.058904
C111	C	1.235164	0.409130	-0.000027
C112	C	1.198089	0.398312	0.058859
C113	C	1.123927	0.494453	0.058860
C114	C	1.123909	1.064143	0.392993
C115	C	1.198059	1.064163	0.489135
C116	C	1.235148	1.005289	0.596098
C117	C	1.198075	0.946402	0.606919
C118	C	1.123921	0.946389	0.510778
H119	H	0.111744	1.156346	-0.151094
N120	N	0.312639	1.727591	-0.122398
H121	H	0.347363	1.719870	-0.159715
H122	H	0.325541	1.770051	-0.068339
H123	H	0.322499	1.699303	-0.480378
N124	N	0.964150	0.282953	0.122331
H125	H	0.968202	0.240429	0.181581
H126	H	1.021630	0.290792	0.159559
N127	N	0.312646	1.482865	-0.722356
H128	H	0.260044	1.560016	-0.781610
H129	H	0.281921	1.440360	-0.731268
H130	H	0.255205	1.679750	-0.674445
N131	N	1.315156	0.305372	0.699803
H132	H	1.376700	0.305312	0.746087
H133	H	1.332921	0.236046	0.676620
N134	N	0.775349	1.171822	0.699811
H135	H	0.837114	1.099093	0.763016
H136	H	0.713546	1.179211	0.682833
N137	N	0.775357	0.832187	0.400046
H138	H	0.775356	0.779438	0.445092
H139	H	0.837119	0.788516	0.400188
N140	N	0.775364	1.171811	0.300105
H141	H	0.713598	1.179163	0.236905
H142	H	0.837166	1.099073	0.317078
N143	N	0.466825	1.527714	-0.277706
H144	H	0.519427	1.450576	-0.218430
H145	H	0.410192	1.570242	-0.268798
N146	N	1.083947	0.727541	0.522477
H147	H	1.009508	0.770049	0.485223
H148	H	1.096907	0.769996	0.485230
H149	H	0.593713	0.448571	-0.117809
H150	H	0.456974	1.311253	-0.519670
H151	H	0.255211	1.679676	0.000027
H152	H	0.255196	1.005287	-0.674502
H153	H	0.456981	1.524903	-0.106860
H154	H	0.775371	0.854186	0.587201
N155	N	0.775366	1.344881	0.400033
H156	H	0.775360	1.397633	0.445074
H157	H	0.713602	1.388547	0.320096
H158	H	0.340474	1.156349	-0.151102
N159	N	1.238039	0.282960	0.477458
H160	H	1.290654	0.223671	0.554589
H161	H	1.268733	0.274062	0.434919
H162	H	0.457005	1.112095	-0.519625
H163	H	0.322490	1.112105	-0.694060
N164	N	0.466816	1.282935	0.122359
H165	H	0.432079	1.290686	0.159666
H166	H	0.541260	1.240476	0.181546
H167	H	0.210250	0.854189	0.151045
N168	N	0.404915	0.845329	-0.240139
H169	H	0.365206	0.854347	-0.322508
H170	H	0.418770	0.904537	-0.231111
N171	N	0.312704	1.482754	0.122401
H172	H	0.347448	1.400404	0.159682
H173	H	0.238260	1.520086	0.068348
N174	N	1.083925	0.727590	-0.122408
H175	H	1.096830	0.770103	-0.068404
H176	H	1.009496	0.770026	-0.181667
H177	H	1.093746	0.485627	0.106803
H178	H	0.775349	1.322883	0.587179
N179	N	0.312636	0.882899	-0.477613
H180	H	0.260032	0.891850	-0.554763
H181	H	0.281913	0.913826	-0.435108
N182	N	0.466750	0.882861	-0.277756
H183	H	0.453843	0.936836	-0.235218
H184	H	0.541177	0.823592	-0.235314
H185	H	0.940140	0.485669	0.106765
N186	N	1.238051	0.527776	-0.122420
H187	H	1.203289	0.610127	-0.159725
H188	H	1.225150	0.490446	-0.181611
N189	N	1.083907	0.482821	0.277643
H190	H	1.118658	0.400475	0.285395
H191	H	1.096806	0.520157	0.235179
H192	H	0.593693	0.797473	-0.117765
N193	N	1.238112	0.527665	0.722295
H194	H	1.290715	0.450515	0.781549
H195	H	1.181481	0.570170	0.731211
N196	N	1.315142	0.305447	-0.000056
H197	H	1.289332	0.259172	-0.033572
H198	H	1.376662	0.259243	0.079703
H199	H	1.228299	0.311210	0.106794
H200	H	1.093723	1.112084	0.305906
N201	N	1.238033	1.127683	0.477450
H202	H	1.203287	1.164964	0.395099
H203	H	1.312477	1.073629	0.514780
N204	N	0.600284	0.832185	0.173059
H205	H	0.633919	0.868508	0.216812
H206	H	0.633835	0.788453	0.136657
N207	N	1.315123	1.005325	0.699779
H208	H	1.376652	0.971825	0.699809
H209	H	1.332920	0.959117	0.769136
N210	N	1.238083	0.882905	0.722289
H211	H	1.290686	0.891851	0.781542
H212	H	1.268806	0.800564	0.731204
N213	N	1.083957	0.882864	0.522470
H214	H	1.140550	0.800503	0.564954
H215	H	1.031338	0.891867	0.445306
H216	H	0.205935	1.156343	-0.151106
N217	N	-0.049564	1.178338	-0.173113
H218	H	-0.055503	1.231091	-0.225858
H219	H	-0.083129	1.222002	-0.136697
N220	N	0.446142	0.832189	0.173055
H221	H	0.521569	0.779436	0.225802
H222	H	0.418168	0.788524	0.136637
H223	H	0.344787	0.854200	0.151043
H224	H	0.428931	0.642625	-0.224611
