data_functionalizedCrystal
_audit_creation_method	'MofGen! by Chris Wilmer'
_symmetry_space_group_name_H-M	'P1'
_symmetry_Int_Tables_number	1
_symmetry_cell_setting	triclinic
loop_
_symmetry_equiv_pos_as_xyz
  x,y,z
_cell_length_a	10.489716
_cell_length_b	10.489716
_cell_length_c	9.730223
_cell_angle_alpha	89.999635
_cell_angle_beta	89.997085
_cell_angle_gamma	84.529136
loop_
_atom_site_label
_atom_site_type_symbol
_atom_site_fract_x
_atom_site_fract_y
_atom_site_fract_z
O1	O	1.694054	0.179820	-0.114265
O2	O	1.322853	0.196746	-0.114269
O3	O	1.516916	0.002683	-0.114272
O4	O	1.499990	0.373884	-0.114262
O5	O	1.516904	0.002677	0.114308
O6	O	1.322840	0.196741	0.114311
O7	O	1.694041	0.179815	0.114315
Zn8	Zn	1.508439	0.188277	0.150605
Zn9	Zn	1.508455	0.188284	-0.150559
O10	O	1.499978	0.373878	0.114317
C11	C	1.275314	0.195472	0.000020
C12	C	1.133684	0.191667	0.000018
C13	C	1.515638	-0.044852	0.000014
C14	C	1.511833	-0.186483	0.000001
C15	C	1.035999	0.310673	0.000018
C16	C	0.958653	0.247785	0.112724
C17	C	0.958672	0.247762	-0.112638
C18	C	1.058203	0.128829	0.112817
C19	C	1.058227	0.128823	-0.112646
C20	C	0.980929	0.065848	0.000088
C21	C	1.630839	-0.284167	0.000015
C22	C	1.567960	-0.361520	-0.112684
C23	C	1.567920	-0.361489	0.112678
C24	C	1.449004	-0.261970	-0.112791
C25	C	1.448981	-0.261934	0.112672
C26	C	1.386015	-0.339237	-0.000054
C27	C	1.741580	0.181089	0.000022
C28	C	1.883210	0.184894	0.000015
C29	C	1.501256	0.421413	0.000029
C30	C	1.505061	0.563044	0.000032
N31	N	1.508437	0.188271	0.356141
N32	N	1.508467	0.188280	-0.356096
C33	C	1.594398	0.102377	0.428066
C34	C	1.594410	0.102377	0.571949
C35	C	1.422497	0.274178	0.571970
C36	C	1.422479	0.274171	0.428089
H37	H	1.060659	0.414190	0.000126
H38	H	0.956508	-0.037744	0.000151
C39	C	1.381172	-0.203126	0.241392
C40	C	1.371402	-0.057257	0.264263
C41	C	1.303607	0.001553	0.392996
C42	C	1.245581	-0.085504	0.498859
C43	C	1.255349	-0.231382	0.475991
C44	C	1.323144	-0.290192	0.347257
H45	H	1.414358	0.007196	0.185894
H46	H	1.296376	0.109542	0.409924
H47	H	1.195394	-0.041969	0.594155
H48	H	1.212393	-0.295835	0.554359
H49	H	1.330375	-0.398180	0.330330
C50	C	0.899938	0.315652	-0.241352
C51	C	0.916079	0.458222	-0.266076
C52	C	0.857350	0.526122	-0.394783
C53	C	0.782479	0.451453	-0.498766
C54	C	0.766335	0.308874	-0.474045
C55	C	0.825065	0.240974	-0.345338
H56	H	0.971506	0.513504	-0.189099
H57	H	0.869301	0.631669	-0.413082
H58	H	0.739004	0.501716	-0.594042
H59	H	0.710909	0.253592	-0.551022
H60	H	0.813113	0.135428	-0.327039
C61	C	1.770674	-0.250828	-0.000131
C62	C	1.860470	-0.295393	-0.119528
C63	C	2.000301	-0.262050	-0.119681
C64	C	2.050335	-0.184144	-0.000438
C65	C	1.960538	-0.139574	0.118968
C66	C	1.820707	-0.172916	0.119121
H67	H	1.823433	-0.353068	-0.207807
H68	H	2.066775	-0.295044	-0.208074
H69	H	2.153846	-0.159462	-0.000552
H70	H	1.997575	-0.081899	0.207247
H71	H	1.754233	-0.139923	0.207514
C72	C	1.327956	0.368675	0.651113
C73	C	1.328043	0.368768	0.809376
C74	C	1.233503	0.463271	0.888515
C75	C	1.138875	0.557680	0.809391
C76	C	1.138785	0.557590	0.651119
C77	C	1.233326	0.463088	0.571981
H78	H	1.398095	0.298877	0.867956
H79	H	1.233570	0.463337	1.005678
H80	H	1.068891	0.627636	0.867974
H81	H	1.068733	0.627481	0.592539
H82	H	1.233259	0.463022	0.454817
H83	H	0.915161	0.298020	0.208010
H84	H	1.101518	0.078618	0.208196
H85	H	1.664387	0.032431	0.369489
H86	H	1.101732	0.078627	-0.207936
H87	H	1.618202	-0.405017	-0.207964
H88	H	1.352474	0.344117	0.369524
H89	H	1.398799	-0.218659	-0.208175
H90	H	1.282422	-0.363659	-0.000116
H91	H	1.618177	-0.404968	0.207954
H92	H	1.664406	0.032433	0.630506
