data_functionalizedCrystal
_audit_creation_method	'MofGen! by Chris Wilmer'
_symmetry_space_group_name_H-M	'P1'
_symmetry_Int_Tables_number	1
_symmetry_cell_setting	triclinic
loop_
_symmetry_equiv_pos_as_xyz
  x,y,z
_cell_length_a	18.878441
_cell_length_b	14.560438
_cell_length_c	14.560438
_cell_angle_alpha	60.000905
_cell_angle_beta	90.000055
_cell_angle_gamma	60.000434
loop_
_atom_site_label
_atom_site_type_symbol
_atom_site_fract_x
_atom_site_fract_y
_atom_site_fract_z
Zr1	Zr	0.682379	1.005308	-0.120537
O2	O	0.569273	1.196906	-0.267177
O3	O	0.717052	0.813708	-0.075587
O4	O	0.717048	1.005312	-0.267187
O5	O	0.569280	1.005300	0.075564
O6	O	0.833616	1.005318	-0.267192
O7	O	0.569277	1.005302	-0.075577
O8	O	0.833622	0.662573	0.075546
O9	O	0.569273	1.348044	-0.267174
O10	O	0.818833	0.892521	-0.056417
O11	O	0.731842	0.892515	0.056382
O12	O	0.731838	1.118104	-0.169203
O13	O	0.644847	1.118098	-0.056405
Zr14	Zr	0.868296	1.005313	0.120507
Zr15	Zr	0.868291	1.005317	-0.120545
Zr16	Zr	0.682384	1.005304	0.120515
Zr17	Zr	0.682379	1.246356	-0.120533
Zr18	Zr	0.868295	0.764265	0.120502
O19	O	0.833623	1.196913	0.075556
O20	O	0.833616	1.196918	-0.267189
O21	O	0.569280	1.196901	0.075568
O22	O	0.981402	0.813715	0.267147
O23	O	0.981395	0.813721	-0.075598
O24	O	0.717058	0.813703	0.267159
O25	O	0.981395	1.005321	-0.075595
O26	O	0.833627	1.005309	0.267157
O27	O	0.717059	1.005303	0.267162
O28	O	0.981398	1.005319	0.075546
O29	O	0.717049	1.348051	-0.267181
O30	O	0.833626	0.662570	0.267151
O31	O	0.981401	0.662577	0.267144
O32	O	0.981398	0.662580	0.075540
O33	O	0.569277	1.348041	-0.075570
O34	O	0.717052	1.348048	-0.075577
O35	O	0.818837	0.892517	0.169173
O36	O	0.905828	0.892523	0.056374
O37	O	0.818833	1.118106	-0.056412
O38	O	0.731842	1.118100	0.056386
C39	C	0.775337	0.703797	-0.000021
C40	C	0.775337	0.601466	-0.000023
C41	C	0.820743	0.553393	-0.058903
C42	C	0.820747	0.457233	-0.058892
C43	C	0.729930	0.457232	0.058880
C44	C	0.729932	0.553383	0.058875
C45	C	0.542790	1.005300	-0.000005
C46	C	0.463865	1.005296	-0.000001
C47	C	0.472194	0.887545	0.058868
C48	C	0.398033	0.887550	0.058869
C49	C	0.315544	1.005306	-0.000007
C50	C	0.307216	1.123066	-0.058878
C51	C	0.381376	1.123060	-0.058872
C52	C	0.152646	1.123070	-0.058890
C53	C	0.078480	1.123076	-0.058898
C54	C	0.169303	0.887559	0.058851
C55	C	0.243463	0.887553	0.058857
C56	C	0.235130	1.005314	-0.000016
C57	C	1.007885	1.005321	-0.000025
C58	C	1.086810	1.005325	-0.000029
C59	C	0.775331	1.005316	-0.301535
C60	C	0.775329	1.005317	-0.403868
C61	C	0.775338	1.306824	-0.000009
C62	C	0.775338	1.409155	-0.000008
C63	C	0.729920	1.123067	-0.510817
C64	C	0.729930	1.123061	-0.606966
C65	C	0.820761	0.887545	-0.489202
C66	C	0.820755	0.887552	-0.393055
C67	C	0.775343	1.005306	0.301504
C68	C	0.775345	1.005304	0.403837
C69	C	1.007885	0.703808	-0.000031
C70	C	1.086809	0.601480	-0.000036
C71	C	0.775343	0.703792	0.301499
C72	C	0.775345	0.601459	0.403830
C73	C	1.007891	0.703802	0.301488
C74	C	1.086817	0.601473	0.403816
C75	C	0.542784	1.306819	-0.301519
C76	C	0.463858	1.409148	-0.403846
C77	C	0.542790	1.306814	0.000001
C78	C	0.463866	1.409141	0.000006
C79	C	0.775332	1.306829	-0.301529
C80	C	0.775330	1.409162	-0.403860
C81	C	1.078462	0.553425	-0.058925
C82	C	1.152613	0.457291	-0.058952
C83	C	1.235110	0.409207	-0.000084
C84	C	1.243455	0.457272	0.058806
C85	C	1.169305	0.553411	0.058826
C86	C	1.169298	0.553422	0.392990
C87	C	1.243465	0.457286	0.489129
C88	C	1.235149	0.409197	0.596092
C89	C	1.152659	0.457258	0.606915
C90	C	1.078494	0.553399	0.510778
C91	C	0.381377	1.457211	-0.393021
C92	C	0.307210	1.553377	-0.489159
C93	C	0.315526	1.601471	-0.596122
C94	C	0.398015	1.553403	-0.606945
C95	C	0.472180	1.457246	-0.510808
C96	C	0.472213	1.457206	0.058884
C97	C	0.398062	1.553367	0.058885
C98	C	0.315565	1.601454	0.000014
C99	C	0.307219	1.553385	-0.058872
C100	C	0.381369	1.457233	-0.058878
C101	C	0.820755	0.553382	0.510781
C102	C	0.820747	0.457239	0.606928
C103	C	0.729916	0.457254	0.489159
C104	C	0.729920	0.553402	0.393014
H105	H	0.692962	0.418073	0.106831
C106	C	0.679980	0.606271	0.123643
H107	H	0.652928	0.563879	0.158707
H108	H	0.719178	0.590516	0.179352
H109	H	0.637004	0.697050	0.072814
C110	C	0.870715	0.758014	-0.477317
H111	H	0.864207	0.774872	-0.549895
H112	H	0.930457	0.709630	-0.437366
H113	H	0.848282	0.709635	-0.437367
C114	C	1.316735	0.303435	0.701833
H115	H	1.367046	0.281701	0.680056
H116	H	1.316753	0.334934	0.745341
H117	H	1.316748	0.228403	0.745325
H118	H	1.310634	0.418108	0.106734
C119	C	0.870706	0.606260	0.522677
H120	H	0.897741	0.563865	0.600147
H121	H	0.913681	0.590508	0.487619
H122	H	0.831501	0.697039	0.487621
C123	C	0.870705	0.758021	-0.275404
H124	H	0.897750	0.687884	-0.282733
H125	H	0.913673	0.753134	-0.235449
H126	H	0.831501	0.753131	-0.235454
C127	C	1.143523	0.404340	0.724577
H128	H	1.199510	0.340190	0.780274
H129	H	1.112712	0.473344	0.733038
H130	H	1.112722	0.366807	0.733016
C131	C	0.372212	1.404339	-0.275374
H132	H	0.312462	1.446761	-0.282712
H133	H	0.399245	1.313565	-0.235410
H134	H	0.399259	1.420108	-0.235428
C135	C	0.987723	0.606308	-0.123687
H136	H	0.944749	0.670443	-0.115242
H137	H	0.981218	0.643824	-0.201147
H138	H	0.981220	0.537275	-0.094611
C139	C	0.216483	1.606222	-0.477234
H140	H	0.222159	1.563786	-0.399760
H141	H	0.185660	1.696994	-0.512272
H142	H	0.185663	1.590461	-0.512296
H143	H	0.404823	0.791665	0.106808
H144	H	0.240046	1.218945	-0.106809
C145	C	0.334199	0.758025	0.123618
H146	H	0.328542	0.687892	0.158689
H147	H	0.365018	0.753131	0.072800
H148	H	0.365012	0.753133	0.179341
H149	H	0.539338	1.418114	-0.519636
C150	C	0.372182	1.404352	-0.123633
H151	H	0.428153	1.340203	-0.115217
H152	H	0.341363	1.366856	-0.094548
H153	H	0.341367	1.473384	-0.201097
H154	H	0.692954	1.218945	-0.694046
H155	H	0.255129	1.679768	-0.674394
H156	H	0.857724	0.418100	0.694009
C157	C	1.143418	0.404424	-0.123720
H158	H	1.083665	0.446817	-0.158756
H159	H	1.170444	0.420189	-0.179453
H160	H	1.170461	0.313642	-0.072895
C161	C	0.679964	0.404374	0.477270
H162	H	0.686473	0.340215	0.549848
H163	H	0.620222	0.473396	0.437322
H164	H	0.702398	0.366862	0.437318
H165	H	1.295481	0.330923	-0.000109
C166	C	1.178498	0.606246	0.123622
H167	H	1.238251	0.563823	0.158685
H168	H	1.151460	0.697022	0.072826
H169	H	1.151467	0.590459	0.179354
C170	C	0.234008	1.707215	0.000034
H171	H	0.250802	1.728939	0.043543
H172	H	0.200454	1.782242	-0.074973
H173	H	0.200460	1.675696	0.031572
C174	C	1.178458	0.606310	0.275341
H175	H	1.122480	0.670446	0.219625
H176	H	1.209266	0.643827	0.266909
H177	H	1.209274	0.537280	0.266906
C178	C	0.562929	0.758015	0.123629
H179	H	0.605905	0.774872	0.115196
H180	H	0.569432	0.709630	0.201088
H181	H	0.569431	0.709636	0.094542
H182	H	1.310625	0.418164	0.480296
C183	C	0.562949	1.404326	0.123649
H184	H	0.557288	1.446744	0.158702
H185	H	0.593767	1.313553	0.179368
H186	H	0.593766	1.420090	0.072822
H187	H	0.374589	1.218945	-0.106795
C188	C	0.216471	1.606281	-0.123615
H189	H	0.173512	1.670416	-0.115160
H190	H	0.209947	1.643797	-0.201079
H191	H	0.209961	1.537252	-0.094524
H192	H	0.857716	0.592537	-0.106859
H193	H	0.404874	1.592489	0.106841
H194	H	0.857722	0.418093	-0.106836
H195	H	1.011337	0.592510	0.519608
H196	H	0.692937	0.592550	0.305924
H197	H	0.011315	1.218963	-0.106840
C198	C	0.679967	1.252602	-0.522710
H199	H	0.652933	1.322728	-0.600179
H200	H	0.636992	1.257509	-0.487654
H201	H	0.719170	1.257495	-0.487651
H202	H	0.404776	1.592574	-0.694046
H203	H	0.145854	1.218963	-0.106809
H204	H	0.176086	0.791674	0.106779
