data_functionalizedCrystal
_audit_creation_method	'MofGen! by Chris Wilmer'
_symmetry_space_group_name_H-M	'P1'
_symmetry_Int_Tables_number	1
_symmetry_cell_setting	triclinic
loop_
_symmetry_equiv_pos_as_xyz
  x,y,z
_cell_length_a	6.817900
_cell_length_b	26.454438
_cell_length_c	19.453114
_cell_angle_alpha	85.155715
_cell_angle_beta	78.290712
_cell_angle_gamma	104.562136
loop_
_atom_site_label
_atom_site_type_symbol
_atom_site_fract_x
_atom_site_fract_y
_atom_site_fract_z
V1	V	-4.011348	-0.072677	0.217851
O2	O	-3.994559	0.002934	0.214876
O3	O	-3.967390	-0.143569	0.215234
O4	O	-3.954208	-0.071804	0.313378
O5	O	-4.007832	-0.069328	0.116053
V6	V	-4.495532	-0.063604	0.205812
O7	O	-4.271154	-0.092579	0.244260
O8	O	-4.685923	-0.043702	0.179404
O9	O	-4.316284	0.007288	0.208430
O10	O	-4.629718	-0.139215	0.208788
O11	O	-4.616445	-0.066953	0.307611
O12	O	-4.329466	-0.064477	0.110286
C13	C	-3.813754	-0.160843	0.211507
C14	C	-3.859042	-0.218799	0.210004
C15	C	-4.133276	0.024560	0.212156
C16	C	-4.065993	0.083604	0.213702
C17	C	-4.149375	-0.624944	0.135150
C18	C	-4.106804	-0.570487	0.136555
C19	C	-4.118518	-0.550830	0.201423
C20	C	-4.172757	-0.585635	0.264889
C21	C	-4.215306	-0.640090	0.263482
N22	N	-4.190104	-0.472679	0.253969
N23	N	-4.149686	-0.420948	0.255302
C24	C	-3.990317	-0.386758	0.205667
N25	N	-3.872913	-0.406252	0.154639
N26	N	-3.913342	-0.457988	0.153304
C27	C	-4.072383	-0.491782	0.202956
C28	C	-3.889911	-0.292911	0.143728
C29	C	-3.847328	-0.238453	0.145135
C30	C	-3.913303	-0.253602	0.273472
C31	C	-3.955864	-0.308059	0.272062
C32	C	-3.944174	-0.327710	0.207188
V33	V	-4.216659	0.179669	0.209791
O34	O	-4.168762	0.256608	0.205101
O35	O	-4.204020	0.105822	0.211006
O36	O	-4.190192	0.177565	0.309178
O37	O	-4.182687	0.184368	0.106249
V38	V	-4.663556	0.203577	0.178463
O39	O	-4.476167	0.166697	0.227182
O40	O	-4.826287	0.229992	0.143591
O41	O	-4.466850	0.270759	0.185915
O42	O	-4.821559	0.130143	0.178595
O43	O	-4.807634	0.202383	0.277447
O44	O	-4.480679	0.199015	0.087743
C45	C	-3.796938	-0.069299	0.336698
C46	C	-3.831533	-0.069055	0.414784
C47	C	-4.150078	-0.066983	0.086962
C48	C	-4.094721	-0.067225	0.008875
C49	C	-4.289118	0.282923	0.196284
C50	C	-4.203616	0.340258	0.198608
C51	C	-4.048362	0.175118	0.338935
C52	C	-4.103174	0.175346	0.417034
C53	C	-4.029732	-0.071557	0.455002
C54	C	-4.062238	-0.071327	0.528372
C55	C	-3.896543	-0.068606	0.561524
C56	C	-3.698314	-0.066100	0.521297
C57	C	-3.665809	-0.066325	0.447927
N58	N	-3.838526	-0.096139	0.679879
N59	N	-3.869417	-0.095927	0.749578
C60	C	-3.994467	-0.067928	0.782583
N61	N	-4.087495	-0.040156	0.743259
N62	N	-4.056608	-0.040370	0.673554
C63	C	-3.931769	-0.068362	0.641081
C64	C	-4.227925	-0.070180	0.902358
C65	C	-4.260421	-0.069947	0.975729
C66	C	-3.896495	-0.064726	0.968652
C67	C	-3.864000	-0.064954	0.895282
C68	C	-4.029725	-0.067684	0.862140
C69	C	-4.306758	0.191408	0.071055
C70	C	-4.232473	0.190563	-0.006239
C71	C	-4.301675	0.178169	0.450325
C72	C	-4.353195	0.178391	0.523705
C73	C	-4.206214	0.175787	0.563794
C74	C	-4.007694	0.172966	0.530498
C75	C	-3.956173	0.172747	0.457118
C76	C	-4.037628	0.182289	-0.032157
C77	C	-3.967795	0.181499	-0.104781
C78	C	-4.092816	0.188978	-0.151486
C79	C	-4.287675	0.197254	-0.125564
C80	C	-4.357499	0.198048	-0.052941
H81	H	-4.139847	-0.640940	0.082324
H82	H	-4.389448	0.203345	-0.163602
H83	H	-4.362866	-0.072401	0.875371
H84	H	-3.504406	-0.064283	0.415181
H85	H	-4.164680	-0.073777	0.428022
C86	C	-4.463386	0.181039	0.406240
N87	N	-4.585195	0.183204	0.373039
C88	C	-3.900060	0.174065	0.019206
N89	N	-3.796423	0.167873	0.057888
C90	C	-3.516021	-0.063074	0.557759
N91	N	-3.378699	-0.060781	0.585219
C92	C	-4.047150	-0.532203	0.066744
N93	N	-4.002229	-0.503369	0.014162
H94	H	-4.516164	0.204782	-0.031845
C95	C	-3.877025	-0.314528	0.072366
N96	N	-3.867312	-0.330809	0.018615
C97	C	-3.787644	-0.200174	0.075322
N98	N	-3.742688	-0.171342	0.022737
H99	H	-4.182287	-0.569626	0.317705
H100	H	-4.259472	-0.668423	0.315159
H101	H	-3.922831	-0.237598	0.326288
C102	C	-4.015559	-0.346338	0.341873
N103	N	-4.060520	-0.375170	0.394457
H104	H	-4.248194	0.175965	0.623544
H105	H	-3.809128	0.174760	-0.125875
H106	H	-4.223643	-0.073367	0.561125
H107	H	-4.421818	-0.071981	1.008472
C108	C	-3.714235	-0.061743	1.005117
N109	N	-3.576956	-0.059499	1.032586
H110	H	-4.514850	0.180687	0.550805
C111	C	-4.015985	0.188099	-0.231371
N112	N	-3.958108	0.187434	-0.291540
H113	H	-3.702612	-0.062922	0.862537
H114	H	-3.888036	0.170845	0.563149
H115	H	-3.794535	0.170446	0.430019
