data_functionalizedCrystal
_audit_creation_method	'MofGen! by Chris Wilmer'
_symmetry_space_group_name_H-M	'P1'
_symmetry_Int_Tables_number	1
_symmetry_cell_setting	triclinic
loop_
_symmetry_equiv_pos_as_xyz
  x,y,z
_cell_length_a	21.395364
_cell_length_b	21.395363
_cell_length_c	21.395355
_cell_angle_alpha	90.004913
_cell_angle_beta	89.974702
_cell_angle_gamma	89.981608
loop_
_atom_site_label
_atom_site_type_symbol
_atom_site_fract_x
_atom_site_fract_y
_atom_site_fract_z
Zn1	Zn	-0.957985	-0.249232	0.354333
Zn2	Zn	-0.707985	0.000768	0.604333
Zn3	Zn	-0.457985	0.250768	0.854333
Zn4	Zn	-0.207985	0.500768	1.104333
Zn5	Zn	-0.957941	-0.353992	0.249581
Zn6	Zn	-0.707941	-0.103992	0.499581
Zn7	Zn	-0.457941	0.146008	0.749581
Zn8	Zn	-0.207941	0.396008	0.999581
Zn9	Zn	-0.853200	-0.249262	0.249569
Zn10	Zn	-0.603200	0.000738	0.499569
Zn11	Zn	-0.353200	0.250738	0.749569
Zn12	Zn	-0.103200	0.500738	0.999569
Zn13	Zn	-0.853223	-0.354006	0.354319
Zn14	Zn	-0.603223	-0.104006	0.604319
Zn15	Zn	-0.353223	0.145994	0.854319
Zn16	Zn	-0.103223	0.395994	1.104319
O17	O	-0.905587	-0.301623	0.301950
O18	O	-0.655587	-0.051623	0.551950
O19	O	-0.405587	0.198377	0.801950
O20	O	-0.155587	0.448377	1.051950
O21	O	-1.045657	-0.263110	0.340448
O22	O	-0.795657	-0.013110	0.590448
O23	O	-0.545657	0.236890	0.840448
O24	O	-0.295657	0.486890	1.090448
O25	O	-0.944019	-0.340106	0.161901
O26	O	-0.694019	-0.090106	0.411901
O27	O	-0.444019	0.159894	0.661901
O28	O	-0.194019	0.409894	0.911901
O29	O	-0.867110	-0.161581	0.263467
O30	O	-0.617110	0.088419	0.513467
O31	O	-0.367110	0.338419	0.763467
O32	O	-0.117110	0.588419	1.013467
O33	O	-1.045625	-0.340076	0.263487
O34	O	-0.795625	-0.090076	0.513487
O35	O	-0.545625	0.159924	0.763487
O36	O	-0.295625	0.409924	1.013487
O37	O	-0.944095	-0.161558	0.340437
O38	O	-0.694095	0.088442	0.590437
O39	O	-0.444095	0.338442	0.840437
O40	O	-0.194095	0.588442	1.090437
O41	O	-0.867067	-0.263162	0.161892
O42	O	-0.617067	-0.013162	0.411892
O43	O	-0.367067	0.236838	0.661892
O44	O	-0.117067	0.486838	0.911892
O45	O	-0.765526	-0.263176	0.263453
O46	O	-0.515526	-0.013176	0.513453
O47	O	-0.265526	0.236824	0.763453
O48	O	-0.015526	0.486824	1.013453
O49	O	-0.867148	-0.340101	0.441999
O50	O	-0.617148	-0.090101	0.691999
O51	O	-0.367148	0.159899	0.941999
O52	O	-0.117148	0.409899	1.191999
O53	O	-0.765542	-0.340130	0.340413
O54	O	-0.515542	-0.090130	0.590413
O55	O	-0.265542	0.159870	0.840413
O56	O	-0.015542	0.409870	1.090413
O57	O	-0.944116	-0.263123	0.442009
O58	O	-0.694116	-0.013123	0.692009
O59	O	-0.444116	0.236877	0.942009
O60	O	-0.194116	0.486877	1.192009
O61	O	-0.944041	-0.441671	0.263474
O62	O	-0.694041	-0.191671	0.513474
O63	O	-0.444041	0.058329	0.763474
O64	O	-0.194041	0.308329	1.013474
O65	O	-0.867105	-0.441682	0.340425
O66	O	-0.617105	-0.191682	0.590425
O67	O	-0.367105	0.058318	0.840425
O68	O	-0.117105	0.308318	1.090425
C69	C	-0.742800	-0.301658	0.301931
C70	C	-0.492800	-0.051658	0.551931
C71	C	-0.242800	0.198342	0.801931
C72	C	0.007200	0.448342	1.051931
C73	C	-0.673159	-0.301689	0.301937
C74	C	-0.423159	-0.051689	0.551937
C75	C	-0.173159	0.198311	0.801937
C76	C	0.076841	0.448311	1.051937
C77	C	-0.640485	-0.261679	0.342072
C78	C	-0.390485	-0.011679	0.592072
C79	C	-0.140485	0.238321	0.842072
C80	C	0.109515	0.488321	1.092072
C81	C	-0.575049	-0.261664	0.342074
C82	C	-0.325049	-0.011664	0.592074
C83	C	-0.075049	0.238336	0.842074
C84	C	0.174951	0.488336	1.092074
C85	C	-0.542290	-0.301671	0.301947
C86	C	-0.292290	-0.051671	0.551947
C87	C	-0.042290	0.198329	0.801947
C88	C	0.207710	0.448329	1.051947
C89	C	-0.574972	-0.341683	0.261804
C90	C	-0.324972	-0.091683	0.511804
C91	C	-0.074972	0.158317	0.761804
C92	C	0.175028	0.408317	1.011804
C93	C	-0.640406	-0.341692	0.261799
C94	C	-0.390406	-0.091692	0.511799
C95	C	-0.140406	0.158308	0.761799
C96	C	0.109594	0.408308	1.011799
C97	C	-0.438594	-0.358098	0.296921
C98	C	-0.188594	-0.108098	0.546921
C99	C	0.061406	0.141902	0.796921
C100	C	0.311406	0.391902	1.046921
C101	C	-0.373162	-0.358090	0.296931
C102	C	-0.123162	-0.108090	0.546931
C103	C	0.126838	0.141910	0.796931
C104	C	0.376838	0.391910	1.046931
C105	C	-0.340470	-0.301642	0.301958
C106	C	-0.090470	-0.051642	0.551958
C107	C	0.159530	0.198358	0.801958
C108	C	0.409530	0.448358	1.051958
C109	C	-0.373219	-0.245200	0.306990
C110	C	-0.123219	0.004800	0.556990
C111	C	0.126781	0.254800	0.806990
C112	C	0.376781	0.504800	1.056990
C113	C	-0.438653	-0.245209	0.306985
C114	C	-0.188653	0.004791	0.556985
C115	C	0.061347	0.254791	0.806985
C116	C	0.311347	0.504791	1.056985
C117	C	-0.471338	-0.301665	0.301947
C118	C	-0.221338	-0.051665	0.551947
C119	C	0.028662	0.198335	0.801947
C120	C	0.278662	0.448335	1.051947
C121	C	-0.236843	-0.261613	0.342097
C122	C	0.013157	-0.011613	0.592097
C123	C	0.263157	0.238387	0.842097
C124	C	0.513157	0.488387	1.092097
C125	C	-0.171407	-0.261597	0.342094
C126	C	0.078593	-0.011597	0.592094
C127	C	0.328593	0.238403	0.842094
C128	C	0.578593	0.488403	1.092094
C129	C	-0.171330	-0.341622	0.261828
C130	C	0.078670	-0.091622	0.511828
C131	C	0.328670	0.158378	0.761828
C132	C	0.578670	0.408378	1.011828
C133	C	-0.236766	-0.341632	0.261827
C134	C	0.013234	-0.091632	0.511827
C135	C	0.263234	0.158368	0.761827
C136	C	0.513234	0.408368	1.011827
C137	C	-0.269518	-0.301629	0.301965
C138	C	-0.019518	-0.051629	0.551965
C139	C	0.230482	0.198371	0.801965
C140	C	0.480482	0.448371	1.051965
C141	C	-0.905587	-0.464411	0.301963
C142	C	-0.655587	-0.214411	0.551963
C143	C	-0.405587	0.035589	0.801963
C144	C	-0.155587	0.285589	1.051963
C145	C	-0.905644	-0.534052	0.301989
C146	C	-0.655644	-0.284052	0.551989
C147	C	-0.405644	-0.034052	0.801989
C148	C	-0.155644	0.215948	1.051989
C149	C	-0.905639	-0.301610	0.465374
C150	C	-0.655639	-0.051610	0.715374
C151	C	-0.405639	0.198390	0.965374
C152	C	-0.155639	0.448390	1.215374
C153	C	-0.905662	-0.301605	0.535015
C154	C	-0.655662	-0.051605	0.785015
C155	C	-0.405662	0.198395	1.035015
C156	C	-0.155662	0.448395	1.285015
C157	C	-0.069011	-0.301595	0.301967
C158	C	0.180989	-0.051595	0.551967
C159	C	0.430989	0.198405	0.801967
C160	C	0.680989	0.448405	1.051967
C161	C	-0.138652	-0.301603	0.301966
C162	C	0.111348	-0.051603	0.551966
C163	C	0.361348	0.198397	0.801966
C164	C	0.611348	0.448397	1.051966
C165	C	-0.905605	-0.138200	0.301952
C166	C	-0.655605	0.111800	0.551952
C167	C	-0.405605	0.361800	0.801952
C168	C	-0.155605	0.611800	1.051952
C169	C	-0.905612	-0.068558	0.301952
C170	C	-0.655612	0.181442	0.551952
C171	C	-0.405612	0.431442	0.801952
C172	C	-0.155612	0.681442	1.051952
C173	C	-0.865556	-0.035855	0.342013
C174	C	-0.615556	0.214145	0.592013
C175	C	-0.365556	0.464145	0.842013
C176	C	-0.115556	0.714145	1.092013
C177	C	-0.865562	0.029580	0.342022
C178	C	-0.615562	0.279580	0.592022
C179	C	-0.365562	0.529580	0.842022
C180	C	-0.115562	0.779580	1.092022
C181	C	-0.905617	0.062310	0.301959
C182	C	-0.655617	0.312310	0.551959
C183	C	-0.405617	0.562310	0.801959
C184	C	-0.155617	0.812310	1.051959
C185	C	-0.945682	0.029599	0.261895
C186	C	-0.695682	0.279599	0.511895
C187	C	-0.445682	0.529599	0.761895
C188	C	-0.195682	0.779599	1.011895
C189	C	-0.945679	-0.035835	0.261892
C190	C	-0.695679	0.214165	0.511892
C191	C	-0.445679	0.464165	0.761892
C192	C	-0.195679	0.714165	1.011892
C193	C	-0.910549	0.165976	0.245515
C194	C	-0.660549	0.415976	0.495515
C195	C	-0.410549	0.665976	0.745515
C196	C	-0.160549	0.915976	0.995515
C197	C	-0.910547	0.231409	0.245517
C198	C	-0.660547	0.481409	0.495517
C199	C	-0.410547	0.731409	0.745517
C200	C	-0.160547	0.981409	0.995517
C201	C	-0.905629	0.264131	0.301969
C202	C	-0.655629	0.514131	0.551969
C203	C	-0.405629	0.764131	0.801969
C204	C	-0.155629	1.014131	1.051969
C205	C	-0.900700	0.231411	0.358420
C206	C	-0.650700	0.481411	0.608420
C207	C	-0.400700	0.731411	0.858420
C208	C	-0.150700	0.981411	1.108420
C209	C	-0.900697	0.165977	0.358417
C210	C	-0.650697	0.415977	0.608417
C211	C	-0.400697	0.665977	0.858417
C212	C	-0.150697	0.915977	1.108417
C213	C	-0.905625	0.133262	0.301958
C214	C	-0.655625	0.383262	0.551958
C215	C	-0.405625	0.633262	0.801958
C216	C	-0.155625	0.883262	1.051958
C217	C	-0.865577	0.367786	0.342042
C218	C	-0.615577	0.617786	0.592042
C219	C	-0.365577	0.867786	0.842042
C220	C	-0.115577	1.117786	1.092042
C221	C	-0.865588	0.433223	0.342052
C222	C	-0.615588	0.683223	0.592052
C223	C	-0.365588	0.933223	0.842052
C224	C	-0.115588	1.183223	1.092052
C225	C	-0.945704	0.433241	0.261919
C226	C	-0.695704	0.683241	0.511919
C227	C	-0.445704	0.933241	0.761919
C228	C	-0.195704	1.183241	1.011919
C229	C	-0.945697	0.367805	0.261915
C230	C	-0.695697	0.617805	0.511915
C231	C	-0.445697	0.867805	0.761915
C232	C	-0.195697	1.117805	1.011915
C233	C	-0.905630	0.335082	0.301976
C234	C	-0.655630	0.585082	0.551976
C235	C	-0.405630	0.835082	0.801976
C236	C	-0.155630	1.085082	1.051976
C237	C	-0.905572	-0.301590	0.139163
C238	C	-0.655572	-0.051590	0.389163
C239	C	-0.405572	0.198410	0.639163
C240	C	-0.155572	0.448410	0.889163
C241	C	-0.905671	-0.301419	0.069522
C242	C	-0.655671	-0.051419	0.319522
C243	C	-0.405671	0.198581	0.569522
C244	C	-0.155671	0.448581	0.819522
C245	C	-0.945738	-0.261521	0.567734
C246	C	-0.695738	-0.011521	0.817734
C247	C	-0.445738	0.238479	1.067734
C248	C	-0.195738	0.488479	1.317734
C249	C	-0.945737	-0.261494	0.633170
C250	C	-0.695737	-0.011494	0.883170
C251	C	-0.445737	0.238506	1.133170
C252	C	-0.195737	0.488506	1.383170
C253	C	-0.905666	-0.301562	0.665883
C254	C	-0.655666	-0.051562	0.915883
C255	C	-0.405666	0.198438	1.165883
C256	C	-0.155666	0.448438	1.415883
C257	C	-0.865583	-0.341649	0.633156
C258	C	-0.615583	-0.091649	0.883156
C259	C	-0.365583	0.158351	1.133156
C260	C	-0.115583	0.408351	1.383156
C261	C	-0.865580	-0.341670	0.567722
C262	C	-0.615580	-0.091670	0.817722
C263	C	-0.365580	0.158330	1.067722
C264	C	-0.115580	0.408330	1.317722
C265	C	-0.900719	-0.357979	0.769562
C266	C	-0.650719	-0.107979	1.019562
C267	C	-0.400719	0.142021	1.269562
C268	C	-0.150719	0.392021	1.519562
C269	C	-0.900726	-0.357959	0.834995
C270	C	-0.650726	-0.107959	1.084995
C271	C	-0.400726	0.142041	1.334995
C272	C	-0.150726	0.392041	1.584995
C273	C	-0.905670	-0.301496	0.867704
C274	C	-0.655670	-0.051496	1.117704
C275	C	-0.405670	0.198504	1.367704
C276	C	-0.155670	0.448504	1.617704
C277	C	-0.910621	-0.245052	0.834972
C278	C	-0.660621	0.004948	1.084972
C279	C	-0.410621	0.254948	1.334972
C280	C	-0.160621	0.504948	1.584972
C281	C	-0.910619	-0.245073	0.769538
C282	C	-0.660619	0.004927	1.019538
C283	C	-0.410619	0.254927	1.269538
C284	C	-0.160619	0.504927	1.519538
C285	C	-0.905664	-0.301543	0.736836
C286	C	-0.655664	-0.051543	0.986836
C287	C	-0.405664	0.198457	1.236836
C288	C	-0.155664	0.448457	1.486836
C289	C	-0.945747	-0.261380	0.971376
C290	C	-0.695747	-0.011380	1.221376
C291	C	-0.445747	0.238620	1.471376
C292	C	-0.195747	0.488620	1.721376
C293	C	-0.945742	-0.261352	1.036813
C294	C	-0.695742	-0.011352	1.286813
C295	C	-0.445742	0.238648	1.536813
C296	C	-0.195742	0.488648	1.786813
C297	C	-0.865592	-0.341512	1.036798
C298	C	-0.615592	-0.091512	1.286798
C299	C	-0.365592	0.158488	1.536798
C300	C	-0.115592	0.408488	1.786798
C301	C	-0.865594	-0.341534	0.971362
C302	C	-0.615594	-0.091534	1.221362
C303	C	-0.365594	0.158466	1.471362
C304	C	-0.115594	0.408466	1.721362
C305	C	-0.905675	-0.301469	0.938656
C306	C	-0.655675	-0.051469	1.188656
C307	C	-0.405675	0.198531	1.438656
C308	C	-0.155675	0.448531	1.688656
H309	H	-0.465314	-0.199253	0.311080
H310	H	-0.215314	0.050747	0.561080
H311	H	0.034686	0.300747	0.811080
H312	H	0.284686	0.550747	1.061080
Br313	Br	-1.000061	0.323419	0.207542
Br314	Br	-0.750061	0.573419	0.457542
Br315	Br	-0.500061	0.823419	0.707542
Br316	Br	-0.250061	1.073419	0.957542
Br317	Br	-1.000145	-0.206957	1.081219
Br318	Br	-0.750145	0.043043	1.331219
Br319	Br	-0.500145	0.293043	1.581219
Br320	Br	-0.250145	0.543043	1.831219
Br321	Br	-0.126879	-0.395911	0.207361
Br322	Br	0.123121	-0.145911	0.457361
Br323	Br	0.373121	0.104089	0.707361
Br324	Br	0.623121	0.354089	0.957361
H325	H	-0.548441	-0.229080	0.374756
H326	H	-0.298441	0.020920	0.624756
H327	H	-0.048441	0.270920	0.874756
H328	H	0.201559	0.520920	1.124756
H329	H	-0.832961	0.341142	0.374671
H330	H	-0.582961	0.591142	0.624671
H331	H	-0.332961	0.841142	0.874671
H332	H	-0.082961	1.091142	1.124671
H333	H	-0.832959	-0.374129	1.063433
H334	H	-0.582959	-0.124129	1.313433
H335	H	-0.332959	0.125871	1.563433
H336	H	-0.082959	0.375871	1.813433
Br337	Br	-0.811196	0.073973	0.396395
Br338	Br	-0.561196	0.323973	0.646395
Br339	Br	-0.311196	0.573973	0.896395
Br340	Br	-0.061196	0.823973	1.146395
H341	H	-0.914557	0.258047	0.199552
H342	H	-0.664557	0.508047	0.449552
H343	H	-0.414557	0.758047	0.699552
H344	H	-0.164557	1.008047	0.949552
H345	H	-0.978321	0.459889	0.229301
H346	H	-0.728321	0.709889	0.479301
H347	H	-0.478321	0.959889	0.729301
H348	H	-0.228321	1.209889	0.979301
Br349	Br	-0.894040	0.121573	0.435028
Br350	Br	-0.644040	0.371573	0.685028
Br351	Br	-0.394040	0.621573	0.935028
Br352	Br	-0.144040	0.871573	1.185028
Br353	Br	-0.917337	-0.168419	0.879354
Br354	Br	-0.667337	0.081581	1.129354
Br355	Br	-0.417337	0.331581	1.379354
Br356	Br	-0.167337	0.581581	1.629354
Br357	Br	-0.328860	-0.168586	0.313815
Br358	Br	-0.078860	0.081414	0.563815
Br359	Br	0.171140	0.331414	0.813815
Br360	Br	0.421140	0.581414	1.063815
Br361	Br	-0.917230	0.121576	0.168895
Br362	Br	-0.667230	0.371576	0.418895
Br363	Br	-0.417230	0.621576	0.668895
Br364	Br	-0.167230	0.871576	0.918895
Br365	Br	-0.893930	0.275810	0.435031
Br366	Br	-0.643930	0.525810	0.685031
Br367	Br	-0.393930	0.775810	0.935031
Br368	Br	-0.143930	1.025810	1.185031
Br369	Br	-0.684932	-0.207388	0.396545
Br370	Br	-0.434932	0.042612	0.646545
Br371	Br	-0.184932	0.292612	0.896545
Br372	Br	0.065068	0.542612	1.146545
H373	H	-0.465207	-0.404068	0.292827
H374	H	-0.215207	-0.154068	0.542827
H375	H	0.034793	0.095932	0.792827
H376	H	0.284793	0.345932	1.042827
Br377	Br	-0.684752	-0.395993	0.207322
Br378	Br	-0.434752	-0.145993	0.457322
Br379	Br	-0.184752	0.104007	0.707322
Br380	Br	0.065248	0.354007	0.957322
Br381	Br	-1.000131	-0.207145	0.523349
Br382	Br	-0.750131	0.042855	0.773349
Br383	Br	-0.500131	0.292855	1.023349
Br384	Br	-0.250131	0.542855	1.273349
Br385	Br	-0.917334	-0.168475	0.725117
Br386	Br	-0.667334	0.081525	0.975117
Br387	Br	-0.417334	0.331525	1.225117
Br388	Br	-0.167334	0.581525	1.475117
Br389	Br	-1.000048	0.074016	0.207527
Br390	Br	-0.750048	0.324016	0.457527
Br391	Br	-0.500048	0.574016	0.707527
Br392	Br	-0.250048	0.824016	0.957527
H393	H	-0.548295	-0.374256	0.229132
H394	H	-0.298295	-0.124256	0.479132
H395	H	-0.048295	0.125744	0.729132
H396	H	0.201705	0.375744	0.979132
H397	H	-0.978380	-0.228753	0.944745
H398	H	-0.728380	0.021247	1.194745
H399	H	-0.478380	0.271247	1.444745
H400	H	-0.228380	0.521247	1.694745
Br401	Br	-1.000046	-0.080221	0.207520
Br402	Br	-0.750046	0.169779	0.457520
Br403	Br	-0.500046	0.419779	0.707520
Br404	Br	-0.250046	0.669779	0.957520
Br405	Br	-0.811227	0.477607	0.396432
Br406	Br	-0.561227	0.727607	0.646432
Br407	Br	-0.311227	0.977607	0.896432
Br408	Br	-0.061227	1.227607	1.146432
Br409	Br	-0.811188	-0.080263	0.396390
Br410	Br	-0.561188	0.169737	0.646390
Br411	Br	-0.311188	0.419737	0.896390
Br412	Br	-0.061188	0.669737	1.146390
Br413	Br	-0.328723	-0.434690	0.290116
Br414	Br	-0.078723	-0.184690	0.540116
Br415	Br	0.171277	0.065310	0.790116
Br416	Br	0.421277	0.315310	1.040116
Br417	Br	-0.281112	-0.395930	0.207350
Br418	Br	-0.031112	-0.145930	0.457350
Br419	Br	0.218888	0.104070	0.707350
Br420	Br	0.468888	0.354070	0.957350
H421	H	-0.832955	-0.374270	0.659796
H422	H	-0.582955	-0.124270	0.909796
H423	H	-0.332955	0.125730	1.159796
H424	H	-0.082955	0.375730	1.409796
Br425	Br	-1.000114	-0.207076	0.677585
Br426	Br	-0.750114	0.042924	0.927585
Br427	Br	-0.500114	0.292924	1.177585
Br428	Br	-0.250114	0.542924	1.427585
H429	H	-0.832963	-0.374178	0.944722
H430	H	-0.582963	-0.124178	1.194722
H431	H	-0.332963	0.125822	1.444722
H432	H	-0.082963	0.375822	1.694722
Br433	Br	-0.894016	-0.434560	0.879411
Br434	Br	-0.644016	-0.184560	1.129411
Br435	Br	-0.394016	0.065440	1.379411
Br436	Br	-0.144016	0.315440	1.629411
H437	H	-0.896525	-0.403946	0.742936
H438	H	-0.646525	-0.153946	0.992936
H439	H	-0.396525	0.096054	1.242936
H440	H	-0.146525	0.346054	1.492936
H441	H	-0.832943	-0.374310	0.541082
H442	H	-0.582943	-0.124310	0.791082
H443	H	-0.332943	0.125690	1.041082
H444	H	-0.082943	0.375690	1.291082
H445	H	-0.144805	-0.229013	0.374776
H446	H	0.105195	0.020987	0.624776
H447	H	0.355195	0.270987	0.874776
H448	H	0.605195	0.520987	1.124776
Br449	Br	-0.281297	-0.207320	0.396565
Br450	Br	-0.031297	0.042680	0.646565
Br451	Br	0.218703	0.292680	0.896565
Br452	Br	0.468703	0.542680	1.146565
