data_functionalizedCrystal
_audit_creation_method	'MofGen! by Chris Wilmer'
_symmetry_space_group_name_H-M	'P1'
_symmetry_Int_Tables_number	1
_symmetry_cell_setting	triclinic
loop_
_symmetry_equiv_pos_as_xyz
  x,y,z
_cell_length_a	25.639239
_cell_length_b	12.759395
_cell_length_c	12.759387
_cell_angle_alpha	89.980569
_cell_angle_beta	89.963582
_cell_angle_gamma	90.038532
loop_
_atom_site_label
_atom_site_type_symbol
_atom_site_fract_x
_atom_site_fract_y
_atom_site_fract_z
Zn1	Zn	-0.208125	1.606094	-0.593934
Zn2	Zn	-0.295571	1.605911	-0.418237
Zn3	Zn	-0.208151	1.430392	-0.418274
Zn4	Zn	-0.295531	1.430311	-0.593879
O5	O	-0.251845	1.518177	-0.506081
O6	O	-0.219731	1.753090	-0.570635
O7	O	-0.284002	1.582585	-0.271221
O8	O	-0.134983	1.453809	-0.441614
O9	O	-0.283977	1.752956	-0.441551
O10	O	-0.134964	1.582897	-0.570670
O11	O	-0.219775	1.453632	-0.271248
O12	O	-0.219737	1.283360	-0.441561
O13	O	-0.283909	1.453671	-0.740908
O14	O	-0.283934	1.283300	-0.570578
O15	O	-0.219693	1.582818	-0.740948
O16	O	-0.368731	1.582506	-0.441498
O17	O	-0.368702	1.453494	-0.570542
C18	C	-0.251834	1.245209	-0.506068
C19	C	-0.251843	1.128432	-0.506087
C20	C	-0.185051	1.128553	-0.640719
C21	C	-0.151662	1.073753	-0.708044
C22	C	-0.151671	0.964031	-0.708057
C23	C	-0.185072	0.909107	-0.640736
C24	C	-0.218462	0.963908	-0.573412
C25	C	-0.218450	1.073632	-0.573408
C26	C	-0.285249	0.963787	-0.438776
C27	C	-0.285244	1.073509	-0.438767
C28	C	-0.318651	0.908864	-0.371455
C29	C	-0.352043	0.963664	-0.304134
C30	C	-0.352033	1.073392	-0.304125
C31	C	-0.318633	1.128309	-0.371442
C32	C	-0.387687	1.518000	-0.506033
C33	C	-0.445801	1.518020	-0.506047
C34	C	-0.806167	1.585529	-0.439002
C35	C	-0.860771	1.585570	-0.439017
O36	O	-0.889010	1.642784	-0.381960
N37	N	-0.888084	1.518361	-0.506151
C38	C	-0.860789	1.451115	-0.573283
O39	O	-0.889035	1.393954	-0.630387
C40	C	-0.806186	1.451081	-0.573273
C41	C	-0.778876	1.518286	-0.506127
C42	C	-0.778857	1.652729	-0.371863
C43	C	-0.724257	1.652687	-0.371848
C44	C	-0.696966	1.585444	-0.438972
C45	C	-0.724276	1.518244	-0.506112
C46	C	-0.778892	1.383841	-0.640410
C47	C	-0.724285	1.383813	-0.640395
C48	C	-0.696976	1.451018	-0.573249
C49	C	-0.642384	1.450958	-0.573221
N50	N	-0.615072	1.518167	-0.506087
C51	C	-0.642363	1.585409	-0.438963
C52	C	-0.975460	1.451195	-0.573299
C53	C	-1.030062	1.451223	-0.573304
C54	C	-1.030041	1.585679	-0.439039
C55	C	-0.975437	1.585644	-0.439029
C56	C	-0.948147	1.518403	-0.506165
C57	C	-0.527698	1.585315	-0.438935
C58	C	-0.473092	1.585263	-0.438923
C59	C	-0.473119	1.450812	-0.573191
C60	C	-0.527719	1.450859	-0.573200
C61	C	-0.555007	1.518119	-0.506069
O62	O	-0.614111	1.393776	-0.630252
O63	O	-0.614111	1.642571	-0.381877
C64	C	-0.115472	1.518383	-0.506152
C65	C	-0.057358	1.518470	-0.506183
C66	C	-0.251856	1.792210	-0.506095
C67	C	-0.251860	1.908987	-0.506100
C68	C	-0.251794	1.518256	-0.780115
C69	C	-0.251772	1.518290	-0.896891
C70	C	-0.184907	1.652780	-0.896953
C71	C	-0.151467	1.720039	-0.951844
C72	C	-0.151448	1.720065	-1.061566
C73	C	-0.184872	1.652821	-1.116399
C74	C	-0.218312	1.585562	-1.061507
C75	C	-0.218328	1.585546	-0.951783
C76	C	-0.285173	1.451068	-1.061446
C77	C	-0.285195	1.451046	-0.951724
C78	C	-0.318596	1.383825	-1.116279
C79	C	-0.352040	1.316569	-1.061387
C80	C	-0.352058	1.316547	-0.951659
C81	C	-0.318635	1.383787	-0.896833
C82	C	-0.251858	1.518158	-0.233114
C83	C	-0.251733	1.518328	-0.116337
H84	H	-0.185038	1.217894	-0.640711
O85	O	-0.554262	1.650509	-0.373685
C86	C	-0.585899	1.590768	-0.305762
H87	H	-0.594109	1.511131	-0.342738
H88	H	-0.624278	1.633607	-0.291740
H89	H	-0.564894	1.579257	-0.227884
H90	H	-0.124215	1.774827	-1.106259
O91	O	-0.119246	1.126993	-0.773586
C92	C	-0.130754	1.100232	-0.878256
H93	H	-0.150860	1.020546	-0.880360
H94	H	-0.093052	1.096539	-0.925517
H95	H	-0.157654	1.161971	-0.913530
H96	H	-1.052271	1.640435	-0.384386
H97	H	-0.124480	0.919412	-0.762872
H98	H	-0.702025	1.707414	-0.317175
O99	O	-0.318625	1.234892	-0.371627
C100	C	-0.332126	1.271580	-0.472257
H101	H	-0.323241	1.208382	-0.532813
H102	H	-0.308546	1.345013	-0.491019
H103	H	-0.375507	1.291011	-0.474312
O104	O	-1.056507	1.385898	-0.638620
C105	C	-1.020703	1.326524	-0.697837
H106	H	-0.981758	1.369533	-0.701494
H107	H	-1.036450	1.315282	-0.780612
H108	H	-1.014951	1.246749	-0.659291
H109	H	-0.318576	1.383846	-1.205620
H110	H	-0.185073	0.819766	-0.640744
O111	O	-0.384544	1.126576	-0.238838
C112	C	-0.436669	1.099697	-0.261582
H113	H	-0.439365	1.069567	-0.345506
H114	H	-0.462490	1.171822	-0.252425
H115	H	-0.450304	1.035969	-0.205206
O116	O	-0.318706	0.802281	-0.371636
C117	C	-0.332190	0.765656	-0.472286
H118	H	-0.355005	0.828886	-0.515624
H119	H	-0.357263	0.692225	-0.464675
H120	H	-0.295206	0.746242	-0.517949
O121	O	-0.446577	1.385651	-0.638507
C122	C	-0.414928	1.445430	-0.706376
H123	H	-0.431346	1.528179	-0.712932
H124	H	-0.414290	1.407400	-0.787202
H125	H	-0.373558	1.449047	-0.673875
H126	H	-0.379234	0.918937	-0.249323
O127	O	-0.805437	1.717940	-0.306660
C128	C	-0.837087	1.658237	-0.238729
H129	H	-0.845286	1.578575	-0.275663
H130	H	-0.875471	1.701079	-0.224770
H131	H	-0.816100	1.646778	-0.160823
H132	H	-0.953243	1.396430	-0.627965
O133	O	-0.184800	1.653004	-1.222982
C134	C	-0.148105	1.726761	-1.259672
H135	H	-0.140800	1.788148	-1.196458
H136	H	-0.163870	1.766612	-1.333078
H137	H	-0.109975	1.685166	-1.279150
H138	H	-0.953205	1.640369	-0.384354
H139	H	-0.184924	1.652776	-0.807612
O140	O	-0.118978	1.785215	-0.898462
C141	C	-0.085204	1.725451	-0.835022
H142	H	-0.103637	1.645793	-0.818563
H143	H	-0.078218	1.768244	-0.757875
H144	H	-0.046448	1.713989	-0.877326
O145	O	-0.446645	1.650651	-0.373662
C146	C	-0.482446	1.709991	-0.314406
H147	H	-0.521350	1.713632	-0.357457
H148	H	-0.466633	1.792764	-0.303264
H149	H	-0.488306	1.671563	-0.234582
H150	H	-0.801118	1.329110	-0.695082
H151	H	-0.702068	1.329058	-0.695068
O152	O	-0.384487	1.251354	-1.114812
C153	C	-0.377286	1.265773	-1.223425
H154	H	-0.360165	1.346883	-1.238430
H155	H	-0.416439	1.258590	-1.265109
H156	H	-0.349431	1.203506	-1.254562
H157	H	-0.379283	1.261764	-0.906972
O158	O	-0.318740	1.383677	-0.790250
C159	C	-0.355414	1.309880	-0.753553
H160	H	-0.385946	1.295113	-0.816767
H161	H	-0.375273	1.341546	-0.680150
H162	H	-0.334678	1.233309	-0.734069
H163	H	-0.549956	1.396138	-0.627879
