data_functionalizedCrystal
_audit_creation_method	'MofGen! by Chris Wilmer'
_symmetry_space_group_name_H-M	'P1'
_symmetry_Int_Tables_number	1
_symmetry_cell_setting	triclinic
loop_
_symmetry_equiv_pos_as_xyz
  x,y,z
_cell_length_a	12.759401
_cell_length_b	12.759400
_cell_length_c	12.759393
_cell_angle_alpha	89.968436
_cell_angle_beta	89.981504
_cell_angle_gamma	90.014845
loop_
_atom_site_label
_atom_site_type_symbol
_atom_site_fract_x
_atom_site_fract_y
_atom_site_fract_z
Zn1	Zn	1.606255	-0.418200	-0.593981
Zn2	Zn	1.606150	-0.593919	-0.418301
Zn3	Zn	1.430557	-0.418255	-0.418321
Zn4	Zn	1.430546	-0.593838	-0.593943
O5	O	1.518377	-0.506053	-0.506137
O6	O	1.753262	-0.441520	-0.570685
O7	O	1.582818	-0.570673	-0.271283
O8	O	1.453913	-0.271226	-0.441647
O9	O	1.753185	-0.570620	-0.441614
O10	O	1.582998	-0.271186	-0.570704
O11	O	1.453811	-0.441614	-0.271297
O12	O	1.283535	-0.441535	-0.441609
O13	O	1.453894	-0.570482	-0.740969
O14	O	1.283527	-0.570536	-0.570638
O15	O	1.582987	-0.441442	-0.740997
O16	O	1.582807	-0.740929	-0.441577
O17	O	1.453791	-0.740870	-0.570620
C18	C	1.245410	-0.506033	-0.506122
C19	C	1.128633	-0.506050	-0.506141
C20	C	1.073794	-0.573328	-0.573215
C21	C	0.964070	-0.573342	-0.573227
C22	C	0.964034	-0.438796	-0.439081
C23	C	1.073756	-0.438778	-0.439075
C24	C	1.073815	-0.651010	-0.650660
C25	C	0.964091	-0.651024	-0.650672
C26	C	1.518315	-0.779020	-0.506115
C27	C	1.518384	-0.895797	-0.506140
C28	C	1.585637	-0.950655	-0.439022
C29	C	1.585702	-1.060379	-0.439054
C30	C	1.451252	-1.060377	-0.573327
C31	C	1.451193	-0.950655	-0.573299
C32	C	1.652828	-0.895797	-0.371864
C33	C	1.720086	-0.950655	-0.304739
C34	C	1.720150	-1.060379	-0.304771
C35	C	1.652957	-1.115245	-0.371929
C36	C	1.792410	-0.506073	-0.506152
C37	C	1.909187	-0.506082	-0.506158
C38	C	1.518451	-0.505947	-0.780170
C39	C	1.518482	-0.505902	-0.896947
C40	C	1.518468	-0.232019	-0.506182
C41	C	1.518507	-0.115243	-0.506201
C42	C	1.585710	-0.438704	-0.951825
C43	C	1.585735	-0.438666	-1.061549
C44	C	1.451301	-0.573033	-1.061507
C45	C	1.451272	-0.573064	-0.951785
C46	C	1.663328	-0.361131	-0.951851
C47	C	1.663353	-0.361093	-1.061575
C48	C	1.518364	-0.506083	-0.233169
C49	C	1.518537	-0.505832	-0.116393
H50	H	1.107829	-0.728262	-0.621376
O51	O	1.385772	-0.897522	-0.638536
C52	C	1.252486	-0.909089	-0.771783
C53	C	1.326495	-0.969393	-0.697927
H54	H	1.204556	-0.967171	-0.819836
H55	H	1.197475	-0.857823	-0.723550
H56	H	1.300698	-0.857616	-0.826694
H57	H	1.278367	-1.020923	-0.643002
H58	H	1.381508	-1.020593	-0.746226
H59	H	0.934295	-0.732373	-0.628740
O60	O	1.785257	-0.897201	-0.239543
C61	C	1.844793	-0.728170	-0.180029
C62	C	1.770914	-0.788571	-0.253900
H63	H	1.833238	-0.640332	-0.191626
H64	H	1.826398	-0.749752	-0.095280
H65	H	1.929500	-0.749720	-0.198545
H66	H	1.686182	-0.767054	-0.235478
H67	H	1.789399	-0.766983	-0.338626
H68	H	1.744723	-0.382886	-1.091353
O69	O	1.628484	-0.268864	-1.102074
C70	C	1.485639	-0.145930	-1.113915
C71	C	1.525010	-0.250380	-1.067963
H72	H	1.401969	-0.130964	-1.086373
H73	H	1.538467	-0.079373	-1.086320
H74	H	1.487318	-0.150165	-1.203145
H75	H	1.523330	-0.246249	-0.978733
H76	H	1.472173	-0.316895	-1.095640
O77	O	1.386073	-0.638422	-1.114663
C78	C	1.335059	-0.817122	-1.148235
C79	C	1.408979	-0.743184	-1.087957
H80	H	1.353567	-0.901838	-1.126682
H81	H	1.250327	-0.798757	-1.126637
H82	H	1.346606	-0.805502	-1.236078
H83	H	1.397526	-0.754762	-1.000100
H84	H	1.493684	-0.761566	-1.109642
H85	H	1.740599	-0.390300	-0.917815
O86	O	1.637227	-0.264151	-0.916216
C87	C	1.516055	-0.160925	-0.814640
C88	C	1.545509	-0.270811	-0.854904
H89	H	1.441887	-0.166270	-0.765079
H90	H	1.582827	-0.128477	-0.764949
H91	H	1.501611	-0.106659	-0.884157
H92	H	1.559936	-0.325157	-0.785450
H93	H	1.478721	-0.303173	-0.904626
O94	O	1.385994	-0.638235	-0.898313
C95	C	1.326407	-0.697876	-0.729263
C96	C	1.400373	-0.623997	-0.789688
H97	H	1.338022	-0.686406	-0.641429
H98	H	1.241682	-0.679401	-0.750759
H99	H	1.344812	-0.782578	-0.750878
H100	H	1.382062	-0.539271	-0.768105
H101	H	1.485076	-0.642562	-0.768187
H102	H	1.118401	-0.383987	-0.384464
O103	O	1.109257	-0.625244	-0.747852
C104	C	1.112698	-0.669822	-0.931315
C105	C	1.072472	-0.699107	-0.821312
H106	H	1.082993	-0.729537	-0.990733
H107	H	1.082912	-0.588517	-0.953354
H108	H	1.202046	-0.669768	-0.931278
H109	H	0.983128	-0.699222	-0.821265
H110	H	1.102338	-0.780394	-0.799317
H111	H	0.930093	-0.621980	-0.728024
O112	O	0.910561	-0.373560	-0.373961
C113	C	0.741513	-0.313918	-0.314555
C114	C	0.801936	-0.387866	-0.388344
H115	H	0.653679	-0.325443	-0.326174
H116	H	0.762974	-0.332272	-0.229784
H117	H	0.763165	-0.229230	-0.333133
H118	H	0.780316	-0.472578	-0.369861
H119	H	0.780469	-0.369422	-0.473094
O120	O	1.785517	-1.113507	-0.239475
C121	C	1.918907	-1.101922	-0.106334
C122	C	1.844918	-1.041627	-0.180217
H123	H	1.966968	-1.043834	-0.058420
H124	H	1.870778	-1.153348	-0.051303
H125	H	1.973804	-1.153234	-0.154644
H126	H	1.790006	-0.990259	-0.131992
H127	H	1.893112	-0.990268	-0.235251
O128	O	1.386013	-1.113833	-0.638454
C129	C	1.326559	-1.282867	-0.698041
C130	C	1.400481	-1.222462	-0.624217
H131	H	1.338247	-1.370704	-0.686572
H132	H	1.241818	-1.261454	-0.679512
H133	H	1.344939	-1.261151	-0.782757
H134	H	1.382196	-1.244145	-0.539476
H135	H	1.485200	-1.243880	-0.642837
H136	H	1.653024	-1.204589	-0.371958
H137	H	1.652780	-0.806454	-0.371827
