data_functionalizedCrystal
_audit_creation_method	'MofGen! by Chris Wilmer'
_symmetry_space_group_name_H-M	'P1'
_symmetry_Int_Tables_number	1
_symmetry_cell_setting	triclinic
loop_
_symmetry_equiv_pos_as_xyz
  x,y,z
_cell_length_a	11.169417
_cell_length_b	10.685194
_cell_length_c	11.169409
_cell_angle_alpha	85.594584
_cell_angle_beta	89.979747
_cell_angle_gamma	94.378522
loop_
_atom_site_label
_atom_site_type_symbol
_atom_site_fract_x
_atom_site_fract_y
_atom_site_fract_z
Zn1	Zn	1.798371	-0.502272	-0.641880
Zn2	Zn	1.782877	-0.713352	-0.425794
Zn3	Zn	1.597649	-0.502351	-0.441210
Zn4	Zn	1.582291	-0.713250	-0.626447
O5	O	1.690297	-0.607806	-0.533833
O6	O	1.964265	-0.530282	-0.613223
O7	O	1.758249	-0.685437	-0.259884
O8	O	1.637187	-0.325740	-0.480740
O9	O	1.952881	-0.685361	-0.454465
O10	O	1.784657	-0.325683	-0.628171
O11	O	1.622162	-0.530415	-0.271210
O12	O	1.427662	-0.530317	-0.465775
O13	O	1.611011	-0.685189	-0.796450
O14	O	1.416379	-0.685265	-0.601868
O15	O	1.769765	-0.530184	-0.807788
O16	O	1.743357	-0.889938	-0.439501
O17	O	1.595987	-0.889864	-0.586920
C18	C	1.378473	-0.607789	-0.533820
C19	C	1.245072	-0.607812	-0.533841
C20	C	1.666357	-0.935691	-0.509889
C21	C	1.656225	-1.075962	-0.499686
C22	C	2.003338	-0.607824	-0.533846
C23	C	2.136737	-0.607832	-0.533852
C24	C	1.690403	-0.607666	-0.846886
C25	C	1.690448	-0.607607	-0.980290
C26	C	1.714363	-0.278641	-0.557897
C27	C	1.724619	-0.138370	-0.568151
C28	C	1.690266	-0.607854	-0.222005
C29	C	1.690480	-0.607559	-0.088627
H30	H	1.790927	-1.084491	-0.634579
H31	H	1.589902	-1.129848	-0.433264
