data_functionalizedCrystal
_audit_creation_method	'MofGen! by Chris Wilmer'
_symmetry_space_group_name_H-M	'P1'
_symmetry_Int_Tables_number	1
_symmetry_cell_setting	triclinic
loop_
_symmetry_equiv_pos_as_xyz
  x,y,z
_cell_length_a	12.759401
_cell_length_b	16.959453
_cell_length_c	12.759393
_cell_angle_alpha	90.035074
_cell_angle_beta	90.021189
_cell_angle_gamma	90.024769
loop_
_atom_site_label
_atom_site_type_symbol
_atom_site_fract_x
_atom_site_fract_y
_atom_site_fract_z
Zn1	Zn	1.606182	-0.314636	0.594031
Zn2	Zn	2.106182	0.185364	1.094031
Zn3	Zn	1.606045	-0.446838	0.418341
Zn4	Zn	2.106045	0.053162	0.918341
Zn5	Zn	1.430483	-0.314677	0.418362
Zn6	Zn	1.930483	0.185323	0.918362
Zn7	Zn	1.430441	-0.446776	0.593974
Zn8	Zn	1.930441	0.053224	1.093974
O9	O	1.518288	-0.380732	0.506177
O10	O	2.018288	0.119268	1.006177
O11	O	1.753184	-0.332181	0.570740
O12	O	2.253184	0.167819	1.070740
O13	O	1.582717	-0.429349	0.271322
O14	O	2.082717	0.070651	0.771322
O15	O	1.453865	-0.204061	0.441698
O16	O	1.953865	0.295939	0.941698
O17	O	1.753084	-0.429309	0.441661
O18	O	2.253084	0.070691	0.941661
O19	O	1.582950	-0.204031	0.570762
O20	O	2.082950	0.295969	1.070762
O21	O	1.453733	-0.332251	0.271338
O22	O	1.953733	0.167749	0.771338
O23	O	1.283457	-0.332192	0.441643
O24	O	1.783457	0.167808	0.941643
O25	O	1.453793	-0.429205	0.741003
O26	O	1.953793	0.070795	1.241003
O27	O	1.283426	-0.429245	0.570664
O28	O	1.783426	0.070755	1.070664
O29	O	1.582909	-0.332122	0.741045
O30	O	2.082909	0.167878	1.241045
O31	O	1.582676	-0.557440	0.441606
O32	O	2.082676	-0.057440	0.941606
O33	O	1.453660	-0.557395	0.570642
O34	O	1.953660	-0.057395	1.070642
C35	C	1.245320	-0.380716	0.506150
C36	C	1.745320	0.119284	1.006150
C37	C	1.128544	-0.380729	0.506163
C38	C	1.628544	0.119271	1.006163
C39	C	0.963895	-0.431240	0.438898
C40	C	1.463895	0.068760	0.938898
C41	C	1.073620	-0.431226	0.438868
C42	C	1.573620	0.068774	0.938868
C43	C	1.073738	-0.330238	0.573485
C44	C	1.573738	0.169762	1.073485
C45	C	0.964016	-0.330249	0.573509
C46	C	1.464016	0.169751	1.073509
C47	C	0.963828	-0.489547	0.361180
C48	C	1.463828	0.010453	0.861180
C49	C	1.073552	-0.489533	0.361151
C50	C	1.573552	0.010467	0.861151
C51	C	1.518177	-0.586098	0.506138
C52	C	2.018177	-0.086098	1.006138
C53	C	1.518226	-0.673955	0.506157
C54	C	2.018226	-0.173955	1.006157
C55	C	1.451021	-0.715234	0.573293
C56	C	1.951021	-0.215234	1.073293
C57	C	1.585484	-0.715229	0.439044
C58	C	2.085484	-0.215229	0.939044
C59	C	1.585536	-0.797774	0.439063
C60	C	2.085536	-0.297774	0.939063
C61	C	1.518330	-0.839054	0.506199
C62	C	2.018330	-0.339054	1.006199
C63	C	1.451073	-0.797788	0.573316
C64	C	1.951073	-0.297788	1.073316
C65	C	1.652799	-0.839047	0.371955
C66	C	2.152799	-0.339047	0.871955
C67	C	1.652855	-0.921598	0.371972
C68	C	2.152855	-0.421598	0.871972
C69	C	1.585644	-0.962879	0.439104
C70	C	2.085644	-0.462879	0.939104
C71	C	1.518383	-0.921608	0.506223
C72	C	2.018383	-0.421608	1.006223
C73	C	1.451177	-0.962887	0.573359
C74	C	1.951177	-0.462887	1.073359
C75	C	1.383910	-0.921617	0.640473
C76	C	1.883910	-0.421617	1.140473
C77	C	1.383861	-0.839069	0.640448
C78	C	1.883861	-0.339069	1.140448
C79	C	1.585692	-1.045427	0.439129
C80	C	2.085692	-0.545427	0.939129
C81	C	1.451229	-1.045441	0.573382
C82	C	1.951229	-0.545441	1.073382
C83	C	1.792321	-0.380748	0.506205
C84	C	2.292321	0.119252	1.006205
C85	C	1.909098	-0.380754	0.506217
C86	C	2.409098	0.119246	1.006217
C87	C	1.518361	-0.380652	0.780210
C88	C	2.018361	0.119348	1.280210
C89	C	1.518393	-0.380618	0.896987
C90	C	2.018393	0.119382	1.396987
C91	C	1.518427	-0.174563	0.506239
C92	C	2.018427	0.325437	1.006239
C93	C	1.518487	-0.086707	0.506265
C94	C	2.018487	0.413293	1.006265
C95	C	1.518275	-0.380754	0.233210
C96	C	2.018275	0.119246	0.733210
C97	C	1.518447	-0.380565	0.116433
C98	C	2.018447	0.119435	0.616433
C99	C	1.585633	-0.330062	0.951873
C100	C	2.085633	0.169938	1.451873
C101	C	1.585657	-0.330034	1.061597
C102	C	2.085657	0.169966	1.561597
C103	C	1.451200	-0.431124	1.061540
C104	C	1.951200	0.068876	1.561540
C105	C	1.451170	-0.431148	0.951818
C106	C	1.951170	0.068852	1.451818
C107	C	1.663264	-0.271701	0.951907
C108	C	2.163264	0.228299	1.451907
C109	C	1.663289	-0.271672	1.061631
C110	C	2.163289	0.228328	1.561631
H111	H	0.934011	-0.473086	0.279855
H112	H	1.434011	0.026914	0.779855
F113	F	1.379590	-0.484945	0.893408
F114	F	1.879590	0.015055	1.393408
H115	H	0.919404	-0.289132	0.628318
H116	H	1.419404	0.210868	1.128318
H117	H	1.396468	-0.472261	1.106197
H118	H	1.896468	0.027739	1.606197
F119	F	1.379693	-1.089367	0.644834
F120	F	1.879693	-0.589367	1.144834
F121	F	1.769641	-0.293093	1.100562
F122	F	2.269641	0.206907	1.600562
H123	H	1.118466	-0.289117	0.628271
H124	H	1.618466	0.210883	1.128271
H125	H	0.929789	-0.547727	0.390198
H126	H	1.429789	-0.047727	0.890198
H127	H	1.329096	-0.805462	0.695091
H128	H	1.829096	-0.305462	1.195091
H129	H	1.107545	-0.467537	0.283896
H130	H	1.607545	0.032463	0.783896
H131	H	1.396249	-0.681630	0.627934
H132	H	1.896249	-0.181630	1.127934
H133	H	1.103320	-0.550767	0.382798
H134	H	1.603320	-0.050767	0.882798
F135	F	1.312394	-0.965559	0.711929
F136	F	1.812394	-0.465559	1.211929
H137	H	1.640206	-0.681616	0.384389
H138	H	2.140206	-0.181616	0.884389
H139	H	1.641509	-0.210487	0.922155
H140	H	2.141509	0.289513	1.422155
F141	F	1.724327	-0.795111	0.300518
F142	F	2.224327	-0.295111	0.800518
H143	H	1.634189	-0.213509	1.095682
H144	H	2.134189	0.286491	1.595682
F145	F	1.764257	-0.300381	0.907416
F146	F	2.264257	0.199619	1.407416
H147	H	1.707627	-0.955193	0.317322
H148	H	2.207627	-0.455193	0.817322
F149	F	1.657283	-1.089346	0.367712
F150	F	2.157283	-0.589346	0.867712
