data_functionalizedCrystal
_audit_creation_method	'MofGen! by Chris Wilmer'
_symmetry_space_group_name_H-M	'P1'
_symmetry_Int_Tables_number	1
_symmetry_cell_setting	triclinic
loop_
_symmetry_equiv_pos_as_xyz
  x,y,z
_cell_length_a	14.044220
_cell_length_b	13.185407
_cell_length_c	12.376457
_cell_angle_alpha	82.592400
_cell_angle_beta	77.678195
_cell_angle_gamma	107.418820
loop_
_atom_site_label
_atom_site_type_symbol
_atom_site_fract_x
_atom_site_fract_y
_atom_site_fract_z
O1	O	0.263886	1.442205	-0.093975
O2	O	0.170134	1.133829	-0.093983
O3	O	0.353812	1.283387	-0.093974
O4	O	0.080207	1.292647	-0.093983
O5	O	0.307945	1.246007	0.094036
O6	O	0.124266	1.096449	0.094027
O7	O	0.218018	1.404825	0.094035
Zn8	Zn	0.163860	1.244702	0.123882
Zn9	Zn	0.224292	1.293952	-0.123829
O10	O	0.034339	1.255267	0.094026
C11	C	0.137695	1.075435	0.000021
C12	C	0.109387	0.957130	0.000018
C13	C	0.379563	0.641590	0.000032
C14	C	0.406162	0.752743	0.000043
C15	C	0.331970	0.803845	0.000036
C16	C	0.231175	0.743783	0.000020
C17	C	0.204571	0.632618	0.000019
C18	C	0.156979	0.794873	0.000023
C19	C	0.056184	0.734811	0.000007
C20	C	0.029585	0.623657	0.000005
C21	C	0.103776	0.572554	0.000011
C22	C	0.183583	0.906038	0.000024
C23	C	0.008591	0.897066	0.000010
C24	C	-0.018008	0.785913	0.000000
C25	C	0.022993	1.278009	0.000020
C26	C	-0.079149	1.290097	0.000016
C27	C	-0.266174	1.312195	0.000022
C28	C	-0.345676	1.226466	0.000021
C29	C	-0.449744	1.238761	0.000024
C30	C	-0.162096	1.299901	0.000019
C31	C	0.365159	1.260645	0.000030
C32	C	0.467303	1.248559	0.000026
C33	C	0.250457	1.463219	0.000029
C34	C	0.278768	1.581527	0.000025
N35	N	0.122619	1.211099	0.292938
N36	N	0.265543	1.327563	-0.292885
C37	C	0.361294	1.405566	0.647935
C38	C	0.390158	1.429080	0.529596
C39	C	0.323276	1.374586	0.470426
C40	C	0.227525	1.296576	0.529606
C41	C	0.198655	1.273066	0.647956
C42	C	0.160636	1.242086	0.470447
C43	C	0.064886	1.164076	0.529627
C44	C	0.036021	1.140570	0.647965
C45	C	0.102903	1.195063	0.707135
C46	C	0.189506	1.265596	0.352097
C47	C	0.026867	1.133096	0.352118
C48	C	-0.001997	1.109582	0.470456
H49	H	0.265652	0.954930	0.000035
H50	H	0.079405	1.175916	0.803496
H51	H	-0.276268	1.394816	0.000029
Br52	Br	-0.328861	1.088743	0.000024
Br53	Br	0.520096	1.534947	0.449282
H54	H	0.267466	1.329112	0.303923
Br55	Br	0.452047	1.479528	0.728237
Br56	Br	0.368077	0.954704	0.000021
Br57	Br	-0.154796	0.704390	-0.000026
H58	H	0.346781	1.393734	0.374070
Br59	Br	-0.093934	1.034716	0.728284
Br60	Br	-0.107213	0.542142	0.000001
H61	H	-0.027596	1.088724	0.303942
Br62	Br	-0.131940	1.003712	0.550783
Br63	Br	0.480234	0.572229	0.000059
H64	H	0.488228	0.801636	0.000060
Br65	Br	-0.092107	0.966407	0.000016
H66	H	0.082126	0.482046	-0.000003
