data_functionalizedCrystal
_audit_creation_method	'MofGen! by Chris Wilmer'
_symmetry_space_group_name_H-M	'P1'
_symmetry_Int_Tables_number	1
_symmetry_cell_setting	triclinic
loop_
_symmetry_equiv_pos_as_xyz
  x,y,z
_cell_length_a	16.109301
_cell_length_b	16.109301
_cell_length_c	9.730223
_cell_angle_alpha	89.996364
_cell_angle_beta	89.998837
_cell_angle_gamma	83.461481
loop_
_atom_site_label
_atom_site_type_symbol
_atom_site_fract_x
_atom_site_fract_y
_atom_site_fract_z
O1	O	1.103131	0.106864	-0.114207
O2	O	0.861069	0.120163	-0.114230
O3	O	0.988750	-0.007517	-0.114204
O4	O	0.975451	0.234545	-0.114233
O5	O	0.988740	-0.007515	0.114376
O6	O	0.861059	0.120166	0.114350
O7	O	1.103121	0.106866	0.114373
Zn8	Zn	0.982089	0.113516	0.150653
Zn9	Zn	0.982102	0.113513	-0.150511
O10	O	0.975441	0.234547	0.114347
C11	C	0.830090	0.119626	0.000057
C12	C	0.737794	0.118011	0.000049
C13	C	0.515522	0.190018	0.000057
C14	C	0.428801	0.188494	0.000066
C15	C	0.448676	0.037006	0.000078
C16	C	0.535394	0.038530	0.000079
C17	C	0.568815	0.115039	0.000061
C18	C	0.395376	0.111990	0.000069
C19	C	0.301350	0.110337	0.000079
C20	C	0.662847	0.116693	0.000054
C21	C	0.988206	-0.038491	0.000087
C22	C	0.986591	-0.130786	0.000088
C23	C	1.058599	-0.353059	0.000073
C24	C	1.057075	-0.439779	0.000062
C25	C	0.905586	-0.419905	0.000053
C26	C	0.907111	-0.333186	0.000055
C27	C	0.983620	-0.299766	0.000072
C28	C	0.980571	-0.473205	0.000059
C29	C	0.978918	-0.567231	0.000046
C30	C	0.985273	-0.205734	0.000082
C31	C	1.134101	0.107404	0.000082
C32	C	1.226397	0.109019	0.000081
C33	C	0.975984	0.265521	0.000053
C34	C	0.977600	0.357816	0.000042
N35	N	0.982086	0.113518	0.356190
C36	C	1.032494	0.163960	0.428109
C37	C	1.032507	0.163957	0.571992
C38	C	0.931696	0.063065	0.572024
C39	C	0.931688	0.063065	0.428143
N40	N	0.982107	0.113514	0.643953
H41	H	0.421454	-0.025285	0.000101
C42	C	0.546337	-0.111369	0.000076
C43	C	0.593982	-0.043893	0.000078
H44	H	0.582508	-0.162250	0.000070
H45	H	0.512101	-0.108817	0.079781
H46	H	0.512099	-0.108808	-0.079642
H47	H	0.628215	-0.046451	0.079801
H48	H	0.628232	-0.046446	-0.079635
C49	C	0.601520	0.279612	0.117546
C50	C	0.552263	0.274113	0.000047
H51	H	0.624204	0.331528	0.117534
H52	H	0.568102	0.275872	0.197243
H53	H	0.645669	0.235171	0.117532
H54	H	0.508110	0.318551	0.000066
H55	H	0.585682	0.277861	-0.079671
H56	H	1.073555	0.205032	0.630543
H57	H	0.846050	-0.289792	0.000050
C58	C	0.832031	-0.036659	0.442615
C59	C	0.876273	0.007616	0.349078
H60	H	0.797820	-0.070886	0.393800
H61	H	0.870304	-0.070715	0.498728
H62	H	0.797954	0.001600	0.498737
H63	H	0.910355	-0.030643	0.292962
H64	H	0.837995	0.041675	0.292942
H65	H	0.385413	0.249550	0.000065
H66	H	1.120897	-0.325851	0.000084
H67	H	0.890664	0.021990	0.630626
H68	H	1.118130	-0.483168	0.000060
H69	H	1.073530	0.205042	0.369529
H70	H	0.843295	-0.447127	0.000042
