data_functionalizedCrystal
_audit_creation_method	'MofGen! by Chris Wilmer'
_symmetry_space_group_name_H-M	'P1'
_symmetry_Int_Tables_number	1
_symmetry_cell_setting	triclinic
loop_
_symmetry_equiv_pos_as_xyz
  x,y,z
_cell_length_a	21.295420
_cell_length_b	21.295417
_cell_length_c	21.295411
_cell_angle_alpha	89.979403
_cell_angle_beta	89.975307
_cell_angle_gamma	90.027953
loop_
_atom_site_label
_atom_site_type_symbol
_atom_site_fract_x
_atom_site_fract_y
_atom_site_fract_z
Zn1	Zn	0.962359	-0.250710	-0.355918
Zn2	Zn	0.962263	-0.355962	-0.250646
Zn3	Zn	0.857082	-0.250708	-0.250663
Zn4	Zn	0.857053	-0.355942	-0.355877
O5	O	0.909689	-0.303331	-0.303276
O6	O	1.050435	-0.264682	-0.341964
O7	O	0.948282	-0.342007	-0.162558
O8	O	0.871100	-0.162619	-0.264650
O9	O	1.050365	-0.342010	-0.264620
O10	O	0.948446	-0.162621	-0.341980
O11	O	0.871006	-0.264677	-0.162571
O12	O	0.768989	-0.264658	-0.264610
O13	O	0.871050	-0.341976	-0.443972
O14	O	0.768967	-0.341973	-0.341910
O15	O	0.948418	-0.264662	-0.444002
O16	O	0.948254	-0.444049	-0.264580
O17	O	0.870957	-0.444034	-0.341893
C18	C	0.746138	-0.303314	-0.303258
C19	C	0.676169	-0.303321	-0.303265
C20	C	0.909609	-0.466882	-0.303244
C21	C	0.909632	-0.536850	-0.303251
C22	C	0.176717	-0.343663	-0.343487
C23	C	0.242459	-0.343663	-0.343480
C24	C	0.275330	-0.303345	-0.303296
C25	C	0.242453	-0.263035	-0.263103
C26	C	0.176711	-0.263040	-0.263106
N27	N	0.378570	-0.248227	-0.298562
N28	N	0.441021	-0.248224	-0.298563
C29	C	0.473405	-0.303327	-0.303282
N30	N	0.440977	-0.358435	-0.308014
N31	N	0.378520	-0.358438	-0.308017
C32	C	0.346615	-0.303335	-0.303287
C33	C	0.577560	-0.343638	-0.343462
C34	C	0.643303	-0.343639	-0.343451
C35	C	0.643295	-0.263005	-0.263077
C36	C	0.577553	-0.263010	-0.263085
C37	C	0.544689	-0.303325	-0.303281
C38	C	0.949883	-0.569661	-0.343546
C39	C	0.949906	-0.635403	-0.343562
C40	C	0.909683	-0.668333	-0.303271
C41	C	0.869424	-0.635514	-0.262974
C42	C	0.869399	-0.569773	-0.262964
N43	N	0.904924	-0.771585	-0.248180
N44	N	0.904952	-0.834036	-0.248191
C45	C	0.909757	-0.866407	-0.303300
N46	N	0.914545	-0.833968	-0.358398
N47	N	0.914520	-0.771511	-0.358386
C48	C	0.909706	-0.739618	-0.303278
C49	C	0.950034	-0.970504	-0.343615
C50	C	0.950052	-1.036247	-0.343631
C51	C	0.869574	-1.036357	-0.263038
C52	C	0.869553	-0.970615	-0.263027
C53	C	0.909786	-0.937692	-0.303314
C54	C	1.073879	-0.303348	-0.303294
C55	C	1.143847	-0.303356	-0.303302
C56	C	0.909741	-0.303317	-0.467466
C57	C	0.909764	-0.303312	-0.537434
C58	C	0.909787	-0.139140	-0.303322
C59	C	0.909828	-0.069172	-0.303341
C60	C	0.950047	-0.263053	-0.570318
C61	C	0.950046	-0.263025	-0.636060
C62	C	0.909769	-0.303268	-0.668917
C63	C	0.869477	-0.343530	-0.636026
C64	C	0.869475	-0.343552	-0.570284
N65	N	0.904913	-0.358336	-0.772133
N66	N	0.904919	-0.358314	-0.834585
C67	C	0.909773	-0.303204	-0.866992
N68	N	0.914632	-0.248117	-0.834588
N69	N	0.914630	-0.248141	-0.772131
C70	C	0.909766	-0.303249	-0.740202
C71	C	0.950057	-0.262913	-0.971161
C72	C	0.950052	-0.262884	-1.036905
C73	C	0.869486	-0.343394	-1.036869
C74	C	0.869488	-0.343417	-0.971126
C75	C	0.909777	-0.303177	-0.938276
C76	C	0.909673	-0.303298	-0.139724
C77	C	0.909773	-0.303127	-0.069757
H78	H	0.269227	-0.376486	-0.376206
O79	O	0.830384	-0.667430	-0.223748
C80	C	0.844173	-0.651396	-0.161017
H81	H	0.868353	-0.603642	-0.159728
H82	H	0.876562	-0.688377	-0.139849
C83	C	0.753124	-0.707085	-0.124416
C84	C	0.782817	-0.648430	-0.122831
H85	H	0.715278	-0.705258	-0.100859
H86	H	0.743835	-0.717889	-0.166678
H87	H	0.780121	-0.737896	-0.106777
H88	H	0.755823	-0.617621	-0.140477
H89	H	0.792101	-0.637620	-0.080571
O90	O	0.989101	-0.223793	-0.939175
C91	C	0.953287	-0.183136	-0.901140
H92	H	0.905568	-0.205335	-0.891273
H93	H	0.946401	-0.136474	-0.926470
C94	C	1.046538	-0.144507	-0.850826
C95	C	0.987931	-0.171774	-0.838702
H96	H	1.067909	-0.137495	-0.812312
H97	H	1.070668	-0.171896	-0.876451
H98	H	1.040791	-0.105625	-0.871935
H99	H	0.993679	-0.210658	-0.817600
H100	H	0.963803	-0.144391	-0.813071
H101	H	0.836621	-0.543058	-0.230150
H102	H	0.836779	-0.943898	-0.230212
H103	H	0.269220	-0.230208	-0.230383
O104	O	0.675264	-0.382861	-0.382399
C105	C	0.713268	-0.423460	-0.346491
H106	H	0.693429	-0.427287	-0.296908
H107	H	0.763099	-0.403989	-0.344349
C108	C	0.738635	-0.484238	-0.438036
C109	C	0.714265	-0.488943	-0.377139
H110	H	0.739253	-0.524630	-0.456942
H111	H	0.713033	-0.456885	-0.462229
H112	H	0.780159	-0.468010	-0.436243
H113	H	0.672740	-0.505162	-0.378933
H114	H	0.739860	-0.516300	-0.352947
H115	H	0.982642	-0.542857	-0.376352
O116	O	0.830339	-0.382588	-0.939277
C117	C	0.794775	-0.418090	-0.982371
H118	H	0.820559	-0.420260	-1.029244
H119	H	0.746981	-0.395029	-0.989346
C120	C	0.753988	-0.482429	-0.899137
C121	C	0.785660	-0.485098	-0.956706
H122	H	0.748363	-0.523762	-0.883305
H123	H	0.777947	-0.458509	-0.870103
H124	H	0.714164	-0.463208	-0.904957
H125	H	0.825486	-0.504311	-0.950884
H126	H	0.761708	-0.509023	-0.985738
O127	O	0.144705	-0.223860	-0.224154
C128	C	0.106718	-0.183244	-0.260062
H129	H	0.096891	-0.205505	-0.307733
H130	H	0.132069	-0.136596	-0.267047
C131	C	0.056324	-0.144481	-0.166901
C132	C	0.044250	-0.171824	-0.225451
H133	H	0.017791	-0.137433	-0.145551
H134	H	0.081917	-0.171842	-0.142709
H135	H	0.077451	-0.105610	-0.172730
H136	H	0.023130	-0.210697	-0.219620
H137	H	0.018651	-0.144469	-0.249641
H138	H	0.550800	-0.376466	-0.376191
O139	O	0.675286	-0.223928	-0.224009
C140	C	0.713266	-0.259707	-0.183273
H141	H	0.723106	-0.307443	-0.205389
H142	H	0.687902	-0.266559	-0.136614
C143	C	0.763635	-0.166422	-0.144767
C144	C	0.775726	-0.225050	-0.171933
H145	H	0.802162	-0.145043	-0.137769
H146	H	0.738046	-0.142316	-0.172210
H147	H	0.742497	-0.172140	-0.105888
H148	H	0.796856	-0.219330	-0.210816
H149	H	0.801320	-0.249154	-0.144497
H150	H	0.550790	-0.230185	-0.230364
O151	O	0.989185	-1.068192	-0.382688
C152	C	1.029879	-1.106193	-0.346888
H153	H	1.007699	-1.116085	-0.299166
H154	H	1.076523	-1.080823	-0.340006
C155	C	1.068525	-1.156465	-0.440154
C156	C	1.041281	-1.168618	-0.381544
H157	H	1.075561	-1.194971	-0.461532
H158	H	1.041110	-1.130861	-0.464274
H159	H	1.107392	-1.135322	-0.434411
H160	H	1.002411	-1.189754	-0.387288
H161	H	1.068689	-1.194227	-0.357425
O162	O	0.989061	-0.667187	-0.382732
C163	C	1.024548	-0.624031	-0.418305
H164	H	1.026732	-0.577181	-0.392516
H165	H	1.001465	-0.617031	-0.466088
C166	C	1.088865	-0.707176	-0.459129
C167	C	1.091551	-0.649635	-0.427451
H168	H	1.130194	-0.722970	-0.464773
H169	H	1.064955	-0.736252	-0.435164
H170	H	1.069625	-0.701335	-0.498945
H171	H	1.110782	-0.655478	-0.387633
H172	H	1.115465	-0.620561	-0.451409
O173	O	0.989126	-0.938615	-0.382816
C174	C	1.024663	-0.981676	-0.418382
H175	H	0.998897	-1.028560	-0.420541
H176	H	1.072490	-0.988637	-0.395382
C177	C	1.065330	-0.898392	-0.482733
C178	C	1.033680	-0.955975	-0.485389
H179	H	1.070895	-0.882538	-0.524066
H180	H	1.041390	-0.869381	-0.458771
H181	H	1.105182	-0.904201	-0.463564
H182	H	0.993827	-0.950164	-0.504551
H183	H	1.057614	-0.984985	-0.509357
O184	O	0.830424	-0.382472	-1.068875
C185	C	0.839052	-0.373810	-1.133952
H186	H	0.887642	-0.353189	-1.142950
H187	H	0.801730	-0.340285	-1.152597
C188	C	0.773580	-0.462821	-1.156646
C189	C	0.833260	-0.437498	-1.167698
H190	H	0.770004	-0.502105	-1.177463
H191	H	0.767764	-0.468655	-1.112802
H192	H	0.742484	-0.434877	-1.172184
H193	H	0.864354	-0.465439	-1.152153
H194	H	0.839081	-0.431670	-1.211540
H195	H	0.836820	-1.063168	-0.230236
O196	O	0.144891	-0.382892	-0.382544
C197	C	0.188006	-0.418460	-0.418020
H198	H	0.234857	-0.420591	-0.392232
H199	H	0.195025	-0.395480	-0.465872
C200	C	0.104788	-0.482857	-0.458639
C201	C	0.162330	-0.485479	-0.426963
H202	H	0.088950	-0.524197	-0.464159
H203	H	0.075741	-0.458893	-0.434740
H204	H	0.110646	-0.463704	-0.498512
H205	H	0.156471	-0.504624	-0.387088
H206	H	0.191376	-0.509448	-0.450855
O207	O	0.989241	-0.223898	-0.667915
C208	C	1.024787	-0.188374	-0.624823
H209	H	1.026948	-0.214170	-0.577959
H210	H	1.001769	-0.140562	-0.617827
C211	C	1.089137	-0.147626	-0.708070
C212	C	1.091795	-0.179312	-0.650511
H213	H	1.130470	-0.142034	-0.723915
H214	H	1.065188	-0.171558	-0.737102
H215	H	1.069953	-0.107786	-0.702232
H216	H	1.110972	-0.219154	-0.656351
H217	H	1.115749	-0.155387	-0.621480
H218	H	0.836681	-0.376294	-0.662782
H219	H	0.982853	-0.230285	-0.543575
H220	H	0.836668	-0.376335	-0.543511
H221	H	0.982855	-0.230097	-1.063677
