data_functionalizedCrystal
_audit_creation_method	'MofGen! by Chris Wilmer'
_symmetry_space_group_name_H-M	'P1'
_symmetry_Int_Tables_number	1
_symmetry_cell_setting	triclinic
loop_
_symmetry_equiv_pos_as_xyz
  x,y,z
_cell_length_a	16.625547
_cell_length_b	25.639239
_cell_length_c	16.625539
_cell_angle_alpha	90.031810
_cell_angle_beta	90.024822
_cell_angle_gamma	90.039221
loop_
_atom_site_label
_atom_site_type_symbol
_atom_site_fract_x
_atom_site_fract_y
_atom_site_fract_z
Zn1	Zn	1.232586	-0.208151	0.455981
Zn2	Zn	1.565920	0.125183	0.789315
Zn3	Zn	1.899253	0.458516	1.122648
Zn4	Zn	1.232450	-0.295589	0.321140
Zn5	Zn	1.565783	0.037745	0.654473
Zn6	Zn	1.899117	0.371078	0.987807
Zn7	Zn	1.097748	-0.208169	0.321152
Zn8	Zn	1.431081	0.125164	0.654485
Zn9	Zn	1.764415	0.458498	0.987818
Zn10	Zn	1.097679	-0.295557	0.455920
Zn11	Zn	1.431012	0.037776	0.789253
Zn12	Zn	1.764346	0.371110	1.122587
O13	O	1.165116	-0.251866	0.388548
O14	O	1.498449	0.081467	0.721882
O15	O	1.831782	0.414800	1.055215
O16	O	1.345401	-0.219755	0.438115
O17	O	1.678734	0.113578	0.771448
O18	O	2.012067	0.446911	1.104782
O19	O	1.214553	-0.284013	0.208309
O20	O	1.547887	0.049320	0.541643
O21	O	1.881220	0.382654	0.874976
O22	O	1.115721	-0.135001	0.339068
O23	O	1.449054	0.198332	0.672401
O24	O	1.782387	0.531665	1.005734
O25	O	1.345300	-0.283995	0.339048
O26	O	1.678634	0.049338	0.672381
O27	O	2.011967	0.382671	1.005715
O28	O	1.214786	-0.134988	0.438126
O29	O	1.548119	0.198345	0.771460
O30	O	1.881452	0.531679	1.104793
O31	O	1.115588	-0.219786	0.208318
O32	O	1.448922	0.113547	0.541651
O33	O	1.782255	0.446880	0.874984
O34	O	0.984907	-0.219755	0.339008
O35	O	1.318240	0.113578	0.672342
O36	O	1.651573	0.446911	1.005675
O37	O	1.115603	-0.283941	0.568761
O38	O	1.448936	0.049392	0.902094
O39	O	1.782269	0.382725	1.235427
O40	O	0.984856	-0.283959	0.438022
O41	O	1.318189	0.049374	0.771355
O42	O	1.651522	0.382708	1.104689
O43	O	1.214719	-0.219724	0.568806
O44	O	1.548052	0.113609	0.902139
O45	O	1.881385	0.446942	1.235472
O46	O	1.214486	-0.368750	0.338989
O47	O	1.547820	-0.035416	0.672322
O48	O	1.881153	0.297917	1.005655
O49	O	1.115471	-0.368726	0.438011
O50	O	1.448804	-0.035393	0.771344
O51	O	1.782137	0.297940	1.104677
C52	C	0.955625	-0.251856	0.388510
C53	C	1.288958	0.081477	0.721843
C54	C	1.622292	0.414811	1.055177
C55	C	0.866004	-0.251864	0.388513
C56	C	1.199337	0.081469	0.721846
C57	C	1.532671	0.414802	1.055180
C58	C	1.164978	-0.387709	0.388509
C59	C	1.498311	-0.054376	0.721843
C60	C	1.831645	0.278958	1.055176
C61	C	1.164993	-0.445823	0.388520
C62	C	1.498326	-0.112490	0.721853
C63	C	1.831659	0.220844	1.055186
C64	C	0.793221	-0.251865	0.388523
C65	C	1.126555	0.081468	0.721856
C66	C	1.459888	0.414801	1.055190
C67	C	0.701913	-0.251868	0.388543
C68	C	1.035246	0.081465	0.721876
C69	C	1.368580	0.414799	1.055210
C70	C	0.629137	-0.251873	0.388564
C71	C	0.962470	0.081460	0.721897
C72	C	1.295803	0.414794	1.055230
C73	C	0.537822	-0.251877	0.388583
C74	C	0.871156	0.081457	0.721916
C75	C	1.204489	0.414790	1.055250
C76	C	1.113549	-0.697017	0.440093
C77	C	1.446882	-0.363683	0.773426
C78	C	1.780215	-0.030350	1.106759
C79	C	1.113519	-0.642412	0.440083
C80	C	1.446852	-0.309079	0.773417
C81	C	1.780185	0.024254	1.106750
O82	O	1.069647	-0.614176	0.483906
O83	O	1.402980	-0.280843	0.817239
O84	O	1.736313	0.052491	1.150572
N85	N	1.165094	-0.615097	0.388562
N86	N	1.498428	-0.281763	0.721895
N87	N	1.831761	0.051570	1.055228
C88	C	1.216709	-0.642388	0.337052
C89	C	1.550042	-0.309055	0.670385
C90	C	1.883376	0.024278	1.003719
O91	O	1.260576	-0.614140	0.293229
O92	O	1.593909	-0.280807	0.626562
O93	O	1.927242	0.052526	0.959895
C94	C	1.216742	-0.696992	0.337066
C95	C	1.550076	-0.363658	0.670399
C96	C	1.883409	-0.030325	1.003733
C97	C	1.165157	-0.724304	0.388585
C98	C	1.498491	-0.390971	0.721919
C99	C	1.831824	-0.057638	1.055252
C100	C	1.061969	-0.724329	0.491608
C101	C	1.395302	-0.390996	0.824942
C102	C	1.728635	-0.057663	1.158275
C103	C	1.061998	-0.778930	0.491616
C104	C	1.395331	-0.445597	0.824950
C105	C	1.728664	-0.112263	1.158283
C106	C	1.113607	-0.806218	0.440109
C107	C	1.446940	-0.472884	0.773442
C108	C	1.780273	-0.139551	1.106776
C109	C	1.165186	-0.778905	0.388593
C110	C	1.498520	-0.445572	0.721927
C111	C	1.831853	-0.112238	1.055260
C112	C	1.268360	-0.724282	0.285561
C113	C	1.601694	-0.390949	0.618894
C114	C	1.935027	-0.057616	0.952228
C115	C	1.268390	-0.778889	0.285580
C116	C	1.601723	-0.445556	0.618913
C117	C	1.935056	-0.112223	0.952246
C118	C	1.216805	-0.806202	0.337099
C119	C	1.550138	-0.472869	0.670432
C120	C	1.883472	-0.139535	1.003766
C121	C	1.216824	-0.860793	0.337094
C122	C	1.550158	-0.527460	0.670427
C123	C	1.883491	-0.194126	1.003761
N124	N	1.165249	-0.888109	0.388615
N125	N	1.498582	-0.554775	0.721949
N126	N	1.831915	-0.221442	1.055282
C127	C	1.113640	-0.860821	0.440123
C128	C	1.446973	-0.527488	0.773456
C129	C	1.780307	-0.194154	1.106790
C130	C	1.216636	-0.527718	0.337027
C131	C	1.549969	-0.194384	0.670361
C132	C	1.883303	0.138949	1.003694
C133	C	1.216599	-0.473115	0.337009
C134	C	1.549932	-0.139782	0.670342
C135	C	1.883266	0.193551	1.003675
C136	C	1.113410	-0.473143	0.440041
C137	C	1.446743	-0.139810	0.773375
C138	C	1.780076	0.193523	1.106708
C139	C	1.113443	-0.527746	0.440055
C140	C	1.446776	-0.194413	0.773389
C141	C	1.780110	0.138920	1.106722
C142	C	1.165060	-0.555033	0.388549
C143	C	1.498394	-0.221700	0.721882
C144	C	1.831727	0.111633	1.055216
C145	C	1.113704	-0.975486	0.440136
C146	C	1.447038	-0.642153	0.773469
C147	C	1.780371	-0.308819	1.106802
C148	C	1.113736	-1.030091	0.440137
C149	C	1.447069	-0.696758	0.773470
C150	C	1.780402	-0.363425	1.106803
C151	C	1.216927	-1.030059	0.337107
C152	C	1.550261	-0.696726	0.670441
C153	C	1.883594	-0.363392	1.003774
C154	C	1.216894	-0.975458	0.337103
C155	C	1.550227	-0.642125	0.670436
C156	C	1.883560	-0.308792	1.003770
C157	C	1.165279	-0.948173	0.388624
C158	C	1.498613	-0.614840	0.721957
C159	C	1.831946	-0.281507	1.055290
O160	O	1.260676	-0.889064	0.293296
O161	O	1.594010	-0.555731	0.626630
O162	O	1.927343	-0.222398	0.959963
O163	O	1.069788	-0.889076	0.483946
O164	O	1.403121	-0.555742	0.817280
O165	O	1.736455	-0.222409	1.150613
C166	C	1.375425	-0.251877	0.388587
C167	C	1.708758	0.081456	0.721920
C168	C	2.042091	0.414790	1.055254
C169	C	1.465046	-0.251881	0.388603
C170	C	1.798379	0.081452	0.721937
C171	C	2.131712	0.414785	1.055270
C172	C	1.165168	-0.251827	0.598857
C173	C	1.498502	0.081506	0.932191
C174	C	1.831835	0.414839	1.265524
C175	C	1.165191	-0.251811	0.688478
C176	C	1.498524	0.081523	1.021812
C177	C	1.831857	0.414856	1.355145
C178	C	1.165276	-0.115493	0.388605
C179	C	1.498609	0.217840	0.721938
C180	C	1.831943	0.551173	1.055272
C181	C	1.165344	-0.057379	0.388629
C182	C	1.498678	0.275954	0.721963
C183	C	1.832011	0.609288	1.055296
C184	C	1.165110	-0.251867	0.179057
C185	C	1.498443	0.081466	0.512391
C186	C	1.831777	0.414799	0.845724
C187	C	1.165244	-0.251737	0.089437
C188	C	1.498577	0.081597	0.422770
C189	C	1.831911	0.414930	0.756103
C190	C	1.165228	-0.251752	1.016654
C191	C	1.498561	0.081581	1.349988
C192	C	1.831894	0.414915	1.683321
C193	C	1.165215	-0.251770	0.925346
C194	C	1.498549	0.081563	1.258679
C195	C	1.831882	0.414897	1.592012
C196	C	1.165210	-0.251782	0.852569
C197	C	1.498543	0.081551	1.185903
C198	C	1.831876	0.414885	1.519236
C199	C	1.165196	-0.251799	0.761255
C200	C	1.498530	0.081534	1.094588
C201	C	1.831863	0.414868	1.427922
H202	H	1.071727	-1.052327	0.482092
H203	H	1.405061	-0.718994	0.815425
H204	H	1.738394	-0.385660	1.148758
H205	H	1.258890	-0.953220	0.295143
H206	H	1.592224	-0.619886	0.628476
H207	H	1.925557	-0.286553	0.961810
H208	H	1.310365	-0.702052	0.243610
H209	H	1.643699	-0.368718	0.576943
H210	H	1.977032	-0.035385	0.910277
H211	H	1.019991	-0.801163	0.533567
H212	H	1.353324	-0.467830	0.866901
H213	H	1.686657	-0.134496	1.200234
H214	H	1.310426	-0.801103	0.243639
H215	H	1.643759	-0.467770	0.576972
H216	H	1.977093	-0.134437	0.910305
C217	C	1.273699	-1.060082	0.280460
C218	C	1.607032	-0.726749	0.613793
C219	C	1.940366	-0.393416	0.947127
H220	H	1.266332	-1.096513	0.287856
H221	H	1.599665	-0.763180	0.621189
H222	H	1.932999	-0.429846	0.954523
H223	H	1.261937	-1.051171	0.226267
H224	H	1.595270	-0.717838	0.559600
H225	H	1.928604	-0.384504	0.892934
H226	H	1.327864	-1.051092	0.292327
H227	H	1.661197	-0.717758	0.625660
H228	H	1.994531	-0.384425	0.958993
H229	H	1.019943	-0.702117	0.533556
H230	H	1.353276	-0.368783	0.866889
H231	H	1.686609	-0.035450	1.200222
H232	H	1.071676	-0.953277	0.482089
H233	H	1.405010	-0.619943	0.815423
H234	H	1.738343	-0.286610	1.148756
C235	C	1.056648	-0.443120	0.496707
C236	C	1.389981	-0.109786	0.830040
C237	C	1.723315	0.223547	1.163374
H238	H	1.064027	-0.406689	0.489323
H239	H	1.397361	-0.073356	0.822656
H240	H	1.730694	0.259978	1.155990
H241	H	1.002481	-0.452106	0.484864
H242	H	1.335815	-0.118773	0.818197
H243	H	1.669148	0.214560	1.151530
H244	H	1.068434	-0.452035	0.550898
H245	H	1.401767	-0.118702	0.884232
H246	H	1.735100	0.214632	1.217565
H247	H	1.258595	-0.450881	0.295048
H248	H	1.591928	-0.117548	0.628382
H249	H	1.925262	0.215786	0.961715
C250	C	1.056708	-0.557786	0.496733
C251	C	1.390042	-0.224452	0.830066
C252	C	1.723375	0.108881	1.163400
H253	H	1.025973	-0.533709	0.527408
H254	H	1.359307	-0.200376	0.860741
H255	H	1.692640	0.132958	1.194074
H256	H	1.021605	-0.579128	0.465867
H257	H	1.354938	-0.245795	0.799200
H258	H	1.688271	0.087539	1.132534
H259	H	1.087551	-0.579045	0.531907
H260	H	1.420885	-0.245712	0.865241
H261	H	1.754218	0.087622	1.198574
H262	H	1.258667	-0.549931	0.295078
H263	H	1.592001	-0.216598	0.628411
H264	H	1.925334	0.116735	0.961745
