data_functionalizedCrystal
_audit_creation_method	'MofGen! by Chris Wilmer'
_symmetry_space_group_name_H-M	'P1'
_symmetry_Int_Tables_number	1
_symmetry_cell_setting	triclinic
loop_
_symmetry_equiv_pos_as_xyz
  x,y,z
_cell_length_a	10.686220
_cell_length_b	10.686285
_cell_length_c	21.395355
_cell_angle_alpha	94.380557
_cell_angle_beta	85.654729
_cell_angle_gamma	90.345594
loop_
_atom_site_label
_atom_site_type_symbol
_atom_site_fract_x
_atom_site_fract_y
_atom_site_fract_z
Zn1	Zn	1.956210	-0.352184	0.266468
Zn2	Zn	2.456210	0.147816	0.766468
Zn3	Zn	1.972189	-0.561930	0.153118
Zn4	Zn	2.472189	-0.061930	0.653118
Zn5	Zn	1.746424	-0.368303	0.169073
Zn6	Zn	2.246424	0.131697	0.669073
Zn7	Zn	1.762535	-0.578006	0.265223
Zn8	Zn	2.262535	-0.078006	0.765223
O9	O	1.859339	-0.465106	0.213470
O10	O	2.359339	0.034894	0.713470
O11	O	2.133866	-0.366534	0.245275
O12	O	2.633866	0.133466	0.745275
O13	O	1.942186	-0.536263	0.067558
O14	O	2.442186	-0.036263	0.567558
O15	O	1.760823	-0.190624	0.189191
O16	O	2.260823	0.309376	0.689191
O17	O	2.145606	-0.520633	0.161997
O18	O	2.645606	-0.020633	0.661997
O19	O	1.914951	-0.178782	0.260746
O20	O	2.414951	0.321218	0.760746
O21	O	1.776318	-0.394006	0.079280
O22	O	2.276318	0.105994	0.579280
O23	O	1.573025	-0.409594	0.187984
O24	O	2.073025	0.090406	0.687984
O25	O	1.788281	-0.548032	0.353065
O26	O	2.288281	-0.048032	0.853065
O27	O	1.584861	-0.563662	0.258625
O28	O	2.084861	-0.063662	0.758625
O29	O	1.930573	-0.382122	0.353979
O30	O	2.430573	0.117878	0.853979
O31	O	1.957808	-0.739603	0.160790
O32	O	2.457808	-0.239603	0.660790
O33	O	1.803776	-0.751414	0.243154
O34	O	2.303776	-0.251414	0.743154
C35	C	1.533428	-0.490122	0.224902
C36	C	2.033428	0.009878	0.724902
C37	C	1.394004	-0.500855	0.229805
C38	C	1.894004	-0.000855	0.729805
C39	C	1.884308	-0.791022	0.200118
C40	C	2.384308	-0.291022	0.700118
C41	C	1.895104	-0.930441	0.194423
C42	C	2.395104	-0.430441	0.694423
C43	C	2.186524	-0.439992	0.201995
C44	C	2.686524	0.060008	0.701995
C45	C	2.325950	-0.429291	0.197105
C46	C	2.825950	0.070709	0.697105
C47	C	1.859442	-0.465072	0.376891
C48	C	2.359442	0.034928	0.876891
C49	C	1.859485	-0.465058	0.446531
C50	C	2.359485	0.034942	0.946531
C51	C	1.834308	-0.137914	0.226887
C52	C	2.334308	0.362086	0.726887
C53	C	1.823641	0.001515	0.232605
C54	C	2.323641	0.501515	0.732605
C55	C	1.859303	-0.465043	0.050687
C56	C	2.359303	0.034957	0.550687
C57	C	1.859475	-0.464685	-0.018947
C58	C	2.359475	0.035315	0.481053
C59	C	1.933573	-0.378666	0.479722
C60	C	2.433573	0.121334	0.979722
C61	C	1.933567	-0.378612	0.545159
C62	C	2.433567	0.121388	1.045159
C63	C	1.859488	-0.464972	0.577403
C64	C	2.359488	0.035028	1.077403
C65	C	1.785385	-0.551371	0.544205
C66	C	2.285385	-0.051371	1.044205
C67	C	1.785384	-0.551414	0.478769
C68	C	2.285384	-0.051414	0.978769
C69	C	1.858237	-0.578682	0.676798
C70	C	2.358237	-0.078682	1.176798
C71	C	1.858247	-0.578640	0.742232
C72	C	2.358247	-0.078640	1.242232
C73	C	1.859486	-0.464839	0.779229
C74	C	2.359486	0.035161	1.279229
C75	C	1.860740	-0.351074	0.750782
C76	C	2.360740	0.148926	1.250782
C77	C	1.860739	-0.351117	0.685347
C78	C	2.360739	0.148883	1.185347
C79	C	1.859481	-0.464934	0.648357
C80	C	2.359481	0.035066	1.148357
C81	C	1.933571	-0.378381	0.883374
C82	C	2.433571	0.121619	1.383374
C83	C	1.933556	-0.378326	0.948814
C84	C	2.433556	0.121674	1.448814
C85	C	1.785382	-0.551096	0.947857
C86	C	2.285382	-0.051096	1.447857
C87	C	1.785389	-0.551140	0.882420
C88	C	2.285389	-0.051140	1.382420
C89	C	1.859491	-0.464784	0.850182
C90	C	2.359491	0.035216	1.350182
H91	H	1.345604	-0.570336	0.261553
H92	H	1.845604	-0.070336	0.761553
Br93	Br	1.862432	-0.196617	0.800983
Br94	Br	2.362432	0.303383	1.300983
H95	H	1.993885	-0.307967	0.975837
H96	H	2.493885	0.192033	1.475837
Br97	Br	2.010836	-1.011120	0.132662
Br98	Br	2.510836	-0.511120	0.632662
Br99	Br	1.707893	-0.917812	0.294353
Br100	Br	2.207893	-0.417812	0.794353
H101	H	1.993910	-0.308346	0.453478
H102	H	2.493910	0.191654	0.953478
H103	H	1.993895	-0.308254	0.572189
H104	H	2.493895	0.191746	1.072189
H105	H	1.374356	-0.359813	0.165351
H106	H	1.874356	0.140187	0.665351
H107	H	1.861756	-0.258486	0.662188
H108	H	2.361756	0.241514	1.162188
Br109	Br	2.034130	-0.261183	0.839620
Br110	Br	2.534130	0.238817	1.339620
H111	H	1.725052	-0.621400	0.974110
H112	H	2.225052	-0.121400	1.474110
Br113	Br	1.684838	-0.668396	0.837372
Br114	Br	2.184838	-0.168396	1.337372
H115	H	1.857234	-0.671274	0.765388
H116	H	2.357234	-0.171274	1.265388
Br117	Br	1.856593	-0.733141	0.626593
Br118	Br	2.356593	-0.233141	1.126593
H119	H	1.725066	-0.621683	0.570462
H120	H	2.225066	-0.121683	1.070462
Br121	Br	1.684826	-0.668669	0.433722
Br122	Br	2.184826	-0.168669	0.933722
