data_functionalizedCrystal
_audit_creation_method	'MofGen! by Chris Wilmer'
_symmetry_space_group_name_H-M	'P1'
_symmetry_Int_Tables_number	1
_symmetry_cell_setting	triclinic
loop_
_symmetry_equiv_pos_as_xyz
  x,y,z
_cell_length_a	23.532407
_cell_length_b	23.532355
_cell_length_c	13.330367
_cell_angle_alpha	89.998270
_cell_angle_beta	89.997117
_cell_angle_gamma	97.161913
loop_
_atom_site_label
_atom_site_type_symbol
_atom_site_fract_x
_atom_site_fract_y
_atom_site_fract_z
O1	O	-0.068994	0.755281	-0.083271
O2	O	0.431006	1.255281	0.416729
O3	O	-0.079028	0.589414	-0.083301
O4	O	0.420972	1.089414	0.416699
O5	O	0.008922	0.677349	-0.083298
O6	O	0.508922	1.177349	0.416702
O7	O	-0.156943	0.667346	-0.083274
O8	O	0.343057	1.167346	0.416726
O9	O	0.008924	0.677337	0.083549
O10	O	0.508924	1.177337	0.583549
O11	O	-0.079026	0.589401	0.083546
O12	O	0.420974	1.089401	0.583546
O13	O	-0.068992	0.755269	0.083576
O14	O	0.431008	1.255269	0.583576
Cu15	Cu	-0.074009	0.672334	0.098796
Cu16	Cu	0.425991	1.172334	0.598796
Cu17	Cu	-0.074011	0.672349	-0.098521
Cu18	Cu	0.425989	1.172349	0.401479
O19	O	-0.156942	0.667333	0.083573
O20	O	0.343058	1.167333	0.583573
C21	C	-0.078776	0.568191	0.000119
C22	C	0.421224	1.068191	0.500119
C23	C	-0.078022	0.504972	0.000106
C24	C	0.421978	1.004972	0.500106
C25	C	-0.073283	0.112951	0.091096
C26	C	0.426717	0.612951	0.591096
C27	C	-0.072565	0.053552	0.091100
C28	C	0.427435	0.553552	0.591100
O29	O	-0.072174	0.022827	0.168447
O30	O	0.427826	0.522827	0.668447
N31	N	-0.072211	0.023850	0.000152
N32	N	0.427789	0.523850	0.500152
C33	C	-0.072568	0.053552	-0.090806
C34	C	0.427432	0.553552	0.409194
O35	O	-0.072200	0.022834	-0.168164
O36	O	0.427800	0.522834	0.331836
C37	C	-0.073281	0.112951	-0.090809
C38	C	0.426719	0.612951	0.409191
C39	C	-0.073641	0.142649	0.000145
C40	C	0.426359	0.642649	0.500145
C41	C	-0.073643	0.142649	0.182043
C42	C	0.426357	0.642649	0.682043
C43	C	-0.074361	0.202044	0.182039
C44	C	0.425639	0.702044	0.682039
C45	C	-0.074720	0.231742	0.091088
C46	C	0.425280	0.731742	0.591088
C47	C	-0.074360	0.202044	0.000141
C48	C	0.425640	0.702044	0.500141
C49	C	-0.073634	0.142652	-0.181765
C50	C	0.426366	0.642652	0.318235
C51	C	-0.074347	0.202055	-0.181760
C52	C	0.425653	0.702055	0.318240
C53	C	-0.074707	0.231753	-0.090806
C54	C	0.425293	0.731753	0.409194
C55	C	-0.075437	0.291136	-0.090814
C56	C	0.424563	0.791136	0.409186
N57	N	-0.075792	0.320838	0.000134
N58	N	0.424208	0.820838	0.500134
C59	C	-0.075433	0.291141	0.091085
C60	C	0.424567	0.791141	0.591085
C61	C	-0.071069	-0.071189	-0.090793
C62	C	0.428931	0.428811	0.409207
C63	C	-0.070359	-0.130588	-0.090792
C64	C	0.429641	0.369412	0.409208
C65	C	-0.070356	-0.130584	0.091115
C66	C	0.429644	0.369416	0.591115
C67	C	-0.071069	-0.071185	0.091112
C68	C	0.428931	0.428815	0.591112
C69	C	-0.071423	-0.041488	0.000155
C70	C	0.428577	0.458512	0.500155
C71	C	-0.076942	0.415875	0.091069
C72	C	0.423058	0.915875	0.591069
C73	C	-0.077663	0.475275	0.091057
C74	C	0.422337	0.975275	0.591057
C75	C	-0.077664	0.475266	-0.090848
C76	C	0.422336	0.975266	0.409152
C77	C	-0.076946	0.415871	-0.090837
C78	C	0.423054	0.915871	0.409163
C79	C	-0.076583	0.386177	0.000130
C80	C	0.423417	0.886177	0.500130
O81	O	-0.075826	0.321899	-0.168121
O82	O	0.424174	0.821899	0.331879
O83	O	-0.075794	0.321867	0.168430
O84	O	0.424206	0.821867	0.668430
C85	C	-0.178158	0.667594	0.000153
C86	C	0.321842	1.167594	0.500153
C87	C	-0.241375	0.668360	0.000162
C88	C	0.258625	1.168360	0.500162
C89	C	-0.640487	0.621125	0.000102
C90	C	-0.140487	1.121125	0.500102
C91	C	-0.699887	0.621837	0.000095
C92	C	-0.199887	1.121837	0.500095
O93	O	-0.736640	0.578050	0.000051
O94	O	-0.236640	1.078050	0.500051
N95	N	-0.722504	0.674114	0.000106
N96	N	-0.222504	1.174114	0.500106
C97	C	-0.685717	0.725684	0.000113
C98	C	-0.185717	1.225684	0.500113
O99	O	-0.710408	0.770216	0.000121
O100	O	-0.210408	1.270216	0.500121
C101	C	-0.626318	0.724972	0.000113
C102	C	-0.126318	1.224972	0.500113
C103	C	-0.603705	0.672691	0.000113
C104	C	-0.103705	1.172691	0.500113
C105	C	-0.617874	0.568849	0.000101
C106	C	-0.117874	1.068849	0.500101
C107	C	-0.558478	0.568137	0.000110
C108	C	-0.058478	1.068137	0.500110
C109	C	-0.521695	0.619703	0.000120
C110	C	-0.021695	1.119703	0.500120
C111	C	-0.544309	0.671980	0.000121
C112	C	-0.044309	1.171980	0.500121
C113	C	-0.589532	0.776541	0.000113
C114	C	-0.089532	1.276541	0.500113
C115	C	-0.530129	0.775824	0.000112
C116	C	-0.030129	1.275824	0.500112
C117	C	-0.507516	0.723543	0.000112
C118	C	-0.007516	1.223543	0.500112
C119	C	-0.448130	0.722834	0.000141
C120	C	0.051870	1.222834	0.500141
N121	N	-0.425514	0.670556	0.000130
N122	N	0.074486	1.170556	0.500130
C123	C	-0.462296	0.618991	0.000120
C124	C	0.037704	1.118991	0.500120
C125	C	-0.810459	0.727175	0.000112
C126	C	-0.310459	1.227175	0.500112
C127	C	-0.869857	0.727888	0.000120
C128	C	-0.369857	1.227888	0.500120
C129	C	-0.884023	0.624041	0.000100
C130	C	-0.384023	1.124041	0.500100
C131	C	-0.824624	0.623329	0.000100
C132	C	-0.324624	1.123329	0.500100
C133	C	-0.787842	0.674898	0.000102
C134	C	-0.287842	1.174898	0.500102
C135	C	-0.337560	0.617501	0.000139
C136	C	0.162440	1.117501	0.500139
C137	C	-0.278158	0.616794	0.000152
C138	C	0.221842	1.116794	0.500152
C139	C	-0.263996	0.720642	0.000166
C140	C	0.236004	1.220642	0.500166
C141	C	-0.323393	0.721349	0.000159
C142	C	0.176607	1.221349	0.500159
C143	C	-0.360174	0.669774	0.000142
C144	C	0.139826	1.169774	0.500142
O145	O	-0.411343	0.766598	0.000181
O146	O	0.088657	1.266598	0.500181
O147	O	-0.437597	0.574467	0.000099
O148	O	0.062403	1.074467	0.500099
C149	C	0.030139	0.677088	0.000120
C150	C	0.530139	1.177088	0.500120
C151	C	0.093356	0.676322	0.000104
C152	C	0.593356	1.176322	0.500104
C153	C	-0.069244	0.776491	0.000154
C154	C	0.430756	1.276491	0.500154
C155	C	-0.069998	0.839710	0.000160
C156	C	0.430002	1.339710	0.500160
N157	N	-0.074007	0.672327	0.237577
N158	N	0.425993	1.172327	0.737577
N159	N	-0.074008	0.672360	-0.237302
N160	N	0.425992	1.172360	0.262698
C161	C	-0.112940	0.633409	0.710199
C162	C	0.387060	1.133409	1.210199
C163	C	-0.035077	0.711303	0.710169
C164	C	0.464923	1.211303	1.210169
C165	C	-0.035076	0.711297	0.605151
C166	C	0.464924	1.211297	1.105151
C167	C	-0.074007	0.672347	0.552652
C168	C	0.425993	1.172347	1.052652
C169	C	-0.112940	0.633403	0.605171
C170	C	0.387060	1.133403	1.105171
C171	C	0.003853	0.750244	0.552624
C172	C	0.503853	1.250244	1.052624
C173	C	0.003856	0.750240	0.447599
C174	C	0.503856	1.250240	0.947599
C175	C	-0.035074	0.711286	0.395098
C176	C	0.464926	1.211286	0.895098
C177	C	-0.074008	0.672340	0.447623
C178	C	0.425992	1.172340	0.947623
C179	C	-0.112939	0.633390	0.395124
C180	C	0.387061	1.133390	0.895124
C181	C	-0.151872	0.594441	0.447648
C182	C	0.348128	1.094441	0.947648
C183	C	-0.151870	0.594449	0.552669
C184	C	0.348130	1.094449	1.052669
C185	C	-0.035075	0.711278	0.290076
C186	C	0.464925	1.211278	0.790076
C187	C	-0.112940	0.633383	0.290096
C188	C	0.387060	1.133383	0.790096
H189	H	-0.077958	0.499456	-0.164898
H190	H	0.422042	0.999456	0.335102
N191	N	0.045853	0.792247	0.609230
N192	N	0.545853	1.292247	1.109230
H193	H	0.039512	0.832631	0.590952
H194	H	0.539512	1.332631	1.090952
H195	H	0.039935	0.786292	0.683715
H196	H	0.539935	1.286292	1.183715
N197	N	-0.770788	0.782800	0.000126
N198	N	-0.270788	1.282800	0.500126
H199	H	-0.794133	0.816022	0.000135
H200	H	-0.294133	1.316022	0.500135
H201	H	-0.745838	0.784763	0.061981
H202	H	-0.245838	1.284763	0.561981
N203	N	-0.894245	0.784276	0.000129
N204	N	-0.394245	1.284276	0.500129
H205	H	-0.918577	0.786883	0.061978
H206	H	-0.418577	1.286883	0.561978
H207	H	-0.861894	0.816799	0.000100
H208	H	-0.361894	1.316799	0.500100
N209	N	-0.074738	0.234077	0.280135
N210	N	0.425262	0.734077	0.780135
H211	H	-0.110342	0.253903	0.284206
H212	H	0.389658	0.753903	0.784206
H213	H	-0.074377	0.206214	0.337692
H214	H	0.425623	0.706214	0.837692
N215	N	-0.078049	0.507301	0.189167
N216	N	0.421951	1.007301	0.689167
H217	H	-0.043038	0.536767	0.193219
H218	H	0.456962	1.036767	0.693219
H219	H	-0.113680	0.527086	0.193172
H220	H	0.386320	1.027086	0.693172
N221	N	0.006907	0.753317	0.766787
N222	N	0.506907	1.253317	1.266787
H223	H	0.000998	0.747413	0.841288
H224	H	0.500998	1.247413	1.341288
H225	H	0.047276	0.746968	0.748434
H226	H	0.547276	1.246968	1.248434
N227	N	-0.347787	0.777735	0.000176
N228	N	0.152213	1.277735	0.500176
H229	H	-0.315470	0.810293	0.000189
H230	H	0.184530	1.310293	0.500189
H231	H	-0.372116	0.780298	-0.061682
H232	H	0.127884	1.280298	0.438318
H233	H	0.035557	0.781953	0.404841
H234	H	0.535557	1.281953	0.904841
H235	H	-0.070075	-0.154764	-0.164856
H236	H	0.429925	0.345236	0.335144
H237	H	-0.607932	0.819114	0.000113
H238	H	-0.107932	1.319114	0.500113
H239	H	-0.076661	0.391688	-0.164899
H240	H	0.423339	0.891688	0.335101
N241	N	0.006906	0.753285	0.233425
N242	N	0.506906	1.253285	0.733425
H243	H	0.031566	0.777963	0.282619
H244	H	0.531566	1.277963	0.782619
H245	H	0.031972	0.731626	0.189855
H246	H	0.531972	1.231626	0.689855
H247	H	-0.259750	0.574219	0.000156
H248	H	0.240250	1.074219	0.500156
H249	H	-0.073349	0.118476	0.256110
H250	H	0.426651	0.618476	0.756110
N251	N	-0.071453	-0.039161	-0.188903
N252	N	0.428547	0.460839	0.311097
H253	H	-0.071120	-0.066994	-0.246511
H254	H	0.428880	0.433006	0.253489
H255	H	-0.107059	-0.019336	-0.192868
H256	H	0.392941	0.480664	0.307132
N257	N	-0.154927	0.591367	0.233474
N258	N	0.345073	1.091367	0.733474
H259	H	-0.179586	0.566696	0.282685
H260	H	0.320414	1.066696	0.782685
H261	H	-0.179994	0.613021	0.189898
H262	H	0.320006	1.113021	0.689898
N263	N	-0.657539	0.513225	0.000108
N264	N	-0.157539	1.013225	0.500108
H265	H	-0.698603	0.521599	0.000113
H266	H	-0.198603	1.021599	0.500113
H267	H	-0.650247	0.490428	-0.061743
H268	H	-0.150247	0.990428	0.438257
N269	N	-0.074733	0.234087	-0.279864
N270	N	0.425267	0.734087	0.220136
H271	H	-0.039721	0.263552	-0.283924
H272	H	0.460279	0.763552	0.216076
H273	H	-0.074418	0.206219	-0.337420
H274	H	0.425582	0.706219	0.162580
N275	N	-0.076551	0.383854	0.189182
N276	N	0.423449	0.883854	0.689182
H277	H	-0.076499	0.411741	0.246785
H278	H	0.423501	0.911741	0.746785
H279	H	-0.111760	0.354653	0.193452
H280	H	0.388240	0.854653	0.693452
N281	N	-0.071453	-0.039160	0.189216
N282	N	0.428547	0.460840	0.689216
H283	H	-0.036439	-0.009697	0.193271
H284	H	0.463561	0.490303	0.693271
H285	H	-0.107081	-0.019370	0.193220
H286	H	0.392919	0.480630	0.693220
N287	N	-0.069969	-0.162622	0.189214
N288	N	0.430031	0.337378	0.689214
H289	H	-0.070253	-0.204857	0.175409
H290	H	0.429747	0.295143	0.675409
H291	H	-0.034385	-0.147961	0.228322
H292	H	0.465615	0.352039	0.728322
H293	H	-0.500183	0.817819	0.000108
H294	H	-0.000183	1.317819	0.500108
H295	H	-0.234037	0.762625	0.000180
H296	H	0.265963	1.262625	0.500180
N297	N	-0.073237	0.110631	-0.279866
N298	N	0.426763	0.610631	0.220134
H299	H	-0.108667	0.116151	-0.319635
H300	H	0.391333	0.616151	0.180365
H301	H	-0.038025	0.125813	-0.319535
H302	H	0.461975	0.625813	0.180465
N303	N	-0.377225	0.561876	0.000119
N304	N	0.122775	1.061876	0.500119
H305	H	-0.353879	0.528655	0.000121
H306	H	0.146121	1.028655	0.500121
H307	H	-0.402183	0.559902	0.061969
H308	H	0.097817	1.059902	0.561969
H309	H	-0.540072	0.525565	0.000101
H310	H	-0.040072	1.025565	0.500101
N311	N	-0.193863	0.552430	0.391025
N312	N	0.306137	1.052430	0.891025
H313	H	-0.218966	0.574048	0.347452
H314	H	0.281034	1.074048	0.847452
H315	H	-0.172189	0.527350	0.347509
H316	H	0.327811	1.027350	0.847509
H317	H	-0.183567	0.562739	0.595440
H318	H	0.316433	1.062739	1.095440
H319	H	-0.144636	0.601696	0.752966
H320	H	0.355364	1.101696	1.252966
H321	H	-0.806217	0.580757	0.000103
H322	H	-0.306217	1.080757	0.500103
N323	N	-0.923702	0.568421	0.000091
N324	N	-0.423702	1.068421	0.500091
H325	H	-0.964761	0.576810	0.000088
H326	H	-0.464761	1.076810	0.500088
H327	H	-0.916413	0.545627	-0.061765
H328	H	-0.416413	1.045627	0.438235
