data_functionalizedCrystal
_audit_creation_method	'MofGen! by Chris Wilmer'
_symmetry_space_group_name_H-M	'P1'
_symmetry_Int_Tables_number	1
_symmetry_cell_setting	triclinic
loop_
_symmetry_equiv_pos_as_xyz
  x,y,z
_cell_length_a	9.065215
_cell_length_b	9.065218
_cell_length_c	9.616153
_cell_angle_alpha	89.991194
_cell_angle_beta	89.999522
_cell_angle_gamma	85.015291
loop_
_atom_site_label
_atom_site_type_symbol
_atom_site_fract_x
_atom_site_fract_y
_atom_site_fract_z
O1	O	0.216349	1.960409	-0.115646
O2	O	0.234096	1.531124	-0.115648
O3	O	0.010580	1.754642	-0.115641
O4	O	0.439865	1.736891	-0.115653
O5	O	0.010588	1.754603	0.115650
O6	O	0.234104	1.531085	0.115644
O7	O	0.216358	1.960370	0.115645
Zn8	Zn	0.225232	1.745721	0.152367
Zn9	Zn	0.225221	1.745773	-0.152369
O10	O	0.439874	1.736852	0.115638
C11	C	0.232394	1.476118	-0.000002
C12	C	0.227295	1.312275	-0.000003
C13	C	-0.044403	1.752917	0.000003
C14	C	-0.208246	1.747819	-0.000001
C15	C	0.494856	1.738576	-0.000009
C16	C	0.658699	1.743674	-0.000014
C17	C	0.218059	2.015376	-0.000003
C18	C	0.223159	2.179219	-0.000012
N19	N	0.225239	1.745697	0.360341
C20	C	0.344405	1.625753	0.580708
C21	C	0.344852	1.626026	0.419540
C22	C	0.260927	1.900109	0.418790
C23	C	0.261775	1.899451	0.580008
C24	C	0.070008	1.712744	0.580257
C25	C	0.070996	1.709214	0.419030
N26	N	0.225220	1.745773	0.639656
H27	H	0.323284	1.511315	0.380025
F28	F	0.025843	1.568605	0.633464
H29	H	-0.022010	1.790788	0.378738
F30	F	-0.045953	1.827112	0.630081
H31	H	0.375033	1.928242	0.617593
H32	H	0.323161	1.510682	0.619519
F33	F	0.035654	1.560732	0.369104
F34	F	0.495358	1.653817	0.369103
F35	F	0.152650	2.019722	0.630977
F36	F	0.494054	1.653245	0.633614
F37	F	0.407294	1.938568	0.365995
F38	F	0.150595	2.019741	0.368671
