data_functionalizedCrystal
_audit_creation_method	'MofGen! by Chris Wilmer'
_symmetry_space_group_name_H-M	'P1'
_symmetry_Int_Tables_number	1
_symmetry_cell_setting	triclinic
loop_
_symmetry_equiv_pos_as_xyz
  x,y,z
_cell_length_a	10.685727
_cell_length_b	10.686203
_cell_length_c	10.685314
_cell_angle_alpha	89.693711
_cell_angle_beta	89.684520
_cell_angle_gamma	80.944145
loop_
_atom_site_label
_atom_site_type_symbol
_atom_site_fract_x
_atom_site_fract_y
_atom_site_fract_z
Zn1	Zn	-1.922070	0.711619	-0.806164
Zn2	Zn	-1.954166	0.907998	-0.582603
Zn3	Zn	-1.725716	0.679480	-0.582611
Zn4	Zn	-1.728192	0.905402	-0.776442
O5	O	-1.832536	0.801125	-0.686955
O6	O	-2.103074	0.752206	-0.788944
O7	O	-1.936258	0.865321	-0.407925
O8	O	-1.737295	0.507009	-0.624708
O9	O	-2.126654	0.896485	-0.624695
O10	O	-1.881555	0.530622	-0.788951
O11	O	-1.768417	0.697430	-0.407930
O12	O	-1.549299	0.694913	-0.595887
O13	O	-1.741514	0.892060	-0.955064
O14	O	-1.551118	0.860896	-0.738294
O15	O	-1.883956	0.749689	-0.976901
O16	O	-1.938658	1.084388	-0.595874
O17	O	-1.772636	1.082481	-0.738286
C18	C	-1.504380	0.774136	-0.663867
C19	C	-1.363994	0.762623	-0.654017
C20	C	-1.859431	1.129264	-0.663884
C21	C	-1.871049	1.269656	-0.654064
C22	C	-1.161974	0.828211	-0.710123
C23	C	-1.302361	0.839729	-0.719966
C24	C	-1.809431	0.824170	-1.012541
C25	C	-1.799585	0.833991	-1.151287
C26	C	-1.805555	1.471709	-0.710158
C27	C	-1.794024	1.331331	-0.720077
C28	C	-1.855617	0.778084	-0.362647
C29	C	-1.865678	0.767928	-0.223944
H30	H	-1.309360	0.687793	-0.590029
H31	H	-1.945878	1.324263	-0.590020
H32	H	-1.735464	0.898060	-1.195226
O33	O	-1.950620	0.683050	-1.165747
H34	H	-1.892999	0.609989	-1.106882
O35	O	-1.374726	0.938835	-0.804760
H36	H	-1.444056	1.003926	-0.748455
O37	O	-1.694903	1.259021	-0.804910
H38	H	-1.701037	1.156403	-0.799585
