data_functionalizedCrystal
_audit_creation_method	'MofGen! by Chris Wilmer'
_symmetry_space_group_name_H-M	'P1'
_symmetry_Int_Tables_number	1
_symmetry_cell_setting	triclinic
loop_
_symmetry_equiv_pos_as_xyz
  x,y,z
_cell_length_a	15.944493
_cell_length_b	15.944564
_cell_length_c	14.421503
_cell_angle_alpha	89.996887
_cell_angle_beta	89.992936
_cell_angle_gamma	96.510511
loop_
_atom_site_label
_atom_site_type_symbol
_atom_site_fract_x
_atom_site_fract_y
_atom_site_fract_z
O1	O	1.114565	-0.108088	-0.077102
O2	O	1.614565	0.391912	0.422898
O3	O	0.870009	-0.121495	-0.077107
O4	O	1.370009	0.378505	0.422893
O5	O	0.998959	0.007484	-0.077095
O6	O	1.498959	0.507484	0.422905
O7	O	0.985614	-0.237067	-0.077113
O8	O	1.485614	0.262933	0.422887
O9	O	0.998938	0.007465	0.077128
O10	O	1.498938	0.507465	0.577128
O11	O	0.869987	-0.121514	0.077117
O12	O	1.369987	0.378486	0.577117
O13	O	1.114543	-0.108107	0.077122
O14	O	1.614543	0.391893	0.577122
Cu15	Cu	0.992263	-0.114812	0.091201
Cu16	Cu	1.492263	0.385188	0.591201
Cu17	Cu	0.992289	-0.114790	-0.091186
Cu18	Cu	1.492289	0.385210	0.408814
O19	O	0.985593	-0.237086	0.077110
O20	O	1.485593	0.262914	0.577110
C21	C	0.838703	-0.120957	0.000004
C22	C	1.338703	0.379043	0.500004
C23	C	0.745455	-0.119314	0.000003
C24	C	1.245455	0.380686	0.500003
C25	C	0.509698	-0.195234	-0.000003
C26	C	1.009698	0.304766	0.499997
C27	C	0.459127	-0.154302	0.076044
C28	C	0.959127	0.345698	0.576044
C29	C	0.574733	-0.116270	0.000005
C30	C	1.074733	0.383730	0.500005
C31	C	0.459153	-0.154265	-0.076008
C32	C	0.959153	0.345735	0.423992
C33	C	0.409824	-0.113335	0.000003
C34	C	0.909824	0.386665	0.500003
C35	C	0.525391	-0.075360	0.076115
C36	C	1.025391	0.424640	0.576115
C37	C	0.525420	-0.075334	-0.076006
C38	C	1.025420	0.424666	0.423994
C39	C	0.474882	-0.034345	0.000060
C40	C	0.974882	0.465655	0.500060
C41	C	0.669733	-0.117962	0.000007
C42	C	1.169733	0.382038	0.500007
C43	C	0.314827	-0.111636	0.000008
C44	C	0.814827	0.388364	0.500008
C45	C	0.998393	0.038768	0.000017
C46	C	1.498393	0.538768	0.500017
C47	C	0.996726	0.132013	0.000018
C48	C	1.496726	0.632013	0.500018
C49	C	0.912810	0.346851	0.000004
C50	C	1.412810	0.846851	0.500004
C51	C	0.951760	0.407867	0.076047
C52	C	1.451760	0.907867	0.576047
C53	C	0.993711	0.302738	0.000011
C54	C	1.493711	0.802738	0.500011
C55	C	0.951800	0.407869	-0.076005
C56	C	1.451800	0.907869	0.423995
C57	C	0.990793	0.467649	0.000001
C58	C	1.490793	0.967649	0.500001
C59	C	1.032683	0.362525	0.076117
C60	C	1.532683	0.862525	0.576117
C61	C	1.032712	0.362521	-0.076004
C62	C	1.532712	0.862521	0.423996
C63	C	1.071721	0.423519	0.000057
C64	C	1.571721	0.923519	0.500057
C65	C	0.995390	0.207736	0.000018
C66	C	1.495390	0.707736	0.500018
C67	C	0.989120	0.562649	0.000001
C68	C	1.489120	1.062649	0.500001
C69	C	1.145849	-0.108645	0.000008
C70	C	1.645849	0.391355	0.500008
C71	C	1.239097	-0.110288	0.000004
C72	C	1.739097	0.389712	0.500004
N73	N	0.992252	-0.114828	0.219482
N74	N	1.492252	0.385172	0.719482
C75	C	0.986148	0.731628	-0.000003
C76	C	1.486148	1.231628	0.499997
C77	C	0.987780	0.638379	-0.000006
C78	C	1.487780	1.138379	0.499994
N79	N	0.992307	-0.114768	-0.219467
N80	N	1.492307	0.385232	0.280533
C81	C	0.932614	-0.174441	0.469131
C82	C	1.432614	0.325559	0.969131
C83	C	1.008517	-0.190732	0.530933
C84	C	1.508517	0.309268	1.030933
C85	C	0.992272	-0.114808	0.408644
C86	C	1.492272	0.385192	0.908644
C87	C	0.916389	-0.098536	0.530935
C88	C	1.416389	0.401464	1.030935
C89	C	0.992285	-0.114790	0.591365
C90	C	1.492285	0.385210	1.091365
C91	C	1.068213	-0.131137	0.469086
C92	C	1.568213	0.368863	0.969086
C93	C	0.976035	-0.038908	0.469082
C94	C	1.476035	0.461092	0.969082
C95	C	1.051993	-0.055167	0.530856
C96	C	1.551993	0.444833	1.030856
C97	C	0.992264	-0.114820	0.303383
C98	C	1.492264	0.385180	0.803383
C99	C	0.992302	-0.114777	0.696624
C100	C	1.492302	0.385223	1.196624
H101	H	0.430183	-0.187658	0.140330
H102	H	0.930183	0.312342	0.640330
H103	H	0.917533	0.427960	0.140333
H104	H	1.417533	0.927960	0.640333
N105	N	0.957805	0.046081	0.433065
N106	N	1.457805	0.546081	0.933065
H107	H	0.900435	0.058314	0.455523
H108	H	1.400435	0.558314	0.955523
H109	H	0.958534	0.045548	0.363041
H110	H	1.458534	0.545548	0.863041
H111	H	0.852210	-0.084781	0.558105
H112	H	1.352210	0.415219	1.058105
H113	H	1.066864	0.342534	0.140475
H114	H	1.566864	0.842534	0.640475
N115	N	0.563552	-0.031226	0.161365
N116	N	1.063552	0.468774	0.661365
H117	H	0.626718	-0.032648	0.160855
H118	H	1.126718	0.467352	0.660855
H119	H	0.538765	-0.060845	0.218681
H120	H	1.038765	0.439155	0.718681
N121	N	1.160742	0.467464	0.000106
N122	N	1.660742	0.967464	0.500106
H123	H	1.191173	0.450991	0.057567
H124	H	1.691173	0.950991	0.557567
H125	H	1.159067	0.530593	-0.000474
H126	H	1.659067	1.030593	0.499526
N127	N	0.823869	0.302705	0.000094
N128	N	1.323869	0.802705	0.500094
H129	H	0.792990	0.319886	-0.056748
H130	H	1.292990	0.819886	0.443252
H131	H	0.793480	0.319086	0.057626
H132	H	1.293480	0.819086	0.557626
H133	H	0.459413	0.033726	0.000109
H134	H	0.959413	0.533726	0.500109
N135	N	0.563775	-0.031177	-0.161159
N136	N	1.063775	0.468823	0.338841
H137	H	0.539559	-0.061062	-0.218572
H138	H	1.039559	0.438938	0.281428
H139	H	0.626992	-0.032156	-0.160126
H140	H	1.126992	0.467844	0.339874
H141	H	0.430225	-0.187621	-0.140291
H142	H	0.930225	0.312379	0.359709
H143	H	1.102504	-0.004726	0.557789
H144	H	1.602504	0.495274	1.057789
H145	H	0.882215	-0.224911	0.442028
H146	H	1.382215	0.275089	0.942028
N147	N	1.153248	-0.149454	0.433262
N148	N	1.653248	0.350546	0.933262
H149	H	1.152711	-0.149372	0.363230
H150	H	1.652711	0.350628	0.863230
H151	H	1.165606	-0.206572	0.456375
H152	H	1.665606	0.293428	0.956375
N153	N	0.906473	0.434487	-0.161156
N154	N	1.406473	0.934487	0.338844
H155	H	0.846456	0.406309	-0.161085
H156	H	1.346456	0.906309	0.338915
H157	H	0.936494	0.417188	-0.218543
H158	H	1.436494	0.917188	0.281457
N159	N	0.530401	-0.285330	0.000073
N160	N	1.030401	0.214670	0.500073
H161	H	0.506151	-0.315067	0.057566
H162	H	1.006151	0.184933	0.557566
H163	H	0.593691	-0.285760	-0.000555
H164	H	1.093691	0.214240	0.499445
N165	N	1.078018	0.335875	-0.161158
N166	N	1.578018	0.835875	0.338842
H167	H	1.047412	0.352178	-0.218570
H168	H	1.547412	0.852178	0.281430
H169	H	1.079276	0.272695	-0.160114
H170	H	1.579276	0.772695	0.339886
H171	H	1.022263	-0.254912	0.558101
H172	H	1.522263	0.245088	1.058101
