data_functionalizedCrystal
_audit_creation_method	'MofGen! by Chris Wilmer'
_symmetry_space_group_name_H-M	'P1'
_symmetry_Int_Tables_number	1
_symmetry_cell_setting	triclinic
loop_
_symmetry_equiv_pos_as_xyz
  x,y,z
_cell_length_a	17.038272
_cell_length_b	23.532407
_cell_length_c	16.098538
_cell_angle_alpha	92.700973
_cell_angle_beta	87.069734
_cell_angle_gamma	86.980117
loop_
_atom_site_label
_atom_site_type_symbol
_atom_site_fract_x
_atom_site_fract_y
_atom_site_fract_z
O1	O	1.039966	0.121251	-0.069166
O2	O	0.812351	0.119288	-0.069191
O3	O	0.933021	0.037699	-0.069163
O4	O	0.919295	0.202840	-0.069195
O5	O	0.925973	0.042445	0.069349
O6	O	0.805302	0.124034	0.069321
O7	O	1.032917	0.125997	0.069345
Zn8	Zn	0.917990	0.125769	0.091324
Zn9	Zn	0.927278	0.119516	-0.091170
O10	O	0.912247	0.207586	0.069317
C11	C	0.779712	0.119875	0.000062
C12	C	0.692959	0.114548	0.000054
C13	C	0.642483	0.163453	0.000045
C14	C	0.560969	0.158445	0.000057
C15	C	0.529932	0.104532	0.000072
C16	C	0.580415	0.055624	0.000084
C17	C	0.661927	0.060632	0.000077
C18	C	0.284304	0.086837	0.000098
C19	C	0.202786	0.081832	0.000102
C20	C	0.183345	0.184654	0.000077
C21	C	0.264860	0.189657	0.000066
C22	C	0.315335	0.140750	0.000081
C23	C	0.446612	0.099411	0.000083
C24	C	0.398653	0.145871	0.000077
C25	C	0.929147	0.018838	0.000095
C26	C	0.928096	-0.044434	0.000101
C27	C	0.992917	-0.440131	0.000063
C28	C	0.991941	-0.499583	0.000056
O29	O	1.052030	-0.533169	0.000032
N30	N	0.920202	-0.525981	0.000049
C31	C	0.849435	-0.492924	0.000040
O32	O	0.788325	-0.520836	0.000033
C33	C	0.850412	-0.433473	0.000041
C34	C	0.922155	-0.407078	0.000056
C35	C	1.064654	-0.413736	0.000077
C36	C	1.065630	-0.354288	0.000085
C37	C	0.994868	-0.321236	0.000079
C38	C	0.923131	-0.347631	0.000064
C39	C	0.779646	-0.400418	0.000026
C40	C	0.780629	-0.340963	0.000025
C41	C	0.852372	-0.314569	0.000041
C42	C	0.853344	-0.255130	0.000066
N43	N	0.925083	-0.228732	0.000073
C44	C	0.995845	-0.261785	0.000079
C45	C	0.847388	-0.617774	0.000038
C46	C	0.846410	-0.677223	0.000043
C47	C	0.988917	-0.683878	0.000058
C48	C	0.989894	-0.624428	0.000058
C49	C	0.919127	-0.591376	0.000045
C50	C	0.997889	-0.136940	0.000097
C51	C	0.998858	-0.077487	0.000108
C52	C	0.856352	-0.070837	0.000089
C53	C	0.855382	-0.130285	0.000082
C54	C	0.926157	-0.163336	0.000083
O55	O	0.793287	-0.221508	0.000086
O56	O	1.056945	-0.233865	0.000076
C57	C	1.065556	0.125410	0.000090
C58	C	1.152310	0.130737	0.000093
C59	C	0.916121	0.226447	0.000057
C60	C	0.917172	0.289719	0.000045
N61	N	0.911658	0.130036	0.215872
N62	N	0.933616	0.115244	-0.215718
C63	C	0.962894	0.095421	0.259469
C64	C	0.958471	0.098412	0.346657
C65	C	0.902816	0.136022	0.390246
C66	C	0.851574	0.170639	0.346643
C67	C	0.855994	0.167644	0.259457
C68	C	0.886795	0.146867	0.653493
C69	C	0.882380	0.149860	0.740685
C70	C	0.989277	0.077632	0.740693
C71	C	0.993694	0.074644	0.653505
C72	C	0.942450	0.109258	0.609909
C73	C	0.898295	0.139081	0.479366
C74	C	0.946968	0.106195	0.520791
H75	H	0.177520	0.037928	0.000114
C76	C	0.348828	0.252493	-0.071200
C77	C	0.298958	0.248925	0.000023
H78	H	0.369870	0.289085	-0.071238
H79	H	0.390561	0.224095	-0.071181
H80	H	0.319868	0.246726	-0.119483
H81	H	0.327919	0.254687	0.048307
H82	H	0.257218	0.277331	0.000012
H83	H	0.325392	0.047013	0.000112
H84	H	1.048313	-0.602941	0.000070
C85	C	0.740153	0.181160	0.444712
C86	C	0.790397	0.211979	0.394559
H87	H	0.702389	0.206684	0.474295
H88	H	0.713950	0.154927	0.410713
H89	H	0.770046	0.160974	0.483150
H90	H	0.760505	0.232161	0.356116
H91	H	0.816602	0.238222	0.428561
H92	H	0.796962	-0.151776	0.000093
H93	H	1.008217	0.064798	0.223984
C94	C	0.464096	0.002290	0.000097
C95	C	0.546302	-0.003639	0.000099
H96	H	0.443040	-0.034298	0.000099
H97	H	0.444296	0.024244	0.048392
H98	H	0.449204	0.020939	-0.048212
H99	H	0.561195	-0.022284	0.048411
H100	H	0.566109	-0.025602	-0.048201
C101	C	0.084007	0.236231	-0.071129
C102	C	0.127860	0.238410	0.000069
H103	H	0.049750	0.269418	-0.071127
H104	H	0.118660	0.234396	-0.119424
H105	H	0.053862	0.203403	-0.071112
H106	H	0.158010	0.271236	0.000048
H107	H	0.093203	0.240251	0.048377
C108	C	1.041486	-0.022632	0.627176
C109	C	1.054855	0.033172	0.605817
H110	H	1.079239	-0.048271	0.597797
H111	H	1.046053	-0.025665	0.685375
H112	H	0.990102	-0.031808	0.612825
H113	H	1.106237	0.042349	0.620174
H114	H	1.050295	0.036206	0.547605
H115	H	1.046535	-0.710801	0.000060
H116	H	0.703024	0.020809	0.000084
C117	C	1.145798	-0.288868	0.071294
C118	C	1.144493	-0.325279	0.000091
H119	H	1.194490	-0.270966	0.071295
H120	H	1.103806	-0.260673	0.071287
H121	H	1.139997	-0.310277	0.119591
H122	H	1.150289	-0.303870	-0.048206
H123	H	1.186498	-0.353479	0.000090
C124	C	1.001866	0.004350	0.838761
C125	C	1.045593	0.039580	0.788616
H126	H	1.036635	-0.019146	0.868342
H127	H	0.968098	0.027180	0.877193
H128	H	0.971221	-0.018882	0.804749
H129	H	1.076234	0.062815	0.822628
H130	H	1.079375	0.016748	0.750179
C131	C	0.482649	0.208702	-0.071156
C132	C	0.432763	0.205132	0.000054
H133	H	0.503707	0.245289	-0.071174
H134	H	0.524370	0.180295	-0.071141
H135	H	0.453695	0.202952	-0.119448
H136	H	0.461718	0.210877	0.048347
H137	H	0.391036	0.233548	0.000047
C138	C	1.139625	-0.090046	0.000115
C139	C	1.077724	-0.048475	0.000118
H140	H	1.188311	-0.072136	0.000115
H141	H	1.133823	-0.111445	0.048412
H142	H	1.138728	-0.114745	-0.048193
H143	H	1.078617	-0.023778	0.048429
H144	H	1.083528	-0.027066	-0.048183
C145	C	1.064596	0.026735	0.337907
C146	C	1.014804	0.060371	0.394579
H147	H	1.099380	0.003254	0.367494
H148	H	1.033955	0.003494	0.303919
H149	H	1.094233	0.050650	0.303883
H150	H	0.985163	0.036457	0.428599
H151	H	1.045448	0.083615	0.428581
C152	C	0.778422	-0.002547	-0.071129
C153	C	0.778573	-0.034498	0.000076
H154	H	0.730402	0.019885	-0.071143
H155	H	0.821287	0.021675	-0.071111
H156	H	0.783463	-0.027535	-0.119425
H157	H	0.773539	-0.009510	0.048372
H158	H	0.735696	-0.058722	0.000066
C159	C	0.777136	0.220940	0.731925
C160	C	0.821188	0.191195	0.788601
H161	H	0.739357	0.246453	0.761508
H162	H	0.811221	0.241848	0.697911
H163	H	0.750944	0.194692	0.697928
H164	H	0.847386	0.217443	0.822594
H165	H	0.787098	0.170286	0.822629
C166	C	1.149878	-0.486879	-0.071118
C167	C	1.142447	-0.450060	0.000085
H168	H	1.197910	-0.509297	-0.071109
H169	H	1.107028	-0.511114	-0.071118
H170	H	1.149749	-0.465194	-0.119415
H171	H	1.142570	-0.471745	0.048383
H172	H	1.185308	-0.425822	0.000093
C173	C	0.728269	-0.692274	-0.071175
C174	C	0.767548	-0.706233	0.000033
H175	H	0.679584	-0.710186	-0.071186
H176	H	0.718731	-0.652141	-0.071164
H177	H	0.759851	-0.705039	-0.119468
H178	H	0.735969	-0.693464	0.048327
H179	H	0.777083	-0.746374	0.000030
C180	C	0.874203	0.220153	0.555436
C181	C	0.830478	0.184925	0.605583
H182	H	0.839434	0.243649	0.525855
H183	H	0.904850	0.243380	0.589438
H184	H	0.907971	0.197319	0.516995
H185	H	0.796714	0.207759	0.644028
H186	H	0.799817	0.161695	0.571577
C187	C	1.083114	-0.210078	-0.071105
C188	C	1.075685	-0.173263	0.000101
H189	H	1.131144	-0.232499	-0.071099
H190	H	1.040261	-0.234311	-0.071109
H191	H	1.082987	-0.188390	-0.119400
H192	H	1.075806	-0.194951	0.048396
H193	H	1.118549	-0.149027	0.000113
H194	H	0.852981	0.169705	0.514864
H195	H	0.421332	0.055516	0.000119
H196	H	0.789757	-0.590866	0.000034
H197	H	0.814271	0.195831	0.223961
C198	C	0.638890	-0.387844	-0.000014
C199	C	0.700782	-0.429420	0.000001
H200	H	0.590201	-0.405749	-0.000035
H201	H	0.639776	-0.363148	0.048289
H202	H	0.644713	-0.366442	-0.048315
H203	H	0.694963	-0.450819	0.048306
H204	H	0.699895	-0.454126	-0.048307
H205	H	0.992280	0.075571	0.485298
C206	C	0.702671	-0.272680	-0.071190
C207	C	0.702838	-0.304634	0.000011
H208	H	0.654644	-0.250256	-0.071198
H209	H	0.745527	-0.248450	-0.071173
H210	H	0.707716	-0.297666	-0.119488
H211	H	0.697799	-0.279648	0.048310
H212	H	0.659970	-0.328866	0.000002
H213	H	0.667745	0.207354	0.000032
H214	H	0.519874	0.198268	0.000049
