data_functionalizedCrystal
_audit_creation_method	'MofGen! by Chris Wilmer'
_symmetry_space_group_name_H-M	'P1'
_symmetry_Int_Tables_number	1
_symmetry_cell_setting	triclinic
loop_
_symmetry_equiv_pos_as_xyz
  x,y,z
_cell_length_a	17.077402
_cell_length_b	19.077269
_cell_length_c	17.077396
_cell_angle_alpha	92.279674
_cell_angle_beta	89.972472
_cell_angle_gamma	87.726560
loop_
_atom_site_label
_atom_site_type_symbol
_atom_site_fract_x
_atom_site_fract_y
_atom_site_fract_z
Zn1	Zn	-0.360703	1.075950	-0.395606
Zn2	Zn	0.139297	1.575950	0.104394
Zn3	Zn	-0.491974	1.075865	-0.264346
Zn4	Zn	0.008026	1.575865	0.235654
Zn5	Zn	-0.355458	0.958257	-0.269631
Zn6	Zn	0.144542	1.458257	0.230369
Zn7	Zn	-0.486658	0.958227	-0.400844
Zn8	Zn	0.013342	1.458227	0.099156
O9	O	-0.423698	1.017075	-0.332607
O10	O	0.076302	1.517075	0.167393
O11	O	-0.382536	1.174426	-0.373790
O12	O	0.117464	1.674426	0.126210
O13	O	-0.473895	1.060242	-0.155201
O14	O	0.026105	1.560242	0.344799
O15	O	-0.246309	0.973917	-0.286361
O16	O	0.253691	1.473917	0.213639
O17	O	-0.478981	1.174364	-0.277354
O18	O	0.021019	1.674364	0.222646
O19	O	-0.250163	1.060386	-0.378915
O20	O	0.249837	1.560386	0.121085
O21	O	-0.373597	0.973835	-0.159084
O22	O	0.126403	1.473835	0.340916
O23	O	-0.368442	0.859765	-0.291440
O24	O	0.131558	1.359765	0.208560
O25	O	-0.469919	0.973866	-0.509995
O26	O	0.030081	1.473866	-0.009995
O27	O	-0.464834	0.859743	-0.387842
O28	O	0.035166	1.359743	0.112158
O29	O	-0.377381	1.060357	-0.506147
O30	O	0.122619	1.560357	-0.006147
O31	O	-0.601114	1.060213	-0.282433
O32	O	-0.101114	1.560213	0.217567
O33	O	-0.597208	0.973784	-0.382718
O34	O	-0.097208	1.473784	0.117282
C35	C	-0.415493	0.834218	-0.340784
C36	C	0.084507	1.334218	0.159216
C37	C	-0.412001	0.755991	-0.344300
C38	C	0.087999	1.255991	0.155700
C39	C	-0.460492	0.719204	-0.295669
C40	C	0.039508	1.219204	0.204331
C41	C	-0.457212	0.645702	-0.298984
C42	C	0.042788	1.145702	0.201016
C43	C	-0.405436	0.608987	-0.350927
C44	C	0.094564	1.108987	0.149073
C45	C	-0.356942	0.645779	-0.399564
C46	C	0.143058	1.145779	0.100436
C47	C	-0.360227	0.719280	-0.396252
C48	C	0.139773	1.219280	0.103748
C49	C	-0.390239	0.389166	-0.366226
C50	C	0.109761	0.889166	0.133774
C51	C	-0.386956	0.315659	-0.369532
C52	C	0.113044	0.815659	0.130468
C53	C	-0.487227	0.315587	-0.268953
C54	C	0.012773	0.815587	0.231047
C55	C	-0.490504	0.389090	-0.265643
C56	C	0.009496	0.889090	0.234357
C57	C	-0.442014	0.425875	-0.314282
C58	C	0.057986	0.925875	0.185718
N59	N	-0.402079	0.533856	-0.354314
N60	N	0.097921	1.033856	0.145686
N61	N	-0.445374	0.501005	-0.310898
N62	N	0.054626	1.001005	0.189102
C63	C	-0.627643	1.017005	-0.332587
C64	C	-0.127643	1.517005	0.167413
C65	C	-0.714894	1.017039	-0.332601
C66	C	-0.214894	1.517039	0.167399
C67	C	-0.757822	1.062039	-0.380835
C68	C	-0.257822	1.562039	0.119165
C69	C	-0.839804	1.062069	-0.380851
C70	C	-0.339804	1.562069	0.119149
C71	C	-0.878857	1.017102	-0.332627
C72	C	-0.378857	1.517102	0.167373
C73	C	-0.835923	0.972097	-0.284391
C74	C	-0.335923	1.472097	0.215609
C75	C	-0.753942	0.972064	-0.284381
C76	C	-0.253942	1.472064	0.215619
C77	C	-1.006796	0.972169	-0.284415
C78	C	-0.506796	1.472169	0.215585
C79	C	-1.088782	0.972202	-0.284425
C80	C	-0.588782	1.472202	0.215575
C81	C	-1.092658	1.062174	-0.380885
C82	C	-0.592658	1.562174	0.119115
C83	C	-1.010677	1.062141	-0.380875
C84	C	-0.510677	1.562141	0.119125
C85	C	-0.967749	1.017137	-0.332638
C86	C	-0.467749	1.517137	0.167362
C87	C	-0.218958	1.017164	-0.332643
C88	C	0.281042	1.517164	0.167357
C89	C	-0.131710	1.017202	-0.332659
C90	C	0.368290	1.517202	0.167341
C91	C	-0.423642	1.017117	-0.537349
C92	C	0.076358	1.517117	-0.037349
C93	C	-0.423619	1.017135	-0.624598
C94	C	0.076381	1.517135	-0.124598
C95	C	-0.431937	1.200646	-0.324398
C96	C	0.068063	1.700646	0.175602
C97	C	-0.435447	1.278873	-0.320900
C98	C	0.064553	1.778873	0.179100
C99	C	-0.375430	1.062173	-0.663586
C100	C	0.124570	1.562173	-0.163586
C101	C	-0.375404	1.062181	-0.745566
C102	C	0.124596	1.562181	-0.245566
C103	C	-0.423572	1.017155	-0.788557
C104	C	0.076428	1.517155	-0.288557
C105	C	-0.471762	0.972113	-0.749564
C106	C	0.028238	1.472113	-0.249564
C107	C	-0.471784	0.972102	-0.667585
C108	C	0.028216	1.472102	-0.167585
C109	C	-0.471717	0.972141	-0.920433
C110	C	0.028283	1.472141	-0.420433
C111	C	-0.471697	0.972154	-1.002417
C112	C	0.028303	1.472154	-0.502417
C113	C	-0.375337	1.062221	-0.998413
C114	C	0.124663	1.562221	-0.498413
C115	C	-0.375358	1.062210	-0.916435
C116	C	0.124642	1.562210	-0.416435
C117	C	-0.423550	1.017168	-0.877447
C118	C	0.076450	1.517168	-0.377447
C119	C	-0.423699	1.017073	-0.128659
C120	C	0.076301	1.517073	0.371341
C121	C	-0.423508	1.017191	-0.041404
C122	C	0.076492	1.517191	0.458596
H123	H	-0.344787	0.285768	-0.411828
H124	H	0.155213	0.785768	0.088172
H125	H	-0.874753	1.098717	-0.420121
H126	H	-0.374753	1.598717	0.079879
Cl127	Cl	-0.952830	0.915593	-0.223771
Cl128	Cl	-0.452830	1.415593	0.276229
Cl129	Cl	-0.532242	0.915541	-1.056462
Cl130	Cl	-0.032242	1.415541	-0.556462
H131	H	-0.718991	0.935420	-0.245105
H132	H	-0.218991	1.435420	0.254895
Cl133	Cl	-0.532301	0.915516	-0.871421
Cl134	Cl	-0.032301	1.415516	-0.371421
H135	H	-0.532665	0.418978	-0.223344
H136	H	-0.032665	0.918978	0.276656
H137	H	-0.336208	1.098840	-0.628588
H138	H	0.163792	1.598840	-0.128588
H139	H	-0.350755	0.419107	-0.405833
H140	H	0.149245	0.919107	0.094167
H141	H	-0.510978	0.935450	-0.784574
H142	H	-0.010978	1.435450	-0.284574
H143	H	-0.867725	0.935481	-0.245130
H144	H	-0.367725	1.435481	0.254870
H145	H	-0.978881	1.098760	-0.420138
H146	H	-0.478881	1.598760	0.079862
Cl147	Cl	-0.291857	0.599623	-0.464870
Cl148	Cl	0.208143	1.099623	0.035130
Cl149	Cl	-0.314857	1.118834	-0.794574
Cl150	Cl	0.185143	1.618834	-0.294574
H151	H	-0.320740	0.749230	-0.435853
H152	H	0.179260	1.249230	0.064147
H153	H	-0.726032	1.098660	-0.420101
H154	H	-0.226032	1.598660	0.079899
Cl155	Cl	-0.532364	0.915479	-0.618572
Cl156	Cl	-0.032364	1.415479	-0.118572
H157	H	-1.127614	1.098817	-0.420163
H158	H	-0.627614	1.598817	0.079837
Cl159	Cl	-1.137876	0.915671	-0.223800
Cl160	Cl	-0.637876	1.415671	0.276200
H161	H	-0.336140	1.098878	-0.881433
H162	H	0.163860	1.598878	-0.381433
Cl163	Cl	-0.548185	0.269339	-0.207812
Cl164	Cl	-0.048185	0.769339	0.292188
Cl165	Cl	-0.525585	0.765353	-0.230364
Cl166	Cl	-0.025585	1.265353	0.269636
H167	H	-0.496699	0.615753	-0.259382
H168	H	0.003301	1.115753	0.240618
Cl169	Cl	-0.314754	1.118846	-1.047425
Cl170	Cl	0.185246	1.618846	-0.547425
