data_functionalizedCrystal
_audit_creation_method	'MofGen! by Chris Wilmer'
_symmetry_space_group_name_H-M	'P1'
_symmetry_Int_Tables_number	1
_symmetry_cell_setting	triclinic
loop_
_symmetry_equiv_pos_as_xyz
  x,y,z
_cell_length_a	10.489716
_cell_length_b	10.489716
_cell_length_c	12.996460
_cell_angle_alpha	89.997908
_cell_angle_beta	89.994805
_cell_angle_gamma	84.529136
loop_
_atom_site_label
_atom_site_type_symbol
_atom_site_fract_x
_atom_site_fract_y
_atom_site_fract_z
O1	O	1.694058	0.179823	-0.085548
O2	O	1.322857	0.196749	-0.085551
O3	O	1.516920	0.002685	-0.085554
O4	O	1.499994	0.373887	-0.085546
O5	O	1.516900	0.002674	0.085580
O6	O	1.322836	0.196738	0.085582
O7	O	1.694037	0.179812	0.085585
Cu8	Cu	1.508435	0.188274	0.101210
Cu9	Cu	1.508459	0.188287	-0.101176
O10	O	1.499974	0.373876	0.085587
C11	C	1.275314	0.195472	0.000015
C12	C	1.133684	0.191667	0.000013
C13	C	1.035999	0.310673	0.000013
C14	C	0.958649	0.247782	0.084395
C15	C	0.958676	0.247765	-0.084330
C16	C	1.058199	0.128826	0.084464
C17	C	1.058231	0.128826	-0.084336
C18	C	0.980929	0.065848	0.000066
C19	C	1.515638	-0.044852	0.000010
C20	C	1.511833	-0.186483	0.000001
C21	C	1.630839	-0.284167	0.000011
C22	C	1.567964	-0.361517	-0.084365
C23	C	1.567916	-0.361492	0.084360
C24	C	1.449008	-0.261967	-0.084445
C25	C	1.448978	-0.261937	0.084356
C26	C	1.386015	-0.339237	-0.000041
C27	C	1.741580	0.181089	0.000017
C28	C	1.883210	0.184894	0.000011
C29	C	1.501256	0.421413	0.000021
C30	C	1.505061	0.563044	0.000024
N31	N	1.508427	0.188264	0.243557
N32	N	1.508477	0.188287	-0.243523
C33	C	1.508457	0.188288	0.663371
C34	C	1.508445	0.188286	0.546566
C35	C	1.508443	0.188277	0.453468
C36	C	1.508429	0.188273	0.336655
H37	H	1.734354	-0.259500	-0.000074
H38	H	1.398807	-0.218654	-0.155857
C39	C	1.630421	-0.553109	-0.180095
C40	C	1.635778	-0.420242	-0.180666
H41	H	1.672284	-0.589356	-0.239550
H42	H	1.671837	-0.588515	-0.120187
H43	H	1.543503	-0.571564	-0.180179
H44	H	1.722696	-0.401787	-0.180574
H45	H	1.594365	-0.384824	-0.240590
H46	H	1.282422	-0.363659	-0.000087
C47	C	1.443737	-0.253641	0.268936
C48	C	1.381212	-0.203173	0.180656
H49	H	1.401911	-0.217354	0.328392
H50	H	1.441467	-0.343935	0.269974
H51	H	1.530234	-0.233839	0.268318
H52	H	1.294716	-0.222983	0.181270
H53	H	1.383469	-0.112859	0.179619
H54	H	1.060659	0.414190	0.000094
C55	C	1.763846	-0.392924	0.180486
C56	C	1.635744	-0.420179	0.180663
H57	H	1.805722	-0.429147	0.239939
H58	H	1.805246	-0.428356	0.120576
H59	H	1.767444	-0.302779	0.180839
H60	H	1.632146	-0.510324	0.180302
H61	H	1.594333	-0.384752	0.240588
C62	C	0.927154	0.443697	0.180546
C63	C	0.899918	0.315589	0.180696
H64	H	0.890891	0.485562	0.239993
H65	H	1.017284	0.447311	0.180923
H66	H	0.891736	0.485103	0.120625
H67	H	0.935344	0.274180	0.240614
H68	H	0.809770	0.311968	0.180329
H69	H	1.101511	0.078613	0.155873
C70	C	0.952229	0.254541	-0.268939
C71	C	0.899987	0.315597	-0.180632
H72	H	0.915992	0.296418	-0.328388
H73	H	1.042358	0.258168	-0.269295
H74	H	0.933745	0.167632	-0.269028
H75	H	0.918479	0.402503	-0.180539
H76	H	0.809838	0.311983	-0.180275
H77	H	0.956508	-0.037744	0.000113
H78	H	1.101739	0.078632	-0.155678
