data_functionalizedCrystal
_audit_creation_method	'MofGen! by Chris Wilmer'
_symmetry_space_group_name_H-M	'P1'
_symmetry_Int_Tables_number	1
_symmetry_cell_setting	triclinic
loop_
_symmetry_equiv_pos_as_xyz
  x,y,z
_cell_length_a	13.897449
_cell_length_b	29.839131
_cell_length_c	13.897441
_cell_angle_alpha	90.042797
_cell_angle_beta	90.020733
_cell_angle_gamma	90.036508
loop_
_atom_site_label
_atom_site_type_symbol
_atom_site_fract_x
_atom_site_fract_y
_atom_site_fract_z
Zn1	Zn	1.474585	-0.178824	0.545299
Zn2	Zn	1.974585	0.321176	1.045299
Zn3	Zn	1.474430	-0.253959	0.383966
Zn4	Zn	1.974430	0.246041	0.883966
Zn5	Zn	1.313274	-0.178845	0.384018
Zn6	Zn	1.813274	0.321155	0.884018
Zn7	Zn	1.313207	-0.253929	0.545219
Zn8	Zn	1.813207	0.246071	1.045219
O9	O	1.393874	-0.216389	0.464626
O10	O	1.893874	0.283611	0.964626
O11	O	1.609546	-0.188794	0.523910
O12	O	2.109546	0.311206	1.023910
O13	O	1.453015	-0.244016	0.248992
O14	O	1.953015	0.255984	0.748992
O15	O	1.334766	-0.115975	0.405467
O16	O	1.834766	0.384025	0.905467
O17	O	1.609432	-0.243995	0.405380
O18	O	2.109432	0.256005	0.905380
O19	O	1.453280	-0.115959	0.523960
O20	O	1.953280	0.384041	1.023960
O21	O	1.334615	-0.188830	0.249029
O22	O	1.834615	0.311170	0.749029
O23	O	1.178284	-0.188802	0.405389
O24	O	1.678284	0.311198	0.905389
O25	O	1.334650	-0.243945	0.680211
O26	O	1.834650	0.256055	1.180211
O27	O	1.178234	-0.243966	0.523823
O28	O	1.678234	0.256034	1.023823
O29	O	1.453215	-0.188765	0.680270
O30	O	1.953215	0.311235	1.180270
O31	O	1.452950	-0.316822	0.405302
O32	O	1.952950	0.183178	0.905302
O33	O	1.334500	-0.316800	0.523773
O34	O	1.834500	0.183200	1.023773
C35	C	1.143260	-0.216383	0.464604
C36	C	1.643260	0.283617	0.964604
C37	C	1.036046	-0.216391	0.464617
C38	C	1.536046	0.283609	0.964617
C39	C	0.839750	-0.216393	0.464642
C40	C	1.339750	0.283607	0.964642
C41	C	0.948983	-0.216391	0.464626
C42	C	1.448983	0.283609	0.964626
C43	C	1.393727	-0.333112	0.464544
C44	C	1.893727	0.166888	0.964544
C45	C	1.393752	-0.383046	0.464542
C46	C	1.893752	0.116954	0.964542
C47	C	1.455571	-0.692646	0.526413
C48	C	1.955571	-0.192646	1.026413
C49	C	1.455676	-0.880319	0.526471
C50	C	1.955676	-0.380319	1.026471
O51	O	1.508092	-0.904548	0.579015
O52	O	2.008092	-0.404548	1.079015
N53	N	1.394038	-0.903831	0.464733
N54	N	1.894038	-0.403831	0.964733
C55	C	1.332365	-0.880422	0.402980
C56	C	1.832365	-0.380422	0.902980
O57	O	1.279933	-0.904726	0.350476
O58	O	1.779933	-0.404726	0.850476
C59	C	1.332256	-0.692750	0.402928
C60	C	1.832256	-0.192750	0.902928
C61	C	1.393905	-0.669240	0.464663
C62	C	1.893905	-0.169240	0.964663
C63	C	1.517214	-0.669137	0.588144
C64	C	2.017214	-0.169137	1.088144
C65	C	1.517191	-0.622222	0.588125
C66	C	2.017191	-0.122222	1.088125
C67	C	1.455525	-0.598816	0.526375
C68	C	1.955525	-0.098816	1.026375
C69	C	1.393882	-0.622325	0.464644
C70	C	1.893882	-0.122325	0.964644
C71	C	1.270579	-0.669341	0.341181
C72	C	1.770579	-0.169341	0.841181
C73	C	1.270555	-0.622420	0.341175
C74	C	1.770555	-0.122420	0.841175
C75	C	1.332204	-0.598911	0.402910
C76	C	1.832204	-0.098911	0.902910
C77	C	1.332192	-0.552003	0.402876
C78	C	1.832192	-0.052003	0.902876
N79	N	1.393830	-0.528492	0.464614
N80	N	1.893830	-0.028492	0.964614
C81	C	1.455496	-0.551898	0.526364
C82	C	1.955496	-0.051898	1.026364
C83	C	1.332428	-0.978952	0.403011
C84	C	1.832428	-0.478952	0.903011
C85	C	1.332456	-1.025870	0.403022
C86	C	1.832456	-0.525870	0.903022
C87	C	1.455766	-1.025765	0.526515
C88	C	1.955766	-0.525765	1.026515
C89	C	1.455742	-0.978846	0.526497
C90	C	1.955742	-0.478846	1.026497
C91	C	1.394065	-0.955441	0.464749
C92	C	1.894065	-0.455441	0.964749
C93	C	1.455444	-0.453372	0.526319
C94	C	1.955444	0.046628	1.026319
C95	C	1.455418	-0.406452	0.526292
C96	C	1.955418	0.093548	1.026292
C97	C	1.332105	-0.406562	0.402804
C98	C	1.832105	0.093438	0.902804
C99	C	1.332134	-0.453477	0.402827
C100	C	1.832134	0.046523	0.902827
C101	C	1.393807	-0.476881	0.464592
C102	C	1.893807	0.023119	0.964592
O103	O	1.279796	-0.527746	0.350366
O104	O	1.779796	-0.027746	0.850366
O105	O	1.507905	-0.527585	0.578874
O106	O	2.007905	-0.027585	1.078874
C107	C	1.455594	-0.739562	0.526432
C108	C	1.955594	-0.239562	1.026432
C109	C	1.393951	-0.763071	0.464701
C110	C	1.893951	-0.263071	0.964701
C111	C	1.332285	-0.739665	0.402951
C112	C	1.832285	-0.239665	0.902951
C113	C	1.393979	-0.809989	0.464712
C114	C	1.893979	-0.309989	0.964712
C115	C	1.455645	-0.833395	0.526462
C116	C	1.955645	-0.333395	1.026462
C117	C	1.517283	-0.809883	0.588200
C118	C	2.017283	-0.309883	1.088200
C119	C	1.517260	-0.762968	0.588181
C120	C	2.017260	-0.262968	1.088181
C121	C	1.270647	-0.763177	0.341213
C122	C	1.770647	-0.263177	0.841213
C123	C	1.270676	-0.810092	0.341236
C124	C	1.770676	-0.310092	0.841236
C125	C	1.332342	-0.833498	0.402986
C126	C	1.832342	-0.333498	0.902986
C127	C	1.645467	-0.216395	0.464648
C128	C	2.145467	0.283605	0.964648
C129	C	1.752681	-0.216398	0.464658
C130	C	2.252681	0.283602	0.964658
C131	C	1.393942	-0.216349	0.716219
C132	C	1.893942	0.283651	1.216219
C133	C	1.393971	-0.216332	0.823433
C134	C	1.893971	0.283668	1.323433
C135	C	1.394048	-0.099211	0.464728
C136	C	1.894048	0.400789	0.964728
C137	C	1.394122	-0.049276	0.464772
C138	C	1.894122	0.450724	0.964772
C139	C	1.393861	-0.216396	0.214011
C140	C	1.893861	0.283604	0.714011
C141	C	1.394019	-0.216287	0.106798
C142	C	1.894019	0.283713	0.606798
C143	C	1.393998	-0.216302	1.019728
C144	C	1.893998	0.283698	1.519728
C145	C	1.393980	-0.216320	0.910495
C146	C	1.893980	0.283680	1.410495
H147	H	1.505623	-0.387312	0.576564
H148	H	2.005623	0.112688	1.076564
C149	C	1.215746	-0.550546	0.286313
C150	C	1.715746	-0.050546	0.786313
C151	C	1.202758	-0.596693	0.273297
C152	C	1.702758	-0.096693	0.773297
H153	H	1.173888	-0.534665	0.244411
H154	H	1.673888	-0.034665	0.744411
H155	H	1.280550	-0.542838	0.272245
H156	H	1.780550	-0.042838	0.772245
H157	H	1.201592	-0.542839	0.351111
H158	H	1.701592	-0.042839	0.851111
H159	H	1.216920	-0.604401	0.208501
H160	H	1.716920	-0.104401	0.708501
H161	H	1.137940	-0.604404	0.287358
H162	H	1.637940	-0.104404	0.787358
H163	H	1.281942	-0.472620	0.352549
H164	H	1.781942	0.027380	0.852549
H165	H	1.281900	-0.387497	0.352524
H166	H	1.781900	0.112503	0.852524
H167	H	1.567460	-0.743830	0.638452
H168	H	2.067460	-0.243830	1.138452
C169	C	1.572054	-0.881763	0.643052
C170	C	2.072054	-0.381763	1.143052
C171	C	1.585064	-0.835618	0.656081
C172	C	2.085064	-0.335618	1.156081
H173	H	1.613891	-0.897650	0.684964
H174	H	2.113891	-0.397650	1.184964
H175	H	1.586216	-0.889469	0.578265
H176	H	2.086216	-0.389469	1.078265
H177	H	1.507234	-0.889464	0.657108
H178	H	2.007234	-0.389464	1.157108
H179	H	1.649883	-0.827916	0.642019
H180	H	2.149883	-0.327916	1.142019
H181	H	1.570910	-0.827909	0.720883
H182	H	2.070910	-0.327909	1.220883
C183	C	1.148672	-0.664712	0.219141
C184	C	1.648672	-0.164712	0.719141
C185	C	1.202803	-0.695174	0.273326
C186	C	1.702803	-0.195174	0.773326
H187	H	1.106823	-0.680661	0.177253
H188	H	1.606823	-0.180661	0.677253
H189	H	1.190710	-0.646414	0.182275
H190	H	1.690710	-0.146414	0.682275
H191	H	1.111760	-0.646408	0.261149
H192	H	1.611760	-0.146408	0.761149
H193	H	1.239722	-0.713476	0.231317
H194	H	1.739722	-0.213476	0.731317
H195	H	1.160760	-0.713480	0.310194
H196	H	1.660760	-0.213480	0.810194
C197	C	1.468816	-0.506065	0.656119
C198	C	1.968816	-0.006065	1.156119
C199	C	1.523235	-0.479094	0.594209
C200	C	2.023235	0.020906	1.094209
H201	H	1.510671	-0.521943	0.698031
H202	H	2.010671	-0.021943	1.198031
H203	H	1.432121	-0.526783	0.619360
H204	H	1.932121	-0.026783	1.119360
H205	H	1.426762	-0.487759	0.692966
H206	H	1.926762	0.012241	1.192966
H207	H	1.565284	-0.497401	0.557356
H208	H	2.065284	0.002599	1.057356
H209	H	1.559947	-0.458374	0.630972
H210	H	2.059947	0.041626	1.130972
H211	H	1.220475	-0.829229	0.290955
H212	H	1.720475	-0.329229	0.790955
H213	H	1.220430	-0.744123	0.290930
H214	H	1.720430	-0.244123	0.790930
C215	C	1.210556	-0.983780	0.280934
C216	C	1.710556	-0.483780	0.780934
C217	C	1.264638	-0.953229	0.335119
C218	C	1.764638	-0.453229	0.835119
H219	H	1.168713	-0.967900	0.239015
H220	H	1.668713	-0.467900	0.739015
H221	H	1.173647	-1.002075	0.322934
H222	H	1.673647	-0.502075	0.822934
H223	H	1.252632	-1.002078	0.244095
H224	H	1.752632	-0.502078	0.744095
H225	H	1.222561	-0.934933	0.371965
H226	H	1.722561	-0.434933	0.871965
H227	H	1.301549	-0.934926	0.293115
H228	H	1.801549	-0.434926	0.793115
C229	C	1.639070	-0.626845	0.710195
C230	C	2.139070	-0.126845	1.210195
C231	C	1.584950	-0.596384	0.655995
C232	C	2.084950	-0.096384	1.155995
H233	H	1.680897	-0.610895	0.752102
H234	H	2.180897	-0.110895	1.252102
H235	H	1.675996	-0.645144	0.668204
H236	H	2.175996	-0.145144	1.168204
H237	H	1.597016	-0.645148	0.747049
H238	H	2.097016	-0.145148	1.247049
H239	H	1.627003	-0.578083	0.619136
H240	H	2.127003	-0.078083	1.119136
H241	H	1.548021	-0.578077	0.697992
H242	H	2.048021	-0.078077	1.197992
C243	C	1.530602	-0.721834	0.717939
C244	C	2.030602	-0.221834	1.217939
C245	C	1.585008	-0.694859	0.656026
C246	C	2.085008	-0.194859	1.156026
H247	H	1.572465	-0.737709	0.759848
H248	H	2.072465	-0.237709	1.259848
H249	H	1.493912	-0.742555	0.681182
H250	H	1.993912	-0.242555	1.181182
H251	H	1.488544	-0.703531	0.754788
H252	H	1.988544	-0.203531	1.254788
H253	H	1.627062	-0.713163	0.619171
H254	H	2.127062	-0.213163	1.119171
H255	H	1.621715	-0.674137	0.692787
H256	H	2.121715	-0.174137	1.192787
C257	C	1.202739	-1.078689	0.389514
C258	C	1.702739	-0.578689	0.889514
C259	C	1.264695	-1.051709	0.335157
C260	C	1.764695	-0.551709	0.835157
H261	H	1.160906	-1.094640	0.347617
H262	H	1.660906	-0.594640	0.847617
H263	H	1.165820	-1.060383	0.431498
H264	H	1.665820	-0.560383	0.931498
H265	H	1.239478	-1.099346	0.426282
H266	H	1.739478	-0.599346	0.926282
H267	H	1.227956	-1.031049	0.298394
H268	H	1.727956	-0.531049	0.798394
H269	H	1.301618	-1.070016	0.293156
H270	H	1.801618	-0.570016	0.793156
H271	H	1.505978	-1.044830	0.576793
H272	H	2.005978	-0.544830	1.076793
C273	C	1.577622	-0.983465	0.648568
C274	C	2.077622	-0.483465	1.148568
C275	C	1.523496	-0.953007	0.594369
C276	C	2.023496	-0.453007	1.094369
H277	H	1.619445	-0.967514	0.690476
H278	H	2.119445	-0.467514	1.190476
H279	H	1.614553	-1.001762	0.606576
H280	H	2.114553	-0.501762	1.106576
H281	H	1.535573	-1.001771	0.685420
H282	H	2.035573	-0.501771	1.185420
H283	H	1.565545	-0.934703	0.557511
H284	H	2.065545	-0.434703	1.057511
H285	H	1.486562	-0.934702	0.636366
H286	H	1.986562	-0.434702	1.136366
