data_functionalizedCrystal
_audit_creation_method	'MofGen! by Chris Wilmer'
_symmetry_space_group_name_H-M	'P1'
_symmetry_Int_Tables_number	1
_symmetry_cell_setting	triclinic
loop_
_symmetry_equiv_pos_as_xyz
  x,y,z
_cell_length_a	17.699104
_cell_length_b	11.792240
_cell_length_c	16.176319
_cell_angle_alpha	89.990074
_cell_angle_beta	90.008289
_cell_angle_gamma	96.257533
loop_
_atom_site_label
_atom_site_type_symbol
_atom_site_fract_x
_atom_site_fract_y
_atom_site_fract_z
O1	O	1.004835	-0.143629	0.068780
O2	O	0.784558	-0.162278	0.068781
O3	O	0.900042	0.012281	0.068755
O4	O	0.889351	-0.318187	0.068806
O5	O	0.900025	0.012271	-0.068738
O6	O	0.784541	-0.162287	-0.068713
O7	O	1.004818	-0.143639	-0.068713
Cu8	Cu	0.894678	-0.152964	-0.081267
Cu9	Cu	0.894698	-0.152953	0.081335
O10	O	0.889334	-0.318197	-0.068688
C11	C	0.756349	-0.161610	0.000034
C12	C	0.672321	-0.159593	0.000033
C13	C	0.899362	0.054559	0.000004
C14	C	0.897352	0.180549	-0.000010
C15	C	0.147936	-0.250682	0.000055
C16	C	0.226890	-0.252570	0.000058
C17	C	0.274961	-0.150098	0.000042
C18	C	0.244075	-0.045731	0.000032
C19	C	0.165122	-0.043844	0.000035
C20	C	0.562481	-0.053338	0.000020
C21	C	0.641439	-0.055233	0.000014
C22	C	0.624249	-0.262065	0.000042
C23	C	0.545296	-0.260178	0.000046
C24	C	0.514417	-0.155811	0.000040
C25	C	0.428806	-0.153765	0.000039
C26	C	0.360570	-0.152143	0.000037
C27	C	0.893656	0.411217	-0.000023
C28	C	0.895709	0.282856	-0.000016
C29	C	1.033027	-0.144306	0.000036
C30	C	1.117055	-0.146323	0.000043
C31	C	0.890014	0.639525	0.000036
C32	C	0.892024	0.513535	-0.000032
N33	N	0.894669	-0.152971	-0.195632
C34	C	0.945856	-0.075670	-0.761026
C35	C	0.945853	-0.075678	-0.674479
C36	C	0.894703	-0.152947	-0.631207
C37	C	0.843557	-0.230222	-0.674488
C38	C	0.843565	-0.230219	-0.761033
C39	C	0.843527	-0.230238	-0.325459
C40	C	0.843521	-0.230233	-0.238908
C41	C	0.945815	-0.075697	-0.238905
C42	C	0.945822	-0.075693	-0.325450
C43	C	0.894680	-0.152972	-0.368723
C44	C	0.894685	-0.152964	-0.462567
C45	C	0.894693	-0.152951	-0.537365
N46	N	0.894713	-0.152936	0.195700
H47	H	0.108801	-0.334127	0.000062
H48	H	0.649399	-0.347045	0.000051
H49	H	0.801884	-0.293159	-0.360685
O50	O	1.000990	0.007647	-0.372125
H51	H	1.037962	-0.040073	-0.411544
H52	H	0.139981	0.041136	0.000027
H53	H	0.801920	-0.293139	-0.796266
O54	O	0.788341	-0.313573	-0.192238
H55	H	0.796921	-0.300574	-0.124788
H56	H	0.801912	-0.293142	-0.639251
H57	H	0.987498	-0.012762	-0.639245
O58	O	0.529190	0.059231	0.000003
H59	H	0.493649	0.065059	0.056048
H60	H	0.680578	0.028218	0.000003
H61	H	0.283221	0.037704	0.000024
O62	O	0.260200	-0.365128	0.000052
H63	H	0.213509	-0.436066	0.000046
O64	O	0.493446	-0.370700	0.000063
H65	H	0.528184	-0.443587	0.000080
O66	O	1.001031	0.007663	-0.807696
H67	H	1.036600	0.061379	-0.763061
H68	H	0.987460	-0.012776	-0.203663
