data_functionalizedCrystal
_audit_creation_method	'MofGen! by Chris Wilmer'
_symmetry_space_group_name_H-M	'P1'
_symmetry_Int_Tables_number	1
_symmetry_cell_setting	triclinic
loop_
_symmetry_equiv_pos_as_xyz
  x,y,z
_cell_length_a	8.597226
_cell_length_b	8.559649
_cell_length_c	7.088929
_cell_angle_alpha	84.655815
_cell_angle_beta	91.337861
_cell_angle_gamma	102.373960
loop_
_atom_site_label
_atom_site_type_symbol
_atom_site_fract_x
_atom_site_fract_y
_atom_site_fract_z
O1	O	-1.998325	0.287665	-0.488219
O2	O	-1.547617	0.298375	-0.413964
O3	O	-1.812679	0.061715	-0.457632
O4	O	-1.733263	0.524325	-0.444552
O5	O	-1.848111	0.030014	-0.145494
O6	O	-1.583049	0.266674	-0.101826
O7	O	-2.033757	0.255964	-0.176081
Cu8	Cu	-1.811638	0.258424	-0.110453
Cu9	Cu	-1.769736	0.295914	-0.479592
O10	O	-1.768695	0.492624	-0.132414
C11	C	-1.508167	0.279605	-0.248477
C12	C	-1.337832	0.270889	-0.220414
C13	C	-1.836413	-0.013469	-0.302558
C14	C	-1.854326	-0.190263	-0.305520
C15	C	-1.073209	0.274729	-0.341564
C16	C	-1.243549	0.283431	-0.369612
C17	C	-1.744961	0.567807	-0.287492
C18	C	-1.727046	0.744603	-0.284542
N19	N	-1.841121	0.232055	0.149178
N20	N	-1.740267	0.322271	-0.739226
H21	H	-1.288234	0.253500	-0.071221
H22	H	-1.293148	0.300839	-0.518815
Cl23	Cl	-1.537638	-0.132676	-0.253332
H24	H	-1.977011	-0.269762	-0.325717
H25	H	-1.635744	0.415761	0.196348
Cl26	Cl	-2.002523	0.087720	0.248648
