data_functionalizedCrystal
_audit_creation_method	'MofGen! by Chris Wilmer'
_symmetry_space_group_name_H-M	'P1'
_symmetry_Int_Tables_number	1
_symmetry_cell_setting	triclinic
loop_
_symmetry_equiv_pos_as_xyz
  x,y,z
_cell_length_a	10.686220
_cell_length_b	12.594516
_cell_length_c	12.594517
_cell_angle_alpha	90.001327
_cell_angle_beta	85.632607
_cell_angle_gamma	94.397503
loop_
_atom_site_label
_atom_site_type_symbol
_atom_site_fract_x
_atom_site_fract_y
_atom_site_fract_z
Zn1	Zn	1.928914	-0.298939	0.477185
Zn2	Zn	1.928856	-0.476876	0.299217
Zn3	Zn	1.717968	-0.312582	0.312850
Zn4	Zn	1.717876	-0.490555	0.490785
O5	O	1.823403	-0.394738	0.395009
O6	O	2.105485	-0.311108	0.442180
O7	O	1.900895	-0.455066	0.152079
O8	O	1.746013	-0.161822	0.334664
O9	O	2.105442	-0.441838	0.311428
O10	O	1.900995	-0.151799	0.455400
O11	O	1.745957	-0.334360	0.162095
O12	O	1.541378	-0.347625	0.347851
O13	O	1.745856	-0.465153	0.637928
O14	O	1.541310	-0.478381	0.478579
O15	O	1.900906	-0.324373	0.627936
O16	O	1.900806	-0.627640	0.324615
O17	O	1.745800	-0.637691	0.465359
C18	C	1.495559	-0.415968	0.416171
C19	C	1.355306	-0.425077	0.425249
C20	C	1.823321	-0.671284	0.395004
C21	C	1.823401	-0.789585	0.395030
C22	C	1.739085	-0.864343	0.471531
C23	C	1.708379	-0.937157	0.376393
C24	C	1.854222	-0.927563	0.490178
C25	C	1.792634	-0.860844	0.299844
C26	C	1.938530	-0.851240	0.413691
C27	C	1.907868	-0.924019	0.318483
C28	C	2.152528	-0.373425	0.373766
C29	C	2.292781	-0.364343	0.364713
C30	C	1.823377	-0.394767	0.672632
C31	C	1.823366	-0.394779	0.790938
C32	C	1.823521	-0.117110	0.395035
C33	C	1.823571	0.001199	0.395047
C34	C	1.739034	-0.471339	0.865626
C35	C	1.854144	-0.489915	0.928976
C36	C	1.708262	-0.376231	0.938386
C37	C	1.938537	-0.413401	0.852726
C38	C	1.792578	-0.299677	0.862135
C39	C	1.907767	-0.318211	0.925448
C40	C	1.823402	-0.394743	1.118468
C41	C	1.823359	-0.394760	1.000166
H42	H	1.346549	-0.305380	0.305941
C43	C	1.844449	-0.110809	0.854008
C44	C	1.757370	-0.191155	0.822374
H45	H	1.822695	-0.043813	0.829465
H46	H	1.926271	-0.123883	0.824525
H47	H	1.843418	-0.110231	0.929492
H48	H	1.758408	-0.191737	0.746889
H49	H	1.675526	-0.178077	0.851853
C50	C	2.002631	-0.230898	1.072153
C51	C	2.004129	-0.230777	0.960885
H52	H	2.062114	-0.176916	1.094028
H53	H	2.023823	-0.298271	1.096104
H54	H	1.920938	-0.217572	1.101787
H55	H	2.085819	-0.244111	0.931252
H56	H	1.982944	-0.163389	0.936923
H57	H	2.035905	-0.429174	0.815474
C58	C	1.153172	-0.498609	0.498535
C59	C	1.282725	-0.504686	0.504595
H60	H	1.108367	-0.547751	0.547525
H61	H	1.131631	-0.515457	0.428381
H62	H	1.131657	-0.428498	0.515607
H63	H	1.304241	-0.574795	0.487515
H64	H	1.304275	-0.487845	0.574765
C65	C	1.522248	-0.872372	0.538957
C66	C	1.642664	-0.828720	0.558758
H67	H	1.462722	-0.850371	0.592800
H68	H	1.521122	-0.947854	0.539152
H69	H	1.501229	-0.848477	0.471493
H70	H	1.663687	-0.852621	0.626218
H71	H	1.643793	-0.753221	0.558574
H72	H	1.611095	-0.974672	0.360626
C73	C	1.942552	-1.026045	0.159358
C74	C	2.004221	-0.959383	0.231069
H75	H	2.002034	-1.047884	0.105396
H76	H	1.880884	-0.988570	0.127840
H77	H	1.902932	-1.086901	0.196204
H78	H	2.043833	-0.898523	0.194224
H79	H	2.065911	-0.996859	0.262589
H80	H	1.880191	-0.570331	0.958400
H81	H	1.610923	-0.360550	0.975768
C82	C	1.757546	-0.710199	0.192202
C83	C	1.757372	-0.821384	0.191209
H84	H	1.735765	-0.685839	0.125139
H85	H	1.839006	-0.680025	0.205573
H86	H	1.697965	-0.689330	0.246558
H87	H	1.816960	-0.842252	0.136857
H88	H	1.675899	-0.851568	0.177825
H89	H	2.035792	-0.813729	0.429506
C90	C	1.522675	-0.540346	0.874945
C91	C	1.642881	-0.558800	0.829907
H92	H	1.463322	-0.594346	0.852897
H93	H	1.500614	-0.472840	0.852116
H94	H	1.522562	-0.541355	0.950371
H95	H	1.642996	-0.557783	0.754480
H96	H	1.664947	-0.626323	0.852730
H97	H	1.880221	-0.956937	0.570636
