data_functionalizedCrystal
_audit_creation_method	'MofGen! by Chris Wilmer'
_symmetry_space_group_name_H-M	'P1'
_symmetry_Int_Tables_number	1
_symmetry_cell_setting	triclinic
loop_
_symmetry_equiv_pos_as_xyz
  x,y,z
_cell_length_a	10.489741
_cell_length_b	10.489741
_cell_length_c	14.048226
_cell_angle_alpha	89.996252
_cell_angle_beta	90.002859
_cell_angle_gamma	95.460826
loop_
_atom_site_label
_atom_site_type_symbol
_atom_site_fract_x
_atom_site_fract_y
_atom_site_fract_z
O1	O	-0.179971	1.694057	-0.079094
O2	O	-0.196864	1.322861	-0.079108
O3	O	-0.002819	1.516906	-0.079102
O4	O	-0.374015	1.500013	-0.079099
O5	O	-0.002808	1.516882	0.079219
O6	O	-0.196852	1.322838	0.079214
O7	O	-0.179959	1.694033	0.079228
Zn8	Zn	-0.188404	1.508432	0.104358
Zn9	Zn	-0.188419	1.508463	-0.104237
O10	O	-0.374003	1.499989	0.079223
C11	C	-0.195582	1.275318	0.000051
C12	C	-0.191765	1.133688	0.000046
C13	C	-0.068300	1.065548	0.000053
C14	C	-0.126629	0.973433	-0.078005
C15	C	-0.126647	0.973444	0.078088
C16	C	-0.250145	1.043439	-0.078077
C17	C	-0.250145	1.043459	0.078085
C18	C	-0.308564	0.951371	0.000008
C19	C	-0.421541	1.501277	0.000063
C20	C	-0.563170	1.505094	0.000064
C21	C	-0.631310	1.628559	0.000062
C22	C	-0.723425	1.570223	0.078119
C23	C	-0.723415	1.570218	-0.077973
C24	C	-0.653420	1.446708	0.078186
C25	C	-0.653400	1.446719	-0.077976
C26	C	-0.745487	1.388294	0.000101
C27	C	0.044718	1.515618	0.000056
C28	C	0.186348	1.511801	0.000048
C29	C	-0.181241	1.741577	0.000067
C30	C	-0.185058	1.883206	0.000066
N31	N	-0.188392	1.508420	0.246718
N32	N	-0.188420	1.508485	-0.246598
C33	C	-0.102505	1.594370	0.296539
C34	C	-0.102505	1.594379	0.396196
C35	C	-0.188398	1.508442	0.446032
C36	C	-0.274289	1.422483	0.396205
C37	C	-0.274282	1.422469	0.296549
C38	C	-0.274299	1.422520	0.603919
C39	C	-0.274307	1.422535	0.703582
C40	C	-0.102521	1.594429	0.703566
C41	C	-0.102514	1.594416	0.603911
C42	C	-0.188407	1.508457	0.554090
H43	H	-0.302349	1.074276	-0.144144
Br44	Br	0.014062	1.711023	0.463813
H45	H	-0.074394	0.942429	-0.144000
Br46	Br	-0.039535	0.921794	0.188080
Br47	Br	-0.337141	1.095193	0.188087
H48	H	-0.794911	1.286691	0.000140
Br49	Br	0.014043	1.711054	0.536273
Br50	Br	0.014040	1.711091	0.771182
H51	H	-0.622363	1.394532	-0.143976
Br52	Br	-0.548555	1.797750	0.000191
Br53	Br	-0.390881	1.305901	0.771208
Br54	Br	-0.775116	1.657277	0.188114
H55	H	-0.410168	0.901947	-0.000033
H56	H	-0.754403	1.622491	-0.143963
H57	H	-0.032567	1.664355	0.255969
H58	H	-0.622582	1.394500	0.144251
H59	H	-0.344238	1.352519	0.563358
H60	H	-0.344221	1.352505	0.436786
Br61	Br	-0.390840	1.305808	0.228935
H62	H	0.033196	1.115238	-0.000045
