data_functionalizedCrystal
_audit_creation_method	'MofGen! by Chris Wilmer'
_symmetry_space_group_name_H-M	'P1'
_symmetry_Int_Tables_number	1
_symmetry_cell_setting	triclinic
loop_
_symmetry_equiv_pos_as_xyz
  x,y,z
_cell_length_a	16.959453
_cell_length_b	19.121241
_cell_length_c	16.959447
_cell_angle_alpha	87.541091
_cell_angle_beta	89.968936
_cell_angle_gamma	92.454254
loop_
_atom_site_label
_atom_site_type_symbol
_atom_site_fract_x
_atom_site_fract_y
_atom_site_fract_z
Zn1	Zn	-0.263219	1.073744	-0.498569
Zn2	Zn	0.236781	1.573744	0.001431
Zn3	Zn	-0.395415	1.073675	-0.366386
Zn4	Zn	0.104585	1.573675	0.133614
Zn5	Zn	-0.268878	0.956299	-0.360756
Zn6	Zn	0.231122	1.456299	0.139244
Zn7	Zn	-0.400988	0.956268	-0.492875
Zn8	Zn	0.099012	1.456268	0.007125
O9	O	-0.332125	1.014996	-0.429646
O10	O	0.167875	1.514996	0.070354
O11	O	-0.276054	1.172021	-0.485774
O12	O	0.223946	1.672021	0.014226
O13	O	-0.378665	1.058089	-0.255027
O14	O	0.121335	1.558089	0.244973
O15	O	-0.157514	0.971920	-0.379064
O16	O	0.342486	1.471920	0.120936
O17	O	-0.373178	1.171970	-0.388659
O18	O	0.126822	1.671970	0.111341
O19	O	-0.153357	1.058206	-0.480315
O20	O	0.346643	1.558206	0.019685
O21	O	-0.285699	0.971853	-0.250891
O22	O	0.214301	1.471853	0.249109
O23	O	-0.291104	0.858008	-0.373542
O24	O	0.208896	1.358008	0.126458
O25	O	-0.382677	0.971867	-0.604242
O26	O	0.117323	1.471867	-0.104242
O27	O	-0.388164	0.857985	-0.470610
O28	O	0.111836	1.357985	0.029390
O29	O	-0.281459	1.058176	-0.608426
O30	O	0.218541	1.558176	-0.108426
O31	O	-0.506767	1.058059	-0.383138
O32	O	-0.006767	1.558059	0.116862
O33	O	-0.510862	0.971800	-0.476069
O34	O	-0.010862	1.471800	0.023931
C35	C	-0.340853	0.832512	-0.420848
C36	C	0.159147	1.332512	0.079152
C37	C	-0.344606	0.754445	-0.417102
C38	C	0.155394	1.254445	0.082898
C39	C	-0.295883	0.717796	-0.465983
C40	C	0.204117	1.217796	0.034017
C41	C	-0.299405	0.644443	-0.462457
C42	C	0.200595	1.144443	0.037543
C43	C	-0.351656	0.607741	-0.410054
C44	C	0.148344	1.107741	0.089946
C45	C	-0.400382	0.644395	-0.361169
C46	C	0.099618	1.144395	0.138831
C47	C	-0.396855	0.717747	-0.364691
C48	C	0.103145	1.217747	0.135309
C49	C	-0.364828	0.386266	-0.396881
C50	C	0.135172	0.886266	0.103119
C51	C	-0.368353	0.312910	-0.393364
C52	C	0.131647	0.812910	0.106636
C53	C	-0.267375	0.312962	-0.494651
C54	C	0.232625	0.812962	0.005349
C55	C	-0.263856	0.386315	-0.498173
C56	C	0.236144	0.886315	0.001827
C57	C	-0.312579	0.422963	-0.449284
C58	C	0.187421	0.922963	0.050716
C59	C	-0.355260	0.532763	-0.406450
C60	C	0.144740	1.032763	0.093550
C61	C	-0.308970	0.497940	-0.452884
C62	C	0.191030	0.997940	0.047116
C63	C	-0.537494	1.014938	-0.429615
C64	C	-0.037494	1.514938	0.070385
C65	C	-0.625349	1.014977	-0.429631
C66	C	-0.125349	1.514977	0.070369
C67	C	-0.994597	1.059983	-0.482466
C68	C	-0.494597	1.559983	0.017534
C69	C	-0.999040	0.970206	-0.376954
C70	C	-0.499040	1.470206	0.123046
C71	C	-0.916496	0.970180	-0.376934
C72	C	-0.416496	1.470180	0.123066
C73	C	-0.872998	1.015055	-0.429682
C74	C	-0.372998	1.515055	0.070318
C75	C	-0.912045	1.059957	-0.482450
C76	C	-0.412045	1.559957	0.017550
C77	C	-0.877443	0.925274	-0.324173
C78	C	-0.377443	1.425274	0.175827
C79	C	-0.794893	0.925246	-0.324152
C80	C	-0.294893	1.425246	0.175848
C81	C	-0.751394	0.970125	-0.376897
C82	C	-0.251394	1.470125	0.123103
C83	C	-0.790446	1.015029	-0.429666
C84	C	-0.290446	1.515029	0.070334
C85	C	-0.746948	1.059905	-0.482414
C86	C	-0.246948	1.559905	0.017586
C87	C	-0.785998	1.104813	-0.535180
C88	C	-0.285998	1.604813	-0.035180
C89	C	-0.868546	1.104837	-0.535195
C90	C	-0.368546	1.604837	-0.035195
C91	C	-0.668846	0.970101	-0.376882
C92	C	-0.168846	1.470101	0.123118
C93	C	-0.664396	1.059879	-0.482398
C94	C	-0.164396	1.559879	0.017602
C95	C	-0.125953	1.015074	-0.429697
C96	C	0.374047	1.515074	0.070303
C97	C	-0.038095	1.015107	-0.429718
C98	C	0.461905	1.515107	0.070282
C99	C	-0.332058	1.015026	-0.635816
C100	C	0.167942	1.515026	-0.135816
C101	C	-0.332030	1.015038	-0.723673
C102	C	0.167970	1.515038	-0.223673
C103	C	-0.323363	1.198193	-0.438480
C104	C	0.176637	1.698193	0.061520
C105	C	-0.319629	1.276260	-0.442244
C106	C	0.180371	1.776260	0.057756
C107	C	-0.384642	0.970185	-1.092978
C108	C	0.115358	1.470185	-0.592978
C109	C	-0.279243	1.060059	-1.097329
C110	C	0.220757	1.560059	-0.597329
C111	C	-0.279260	1.060040	-1.014782
C112	C	0.220740	1.560040	-0.514782
C113	C	-0.331970	1.015094	-0.971329
C114	C	0.168030	1.515094	-0.471329
C115	C	-0.384663	0.970166	-1.010423
C116	C	0.115337	1.470166	-0.510423
C117	C	-0.226574	1.104972	-0.975682
C118	C	0.273426	1.604972	-0.475682
C119	C	-0.226590	1.104956	-0.893130
C120	C	0.273410	1.604956	-0.393130
C121	C	-0.279297	1.060006	-0.849676
C122	C	0.220703	1.560006	-0.349676
C123	C	-0.331991	1.015075	-0.888775
C124	C	0.168009	1.515075	-0.388775
C125	C	-0.384701	0.970129	-0.845322
C126	C	0.115299	1.470129	-0.345322
C127	C	-0.437392	0.925195	-0.884419
C128	C	0.062608	1.425195	-0.384419
C129	C	-0.437370	0.925215	-0.966968
C130	C	0.062630	1.425215	-0.466968
C131	C	-0.279320	1.059985	-0.767126
C132	C	0.220680	1.559985	-0.267126
C133	C	-0.384722	0.970110	-0.762767
C134	C	0.115278	1.470110	-0.262767
C135	C	-0.332133	1.015008	-0.224281
C136	C	0.167867	1.515008	0.275719
C137	C	-0.331932	1.015131	-0.136430
C138	C	0.168068	1.515131	0.363570
H139	H	-0.253337	0.747673	-0.508656
H140	H	0.246663	1.247673	-0.008656
C141	C	-0.495330	0.875798	-1.009973
C142	C	0.004670	1.375798	-0.509973
H143	H	-0.526722	0.849021	-0.972273
H144	H	-0.026722	1.349021	-0.472273
H145	H	-0.528476	0.902663	-1.043455
H146	H	-0.028476	1.402663	-0.543455
H147	H	-0.466545	0.845212	-1.040715
H148	H	0.033455	1.345212	-0.540715
H149	H	-0.236333	1.096656	-1.132713
H150	H	0.263667	1.596656	-0.632713
C151	C	-1.037544	1.109381	-0.540503
C152	C	-0.537544	1.609381	-0.040503
H153	H	-0.999813	1.136106	-0.571910
H154	H	-0.499813	1.636106	-0.071910
H155	H	-1.071035	1.082510	-0.573630
H156	H	-0.571035	1.582510	-0.073630
H157	H	-1.068270	1.140016	-0.511769
H158	H	-0.568270	1.640016	-0.011769
H159	H	-0.427539	0.933598	-1.124814
H160	H	0.072461	1.433598	-0.624814
H161	H	-0.183665	1.141570	-1.011068
H162	H	0.316335	1.641570	-0.511068
C163	C	-0.616551	1.109242	-0.540420
C164	C	-0.116551	1.609242	-0.040420
H165	H	-0.561795	1.102799	-0.532852
H166	H	-0.061795	1.602799	-0.032852
H167	H	-0.630545	1.098941	-0.593025
H168	H	-0.130545	1.598941	-0.093025
H169	H	-0.627787	1.156447	-0.531164
H170	H	-0.127787	1.656447	-0.031164
C171	C	-0.911498	1.154229	-0.593233
C172	C	-0.411498	1.654229	-0.093233
H173	H	-0.873772	1.180958	-0.624641
H174	H	-0.373772	1.680958	-0.124641
H175	H	-0.944985	1.127352	-0.626358
H176	H	-0.444985	1.627352	-0.126358
H177	H	-0.942230	1.184860	-0.564501
H178	H	-0.442230	1.684860	-0.064501
H179	H	-1.034461	0.933667	-0.334012
H180	H	-0.534461	1.433667	0.165988
C181	C	-0.925289	0.875920	-0.266151
C182	C	-0.425289	1.375920	0.233849
H183	H	-0.980043	0.882376	-0.273711
H184	H	-0.480043	1.382376	0.226289
H185	H	-0.914059	0.828716	-0.275392
H186	H	-0.414059	1.328716	0.224608
H187	H	-0.911292	0.886234	-0.213546
H188	H	-0.411292	1.386234	0.286454
C189	C	-0.450457	0.758061	-0.310930
C190	C	0.049543	1.258061	0.189070
H191	H	-0.482087	0.725698	-0.279222
H192	H	0.017913	1.225698	0.220778
H193	H	-0.418806	0.786673	-0.277917
H194	H	0.081194	1.286673	0.222083
H195	H	-0.483560	0.786676	-0.342487
H196	H	0.016440	1.286676	0.157513
C197	C	-0.751941	0.875853	-0.266113
C198	C	-0.251941	1.375853	0.233887
H199	H	-0.696549	0.882261	-0.273659
H200	H	-0.196549	1.382261	0.226341
H201	H	-0.765008	0.886165	-0.213514
H202	H	-0.265008	1.386165	0.286486
H203	H	-0.767759	0.828657	-0.275372
H204	H	-0.267759	1.328657	0.224628
C205	C	-0.206373	0.426682	-0.555808
C206	C	0.293627	0.926682	-0.055808
H207	H	-0.177853	0.394349	-0.584409
H208	H	0.322147	0.894349	-0.084409
H209	H	-0.235271	0.455304	-0.591569
H210	H	0.264729	0.955304	-0.091569
H211	H	-0.170519	0.455290	-0.526997
H212	H	0.329481	0.955290	-0.026997
H213	H	-0.266425	0.527826	-0.495547
H214	H	0.233575	1.027826	0.004453
H215	H	-0.637056	0.933535	-0.333925
H216	H	-0.137056	1.433535	0.166075
C217	C	-0.442715	0.920678	-0.714976
C218	C	0.057285	1.420678	-0.214976
H219	H	-0.474097	0.893929	-0.750085
H220	H	0.025903	1.393929	-0.250085
H221	H	-0.413962	0.890078	-0.681300
H222	H	0.086038	1.390078	-0.181300
H223	H	-0.475881	0.947539	-0.684065
H224	H	0.024119	1.447539	-0.184065
H225	H	-0.397803	0.502872	-0.363784
H226	H	0.102197	1.002872	0.136216
H227	H	-0.480312	0.888602	-0.849029
H228	H	0.019688	1.388602	-0.349029
C229	C	-0.221371	1.109406	-0.724119
C230	C	0.278629	1.609406	-0.224119
H231	H	-0.228934	1.102961	-0.668732
H232	H	0.271066	1.602961	-0.168732
H233	H	-0.168748	1.099157	-0.737171
H234	H	0.331252	1.599157	-0.237171
H235	H	-0.230690	1.156597	-0.739913
H236	H	0.269310	1.656597	-0.239913
H237	H	-0.183686	1.141544	-0.861305
H238	H	0.316314	1.641544	-0.361305
C239	C	-0.245811	0.604132	-0.516226
C240	C	0.254189	1.104132	-0.016226
H241	H	-0.214194	0.636496	-0.547946
H242	H	0.285806	1.136496	-0.047946
H243	H	-0.212706	0.575516	-0.484679
H244	H	0.287294	1.075516	0.015321
H245	H	-0.277471	0.575522	-0.549240
H246	H	0.222529	1.075522	-0.049240
C247	C	-0.213781	0.272651	-0.548422
C248	C	0.286219	0.772651	-0.048422
H249	H	-0.182162	0.305016	-0.580139
H250	H	0.317838	0.805016	-0.080139
H251	H	-0.180679	0.244032	-0.516876
H252	H	0.319321	0.744032	-0.016876
H253	H	-0.245442	0.244045	-0.581439
H254	H	0.254558	0.744045	-0.081439
C255	C	-0.425830	0.272538	-0.335717
C256	C	0.074170	0.772538	0.164283
H257	H	-0.454338	0.304870	-0.307101
H258	H	0.045662	0.804870	0.192899
H259	H	-0.461684	0.243929	-0.364520
H260	H	0.038316	0.743929	0.135480
H261	H	-0.396920	0.243917	-0.299958
H262	H	0.103080	0.743917	0.200042
H263	H	-0.404502	0.416096	-0.357074
H264	H	0.095498	0.916096	0.142926
H265	H	-0.750573	1.141348	-0.578131
H266	H	-0.250573	1.641348	-0.078131
C267	C	-0.457857	0.604025	-0.303528
C268	C	0.042143	1.104025	0.196472
H269	H	-0.452987	0.555091	-0.308436
H270	H	0.047013	1.055091	0.191564
H271	H	-0.445649	0.616031	-0.251016
H272	H	0.054351	1.116031	0.248984
H273	H	-0.510405	0.616043	-0.315585
H274	H	-0.010405	1.116043	0.184415
