data_functionalizedCrystal
_audit_creation_method	'MofGen! by Chris Wilmer'
_symmetry_space_group_name_H-M	'P1'
_symmetry_Int_Tables_number	1
_symmetry_cell_setting	triclinic
loop_
_symmetry_equiv_pos_as_xyz
  x,y,z
_cell_length_a	19.121102
_cell_length_b	19.805405
_cell_length_c	19.805399
_cell_angle_alpha	90.028055
_cell_angle_beta	87.542719
_cell_angle_gamma	92.412596
loop_
_atom_site_label
_atom_site_type_symbol
_atom_site_fract_x
_atom_site_fract_y
_atom_site_fract_z
Zn1	Zn	1.073672	0.313691	-0.426785
Zn2	Zn	1.073570	0.426876	-0.313592
Zn3	Zn	0.956224	0.308874	-0.308789
Zn4	Zn	0.956173	0.422005	-0.421920
O5	O	1.014910	0.367861	-0.367771
O6	O	1.171943	0.332760	-0.415816
O7	O	1.057983	0.411244	-0.218237
O8	O	0.971869	0.214799	-0.324468
O9	O	1.171868	0.415916	-0.332653
O10	O	1.058157	0.218338	-0.411159
O11	O	0.971769	0.324549	-0.214709
O12	O	0.857934	0.319826	-0.319750
O13	O	0.971780	0.407615	-0.517283
O14	O	0.857896	0.402944	-0.402867
O15	O	1.058107	0.328037	-0.520857
O16	O	1.057933	0.520943	-0.327935
O17	O	0.971681	0.517365	-0.407524
C18	C	0.832431	0.360334	-0.360260
C19	C	0.754366	0.357130	-0.357062
C20	C	0.717689	0.398965	-0.398767
C21	C	0.644338	0.395946	-0.395766
C22	C	0.607666	0.351095	-0.351056
C23	C	0.644347	0.309255	-0.309351
C24	C	0.717697	0.312272	-0.312355
C25	C	0.386198	0.339816	-0.339825
C26	C	0.312844	0.336804	-0.336822
C27	C	0.312839	0.423494	-0.423238
C28	C	0.386190	0.426509	-0.426236
C29	C	0.422866	0.384668	-0.384533
C30	C	0.532689	0.348009	-0.347986
C31	C	0.497840	0.387750	-0.387607
C32	C	1.014809	0.543713	-0.367738
C33	C	1.014831	0.618946	-0.367749
C34	C	1.059730	0.656074	-0.412921
C35	C	1.059747	0.726763	-0.412933
C36	C	1.014868	0.760323	-0.367769
C37	C	0.969963	0.723190	-0.322595
C38	C	0.969943	0.652502	-0.322587
C39	C	0.970043	1.008267	-0.322625
C40	C	0.970068	1.078960	-0.322635
C41	C	1.059847	1.082528	-0.412971
C42	C	1.059827	1.011840	-0.412964
C43	C	1.014920	0.974713	-0.367792
C44	C	1.014901	0.898064	-0.367781
C45	C	1.014890	0.836971	-0.367776
C46	C	1.198101	0.375419	-0.375313
C47	C	1.276167	0.378639	-0.378526
C48	C	1.014949	0.367820	-0.544316
C49	C	1.014966	0.367803	-0.619548
C50	C	1.015001	1.191322	-0.367813
C51	C	1.014964	1.116089	-0.367811
C52	C	1.059917	0.326365	-0.656755
C53	C	1.059925	0.326345	-0.727444
C54	C	1.014984	0.367768	-0.760925
C55	C	0.970027	0.409208	-0.723713
C56	C	0.970017	0.409224	-0.653026
C57	C	0.970067	0.409147	-1.008788
C58	C	0.970082	0.409130	-1.079481
C59	C	1.059974	0.326269	-1.083206
C60	C	1.059964	0.326284	-1.012519
C61	C	1.015006	0.367721	-0.975313
C62	C	1.014998	0.367740	-0.898664
C63	C	1.014995	0.367753	-0.837572
C64	C	1.014911	0.367855	-0.191915
C65	C	1.015030	0.367688	-0.116689
H66	H	0.614479	0.430013	-0.429725
C67	C	1.109104	0.619164	-0.462605
N68	N	1.146291	0.591366	-0.500030
H69	H	1.096562	0.292555	-0.985262
C70	C	0.920568	0.454810	-0.612099
N71	N	0.883321	0.489146	-0.581274
H72	H	0.933433	0.442933	-0.750979
C73	C	1.109376	0.280761	-0.768368
N74	N	1.146625	0.246425	-0.799191
C75	C	0.758022	0.448306	-0.447951
N76	N	0.788399	0.485469	-0.484999
H77	H	1.096315	0.756990	-0.449711
C78	C	0.920627	0.967436	-0.272950
N79	N	0.883399	0.936679	-0.235538
H80	H	0.933469	0.442898	-0.978504
H81	H	0.282987	0.300273	-0.300418
C82	C	0.920550	0.611662	-0.272894
N83	N	0.883345	0.580902	-0.235465
H84	H	0.416044	0.463034	-0.462642
H85	H	0.933518	1.106283	-0.285856
C86	C	1.109202	0.974928	-0.462643
N87	N	1.146392	0.947126	-0.500064
C88	C	0.272491	0.469512	-0.469114
N89	N	0.242100	0.504172	-0.503672
C90	C	0.426531	0.293792	-0.293945
N91	N	0.456913	0.259126	-0.259385
H92	H	0.614483	0.272734	-0.272950
C93	C	1.109422	0.280678	-1.124138
N94	N	1.146664	0.246339	-1.154967
C95	C	0.758041	0.266251	-0.266476
N96	N	0.788427	0.231586	-0.231919
H97	H	0.933483	0.442863	-1.106739
H98	H	1.096410	1.112765	-0.449754
C99	C	0.920637	0.760111	-0.272874
N100	N	0.883502	0.787920	-0.235408
C101	C	0.538183	0.437087	-0.436784
N102	N	0.568575	0.474251	-0.473821
H103	H	0.502822	0.311492	-0.311583
C104	C	1.109356	0.280795	-0.619932
N105	N	1.146593	0.246467	-0.592199
