data_functionalizedCrystal
_audit_creation_method	'MofGen! by Chris Wilmer'
_symmetry_space_group_name_H-M	'P1'
_symmetry_Int_Tables_number	1
_symmetry_cell_setting	triclinic
loop_
_symmetry_equiv_pos_as_xyz
  x,y,z
_cell_length_a	10.654550
_cell_length_b	10.489741
_cell_length_c	9.130313
_cell_angle_alpha	89.999004
_cell_angle_beta	89.996220
_cell_angle_gamma	84.512038
loop_
_atom_site_label
_atom_site_type_symbol
_atom_site_fract_x
_atom_site_fract_y
_atom_site_fract_z
O1	O	1.667918	0.179156	-0.121919
O2	O	1.302447	0.196226	-0.121895
O3	O	1.493499	0.002089	-0.121899
O4	O	1.476867	0.373293	-0.121915
O5	O	1.493497	0.002094	0.121700
O6	O	1.302445	0.196231	0.121703
O7	O	1.667916	0.179161	0.121680
Cu8	Cu	1.485180	0.187697	0.143934
Cu9	Cu	1.485183	0.187690	-0.144150
O10	O	1.476864	0.373298	0.121683
C11	C	1.255648	0.194975	-0.000093
C12	C	1.116203	0.191225	-0.000084
C13	C	1.492241	-0.045439	-0.000100
C14	C	1.488483	-0.187067	-0.000103
C15	C	1.036771	0.305530	-0.000110
C16	C	0.905748	0.301999	-0.000135
C17	C	0.933603	0.069849	-0.000114
C18	C	1.064623	0.073381	-0.000078
C19	C	1.020688	0.439560	-0.000129
C20	C	0.889665	0.436029	-0.000154
C21	C	1.366923	-0.255148	-0.000106
C22	C	1.424346	-0.347296	0.119997
C23	C	1.424377	-0.347276	-0.120172
C24	C	1.545956	-0.277349	0.120099
C25	C	1.545970	-0.277320	-0.120178
C26	C	1.603481	-0.369440	-0.000045
C27	C	1.714715	0.180412	-0.000126
C28	C	1.854160	0.184162	-0.000145
C29	C	1.478122	0.420826	-0.000118
C30	C	1.481880	0.562454	-0.000126
N31	N	1.485187	0.187700	0.346557
N32	N	1.485186	0.187677	-0.346772
C33	C	1.569807	0.101766	0.423207
C34	C	1.569803	0.101751	0.576544
C35	C	1.400557	0.273615	0.576567
C36	C	1.400555	0.273623	0.423232
C37	C	1.667524	0.002545	0.423195
C38	C	1.667520	0.002530	0.576532
H39	H	1.129293	-0.019697	-0.000036
C40	C	1.060360	0.510372	0.137585
H41	H	1.149270	0.512777	0.137593
H42	H	1.035856	0.466717	0.222542
H43	H	1.020442	0.595325	0.137562
C44	C	1.790724	0.044500	0.358926
H45	H	1.845591	0.063172	0.436411
H46	H	1.772247	0.118778	0.300367
H47	H	1.830353	-0.022585	0.300366
C48	C	1.307483	0.368154	0.338915
H49	H	1.319598	0.355853	0.236612
H50	H	1.321889	0.453413	0.364056
H51	H	1.223537	0.353502	0.364042
H52	H	0.891590	-0.026096	-0.000132
H53	H	1.372910	-0.378281	0.221542
C54	C	1.797901	0.032060	0.632761
H55	H	1.797895	0.032036	0.736814
H56	H	1.815822	0.113759	0.598098
H57	H	1.860418	-0.031420	0.598078
C58	C	1.068895	0.497249	-0.142178
H59	H	1.157918	0.497729	-0.137309
H60	H	1.031126	0.582447	-0.153400
H61	H	1.047399	0.447145	-0.223461
C62	C	0.827971	0.490785	0.141885
H63	H	0.739407	0.486477	0.137019
H64	H	0.845118	0.577466	0.153081
H65	H	0.861312	0.442177	0.223182
C66	C	0.833333	0.504073	-0.137991
H67	H	0.899075	0.534459	-0.194658
H68	H	0.775319	0.574213	-0.109857
H69	H	0.790872	0.445461	-0.194540
H70	H	1.597345	-0.246540	0.221751
H71	H	1.703518	-0.418912	0.000015
C72	C	1.231913	-0.187998	0.000062
H73	H	1.188927	-0.211793	0.085512
H74	H	1.188291	-0.212941	-0.084392
H75	H	1.235235	-0.097821	-0.000797
H76	H	1.597363	-0.246302	-0.221728
C77	C	1.354876	-0.389091	-0.257343
H78	H	1.270841	-0.349563	-0.257179
H79	H	1.353647	-0.479520	-0.256843
H80	H	1.397250	-0.363955	-0.342635
C81	C	1.638458	-0.129883	0.366959
H82	H	1.638462	-0.129871	0.262906
H83	H	1.558030	-0.148092	0.401644
H84	H	1.700965	-0.193383	0.401616
H85	H	1.331651	0.343570	0.639012
C86	C	1.626265	-0.122636	0.640785
H87	H	1.607900	-0.178368	0.563293
H88	H	1.553135	-0.103904	0.699357
H89	H	1.692330	-0.162867	0.699329
