data_functionalizedCrystal
_audit_creation_method	'MofGen! by Chris Wilmer'
_symmetry_space_group_name_H-M	'P1'
_symmetry_Int_Tables_number	1
_symmetry_cell_setting	triclinic
loop_
_symmetry_equiv_pos_as_xyz
  x,y,z
_cell_length_a	17.077404
_cell_length_b	21.395361
_cell_length_c	17.077396
_cell_angle_alpha	89.965914
_cell_angle_beta	89.982756
_cell_angle_gamma	90.030933
loop_
_atom_site_label
_atom_site_type_symbol
_atom_site_fract_x
_atom_site_fract_y
_atom_site_fract_z
Zn1	Zn	1.199994	-0.249430	-0.443817
Zn2	Zn	1.533328	0.083904	-0.110483
Zn3	Zn	1.866661	0.417237	0.222850
Zn4	Zn	1.199889	-0.354212	-0.312540
Zn5	Zn	1.533222	-0.020879	0.020794
Zn6	Zn	1.866555	0.312454	0.354127
Zn7	Zn	1.068731	-0.249453	-0.312565
Zn8	Zn	1.402065	0.083880	0.020769
Zn9	Zn	1.735398	0.417214	0.354102
Zn10	Zn	1.068676	-0.354174	-0.443763
Zn11	Zn	1.402010	-0.020840	-0.110430
Zn12	Zn	1.735343	0.312493	0.222903
O13	O	1.134323	-0.301817	-0.378171
O14	O	1.467656	0.031516	-0.044838
O15	O	1.800989	0.364849	0.288496
O16	O	1.309827	-0.263336	-0.426414
O17	O	1.643161	0.069998	-0.093081
O18	O	1.976494	0.403331	0.240252
O19	O	1.182469	-0.340342	-0.202696
O20	O	1.515803	-0.007009	0.130637
O21	O	1.849136	0.326325	0.463971
O22	O	1.086211	-0.161772	-0.330008
O23	O	1.419544	0.171561	0.003325
O24	O	1.752878	0.504895	0.336658
O25	O	1.309750	-0.340319	-0.329966
O26	O	1.643083	-0.006986	0.003368
O27	O	1.976416	0.326348	0.336701
O28	O	1.182649	-0.161755	-0.426439
O29	O	1.515983	0.171579	-0.093105
O30	O	1.849316	0.504912	0.240228
O31	O	1.086109	-0.263376	-0.202714
O32	O	1.419442	0.069958	0.130619
O33	O	1.752775	0.403291	0.463952
O34	O	0.958877	-0.263338	-0.329957
O35	O	1.292211	0.069995	0.003377
O36	O	1.625544	0.403328	0.336710
O37	O	1.086117	-0.340253	-0.553617
O38	O	1.419450	-0.006920	-0.220284
O39	O	1.752784	0.326414	0.113049
O40	O	0.958837	-0.340276	-0.426348
O41	O	1.292170	-0.006943	-0.093014
O42	O	1.625503	0.326391	0.240319
O43	O	1.182596	-0.263298	-0.553657
O44	O	1.515929	0.070035	-0.220323
O45	O	1.849263	0.403369	0.113010
O46	O	1.182416	-0.441885	-0.329914
O47	O	1.515749	-0.108552	0.003419
O48	O	1.849083	0.224781	0.336753
O49	O	1.086015	-0.441857	-0.426324
O50	O	1.419348	-0.108523	-0.092990
O51	O	1.752681	0.224810	0.240343
C52	C	0.930375	-0.301806	-0.378149
C53	C	1.263708	0.031527	-0.044816
C54	C	1.597042	0.364861	0.288517
C55	C	0.843125	-0.301816	-0.378159
C56	C	1.176458	0.031517	-0.044825
C57	C	1.509792	0.364851	0.288508
C58	C	1.134219	-0.464605	-0.378127
C59	C	1.467552	-0.131272	-0.044794
C60	C	1.800886	0.202062	0.288539
C61	C	1.134247	-0.534246	-0.378135
C62	C	1.467580	-0.200913	-0.044802
C63	C	1.800913	0.132421	0.288532
C64	C	0.802134	-0.341938	-0.428269
C65	C	1.135468	-0.008605	-0.094936
C66	C	1.468801	0.324729	0.238398
C67	C	0.720154	-0.341939	-0.428282
C68	C	1.053487	-0.008606	-0.094948
C69	C	1.386821	0.324727	0.238385
C70	C	0.679166	-0.301822	-0.378179
C71	C	1.012499	0.031512	-0.044846
C72	C	1.345832	0.364845	0.288487
C73	C	0.720162	-0.261695	-0.328067
C74	C	1.053495	0.071638	0.005267
C75	C	1.386829	0.404972	0.338600
C76	C	0.802141	-0.261691	-0.328059
C77	C	1.135474	0.071642	0.005275
C78	C	1.468808	0.404976	0.338608
C79	C	0.549292	-0.261707	-0.328086
C80	C	0.882625	0.071626	0.005248
C81	C	1.215959	0.404959	0.338581
C82	C	0.467307	-0.261712	-0.328092
C83	C	0.800641	0.071621	0.005241
C84	C	1.133974	0.404954	0.338574
C85	C	0.467305	-0.341956	-0.428309
C86	C	0.800638	-0.008622	-0.094975
C87	C	1.133972	0.324711	0.238358
C88	C	0.549284	-0.341952	-0.428301
C89	C	0.882617	-0.008618	-0.094967
C90	C	1.215951	0.324715	0.238366
C91	C	0.590275	-0.301826	-0.378187
C92	C	0.923608	0.031507	-0.044853
C93	C	1.256941	0.364841	0.288480
C94	C	1.184487	-0.566953	-0.327986
C95	C	1.517821	-0.233620	0.005347
C96	C	1.851154	0.099713	0.338681
C97	C	1.184524	-0.632389	-0.328004
C98	C	1.517857	-0.299055	0.005330
C99	C	1.851190	0.034278	0.338663
C100	C	1.134306	-0.665114	-0.378162
C101	C	1.467639	-0.331781	-0.044829
C102	C	1.800972	0.001552	0.288505
C103	C	1.084062	-0.632399	-0.428321
C104	C	1.417395	-0.299066	-0.094987
C105	C	1.750728	0.034267	0.238346
C106	C	1.084032	-0.566965	-0.428307
C107	C	1.417365	-0.233632	-0.094974
C108	C	1.750699	0.099701	0.238359
C109	C	1.063626	-0.768829	-0.384313
C110	C	1.396959	-0.435495	-0.050980
C111	C	1.730293	-0.102162	0.282353
C112	C	1.063654	-0.834262	-0.384321
C113	C	1.396987	-0.500928	-0.050988
C114	C	1.730321	-0.167595	0.282345
C115	C	1.134397	-0.866935	-0.378208
C116	C	1.467730	-0.533602	-0.044875
C117	C	1.801064	-0.200268	0.288459
C118	C	1.205114	-0.834168	-0.372070
C119	C	1.538447	-0.500834	-0.038737
C120	C	1.871781	-0.167501	0.294597
C121	C	1.205084	-0.768733	-0.372057
C122	C	1.538418	-0.435400	-0.038723
C123	C	1.871751	-0.102067	0.294610
C124	C	1.134332	-0.736067	-0.378182
C125	C	1.467666	-0.402733	-0.044849
C126	C	1.800999	-0.069400	0.288484
C127	C	1.184681	-0.970595	-0.328075
C128	C	1.518015	-0.637261	0.005258
C129	C	1.851348	-0.303928	0.338591
C130	C	1.184719	-1.036031	-0.328098
C131	C	1.518053	-0.702698	0.005235
C132	C	1.851386	-0.369365	0.338568
C133	C	1.084250	-1.036041	-0.428411
C134	C	1.417583	-0.702708	-0.095078
C135	C	1.750917	-0.369374	0.238255
C136	C	1.084219	-0.970606	-0.428392
C137	C	1.417553	-0.637272	-0.095059
C138	C	1.750886	-0.303939	0.238274
C139	C	1.134434	-0.937886	-0.378220
C140	C	1.467767	-0.604553	-0.044887
C141	C	1.801101	-0.271220	0.288446
C142	C	1.339067	-0.301829	-0.378193
C143	C	1.672400	0.031504	-0.044860
C144	C	2.005734	0.364838	0.288473
C145	C	1.426317	-0.301834	-0.378203
C146	C	1.759650	0.031499	-0.044869
C147	C	2.092983	0.364833	0.288464
C148	C	1.134362	-0.301769	-0.582915
C149	C	1.467696	0.031565	-0.249582
C150	C	1.801029	0.364898	0.083751
C151	C	1.134379	-0.301748	-0.670165
C152	C	1.467712	0.031585	-0.336832
C153	C	1.801046	0.364919	-0.003499
C154	C	1.134448	-0.138394	-0.378232
C155	C	1.467782	0.194939	-0.044899
C156	C	1.801115	0.528273	0.288435
C157	C	1.134502	-0.068753	-0.378258
C158	C	1.467835	0.264581	-0.044925
C159	C	1.801168	0.597914	0.288409
C160	C	1.084219	-0.261667	-0.711164
C161	C	1.417553	0.071666	-0.377831
C162	C	1.750886	0.405000	-0.044498
C163	C	1.084232	-0.261653	-0.793145
C164	C	1.417565	0.071681	-0.459812
C165	C	1.750899	0.405014	-0.126478
C166	C	1.134409	-0.301717	-0.834125
C167	C	1.467743	0.031616	-0.500791
C168	C	1.801076	0.364950	-0.167458
C169	C	1.184571	-0.341802	-0.793120
C170	C	1.517904	-0.008469	-0.459787
C171	C	1.851238	0.324864	-0.126453
C172	C	1.184554	-0.341819	-0.711141
C173	C	1.517887	-0.008486	-0.377808
C174	C	1.851220	0.324847	-0.044474
C175	C	1.184605	-0.341763	-0.963990
C176	C	1.517938	-0.008430	-0.630657
C177	C	1.851272	0.324903	-0.297323
C178	C	1.184624	-0.341746	-1.045975
C179	C	1.517957	-0.008412	-0.712641
C180	C	1.851290	0.324921	-0.379308
C181	C	1.084283	-0.261597	-1.045994
C182	C	1.417617	0.071737	-0.712661
C183	C	1.750950	0.405070	-0.379327
C184	C	1.084266	-0.261614	-0.964015
C185	C	1.417599	0.071720	-0.630682
C186	C	1.750933	0.405053	-0.297348
C187	C	1.134429	-0.301698	-0.923016
C188	C	1.467763	0.031635	-0.589683
C189	C	1.801096	0.364968	-0.256349
C190	C	1.134329	-0.301820	-0.174223
C191	C	1.467662	0.031513	0.159110
C192	C	1.800995	0.364846	0.492443
C193	C	1.134464	-0.301665	-0.086974
C194	C	1.467797	0.031669	0.246359
C195	C	1.801131	0.365002	0.579693
H196	H	0.835501	-0.374609	-0.469066
H197	H	1.168835	-0.041276	-0.135732
H198	H	1.502168	0.292058	0.197601
O199	O	1.238865	-0.935302	-0.273988
O200	O	1.572199	-0.601969	0.059346
O201	O	1.905532	-0.268636	0.392679
H202	H	1.230403	-0.884306	-0.282401
H203	H	1.563737	-0.550973	0.050932
H204	H	1.897070	-0.217640	0.384265
H205	H	1.043440	-0.228957	-1.079380
H206	H	1.376773	0.104376	-0.746046
H207	H	1.710106	0.437709	-0.412713
O208	O	1.030129	-0.218426	-0.837369
O209	O	1.363462	0.114907	-0.504036
O210	O	1.696795	0.448241	-0.170703
H211	H	1.065293	-0.186550	-0.874745
H212	H	1.398627	0.146784	-0.541412
H213	H	1.731960	0.480117	-0.208079
O214	O	0.423093	-0.218437	-0.274064
O215	O	0.756427	0.114896	0.059269
O216	O	1.089760	0.448229	0.392603
H217	H	0.465368	-0.190526	-0.239225
H218	H	0.798701	0.142807	0.094108
H219	H	1.132034	0.476140	0.427442
O220	O	0.846359	-0.218417	-0.274012
O221	O	1.179692	0.114916	0.059321
O222	O	1.513026	0.448250	0.392655
H223	H	0.883682	-0.246419	-0.234012
H224	H	1.217015	0.086915	0.099321
H225	H	1.550349	0.420248	0.432654
O226	O	0.593509	-0.218436	-0.274029
O227	O	0.926842	0.114897	0.059305
O228	O	1.260175	0.448231	0.392638
H229	H	0.551236	-0.190547	-0.239182
H230	H	0.884569	0.142787	0.094152
H231	H	1.217903	0.476120	0.427485
O232	O	0.987383	-0.869598	-0.390941
O233	O	1.320716	-0.536265	-0.057608
O234	O	1.654049	-0.202931	0.275725
H235	H	0.979408	-0.899441	-0.338351
H236	H	1.312742	-0.566108	-0.005018
H237	H	1.646075	-0.232775	0.328316
O238	O	1.030103	-0.218448	-0.666970
O239	O	1.363437	0.114885	-0.333637
O240	O	1.696770	0.448218	-0.000303
H241	H	0.990139	-0.246493	-0.629598
H242	H	1.323472	0.086841	-0.296264
H243	H	1.656806	0.420174	0.037069
H244	H	1.225422	-0.374427	-0.826492
H245	H	1.558756	-0.041093	-0.493159
H246	H	1.892089	0.292240	-0.159826
H247	H	1.225438	-0.659024	-0.287166
H248	H	1.558772	-0.325691	0.046167
H249	H	1.892105	0.007643	0.379500
H250	H	1.043411	-0.228987	-0.930651
H251	H	1.376744	0.104346	-0.597318
H252	H	1.710078	0.437680	-0.263985
O253	O	1.030008	-0.935329	-0.482467
O254	O	1.363342	-0.601996	-0.149133
O255	O	1.696675	-0.268663	0.184200
H256	H	1.043425	-0.947843	-0.544092
H257	H	1.376758	-0.614510	-0.210759
H258	H	1.710091	-0.281177	0.122575
H259	H	0.686783	-0.229028	-0.287276
H260	H	1.020116	0.104306	0.046057
H261	H	1.353450	0.437639	0.379391
O262	O	1.281350	-0.733388	-0.365448
O263	O	1.614684	-0.400055	-0.032115
O264	O	1.948017	-0.066722	0.301218
H265	H	1.330552	-0.767096	-0.361205
H266	H	1.663885	-0.433763	-0.027871
H267	H	1.997219	-0.100429	0.305462
O268	O	1.238736	-0.384964	-1.090175
O269	O	1.572069	-0.051630	-0.756841
O270	O	1.905403	0.281703	-0.423508
H271	H	1.278711	-0.356917	-1.127534
H272	H	1.612044	-0.023584	-0.794201
H273	H	1.945377	0.309749	-0.460867
H274	H	1.225405	-0.374453	-0.677761
H275	H	1.558738	-0.041119	-0.344427
H276	H	1.892072	0.292214	-0.011094
O277	O	1.030085	-1.071333	-0.482508
O278	O	1.363418	-0.738000	-0.149175
O279	O	1.696751	-0.404667	0.184158
H280	H	1.043507	-1.058731	-0.544127
H281	H	1.376840	-0.725398	-0.210793
H282	H	1.710173	-0.392065	0.122540
O283	O	0.675939	-0.385333	-0.482178
O284	O	1.009273	-0.052000	-0.148844
O285	O	1.342606	0.281334	0.184489
H286	H	0.718214	-0.413278	-0.516953
H287	H	1.051547	-0.079944	-0.183620
H288	H	1.384880	0.253389	0.149713
O289	O	0.593498	-0.385218	-0.482340
O290	O	0.926831	-0.051885	-0.149007
O291	O	1.260165	0.281449	0.184326
H292	H	0.551224	-0.413116	-0.517196
H293	H	0.884557	-0.079782	-0.183862
H294	H	1.217890	0.253551	0.149471
O295	O	1.029828	-0.531682	-0.482384
O296	O	1.363161	-0.198348	-0.149050
O297	O	1.696494	0.134985	0.184283
H298	H	0.994906	-0.565428	-0.517261
H299	H	1.328240	-0.232095	-0.183928
H300	H	1.661573	0.101238	0.149406
H301	H	1.225377	-0.540315	-0.287135
H302	H	1.558710	-0.206982	0.046198
H303	H	1.892043	0.126351	0.379532
H304	H	0.433926	-0.374626	-0.469115
H305	H	0.767260	-0.041292	-0.135782
H306	H	1.100593	0.292041	0.197551
O307	O	1.238714	-0.384991	-0.919765
O308	O	1.572048	-0.051658	-0.586431
O309	O	1.905381	0.281675	-0.253098
H310	H	1.273617	-0.412842	-0.962032
H311	H	1.606951	-0.079508	-0.628698
H312	H	1.940284	0.253825	-0.295365
H313	H	1.262720	-0.860769	-0.367092
H314	H	1.596053	-0.527435	-0.033759
H315	H	1.929386	-0.194102	0.299574
H316	H	1.006014	-0.742232	-0.389295
H317	H	1.339347	-0.408899	-0.055961
H318	H	1.672681	-0.075566	0.277372
H319	H	1.043175	-0.659049	-0.469161
H320	H	1.376508	-0.325716	-0.135828
H321	H	1.709842	0.007618	0.197505
O322	O	1.238908	-1.071314	-0.274005
O323	O	1.572242	-0.737980	0.059328
O324	O	1.905575	-0.404647	0.392661
H325	H	1.273812	-1.037566	-0.239112
H326	H	1.607145	-0.704233	0.094221
H327	H	1.940479	-0.370899	0.427554
