data_functionalizedCrystal
_audit_creation_method	'MofGen! by Chris Wilmer'
_symmetry_space_group_name_H-M	'P1'
_symmetry_Int_Tables_number	1
_symmetry_cell_setting	triclinic
loop_
_symmetry_equiv_pos_as_xyz
  x,y,z
_cell_length_a	10.686285
_cell_length_b	19.077220
_cell_length_c	19.076919
_cell_angle_alpha	90.116798
_cell_angle_beta	88.081200
_cell_angle_gamma	92.256268
loop_
_atom_site_label
_atom_site_type_symbol
_atom_site_fract_x
_atom_site_fract_y
_atom_site_fract_z
Zn1	Zn	-0.455314	-1.078600	-0.422009
Zn2	Zn	-0.656293	-1.092205	-0.296288
Zn3	Zn	-0.454649	-0.965786	-0.299808
Zn4	Zn	-0.673016	-0.970770	-0.408333
O5	O	-0.559818	-1.026840	-0.356610
O6	O	-0.475254	-1.178439	-0.409582
O7	O	-0.622268	-1.079043	-0.198722
O8	O	-0.279239	-0.972972	-0.323215
O9	O	-0.622913	-1.188434	-0.317215
O10	O	-0.279728	-1.055856	-0.412995
O11	O	-0.474121	-0.986163	-0.201308
O12	O	-0.490336	-0.868413	-0.309954
O13	O	-0.651414	-0.981466	-0.508181
O14	O	-0.650769	-0.872075	-0.389687
O15	O	-0.491470	-1.060688	-0.518228
O16	O	-0.834009	-1.083875	-0.303954
O17	O	-0.846296	-0.994658	-0.386274
C18	C	-0.572296	-0.844825	-0.348719
C19	C	-0.577666	-0.766959	-0.345359
C20	C	-0.616132	-0.329212	-0.321297
C21	C	-0.611079	-0.402375	-0.324449
C22	C	-0.531812	-0.433758	-0.374184
C23	C	-0.457583	-0.391973	-0.420764
C24	C	-0.462629	-0.318811	-0.417608
C25	C	-0.508483	-0.652012	-0.388783
C26	C	-0.503445	-0.725179	-0.391937
C27	C	-0.656940	-0.735576	-0.295621
C28	C	-0.661986	-0.662412	-0.292472
C29	C	-0.587752	-0.620634	-0.339050
N30	N	-0.526648	-0.508543	-0.377408
N31	N	-0.592909	-0.545850	-0.335822
C32	C	-0.885657	-1.041302	-0.343264
C33	C	-1.025050	-1.047552	-0.337581
C34	C	-0.232707	-1.012340	-0.370023
C35	C	-0.093311	-1.006161	-0.375739
C36	C	-0.573382	-1.020116	-0.539334
C37	C	-0.579162	-1.017250	-0.617200
C38	C	-0.547281	-0.209566	-0.364523
C39	C	-0.541911	-0.287432	-0.367875
C40	C	-0.498606	-1.057148	-0.659014
C41	C	-0.504033	-1.054447	-0.732177
C42	C	-0.590022	-1.011851	-0.763525
C43	C	-0.670581	-0.971948	-0.721706
C44	C	-0.665147	-0.974646	-0.648544
C45	C	-0.615197	-0.999355	-0.981775
C46	C	-0.620627	-0.996662	-1.054942
C47	C	-0.454077	-1.079161	-1.065408
C48	C	-0.448656	-1.081858	-0.992244
C49	C	-0.529210	-1.041952	-0.950432
N50	N	-0.595574	-1.009090	-0.838310
N51	N	-0.523651	-1.044709	-0.875649
C52	C	-0.546214	-1.033575	-0.174601
C53	C	-0.540071	-1.036560	-0.096756
H54	H	-0.671516	-0.436389	-0.286519
C55	C	-0.365462	-1.123050	-1.111402
C56	C	-0.222538	-1.111384	-1.106938
C57	C	-0.133915	-1.155273	-1.152931
C58	C	-0.188217	-1.210829	-1.203389
C59	C	-0.331149	-1.222498	-1.207855
C60	C	-0.419771	-1.178608	-1.161862
H61	H	-0.182334	-1.070256	-1.069584
H62	H	-0.028108	-1.146635	-1.149625
H63	H	-0.122613	-1.243319	-1.237436
H64	H	-0.371353	-1.263626	-1.245209
H65	H	-0.525579	-1.187247	-1.165168
H66	H	-1.045115	-0.965943	-0.412756
C67	C	-0.404015	-1.104005	-0.624534
C68	C	-0.262585	-1.091595	-0.640192
C69	C	-0.167988	-1.138452	-0.605714
C70	C	-0.214822	-1.197718	-0.555579
C71	C	-0.356260	-1.210131	-0.539918
C72	C	-0.450856	-1.163275	-0.574396
H73	H	-0.227909	-1.047720	-0.677308
H74	H	-0.063287	-1.129262	-0.617308
H75	H	-0.144796	-1.232404	-0.530056
H76	H	-0.390935	-1.254006	-0.502803
H77	H	-0.555558	-1.172464	-0.562803
C78	C	-0.415417	-1.098337	-0.778169
C79	C	-0.419452	-1.178802	-0.771149
C80	C	-0.330827	-1.222693	-0.817140
C81	C	-0.238168	-1.186120	-0.870150
C82	C	-0.234130	-1.105651	-0.877173
C83	C	-0.322754	-1.061759	-0.831182
H84	H	-0.488047	-1.205880	-0.731905
H85	H	-0.333817	-1.282262	-0.811941
H86	H	-0.172563	-1.218610	-0.904195
H87	H	-0.165534	-1.078573	-0.916416
H88	H	-0.319764	-1.002191	-0.836381
C89	C	-0.416228	-0.759709	-0.446635
C90	C	-0.471320	-0.810426	-0.501522
C91	C	-0.384105	-0.844959	-0.556212
C92	C	-0.241797	-0.828776	-0.556015
C93	C	-0.186697	-0.778057	-0.501126
C94	C	-0.273912	-0.743523	-0.446436
H95	H	-0.576671	-0.822407	-0.501669
H96	H	-0.424894	-0.882505	-0.596844
H97	H	-0.177235	-0.854340	-0.596499
H98	H	-0.081346	-0.766075	-0.500978
H99	H	-0.233123	-0.705978	-0.405803
H100	H	-1.073253	-1.087768	-0.300557
C101	C	-0.715258	-0.949826	-1.089426
C102	C	-0.803895	-0.905949	-1.043436
C103	C	-0.898543	-0.859131	-1.077920
C104	C	-0.904554	-0.856189	-1.158395
C105	C	-0.815914	-0.900068	-1.204390
C106	C	-0.721266	-0.946887	-1.169906
H107	H	-0.799448	-0.908125	-0.983859
H108	H	-0.964160	-0.826649	-1.043871
H109	H	-0.974618	-0.821532	-1.183922
H110	H	-0.820361	-0.897892	-1.263967
H111	H	-0.655649	-0.979369	-1.203955
H112	H	-0.726532	-0.636866	-0.251973
H113	H	-0.378637	-1.116547	-0.966726
C114	C	-0.703328	-0.294694	-0.266588
C115	C	-0.648219	-0.243982	-0.211702
C116	C	-0.735414	-0.209466	-0.156990
C117	C	-0.877720	-0.225662	-0.157163
C118	C	-0.932837	-0.276376	-0.212051
C119	C	-0.845641	-0.310892	-0.266764
H120	H	-0.542869	-0.231990	-0.211572
H121	H	-0.694612	-0.171924	-0.116358
H122	H	-0.942267	-0.200111	-0.116662
H123	H	-1.038186	-0.288368	-0.212181
H124	H	-0.886443	-0.348434	-0.307395
H125	H	-0.448043	-0.618004	-0.426713
C126	C	-0.370376	-0.426492	-0.475468
C127	C	-0.364818	-0.506967	-0.478942
C128	C	-0.277609	-0.541483	-0.533646
C129	C	-0.195956	-0.495525	-0.584877
C130	C	-0.201511	-0.415045	-0.581405
C131	C	-0.288721	-0.380528	-0.526700
H132	H	-0.425265	-0.540992	-0.441016
H133	H	-0.273497	-0.601060	-0.536216
H134	H	-0.131398	-0.521076	-0.625372
H135	H	-0.141065	-0.381019	-0.619331
H136	H	-0.292833	-0.320951	-0.524131
H137	H	-0.680807	-0.966872	-0.947739
H138	H	-0.740591	-0.937262	-0.747236
C139	C	-0.753762	-0.930761	-0.602543
C140	C	-0.749737	-0.850296	-0.609562
C141	C	-0.838349	-0.806408	-0.563561
C142	C	-0.930987	-0.842985	-0.510541
C143	C	-0.935016	-0.923454	-0.503520
C144	C	-0.846403	-0.967342	-0.549521
H145	H	-0.681157	-0.823216	-0.648813
H146	H	-0.835366	-0.746839	-0.568758
H147	H	-0.996583	-0.810496	-0.476488
H148	H	-1.003595	-0.950534	-0.464269
H149	H	-0.849386	-1.026911	-0.544324
H150	H	-0.717377	-0.769600	-0.257700
H151	H	-0.402186	-0.284795	-0.455535
