data_functionalizedCrystal
_audit_creation_method	'MofGen! by Chris Wilmer'
_symmetry_space_group_name_H-M	'P1'
_symmetry_Int_Tables_number	1
_symmetry_cell_setting	triclinic
loop_
_symmetry_equiv_pos_as_xyz
  x,y,z
_cell_length_a	19.805407
_cell_length_b	19.077432
_cell_length_c	19.805399
_cell_angle_alpha	92.324821
_cell_angle_beta	90.019573
_cell_angle_gamma	87.726944
loop_
_atom_site_label
_atom_site_type_symbol
_atom_site_fract_x
_atom_site_fract_y
_atom_site_fract_z
Zn1	Zn	1.045561	-0.280213	0.371904
Zn2	Zn	1.378895	0.053120	0.705237
Zn3	Zn	1.712228	0.386454	1.038571
Zn4	Zn	1.050023	-0.397910	0.254173
Zn5	Zn	1.383357	-0.064577	0.587506
Zn6	Zn	1.716690	0.268757	0.920840
Zn7	Zn	0.932377	-0.280232	0.258728
Zn8	Zn	1.265710	0.053101	0.592061
Zn9	Zn	1.599044	0.386434	0.925395
Zn10	Zn	0.936885	-0.397873	0.367321
Zn11	Zn	1.270219	-0.064539	0.700655
Zn12	Zn	1.603552	0.268794	1.033988
O13	O	0.991212	-0.339057	0.313032
O14	O	1.324545	-0.005724	0.646365
O15	O	1.657878	0.327610	0.979698
O16	O	1.140870	-0.295833	0.356299
O17	O	1.474204	0.037500	0.689632
O18	O	1.807537	0.370833	1.022965
O19	O	1.034398	-0.382324	0.160060
O20	O	1.367731	-0.048990	0.493393
O21	O	1.701065	0.284343	0.826726
O22	O	0.943637	-0.181740	0.277565
O23	O	1.276970	0.151593	0.610899
O24	O	1.610304	0.484926	0.944232
O25	O	1.144148	-0.382305	0.269802
O26	O	1.477482	-0.048971	0.603135
O27	O	1.810815	0.284362	0.936469
O28	O	1.026793	-0.181726	0.360715
O29	O	1.360126	0.151607	0.694049
O30	O	1.693460	0.484941	1.027382
O31	O	0.947963	-0.295866	0.163406
O32	O	1.281297	0.037467	0.496740
O33	O	1.614630	0.370800	0.830073
O34	O	0.838258	-0.295830	0.273121
O35	O	1.171591	0.037503	0.606455
O36	O	1.504925	0.370837	0.939788
O37	O	0.951321	-0.382241	0.462647
O38	O	1.284654	-0.048908	0.795980
O39	O	1.617988	0.284426	1.129313
O40	O	0.841570	-0.382260	0.352904
O41	O	1.174904	-0.048926	0.686238
O42	O	1.508237	0.284407	1.019571
O43	O	1.031165	-0.295797	0.466014
O44	O	1.364498	0.037536	0.799347
O45	O	1.697831	0.370870	1.132680
O46	O	1.038770	-0.496394	0.265358
O47	O	1.372103	-0.163061	0.598692
O48	O	1.705436	0.170272	0.932025
O49	O	0.955647	-0.496367	0.348488
O50	O	1.288981	-0.163034	0.681821
O51	O	1.622314	0.170300	1.015154
C52	C	0.815355	-0.339043	0.313010
C53	C	1.148689	-0.005710	0.646344
C54	C	1.482022	0.327623	0.979677
C55	C	0.740124	-0.339055	0.313016
C56	C	1.073457	-0.005721	0.646350
C57	C	1.406790	0.327612	0.979683
C58	C	0.998200	-0.521918	0.305946
C59	C	1.331534	-0.188584	0.639279
C60	C	1.664867	0.144749	0.972613
C61	C	1.001252	-0.600146	0.302938
C62	C	1.334585	-0.266813	0.636271
C63	C	1.667919	0.066520	0.969604
C64	C	0.706525	-0.384126	0.354487
C65	C	1.039858	-0.050793	0.687820
C66	C	1.373191	0.282540	1.021154
C67	C	0.635836	-0.384128	0.354496
C68	C	0.969170	-0.050794	0.687830
C69	C	1.302503	0.282539	1.021163
C70	C	0.598748	-0.339060	0.313031
C71	C	0.932082	-0.005727	0.646365
C72	C	1.265415	0.327607	0.979698
C73	C	0.632352	-0.293983	0.271559
C74	C	0.965686	0.039350	0.604893
C75	C	1.299019	0.372683	0.938226
C76	C	0.703039	-0.293979	0.271554
C77	C	1.036372	0.039354	0.604887
C78	C	1.369706	0.372687	0.938221
C79	C	0.347279	-0.293999	0.271581
C80	C	0.680613	0.039334	0.604914
C81	C	1.013946	0.372668	0.938248
C82	C	0.276588	-0.294008	0.271588
C83	C	0.609921	0.039325	0.604922
C84	C	0.943254	0.372658	0.938255
C85	C	0.280077	-0.384147	0.354524
C86	C	0.613410	-0.050814	0.687857
C87	C	0.946743	0.282519	1.021190
C88	C	0.350763	-0.384143	0.354518
C89	C	0.684097	-0.050810	0.687851
C90	C	1.017430	0.282524	1.021185
C91	C	0.384361	-0.339064	0.313049
C92	C	0.717694	-0.005731	0.646382
C93	C	1.051028	0.327602	0.979716
C94	C	0.461009	-0.339062	0.313040
C95	C	0.794343	-0.005729	0.646373
C96	C	1.127676	0.327604	0.979707
C97	C	0.522101	-0.339065	0.313036
C98	C	0.855435	-0.005732	0.646370
C99	C	1.188768	0.327602	0.979703
C100	C	0.959379	-0.636910	0.344769
C101	C	1.292712	-0.303576	0.678103
C102	C	1.626045	0.029757	1.011436
C103	C	0.962249	-0.710414	0.341940
C104	C	1.295582	-0.377081	0.675273
C105	C	1.628916	-0.043747	1.008607
C106	C	1.006996	-0.747153	0.297281
C107	C	1.340330	-0.413820	0.630615
C108	C	1.673663	-0.080487	0.963948
C109	C	1.048871	-0.710385	0.255445
C110	C	1.382205	-0.377052	0.588778
C111	C	1.715538	-0.043718	0.922112
C112	C	1.045997	-0.636882	0.258272
C113	C	1.379330	-0.303549	0.591605
C114	C	1.712664	0.029784	0.924938
C115	C	1.020233	-0.966982	0.284187
C116	C	1.353567	-0.633649	0.617521
C117	C	1.686900	-0.300315	0.950854
C118	C	1.023106	-1.040490	0.281365
C119	C	1.356439	-0.707157	0.614698
C120	C	1.689772	-0.373823	0.948032
C121	C	0.936482	-1.040514	0.367860
C122	C	1.269816	-0.707181	0.701193
C123	C	1.603149	-0.373847	1.034526
C124	C	0.933615	-0.967010	0.370685
C125	C	1.266948	-0.633676	0.704018
C126	C	1.600282	-0.300343	1.037352
C127	C	0.975487	-0.930248	0.328846
C128	C	1.308821	-0.596914	0.662180
C129	C	1.642154	-0.263581	0.995513
N130	N	1.009933	-0.822286	0.294389
N131	N	1.343266	-0.488953	0.627723
N132	N	1.676599	-0.155620	0.961056
N133	N	0.972547	-0.855116	0.331735
N134	N	1.305880	-0.521783	0.665068
N135	N	1.639214	-0.188449	0.998402
C136	C	1.167755	-0.339071	0.313053
C137	C	1.501088	-0.005738	0.646387
C138	C	1.834422	0.327596	0.979720
C139	C	1.242987	-0.339077	0.313063
C140	C	1.576321	-0.005744	0.646396
C141	C	1.909654	0.327590	0.979729
C142	C	0.991248	-0.339013	0.489576
C143	C	1.324581	-0.005679	0.822909
C144	C	1.657915	0.327654	1.156243
C145	C	0.991263	-0.338994	0.564809
C146	C	1.324597	-0.005660	0.898142
C147	C	1.657930	0.327673	1.231476
C148	C	0.984214	-0.155482	0.320160
C149	C	1.317548	0.177851	0.653493
C150	C	1.650881	0.511185	0.986826
C151	C	0.981233	-0.077253	0.323197
C152	C	1.314566	0.256080	0.656530
C153	C	1.647899	0.589413	0.989864
C154	C	0.991213	-0.339050	0.137176
C155	C	1.324546	-0.005717	0.470509
C156	C	1.657879	0.327616	0.803843
C157	C	0.991321	-0.338871	0.061951
C158	C	1.324654	-0.005538	0.395285
C159	C	1.657987	0.327796	0.728618
C160	C	1.032839	-0.293980	0.601907
C161	C	1.366172	0.039353	0.935241
C162	C	1.699506	0.372687	1.268574
C163	C	1.032845	-0.293960	0.672597
C164	C	1.366179	0.039374	1.005930
C165	C	1.699512	0.372707	1.339263
C166	C	0.991279	-0.338957	0.706186
C167	C	1.324612	-0.005624	1.039519
C168	C	1.657946	0.327710	1.372853
C169	C	0.949699	-0.383973	0.669082
C170	C	1.283032	-0.050639	1.002416
C171	C	1.616365	0.282694	1.335749
C172	C	0.949689	-0.383989	0.598395
C173	C	1.283023	-0.050656	0.931728
C174	C	1.616356	0.282678	1.265061
C175	C	0.949734	-0.383907	0.954158
C176	C	1.283068	-0.050574	1.287492
C177	C	1.616401	0.282760	1.620825
C178	C	0.949748	-0.383889	1.024851
C179	C	1.283081	-0.050555	1.358185
C180	C	1.616415	0.282778	1.691518
C181	C	1.032890	-0.293878	1.028360
C182	C	1.366223	0.039456	1.361694
C183	C	1.699557	0.372789	1.695027
C184	C	1.032881	-0.293894	0.957673
C185	C	1.366214	0.039439	1.291006
C186	C	1.699548	0.372773	1.624339
C187	C	0.991298	-0.338907	0.920575
C188	C	1.324632	-0.005573	1.253909
C189	C	1.657965	0.327760	1.587242
C190	C	0.991291	-0.338927	0.843926
C191	C	1.324624	-0.005594	1.177259
C192	C	1.657958	0.327739	1.510593
C193	C	0.991289	-0.338940	0.782834
C194	C	1.324622	-0.005607	1.116167
C195	C	1.657956	0.327726	1.449500
H196	H	0.608483	-0.420830	0.388265
H197	H	0.941816	-0.087497	0.721598
H198	H	1.275150	0.245836	1.054932
H199	H	0.736717	-0.420828	0.388250
H200	H	1.070050	-0.087495	0.721583
H201	H	1.403383	0.245839	1.054917
H202	H	0.902391	-1.070453	0.401922
H203	H	1.235725	-0.737120	0.735255
H204	H	1.569058	-0.403787	1.068588
N205	N	0.592352	-0.245380	0.226832
N206	N	0.925685	0.087954	0.560165
N207	N	1.259018	0.421287	0.893498
H208	H	0.624365	-0.216825	0.200560
H209	H	0.957698	0.116508	0.533893
H210	H	1.291032	0.449841	0.867227
H211	H	0.561788	-0.212848	0.255695
H212	H	0.895122	0.120485	0.589029
H213	H	1.228455	0.453818	0.922362
H214	H	1.059548	-1.070401	0.244999
H215	H	1.392882	-0.737068	0.578332
H216	H	1.726215	-0.403735	0.911666
N217	N	1.097139	-0.750010	0.207282
N218	N	1.430472	-0.416676	0.540615
N219	N	1.763806	-0.083343	0.873949
H220	H	1.123229	-0.715565	0.181210
H221	H	1.456562	-0.382231	0.514543
H222	H	1.789896	-0.048898	0.847877
H223	H	1.070803	-0.780557	0.174758
H224	H	1.404136	-0.447223	0.508092
H225	H	1.737469	-0.113890	0.841425
N226	N	1.077680	-0.245452	0.565685
N227	N	1.411013	0.087882	0.899018
N228	N	1.744346	0.421215	1.232352
H229	H	1.110134	-0.274069	0.535257
H230	H	1.443467	0.059265	0.868591
H231	H	1.776800	0.392598	1.201924
H232	H	1.103972	-0.216946	0.599962
H233	H	1.437306	0.116387	0.933295
H234	H	1.770639	0.449720	1.266628
H235	H	0.922944	-0.607001	0.381138
H236	H	1.256277	-0.273668	0.714472
H237	H	1.589610	0.059665	1.047805
H238	H	0.380957	-0.420844	0.388281
H239	H	0.714291	-0.087511	0.721614
H240	H	1.047624	0.245823	1.054947
H241	H	0.252713	-0.420850	0.388292
H242	H	0.586046	-0.087517	0.721626
H243	H	0.919380	0.245816	1.054959
H244	H	0.730394	-0.257273	0.237788
H245	H	1.063728	0.076060	0.571122
H246	H	1.397061	0.409393	0.904455
H247	H	1.066746	-0.257224	1.058574
H248	H	1.400080	0.076110	1.391907
H249	H	1.733413	0.409443	1.725240
N250	N	0.904914	-0.432423	1.061082
N251	N	1.238247	-0.099090	1.394415
N252	N	1.571581	0.234243	1.727749
H253	H	0.878568	-0.460941	1.026856
H254	H	1.211902	-0.127607	1.360189
H255	H	1.545235	0.205726	1.693522
H256	H	0.872508	-0.403761	1.091520
H257	H	1.205841	-0.070428	1.424854
H258	H	1.539175	0.262905	1.758187
H259	H	0.897178	-0.937098	0.407050
H260	H	1.230511	-0.603765	0.740383
H261	H	1.563845	-0.270431	1.073716
H262	H	1.054329	-0.937056	0.250122
H263	H	1.387662	-0.603723	0.583455
H264	H	1.720995	-0.270390	0.916788
H265	H	1.066702	-0.257307	0.702799
H266	H	1.400035	0.076027	1.036133
H267	H	1.733369	0.409360	1.369466
N268	N	0.904846	-0.432544	0.558386
N269	N	1.238179	-0.099211	0.891719
N270	N	1.571513	0.234123	1.225052
H271	H	0.933589	-0.465170	0.527794
H272	H	1.266922	-0.131837	0.861127
H273	H	1.600255	0.201497	1.194460
H274	H	0.872391	-0.403896	0.530205
H275	H	1.205724	-0.070563	0.863538
H276	H	1.539057	0.262771	1.196872
N277	N	0.917080	-0.750067	0.387052
N278	N	1.250413	-0.416733	0.720386
N279	N	1.583747	-0.083400	1.053719
H280	H	0.888298	-0.715639	0.415773
H281	H	1.221632	-0.382306	0.749107
H282	H	1.554965	-0.048972	1.082440
H283	H	0.945799	-0.780521	0.417230
H284	H	1.279133	-0.447187	0.750563
H285	H	1.612466	-0.113854	1.083896
H286	H	0.246392	-0.257305	0.237823
H287	H	0.579726	0.076029	0.571156
H288	H	0.913059	0.409362	0.904489
N289	N	0.904864	-0.432446	0.914170
N290	N	1.238198	-0.099112	1.247503
N291	N	1.571531	0.234221	1.580836
H292	H	0.917282	-0.482734	0.924519
H293	H	1.250615	-0.149401	1.257852
H294	H	1.583949	0.183933	1.591185
H295	H	0.911162	-0.425576	0.864303
H296	H	1.244495	-0.092243	1.197636
H297	H	1.577829	0.241091	1.530970
N298	N	0.383511	-0.245370	0.226867
N299	N	0.716845	0.087964	0.560200
N300	N	1.050178	0.421297	0.893534
H301	H	0.349288	-0.216820	0.200603
H302	H	0.682622	0.116513	0.533937
H303	H	1.015955	0.449847	0.867270
H304	H	0.413928	-0.273959	0.194384
H305	H	0.747262	0.059374	0.527717
H306	H	1.080595	0.392707	0.861051
N307	N	1.091158	-0.597227	0.213152
N308	N	1.424492	-0.263893	0.546485
N309	N	1.757825	0.069440	0.879819
H310	H	1.119943	-0.631653	0.184433
H311	H	1.453276	-0.298320	0.517766
H312	H	1.786610	0.035014	0.851099
H313	H	1.121270	-0.566680	0.241907
H314	H	1.454604	-0.233346	0.575240
H315	H	1.787937	0.099987	0.908573
H316	H	0.915852	-0.420608	0.696436
H317	H	1.249185	-0.087274	1.029770
H318	H	1.582519	0.246059	1.363103
H319	H	1.066731	-0.257255	0.930328
H320	H	1.400064	0.076078	1.263661
H321	H	1.733398	0.409412	1.596994
