data_functionalizedCrystal
_audit_creation_method	'MofGen! by Chris Wilmer'
_symmetry_space_group_name_H-M	'P1'
_symmetry_Int_Tables_number	1
_symmetry_cell_setting	triclinic
loop_
_symmetry_equiv_pos_as_xyz
  x,y,z
_cell_length_a	15.995292
_cell_length_b	15.944545
_cell_length_c	14.472310
_cell_angle_alpha	89.996829
_cell_angle_beta	89.985801
_cell_angle_gamma	83.482394
loop_
_atom_site_label
_atom_site_type_symbol
_atom_site_fract_x
_atom_site_fract_y
_atom_site_fract_z
O1	O	1.111030	0.108032	-0.076870
O2	O	1.611030	0.608032	0.423130
O3	O	0.867249	0.121453	-0.076867
O4	O	1.367249	0.621453	0.423133
O5	O	0.995800	-0.007535	-0.076858
O6	O	1.495800	0.492465	0.423142
O7	O	0.982480	0.237019	-0.076880
O8	O	1.482480	0.737019	0.423120
O9	O	0.995767	-0.007527	0.076824
O10	O	1.495767	0.492473	0.576824
O11	O	0.867216	0.121460	0.076815
O12	O	1.367216	0.621460	0.576815
O13	O	1.110997	0.108039	0.076812
O14	O	1.610997	0.608039	0.576812
Cu15	Cu	0.989104	0.114750	0.090846
Cu16	Cu	1.489104	0.614750	0.590846
Cu17	Cu	0.989143	0.114742	-0.090901
Cu18	Cu	1.489143	0.614742	0.409099
O19	O	0.982447	0.237027	0.076802
O20	O	1.482447	0.737027	0.576802
C21	C	0.836037	0.120910	-0.000026
C22	C	1.336037	0.620910	0.499974
C23	C	0.743084	0.119273	-0.000024
C24	C	1.243084	0.619273	0.499976
C25	C	0.405345	0.113252	-0.000034
C26	C	0.905345	0.613252	0.499966
C27	C	0.428661	0.206352	-0.000385
C28	C	0.928661	0.706352	0.499615
C29	C	0.525336	0.208122	-0.000035
C30	C	1.025336	0.708122	0.499965
C31	C	0.572901	0.116240	-0.000030
C32	C	1.072901	0.616240	0.499970
C33	C	0.543779	0.069698	0.087731
C34	C	1.043779	0.569698	0.587731
C35	C	0.446988	0.068578	0.087801
C36	C	0.946988	0.568578	0.587801
C37	C	0.447170	0.066668	-0.086964
C38	C	0.947170	0.566668	0.413036
C39	C	0.543663	0.070118	-0.088120
C40	C	1.043663	0.570118	0.411880
C41	C	0.667597	0.117923	-0.000024
C42	C	1.167597	0.617923	0.499976
C43	C	0.310649	0.111566	-0.000033
C44	C	0.810649	0.611566	0.499967
C45	C	0.995231	-0.038825	-0.000016
C46	C	1.495231	0.461175	0.499984
C47	C	0.993576	-0.132071	-0.000013
C48	C	1.493576	0.367929	0.499987
C49	C	0.908949	-0.402681	-0.000031
C50	C	1.408949	0.097319	0.499969
C51	C	0.949766	-0.352110	-0.075805
C52	C	1.449766	0.147890	0.424195
C53	C	0.987674	-0.467713	-0.000040
C54	C	1.487674	0.032287	0.499960
C55	C	0.949754	-0.352130	0.075713
C56	C	1.449754	0.147870	0.575713
C57	C	0.990570	-0.302800	-0.000025
C58	C	1.490570	0.197200	0.499975
C59	C	1.028470	-0.418370	-0.075876
C60	C	1.528470	0.081630	0.424124
C61	C	1.028446	-0.418393	0.075710
C62	C	1.528446	0.081607	0.575710
C63	C	1.069321	-0.367855	-0.000083
C64	C	1.569321	0.132145	0.499917
C65	C	0.986004	-0.562715	-0.000049
C66	C	1.486004	-0.062715	0.499951
C67	C	0.992246	-0.207801	-0.000023
C68	C	1.492246	0.292199	0.499977
C69	C	1.142210	0.108582	-0.000032
C70	C	1.642210	0.608582	0.499968
C71	C	1.235163	0.110219	-0.000040
C72	C	1.735163	0.610219	0.499960
C73	C	0.983015	0.268317	-0.000042
C74	C	1.483015	0.768317	0.499958
C75	C	0.984670	0.361563	-0.000050
C76	C	1.484670	0.861563	0.499950
N77	N	0.989082	0.114756	0.218677
N78	N	1.489082	0.614756	0.718677
N79	N	0.989171	0.114729	-0.218732
N80	N	1.489171	0.614729	0.281268
C81	C	0.989142	0.114738	0.592768
C82	C	1.489142	0.614738	1.092768
C83	C	0.920126	0.183525	0.553597
C84	C	1.420126	0.683525	1.053597
C85	C	0.920285	0.183776	0.446509
C86	C	1.420285	0.683776	0.946509
C87	C	0.989111	0.114747	0.407177
C88	C	1.489111	0.614747	0.907177
C89	C	1.076479	0.133871	0.446011
C90	C	1.576479	0.633871	0.946011
C91	C	1.076091	0.134360	0.553132
C92	C	1.576091	0.634360	1.053132
C93	C	0.971569	0.026623	0.553305
C94	C	1.471569	0.526623	1.053305
C95	C	0.969565	0.027211	0.446178
C96	C	1.469565	0.527211	0.946178
C97	C	0.989100	0.114750	0.302289
C98	C	1.489100	0.614750	0.802289
C99	C	0.989159	0.114737	0.697656
C100	C	1.489159	0.614737	1.197656
H101	H	0.400679	0.242234	-0.063323
H102	H	0.900679	0.742234	0.436677
N103	N	0.819149	-0.423407	-0.000130
N104	N	1.319149	0.076593	0.499870
H105	H	0.808667	-0.456909	0.057118
H106	H	1.308667	0.043091	0.557118
H107	H	0.779573	-0.369344	-0.000794
H108	H	1.279573	0.130656	0.499206
N109	N	0.905753	-0.313775	-0.160664
N110	N	1.405753	0.186225	0.339336
H111	H	0.845210	-0.326149	-0.160609
H112	H	1.345210	0.173851	0.339391
H113	H	0.907734	-0.250690	-0.160292
H114	H	1.407734	0.249310	0.339708
H115	H	0.855343	0.172385	0.420255
H116	H	1.355343	0.672385	0.920255
H117	H	0.543727	0.244797	0.062976
H118	H	1.043727	0.744797	0.562976
H119	H	1.129052	0.086233	0.579041
H120	H	1.629052	0.586233	1.079041
H121	H	0.420158	0.100816	0.153400
H122	H	0.920158	0.600816	0.653400
N123	N	0.568294	0.114987	-0.174127
N124	N	1.068294	0.614987	0.325873
H125	H	0.598267	0.164982	-0.156114
H126	H	1.098267	0.664982	0.343886
H127	H	0.606939	0.074790	-0.213044
H128	H	1.106939	0.574790	0.286956
H129	H	1.137172	-0.352382	-0.000126
H130	H	1.637172	0.147618	0.499874
H131	H	0.433175	-0.001860	-0.087553
H132	H	0.933175	0.498140	0.412447
H133	H	1.061706	-0.447188	-0.140008
H134	H	1.561706	0.052812	0.359992
N135	N	1.072436	-0.456752	0.160564
N136	N	1.572436	0.043248	0.660564
H137	H	1.042620	-0.432538	0.217775
H138	H	1.542620	0.067462	0.717775
H139	H	1.071465	-0.519969	0.159522
H140	H	1.571465	-0.019969	0.659522
H141	H	0.916479	-0.323204	0.139772
H142	H	1.416479	0.176796	0.639772
N143	N	0.409763	0.105287	-0.175080
N144	N	0.909763	0.605287	0.324920
H145	H	0.365319	0.153375	-0.159537
H146	H	0.865319	0.653375	0.340463
H147	H	0.455527	0.127238	-0.213162
H148	H	0.955527	0.627238	0.286838
N149	N	0.884406	0.008009	0.412626
N150	N	1.384406	0.508009	0.912626
H151	H	0.858593	0.055803	0.372321
H152	H	1.358593	0.555803	0.872321
H153	H	0.891078	-0.046103	0.375732
H154	H	1.391078	0.453897	0.875732
H155	H	0.931193	0.248547	0.580500
H156	H	1.431193	0.748547	1.080500
N157	N	0.587328	-0.018719	-0.095144
N158	N	1.087328	0.481281	0.404856
H159	H	0.626856	-0.030380	-0.041078
H160	H	1.126856	0.469620	0.458922
H161	H	0.543951	-0.060068	-0.094391
H162	H	1.043951	0.439932	0.405609
N163	N	0.833820	0.168695	0.587757
N164	N	1.333820	0.668695	1.087757
H165	H	0.838617	0.117245	0.628958
H166	H	1.338617	0.617245	1.128958
H167	H	0.808571	0.219582	0.623861
H168	H	1.308571	0.719582	1.123861
H169	H	1.021899	-0.024566	0.578635
H170	H	1.521899	0.475434	1.078635
N171	N	0.934925	0.270451	0.412534
N172	N	1.434925	0.770451	0.912534
H173	H	0.941330	0.308637	0.467145
H174	H	1.441330	0.808637	0.967145
H175	H	0.987780	0.266134	0.373817
H176	H	1.487780	0.766134	0.873817
H177	H	1.091576	0.198622	0.578102
H178	H	1.591576	0.698622	1.078102
H179	H	0.399630	0.242041	0.062192
H180	H	0.899630	0.742041	0.562192
H181	H	1.129063	0.085102	0.420531
H182	H	1.629063	0.585102	0.920531
H183	H	1.092334	0.197400	0.419167
H184	H	1.592334	0.697400	0.919167
H185	H	0.909244	0.008229	0.580376
H186	H	1.409244	0.508229	1.080376
N187	N	1.031828	-0.043774	0.410735
N188	N	1.531828	0.456226	0.910735
H189	H	1.073777	-0.020089	0.368706
H190	H	1.573777	0.479911	0.868706
H191	H	1.062407	-0.073515	0.464631
H192	H	1.562407	0.426485	0.964631
N193	N	0.550561	0.256417	-0.083354
N194	N	1.050561	0.756417	0.416646
H195	H	0.613551	0.257667	-0.083281
H196	H	1.113551	0.757667	0.416719
H197	H	0.533342	0.227840	-0.141491
H198	H	1.033342	0.727840	0.358509
H199	H	0.432435	0.000317	0.091792
H200	H	0.932435	0.500317	0.591792
H201	H	0.575644	0.002086	0.090999
H202	H	1.075644	0.502086	0.590999
H203	H	0.563825	0.102025	0.153039
H204	H	1.063825	0.602025	0.653039
