data_functionalizedCrystal
_audit_creation_method	'MofGen! by Chris Wilmer'
_symmetry_space_group_name_H-M	'P1'
_symmetry_Int_Tables_number	1
_symmetry_cell_setting	triclinic
loop_
_symmetry_equiv_pos_as_xyz
  x,y,z
_cell_length_a	14.853567
_cell_length_b	14.853567
_cell_length_c	8.140239
_cell_angle_alpha	90.000276
_cell_angle_beta	90.000249
_cell_angle_gamma	83.634930
loop_
_atom_site_label
_atom_site_type_symbol
_atom_site_fract_x
_atom_site_fract_y
_atom_site_fract_z
O1	O	1.196363	0.117703	-0.136486
O2	O	1.696363	0.617703	0.363514
O3	O	0.933903	0.131724	-0.136512
O4	O	1.433903	0.631724	0.363488
O5	O	1.072144	-0.006516	-0.136503
O6	O	1.572144	0.493484	0.363497
O7	O	1.058122	0.255943	-0.136495
O8	O	1.558122	0.755943	0.363505
O9	O	1.072136	-0.006518	0.136724
O10	O	1.572136	0.493482	0.636724
O11	O	0.933895	0.131723	0.136715
O12	O	1.433895	0.631723	0.636715
O13	O	1.196355	0.117701	0.136741
O14	O	1.696355	0.617701	0.636741
Zn15	Zn	1.065124	0.124712	0.180109
Zn16	Zn	1.565124	0.624712	0.680109
Zn17	Zn	1.065134	0.124714	-0.179880
Zn18	Zn	1.565134	0.624714	0.320120
O19	O	1.058115	0.255942	0.136732
O20	O	1.558115	0.755942	0.636732
C21	C	0.900311	0.131088	0.000097
C22	C	1.400311	0.631088	0.500097
C23	C	0.800227	0.129184	0.000087
C24	C	1.300227	0.629184	0.500087
C25	C	1.071504	-0.040106	0.000105
C26	C	1.571504	0.459894	0.500105
C27	C	1.069601	-0.140189	0.000091
C28	C	1.569601	0.359811	0.500091
C29	C	0.387693	0.039019	0.000121
C30	C	0.887693	0.539019	0.500121
C31	C	0.366412	0.203251	0.000124
C32	C	0.866412	0.703251	0.500124
C33	C	0.460446	0.205042	0.000119
C34	C	0.960446	0.705042	0.500119
C35	C	0.518108	0.123819	0.000112
C36	C	1.018108	0.623819	0.500112
C37	C	0.481736	0.040806	0.000110
C38	C	0.981736	0.540806	0.500110
C39	C	0.496825	0.288053	0.000104
C40	C	0.996825	0.788053	0.500104
C41	C	0.590864	0.289846	0.000097
C42	C	1.090864	0.789846	0.500097
C43	C	0.648528	0.208623	0.000102
C44	C	1.148528	0.708623	0.500102
C45	C	0.612150	0.125607	0.000102
C46	C	1.112150	0.625607	0.500102
C47	C	0.669812	0.044384	0.000095
C48	C	1.169812	0.544384	0.500095
C49	C	0.633437	-0.038633	0.000107
C50	C	1.133437	0.461367	0.500107
C51	C	0.539399	-0.040417	0.000115
C52	C	1.039399	0.459583	0.500115
C53	C	0.742565	0.210407	0.000094
C54	C	1.242565	0.710407	0.500094
C55	C	0.763855	0.046172	0.000085
C56	C	1.263855	0.546172	0.500085
C57	C	0.979435	-0.552723	0.000113
C58	C	1.479435	-0.052723	0.500113
C59	C	1.143668	-0.574004	0.000129
C60	C	1.643668	-0.074004	0.500129
C61	C	1.145458	-0.479971	0.000120
C62	C	1.645458	0.020029	0.500120
C63	C	1.064235	-0.422309	0.000109
C64	C	1.564235	0.077691	0.500109
C65	C	0.981223	-0.458680	0.000108
C66	C	1.481223	0.041320	0.500108
C67	C	1.228469	-0.443591	0.000138
C68	C	1.728469	0.056409	0.500138
C69	C	1.230262	-0.349552	0.000130
C70	C	1.730262	0.150448	0.500130
C71	C	1.149039	-0.291889	0.000108
C72	C	1.649039	0.208111	0.500108
C73	C	1.066023	-0.328266	0.000105
C74	C	1.566023	0.171734	0.500105
C75	C	0.984800	-0.270604	0.000094
C76	C	1.484800	0.229396	0.500094
C77	C	0.901783	-0.306979	0.000080
C78	C	1.401783	0.193021	0.500080
C79	C	0.899999	-0.401017	0.000086
C80	C	1.399999	0.098983	0.500086
C81	C	1.150823	-0.197851	0.000101
C82	C	1.650823	0.302149	0.500101
C83	C	0.986588	-0.176561	0.000090
C84	C	1.486588	0.323439	0.500090
C85	C	1.229947	0.118337	0.000128
C86	C	1.729947	0.618337	0.500128
C87	C	1.330031	0.120241	0.000127
C88	C	1.830031	0.620241	0.500127
C89	C	1.058754	0.289531	0.000120
C90	C	1.558754	0.789531	0.500120
C91	C	1.060657	0.389615	0.000123
C92	C	1.560657	0.889615	0.500123
N93	N	1.065124	0.124710	0.425791
N94	N	1.565124	0.624710	0.925791
N95	N	1.065141	0.124709	-0.425562
N96	N	1.565141	0.624709	0.074438
H97	H	0.810798	-0.019971	0.000086
H98	H	1.310798	0.480029	0.500086
F99	F	0.694815	-0.125073	0.000088
F100	F	1.194815	0.374927	0.500088
F101	F	0.500679	-0.128762	0.000122
F102	F	1.000679	0.371238	0.500122
H103	H	1.218414	-0.168238	0.000124
H104	H	1.718414	0.331762	0.500124
H105	H	0.449870	0.354180	0.000093
H106	H	0.949870	0.854180	0.500093
H107	H	0.358072	-0.028572	0.000137
H108	H	0.858072	0.471428	0.500137
F109	F	1.318615	-0.310847	0.000125
F110	F	1.818615	0.189153	0.500125
F111	F	0.305043	0.289689	0.000112
F112	F	0.805043	0.789689	0.500112
H113	H	0.620472	0.357443	0.000087
H114	H	1.120472	0.857443	0.500087
F115	F	0.815343	-0.245601	0.000081
F116	F	1.315343	0.254399	0.500081
H117	H	0.772178	0.277998	0.000087
H118	H	1.272178	0.777998	0.500087
F119	F	0.900137	-0.115200	0.000067
F120	F	1.400137	0.384800	0.500067
H121	H	0.832411	-0.430643	0.000076
H122	H	1.332411	0.069357	0.500076
H123	H	0.911844	-0.582344	0.000095
H124	H	1.411844	-0.082344	0.500095
H125	H	1.209795	-0.620958	0.000151
H126	H	1.709795	-0.120958	0.500151
H127	H	1.294596	-0.490546	0.000161
H128	H	1.794596	0.009454	0.500161
