data_functionalizedCrystal
_audit_creation_method	'MofGen! by Chris Wilmer'
_symmetry_space_group_name_H-M	'P1'
_symmetry_Int_Tables_number	1
_symmetry_cell_setting	triclinic
loop_
_symmetry_equiv_pos_as_xyz
  x,y,z
_cell_length_a	18.760487
_cell_length_b	14.560438
_cell_length_c	18.760492
_cell_angle_alpha	59.999169
_cell_angle_beta	90.033958
_cell_angle_gamma	60.020077
loop_
_atom_site_label
_atom_site_type_symbol
_atom_site_fract_x
_atom_site_fract_y
_atom_site_fract_z
Zr1	Zr	0.686685	1.005277	-0.093106
O2	O	0.572870	1.196883	-0.206992
O3	O	0.721575	0.813675	-0.058196
O4	O	0.721577	1.005282	-0.206903
O5	O	0.572868	1.005271	0.059019
O6	O	0.838880	1.005281	-0.206831
O7	O	0.572868	1.005276	-0.058285
O8	O	0.838877	0.662532	0.059178
O9	O	0.572870	1.348021	-0.206990
O10	O	0.823998	0.892483	-0.043252
O11	O	0.736455	0.892479	0.044238
O12	O	0.736457	1.118071	-0.130845
O13	O	0.648914	1.118068	-0.043356
Zr14	Zr	0.873768	1.005270	0.094096
Zr15	Zr	0.873770	1.005277	-0.092991
Zr16	Zr	0.686684	1.005270	0.093981
Zr17	Zr	0.686685	1.246325	-0.093103
Zr18	Zr	0.873768	0.764222	0.094092
O19	O	0.838878	1.196872	0.059186
O20	O	0.838880	1.196882	-0.206828
O21	O	0.572868	1.196872	0.059022
O22	O	0.987584	0.813664	0.207981
O23	O	0.987586	0.813675	-0.058033
O24	O	0.721574	0.813665	0.207817
O25	O	0.987586	1.005275	-0.058030
O26	O	0.838877	1.005265	0.207892
O27	O	0.721574	1.005265	0.207820
O28	O	0.987585	1.005271	0.059275
O29	O	0.721577	1.348020	-0.206898
O30	O	0.838876	0.662527	0.207887
O31	O	0.987584	0.662526	0.207979
O32	O	0.987585	0.662532	0.059270
O33	O	0.572869	1.348015	-0.058280
O34	O	0.721576	1.348014	-0.058189
O35	O	0.823997	0.892476	0.131835
O36	O	0.911539	0.892479	0.044345
O37	O	0.823998	1.118068	-0.043248
O38	O	0.736456	1.118064	0.044241
C39	C	0.780226	0.703760	0.000490
C40	C	0.780226	0.601429	0.000489
C41	C	0.546212	1.005274	0.000351
C42	C	0.466790	1.005274	0.000302
C43	C	0.825921	0.553354	-0.045180
C44	C	0.825924	0.457195	-0.045172
C45	C	0.734532	0.457197	0.046175
C46	C	0.734534	0.553348	0.046171
C47	C	0.085278	1.123033	-0.045076
C48	C	0.176677	0.887514	0.046373
C49	C	0.251299	0.887512	0.046298
C50	C	0.242913	1.005273	0.000534
C51	C	0.159905	1.123035	-0.045155
C52	C	0.334311	0.769752	0.091979
C53	C	0.408939	0.769746	0.091905
C54	C	0.400555	0.887507	0.046145
C55	C	0.317541	1.005274	0.000455
C56	C	0.309155	1.123034	-0.045308
C57	C	0.226142	1.240803	-0.090994
C58	C	0.151521	1.240796	-0.090914
C59	C	0.475176	0.887514	0.046066
C60	C	0.383783	1.123036	-0.045387
C61	C	1.014241	1.005273	0.000639
C62	C	1.093663	1.005273	0.000688
C63	C	0.780228	1.005283	-0.233523
C64	C	0.780229	1.005286	-0.312946
C65	C	0.780227	1.306787	0.000499
C66	C	0.780227	1.409118	0.000501
C67	C	0.844852	1.005263	-0.648717
C68	C	0.715600	1.005263	-0.648785
C69	C	0.715598	1.005270	-0.574166
C70	C	0.780226	1.005272	-0.536819
C71	C	0.844854	1.005266	-0.574090
C72	C	0.650976	1.005262	-0.536884
C73	C	0.650973	1.005268	-0.462261
C74	C	0.715597	1.005279	-0.424915
C75	C	0.780228	1.005275	-0.462192
C76	C	0.844855	1.005277	-0.424844
C77	C	0.909483	1.005282	-0.462123
C78	C	0.909479	1.005277	-0.536745
C79	C	0.715602	1.005284	-0.350294
C80	C	0.844857	1.005280	-0.350218
C81	C	0.780225	1.005264	0.234512
C82	C	0.780225	1.005261	0.313936
C83	C	1.014241	0.703759	0.000634
C84	C	1.093663	0.601428	0.000682
C85	C	0.780225	0.703750	0.234508
C86	C	0.780224	0.601416	0.313930
C87	C	1.014239	0.703750	0.234652
C88	C	1.093661	0.601416	0.314123
C89	C	0.546214	1.306797	-0.233662
C90	C	0.466793	1.409131	-0.313133
C91	C	0.546213	1.306788	0.000355
C92	C	0.466791	1.409119	0.000308
C93	C	0.780229	1.306796	-0.233518
C94	C	0.780229	1.409131	-0.312940
C95	C	1.085265	0.553374	-0.045029
C96	C	1.159883	0.457236	-0.045002
C97	C	1.242899	0.409148	0.000741
C98	C	1.251295	0.457211	0.046453
C99	C	1.176678	0.553354	0.046420
C100	C	0.825919	0.553357	0.396960
C101	C	0.825915	0.457217	0.471592
C102	C	0.780221	0.409131	0.463193
C103	C	0.734520	0.457199	0.380154
C104	C	0.734519	0.553345	0.305524
C105	C	1.176662	0.553360	0.305775
C106	C	1.251294	0.457220	0.380439
C107	C	1.242923	0.409130	0.463450
C108	C	1.159913	0.457195	0.471797
C109	C	1.085283	0.553340	0.397133
C110	C	0.383792	1.457198	-0.304785
C111	C	0.309159	1.553369	-0.379449
C112	C	0.317530	1.601464	-0.462461
C113	C	0.400540	1.553392	-0.470807
C114	C	0.475171	1.457230	-0.396144
C115	C	0.475189	1.457183	0.046010
C116	C	0.400571	1.553347	0.045963
C117	C	0.317555	1.601439	0.000217
C118	C	0.309158	1.553371	-0.045491
C119	C	0.383776	1.457215	-0.045448
C120	C	0.825933	1.457186	-0.304513
C121	C	0.825951	1.553327	-0.379131
C122	C	0.780259	1.601417	-0.462176
C123	C	0.734554	1.553352	-0.470602
C124	C	0.734542	1.457206	-0.395984
H125	H	0.863134	0.418054	-0.082358
H126	H	0.241557	1.592542	-0.082736
O127	O	0.409566	1.605266	-0.560343
H128	H	0.377747	1.586809	-0.596537
O129	O	1.340834	0.405338	0.095793
H130	H	1.377006	0.299273	0.146317
O131	O	0.343350	0.642750	0.141327
H132	H	0.379674	0.586266	0.211559
H133	H	0.897482	1.005288	-0.319816
H134	H	0.697321	1.418090	-0.402858
H135	H	0.697329	0.418039	0.083367
H136	H	0.697323	0.592489	0.083364
H137	H	0.241576	1.592492	-0.372636
O138	O	0.374738	1.250050	-0.094751
H139	H	0.304479	1.331933	-0.126508
O140	O	0.237085	1.705118	0.000208
H141	H	0.237141	1.792724	-0.028367
O142	O	0.498471	0.642734	0.141180
H143	H	0.491763	0.560850	0.173019
H144	H	0.697354	1.592522	-0.538227
H145	H	0.863130	0.592498	0.403815
H146	H	1.017676	0.592527	-0.082289
H147	H	0.780228	0.330843	0.523969
O148	O	1.340827	0.405403	0.371443
H149	H	1.377039	0.299330	0.403291
O150	O	0.685242	0.405319	0.371108
H151	H	0.653457	0.454888	0.300834
O152	O	0.374714	1.405365	-0.094735
H153	H	0.304450	1.454958	-0.126540
H154	H	0.542752	1.418095	-0.402951
O155	O	0.995759	0.605160	0.406141
H156	H	0.959579	0.586700	0.374307
H157	H	0.083927	1.336677	-0.128108
H158	H	0.863140	1.418046	-0.236901
O159	O	1.150815	0.405409	-0.094307
H160	H	1.182635	0.299339	-0.048162
O161	O	0.685372	0.604996	0.215969
H162	H	0.653657	0.555328	0.222677
H163	H	1.153110	0.418026	0.539394
H164	H	1.183495	0.592501	0.238189
H165	H	0.407424	1.592468	0.083187
O166	O	0.875208	0.605207	-0.094440
H167	H	0.906990	0.555610	-0.126188
H168	H	0.542778	1.418034	0.083268
O169	O	0.875245	1.605163	-0.370035
H170	H	0.907000	1.555580	-0.299751
H171	H	1.183528	0.592467	0.083648
H172	H	0.863134	0.418091	0.539199
O173	O	0.217142	1.367783	-0.140409
H174	H	0.249048	1.373462	-0.094352
O175	O	-0.004249	1.250053	-0.094361
H176	H	-0.054735	1.230277	-0.086627
H177	H	0.542761	0.791629	0.083270
O178	O	0.780263	1.705134	-0.542655
H179	H	0.819712	1.730476	-0.522834
H180	H	1.303699	0.330842	0.524239
H181	H	0.183498	0.791639	0.083629
H182	H	0.962106	1.005275	-0.431703
O183	O	0.374754	1.405334	-0.215255
H184	H	0.338533	1.486045	-0.207683
O185	O	0.979186	1.005269	-0.576944
H186	H	0.968332	1.005249	-0.635101
O187	O	0.914558	1.005264	-0.688915
H188	H	0.903706	1.005256	-0.747078
H189	H	0.662986	1.005252	-0.679192
H190	H	0.256754	1.679764	-0.523249
O191	O	0.581271	1.005267	-0.577164
H192	H	0.592121	1.005284	-0.635324
H193	H	0.598349	1.005266	-0.431914
H194	H	0.662986	1.005271	-0.319941
O195	O	1.323378	0.305441	0.000781
H196	H	1.303582	0.280102	-0.038684
