data_functionalizedCrystal
_audit_creation_method	'MofGen! by Chris Wilmer'
_symmetry_space_group_name_H-M	'P1'
_symmetry_Int_Tables_number	1
_symmetry_cell_setting	triclinic
loop_
_symmetry_equiv_pos_as_xyz
  x,y,z
_cell_length_a	12.759395
_cell_length_b	12.759394
_cell_length_c	12.827893
_cell_angle_alpha	90.007007
_cell_angle_beta	90.004300
_cell_angle_gamma	90.014544
loop_
_atom_site_label
_atom_site_type_symbol
_atom_site_fract_x
_atom_site_fract_y
_atom_site_fract_z
Zn1	Zn	1.606097	-0.418430	0.590864
Zn2	Zn	1.606043	-0.594076	0.416126
Zn3	Zn	1.430448	-0.418414	0.416137
Zn4	Zn	1.430390	-0.594070	0.590824
O5	O	1.518245	-0.506247	0.503488
O6	O	1.753111	-0.441739	0.567697
O7	O	1.582751	-0.570771	0.269891
O8	O	1.453795	-0.271395	0.439336
O9	O	1.753071	-0.570786	0.439317
O10	O	1.582844	-0.271407	0.567708
O11	O	1.453742	-0.441712	0.269899
O12	O	1.283419	-0.441706	0.439297
O13	O	1.453697	-0.570774	0.737065
O14	O	1.283377	-0.570759	0.567639
O15	O	1.582788	-0.441733	0.737095
O16	O	1.582695	-0.741097	0.439278
O17	O	1.453644	-0.741092	0.567628
C18	C	1.245277	-0.506231	0.503465
C19	C	1.128500	-0.506249	0.503481
C20	C	0.909071	-0.640873	0.636947
C21	C	0.963941	-0.708164	0.703655
C22	C	1.073662	-0.708151	0.703642
C23	C	1.128517	-0.640842	0.636910
C24	C	1.073648	-0.573552	0.570202
C25	C	0.963924	-0.573570	0.570225
C26	C	1.073631	-0.438958	0.436772
C27	C	0.963910	-0.438964	0.436789
C28	C	1.128486	-0.371650	0.370041
C29	C	1.073617	-0.304353	0.303337
C30	C	0.963889	-0.304368	0.303354
C31	C	0.909040	-0.371674	0.370081
C32	C	1.518186	-0.779215	0.503470
C33	C	1.518257	-0.895992	0.503498
C34	C	1.652535	-0.895846	0.637272
C35	C	1.719707	-0.950633	0.704166
C36	C	1.719770	-1.060355	0.704189
C37	C	1.652651	-1.115291	0.637312
C38	C	1.585479	-1.060504	0.570417
C39	C	1.585426	-0.950779	0.570400
C40	C	1.451197	-1.060650	0.436650
C41	C	1.451138	-0.950928	0.436621
C42	C	1.384078	-1.115586	0.369773
C43	C	1.316910	-1.060798	0.302871
C44	C	1.316851	-0.951070	0.302851
C45	C	1.383966	-0.896140	0.369726
C46	C	1.792278	-0.506265	0.503511
C47	C	1.909055	-0.506273	0.503520
C48	C	1.518242	-0.506254	0.776058
C49	C	1.518241	-0.506257	0.892211
C50	C	1.518332	-0.232214	0.503528
C51	C	1.518369	-0.115437	0.503545
C52	C	1.582112	-0.442411	0.944010
C53	C	1.582112	-0.442413	1.064061
C54	C	1.518239	-0.506264	1.231978
C55	C	1.518240	-0.506261	1.115825
H56	H	1.217858	-0.640847	0.636896
H57	H	1.636798	-0.387756	1.108607
F58	F	0.905501	-0.232752	0.232346
F59	F	0.792265	-0.371691	0.370109
F60	F	1.446766	-0.577718	1.057610
F61	F	1.245477	-1.119271	0.231713
H62	H	1.463552	-0.560912	0.936740
F63	F	1.653567	-0.370940	0.885813
F64	F	1.791258	-1.118666	0.775388
F65	F	1.245351	-0.892769	0.231655
F66	F	1.132060	-0.779773	0.774634
F67	F	0.905553	-0.779806	0.774659
F68	F	0.792296	-0.640881	0.636978
F69	F	1.245262	-0.371643	0.370024
H70	H	1.118289	-0.249561	0.249005
F71	F	1.652465	-0.779070	0.637263
H72	H	1.774353	-0.905895	0.758620
F73	F	1.652837	-1.232067	0.637223
H74	H	1.384130	-1.204927	0.369800
F75	F	1.383897	-0.779365	0.369722
