data_functionalizedCrystal
_audit_creation_method	'MofGen! by Chris Wilmer'
_symmetry_space_group_name_H-M	'P1'
_symmetry_Int_Tables_number	1
_symmetry_cell_setting	triclinic
loop_
_symmetry_equiv_pos_as_xyz
  x,y,z
_cell_length_a	11.792241
_cell_length_b	17.699083
_cell_length_c	16.176319
_cell_angle_alpha	90.005848
_cell_angle_beta	89.996769
_cell_angle_gamma	83.738215
loop_
_atom_site_label
_atom_site_type_symbol
_atom_site_fract_x
_atom_site_fract_y
_atom_site_fract_z
O1	O	1.505671	0.103731	-0.068654
O2	O	2.005671	0.603731	0.431346
O3	O	1.175202	0.114422	-0.068671
O4	O	1.675202	0.614422	0.431329
O5	O	1.349773	-0.001063	-0.068670
O6	O	1.849773	0.498937	0.431330
O7	O	1.331100	0.219216	-0.068655
O8	O	1.831100	0.719216	0.431345
O9	O	1.349747	-0.001056	0.068823
O10	O	1.849747	0.498944	0.568823
O11	O	1.175175	0.114429	0.068822
O12	O	1.675175	0.614429	0.568822
O13	O	1.505645	0.103737	0.068840
O14	O	2.005645	0.603737	0.568840
Cu15	Cu	1.340408	0.109084	0.081385
Cu16	Cu	1.840408	0.609084	0.581385
Cu17	Cu	1.340439	0.109076	-0.081217
Cu18	Cu	1.840439	0.609076	0.418783
O19	O	1.331074	0.219222	0.068838
O20	O	1.831074	0.719222	0.568838
C21	C	1.132906	0.113754	0.000073
C22	C	1.632906	0.613754	0.500073
C23	C	1.006916	0.111744	0.000065
C24	C	1.506916	0.611744	0.500065
C25	C	0.776248	0.108048	0.000089
C26	C	1.276248	0.608048	0.500089
C27	C	0.904609	0.110101	0.000076
C28	C	1.404609	0.610101	0.500076
C29	C	1.349091	-0.029260	0.000073
C30	C	1.849091	0.470740	0.500073
C31	C	1.347083	-0.113289	0.000061
C32	C	1.847083	0.386711	0.500061
C33	C	1.547941	0.104406	0.000094
C34	C	2.047941	0.604406	0.500094
C35	C	1.673930	0.106416	0.000096
C36	C	2.173930	0.606416	0.500096
C37	C	1.331756	0.247420	0.000094
C38	C	1.831756	0.747420	0.500094
C39	C	1.333763	0.331449	0.000100
C40	C	1.833763	0.831449	0.500100
N41	N	1.340394	0.109088	0.195750
N42	N	1.840394	0.609088	0.695750
C43	C	1.231293	0.379523	0.000094
C44	C	1.731293	0.879523	0.500094
C45	C	1.233186	0.458477	0.000085
C46	C	1.733186	0.958477	0.500085
C47	C	1.337550	0.489354	0.000087
C48	C	1.837550	0.989354	0.500087
C49	C	1.440027	0.441273	0.000090
C50	C	1.940027	0.941273	0.500090
C51	C	1.438133	0.362321	0.000093
C52	C	1.938133	0.862321	0.500093
C53	C	1.447668	0.759677	0.000074
C54	C	1.947668	1.259677	0.500074
C55	C	1.449554	0.838635	0.000073
C56	C	1.949554	1.338635	0.500073
C57	C	1.242721	0.855832	0.000065
C58	C	1.742721	1.355832	0.500065
C59	C	1.240827	0.776881	0.000069
C60	C	1.740827	1.276881	0.500069
C61	C	1.343304	0.728807	0.000067
C62	C	1.843304	1.228807	0.500067
C63	C	1.341250	0.643196	0.000076
C64	C	1.841250	1.143196	0.500076
C65	C	1.339605	0.574962	0.000084
C66	C	1.839605	1.074962	0.500084
N67	N	1.340461	0.109065	-0.195582
N68	N	1.840461	0.609065	0.304418
C69	C	1.417771	0.057947	0.761133
C70	C	1.917771	0.557947	1.261133
C71	C	1.417766	0.057952	0.674586
C72	C	1.917766	0.557952	1.174586
C73	C	1.340445	0.109073	0.631325
C74	C	1.840445	0.609073	1.131325
C75	C	1.263132	0.160196	0.674616
C76	C	1.763132	0.660196	1.174616
C77	C	1.263143	0.160194	0.761162
C78	C	1.763143	0.660194	1.261162
C79	C	1.263086	0.160207	0.325588
C80	C	1.763086	0.660207	0.825588
C81	C	1.263078	0.160203	0.239036
C82	C	1.763078	0.660203	0.739036
C83	C	1.417709	0.057965	0.239012
C84	C	1.917709	0.557965	0.739012
C85	C	1.417720	0.057963	0.325558
C86	C	1.917720	0.557963	0.825558
C87	C	1.340411	0.109089	0.368841
C88	C	1.840411	0.609089	0.868841
C89	C	1.340419	0.109084	0.462685
C90	C	1.840419	0.609084	0.962685
C91	C	1.340431	0.109075	0.537483
C92	C	1.840431	0.609075	1.037483
H93	H	1.146309	0.354390	0.000102
H94	H	1.646309	0.854390	0.500102
H95	H	1.480678	0.016334	0.360778
H96	H	1.980678	0.516334	0.860778
H97	H	1.525002	0.466419	0.000093
H98	H	2.025002	0.966419	0.500093
H99	H	1.521575	0.323179	0.000094
H100	H	2.021575	0.823179	0.500094
Cl101	Cl	1.104361	0.518911	0.000070
Cl102	Cl	1.604361	1.018911	0.500070
Cl103	Cl	1.576497	0.699251	0.000081
Cl104	Cl	2.076497	1.199251	0.500081
Cl105	Cl	1.514904	-0.006306	0.184595
Cl106	Cl	2.014904	0.493694	0.684595
H107	H	1.155844	0.751745	0.000072
H108	H	1.655844	1.251745	0.500072
H109	H	1.200179	0.201823	0.639388
H110	H	1.700179	0.701823	1.139388
H111	H	1.480730	0.016316	0.796350
H112	H	1.980730	0.516316	1.296350
H113	H	1.480718	0.016329	0.639344
H114	H	1.980718	0.516329	1.139344
H115	H	1.200112	0.201835	0.203815
H116	H	1.700112	0.701835	0.703815
Cl117	Cl	1.165953	0.224463	0.815576
Cl118	Cl	1.665953	0.724463	1.315576
Cl119	Cl	1.113890	0.916273	0.000061
Cl120	Cl	1.613890	1.416273	0.500061
Cl121	Cl	1.580765	0.877450	0.000072
Cl122	Cl	2.080765	1.377450	0.500072
H123	H	1.200136	0.201834	0.360823
H124	H	1.700136	0.701834	0.860823
