data_functionalizedCrystal
_audit_creation_method	'MofGen! by Chris Wilmer'
_symmetry_space_group_name_H-M	'P1'
_symmetry_Int_Tables_number	1
_symmetry_cell_setting	triclinic
loop_
_symmetry_equiv_pos_as_xyz
  x,y,z
_cell_length_a	12.759401
_cell_length_b	12.759399
_cell_length_c	12.759401
_cell_angle_alpha	89.989984
_cell_angle_beta	89.992432
_cell_angle_gamma	90.014390
loop_
_atom_site_label
_atom_site_type_symbol
_atom_site_fract_x
_atom_site_fract_y
_atom_site_fract_z
Zn1	Zn	-1.606083	0.418452	0.594129
Zn2	Zn	-1.606026	0.594104	0.418448
Zn3	Zn	-1.430435	0.418437	0.418452
Zn4	Zn	-1.430372	0.594088	0.594073
O5	O	-1.518229	0.506270	0.506276
O6	O	-1.753097	0.441766	0.570847
O7	O	-1.582736	0.570802	0.271428
O8	O	-1.453785	0.271418	0.441781
O9	O	-1.753055	0.570816	0.441774
O10	O	-1.582833	0.271429	0.570850
O11	O	-1.453730	0.441740	0.271431
O12	O	-1.283406	0.441725	0.441727
O13	O	-1.453678	0.570789	0.741101
O14	O	-1.283360	0.570774	0.570755
O15	O	-1.582772	0.441750	0.741143
O16	O	-1.582675	0.741123	0.441720
O17	O	-1.453623	0.741111	0.570751
C18	C	-1.245262	0.506247	0.506236
C19	C	-1.128485	0.506262	0.506243
C20	C	-1.073598	0.573350	0.438946
C21	C	-0.963874	0.573366	0.438968
C22	C	-0.963934	0.439197	0.573587
C23	C	-1.073656	0.439187	0.573570
C24	C	-0.813892	0.697227	0.401239
C25	C	-0.759001	0.764306	0.333925
C26	C	-0.794580	0.780272	0.231377
C27	C	-0.885048	0.729144	0.196122
C28	C	-0.939933	0.662057	0.263430
C29	C	-0.904356	0.646111	0.365992
C30	C	-1.223639	0.315325	0.611289
C31	C	-1.278527	0.248232	0.678592
C32	C	-1.242951	0.232255	0.781142
C33	C	-1.152479	0.283364	0.816393
C34	C	-1.097592	0.350457	0.749090
C35	C	-1.133176	0.366436	0.646541
C36	C	-1.518225	0.506269	0.780309
C37	C	-1.518223	0.506269	0.897085
C38	C	-1.518165	0.779238	0.506252
C39	C	-1.518233	0.896014	0.506277
C40	C	-0.792262	0.506290	0.506304
C41	C	-0.909039	0.506288	0.506283
C42	C	-1.518322	0.232237	0.506323
C43	C	-1.518362	0.115460	0.506343
C44	C	-1.585507	0.950848	0.439167
C45	C	-1.585575	1.060572	0.439202
C46	C	-1.451085	1.060619	0.573460
C47	C	-1.451024	0.950897	0.573429
C48	C	-1.709595	1.210438	0.401823
C49	C	-1.776860	1.265275	0.334697
C50	C	-1.793053	1.229698	0.232188
C51	C	-1.741967	1.139285	0.196784
C52	C	-1.674695	1.084454	0.263905
C53	C	-1.658521	1.120030	0.366429
C54	C	-1.327002	0.801029	0.610797
C55	C	-1.259724	0.746195	0.677913
C56	C	-1.243519	0.781771	0.780424
C57	C	-1.294587	0.872187	0.815824
C58	C	-1.361866	0.927020	0.748708
C59	C	-1.378072	0.891437	0.646198
C60	C	-1.451058	0.439076	0.951948
C61	C	-1.451051	0.439085	1.061673
C62	C	-1.585383	0.573485	1.061661
C63	C	-1.585384	0.573480	0.951939
C64	C	-1.327158	0.401541	1.211614
C65	C	-1.260003	0.334331	1.266481
C66	C	-1.243909	0.231814	1.230891
C67	C	-1.294987	0.196485	1.140435
C68	C	-1.362150	0.263689	1.085574
C69	C	-1.378224	0.366221	1.121163
C70	C	-1.709278	0.611013	0.801995
C71	C	-1.776448	0.678213	0.747132
C72	C	-1.792552	0.780732	0.782720
C73	C	-1.741493	0.816057	0.873179
C74	C	-1.674323	0.748858	0.928042
C75	C	-1.658217	0.646339	0.892446
C76	C	-1.518223	0.506292	1.233308
C77	C	-1.518215	0.506284	1.116532
H78	H	-1.023917	0.392062	0.777796
H79	H	-1.118236	0.627970	0.384127
F80	F	-0.776031	0.680254	0.510389
F81	F	-1.036200	0.607632	0.225910
H82	H	-1.696142	0.527544	0.772990
F83	F	-1.261515	0.332334	0.502144
F84	F	-1.379558	1.119039	0.644922
F85	F	-1.692378	1.248301	0.510931
H86	H	-1.640064	0.628205	1.106336
H87	H	-1.287644	0.177610	0.835935
H88	H	-0.685341	0.805933	0.362639
H89	H	-1.818034	0.649438	0.673484
H90	H	-1.754610	0.899536	0.902159
F91	F	-0.922895	0.746126	0.086968
F92	F	-1.416218	1.023250	0.786386
F93	F	-1.277342	0.910052	0.924928
F94	F	-1.171863	0.723443	0.851833
H95	H	-1.818455	1.338889	0.363532
F96	F	-0.905573	0.367814	0.645236
F97	F	-1.864642	1.288064	0.160749
H98	H	-1.189229	0.177091	1.275571
H99	H	-1.632750	0.777627	1.001700
F100	F	-1.205343	0.649986	0.640222
F101	F	-1.759196	1.101435	0.087674
H102	H	-1.123506	0.270347	0.899895
F103	F	-1.344251	0.763156	0.501693
F104	F	-1.379576	0.367547	0.893573
H105	H	-1.218415	0.363106	1.340130
H106	H	-1.640235	0.906164	0.384488
H107	H	-0.749882	0.834894	0.176572
H108	H	-1.403741	0.234923	1.011931
H109	H	-1.352189	0.206609	0.649878
H110	H	-1.633103	1.010841	0.235081
F111	F	-1.277868	0.087364	1.102573
F112	F	-1.344264	0.510660	1.249488
H113	H	-1.847257	0.835442	0.738046
