data_functionalizedCrystal
_audit_creation_method	'MofGen! by Chris Wilmer'
_symmetry_space_group_name_H-M	'P1'
_symmetry_Int_Tables_number	1
_symmetry_cell_setting	triclinic
loop_
_symmetry_equiv_pos_as_xyz
  x,y,z
_cell_length_a	19.077399
_cell_length_b	16.120484
_cell_length_c	19.076919
_cell_angle_alpha	84.953390
_cell_angle_beta	85.520477
_cell_angle_gamma	95.103433
loop_
_atom_site_label
_atom_site_type_symbol
_atom_site_fract_x
_atom_site_fract_y
_atom_site_fract_z
Zn1	Zn	1.048310	-0.299593	0.368742
Zn2	Zn	1.548310	0.200407	0.868742
Zn3	Zn	1.046980	-0.433749	0.256839
Zn4	Zn	1.546980	0.066251	0.756839
Zn5	Zn	0.935164	-0.299615	0.255597
Zn6	Zn	1.435164	0.200385	0.755597
Zn7	Zn	0.923888	-0.445419	0.379927
Zn8	Zn	1.423888	0.054581	0.879927
O9	O	0.988585	-0.369594	0.315276
O10	O	1.488585	0.130406	0.815276
O11	O	1.147000	-0.312495	0.349736
O12	O	1.647000	0.187505	0.849736
O13	O	1.036310	-0.411082	0.157810
O14	O	1.536310	0.088918	0.657810
O15	O	0.955449	-0.182448	0.265405
O16	O	1.455449	0.317552	0.765405
O17	O	1.146023	-0.411060	0.267522
O18	O	1.646023	0.088940	0.767522
O19	O	1.038577	-0.182431	0.348532
O20	O	1.538577	0.317569	0.848532
O21	O	0.954159	-0.312534	0.156898
O22	O	1.454159	0.187466	0.656898
O23	O	0.834802	-0.323850	0.276251
O24	O	1.334802	0.176150	0.776251
O25	O	0.936230	-0.430950	0.477308
O26	O	1.436230	0.069050	0.977308
O27	O	0.826517	-0.430972	0.367596
O28	O	1.326517	0.069028	0.867596
O29	O	1.027643	-0.323811	0.469090
O30	O	1.527643	0.176189	0.969090
O31	O	1.025375	-0.552462	0.278368
O32	O	1.525375	-0.052462	0.778368
O33	O	0.934940	-0.561036	0.368800
O34	O	1.434940	-0.061036	0.868800
C35	C	0.805024	-0.378680	0.323003
C36	C	1.305024	0.121320	0.823003
C37	C	0.726494	-0.382588	0.326327
C38	C	1.226494	0.117412	0.826327
C39	C	0.693894	-0.328575	0.280400
C40	C	1.193894	0.171425	0.780400
C41	C	0.620106	-0.332254	0.283523
C42	C	1.120106	0.167746	0.783523
C43	C	0.578921	-0.389944	0.332576
C44	C	1.078921	0.110056	0.832576
C45	C	0.611526	-0.443963	0.378504
C46	C	1.111526	0.056037	0.878504
C47	C	0.685312	-0.440287	0.375378
C48	C	1.185312	0.059713	0.875378
C49	C	0.357783	-0.406930	0.347016
C50	C	0.857783	0.093070	0.847016
C51	C	0.283992	-0.410600	0.350141
C52	C	0.783992	0.089400	0.850141
C53	C	0.292578	-0.298892	0.255158
C54	C	0.792578	0.201108	0.755158
C55	C	0.366365	-0.295218	0.252038
C56	C	0.866365	0.204782	0.752038
C57	C	0.398964	-0.349240	0.297964
C58	C	0.898964	0.150760	0.797964
N59	N	0.503498	-0.393704	0.335770
N60	N	1.003498	0.106296	0.835770
N61	N	0.474385	-0.345483	0.294766
N62	N	0.974385	0.154517	0.794766
C63	C	0.978808	-0.587128	0.324947
C64	C	1.478808	-0.087128	0.824947
C65	C	0.974689	-0.680188	0.329105
C66	C	1.474689	-0.180188	0.829105
C67	C	0.967172	-0.850570	0.336711
C68	C	1.467172	-0.350570	0.836711
C69	C	1.010125	-0.887772	0.293848
C70	C	1.510125	-0.387772	0.793848
C71	C	1.005942	-0.982578	0.298080
C72	C	1.505942	-0.482578	0.798080
C73	C	0.971354	-0.755755	0.332480
C74	C	1.471354	-0.255755	0.832480
C75	C	1.172863	-0.360473	0.307520
C76	C	1.672863	0.139527	0.807520
C77	C	1.251392	-0.356586	0.304214
C78	C	1.751392	0.143414	0.804214
C79	C	0.980827	-0.378680	0.499550
C80	C	1.480827	0.121320	0.999550
C81	C	0.977521	-0.382551	0.578077
C82	C	1.477521	0.117449	1.078077
C83	C	0.998419	-0.151210	0.305583
C84	C	1.498419	0.348790	0.805583
C85	C	1.002610	-0.058148	0.301452
C86	C	1.502610	0.441852	0.801452
C87	C	0.996357	-0.360482	0.131715
C88	C	1.496357	0.139518	0.631715
C89	C	0.999810	-0.356367	0.053173
C90	C	1.499810	0.143633	0.553173
C91	C	1.023559	-0.328592	0.610691
C92	C	1.523559	0.171408	1.110691
C93	C	1.020444	-0.332227	0.684476
C94	C	1.520444	0.167773	1.184476
C95	C	0.971294	-0.389826	0.725644
C96	C	1.471294	0.110174	1.225644
C97	C	0.925251	-0.443788	0.693024
C98	C	1.425251	0.056212	1.193024
C99	C	0.928363	-0.440149	0.619241
C100	C	1.428363	0.059851	1.119241
C101	C	0.956880	-0.406690	0.946770
C102	C	1.456880	0.093310	1.446770
C103	C	0.953772	-0.410327	1.020558
C104	C	1.453772	0.089673	1.520558
C105	C	1.048965	-0.298764	1.012004
C106	C	1.548965	0.201236	1.512004
C107	C	1.052076	-0.295133	0.938220
C108	C	1.552076	0.204867	1.438220
C109	C	1.006030	-0.349092	0.905607
C110	C	1.506030	0.150908	1.405607
N111	N	0.968110	-0.393545	0.801063
N112	N	1.468110	0.106455	1.301063
N113	N	1.009211	-0.345368	0.830189
N114	N	1.509211	0.154632	1.330189
H115	H	0.593567	-0.288275	0.246121
H116	H	1.093567	0.211725	0.746121
H117	H	0.384316	-0.450919	0.384412
H118	H	0.884316	0.049081	0.884412
O119	O	0.243912	-0.466685	0.397703
O120	O	0.743912	0.033315	0.897703
C121	C	0.200504	-0.520840	0.361618
C122	C	0.700504	-0.020840	0.861618
H123	H	0.193011	-0.489125	0.307272
H124	H	0.693011	0.010875	0.807272
H125	H	0.146912	-0.536115	0.393084
H126	H	0.646912	-0.036115	0.893084
H127	H	0.226487	-0.581070	0.355319
H128	H	0.726487	-0.081070	0.855319
O129	O	1.099865	-0.239275	0.898188
O130	O	1.599865	0.260725	1.398188
C131	C	1.145141	-0.282552	0.855673
C132	C	1.645141	0.217448	1.355673
H133	H	1.145639	-0.349369	0.880650
H134	H	1.645639	0.150631	1.380650
H135	H	1.200900	-0.249502	0.851178
H136	H	1.700900	0.250498	1.351178
H137	H	1.125498	-0.283778	0.800813
H138	H	1.625498	0.216222	1.300813
H139	H	0.927261	-0.889919	0.376581
H140	H	1.427261	-0.389919	0.876581
H141	H	1.063584	-0.281690	0.577177
H142	H	1.563584	0.218310	1.077177
O143	O	0.406441	-0.239289	0.204351
O144	O	0.906441	0.260711	0.704351
C145	C	0.448889	-0.282491	0.158948
C146	C	0.948889	0.217509	0.658948
H147	H	0.456063	-0.346660	0.186130
H148	H	0.956063	0.153340	0.686130
H149	H	0.502697	-0.245317	0.145810
H150	H	1.002697	0.254683	0.645810
H151	H	0.422233	-0.290430	0.108191
H152	H	0.922233	0.209570	0.608191
H153	H	1.050038	-0.848420	0.253974
H154	H	1.550038	-0.348420	0.753974
H155	H	0.577986	-0.490938	0.418441
H156	H	1.077986	0.009062	0.918441
O157	O	1.065241	-0.279778	0.716044
O158	O	1.565241	0.220222	1.216044
C159	C	1.109280	-0.228150	0.663886
C160	C	1.609280	0.271850	1.163886
H161	H	1.112398	-0.259731	0.612711
H162	H	1.612398	0.240269	1.112711
H163	H	1.164449	-0.217520	0.682469
H164	H	1.664449	0.282480	1.182469
H165	H	1.086608	-0.165452	0.654302
H166	H	1.586608	0.334548	1.154302
H167	H	1.086452	-0.254833	1.038566
H168	H	1.586452	0.245167	1.538566
O169	O	0.717014	-0.492836	0.419894
O170	O	1.217014	0.007164	0.919894
C171	C	0.758973	-0.542712	0.380188
C172	C	1.258973	-0.042712	0.880188
H173	H	0.738837	-0.546145	0.325706
H174	H	1.238837	-0.046145	0.825706
H175	H	0.755855	-0.608406	0.408481
H176	H	1.255855	-0.108406	0.908481
H177	H	0.816155	-0.513917	0.374269
H178	H	1.316155	-0.013917	0.874269
O179	O	0.906080	-0.466248	1.060656
O180	O	1.406080	0.033752	1.560656
C181	C	0.913197	-0.457871	1.132771
C182	C	1.413197	0.042129	1.632771
H183	H	0.968536	-0.428263	1.139337
H184	H	1.468536	0.071737	1.639337
H185	H	0.904386	-0.522203	1.163802
H186	H	1.404386	-0.022203	1.663802
H187	H	0.872426	-0.416377	1.153488
H188	H	1.372426	0.083623	1.653488
H189	H	0.919396	-0.450639	0.920226
H190	H	1.419396	0.049361	1.420226
O191	O	0.877568	-0.499715	0.733118
O192	O	1.377568	0.000285	1.233118
C193	C	0.884681	-0.491345	0.805235
C194	C	1.384681	0.008655	1.305235
H195	H	0.940014	-0.461725	0.811805
H196	H	1.440014	0.038275	1.311805
H197	H	0.875880	-0.555680	0.836260
H198	H	1.375880	-0.055680	1.336260
H199	H	0.843900	-0.449863	0.825956
H200	H	1.343900	0.050137	1.325956
H201	H	0.890867	-0.484080	0.592688
H202	H	1.390867	0.015920	1.092688
H203	H	0.266028	-0.254911	0.217767
H204	H	0.766028	0.245089	0.717767
H205	H	0.727423	-0.281592	0.240461
H206	H	1.227423	0.218408	0.740461
