data_functionalizedCrystal
_audit_creation_method	'MofGen! by Chris Wilmer'
_symmetry_space_group_name_H-M	'P1'
_symmetry_Int_Tables_number	1
_symmetry_cell_setting	triclinic
loop_
_symmetry_equiv_pos_as_xyz
  x,y,z
_cell_length_a	12.759401
_cell_length_b	18.101395
_cell_length_c	12.759393
_cell_angle_alpha	89.967630
_cell_angle_beta	89.979062
_cell_angle_gamma	90.032629
loop_
_atom_site_label
_atom_site_type_symbol
_atom_site_fract_x
_atom_site_fract_y
_atom_site_fract_z
Zn1	Zn	1.606147	-0.294764	-0.594006
Zn2	Zn	2.106147	0.205236	-0.094006
Zn3	Zn	1.605987	-0.418623	-0.418321
Zn4	Zn	2.105987	0.081377	0.081679
Zn5	Zn	1.430445	-0.294803	-0.418342
Zn6	Zn	1.930445	0.205197	0.081658
Zn7	Zn	1.430387	-0.418571	-0.593958
Zn8	Zn	1.930387	0.081429	-0.093958
O9	O	1.518242	-0.356690	-0.506157
O10	O	2.018242	0.143310	-0.006157
O11	O	1.753147	-0.311199	-0.570713
O12	O	2.253147	0.188801	-0.070713
O13	O	1.582659	-0.402236	-0.271302
O14	O	2.082659	0.097764	0.228698
O15	O	1.453844	-0.191165	-0.441673
O16	O	1.953844	0.308835	0.058327
O17	O	1.753030	-0.402198	-0.441637
O18	O	2.253030	0.097802	0.058363
O19	O	1.582931	-0.191136	-0.570733
O20	O	2.082931	0.308864	-0.070733
O21	O	1.453689	-0.311266	-0.271318
O22	O	1.953689	0.188734	0.228682
O23	O	1.283417	-0.311216	-0.441626
O24	O	1.783417	0.188784	0.058374
O25	O	1.453744	-0.402110	-0.740986
O26	O	1.953744	0.097890	-0.240986
O27	O	1.283374	-0.402148	-0.570651
O28	O	1.783374	0.097852	-0.070651
O29	O	1.582874	-0.311149	-0.741021
O30	O	2.082874	0.188851	-0.241021
O31	O	1.582603	-0.522249	-0.441590
O32	O	2.082603	-0.022249	0.058410
O33	O	1.453590	-0.522211	-0.570630
O34	O	1.953590	-0.022211	-0.070630
C35	C	1.245274	-0.356681	-0.506136
C36	C	1.745274	0.143319	-0.006136
C37	C	1.128498	-0.356695	-0.506152
C38	C	1.628498	0.143305	-0.006152
C39	C	1.073641	-0.404115	-0.573229
C40	C	1.573641	0.095885	-0.073229
C41	C	0.963917	-0.404118	-0.573250
C42	C	1.463917	0.095882	-0.073250
C43	C	0.963916	-0.309278	-0.439107
C44	C	1.463916	0.190722	0.060893
C45	C	1.073638	-0.309272	-0.439092
C46	C	1.573638	0.190728	0.060908
C47	C	1.518101	-0.549101	-0.506126
C48	C	2.018101	-0.049101	-0.006126
C49	C	1.518137	-0.631415	-0.506148
C50	C	2.018137	-0.131415	-0.006148
C51	C	1.518368	-0.930506	-0.506204
C52	C	2.018368	-0.430506	-0.006204
C53	C	1.437384	-0.899187	-0.587594
C54	C	1.937384	-0.399187	-0.087594
C55	C	1.436999	-0.813570	-0.587340
C56	C	1.936999	-0.313570	-0.087340
C57	C	1.518253	-0.782123	-0.506177
C58	C	2.018253	-0.282123	-0.006177
C59	C	1.488271	-0.813282	-0.395451
C60	C	1.988271	-0.313282	0.104549
C61	C	1.487748	-0.898927	-0.395938
C62	C	1.987748	-0.398927	0.104062
C63	C	1.629511	-0.898846	-0.534565
C64	C	2.129511	-0.398846	-0.034565
C65	C	1.628857	-0.813194	-0.536994
C66	C	2.128857	-0.313194	-0.036994
C67	C	1.518190	-0.698264	-0.506155
C68	C	2.018190	-0.198264	-0.006155
C69	C	1.518428	-1.014365	-0.506219
C70	C	2.018428	-0.514365	-0.006219
C71	C	1.792275	-0.356700	-0.506178
C72	C	2.292275	0.143300	-0.006178
C73	C	1.909051	-0.356704	-0.506187
C74	C	2.409051	0.143296	-0.006187
C75	C	1.518320	-0.356619	-0.780190
C76	C	2.018320	0.143381	-0.280190
C77	C	1.518354	-0.356589	-0.896967
C78	C	2.018354	0.143411	-0.396967
C79	C	1.518411	-0.163528	-0.506211
C80	C	2.018411	0.336472	-0.006211
C81	C	1.518484	-0.081214	-0.506234
C82	C	2.018484	0.418786	-0.006234
C83	C	1.585597	-0.309218	-0.951849
C84	C	2.085597	0.190782	-0.451849
C85	C	1.585614	-0.309186	-1.061573
C86	C	2.085614	0.190814	-0.561573
C87	C	1.451143	-0.403902	-1.061523
C88	C	1.951143	0.096098	-0.561523
C89	C	1.451121	-0.403930	-0.951801
C90	C	1.951121	0.096070	-0.451801
C91	C	1.518224	-0.356708	-0.233189
C92	C	2.018224	0.143292	0.266811
C93	C	1.518394	-0.356529	-0.116413
C94	C	2.018394	0.143471	0.383587
H95	H	1.455759	-0.792500	-0.669442
H96	H	1.955759	-0.292500	-0.169442
C97	C	0.903560	-0.257120	-0.365340
C98	C	1.403560	0.242880	0.134660
N99	N	0.858101	-0.217835	-0.309774
N100	N	1.358101	0.282165	0.190226
C101	C	1.133984	-0.257104	-0.365298
C102	C	1.633984	0.242896	0.134702
N103	N	1.179437	-0.217811	-0.309720
N104	N	1.679437	0.282189	0.190280
C105	C	0.903579	-0.456291	-0.647031
C106	C	1.403579	0.043709	-0.147031
N107	N	0.858134	-0.495592	-0.702603
N108	N	1.358134	0.004408	-0.202603
H109	H	1.689846	-0.919098	-0.475286
H110	H	2.189846	-0.419098	0.024714
C111	C	1.377142	-0.456042	-0.891427
C112	C	1.877142	0.043958	-0.391427
N113	N	1.321420	-0.495289	-0.845953
N114	N	1.821420	0.004711	-0.345953
C115	C	1.714685	-0.784273	-0.462743
C116	C	2.214685	-0.284273	0.037257
N117	N	1.779327	-0.762491	-0.406807
N118	N	2.279327	-0.262491	0.093193
H119	H	1.640339	-0.270668	-0.907206
H120	H	2.140339	0.229332	-0.407206
C121	C	1.666434	-0.927944	-0.641788
C122	C	2.166434	-0.427944	-0.141788
N123	N	1.694234	-0.949860	-0.722553
N124	N	2.194234	-0.449860	-0.222553
C125	C	1.462467	-0.926945	-0.698872
C126	C	1.962467	-0.426945	-0.198872
N127	N	1.481360	-0.947858	-0.782688
N128	N	1.981360	-0.447858	-0.282688
H129	H	1.355504	-0.920777	-0.569045
H130	H	1.855504	-0.420777	-0.069045
H131	H	1.354618	-0.793149	-0.568554
H132	H	1.854618	-0.293149	-0.068554
H133	H	1.651467	-0.792826	-0.618482
H134	H	2.151467	-0.292826	-0.118482
C135	C	1.377988	-0.926010	-0.363489
C136	C	1.877988	-0.426010	0.136511
N137	N	1.295312	-0.946406	-0.339051
N138	N	1.795312	-0.446406	0.160949
H139	H	1.118304	-0.442728	-0.627836
H140	H	1.618304	0.057272	-0.127836
C141	C	1.563964	-0.926921	-0.311212
C142	C	2.063964	-0.426921	0.188788
N143	N	1.621362	-0.948003	-0.247391
N144	N	2.121362	-0.448003	0.252609
H145	H	1.545399	-0.792915	-0.333156
H146	H	2.045399	-0.292915	0.166844
H147	H	1.407886	-0.791900	-0.370996
H148	H	1.907886	-0.291900	0.129004
H149	H	1.640369	-0.270611	-1.106253
H150	H	2.140369	0.229389	-0.606253
C151	C	1.377190	-0.455973	-1.121851
C152	C	1.877190	0.044027	-0.621851
N153	N	1.321486	-0.495194	-1.167289
N154	N	1.821486	0.004806	-0.667289
