data_functionalizedCrystal
_audit_creation_method	'MofGen! by Chris Wilmer'
_symmetry_space_group_name_H-M	'P1'
_symmetry_Int_Tables_number	1
_symmetry_cell_setting	triclinic
loop_
_symmetry_equiv_pos_as_xyz
  x,y,z
_cell_length_a	16.625547
_cell_length_b	16.625545
_cell_length_c	21.395355
_cell_angle_alpha	89.983814
_cell_angle_beta	89.971219
_cell_angle_gamma	90.025495
loop_
_atom_site_label
_atom_site_type_symbol
_atom_site_fract_x
_atom_site_fract_y
_atom_site_fract_z
Zn1	Zn	1.232695	-0.321096	-0.354342
Zn2	Zn	1.732695	0.178904	0.145658
Zn3	Zn	1.232581	-0.455911	-0.249569
Zn4	Zn	1.732581	0.044089	0.250431
Zn5	Zn	1.097847	-0.321096	-0.249571
Zn6	Zn	1.597847	0.178904	0.250429
Zn7	Zn	1.097820	-0.455891	-0.354301
Zn8	Zn	1.597820	0.044109	0.145699
O9	O	1.165236	-0.388499	-0.301946
O10	O	1.665236	0.111501	0.198054
O11	O	1.345512	-0.338989	-0.340460
O12	O	1.845512	0.161011	0.159540
O13	O	1.214673	-0.438037	-0.161891
O14	O	1.714673	0.061963	0.338109
O15	O	1.115794	-0.208264	-0.263487
O16	O	1.615794	0.291736	0.236513
O17	O	1.345429	-0.438037	-0.263484
O18	O	1.845429	0.061963	0.236516
O19	O	1.214866	-0.208264	-0.340462
O20	O	1.714866	0.291736	0.159538
O21	O	1.115684	-0.338989	-0.161893
O22	O	1.615684	0.161011	0.338107
O23	O	0.985011	-0.338968	-0.263448
O24	O	1.485011	0.161032	0.236552
O25	O	1.115747	-0.438001	-0.441985
O26	O	1.615747	0.061999	0.058015
O27	O	0.984991	-0.438001	-0.340393
O28	O	1.484991	0.061999	0.159607
O29	O	1.214839	-0.338968	-0.442015
O30	O	1.714839	0.161032	0.057985
O31	O	1.214646	-0.568741	-0.263444
O32	O	1.714646	-0.068741	0.236556
O33	O	1.115637	-0.568726	-0.340391
O34	O	1.615637	-0.068726	0.159609
C35	C	0.955745	-0.388483	-0.301916
C36	C	1.455745	0.111517	0.198084
C37	C	0.866124	-0.388496	-0.301919
C38	C	1.366124	0.111504	0.198081
C39	C	0.793341	-0.388497	-0.301926
C40	C	1.293341	0.111503	0.198074
C41	C	0.702033	-0.388502	-0.301942
C42	C	1.202033	0.111498	0.198058
C43	C	0.629256	-0.388509	-0.301958
C44	C	1.129256	0.111491	0.198042
C45	C	0.537942	-0.388515	-0.301973
C46	C	1.037942	0.111485	0.198027
C47	C	1.165148	-0.597990	-0.301926
C48	C	1.665148	-0.097990	0.198074
C49	C	1.165184	-0.687611	-0.301939
C50	C	1.665184	-0.187611	0.198061
C51	C	1.165216	-0.760393	-0.301951
C52	C	1.665216	-0.260393	0.198049
C53	C	1.165263	-0.851701	-0.301965
C54	C	1.665263	-0.351701	0.198035
C55	C	1.165304	-0.924478	-0.301973
C56	C	1.665304	-0.424478	0.198027
C57	C	1.165351	-1.015792	-0.301986
C58	C	1.665351	-0.515792	0.198014
C59	C	1.375545	-0.388515	-0.301976
C60	C	1.875545	0.111485	0.198024
C61	C	1.465166	-0.388522	-0.301989
C62	C	1.965166	0.111478	0.198011
C63	C	1.165303	-0.388482	-0.465369
C64	C	1.665303	0.111518	0.034631
C65	C	1.165331	-0.388475	-0.535011
C66	C	1.665331	0.111525	-0.035011
C67	C	1.165346	-0.178190	-0.301980
C68	C	1.665346	0.321810	0.198020
C69	C	1.165392	-0.088569	-0.301994
C70	C	1.665392	0.411431	0.198006
C71	C	1.216926	-0.336907	-0.567740
C72	C	1.716926	0.163093	-0.067740
C73	C	1.216925	-0.336872	-0.633176
C74	C	1.716925	0.163128	-0.133176
C75	C	1.165337	-0.388420	-0.665879
C76	C	1.665337	0.111580	-0.165879
C77	C	1.113732	-0.439993	-0.633141
C78	C	1.613732	0.060007	-0.133141
C79	C	1.113729	-0.440020	-0.567707
C80	C	1.613729	0.059980	-0.067707
C81	C	1.158940	-0.461021	-0.769546
C82	C	1.658940	0.038979	-0.269546
C83	C	1.158949	-0.460995	-0.834979
C84	C	1.658949	0.039005	-0.334979
C85	C	1.165342	-0.388335	-0.867700
C86	C	1.665342	0.111665	-0.367700
C87	C	1.171744	-0.315699	-0.834979
C88	C	1.671744	0.184301	-0.334979
C89	C	1.171741	-0.315727	-0.769545
C90	C	1.671741	0.184273	-0.269545
C91	C	1.165335	-0.388396	-0.736831
C92	C	1.665335	0.111604	-0.236831
C93	C	1.216939	-0.336725	-0.971382
C94	C	1.716939	0.163275	-0.471382
C95	C	1.216932	-0.336689	-1.036819
C96	C	1.716932	0.163311	-0.536819
C97	C	1.113744	-0.439816	-1.036783
C98	C	1.613744	0.060184	-0.536783
C99	C	1.113746	-0.439845	-0.971348
C100	C	1.613746	0.060155	-0.471348
C101	C	1.165348	-0.388300	-0.938651
C102	C	1.665348	0.111700	-0.438651
C103	C	1.165215	-0.388457	-0.139158
C104	C	1.665215	0.111543	0.360842
C105	C	1.165343	-0.388237	-0.069518
C106	C	1.665343	0.111763	0.430482
H107	H	1.258944	-0.294934	-0.541123
H108	H	1.758944	0.205066	-0.041123
H109	H	1.258938	-0.294875	-0.659830
H110	H	1.758938	0.205125	-0.159830
O111	O	1.177921	-0.245099	-0.737857
O112	O	1.677921	0.254901	-0.237857
C113	C	1.183587	-0.180959	-0.780761
C114	C	1.683587	0.319041	-0.280761
H115	H	1.156488	-0.200023	-0.827398
H116	H	1.656488	0.299977	-0.327398
H117	H	1.149365	-0.126773	-0.761839
H118	H	1.649365	0.373227	-0.261839
H119	H	1.249486	-0.164214	-0.787740
H120	H	1.749486	0.335786	-0.287740
H121	H	1.258952	-0.294750	-0.944759
H122	H	1.758952	0.205250	-0.444759
H123	H	1.176951	-0.256533	-0.861619
H124	H	1.676951	0.243467	-0.361619
O125	O	1.267130	-0.286566	-1.068518
O126	O	1.767130	0.213434	-0.568518
C127	C	1.312657	-0.241067	-1.025624
C128	C	1.812657	0.258933	-0.525624
H129	H	1.315429	-0.274116	-0.978983
H130	H	1.815429	0.225884	-0.478983
H131	H	1.376191	-0.232469	-1.044554
H132	H	1.876191	0.267531	-0.544554
H133	H	1.283169	-0.179828	-1.018649
H134	H	1.783169	0.320172	-0.518649
H135	H	1.071732	-0.481780	-1.063409
H136	H	1.571732	0.018220	-0.563409
H137	H	1.071737	-0.481843	-0.944699
H138	H	1.571737	0.018157	-0.444699
H139	H	1.153742	-0.520140	-0.861616
H140	H	1.653742	-0.020140	-0.361616
H141	H	1.071727	-0.481961	-0.659773
H142	H	1.571727	0.018039	-0.159773
H143	H	1.153519	-0.520174	-0.742911
H144	H	1.653519	-0.020174	-0.242911
O145	O	1.063587	-0.490198	-0.536007
O146	O	1.563587	0.009802	-0.036007
C147	C	1.018036	-0.535674	-0.578900
C148	C	1.518036	-0.035674	-0.078900
H149	H	1.051057	-0.538445	-0.625558
H150	H	1.551057	-0.038445	-0.125558
H151	H	1.009405	-0.599211	-0.559994
H152	H	1.509405	-0.099211	-0.059994
H153	H	0.956812	-0.506142	-0.585830
H154	H	1.456812	-0.006142	-0.085830
