data_functionalizedCrystal
_audit_creation_method	'MofGen! by Chris Wilmer'
_symmetry_space_group_name_H-M	'P1'
_symmetry_Int_Tables_number	1
_symmetry_cell_setting	triclinic
loop_
_symmetry_equiv_pos_as_xyz
  x,y,z
_cell_length_a	12.759401
_cell_length_b	13.897447
_cell_length_c	12.759393
_cell_angle_alpha	89.968976
_cell_angle_beta	89.981287
_cell_angle_gamma	90.021055
loop_
_atom_site_label
_atom_site_type_symbol
_atom_site_fract_x
_atom_site_fract_y
_atom_site_fract_z
Zn1	Zn	1.606208	-0.383929	-0.594016
Zn2	Zn	1.606091	-0.545255	-0.418335
Zn3	Zn	1.430514	-0.383980	-0.418352
Zn4	Zn	1.430484	-0.545188	-0.593972
O5	O	1.518324	-0.464588	-0.506169
O6	O	1.753214	-0.405336	-0.570723
O7	O	1.582764	-0.523911	-0.271316
O8	O	1.453881	-0.248992	-0.441679
O9	O	1.753128	-0.523862	-0.441651
O10	O	1.582963	-0.248954	-0.570740
O11	O	1.453768	-0.405423	-0.271328
O12	O	1.283489	-0.405358	-0.441636
O13	O	1.453831	-0.523747	-0.740999
O14	O	1.283467	-0.523796	-0.570664
O15	O	1.582934	-0.405270	-0.741032
O16	O	1.582735	-0.680228	-0.441608
O17	O	1.453717	-0.680178	-0.570648
C18	C	1.245357	-0.464576	-0.506148
C19	C	1.128580	-0.464594	-0.506164
C20	C	1.073734	-0.526359	-0.573243
C21	C	0.964010	-0.526363	-0.573264
C22	C	0.963988	-0.402834	-0.439118
C23	C	1.073710	-0.402826	-0.439103
C24	C	0.814106	-0.560974	-0.697124
C25	C	0.759257	-0.622754	-0.764194
C26	C	0.794845	-0.716889	-0.780141
C27	C	0.885281	-0.749263	-0.729002
C28	C	0.940125	-0.687488	-0.661925
C29	C	0.904539	-0.593340	-0.645998
C30	C	1.223616	-0.368225	-0.315241
C31	C	1.278461	-0.306454	-0.248158
C32	C	1.242875	-0.212318	-0.232200
C33	C	1.152435	-0.179948	-0.283320
C34	C	1.097589	-0.241718	-0.350403
C35	C	1.133183	-0.335853	-0.366363
C36	C	1.518239	-0.715202	-0.506144
C37	C	1.518298	-0.822416	-0.506169
C38	C	1.518349	-0.909486	-0.506193
C39	C	1.518423	-1.018718	-0.506220
C40	C	1.792357	-0.464601	-0.506190
C41	C	1.909134	-0.464606	-0.506200
C42	C	1.518392	-0.464495	-0.780202
C43	C	1.518421	-0.464456	-0.896979
C44	C	1.518439	-0.212995	-0.506216
C45	C	1.518487	-0.105781	-0.506236
C46	C	1.451219	-0.526118	-0.951826
C47	C	1.451257	-0.526082	-1.061550
C48	C	1.585701	-0.402714	-1.061571
C49	C	1.585668	-0.402755	-0.951849
C50	C	1.413710	-0.639782	-1.211483
C51	C	1.346492	-0.701435	-1.266334
C52	C	1.243960	-0.716251	-1.230718
C53	C	1.208625	-0.669401	-1.140253
C54	C	1.275837	-0.607740	-1.085409
C55	C	1.378384	-0.592942	-1.121023
C56	C	1.623204	-0.289054	-0.801914
C57	C	1.690412	-0.227388	-0.747067
C58	C	1.792946	-0.212562	-0.782680
C59	C	1.828277	-0.259396	-0.873148
C60	C	1.761069	-0.321062	-0.927995
C61	C	1.658536	-0.335890	-0.892374
C62	C	1.518317	-0.464611	-0.233201
C63	C	1.518491	-0.464378	-0.116425
H64	H	1.352102	-0.332819	-0.206533
H65	H	1.497203	-0.627734	-1.240483
C66	C	1.658525	-0.335602	-1.121203
C67	C	1.599083	-0.273733	-1.184179
C68	C	1.666131	-0.211885	-1.239114
H69	H	1.704317	-0.372374	-1.164090
H70	H	1.698528	-0.298828	-1.072855
H71	H	1.559099	-0.310502	-1.232521
H72	H	1.553294	-0.236939	-1.141318
H73	H	1.706134	-0.175111	-1.190766
H74	H	1.711920	-0.248665	-1.281994
H75	H	1.625809	-0.169893	-1.281842
C76	C	0.923776	-0.851493	-0.746487
C77	C	0.856406	-0.898656	-0.816195
C78	C	0.891846	-0.992827	-0.832340
H79	H	0.924783	-0.884972	-0.681571
H80	H	0.992512	-0.849899	-0.775089
H81	H	0.787689	-0.900254	-0.787591
H82	H	0.855392	-0.865205	-0.881124
H83	H	0.960582	-0.991234	-0.860942
H84	H	0.892852	-1.026297	-0.767420
H85	H	0.846147	-1.024836	-0.879646
C86	C	1.939681	-0.243421	-0.911653
C87	C	2.010446	-0.272312	-0.833930
C88	C	2.113080	-0.257617	-0.869368
H89	H	1.949830	-0.177123	-0.926704
H90	H	1.951156	-0.280172	-0.973359
H91	H	1.998976	-0.235560	-0.772242
H92	H	2.000330	-0.338609	-0.818870
H93	H	2.124555	-0.294368	-0.931074
H94	H	2.123218	-0.191318	-0.884418
H95	H	2.161106	-0.277225	-0.816643
C96	C	1.378090	-0.592956	-0.892203
C97	C	1.310730	-0.538370	-0.829236
C98	C	1.243341	-0.599914	-0.774313
H99	H	1.418125	-0.635023	-0.849311
H100	H	1.338017	-0.629657	-0.940558
H101	H	1.350799	-0.501685	-0.780886
H102	H	1.270672	-0.496305	-0.872102
H103	H	1.203268	-0.636614	-0.822669
H104	H	1.283385	-0.641978	-0.731428
H105	H	1.197623	-0.562886	-0.731592
C106	C	0.661158	-0.587679	-0.819919
C107	C	0.675958	-0.593676	-0.928454
C108	C	0.585609	-0.561389	-0.979820
H109	H	0.647738	-0.522755	-0.800958
H110	H	0.603248	-0.626651	-0.800112
H111	H	0.733850	-0.554704	-0.948253
H112	H	0.689364	-0.658591	-0.947446
H113	H	0.527699	-0.600361	-0.960013
H114	H	0.572196	-0.496466	-0.960851
H115	H	0.595635	-0.565462	-1.053466
C116	C	1.865948	-0.145758	-0.722970
C117	C	1.878795	-0.179982	-0.620551
C118	C	1.946053	-0.118485	-0.565523
H119	H	1.836711	-0.082936	-0.721001
H120	H	1.932108	-0.143663	-0.757081
H121	H	1.812648	-0.182066	-0.586448
H122	H	1.908043	-0.242796	-0.622488
H123	H	2.012213	-0.116390	-0.599634
H124	H	1.916810	-0.055666	-0.563562
H125	H	1.954786	-0.141701	-0.496029
C126	C	0.904542	-0.335838	-0.366136
C127	C	0.931197	-0.356706	-0.262143
C128	C	0.876469	-0.295002	-0.194881
H129	H	0.831324	-0.344629	-0.375608
H130	H	0.922571	-0.271026	-0.381570
H131	H	0.913161	-0.421502	-0.246714
H132	H	1.004405	-0.347909	-0.252638
H133	H	0.894498	-0.230190	-0.210316
H134	H	0.803254	-0.303798	-0.204363
H135	H	0.894554	-0.309147	-0.124316
C136	C	1.113987	-0.077691	-0.265904
C137	C	1.181391	-0.030515	-0.196238
C138	C	1.146015	0.063688	-0.180175
H139	H	1.045265	-0.079196	-0.237300
H140	H	1.113009	-0.044277	-0.330875
H141	H	1.182358	-0.063920	-0.131280
H142	H	1.250117	-0.028984	-0.224823
H143	H	1.145036	0.097102	-0.245146
H144	H	1.077292	0.062174	-0.151575
H145	H	1.191748	0.095712	-0.132914
C146	C	1.302592	-0.145383	-0.159358
C147	C	1.389421	-0.193870	-0.118010
C148	C	1.444459	-0.132236	-0.050919
H149	H	1.257977	-0.125516	-0.103833
H150	H	1.325661	-0.090554	-0.197432
H151	H	1.366351	-0.248682	-0.079937
H152	H	1.434061	-0.213735	-0.173510
H153	H	1.467528	-0.077406	-0.088993
H154	H	1.399835	-0.112372	0.004600
H155	H	1.503383	-0.165122	-0.022863
C156	C	1.799345	-0.372091	-1.026142
C157	C	1.792921	-0.471759	-1.011396
C158	C	1.828159	-0.518795	-1.101789
H159	H	1.870044	-0.354548	-1.039586
H160	H	1.756889	-0.353941	-1.084021
H161	H	1.835377	-0.489902	-0.953535
H162	H	1.722233	-0.489330	-0.997966
H163	H	1.785703	-0.500645	-1.159668
H164	H	1.898856	-0.501244	-1.115226
H165	H	1.823797	-0.586424	-1.091800
C166	C	1.171038	-0.783100	-1.290460
C167	C	1.158240	-0.748904	-1.392896
C168	C	1.091089	-0.810469	-1.447966
H169	H	1.104853	-0.785262	-1.256432
H170	H	1.200369	-0.845900	-1.292373
H171	H	1.128906	-0.686122	-1.390977
H172	H	1.224405	-0.746747	-1.426953
H173	H	1.120420	-0.873269	-1.449880
H174	H	1.024909	-0.812626	-1.413930
H175	H	1.082404	-0.787281	-1.517478
H176	H	1.252605	-0.444876	-0.328238
H177	H	1.118407	-0.576652	-0.627851
C178	C	1.511834	-0.305297	-0.763435
C179	C	1.440975	-0.276554	-0.841136
C180	C	1.338390	-0.291587	-0.805724
H181	H	1.500194	-0.268646	-0.701705
H182	H	1.501949	-0.371654	-0.748453
H183	H	1.450856	-0.210208	-0.856105
H184	H	1.452581	-0.313199	-0.902872
H185	H	1.328504	-0.357945	-0.790742
H186	H	1.326761	-0.254935	-0.743994
H187	H	1.290299	-0.272096	-0.858442
C188	C	1.237324	-0.557034	-0.987162
C189	C	1.133152	-0.583231	-0.967684
C190	C	1.097648	-0.536570	-0.877164
H191	H	1.241500	-0.489366	-0.996841
H192	H	1.279722	-0.575295	-0.929283
H193	H	1.090765	-0.564964	-1.025549
H194	H	1.128947	-0.650891	-0.957986
H195	H	1.140047	-0.554831	-0.819285
H196	H	1.101832	-0.468905	-0.886852
H197	H	1.026968	-0.554345	-0.863931
C198	C	1.097263	-0.685616	-1.101750
C199	C	1.045968	-0.749650	-1.169137
C200	C	0.943379	-0.764611	-1.133699
H201	H	1.060771	-0.626061	-1.100727
H202	H	1.098964	-0.711904	-1.033022
H203	H	1.044261	-0.723360	-1.237847
H204	H	1.082428	-0.809217	-1.170168
H205	H	0.945080	-0.790898	-1.064970
H206	H	0.906897	-0.705051	-1.132676
H207	H	0.908565	-0.808065	-1.179409
H208	H	1.013756	-0.713847	-0.620289
H209	H	0.750179	-0.767190	-0.834752
H210	H	0.785129	-0.484319	-0.684157
H211	H	1.023954	-0.215351	-0.392035
H212	H	1.375271	-0.739581	-1.339990
H213	H	1.661633	-0.189246	-0.673408
