data_functionalizedCrystal
_audit_creation_method	'MofGen! by Chris Wilmer'
_symmetry_space_group_name_H-M	'P1'
_symmetry_Int_Tables_number	1
_symmetry_cell_setting	triclinic
loop_
_symmetry_equiv_pos_as_xyz
  x,y,z
_cell_length_a	19.377372
_cell_length_b	14.628931
_cell_length_c	14.628931
_cell_angle_alpha	59.999807
_cell_angle_beta	72.113075
_cell_angle_gamma	89.999682
loop_
_atom_site_label
_atom_site_type_symbol
_atom_site_fract_x
_atom_site_fract_y
_atom_site_fract_z
Zr1	Zr	0.580563	-0.256046	1.272736
O2	O	0.484336	-0.379452	1.418333
O3	O	0.610062	-0.218215	1.095859
O4	O	0.610062	-0.408922	1.286565
O5	O	0.484336	-0.038314	1.227626
O6	O	0.709237	-0.432168	1.333056
O7	O	0.484336	-0.188746	1.227627
O8	O	0.709237	-0.091030	0.991918
O9	O	0.484336	-0.379452	1.568765
O10	O	0.696656	-0.219430	1.214892
O11	O	0.622643	-0.089816	1.180196
O12	O	0.622643	-0.314348	1.404728
O13	O	0.548630	-0.184733	1.370032
Zr14	Zr	0.738736	-0.053200	1.346884
Zr15	Zr	0.738735	-0.293122	1.346884
Zr16	Zr	0.580563	-0.016124	1.272736
Zr17	Zr	0.580563	-0.256047	1.512658
Zr18	Zr	0.738735	-0.053199	1.106962
O19	O	0.709237	-0.091031	1.523761
O20	O	0.709237	-0.432168	1.523762
O21	O	0.484336	-0.038314	1.418332
O22	O	0.834963	0.070206	1.201287
O23	O	0.834962	-0.270932	1.201288
O24	O	0.610062	0.122922	1.095858
O25	O	0.834963	-0.270932	1.391994
O26	O	0.709237	0.099676	1.333055
O27	O	0.610062	0.122922	1.286564
O28	O	0.834963	-0.120500	1.391993
O29	O	0.610062	-0.408922	1.627703
O30	O	0.709237	0.099676	0.991917
O31	O	0.834963	0.070206	1.050855
O32	O	0.834962	-0.120500	1.050856
O33	O	0.484336	-0.188746	1.568764
O34	O	0.610062	-0.218216	1.627702
O35	O	0.696656	0.005102	1.214892
O36	O	0.770669	-0.124513	1.249588
O37	O	0.696656	-0.219430	1.439424
O38	O	0.622643	-0.089816	1.404728
C39	C	0.461800	-0.108247	1.217062
C40	C	0.394652	-0.092508	1.185584
C41	C	0.659649	-0.154622	1.009705
C42	C	0.659649	-0.154622	0.907852
C43	C	0.659650	0.145483	1.309809
C44	C	0.659650	0.247336	1.309809
C45	C	-0.019356	-0.288474	1.577507
C46	C	-0.082442	-0.273670	1.547902
C47	C	-0.005169	-0.174583	1.349729
C48	C	0.057925	-0.189374	1.379316
C49	C	0.050825	-0.246321	1.493207
C50	C	0.128106	-0.147222	1.295017
C51	C	0.191194	-0.162017	1.324603
C52	C	0.184101	-0.218964	1.438488
C53	C	0.113913	-0.261116	1.522793
C54	C	0.135205	-0.090282	1.181126
C55	C	0.205386	-0.048129	1.096827
C56	C	0.268475	-0.062918	1.126412
C57	C	0.261383	-0.119865	1.240298
C58	C	0.338664	-0.020765	1.042107
C59	C	0.401752	-0.035560	1.071693
C60	C	0.324471	-0.134660	1.269883
C61	C	0.857499	-0.200999	1.402558
C62	C	0.924647	-0.216738	1.434036
C63	C	0.659649	-0.454729	1.309811
C64	C	0.659649	-0.556582	1.309811
C65	C	0.622934	0.245659	1.403980
C66	C	0.622934	0.350929	1.403982
C67	C	0.696364	-0.218920	0.879654
C68	C	0.696365	-0.218921	0.774384
C69	C	0.659650	-0.154623	1.609915
C70	C	0.659650	-0.154624	1.711768
C71	C	0.857499	-0.200998	1.102453
C72	C	0.924647	-0.216738	1.032078
C73	C	0.659649	0.145483	1.009704
C74	C	0.659649	0.247336	0.907851
C75	C	0.857499	0.099107	1.102452
C76	C	0.924647	0.185221	1.032077
C77	C	0.461800	-0.408353	1.517168
C78	C	0.394652	-0.494467	1.587543
C79	C	0.461800	-0.108248	1.517167
C80	C	0.394652	-0.092508	1.587542
C81	C	0.659649	-0.454729	1.609916
C82	C	0.659649	-0.556582	1.711769
C83	C	0.917546	-0.273685	0.980918
C84	C	0.980633	-0.288495	0.914804
C85	C	1.050820	-0.246350	0.899844
C86	C	1.057919	-0.189401	0.951012
C87	C	0.994833	-0.174598	1.017132
C88	C	0.994821	0.158002	1.017142
C89	C	1.057920	0.238904	0.951033
C90	C	1.050844	0.347025	0.899853
C91	C	0.980662	0.374244	0.914794
C92	C	0.917565	0.293342	0.980909
C93	C	0.324477	-0.467248	1.602490
C94	C	0.261378	-0.548150	1.668628
C95	C	0.268455	-0.656271	1.719813
C96	C	0.338637	-0.683490	1.704866
C97	C	0.401734	-0.602588	1.638735
C98	C	0.401753	-0.035571	1.638712
C99	C	0.338666	-0.020788	1.704853
C100	C	0.268479	-0.062936	1.719816
C101	C	0.261380	-0.119881	1.668643
C102	C	0.324466	-0.134670	1.602510
C103	C	0.696365	0.339831	0.879653
C104	C	0.696366	0.445103	0.774382
H105	H	0.318687	-0.180999	1.362625
H106	H	0.591499	0.166291	1.484601
H107	H	0.204240	-0.525968	1.680784
H108	H	0.344460	0.025585	1.746509
H109	H	0.727795	-0.273973	0.750073
H110	H	0.628213	0.246085	0.854061
H111	H	1.102228	0.412890	0.846021
H112	H	0.628219	0.364062	0.736072
H113	H	0.860428	0.315520	0.993056
H114	H	1.115059	0.216724	0.938877
H115	H	0.591503	0.349668	1.484607
H116	H	0.974838	-0.334866	0.873147
H117	H	0.108130	-0.307456	1.615535
H118	H	0.235473	-0.231011	1.462574
H119	H	0.691086	0.444687	1.229184
H120	H	0.727801	-0.273963	0.933442
H121	H	0.974911	0.462286	0.873114
H122	H	0.727800	0.524465	0.750066
H123	H	-0.139588	-0.308002	1.616558
H124	H	1.000625	-0.128221	1.058779
H125	H	0.458871	-0.624764	1.626567
H126	H	0.217071	-0.722136	1.773658
H127	H	-0.025139	-0.334813	1.670248
H128	H	0.628211	-0.099578	0.736081
H129	H	0.204225	-0.154194	1.680837
H130	H	0.000602	-0.128220	1.256999
H131	H	0.628218	-0.099574	0.854056
H132	H	1.102183	-0.258410	0.846001
H133	H	0.318701	-0.379216	1.560814
H134	H	0.211156	-0.001766	1.004097
H135	H	0.083832	-0.078245	1.157042
H136	H	0.691079	0.326706	1.229185
H137	H	0.860402	-0.308020	0.993098
H138	H	1.115073	-0.155091	0.938822
H139	H	0.344433	0.025592	0.949378
H140	H	0.318674	-0.181029	1.560846
H141	H	1.000597	0.069970	1.058805
H142	H	0.344390	-0.771531	1.746549
H143	H	0.458896	-0.001239	1.626535
H144	H	0.727795	0.341084	0.933449
H145	H	0.458897	-0.001217	1.003048
H146	H	0.217116	-0.050886	1.773669
