data_functionalizedCrystal
_audit_creation_method	'MofGen! by Chris Wilmer'
_symmetry_space_group_name_H-M	'P1'
_symmetry_Int_Tables_number	1
_symmetry_cell_setting	triclinic
loop_
_symmetry_equiv_pos_as_xyz
  x,y,z
_cell_length_a	23.532355
_cell_length_b	23.532407
_cell_length_c	15.186229
_cell_angle_alpha	90.008386
_cell_angle_beta	89.997531
_cell_angle_gamma	82.838088
loop_
_atom_site_label
_atom_site_type_symbol
_atom_site_fract_x
_atom_site_fract_y
_atom_site_fract_z
O1	O	0.755278	0.068993	0.073118
O2	O	0.589410	0.079027	0.073147
O3	O	0.677346	-0.008922	0.073115
O4	O	0.667342	0.156943	0.073149
O5	O	0.677340	-0.008923	-0.073342
O6	O	0.589404	0.079026	-0.073310
O7	O	0.755272	0.068992	-0.073340
Zn8	Zn	0.672337	0.074009	-0.096578
Zn9	Zn	0.672345	0.074011	0.096386
O10	O	0.667336	0.156942	-0.073308
C11	C	0.568191	0.078776	-0.000078
C12	C	0.504972	0.078022	-0.000068
C13	C	0.112955	0.073283	-0.079939
C14	C	0.053556	0.072566	-0.079943
O15	O	0.022834	0.072175	-0.147838
N16	N	0.023850	0.072211	-0.000109
C17	C	0.053548	0.072567	0.079733
O18	O	0.022828	0.072199	0.147637
C19	C	0.112947	0.073281	0.079735
C20	C	0.142649	0.073641	-0.000103
C21	C	0.142657	0.073643	-0.159772
C22	C	0.202052	0.074362	-0.159768
C23	C	0.231745	0.074720	-0.079932
C24	C	0.202044	0.074360	-0.000099
C25	C	0.142645	0.073633	0.159577
C26	C	0.202048	0.074346	0.159573
C27	C	0.231749	0.074707	0.079734
C28	C	0.291133	0.075437	0.079741
N29	N	0.320838	0.075792	-0.000093
C30	C	0.291144	0.075434	-0.079929
C31	C	-0.071193	0.071068	0.079721
C32	C	-0.130591	0.070359	0.079720
C33	C	-0.130580	0.070356	-0.079957
C34	C	-0.071181	0.071070	-0.079954
C35	C	-0.041488	0.071423	-0.000112
C36	C	0.415878	0.076943	-0.079915
C37	C	0.475279	0.077664	-0.079904
C38	C	0.475262	0.077663	0.079772
C39	C	0.415867	0.076945	0.079761
C40	C	0.386177	0.076583	-0.000089
O41	O	0.321892	0.075826	0.147601
O42	O	0.321873	0.075795	-0.147822
C43	C	0.677088	-0.030139	-0.000116
C44	C	0.676322	-0.093356	-0.000122
C45	C	0.723557	-0.492468	-0.000082
C46	C	0.722845	-0.551868	-0.000075
O47	O	0.766632	-0.588620	-0.000051
N48	N	0.670568	-0.574484	-0.000067
C49	C	0.618998	-0.537697	-0.000056
O50	O	0.574467	-0.562388	-0.000047
C51	C	0.619710	-0.478298	-0.000057
C52	C	0.671991	-0.455685	-0.000074
C53	C	0.775834	-0.469854	-0.000099
C54	C	0.776545	-0.410458	-0.000107
C55	C	0.724979	-0.373676	-0.000099
C56	C	0.672703	-0.396289	-0.000083
C57	C	0.568141	-0.441512	-0.000040
C58	C	0.568858	-0.382110	-0.000039
C59	C	0.621139	-0.359497	-0.000057
C60	C	0.621848	-0.300110	-0.000083
N61	N	0.674126	-0.277494	-0.000092
C62	C	0.725691	-0.314277	-0.000100
C63	C	0.617507	-0.662439	-0.000053
C64	C	0.616794	-0.721837	-0.000059
C65	C	0.720642	-0.736004	-0.000077
C66	C	0.721354	-0.676605	-0.000077
C67	C	0.669784	-0.639823	-0.000062
C68	C	0.727181	-0.189540	-0.000118
C69	C	0.727888	-0.130138	-0.000130
C70	C	0.624041	-0.115977	-0.000108
C71	C	0.623334	-0.175373	-0.000100
C72	C	0.674909	-0.212154	-0.000103
O73	O	0.578084	-0.263323	-0.000104
O74	O	0.770216	-0.289577	-0.000097
C75	C	0.776492	0.069244	-0.000113
C76	C	0.839710	0.069998	-0.000117
C77	C	0.667594	0.178158	-0.000075
C78	C	0.668360	0.241375	-0.000063
N79	N	0.672336	0.074008	-0.228271
C80	C	0.711287	0.035076	-0.454008
C81	C	0.711289	0.035075	-0.546197
C82	C	0.633395	0.112941	-0.546178
C83	C	0.633391	0.112939	-0.453990
C84	C	0.672340	0.074007	-0.407907
C85	C	0.672346	0.074008	-0.592285
C86	C	0.672348	0.074007	-0.692241
C87	C	0.672338	0.074008	-0.307945
N88	N	0.672351	0.074008	0.228078
H89	H	0.391711	0.076653	-0.144937
F90	F	0.506875	0.078043	0.164735
H91	H	0.601685	0.144638	-0.583708
H92	H	0.743001	0.003375	-0.416489
F93	F	0.233655	0.074743	-0.244744
H94	H	0.762629	-0.765963	-0.000080
F95	F	0.591935	0.154374	-0.404923
F96	F	0.233646	0.074721	0.244554
H97	H	0.769178	-0.219481	-0.000116
H98	H	-0.154771	0.070074	0.144732
F99	F	0.513969	-0.342966	-0.000021
F100	F	0.752740	-0.006361	-0.595258
H101	H	0.499459	0.077959	-0.144921
F102	F	0.567691	-0.199441	-0.000098
F103	F	-0.039597	0.071450	0.164705
H104	H	0.118487	0.073350	-0.224787
F105	F	0.783535	-0.106076	-0.000148
H106	H	-0.047002	0.071364	-0.144966
F107	F	0.562616	-0.623297	-0.000045
H108	H	-0.154767	0.070064	-0.144964
F109	F	0.384254	0.076571	0.164734
F110	F	0.832190	-0.386400	-0.000107
F111	F	0.111047	0.073248	0.244554
F112	F	0.776998	-0.652544	-0.000096
F113	F	0.830722	-0.508993	-0.000107
H114	H	0.525569	-0.459912	-0.000020
F115	F	0.561150	-0.745896	-0.000056
F116	F	0.569164	-0.076820	-0.000100
