data_functionalizedCrystal
_audit_creation_method	'MofGen! by Chris Wilmer'
_symmetry_space_group_name_H-M	'P1'
_symmetry_Int_Tables_number	1
_symmetry_cell_setting	triclinic
loop_
_symmetry_equiv_pos_as_xyz
  x,y,z
_cell_length_a	19.376995
_cell_length_b	19.376995
_cell_length_c	23.196401
_cell_angle_alpha	48.622392
_cell_angle_beta	75.517979
_cell_angle_gamma	62.433005
loop_
_atom_site_label
_atom_site_type_symbol
_atom_site_fract_x
_atom_site_fract_y
_atom_site_fract_z
Zr1	Zr	0.829201	0.780280	-0.364415
O2	O	0.742539	0.928992	-0.460334
O3	O	0.836924	0.631567	-0.315821
O4	O	0.864064	0.780283	-0.463756
O5	O	0.715427	0.780274	-0.217534
O6	O	0.981360	0.780286	-0.488283
O7	O	0.715399	0.780276	-0.312399
O8	O	0.932812	0.514261	-0.223655
O9	O	0.763975	1.046300	-0.482162
O10	O	0.950522	0.692738	-0.336585
O11	O	0.863005	0.692734	-0.247483
O12	O	0.894959	0.867828	-0.421657
O13	O	0.807442	0.867824	-0.332556
Zr14	Zr	1.016320	0.780283	-0.252232
Zr15	Zr	1.016276	0.780286	-0.403533
Zr16	Zr	0.829246	0.780277	-0.213115
Zr17	Zr	0.863389	0.967373	-0.399227
Zr18	Zr	0.982132	0.593190	-0.217420
O19	O	1.008598	0.928996	-0.300826
O20	O	1.008535	0.929000	-0.515955
O21	O	0.742602	0.928988	-0.245205
O22	O	1.102983	0.631571	-0.156313
O23	O	1.102920	0.631575	-0.371442
O24	O	0.836987	0.631563	-0.100692
O25	O	1.130094	0.780289	-0.399114
O26	O	0.981458	0.780280	-0.152891
O27	O	0.864162	0.780277	-0.128364
O28	O	1.130122	0.780287	-0.304248
O29	O	0.912674	1.046304	-0.513256
O30	O	0.932847	0.514259	-0.103392
O31	O	1.081547	0.514263	-0.134485
O32	O	1.081512	0.514265	-0.254749
O33	O	0.764010	1.046298	-0.361899
O34	O	0.912709	1.046302	-0.392992
O35	O	0.950563	0.692735	-0.194990
O36	O	1.038079	0.692739	-0.284092
O37	O	0.982516	0.867829	-0.369164
O38	O	0.895000	0.867825	-0.280063
C39	C	0.879997	0.546257	-0.264778
C40	C	0.865484	0.466832	-0.249999
C41	C	0.799347	0.354883	-0.182663
C42	C	0.812990	0.429515	-0.196555
C43	C	0.904351	0.429529	-0.289576
C44	C	0.890713	0.354899	-0.275694
C45	C	0.838210	0.317581	-0.222236
C46	C	0.929576	0.317597	-0.315268
C47	C	0.915942	0.242970	-0.301384
C48	C	0.863444	0.205644	-0.247927
C49	C	0.824576	0.242953	-0.208353
C50	C	0.982082	0.354911	-0.368721
C51	C	1.020946	0.317610	-0.408295
C52	C	1.007307	0.242986	-0.394415
C53	C	0.954809	0.205660	-0.340958
C54	C	1.046175	0.205677	-0.433989
C55	C	1.032540	0.131049	-0.420106
C56	C	0.941175	0.131033	-0.327075
C57	C	0.688759	0.780274	-0.259393
C58	C	0.609341	0.780272	-0.242786
C59	C	0.497419	0.780269	-0.167121
C60	C	0.572044	0.780271	-0.182732
C61	C	0.572020	0.780277	-0.287257
C62	C	0.497391	0.780280	-0.271658
C63	C	0.460097	0.780275	-0.211589
C64	C	0.460069	0.780286	-0.316126
C65	C	0.385449	0.780284	-0.300525
C66	C	0.348150	0.780276	-0.240457
C67	C	0.385477	0.780273	-0.195988
C68	C	0.497367	0.780284	-0.376192
C69	C	0.460045	0.780290	-0.420659
C70	C	0.385421	0.780295	-0.405062
C71	C	0.348123	0.780287	-0.344994
C72	C	0.348095	0.780298	-0.449531
C73	C	0.273474	0.780296	-0.433930
C74	C	0.273502	0.780285	-0.329393
C75	C	1.156762	0.780289	-0.357254
C76	C	1.236180	0.780291	-0.373861
C77	C	0.922705	0.780285	-0.497577
C78	C	0.922687	0.780286	-0.561808
C79	C	0.965524	1.014306	-0.351869
C80	C	0.980038	1.093731	-0.366648
C81	C	0.893687	0.871679	-0.636388
C82	C	0.893710	0.871680	-0.696748
C83	C	0.922719	0.780284	-0.682520
C84	C	0.951726	0.688879	-0.607928
C85	C	0.951710	0.688881	-0.547571
C86	C	0.903432	0.710261	-0.735451
C87	C	0.903443	0.710263	-0.795807
C88	C	0.922773	0.780276	-0.868678
C89	C	0.942077	0.850304	-0.881192
C90	C	0.942061	0.850305	-0.820836
C91	C	0.922740	0.780272	-0.747962
C92	C	0.893796	0.871676	-1.008711
C93	C	0.893824	0.871674	-1.069072
C94	C	0.951834	0.688871	-0.980247
C95	C	0.951813	0.688876	-0.919891
C96	C	0.922789	0.780281	-0.934127
C97	C	0.922816	0.780278	-0.119070
C98	C	0.922835	0.780277	-0.054839
C99	C	1.113999	0.546264	-0.313709
C100	C	1.178903	0.466841	-0.315536
C101	C	0.880052	0.546254	-0.075525
C102	C	0.865558	0.466827	0.003485
C103	C	1.114054	0.546261	-0.124455
C104	C	1.178977	0.466836	-0.062052
C105	C	0.731468	1.014302	-0.492192
C106	C	0.666544	1.093727	-0.554595
C107	C	0.731523	1.014299	-0.302938
C108	C	0.666619	1.093722	-0.301111
C109	C	0.965469	1.014309	-0.541122
C110	C	0.979964	1.093736	-0.620132
C111	C	1.163679	0.429542	-0.343802
C112	C	1.224658	0.354926	-0.345534
C113	C	1.300860	0.317605	-0.318995
C114	C	1.316084	0.354911	-0.290729
C115	C	1.255107	0.429531	-0.289003
C116	C	0.904455	0.429528	0.067996
C117	C	0.890834	0.354908	0.142239
C118	C	0.838320	0.317584	0.151968
C119	C	0.799418	0.354890	0.087450
C120	C	0.813035	0.429514	0.013209
C121	C	1.255156	0.429540	-0.079259
C122	C	1.316168	0.354922	-0.020634
C123	C	1.300997	0.317598	0.055199
C124	C	1.224811	0.354902	0.072404
C125	C	1.163802	0.429523	0.013779
C126	C	0.590367	1.131032	-0.537390
C127	C	0.529360	1.205673	-0.596020
C128	C	0.544531	1.243001	-0.671853
C129	C	0.620717	1.205693	-0.689057
C130	C	0.681723	1.131059	-0.630429
C131	C	0.681844	1.131028	-0.272853
C132	C	0.620869	1.205665	-0.271142
C133	C	0.544667	1.242989	-0.297683
C134	C	0.529442	1.205680	-0.325945
C135	C	0.590418	1.131049	-0.327661
C136	C	1.032483	1.131037	-0.629837
C137	C	1.046117	1.205657	-0.704071
C138	C	1.007228	1.242980	-0.768599
C139	C	0.954707	1.205672	-0.758891
C140	C	0.941077	1.131048	-0.684658
H141	H	1.063696	0.348000	-0.451818
Br142	Br	1.117395	1.256277	-0.717227
Br143	Br	0.622639	0.780277	-0.368775
Br144	Br	1.117434	0.256320	-0.506527
H145	H	0.781361	0.459873	-0.039314
Br146	Br	0.991102	0.564841	-0.588617
Br147	Br	0.785105	1.080434	-0.653792
H148	H	1.018333	1.303744	-0.829040
H149	H	0.494849	1.303773	-0.719584
H150	H	0.781816	0.212576	-0.164829
Br151	Br	1.383608	0.216333	-0.321343
H152	H	0.743886	1.100645	-0.251234
H153	H	0.923047	1.236072	-0.811441
Br154	Br	1.085271	1.080401	-0.542275
Br155	Br	1.203979	0.304310	-0.383894
H156	H	0.870164	0.946104	-1.020304
H157	H	1.064188	0.100677	-0.452330
Br158	Br	0.728151	0.304225	0.100668
Br159	Br	1.275767	0.480184	-0.182169
H160	H	0.243133	0.780291	-0.280484
Br161	Br	1.275782	0.480136	-0.250634
Br162	Br	0.975733	0.480161	0.054812
Br163	Br	1.204235	0.304236	0.175324
Br164	Br	0.869790	1.080443	-0.671501
H165	H	0.756587	0.324505	-0.139139
H166	H	0.781334	0.459890	-0.164331
H167	H	0.975455	0.614454	-0.968661
Br168	Br	1.383804	0.216325	0.134754
Br169	Br	0.869908	0.080395	-0.254536
H170	H	0.378472	0.780293	-0.498435
Br171	Br	1.000591	0.456185	-0.387555
Br172	Br	0.246882	0.780262	-0.219278
Br173	Br	0.854353	0.995721	-0.797979
Br174	Br	0.446795	0.780282	-0.085607
H175	H	1.101774	0.459880	0.027800
H176	H	0.887720	0.653246	-0.785612
Br177	Br	0.569756	1.080386	-0.434479
H178	H	1.378136	0.324513	-0.269123
Br179	Br	0.425974	1.256288	-0.572653
H180	H	0.852344	0.144877	-0.236623
H181	H	0.957781	0.907322	-0.831028
H182	H	0.947101	0.459919	-0.333099
H183	H	0.922518	0.324542	0.194763
H184	H	1.101637	0.459929	-0.365423
Br185	Br	0.641293	1.256362	-0.791978
H186	H	0.975423	0.614454	-0.859161
Br187	Br	0.819848	0.216309	0.252731
Br188	Br	0.334853	0.780286	-0.114473
Br189	Br	0.426020	1.256342	-0.361961
Br190	Br	0.968310	0.945331	-0.980086
H191	H	0.578009	1.100676	-0.350669
H192	H	0.602429	0.780264	-0.146515
H193	H	0.887686	0.653248	-0.676118
Br194	Br	0.991065	0.564838	-0.446346
H195	H	0.633280	1.236030	-0.248125
Br196	Br	1.419554	0.304309	-0.044001
H197	H	0.490420	0.780291	-0.469566
Br198	Br	0.222824	0.780296	-0.494276
H199	H	0.495024	1.303758	-0.296282
Br200	Br	0.854472	0.995718	-1.170297
Br201	Br	0.854276	0.995728	-0.655706
H202	H	0.558129	0.780281	-0.388888
