data_functionalizedCrystal
_audit_creation_method	'MofGen! by Chris Wilmer'
_symmetry_space_group_name_H-M	'P1'
_symmetry_Int_Tables_number	1
_symmetry_cell_setting	triclinic
loop_
_symmetry_equiv_pos_as_xyz
  x,y,z
_cell_length_a	29.839131
_cell_length_b	12.759395
_cell_length_c	12.759387
_cell_angle_alpha	90.022274
_cell_angle_beta	89.962744
_cell_angle_gamma	89.958016
loop_
_atom_site_label
_atom_site_type_symbol
_atom_site_fract_x
_atom_site_fract_y
_atom_site_fract_z
Zn1	Zn	-0.178823	-1.606074	-0.594007
Zn2	Zn	-0.253961	-1.605882	-0.418308
Zn3	Zn	-0.178846	-1.430372	-0.418339
Zn4	Zn	-0.253927	-1.430282	-0.593942
O5	O	-0.216389	-1.518153	-0.506149
O6	O	-0.188794	-1.753069	-0.570715
O7	O	-0.244020	-1.582558	-0.271291
O8	O	-0.115976	-1.453797	-0.441682
O9	O	-0.243998	-1.752929	-0.441629
O10	O	-0.115959	-1.582884	-0.570745
O11	O	-0.188834	-1.453611	-0.271314
O12	O	-0.188802	-1.283339	-0.441618
O13	O	-0.243941	-1.453644	-0.740972
O14	O	-0.243963	-1.283273	-0.570633
O15	O	-0.188762	-1.582797	-0.741020
O16	O	-0.316823	-1.582471	-0.441566
O17	O	-0.316799	-1.453458	-0.570603
C18	C	-0.216382	-1.245185	-0.506122
C19	C	-0.216389	-1.128408	-0.506136
C20	C	-0.333112	-1.517963	-0.506097
C21	C	-0.383046	-1.517978	-0.506110
C22	C	-0.273922	-1.128378	-0.640262
C23	C	-0.302692	-1.073502	-0.707326
C24	C	-0.302697	-0.963781	-0.707335
C25	C	-0.273928	-0.908933	-0.640276
C26	C	-0.245158	-0.963808	-0.573212
C27	C	-0.245157	-1.073532	-0.573207
C28	C	-0.187623	-0.963838	-0.439093
C29	C	-0.187620	-1.073560	-0.439076
C30	C	-0.158854	-0.908990	-0.372033
C31	C	-0.130086	-0.963866	-0.304962
C32	C	-0.130083	-1.073594	-0.304955
C33	C	-0.158851	-1.128436	-0.372012
C34	C	-0.692690	-1.585452	-0.439057
C35	C	-0.880363	-1.585581	-0.439098
O36	O	-0.904628	-1.642799	-0.382048
N37	N	-0.903831	-1.518370	-0.506228
C38	C	-0.880379	-1.451127	-0.573358
O39	O	-0.904646	-1.393971	-0.630464
C40	C	-0.692707	-1.451004	-0.573321
C41	C	-0.669240	-1.518211	-0.506179
C42	C	-0.669223	-1.652655	-0.371922
C43	C	-0.622308	-1.652617	-0.371908
C44	C	-0.598859	-1.585377	-0.439030
C45	C	-0.622325	-1.518174	-0.506166
C46	C	-0.669255	-1.383766	-0.640455
C47	C	-0.622334	-1.383743	-0.640442
C48	C	-0.598868	-1.450951	-0.573300
C49	C	-0.551960	-1.450897	-0.573274
N50	N	-0.528492	-1.518108	-0.506144
C51	C	-0.551941	-1.585348	-0.439022
C52	C	-0.978909	-1.451195	-0.573370
C53	C	-1.025827	-1.451225	-0.573378
C54	C	-1.025808	-1.585680	-0.439120
C55	C	-0.978889	-1.585645	-0.439108
C56	C	-0.955441	-1.518406	-0.506240
C57	C	-0.453415	-1.585264	-0.438998
C58	C	-0.406496	-1.585218	-0.438988
C59	C	-0.406519	-1.450767	-0.573249
C60	C	-0.453434	-1.450808	-0.573257
C61	C	-0.476881	-1.518066	-0.506128
O62	O	-0.527666	-1.393717	-0.630303
O63	O	-0.527665	-1.642512	-0.381941
C64	C	-0.739605	-1.585489	-0.439071
C65	C	-0.763071	-1.518286	-0.506207
C66	C	-0.739622	-1.451045	-0.573329
C67	C	-0.809989	-1.518315	-0.506215
C68	C	-0.833438	-1.585555	-0.439092
C69	C	-0.809970	-1.652766	-0.371962
C70	C	-0.763054	-1.652729	-0.371949
C71	C	-0.763091	-1.383834	-0.640459
C72	C	-0.810006	-1.383876	-0.640466
C73	C	-0.833455	-1.451117	-0.573344
C74	C	-0.099211	-1.518372	-0.506224
C75	C	-0.049276	-1.518465	-0.506256
C76	C	-0.216345	-1.518232	-0.780183
C77	C	-0.216326	-1.518266	-0.896959
C78	C	-0.216395	-0.792186	-0.506168
C79	C	-0.216393	-0.908963	-0.506157
C80	C	-0.158872	-1.652762	-0.897029
C81	C	-0.130139	-1.720025	-0.951925
C82	C	-0.130122	-1.720050	-1.061647
C83	C	-0.158842	-1.652804	-1.116475
C84	C	-0.187576	-1.585541	-1.061579
C85	C	-0.187590	-1.585525	-0.951855
C86	C	-0.245027	-1.451041	-1.061509
C87	C	-0.245046	-1.451019	-0.951788
C88	C	-0.273746	-1.383794	-1.116338
C89	C	-0.302483	-1.316535	-1.061442
C90	C	-0.302498	-1.316513	-0.951714
C91	C	-0.273780	-1.383756	-0.896892
C92	C	-0.216401	-1.518134	-0.233181
C93	C	-0.216293	-1.518304	-0.116405
H94	H	-0.273925	-1.217719	-0.640253
H95	H	-0.106652	-1.118268	-0.250350
N96	N	-0.381218	-1.378246	-0.645635
H97	H	-0.361718	-1.420913	-0.694348
H98	H	-0.403227	-1.335683	-0.688104
N99	N	-0.333447	-1.243991	-1.120574
H100	H	-0.329072	-1.254203	-1.198412
H101	H	-0.365539	-1.260258	-1.101392
H102	H	-0.743952	-1.707456	-0.317276
N103	N	-0.158889	-1.652703	-0.778688
H104	H	-0.189713	-1.671933	-0.752229
H105	H	-0.136317	-1.705489	-0.752351
N106	N	-0.835270	-1.725280	-0.299563
H107	H	-0.854701	-1.773953	-0.342316
H108	H	-0.813263	-1.767788	-0.257036
N109	N	-0.158810	-1.652819	-1.234817
H110	H	-0.167065	-1.724877	-1.261268
H111	H	-0.181357	-1.599969	-1.261147
N112	N	-0.953625	-1.378656	-0.645775
H113	H	-0.934194	-1.329977	-0.603030
H114	H	-0.934151	-1.421376	-0.694495
H115	H	-0.688311	-1.707415	-0.317263
H116	H	-0.829108	-1.329138	-0.695140
H117	H	-0.273930	-0.819591	-0.640298
N118	N	-0.333723	-1.132662	-0.779642
H119	H	-0.351949	-1.081248	-0.822127
H120	H	-0.315463	-1.178239	-0.828343
H121	H	-0.744002	-1.329081	-0.695119
N122	N	-1.051133	-1.378733	-0.645794
H123	H	-1.084414	-1.388947	-0.635622
H124	H	-1.042968	-1.303702	-0.629373
N125	N	-0.273723	-1.383830	-1.234680
H126	H	-0.304539	-1.403081	-1.261095
H127	H	-0.265435	-1.311769	-1.261023
H128	H	-0.106755	-1.774774	-0.907272
N129	N	-0.099067	-0.904707	-0.232630
H130	H	-0.078271	-0.859231	-0.275415
H131	H	-0.117339	-0.859196	-0.183892
N132	N	-0.953580	-1.658144	-0.366706
H133	H	-0.934146	-1.615469	-0.317972
H134	H	-0.975586	-1.700727	-0.324259
N135	N	-0.273801	-1.383716	-0.778550
H136	H	-0.282068	-1.455761	-0.752117
H137	H	-0.242978	-1.364416	-0.752226
N138	N	-0.099128	-1.792592	-1.120855
H139	H	-0.106111	-1.867642	-1.101772
H140	H	-0.103490	-1.782313	-1.198663
H141	H	-0.325892	-1.261728	-0.907024
H142	H	-0.158852	-1.217777	-0.372010
H143	H	-0.326121	-0.919101	-0.761950
H144	H	-0.387391	-1.639946	-0.384309
N145	N	-0.158862	-0.790648	-0.372031
H146	H	-0.150647	-0.764252	-0.444140
H147	H	-0.189678	-0.764260	-0.352531
N148	N	-1.051102	-1.658216	-0.366729
H149	H	-1.042971	-1.641945	-0.291642
H150	H	-1.084376	-1.648001	-0.377017
H151	H	-0.472500	-1.640034	-0.384338
H152	H	-0.688353	-1.329034	-0.695125
N153	N	-0.597001	-1.725122	-0.299506
H154	H	-0.618982	-1.767724	-0.256999
H155	H	-0.577504	-1.773705	-0.342324
H156	H	-0.603244	-1.328991	-0.695113
H157	H	-0.472541	-1.396086	-0.627932
