data_functionalizedCrystal
_audit_creation_method	'MofGen! by Chris Wilmer'
_symmetry_space_group_name_H-M	'P1'
_symmetry_Int_Tables_number	1
_symmetry_cell_setting	triclinic
loop_
_symmetry_equiv_pos_as_xyz
  x,y,z
_cell_length_a	10.654550
_cell_length_b	19.288865
_cell_length_c	9.130313
_cell_angle_alpha	89.990258
_cell_angle_beta	89.999724
_cell_angle_gamma	83.810589
loop_
_atom_site_label
_atom_site_type_symbol
_atom_site_fract_x
_atom_site_fract_y
_atom_site_fract_z
O1	O	1.665751	0.097555	-0.121709
O2	O	2.165751	0.597555	0.378291
O3	O	1.300074	0.106849	-0.121738
O4	O	1.800074	0.606849	0.378262
O5	O	1.493479	0.001141	-0.121693
O6	O	1.993479	0.501141	0.378307
O7	O	1.472346	0.203263	-0.121753
O8	O	1.972346	0.703263	0.378247
O9	O	1.493466	0.001138	0.121905
O10	O	1.993466	0.501138	0.621905
O11	O	1.300061	0.106846	0.121861
O12	O	1.800061	0.606846	0.621861
O13	O	1.665738	0.097552	0.121890
O14	O	2.165738	0.597552	0.621890
Cu15	Cu	1.482898	0.102198	0.144118
Cu16	Cu	1.982898	0.602198	0.644118
Cu17	Cu	1.482914	0.102202	-0.143966
Cu18	Cu	1.982914	0.602202	0.356034
O19	O	1.472333	0.203260	0.121846
O20	O	1.972333	0.703260	0.621846
C21	C	1.253284	0.106165	0.000059
C22	C	1.753284	0.606165	0.500059
C23	C	1.113884	0.104123	0.000049
C24	C	1.613884	0.604123	0.500049
C25	C	1.033066	0.166363	0.000035
C26	C	1.533066	0.666363	0.500035
C27	C	0.902087	0.164440	0.000061
C28	C	1.402087	0.664440	0.500061
C29	C	0.932756	0.038033	0.000109
C30	C	1.432756	0.538033	0.500109
C31	C	1.063733	0.039956	0.000094
C32	C	1.563733	0.539956	0.500094
C33	C	1.492792	-0.024742	0.000110
C34	C	1.992792	0.475258	0.500110
C35	C	1.490751	-0.101859	0.000123
C36	C	1.990751	0.398141	0.500123
C37	C	1.604232	-0.145812	0.000139
C38	C	2.104232	0.354188	0.500139
C39	C	1.602315	-0.218272	0.000116
C40	C	2.102315	0.281728	0.500116
C41	C	1.486909	-0.246775	0.000106
C42	C	1.986909	0.253225	0.500106
C43	C	1.373413	-0.202812	0.000081
C44	C	1.873413	0.297188	0.500081
C45	C	1.375334	-0.130354	0.000090
C46	C	1.875334	0.369646	0.500090
C47	C	1.396183	-0.355657	0.085426
C48	C	1.896183	0.144343	0.585426
C49	C	1.394266	-0.428114	0.085426
C50	C	1.894266	0.071886	0.585426
C51	C	1.480980	-0.470259	0.000073
C52	C	1.980980	0.029741	0.500073
C53	C	1.569631	-0.439940	-0.085263
C54	C	2.069631	0.060060	0.414737
C55	C	1.571552	-0.367482	-0.085254
C56	C	2.071552	0.132518	0.414746
C57	C	1.484814	-0.325343	0.000095
C58	C	1.984814	0.174657	0.500095
C59	C	1.592390	-0.592782	0.000061
C60	C	2.092390	-0.092782	0.500061
C61	C	1.590467	-0.665243	0.000029
C62	C	2.090467	-0.165243	0.500029
C63	C	1.361562	-0.649781	0.000009
C64	C	1.861562	-0.149781	0.500009
C65	C	1.363488	-0.577322	0.000027
C66	C	1.863488	-0.077322	0.500027
C67	C	1.478905	-0.548827	0.000060
C68	C	1.978905	-0.048827	0.500060
C69	C	1.712528	0.098236	0.000090
C70	C	2.212528	0.598236	0.500090
C71	C	1.851928	0.100277	0.000091
C72	C	2.351928	0.600277	0.500091
C73	C	1.473020	0.229142	0.000039
C74	C	1.973020	0.729142	0.500039
C75	C	1.475061	0.306259	0.000016
C76	C	1.975061	0.806259	0.500016
N77	N	1.482896	0.102195	0.346741
N78	N	1.982896	0.602195	0.846741
N79	N	1.482925	0.102200	-0.346588
N80	N	1.982925	0.602200	0.153412
C81	C	1.568565	0.055408	0.423412
C82	C	2.068565	0.555408	0.923412
C83	C	1.568577	0.055408	0.576749
C84	C	2.068577	0.555408	1.076749
C85	C	1.397248	0.148990	0.576729
C86	C	1.897248	0.648990	1.076729
C87	C	1.397231	0.148986	0.423395
C88	C	1.897231	0.648986	0.923395
H89	H	0.836289	0.215122	0.000052
H90	H	1.336289	0.715122	0.500052
C91	C	0.877576	-0.032547	0.000144
C92	C	1.377576	0.467453	0.500144
N93	N	0.836016	-0.085709	0.000166
N94	N	1.336016	0.414291	0.500166
H95	H	1.267597	-0.672988	-0.000006
H96	H	1.767597	-0.172988	0.499994
C97	C	1.719350	-0.561435	0.000075
C98	C	2.219350	-0.061435	0.500075
N99	N	1.814977	-0.537827	0.000081
N100	N	2.314977	-0.037827	0.500081
H101	H	1.271079	-0.541534	0.000022
H102	H	1.771079	-0.041534	0.500022
H103	H	1.694728	-0.254065	0.000123
H104	H	2.194728	0.245935	0.500123
H105	H	1.698214	-0.122616	0.000161
H106	H	2.198214	0.377384	0.500161
H107	H	1.322076	-0.452794	0.154903
H108	H	1.822076	0.047206	0.654903
C109	C	1.088228	0.236948	0.000004
C110	C	1.588228	0.736948	0.500004
N111	N	1.129772	0.290114	-0.000011
N112	N	1.629772	0.790114	0.499989
H113	H	1.327503	0.187086	0.639157
H114	H	1.827503	0.687086	1.139157
H115	H	1.638334	0.017308	0.639171
H116	H	2.138334	0.517308	1.139171
H117	H	1.129539	-0.010730	0.000109
H118	H	1.629539	0.489270	0.500109
H119	H	1.327464	0.187086	0.360965
H120	H	1.827464	0.687086	0.860965
C121	C	1.300789	-0.309305	0.179335
C122	C	1.800789	0.190695	0.679335
N123	N	1.228943	-0.274393	0.250068
N124	N	1.728943	0.225607	0.750068
C125	C	1.665020	-0.486294	-0.179166
C126	C	2.165020	0.013706	0.320834
N127	N	1.736864	-0.521210	-0.249891
N128	N	2.236864	-0.021210	0.250109
C129	C	1.246467	-0.234167	0.000081
C130	C	1.746467	0.265833	0.500081
N131	N	1.150847	-0.257783	0.000080
N132	N	1.650847	0.242217	0.500080
C133	C	1.662789	0.003932	0.339097
C134	C	2.162789	0.503932	0.839097
N135	N	1.733757	-0.034844	0.275596
N136	N	2.233757	0.465156	0.775596
H137	H	1.682881	-0.701029	0.000034
H138	H	2.182881	-0.201029	0.500034
H139	H	1.643732	-0.342798	-0.154740
H140	H	2.143732	0.157202	0.345260
H141	H	1.282921	-0.094566	0.000077
H142	H	1.782921	0.405434	0.500077
