data_functionalizedCrystal
_audit_creation_method	'MofGen! by Chris Wilmer'
_symmetry_space_group_name_H-M	'P1'
_symmetry_Int_Tables_number	1
_symmetry_cell_setting	triclinic
loop_
_symmetry_equiv_pos_as_xyz
  x,y,z
_cell_length_a	14.853558
_cell_length_b	14.853569
_cell_length_c	13.930277
_cell_angle_alpha	89.994278
_cell_angle_beta	89.993309
_cell_angle_gamma	83.633349
loop_
_atom_site_label
_atom_site_type_symbol
_atom_site_fract_x
_atom_site_fract_y
_atom_site_fract_z
O1	O	1.196374	0.117664	-0.079822
O2	O	1.696374	0.617664	0.420178
O3	O	0.933914	0.131694	-0.079827
O4	O	1.433914	0.631694	0.420173
O5	O	1.072154	-0.006551	-0.079815
O6	O	1.572154	0.493449	0.420185
O7	O	1.058134	0.255909	-0.079833
O8	O	1.558134	0.755909	0.420167
O9	O	1.072135	-0.006554	0.079847
O10	O	1.572135	0.493446	0.579847
O11	O	0.933894	0.131691	0.079835
O12	O	1.433894	0.631691	0.579835
O13	O	1.196355	0.117661	0.079840
O14	O	1.696355	0.617661	0.579840
Zn15	Zn	1.065122	0.124675	0.105187
Zn16	Zn	1.565122	0.624675	0.605187
Zn17	Zn	1.065147	0.124679	-0.105174
Zn18	Zn	1.565147	0.624679	0.394826
O19	O	1.058115	0.255906	0.079828
O20	O	1.558115	0.755906	0.579828
C21	C	0.900315	0.131058	0.000004
C22	C	1.400315	0.631058	0.500004
C23	C	0.800231	0.129158	0.000002
C24	C	1.300231	0.629158	0.500002
C25	C	0.753221	0.128268	-0.087033
C26	C	1.253221	0.628268	0.412967
C27	C	0.753199	0.128254	0.087037
C28	C	1.253199	0.628254	0.587037
C29	C	0.659165	0.126463	0.087038
C30	C	1.159165	0.626463	0.587038
C31	C	0.612155	0.125574	0.000003
C32	C	1.112155	0.625574	0.500003
C33	C	0.659179	0.126475	-0.087034
C34	C	1.159179	0.626475	0.412966
C35	C	0.612135	0.125553	0.174074
C36	C	1.112135	0.625553	0.674074
C37	C	0.518096	0.123762	0.174079
C38	C	1.018096	0.623762	0.674079
C39	C	0.471084	0.122879	0.087043
C40	C	0.971084	0.622879	0.587043
C41	C	0.518113	0.123780	0.000002
C42	C	1.018113	0.623780	0.500002
C43	C	0.471104	0.122891	-0.087033
C44	C	0.971104	0.622891	0.412967
C45	C	0.518131	0.123799	-0.174075
C46	C	1.018131	0.623799	0.325925
C47	C	0.612167	0.125591	-0.174070
C48	C	1.112167	0.625591	0.325930
C49	C	0.377047	0.121086	0.087038
C50	C	0.877047	0.621086	0.587038
C51	C	0.377062	0.121097	-0.087034
C52	C	0.877062	0.621097	0.412966
C53	C	1.071509	-0.040141	0.000016
C54	C	1.571509	0.459859	0.500016
C55	C	1.069604	-0.140225	0.000017
C56	C	1.569604	0.359775	0.500017
C57	C	0.986593	-0.176599	0.000018
C58	C	1.486593	0.323401	0.500018
C59	C	1.150826	-0.197894	0.000010
C60	C	1.650826	0.302106	0.500010
C61	C	1.149040	-0.291928	0.000006
C62	C	1.649040	0.208072	0.500006
C63	C	1.066029	-0.328302	0.000006
C64	C	1.566029	0.171698	0.500006
C65	C	0.984804	-0.270641	0.000010
C66	C	1.484804	0.229359	0.500010
C67	C	1.230263	-0.349595	-0.000008
C68	C	1.730263	0.150405	0.499992
C69	C	1.228480	-0.443635	-0.000013
C70	C	1.728480	0.056365	0.499987
C71	C	1.145468	-0.480011	-0.000006
C72	C	1.645468	0.019989	0.499994
C73	C	1.064240	-0.422344	-0.000001
C74	C	1.564240	0.077656	0.499999
C75	C	0.981229	-0.458718	-0.000001
C76	C	1.481229	0.041282	0.499999
C77	C	0.900000	-0.401053	0.000012
C78	C	1.400000	0.098947	0.500012
C79	C	0.901792	-0.307017	0.000017
C80	C	1.401792	0.192983	0.500017
C81	C	1.143675	-0.574047	-0.000012
C82	C	1.643675	-0.074047	0.499988
C83	C	0.979439	-0.552760	-0.000008
C84	C	1.479439	-0.052760	0.499992
C85	C	1.229953	0.118296	0.000008
C86	C	1.729953	0.618296	0.500008
C87	C	1.330038	0.120197	0.000003
C88	C	1.830038	0.620197	0.500003
C89	C	1.058760	0.289496	-0.000005
C90	C	1.558760	0.789496	0.499995
C91	C	1.060664	0.389579	-0.000012
C92	C	1.560664	0.889579	0.499988
N93	N	1.065111	0.124672	0.248754
N94	N	1.565111	0.624672	0.748754
N95	N	1.065165	0.124675	-0.248740
N96	N	1.565165	0.624675	0.251260
C97	C	1.003932	0.185870	0.701018
C98	C	1.503932	0.685870	1.201018
C99	C	1.126387	0.063481	0.700997
C100	C	1.626387	0.563481	1.200997
C101	C	1.126376	0.063478	0.600502
C102	C	1.626376	0.563478	1.100502
C103	C	1.065143	0.124673	0.550259
C104	C	1.565143	0.624673	1.050259
C105	C	1.003921	0.185871	0.600513
C106	C	1.503921	0.685871	1.100513
C107	C	1.187604	0.002288	0.550241
C108	C	1.687604	0.502288	1.050241
C109	C	1.187596	0.002283	0.449739
C110	C	1.687596	0.502283	0.949739
C111	C	1.126358	0.063475	0.399495
C112	C	1.626358	0.563475	0.899495
C113	C	1.065132	0.124674	0.449754
C114	C	1.565132	0.624674	0.949754
C115	C	1.003899	0.185869	0.399512
C116	C	1.503899	0.685869	0.899512
C117	C	0.942669	0.247065	0.449770
C118	C	1.442669	0.747065	0.949770
C119	C	0.942683	0.247062	0.550268
C120	C	1.442683	0.747062	1.050268
C121	C	1.126344	0.063477	0.298996
C122	C	1.626344	0.563477	0.798996
C123	C	1.003889	0.185870	0.299007
C124	C	1.503889	0.685870	0.799007
H125	H	0.650465	0.126329	-0.244935
H126	H	1.150465	0.626329	0.255065
H127	H	1.176246	0.013663	0.741908
H128	H	1.676246	0.513663	1.241908
H129	H	1.237462	-0.047531	0.591151
H130	H	1.737462	0.452469	1.091151
H131	H	0.338792	0.120378	-0.157910
H132	H	0.838792	0.620378	0.342090
C133	C	1.254943	-0.065040	0.394465
C134	C	1.754943	0.434960	0.894465
N135	N	1.305666	-0.115751	0.352831
N136	N	1.805666	0.384249	0.852831
H137	H	0.832412	-0.430681	0.000006
H138	H	1.332412	0.069319	0.500006
H139	H	0.892816	0.296894	0.408851
H140	H	1.392816	0.796894	0.908851
H141	H	0.338761	0.120355	0.157906
H142	H	0.838761	0.620355	0.657906
C143	C	0.804906	0.129280	0.182770
C144	C	1.304906	0.629280	0.682770
N145	N	0.843854	0.130073	0.254880
N146	N	1.343854	0.630073	0.754880
C147	C	0.888119	-0.592763	-0.000007
C148	C	1.388119	-0.092763	0.499993
N149	N	0.819335	-0.622892	-0.000008
N150	N	1.319335	-0.122892	0.499992
H151	H	1.297847	-0.319972	0.000051
H152	H	1.797847	0.180028	0.500051
H153	H	1.176201	0.013657	0.258081
H154	H	1.676201	0.513657	0.758081
C155	C	0.897246	-0.113168	0.000027
C156	C	1.397246	0.386832	0.500027
N157	N	0.829948	-0.065390	0.000032
N158	N	1.329948	0.434610	0.500032
C159	C	0.936575	0.253176	0.756301
C160	C	1.436575	0.753176	1.256301
N161	N	0.885840	0.303870	0.797942
N162	N	1.385840	0.803870	1.297942
H163	H	1.218411	-0.168272	0.000029
H164	H	1.718411	0.331728	0.500029
H165	H	0.479815	0.123021	0.244953
H166	H	0.979815	0.623021	0.744953
C167	C	0.812448	-0.243579	0.000018
C168	C	1.312448	0.256421	0.500018
N169	N	0.745155	-0.195795	0.000013
N170	N	1.245155	0.304205	0.500013
H171	H	0.954022	0.235699	0.258106
H172	H	1.454022	0.735699	0.758106
C173	C	0.466408	0.122817	-0.269810
C174	C	0.966408	0.622817	0.230190
N175	N	0.427447	0.122078	-0.341916
N176	N	0.927447	0.622078	0.158084
H177	H	0.892832	0.296886	0.591194
H178	H	1.392832	0.796886	1.091194
H179	H	0.650419	0.126270	0.244933
H180	H	1.150419	0.626270	0.744933
C181	C	0.804951	0.129264	-0.182774
C182	C	1.304951	0.629264	0.317226
N183	N	0.843916	0.130011	-0.254887
N184	N	1.343916	0.630011	0.245113
H185	H	1.294622	-0.490579	-0.000022
H186	H	1.794622	0.009421	0.499978
H187	H	1.209811	-0.620993	-0.000032
H188	H	1.709811	-0.120993	0.499968
