data_functionalizedCrystal
_audit_creation_method	'MofGen! by Chris Wilmer'
_symmetry_space_group_name_H-M	'P1'
_symmetry_Int_Tables_number	1
_symmetry_cell_setting	triclinic
loop_
_symmetry_equiv_pos_as_xyz
  x,y,z
_cell_length_a	14.971487
_cell_length_b	11.892095
_cell_length_c	12.811442
_cell_angle_alpha	88.493659
_cell_angle_beta	83.832248
_cell_angle_gamma	86.102423
loop_
_atom_site_label
_atom_site_type_symbol
_atom_site_fract_x
_atom_site_fract_y
_atom_site_fract_z
O1	O	-1.193819	0.107076	-0.129149
O2	O	-0.693819	0.607076	0.370851
O3	O	-0.933568	0.108780	-0.145407
O4	O	-0.433568	0.608780	0.354593
O5	O	-1.069297	0.092376	0.014397
O6	O	-0.569297	0.592376	0.514397
O7	O	-1.058090	0.123481	-0.288952
O8	O	-0.558090	0.623481	0.211048
O9	O	-1.057980	-0.094266	0.001093
O10	O	-0.557980	0.405734	0.501093
O11	O	-0.922251	-0.077861	-0.158710
O12	O	-0.422251	0.422139	0.341290
O13	O	-1.182502	-0.079565	-0.142452
O14	O	-0.682502	0.420435	0.357548
Zn15	Zn	-1.050580	-0.108347	-0.152694
Zn16	Zn	-0.550580	0.391653	0.347306
Zn17	Zn	-1.065490	0.137562	-0.135166
Zn18	Zn	-0.565490	0.637562	0.364834
O19	O	-1.046773	-0.063161	-0.302256
O20	O	-0.546773	0.436839	0.197744
C21	C	-0.894579	0.015390	-0.151331
C22	C	-0.394579	0.515390	0.348669
C23	C	-0.795263	0.015180	-0.149150
C24	C	-0.295263	0.515180	0.350850
N25	N	-1.040410	-0.276173	-0.164655
N26	N	-0.540410	0.223827	0.335345
C27	C	-0.738889	0.024807	-0.243031
C28	C	-0.238889	0.524807	0.256969
C29	C	-0.645570	0.024582	-0.240978
C30	C	-0.145570	0.524582	0.259022
C31	C	-0.608627	0.014739	-0.145042
C32	C	-0.108627	0.514739	0.354958
C33	C	-0.665008	0.005108	-0.051154
C34	C	-0.165008	0.505108	0.448846
C35	C	-0.758325	0.005325	-0.053209
C36	C	-0.258325	0.505325	0.446791
C37	C	-0.470506	0.004659	-0.046878
C38	C	0.029494	0.504659	0.453122
C39	C	-0.377183	0.004444	-0.044822
C40	C	0.122817	0.504444	0.455178
C41	C	-0.357752	0.023916	-0.234647
C42	C	0.142248	0.523916	0.265353
C43	C	-0.451068	0.024133	-0.236702
C44	C	0.048932	0.524133	0.263298
C45	C	-0.507443	0.014505	-0.142813
C46	C	-0.007443	0.514505	0.357187
C47	C	-1.146431	-0.525628	-0.039900
C48	C	-0.646431	-0.025628	0.460100
C49	C	-1.139329	-0.643110	-0.048269
C50	C	-0.639329	-0.143110	0.451731
C51	C	-1.019101	-0.628624	-0.189756
C52	C	-0.519101	-0.128624	0.310244
C53	C	-1.026203	-0.511141	-0.181387
C54	C	-0.526203	-0.011141	0.318613
C55	C	-1.089871	-0.459647	-0.106458
C56	C	-0.589871	0.040353	0.393542
C57	C	-1.096976	-0.342162	-0.098095
C58	C	-0.596976	0.157838	0.401905
C59	C	-0.976744	-0.327678	-0.239576
C60	C	-0.476744	0.172322	0.260424
C61	C	-0.969642	-0.445161	-0.247945
C62	C	-0.469642	0.054839	0.252055
C63	C	-0.221492	0.013834	-0.136527
C64	C	0.278508	0.513834	0.363473
C65	C	-0.320810	0.014071	-0.138703
C66	C	0.179190	0.514071	0.361297
C67	C	-1.062662	-0.004923	0.046566
C68	C	-0.562662	0.495077	0.546566
C69	C	-1.059742	-0.016776	0.162241
C70	C	-0.559742	0.483224	0.662241
N71	N	-1.075667	0.305387	-0.123195
N72	N	-0.575667	0.805387	0.376805
C73	C	-1.053408	0.034141	-0.334425
C74	C	-0.553408	0.534141	0.165575
C75	C	-1.056328	0.046001	-0.450100
C76	C	-0.556328	0.546001	0.049900
C77	C	-1.049463	-0.135219	0.318032
C78	C	-0.549463	0.364781	0.818032
C79	C	-1.052202	-0.124084	0.209344
C80	C	-0.552202	0.375916	0.709344
C81	C	-1.064540	0.079404	0.223834
C82	C	-0.564540	0.579404	0.723834
C83	C	-1.061801	0.068270	0.332522
C84	C	-0.561801	0.568270	0.832522
C85	C	-1.054263	-0.039046	0.379617
C86	C	-0.554263	0.460954	0.879617
C87	C	-1.051530	-0.050179	0.488308
C88	C	-0.551530	0.449821	0.988308
C89	C	-1.063862	0.153308	0.502794
C90	C	-0.563862	0.653308	1.002794
C91	C	-1.066601	0.164443	0.394107
C92	C	-0.566601	0.664443	0.894107
H93	H	-0.768960	0.032823	-0.321153
H94	H	-0.268960	0.532823	0.178847
F95	F	-0.530502	-0.005592	0.053049
F96	F	-0.030502	0.494408	0.553049
F97	F	-1.074640	0.278649	0.343975
F98	F	-0.574640	0.778649	0.843975
F99	F	-1.041454	-0.249430	0.368159
F100	F	-0.541454	0.250570	0.868159
F101	F	-0.951336	-0.683442	-0.269487
F102	F	-0.451336	-0.183442	0.230513
H103	H	-0.599674	0.032422	-0.317425
H104	H	-0.099674	0.532422	0.182575
F105	F	-0.490385	0.034621	-0.338806
F106	F	0.009615	0.534621	0.161194
F107	F	-0.625688	-0.005375	0.050948
F108	F	-0.125688	0.494625	0.550948
H109	H	-0.804224	-0.002513	0.023239
H110	H	-0.304224	0.497487	0.523239
H111	H	-1.070675	0.166775	0.185469
H112	H	-0.570675	0.666775	0.685469
H113	H	-0.311847	0.031751	-0.311095
H114	H	0.188153	0.531751	0.188905
H115	H	-1.067773	0.231620	0.552949
H116	H	-0.567773	0.731620	1.052949
H117	H	-0.347107	-0.003572	0.033297
H118	H	0.152893	0.496428	0.533297
H119	H	-1.148820	-0.300237	-0.037087
H120	H	-0.648820	0.199763	0.462913
F121	F	-1.214199	-0.470822	0.039835
F122	F	-0.714199	0.029178	0.539835
H123	H	-0.917802	-0.487101	-0.308948
H124	H	-0.417802	0.012899	0.191052
F125	F	-1.199526	-0.713328	0.022573
F126	F	-0.699526	-0.213328	0.522573
H127	H	-0.930692	-0.273943	-0.293775
H128	H	-0.430692	0.226057	0.206225
F129	F	-1.043512	-0.164392	0.538429
F130	F	-0.543512	0.335608	1.038429
F131	F	-1.047090	-0.226446	0.143804
F132	F	-0.547090	0.273554	0.643804
