data_functionalizedCrystal
_audit_creation_method	'MofGen! by Chris Wilmer'
_symmetry_space_group_name_H-M	'P1'
_symmetry_Int_Tables_number	1
_symmetry_cell_setting	triclinic
loop_
_symmetry_equiv_pos_as_xyz
  x,y,z
_cell_length_a	8.497367
_cell_length_b	8.497374
_cell_length_c	12.759401
_cell_angle_alpha	90.000439
_cell_angle_beta	90.034433
_cell_angle_gamma	90.038609
loop_
_atom_site_label
_atom_site_type_symbol
_atom_site_fract_x
_atom_site_fract_y
_atom_site_fract_z
Zn1	Zn	0.628371	0.892418	1.606419
Zn2	Zn	0.892117	0.628837	1.606517
Zn3	Zn	0.628340	0.628651	1.430777
Zn4	Zn	0.892098	0.892575	1.430858
O5	O	0.760231	0.760620	1.518643
O6	O	0.663378	0.857466	1.753453
O7	O	0.857121	0.408050	1.583212
O8	O	0.407581	0.663497	1.454002
O9	O	0.857151	0.663814	1.753525
O10	O	0.407604	0.857285	1.583045
O11	O	0.663325	0.407914	1.454096
O12	O	0.663307	0.663649	1.283767
O13	O	0.857120	1.113316	1.454139
O14	O	0.857090	0.857552	1.283826
O15	O	0.663360	1.113201	1.583124
O16	O	1.112877	0.663966	1.583290
O17	O	1.112863	0.857733	1.454234
C18	C	0.760194	0.760598	1.245675
C19	C	0.760216	0.760627	1.128899
C20	C	1.348751	0.760475	1.518570
C21	C	1.170107	0.760763	1.518702
C22	C	0.760234	1.172101	1.518635
C23	C	0.760250	1.350745	1.518637
C24	C	0.659509	0.861617	1.073992
C25	C	0.659539	0.861627	0.964268
C26	C	0.860997	0.659651	0.964366
C27	C	0.860958	0.659634	1.074089
C28	C	0.558767	0.962610	1.128802
C29	C	0.458053	1.063610	1.073896
C30	C	0.458084	1.063620	0.964172
C31	C	0.558828	0.962629	0.909354
C32	C	0.760270	0.760643	1.792676
C33	C	0.760286	0.760653	1.909453
H34	H	0.558731	0.962612	1.218145
H35	H	0.942963	0.577399	1.118794
O36	O	0.360420	1.161871	1.127189
C37	C	0.450382	1.263647	1.190728
H38	H	0.574656	1.273279	1.157727
H39	H	0.455715	1.214857	1.273885
C40	C	0.220937	1.415889	1.232913
C41	C	0.373570	1.427729	1.192376
H42	H	0.173554	1.517102	1.233935
H43	H	0.160326	1.347318	1.190109
H44	H	0.225402	1.375225	1.302207
H45	H	0.369101	1.468374	1.123079
H46	H	0.434179	1.496312	1.235168
O47	O	0.360201	1.161869	0.910997
C48	C	0.271252	1.250966	0.982907
H49	H	0.335856	1.256355	1.061155
H50	H	0.151339	1.193311	0.994509
C51	C	0.169456	1.412277	0.843978
C52	C	0.248810	1.418907	0.940081
H53	H	0.155605	1.515869	0.817561
H54	H	0.229378	1.352248	0.795530
H55	H	0.069537	1.364224	0.853660
H56	H	0.348734	1.466941	0.930396
H57	H	0.188905	1.478949	0.988527
H58	H	0.943021	0.577432	0.919725
H59	H	0.558811	0.962612	0.820010
