data_functionalizedCrystal
_audit_creation_method	'MofGen! by Chris Wilmer'
_symmetry_space_group_name_H-M	'P1'
_symmetry_Int_Tables_number	1
_symmetry_cell_setting	triclinic
loop_
_symmetry_equiv_pos_as_xyz
  x,y,z
_cell_length_a	9.065218
_cell_length_b	9.065218
_cell_length_c	8.140239
_cell_angle_alpha	89.997972
_cell_angle_beta	90.002802
_cell_angle_gamma	94.984115
loop_
_atom_site_label
_atom_site_type_symbol
_atom_site_fract_x
_atom_site_fract_y
_atom_site_fract_z
O1	O	-1.960398	0.216355	-0.136612
O2	O	-1.460398	0.716355	0.363388
O3	O	-1.531113	0.234101	-0.136614
O4	O	-1.031113	0.734101	0.363386
O5	O	-1.754629	0.010585	-0.136608
O6	O	-1.254629	0.510585	0.363392
O7	O	-1.736882	0.439870	-0.136617
O8	O	-1.236882	0.939870	0.363383
O9	O	-1.754616	0.010583	0.136619
O10	O	-1.254616	0.510583	0.636619
O11	O	-1.531101	0.234098	0.136613
O12	O	-1.031101	0.734098	0.636613
O13	O	-1.960385	0.216352	0.136615
O14	O	-1.460385	0.716352	0.636615
Zn15	Zn	-1.745741	0.225225	0.179995
Zn16	Zn	-1.245741	0.725225	0.679995
Zn17	Zn	-1.745758	0.225228	-0.179993
Zn18	Zn	-1.245758	0.725228	0.320007
O19	O	-1.736870	0.439868	0.136610
O20	O	-1.236870	0.939868	0.636610
C21	C	-1.752917	-0.044403	0.000003
C22	C	-1.252917	0.455597	0.500003
C23	C	-1.747817	-0.208245	-0.000003
C24	C	-1.247817	0.291755	0.499997
C25	C	-1.476120	0.232394	-0.000000
C26	C	-0.976120	0.732394	0.500000
C27	C	-1.312277	0.227294	-0.000001
C28	C	-0.812277	0.727294	0.499999
C29	C	-2.015378	0.218059	-0.000002
C30	C	-1.515378	0.718059	0.499998
C31	C	-2.179221	0.223158	-0.000012
C32	C	-1.679221	0.723158	0.499988
N33	N	-1.745741	0.225221	0.425678
N34	N	-1.245741	0.725221	0.925678
C35	C	-1.738582	0.494855	-0.000005
C36	C	-1.238582	0.994855	0.499995
C37	C	-1.743681	0.658698	-0.000009
C38	C	-1.243681	1.158698	0.499991
N39	N	-1.745770	0.225220	-0.425676
N40	N	-1.245770	0.725220	0.074324
