data_functionalizedCrystal
_audit_creation_method	'MofGen! by Chris Wilmer'
_symmetry_space_group_name_H-M	'P1'
_symmetry_Int_Tables_number	1
_symmetry_cell_setting	triclinic
loop_
_symmetry_equiv_pos_as_xyz
  x,y,z
_cell_length_a	12.759401
_cell_length_b	13.032868
_cell_length_c	12.759393
_cell_angle_alpha	82.854968
_cell_angle_beta	89.981739
_cell_angle_gamma	82.786347
loop_
_atom_site_label
_atom_site_type_symbol
_atom_site_fract_x
_atom_site_fract_y
_atom_site_fract_z
Zn1	Zn	1.553033	0.415926	-0.647063
Zn2	Zn	1.530571	0.590709	-0.493679
Zn3	Zn	1.377331	0.415986	-0.471408
Zn4	Zn	1.354973	0.590633	-0.669308
O5	O	1.453977	0.503313	-0.570365
O6	O	1.697074	0.439118	-0.626728
O7	O	1.510199	0.567589	-0.343711
O8	O	1.419396	0.269741	-0.476078
O9	O	1.680571	0.567531	-0.514037
O10	O	1.548484	0.269696	-0.605132
O11	O	1.397615	0.439221	-0.327348
O12	O	1.227345	0.439147	-0.497648
O13	O	1.381290	0.567400	-0.813371
O14	O	1.210919	0.567459	-0.643045
O15	O	1.526804	0.439044	-0.797028
O16	O	1.488520	0.736937	-0.535607
O17	O	1.359509	0.736880	-0.664641
C18	C	1.181011	0.503302	-0.570345
C19	C	1.064232	0.503322	-0.570364
C20	C	0.908229	0.436574	-0.629173
C21	C	1.017954	0.436571	-0.629161
C22	C	1.000779	0.570087	-0.511584
C23	C	0.891056	0.570094	-0.511602
C24	C	0.918146	0.359486	-0.697052
C25	C	1.027871	0.359484	-0.697040
C26	C	1.419179	0.774826	-0.604978
C27	C	1.404389	0.890981	-0.619821
C28	C	1.461683	0.942759	-0.562643
C29	C	1.446398	1.062811	-0.577982
C30	C	1.728009	0.503326	-0.570385
C31	C	1.844785	0.503332	-0.570394
C32	C	1.454059	0.503207	-0.844385
C33	C	1.454094	0.503162	-0.961155
C34	C	1.488905	1.230741	-0.535628
C35	C	1.503700	1.114586	-0.520796
C36	C	1.395501	0.436308	-1.007502
C37	C	1.395537	0.436277	-1.117222
C38	C	1.512767	0.569956	-1.134240
C39	C	1.512724	0.569992	-1.024523
C40	C	1.327823	0.359126	-0.997677
C41	C	1.327859	0.359095	-1.107397
C42	C	1.453966	0.503344	-0.297401
C43	C	1.454172	0.503095	-0.180593
H44	H	0.893957	0.282573	-0.658233
F45	F	1.540597	0.884537	-0.483819
H46	H	1.344025	0.935529	-0.680134
H47	H	1.068016	0.278522	-0.665044
F48	F	1.367492	1.121029	-0.656821
H49	H	1.038466	0.624444	-0.463719
H50	H	0.885620	0.381255	-0.781167
H51	H	1.058211	0.388560	-0.777992
H52	H	1.560419	0.624446	-0.986794
F53	F	1.582617	1.056370	-0.441966
F54	F	1.575161	0.641078	-1.201689
H55	H	1.243661	0.380801	-0.970663
F56	F	1.378796	0.258657	-0.940394
F57	F	1.369797	0.253261	-1.132849
F58	F	0.823537	0.641147	-0.449043
F59	F	1.221988	0.396979	-1.156708
