data_functionalizedCrystal
_audit_creation_method	'MofGen! by Chris Wilmer'
_symmetry_space_group_name_H-M	'P1'
_symmetry_Int_Tables_number	1
_symmetry_cell_setting	triclinic
loop_
_symmetry_equiv_pos_as_xyz
  x,y,z
_cell_length_a	9.130313
_cell_length_b	16.992694
_cell_length_c	16.992695
_cell_angle_alpha	90.668223
_cell_angle_beta	89.998255
_cell_angle_gamma	90.005255
loop_
_atom_site_label
_atom_site_type_symbol
_atom_site_fract_x
_atom_site_fract_y
_atom_site_fract_z
O1	O	0.121617	-1.050846	-0.166913
O2	O	0.121660	-0.822446	-0.165082
O3	O	0.121627	-0.935730	-0.051797
O4	O	0.121650	-0.937562	-0.280197
O5	O	-0.121972	-0.935729	-0.051800
O6	O	-0.121939	-0.822445	-0.165085
O7	O	-0.121982	-1.050845	-0.166916
Cu8	Cu	-0.144203	-0.936644	-0.166001
Cu9	Cu	0.143881	-0.936646	-0.165997
O10	O	-0.121949	-0.937560	-0.280200
C11	C	-0.000134	-0.793085	-0.162727
C12	C	-0.000118	-0.705600	-0.155699
N13	N	-0.346825	-0.936649	-0.166003
C14	C	-0.000172	-0.933374	-0.022439
C15	C	-0.000170	-0.926345	0.065046
C16	C	-0.423492	-0.986826	-0.115860
C17	C	-0.576829	-0.986823	-0.115850
C18	C	-0.576819	-0.886465	-0.216134
C19	C	-0.423485	-0.886464	-0.216139
C20	C	-0.346832	-1.037011	-0.065724
C21	C	-0.423499	-1.087193	-0.015577
C22	C	-0.576836	-1.087191	-0.015567
C23	C	-0.653506	-1.037006	-0.065705
N24	N	0.346504	-0.936647	-0.165989
C25	C	-0.000184	-1.080205	-0.169270
C26	C	-0.000191	-1.167690	-0.176299
C27	C	-0.000112	-0.659610	-0.223517
C28	C	-0.000133	-0.577409	-0.216908
C29	C	-0.000149	-0.541201	-0.142480
C30	C	-0.000159	-0.587198	-0.074657
C31	C	-0.000148	-0.669397	-0.081267
C32	C	-0.000191	-0.295886	-0.115086
C33	C	-0.000197	-0.213681	-0.108481
C34	C	-0.000173	-0.203898	-0.250732
C35	C	-0.000154	-0.286099	-0.257336
C36	C	-0.000172	-0.332089	-0.189512
N37	N	-0.000166	-0.457178	-0.135723
N38	N	-0.000166	-0.416110	-0.196270
C39	C	-0.000147	-0.939917	-0.309559
C40	C	-0.000139	-0.946945	-0.397044
C41	C	-0.000184	-0.994163	0.111037
C42	C	-0.000169	-0.987554	0.193238
C43	C	-0.000150	-0.913127	0.229446
C44	C	-0.000131	-0.845303	0.183449
C45	C	-0.000136	-0.851913	0.101250
C46	C	-0.000125	-0.885732	0.474760
C47	C	-0.000124	-0.879127	0.556966
C48	C	-0.000159	-1.021379	0.566749
C49	C	-0.000173	-1.027982	0.484547
C50	C	-0.000146	-0.960159	0.438558
N51	N	-0.000139	-0.906369	0.313468
N52	N	-0.000147	-0.966917	0.354537
H53	H	-0.221978	-1.037020	-0.065728
H54	H	-0.000152	-0.706842	-0.026042
Cl55	Cl	-0.000223	-1.087734	0.065526
H56	H	-0.000124	-0.796688	0.063804
Cl57	Cl	-0.000188	-0.541678	0.018910
H58	H	-0.361062	-0.845604	-0.256970
H59	H	-0.000124	-0.315574	-0.317942
Cl60	Cl	-0.673215	-1.150268	0.047479
Cl61	Cl	-0.000191	-1.072816	0.251052
Cl62	Cl	-0.000149	-1.121552	0.439035
H63	H	-0.000178	-1.076596	0.604202
Cl64	Cl	-0.000109	-0.785554	0.602483
H65	H	-0.361066	-1.128047	0.025248
Cl66	Cl	-0.846274	-1.036999	-0.065682
H67	H	-0.000126	-0.539966	-0.272133
H68	H	-0.639254	-0.845607	-0.256955
Cl69	Cl	-0.000088	-0.800468	0.416955
Cl70	Cl	-0.000082	-0.705120	-0.317088
H71	H	-0.000162	-0.166444	-0.305950
H72	H	-0.000208	-0.184203	-0.047870
Cl73	Cl	-0.000212	-0.353691	-0.029821
Cl74	Cl	-0.000089	-0.751737	0.228968
