data_functionalizedCrystal
_audit_creation_method	'MofGen! by Chris Wilmer'
_symmetry_space_group_name_H-M	'P1'
_symmetry_Int_Tables_number	1
_symmetry_cell_setting	triclinic
loop_
_symmetry_equiv_pos_as_xyz
  x,y,z
_cell_length_a	12.759401
_cell_length_b	10.685194
_cell_length_c	12.759393
_cell_angle_alpha	85.596579
_cell_angle_beta	89.981504
_cell_angle_gamma	94.377401
loop_
_atom_site_label
_atom_site_type_symbol
_atom_site_fract_x
_atom_site_fract_y
_atom_site_fract_z
Zn1	Zn	1.574245	-0.502334	-0.561903
Zn2	Zn	1.560690	-0.713404	-0.372744
Zn3	Zn	1.398543	-0.502400	-0.386238
Zn4	Zn	1.385092	-0.713307	-0.548392
O5	O	1.479643	-0.607861	-0.467319
O6	O	1.719467	-0.530346	-0.536818
O7	O	1.539137	-0.685482	-0.227509
O8	O	1.433153	-0.325792	-0.420842
O9	O	1.709508	-0.685418	-0.397844
O10	O	1.562240	-0.325744	-0.549902
O11	O	1.420008	-0.530458	-0.237422
O12	O	1.249739	-0.530364	-0.407741
O13	O	1.410228	-0.685253	-0.697209
O14	O	1.239856	-0.685317	-0.526875
O15	O	1.549198	-0.530252	-0.707136
O16	O	1.526094	-0.889990	-0.384743
O17	O	1.397083	-0.889919	-0.513790
C18	C	1.206677	-0.607838	-0.467306
C19	C	1.089899	-0.607859	-0.467324
C20	C	1.029910	-0.688671	-0.529237
C21	C	0.920185	-0.688687	-0.529248
C22	C	0.930447	-0.527074	-0.405422
C23	C	1.040170	-0.527053	-0.405418
C24	C	1.023985	-0.781982	-0.600724
C25	C	0.914259	-0.781998	-0.600734
C26	C	1.458687	-0.935745	-0.446359
C27	C	1.449818	-1.076015	-0.437427
C28	C	1.753674	-0.607886	-0.467332
C29	C	1.870450	-0.607896	-0.467338
C30	C	1.479724	-0.607734	-0.741361
C31	C	1.479759	-0.607680	-0.858141
C32	C	1.500709	-0.278698	-0.488384
C33	C	1.509686	-0.138428	-0.497361
C34	C	1.552130	-0.526963	-0.918174
C35	C	1.552158	-0.526917	-1.027901
C36	C	1.407440	-0.688316	-1.017552
C37	C	1.407408	-0.688354	-0.907827
C38	C	1.635686	-0.433784	-0.924150
C39	C	1.635714	-0.433739	-1.033877
C40	C	1.479627	-0.607897	-0.194349
C41	C	1.479819	-0.607596	-0.077593
H42	H	1.055454	-0.755917	-0.683795
H43	H	1.391762	-1.129897	-0.379282
H44	H	1.710725	-0.468821	-0.887876
H45	H	1.567729	-1.084553	-0.555511
H46	H	0.882485	-0.747110	-0.680314
O47	O	0.871393	-0.898657	-0.567237
C48	C	0.902680	-0.987078	-0.635233
H49	H	0.978534	-0.948777	-0.677437
H50	H	0.838452	-1.004887	-0.695575
C51	C	0.827987	-1.158387	-0.519150
C52	C	0.921158	-1.111349	-0.570979
H53	H	0.839381	-1.235046	-0.479517
H54	H	0.806905	-1.098817	-0.473341
H55	H	0.774473	-1.173218	-0.569444
H56	H	0.974666	-1.096505	-0.520685
H57	H	0.942250	-1.170920	-0.616778
H58	H	1.612517	-0.340877	-1.073855
H59	H	1.348473	-0.754077	-0.858952
H60	H	1.089010	-0.461239	-0.355010
O61	O	1.337025	-0.766550	-1.065781
C62	C	1.234072	-0.738991	-1.040707
H63	H	1.235212	-0.638184	-1.017001
H64	H	1.202261	-0.806672	-0.972681
C65	C	1.161640	-0.877443	-1.166350
C66	C	1.163040	-0.753627	-1.137242
H67	H	1.117822	-0.886477	-1.225895
H68	H	1.231001	-0.896015	-1.183241
H69	H	1.135134	-0.933830	-1.109654
H70	H	1.189558	-0.697244	-1.193933
H71	H	1.093681	-0.735046	-1.120363
O72	O	1.616952	-0.317234	-0.896135
C73	C	1.518392	-0.284998	-0.935134
H74	H	1.467293	-0.374416	-0.948900
H75	H	1.529933	-0.224540	-1.012449
C76	C	1.526929	-0.100843	-0.837791
C77	C	1.464165	-0.210667	-0.854691
H78	H	1.493480	-0.054987	-0.788174
H79	H	1.593332	-0.122557	-0.811520
H80	H	1.536541	-0.050476	-0.902227
H81	H	1.454565	-0.261039	-0.790259
H82	H	1.397758	-0.188959	-0.880950
H83	H	1.715416	-0.459915	-1.061983
H84	H	1.052086	-0.874775	-0.565513
O85	O	0.881968	-0.448713	-0.345307
C86	C	0.772260	-0.466035	-0.358606
H87	H	0.751070	-0.563475	-0.386659
H88	H	0.745915	-0.391260	-0.419434
C89	C	0.742661	-0.334662	-0.218615
C90	C	0.716634	-0.454344	-0.253061
H91	H	0.708347	-0.327445	-0.153512
H92	H	0.816573	-0.322987	-0.209657
H93	H	0.720706	-0.272363	-0.269314
H94	H	0.738601	-0.516639	-0.202368
H95	H	0.642724	-0.466028	-0.262008
