data_functionalizedCrystal
_audit_creation_method	'MofGen! by Chris Wilmer'
_symmetry_space_group_name_H-M	'P1'
_symmetry_Int_Tables_number	1
_symmetry_cell_setting	triclinic
loop_
_symmetry_equiv_pos_as_xyz
  x,y,z
_cell_length_a	16.793024
_cell_length_b	16.793047
_cell_length_c	33.586455
_cell_angle_alpha	113.253857
_cell_angle_beta	66.219990
_cell_angle_gamma	112.758327
loop_
_atom_site_label
_atom_site_type_symbol
_atom_site_fract_x
_atom_site_fract_y
_atom_site_fract_z
O1	O	0.005016	-0.570216	-0.583573
O2	O	-0.034529	-0.474528	-0.453458
O3	O	0.114723	-0.474535	-0.528082
O4	O	-0.144235	-0.570209	-0.508949
O5	O	0.108729	-0.346329	-0.530229
O6	O	-0.040523	-0.346322	-0.455605
O7	O	-0.000977	-0.442010	-0.585721
Zn8	Zn	-0.021701	-0.373810	-0.521004
Zn9	Zn	-0.013805	-0.542728	-0.518175
O10	O	-0.150229	-0.442003	-0.511097
C11	C	0.005100	-0.790970	-0.238461
C12	C	0.009223	-0.693065	-0.217557
C13	C	0.003804	-0.645758	-0.241627
C14	C	-0.075059	-0.538459	-0.266316
C15	C	0.049838	-0.422849	-0.250165
C16	C	-0.040584	-0.395375	-0.435637
C17	C	-0.044693	-0.353446	-0.386631
C18	C	-0.039275	-0.401741	-0.363054
C19	C	-0.040566	-0.125547	-0.300731
C20	C	-0.044689	-0.223451	-0.321635
C21	C	-0.039266	-0.270752	-0.297563
C22	C	0.039597	-0.378051	-0.272874
C23	C	-0.085304	-0.493667	-0.289026
C24	C	0.005118	-0.521142	-0.103554
C25	C	0.009231	-0.563064	-0.152559
C26	C	0.003809	-0.514775	-0.176138
C27	C	0.010758	-0.652581	-0.172822
C28	C	0.001010	-0.556371	-0.220792
C29	C	-0.008251	-0.506059	-0.245823
C30	C	-0.046224	-0.263935	-0.366370
C31	C	-0.036476	-0.360146	-0.318399
C32	C	-0.027211	-0.410451	-0.293367
C33	C	0.815184	-0.521162	-0.508596
C34	C	0.717729	-0.563083	-0.506815
C35	C	0.669923	-0.514793	-0.509201
C36	C	0.564072	-0.463272	-0.548285
C37	C	0.445555	-0.498966	-0.486078
C38	C	0.415541	-0.125553	-0.528781
C39	C	0.375032	-0.223457	-0.531493
C40	C	0.423813	-0.270761	-0.529101
C41	C	0.149318	-0.395376	-0.530584
C42	C	0.246774	-0.353455	-0.532364
C43	C	0.294574	-0.401748	-0.529976
C44	C	0.400424	-0.453269	-0.490892
C45	C	0.518948	-0.417572	-0.553101
C46	C	0.548961	-0.790984	-0.510398
C47	C	0.589464	-0.693083	-0.507684
C48	C	0.540690	-0.645776	-0.510078
C49	C	0.678399	-0.652598	-0.506649
C50	C	0.581167	-0.556389	-0.510877
C51	C	0.530434	-0.506073	-0.515170
C52	C	0.286104	-0.263940	-0.532530
C53	C	0.383336	-0.360149	-0.528302
C54	C	0.434062	-0.410467	-0.524008
C55	C	-0.040530	-0.395407	-0.935652
C56	C	-0.044651	-0.353482	-0.886645
C57	C	-0.039242	-0.401770	-0.863061
C58	C	0.039602	-0.453292	-0.810474
C59	C	-0.085288	-0.417587	-0.750981
C60	C	0.005063	-0.791004	-0.738448
C61	C	0.009186	-0.693099	-0.717543
C62	C	0.003779	-0.645796	-0.741620
C63	C	0.005077	-0.521171	-0.603544
C64	C	0.009198	-0.563096	-0.652550
C65	C	0.003786	-0.514804	-0.676131
C66	C	-0.075058	-0.463283	-0.728717
C67	C	0.049835	-0.498991	-0.788214
C68	C	-0.040516	-0.125574	-0.800747
C69	C	-0.044642	-0.223476	-0.821649
C70	C	-0.039232	-0.270782	-0.797575
C71	C	-0.046172	-0.263965	-0.866386
C72	C	-0.036447	-0.360171	-0.818406
C73	C	-0.027197	-0.410486	-0.793373
C74	C	0.010719	-0.652613	-0.672809
C75	C	0.000994	-0.556406	-0.720789
C76	C	-0.008259	-0.506089	-0.745819
O77	O	-0.000965	0.173549	-0.277957
O78	O	-0.040516	-0.085616	-0.325254
O79	O	0.108737	0.059592	-0.327284
O80	O	-0.150219	0.028341	-0.275927
O81	O	0.114753	0.055151	-0.263265
O82	O	-0.034500	-0.090057	-0.261234
O83	O	0.005051	0.169108	-0.213937
Zn84	Zn	-0.013769	0.038820	-0.227421
Zn85	Zn	-0.021696	0.044672	-0.311770
O86	O	-0.144202	0.023900	-0.211907
O87	O	-0.034458	-0.474571	0.046517
O88	O	0.005076	-0.570190	-0.083599
O89	O	-0.144170	-0.570237	-0.008972
O90	O	0.114787	-0.474523	-0.028110
O91	O	-0.150200	-0.442024	-0.011093
O92	O	-0.000954	-0.441976	-0.085720
O93	O	-0.040488	-0.346357	0.044396
Zn94	Zn	-0.021679	-0.373810	-0.020999
Zn95	Zn	-0.013734	-0.542737	-0.018204
O96	O	0.108757	-0.346309	-0.030231
C97	C	-0.850734	0.086244	-0.289716
C98	C	-0.753280	0.087165	-0.312001
C99	C	-0.705462	0.081107	-0.288506
C100	C	-0.599592	0.000085	-0.264184
C101	C	-0.481080	0.121287	-0.283645
C102	C	-0.450996	0.035117	-0.097351
C103	C	-0.410501	0.028587	-0.146852
C104	C	-0.459292	0.034683	-0.169840
C105	C	-0.184802	0.024283	-0.235878
C106	C	-0.282257	0.023363	-0.213592
C107	C	-0.330068	0.029423	-0.237088
C108	C	-0.435938	0.110445	-0.261411
C109	C	-0.554456	-0.010759	-0.241948
C110	C	-0.584541	0.075410	-0.428242
C111	C	-0.625029	0.081943	-0.378743
C112	C	-0.576244	0.075844	-0.355753
C113	C	-0.713963	0.086424	-0.357292
C114	C	-0.616708	0.075351	-0.310510
C115	C	-0.565963	0.065400	-0.286043
C116	C	-0.321573	0.024104	-0.168302
C117	C	-0.418828	0.035176	-0.215083
C118	C	-0.469568	0.045131	-0.239552
O119	O	0.585213	0.169090	-0.504004
O120	O	0.494056	-0.090076	-0.525516
O121	O	0.488081	0.055124	-0.449918
O122	O	0.591189	0.023889	-0.579602
O123	O	0.359978	0.059584	-0.452885
O124	O	0.365953	-0.085616	-0.528483
O125	O	0.457110	0.173550	-0.506971
Zn126	Zn	0.391193	0.044675	-0.518198
Zn127	Zn	0.559974	0.038798	-0.514289
O128	O	0.463086	0.028349	-0.582569
C129	C	0.815354	-0.521094	-0.008709
C130	C	0.717898	-0.563028	-0.006927
C131	C	0.670072	-0.514739	-0.009298
C132	C	0.564182	-0.463204	-0.048354
C133	C	0.445681	-0.498945	0.013847
C134	C	0.415547	-0.125494	-0.028771
C135	C	0.375059	-0.223405	-0.031498
C136	C	0.423859	-0.270708	-0.029121
C137	C	0.149365	-0.395355	-0.030599
C138	C	0.246820	-0.353421	-0.032381
C139	C	0.294640	-0.401713	-0.030008
C140	C	0.400530	-0.453248	0.009048
C141	C	0.519038	-0.417504	-0.053155
C142	C	0.549171	-0.790955	-0.010537
C143	C	0.589653	-0.693047	-0.007809
C144	C	0.540859	-0.645741	-0.010187
C145	C	0.678588	-0.652551	-0.006775
C146	C	0.581317	-0.556344	-0.010973
C147	C	0.530562	-0.506029	-0.015250
C148	C	0.286131	-0.263897	-0.032533
C149	C	0.383402	-0.360104	-0.028335
C150	C	0.434150	-0.410423	-0.024057
O151	O	-0.620614	0.089309	0.052274
O152	O	-0.529507	0.043784	-0.078544
O153	O	-0.523494	0.194833	-0.006033
O154	O	-0.626628	-0.061740	-0.020236
O155	O	-0.395386	0.185419	-0.005549
O156	O	-0.401400	0.034370	-0.078059
O157	O	-0.492507	0.079895	0.052758
Zn158	Zn	-0.426614	0.055638	-0.012574
Zn159	Zn	-0.595401	0.068041	-0.013212
O160	O	-0.498521	-0.071154	-0.019752
C161	C	-0.437537	0.048335	0.402491
C162	C	-0.397043	0.041789	0.352989
C163	C	-0.445822	0.047883	0.329994
C164	C	-0.496646	0.126653	0.277022
C165	C	-0.465894	-0.000633	0.218811
C166	C	-0.837226	0.099430	0.210091
C167	C	-0.739773	0.100339	0.187806
C168	C	-0.691967	0.094287	0.211308
C169	C	-0.571027	0.088563	0.071568
C170	C	-0.611521	0.095108	0.121070
C171	C	-0.562739	0.089011	0.144061
C172	C	-0.511915	0.010241	0.197033
C173	C	-0.542670	0.137531	0.255247
C174	C	-0.171338	0.037467	0.263967
C175	C	-0.268788	0.036555	0.286249
C176	C	-0.316597	0.042611	0.262750
C177	C	-0.308112	0.037305	0.331542
C178	C	-0.405351	0.048369	0.284750
C179	C	-0.456092	0.058317	0.260279
C180	C	-0.700452	0.099593	0.142516
C181	C	-0.603213	0.088528	0.189308
C182	C	-0.552469	0.078578	0.213776
O183	O	-0.040608	-1.085661	-0.825229
O184	O	-0.001018	-0.826491	-0.777938
O185	O	-0.150287	-0.971682	-0.775894
O186	O	0.108661	-0.940470	-0.827272
O187	O	-0.144253	-0.976123	-0.711878
O188	O	0.005016	-0.830932	-0.713922
O189	O	-0.034575	-1.090102	-0.761213
Zn190	Zn	-0.013821	-0.961222	-0.727403
Zn191	Zn	-0.021771	-0.955371	-0.811747
O192	O	0.114695	-0.944911	-0.763256
C193	C	-0.036360	-0.225025	-0.248200
N194	N	-0.034177	-0.190584	-0.211019
C195	C	-0.754990	0.103891	0.116292
N196	N	-0.796068	0.107125	0.096538
H197	H	-0.490116	0.084434	0.126151
H198	H	-0.449229	0.177371	-0.300885
H199	H	0.496441	-0.236915	-0.527803
C200	C	-0.543935	0.054063	0.354190
N201	N	-0.617834	0.058716	0.372415
C202	C	0.000895	-0.415995	-0.653232
N203	N	-0.001277	-0.341570	-0.635985
C204	C	0.014265	-0.706521	-0.645893
N205	N	0.016931	-0.747125	-0.625618
H206	H	0.413839	-0.532573	0.042316
C207	C	0.105110	-0.285314	-0.276744
N208	N	0.154458	-0.215461	-0.279659
H209	H	0.718963	-0.692464	-0.005731
C210	C	-0.036332	-0.225054	-0.748211
N211	N	-0.034150	-0.190610	-0.711031
C212	C	0.714544	-0.415924	-0.010076
N213	N	0.748042	-0.341496	-0.010661
H214	H	-0.434254	-0.059305	0.203012
C215	C	-0.520896	-0.056280	0.150790
N216	N	-0.527659	-0.106386	0.115957
H217	H	0.001650	-0.679613	-0.278166
H218	H	0.107227	-0.532615	-0.804368
C219	C	-0.478128	0.069675	-0.379949
N220	N	-0.404226	0.065030	-0.398174
H221	H	0.468233	-0.679598	-0.011487
C222	C	0.714416	-0.415988	-0.509994
N223	N	0.747930	-0.341567	-0.510590
H224	H	0.634201	-0.467612	-0.072637
C225	C	-0.487646	0.193178	0.323265
N226	N	-0.480873	0.243284	0.358096
C227	C	-0.285596	0.029788	-0.287095
N228	N	-0.252101	0.030058	-0.324761
H229	H	-0.123560	-0.607102	-0.263443
H230	H	-0.037138	-0.474881	-0.380005
C231	C	0.127384	-0.381306	-0.228511
N232	N	0.185790	-0.350015	-0.212200
H233	H	0.468064	-0.679625	-0.511379
C234	C	-0.036346	-0.500578	-0.885963
N235	N	-0.034166	-0.575000	-0.903214
C236	C	-0.140576	-0.469242	-0.681463
N237	N	-0.189929	-0.473733	-0.645869
C238	C	0.561988	-0.372158	-0.591568
N239	N	0.594405	-0.337952	-0.620542
H240	H	0.718758	-0.692512	-0.505593
H241	H	-0.738384	0.080845	-0.251490
C242	C	0.000914	-0.415968	-0.153237
N243	N	-0.001265	-0.341545	-0.135988
C244	C	0.231556	-0.210029	-0.533946
N245	N	0.190467	-0.169423	-0.535009
C246	C	0.250175	-0.500530	-0.029234
N247	N	0.216686	-0.574961	-0.028653
C248	C	-0.557409	0.040851	-0.145645
N249	N	-0.631310	0.045497	-0.127421
C250	C	-0.049780	-0.210012	-0.393275
N251	N	-0.052455	-0.169394	-0.413541
H252	H	-0.142686	-0.383972	-0.734830
C253	C	-0.267013	0.019804	-0.142089
N254	N	-0.225914	0.016571	-0.122345
H255	H	-0.724884	0.094041	0.248327
C256	C	0.000855	-0.691530	-0.790980
N257	N	-0.001357	-0.725982	-0.828156
H258	H	0.013390	-0.692483	-0.152899
C259	C	0.305940	-0.447305	0.041852
N260	N	0.234692	-0.442825	0.066562
H261	H	-0.365918	0.157102	-0.260160
H262	H	-0.048809	-0.224052	-0.886301
H263	H	-0.754334	0.089615	-0.376700
C264	C	-0.162848	-0.535215	-0.310681
N265	N	-0.221255	-0.566509	-0.326992
C266	C	-0.272123	0.042962	0.212742
N267	N	-0.238623	0.043224	0.175075
H268	H	-0.669612	-0.046576	-0.265443
H269	H	0.550886	-0.383867	-0.081621
H270	H	-0.267732	0.034117	0.350946
H271	H	0.261638	-0.474883	-0.529387
H272	H	0.330406	-0.448859	-0.466617
H273	H	-0.586315	-0.066836	-0.224702
C274	C	0.521977	-0.224974	-0.027368
N275	N	0.595879	-0.190525	-0.026046
C276	C	0.231561	-0.209989	-0.033932
N277	N	0.190455	-0.169384	-0.034983
H278	H	-0.574318	0.196197	0.271049
C279	C	0.402522	-0.544373	-0.447609
N280	N	0.370110	-0.578575	-0.418634
C281	C	0.105117	-0.447324	-0.857732
N282	N	0.154461	-0.442835	-0.893327
C283	C	0.658666	-0.469248	-0.581081
N284	N	0.729916	-0.473744	-0.605783
