data_functionalizedCrystal
_audit_creation_method	'MofGen! by Chris Wilmer'
_symmetry_space_group_name_H-M	'P1'
_symmetry_Int_Tables_number	1
_symmetry_cell_setting	triclinic
loop_
_symmetry_equiv_pos_as_xyz
  x,y,z
_cell_length_a	10.967926
_cell_length_b	11.026607
_cell_length_c	15.186229
_cell_angle_alpha	89.998222
_cell_angle_beta	102.125883
_cell_angle_gamma	96.380754
loop_
_atom_site_label
_atom_site_type_symbol
_atom_site_fract_x
_atom_site_fract_y
_atom_site_fract_z
O1	O	1.693960	0.170510	0.183837
O2	O	2.193960	0.670510	0.683837
O3	O	1.334337	0.186834	0.129262
O4	O	1.834337	0.686834	0.629262
O5	O	1.484344	0.001771	0.152029
O6	O	1.984344	0.501771	0.652029
O7	O	1.543954	0.355573	0.161069
O8	O	2.043954	0.855573	0.661069
O9	O	1.484330	0.001768	0.298485
O10	O	1.984330	0.501768	0.798485
O11	O	1.334324	0.186831	0.275717
O12	O	1.834324	0.686831	0.775717
O13	O	1.693947	0.170507	0.330292
O14	O	2.193947	0.670507	0.830292
Zn15	Zn	1.514133	0.178668	0.326257
Zn16	Zn	2.014133	0.678668	0.826257
Zn17	Zn	1.514151	0.178672	0.133296
Zn18	Zn	2.014151	0.678672	0.633296
O19	O	1.543941	0.355570	0.307524
O20	O	2.043941	0.855570	0.807524
C21	C	1.287576	0.185645	0.195394
C22	C	1.787576	0.685645	0.695394
C23	C	1.148257	0.182092	0.174251
C24	C	1.648257	0.682092	0.674251
C25	C	1.086137	0.180506	0.240693
C26	C	1.586137	0.680506	0.740693
C27	C	0.942144	0.176834	0.218843
C28	C	1.442144	0.676834	0.718843
C29	C	1.473340	-0.043533	0.223587
C30	C	1.973340	0.456467	0.723587
C31	C	1.440557	-0.178520	0.218609
C32	C	1.940557	0.321480	0.718609
C33	C	1.531076	-0.251572	0.232344
C34	C	2.031076	0.248428	0.732344
C35	C	1.497195	-0.391089	0.227200
C36	C	1.997195	0.108911	0.727200
C37	C	1.740709	0.171696	0.264158
C38	C	2.240709	0.671696	0.764158
C39	C	1.880027	0.175249	0.285295
C40	C	2.380027	0.675249	0.785295
C41	C	1.554944	0.400874	0.235965
C42	C	2.054944	0.900874	0.735965
C43	C	1.587727	0.535860	0.240937
C44	C	2.087727	1.035860	0.740937
N45	N	1.514130	0.178665	0.457950
N46	N	2.014130	0.678665	0.957950
N47	N	1.514162	0.178666	0.001605
N48	N	2.014162	0.678666	0.501605
C49	C	1.580588	0.096747	0.693759
C50	C	2.080588	0.596747	1.193759
C51	C	1.580591	0.096745	0.785950
C52	C	2.080591	0.596745	1.285950
C53	C	1.447696	0.260587	0.765788
C54	C	1.947696	0.760587	1.265788
C55	C	1.447686	0.260583	0.673598
C56	C	1.947686	0.760583	1.173598
C57	C	1.514139	0.178665	0.637588
C58	C	2.014139	0.678665	1.137588
C59	C	1.514153	0.178666	0.821967
C60	C	2.014153	0.678666	1.321967
C61	C	1.514156	0.178664	0.921924
C62	C	2.014156	0.678664	1.421924
C63	C	1.514135	0.178665	0.537625
C64	C	2.014135	0.678665	1.037625
H65	H	1.094837	0.180727	0.101192
H66	H	1.594837	0.680727	0.601192
Br67	Br	1.175159	0.182767	0.362469
Br68	Br	1.675159	0.682767	0.862469
Br69	Br	1.758713	-0.396252	0.266878
Br70	Br	2.258713	0.103748	0.766878
H71	H	0.888729	0.175470	0.145778
H72	H	1.388729	0.675470	0.645778
H73	H	1.393569	0.327291	0.627859
H74	H	1.893569	0.827291	1.127859
Br75	Br	1.269580	-0.246416	0.192649
Br76	Br	1.769580	0.253584	0.692649
H77	H	1.633654	-0.210828	0.247917
H78	H	2.133654	0.289172	0.747917
H79	H	0.933440	0.176606	0.358360
H80	H	1.433440	0.676606	0.858360
H81	H	1.634697	0.030043	0.664442
H82	H	2.134697	0.530043	1.164442
H83	H	1.394610	-0.431828	0.211626
H84	H	1.894610	0.068172	0.711626
H85	H	1.634698	0.030039	0.831683
H86	H	2.134698	0.530039	1.331683
Br87	Br	1.357515	0.371761	0.814664
Br88	Br	1.857515	0.871761	1.314664
