data_functionalizedCrystal
_audit_creation_method	'MofGen! by Chris Wilmer'
_symmetry_space_group_name_H-M	'P1'
_symmetry_Int_Tables_number	1
_symmetry_cell_setting	triclinic
loop_
_symmetry_equiv_pos_as_xyz
  x,y,z
_cell_length_a	18.215407
_cell_length_b	12.759400
_cell_length_c	18.215399
_cell_angle_alpha	90.023429
_cell_angle_beta	90.019833
_cell_angle_gamma	90.013614
loop_
_atom_site_label
_atom_site_type_symbol
_atom_site_fract_x
_atom_site_fract_y
_atom_site_fract_z
Zn1	Zn	1.125132	-0.418264	0.416139
Zn2	Zn	1.125065	-0.593962	0.293082
Zn3	Zn	1.002064	-0.418299	0.293086
Zn4	Zn	1.002056	-0.593903	0.416107
O5	O	1.063579	-0.506107	0.354604
O6	O	1.228107	-0.441581	0.399827
O7	O	1.108725	-0.570699	0.190099
O8	O	1.018421	-0.271273	0.309424
O9	O	1.228059	-0.570665	0.309418
O10	O	1.108838	-0.271248	0.399831
O11	O	1.018357	-0.441640	0.190102
O12	O	0.899079	-0.441583	0.309394
O13	O	1.018406	-0.570566	0.519096
O14	O	0.899072	-0.570599	0.399777
O15	O	1.108830	-0.441525	0.519119
O16	O	1.108716	-0.740975	0.309387
O17	O	1.018341	-0.740932	0.399773
C18	C	0.872373	-0.506089	0.354583
C19	C	0.790574	-0.506107	0.354591
C20	C	0.602396	-0.573391	0.401594
C21	C	0.525537	-0.573394	0.401604
C22	C	0.525515	-0.438842	0.307629
C23	C	0.602372	-0.438835	0.307624
C24	C	0.640811	-0.506115	0.354606
C25	C	0.487095	-0.506126	0.354620
C26	C	0.403761	-0.506129	0.354630
C27	C	0.724150	-0.506111	0.354597
C28	C	1.063541	-0.779075	0.354592
C29	C	1.063592	-0.895851	0.354612
C30	C	1.110648	-0.950620	0.401725
C31	C	1.110682	-1.060344	0.401743
C32	C	1.016601	-1.060520	0.307528
C33	C	1.016564	-0.950798	0.307515
C34	C	1.157676	-0.895673	0.448822
C35	C	1.204737	-0.950442	0.495938
C36	C	1.204771	-1.060166	0.495956
C37	C	1.157744	-1.115121	0.448858
C38	C	1.255532	-0.506126	0.354625
C39	C	1.337331	-0.506134	0.354635
C40	C	1.063624	-0.506035	0.546557
C41	C	1.063643	-0.506004	0.628356
C42	C	1.063638	-0.232074	0.354632
C43	C	1.063663	-0.115297	0.354643
C44	C	1.063577	-0.506103	0.163398
C45	C	1.063700	-0.505838	0.081599
C46	C	1.110744	-0.438749	0.816563
C47	C	1.110753	-0.438719	0.893422
C48	C	1.016595	-0.573096	0.893386
C49	C	1.016583	-0.573120	0.816529
C50	C	1.063662	-0.505949	0.778119
C51	C	1.063682	-0.505894	0.931835
C52	C	1.063691	-0.505861	1.015169
C53	C	1.063652	-0.505980	0.694780
H54	H	0.494264	-0.628176	0.439868
C55	C	0.965366	-0.645901	0.935050
C56	C	0.892551	-0.623010	0.916360
C57	C	0.845339	-0.690052	0.954731
H58	H	0.976024	-0.716533	0.922477
H59	H	0.972066	-0.636258	0.986337
H60	H	0.885854	-0.632662	0.865084
H61	H	0.881870	-0.552391	0.928935
H62	H	0.852040	-0.680409	1.006018
H63	H	0.856004	-0.760680	0.942154
H64	H	0.795930	-0.674524	0.942060
H65	H	1.149091	-0.383996	0.924719
H66	H	0.978245	-0.906205	0.269151
H67	H	0.633650	-0.384044	0.269360
H68	H	1.157655	-0.806330	0.448811
C69	C	0.643998	-0.646466	0.452688
C70	C	0.593901	-0.705362	0.493855
C71	C	0.632195	-0.772679	0.540941
H72	H	0.673966	-0.692286	0.424567
H73	H	0.673981	-0.606351	0.484837
H74	H	0.563931	-0.745475	0.461711
H75	H	0.563931	-0.659570	0.521992
H76	H	0.662179	-0.732563	0.573090
H77	H	0.662162	-0.818492	0.512813
H78	H	0.598211	-0.812641	0.568883
C79	C	0.483646	-0.365915	0.256649
C80	C	0.408115	-0.380338	0.266696
C81	C	0.369526	-0.313184	0.219738
H82	H	0.496167	-0.295301	0.267457
H83	H	0.496177	-0.381208	0.207167
H84	H	0.395590	-0.365038	0.316167
H85	H	0.395573	-0.450939	0.255883
H86	H	0.382057	-0.328477	0.170256
H87	H	0.382052	-0.242574	0.230550
H88	H	0.318274	-0.322968	0.226543
H89	H	1.149076	-0.384051	0.785292
C90	C	0.965554	-0.646262	0.774822
C91	C	0.981574	-0.750209	0.793489
C92	C	0.934589	-0.817609	0.755076
H93	H	0.916085	-0.631020	0.787378
H94	H	0.972296	-0.636723	0.723541
H95	H	0.974826	-0.759744	0.844759
H96	H	1.031035	-0.765483	0.780932
H97	H	0.941331	-0.808070	0.703795
H98	H	0.885123	-0.802359	0.767634
H99	H	0.945457	-0.888145	0.767731
C100	C	1.255762	-0.890593	0.546994
C101	C	1.245676	-0.782780	0.536882
C102	C	1.292674	-0.727618	0.583896
H103	H	1.245016	-0.908414	0.596464
H104	H	1.305236	-0.908477	0.536263
H105	H	1.196213	-0.764904	0.547618
H106	H	1.256427	-0.764928	0.487422
H107	H	1.342149	-0.745501	0.573166
H108	H	1.281925	-0.745447	0.633363
H109	H	1.285842	-0.654461	0.577037
H110	H	1.243085	-1.104757	0.534326
H111	H	0.978315	-1.105273	0.269183
C112	C	1.157907	-1.234251	0.448968
C113	C	1.209189	-1.270458	0.500302
C114	C	1.209366	-1.380192	0.500417
H115	H	1.110458	-1.259229	0.461682
H116	H	1.170702	-1.259151	0.401507
H117	H	1.196389	-1.245570	0.547752
H118	H	1.256645	-1.245509	0.487599
H119	H	1.222162	-1.405091	0.452956
H120	H	1.161915	-1.405159	0.513130
H121	H	1.244165	-1.404772	0.535241
