data_functionalizedCrystal
_audit_creation_method	'MofGen! by Chris Wilmer'
_symmetry_space_group_name_H-M	'P1'
_symmetry_Int_Tables_number	1
_symmetry_cell_setting	triclinic
loop_
_symmetry_equiv_pos_as_xyz
  x,y,z
_cell_length_a	12.759401
_cell_length_b	19.805405
_cell_length_c	12.759393
_cell_angle_alpha	89.965059
_cell_angle_beta	89.981433
_cell_angle_gamma	90.025770
loop_
_atom_site_label
_atom_site_type_symbol
_atom_site_fract_x
_atom_site_fract_y
_atom_site_fract_z
Zn1	Zn	1.606168	-0.269441	-0.593959
Zn2	Zn	1.606025	-0.382645	-0.418268
Zn3	Zn	1.430470	-0.269474	-0.418298
Zn4	Zn	1.430421	-0.382591	-0.593910
O5	O	1.518271	-0.326038	-0.506109
O6	O	1.753170	-0.284466	-0.570661
O7	O	1.582698	-0.367670	-0.271251
O8	O	1.453856	-0.174753	-0.441632
O9	O	1.753065	-0.367637	-0.441582
O10	O	1.582941	-0.174728	-0.570690
O11	O	1.453718	-0.284523	-0.271273
O12	O	1.283442	-0.284470	-0.441585
O13	O	1.453774	-0.367545	-0.740937
O14	O	1.283407	-0.367577	-0.570606
O15	O	1.582894	-0.284414	-0.740973
O16	O	1.582651	-0.477355	-0.441535
O17	O	1.453636	-0.477315	-0.570578
C18	C	1.245304	-0.326022	-0.506094
C19	C	1.128527	-0.326031	-0.506113
C20	C	1.073712	-0.282806	-0.573428
C21	C	0.963988	-0.282819	-0.573435
C22	C	0.963903	-0.369289	-0.438807
C23	C	1.073625	-0.369272	-0.438796
C24	C	1.073761	-0.232885	-0.651158
C25	C	0.964037	-0.232898	-0.651164
C26	C	1.518151	-0.501894	-0.506071
C27	C	1.518196	-0.577126	-0.506089
C28	C	1.585371	-0.612399	-0.573342
C29	C	1.585409	-0.683087	-0.573362
C30	C	1.518276	-0.718501	-0.506122
C31	C	1.451094	-0.683223	-0.438867
C32	C	1.451052	-0.612536	-0.438853
C33	C	1.451263	-0.968296	-0.438921
C34	C	1.451313	-1.038988	-0.438937
C35	C	1.585620	-1.038848	-0.573429
C36	C	1.585577	-0.968161	-0.573416
C37	C	1.518392	-0.932889	-0.506164
C38	C	1.518350	-0.856240	-0.506145
C39	C	1.518323	-0.795148	-0.506135
C40	C	1.792304	-0.326054	-0.506124
C41	C	1.909081	-0.326061	-0.506130
C42	C	1.518344	-0.325969	-0.780142
C43	C	1.518376	-0.325940	-0.896919
C44	C	1.518420	-0.149495	-0.506170
C45	C	1.518483	-0.074263	-0.506196
C46	C	1.585618	-0.282650	-0.951801
C47	C	1.585643	-0.282625	-1.061525
C48	C	1.451181	-0.369188	-1.061475
C49	C	1.451151	-0.369208	-0.951753
C50	C	1.663252	-0.232676	-0.951831
C51	C	1.663277	-0.232651	-1.061556
C52	C	1.518258	-0.326057	-0.233141
C53	C	1.518430	-0.325895	-0.116365
H54	H	1.107820	-0.251718	-0.728394
H55	H	1.740517	-0.251468	-0.917794
H56	H	1.640042	-0.583570	-0.628092
H57	H	0.930011	-0.183081	-0.622169
H58	H	1.744643	-0.246692	-1.091333
H59	H	0.919188	-0.404493	-0.384001
H60	H	0.934287	-0.247004	-0.732499
H61	H	1.634179	-0.182845	-1.095608
H62	H	1.396641	-1.067821	-0.384181
H63	H	1.103545	-0.180442	-0.629509
H64	H	1.118251	-0.404464	-0.383972
H65	H	1.640117	-0.711804	-0.628118
H66	H	1.640246	-0.939329	-0.628164
H67	H	1.396561	-0.939583	-0.384160
H68	H	1.396430	-0.712063	-0.384124
H69	H	1.640322	-1.067575	-0.628192
H70	H	1.641500	-0.180257	-0.922080
H71	H	1.396350	-0.583817	-0.384091
H72	H	1.396393	-0.404457	-0.907072
H73	H	1.396447	-0.404414	-1.106134
