data_functionalizedCrystal
_audit_creation_method	'MofGen! by Chris Wilmer'
_symmetry_space_group_name_H-M	'P1'
_symmetry_Int_Tables_number	1
_symmetry_cell_setting	triclinic
loop_
_symmetry_equiv_pos_as_xyz
  x,y,z
_cell_length_a	21.395362
_cell_length_b	13.032721
_cell_length_c	21.395355
_cell_angle_alpha	82.834036
_cell_angle_beta	90.043940
_cell_angle_gamma	97.222741
loop_
_atom_site_label
_atom_site_type_symbol
_atom_site_fract_x
_atom_site_fract_y
_atom_site_fract_z
Zn1	Zn	0.926247	-0.415745	0.386233
Zn2	Zn	0.912862	-0.590486	0.294757
Zn3	Zn	0.821458	-0.415794	0.281438
Zn4	Zn	0.808142	-0.590507	0.399463
O5	O	0.867177	-0.503133	0.340473
O6	O	1.012151	-0.438895	0.374135
O7	O	0.900708	-0.567324	0.205313
O8	O	0.846533	-0.269539	0.284228
O9	O	1.002318	-0.567277	0.306928
O10	O	0.923520	-0.269504	0.361220
O11	O	0.833554	-0.438978	0.195527
O12	O	0.732011	-0.438999	0.297057
O13	O	0.823837	-0.567313	0.485385
O14	O	0.722228	-0.567361	0.383770
O15	O	0.910608	-0.438916	0.475665
O16	O	0.887796	-0.736737	0.319757
O17	O	0.810859	-0.736753	0.396685
C18	C	0.704385	-0.503188	0.340404
C19	C	0.634740	-0.503237	0.340392
C20	C	0.596943	-0.570163	0.385490
C21	C	0.531509	-0.570138	0.385516
C22	C	0.503875	-0.503197	0.340433
C23	C	0.541681	-0.436257	0.295331
C24	C	0.607114	-0.436278	0.295311
C25	C	0.400790	-0.494778	0.283387
C26	C	0.335358	-0.494765	0.283407
C27	C	0.302059	-0.503129	0.340497
C28	C	0.334199	-0.511527	0.397570
C29	C	0.399631	-0.511547	0.397549
C30	C	0.432925	-0.503167	0.340451
C31	C	0.193311	-0.570031	0.385627
C32	C	0.127877	-0.569998	0.385654
C33	C	0.138050	-0.436123	0.295464
C34	C	0.203483	-0.436150	0.295443
C35	C	0.231110	-0.503110	0.340524
C36	C	0.846447	-0.774665	0.361116
C37	C	0.837636	-0.890828	0.369968
C38	C	0.871809	-0.942574	0.335881
C39	C	0.862703	-1.062634	0.345029
C40	C	1.030605	-0.503078	0.340542
C41	C	1.100248	-0.503055	0.340571
C42	C	0.867231	-0.503112	0.503894
C43	C	0.867254	-0.503103	0.573535
C44	C	0.888005	-0.230541	0.319763
C45	C	0.896880	-0.114378	0.310937
C46	C	0.867165	-0.503079	0.177681
C47	C	0.867286	-0.502793	0.108018
C48	C	0.912434	-0.436244	0.601188
C49	C	0.912436	-0.436199	0.666620
C50	C	0.867264	-0.503032	0.704398
C51	C	0.822076	-0.569895	0.676738
C52	C	0.822070	-0.569931	0.611306
C53	C	0.855132	-0.597135	0.815225
C54	C	0.855142	-0.597102	0.880656
C55	C	0.867276	-0.502921	0.906210
C56	C	0.879414	-0.408772	0.866327
C57	C	0.879409	-0.408807	0.800895
C58	C	0.867264	-0.503000	0.775348
C59	C	0.912462	-0.436008	1.004811
C60	C	0.912460	-0.435961	1.070245
C61	C	0.822102	-0.569667	1.080362
C62	C	0.822101	-0.569704	1.014930
C63	C	0.867284	-0.502876	0.977158
H64	H	0.307088	-0.518336	0.444058
H65	H	0.826706	-1.107212	0.380990
C66	C	0.627329	-0.643808	0.435084
C67	C	0.609221	-0.762600	0.438891
C68	C	0.639608	-0.836243	0.488487
C69	C	0.688104	-0.791093	0.534277
C70	C	0.706215	-0.672294	0.530472
C71	C	0.675828	-0.598652	0.480876
H72	H	0.573319	-0.796028	0.404993
H73	H	0.626201	-0.924185	0.491303
H74	H	0.710599	-0.845607	0.570991
H75	H	0.742117	-0.638866	0.564370
H76	H	0.689235	-0.510709	0.478060
C77	C	0.489921	-0.643768	0.435123
C78	C	0.520308	-0.717420	0.484708
C79	C	0.478721	-0.791053	0.534313
C80	C	0.406748	-0.791032	0.534333
C81	C	0.376357	-0.717377	0.484745
C82	C	0.417943	-0.643745	0.435140
H83	H	0.573590	-0.717438	0.484695
H84	H	0.501219	-0.845577	0.571021
H85	H	0.375963	-0.845539	0.571054
H86	H	0.323075	-0.717360	0.484758
H87	H	0.395446	-0.589221	0.398432
H88	H	0.785314	-0.624155	0.992416
C89	C	0.789004	-0.951043	0.418544
C90	C	0.734165	-1.026225	0.397021
C91	C	0.685531	-1.086437	0.445598
C92	C	0.691736	-1.071468	0.515699
C93	C	0.746576	-0.996283	0.537226
C94	C	0.795210	-0.936070	0.488649
H95	H	0.729570	-1.037309	0.345124
H96	H	0.644935	-1.142095	0.429662
H97	H	0.655734	-1.116041	0.551659
H98	H	0.751171	-0.985198	0.589123
H99	H	0.835807	-0.880413	0.504585
C100	C	0.962139	-0.362654	0.697048
C101	C	0.962145	-0.362618	0.769020
C102	C	1.011848	-0.289075	0.799446
C103	C	1.061546	-0.215567	0.757900
C104	C	1.061543	-0.215600	0.685923
C105	C	1.011839	-0.289143	0.655497
H106	H	0.925353	-0.417035	0.799779
H107	H	1.011850	-0.289051	0.852728
H108	H	1.098339	-0.161126	0.780423
H109	H	1.098334	-0.161183	0.655164
H110	H	1.011837	-0.289167	0.602215
H111	H	0.425797	-0.518383	0.444020
C112	C	0.920441	-0.882356	0.287305
C113	C	0.914238	-0.897322	0.217204
C114	C	0.962872	-0.837105	0.168627
C115	C	1.017709	-0.761923	0.190152
C116	C	1.023914	-0.746953	0.260258
C117	C	0.975281	-0.807170	0.308834
H118	H	0.873642	-0.952979	0.201266
H119	H	0.958278	-0.848187	0.116730
H120	H	1.053710	-0.717347	0.154193
H121	H	1.064510	-0.691296	0.276195
H122	H	0.979875	-0.796088	0.360731
C123	C	0.223708	-0.643670	0.435219
C124	C	0.262375	-0.725673	0.414209
C125	C	0.292770	-0.799310	0.463802
C126	C	0.284499	-0.790945	0.534405
C127	C	0.245830	-0.708939	0.555419
C128	C	0.215435	-0.635302	0.505826
H129	H	0.268500	-0.731868	0.361942
H130	H	0.321396	-0.860016	0.448246
H131	H	0.306999	-0.845456	0.571117
H132	H	0.239705	-0.702744	0.607686
H133	H	0.186809	-0.574595	0.521382
H134	H	0.889296	-0.332081	0.887131
H135	H	0.949225	-0.381825	0.570438
H136	H	0.097103	-0.624495	0.422382
C137	C	0.437419	-0.485573	0.220585
C138	C	0.435780	-0.388972	0.171472
C139	C	0.472409	-0.379763	0.108672
C140	C	0.510677	-0.467155	0.094986
C141	C	0.512317	-0.563763	0.144101
C142	C	0.475688	-0.572972	0.206900
H143	H	0.407450	-0.324273	0.181602
H144	H	0.471194	-0.308248	0.072315
H145	H	0.537792	-0.460339	0.048499
H146	H	0.540647	-0.628462	0.133971
H147	H	0.476903	-0.644487	0.243257
H148	H	0.785276	-0.624375	0.588793
H149	H	0.949249	-0.381586	0.974056
C150	C	0.772386	-0.643415	0.718291
C151	C	0.772392	-0.643384	0.790264
C152	C	0.722698	-0.716902	0.831816
C153	C	0.672998	-0.790450	0.801396
C154	C	0.672991	-0.790483	0.729419
C155	C	0.722684	-0.716966	0.687867
H156	H	0.809184	-0.588937	0.812786
H157	H	0.722704	-0.716877	0.885098
H158	H	0.636212	-0.844873	0.832155
H159	H	0.636198	-0.844931	0.706897
H160	H	0.722678	-0.716991	0.634585
H161	H	0.115552	-0.381613	0.258760
H162	H	0.234259	-0.381657	0.258716
C163	C	0.300008	-0.485537	0.220630
C164	C	0.336633	-0.476321	0.157832
C165	C	0.301283	-0.467097	0.095053
C166	C	0.229309	-0.467088	0.095073
C167	C	0.192680	-0.476303	0.157873
C168	C	0.228029	-0.485528	0.220652
H169	H	0.389916	-0.476328	0.157815
H170	H	0.328399	-0.460275	0.048564
H171	H	0.203141	-0.460259	0.048600
H172	H	0.139397	-0.476297	0.157890
H173	H	0.200914	-0.492350	0.267141
H174	H	0.519178	-0.381752	0.258626
C175	C	0.648694	-0.362662	0.245695
C176	C	0.648812	-0.243862	0.241893
C177	C	0.690392	-0.170249	0.192275
C178	C	0.731856	-0.215434	0.146459
C179	C	0.731740	-0.334240	0.150259
C180	C	0.690159	-0.407853	0.199877
H181	H	0.618116	-0.210408	0.275810
H182	H	0.690478	-0.082301	0.189462
H183	H	0.762637	-0.160941	0.109729
H184	H	0.762435	-0.367694	0.116342
H185	H	0.690074	-0.495801	0.202690
C186	C	0.945516	-1.054172	0.262357
C187	C	0.939310	-1.069147	0.192257
C188	C	0.987945	-1.008942	0.143678
C189	C	1.042786	-0.933762	0.165199
C190	C	1.048994	-0.918783	0.235302
C191	C	1.000359	-0.978988	0.283882
H192	H	0.898712	-1.124803	0.176323
H193	H	0.983349	-1.020031	0.091782
H194	H	1.078788	-0.889194	0.129237
H195	H	1.089592	-0.863127	0.251236
H196	H	1.004955	-0.967899	0.335777
C197	C	0.892758	-0.305251	0.757023
C198	C	0.906110	-0.201649	0.785122
C199	C	0.919459	-0.098091	0.741250
C200	C	0.919455	-0.098136	0.669278
C201	C	0.906103	-0.201742	0.641175
C202	C	0.892755	-0.305299	0.685048
H203	H	0.906113	-0.201612	0.838403
H204	H	0.929343	-0.021395	0.762054
H205	H	0.929337	-0.021476	0.636801
H206	H	0.906100	-0.201778	0.587894
H207	H	0.882870	-0.381995	0.664243
H208	H	0.949251	-0.381510	1.092757
H209	H	0.845262	-0.673764	0.913124
C210	C	0.772410	-0.643184	1.121910
C211	C	0.772412	-0.643148	1.193883
C212	C	0.722716	-0.716664	1.235434
C213	C	0.673019	-0.790216	1.205013
C214	C	0.673015	-0.790254	1.133037
C215	C	0.722711	-0.716739	1.091486
H216	H	0.809202	-0.588698	1.216406
H217	H	0.722719	-0.716635	1.288716
H218	H	0.636231	-0.844637	1.235772
H219	H	0.636225	-0.844704	1.110514
H220	H	0.722708	-0.716768	1.038204
H221	H	0.845085	-0.673809	0.794423
