data_functionalizedCrystal
_audit_creation_method	'MofGen! by Chris Wilmer'
_symmetry_space_group_name_H-M	'P1'
_symmetry_Int_Tables_number	1
_symmetry_cell_setting	triclinic
loop_
_symmetry_equiv_pos_as_xyz
  x,y,z
_cell_length_a	13.897448
_cell_length_b	19.805407
_cell_length_c	19.805399
_cell_angle_alpha	90.016510
_cell_angle_beta	89.973574
_cell_angle_gamma	89.986158
loop_
_atom_site_label
_atom_site_type_symbol
_atom_site_fract_x
_atom_site_fract_y
_atom_site_fract_z
Zn1	Zn	-0.384123	-1.034759	-0.382725
Zn2	Zn	-0.545433	-1.034696	-0.269542
Zn3	Zn	-0.384143	-0.921579	-0.269550
Zn4	Zn	-0.545367	-0.921554	-0.382689
O5	O	-0.464766	-0.978147	-0.326127
O6	O	-0.405540	-1.129467	-0.367722
O7	O	-0.524073	-1.019675	-0.174826
O8	O	-0.249158	-0.936629	-0.284582
O9	O	-0.524054	-1.129421	-0.284567
O10	O	-0.249144	-1.019782	-0.367731
O11	O	-0.405574	-0.936568	-0.174832
O12	O	-0.405510	-0.826859	-0.284547
O13	O	-0.523942	-0.936587	-0.477411
O14	O	-0.523961	-0.826841	-0.367670
O15	O	-0.405476	-1.019758	-0.477437
O16	O	-0.680406	-1.019651	-0.284532
O17	O	-0.680357	-0.936526	-0.367661
C18	C	-0.464731	-0.802291	-0.326106
C19	C	-0.464739	-0.727059	-0.326113
C20	C	-0.403137	-0.691739	-0.369477
C21	C	-0.403140	-0.621051	-0.369478
C22	C	-0.464751	-0.585683	-0.326118
C23	C	-0.526355	-0.621008	-0.282749
C24	C	-0.526347	-0.691695	-0.282745
C25	C	-0.526391	-0.335935	-0.282763
C26	C	-0.526396	-0.265242	-0.282771
C27	C	-0.403184	-0.265290	-0.369495
C28	C	-0.403175	-0.335978	-0.369492
C29	C	-0.464776	-0.371296	-0.326121
C30	C	-0.464771	-0.447944	-0.326119
C31	C	-0.464762	-0.509036	-0.326122
C32	C	-0.715381	-0.978097	-0.326107
C33	C	-0.822595	-0.978138	-0.326121
C34	C	-1.018890	-0.978209	-0.326164
C35	C	-0.909657	-0.978168	-0.326142
C36	C	-0.213173	-0.978215	-0.326161
C37	C	-0.105959	-0.978244	-0.326176
C38	C	-0.464699	-0.978177	-0.502669
C39	C	-0.464671	-0.978189	-0.577901
C40	C	-0.464795	-0.154690	-0.326142
C41	C	-0.464789	-0.229922	-0.326132
C42	C	-0.402963	-0.934928	-0.613248
C43	C	-0.402944	-0.934937	-0.683937
C44	C	-0.464629	-0.978212	-0.719277
C45	C	-0.526344	-1.021475	-0.683925
C46	C	-0.526367	-1.021462	-0.613238
C47	C	-0.526254	-1.021529	-0.968999
C48	C	-0.526224	-1.021540	-1.039691
C49	C	-0.402831	-0.935004	-1.039697
C50	C	-0.402854	-0.934991	-0.969010
C51	C	-0.464572	-0.978251	-0.933664
C52	C	-0.464593	-0.978240	-0.857016
C53	C	-0.464604	-0.978227	-0.795924
C54	C	-0.464763	-0.978156	-0.150271
C55	C	-0.464520	-0.978275	-0.075039
H56	H	-0.352980	-0.592297	-0.404790
Br57	Br	-0.319580	-0.217355	-0.428357
Br58	Br	-0.609966	-0.383858	-0.223885
Br59	Br	-0.610070	-1.080200	-0.731886
H60	H	-0.576515	-0.592206	-0.247441
H61	H	-0.576570	-0.236448	-0.247460
H62	H	-0.352579	-0.899777	-1.068484
Br63	Br	-0.609946	-1.080274	-1.087653
Br64	Br	-0.609951	-0.739630	-0.223891
H65	H	-0.576519	-1.056747	-0.940229
Br66	Br	-0.319234	-0.876200	-0.565293
Br67	Br	-0.610125	-1.080171	-0.565266
Br68	Br	-0.319245	-0.876186	-0.731905
Br69	Br	-0.319525	-0.739731	-0.428331
Br70	Br	-0.319565	-0.383973	-0.428344
H71	H	-0.352619	-0.899754	-0.940240
