data_functionalizedCrystal
_audit_creation_method	'MofGen! by Chris Wilmer'
_symmetry_space_group_name_H-M	'P1'
_symmetry_Int_Tables_number	1
_symmetry_cell_setting	triclinic
loop_
_symmetry_equiv_pos_as_xyz
  x,y,z
_cell_length_a	10.967874
_cell_length_b	11.026607
_cell_length_c	9.482900
_cell_angle_alpha	101.400185
_cell_angle_beta	68.707142
_cell_angle_gamma	96.380181
loop_
_atom_site_label
_atom_site_type_symbol
_atom_site_fract_x
_atom_site_fract_y
_atom_site_fract_z
O1	O	1.764850	0.082628	-0.563025
O2	O	1.393512	0.113472	-0.469999
O3	O	1.548404	-0.077647	-0.508797
O4	O	1.609958	0.273747	-0.524227
O5	O	1.516977	-0.038676	-0.259132
O6	O	1.362085	0.152443	-0.220335
O7	O	1.733423	0.121599	-0.313361
Cu8	Cu	1.544885	0.140579	-0.244051
Cu9	Cu	1.582051	0.094491	-0.539308
O10	O	1.578531	0.312718	-0.274563
C11	C	1.329521	0.133658	-0.333073
C12	C	1.185663	0.135730	-0.297034
C13	C	1.137808	0.116465	-0.410301
C14	C	0.989124	0.118606	-0.373056
C15	C	1.521336	-0.103020	-0.381122
C16	C	1.487486	-0.236684	-0.372647
C17	C	1.580953	-0.313392	-0.396064
C18	C	1.545970	-0.451541	-0.387306
C19	C	1.797415	0.101413	-0.450291
C20	C	1.941274	0.099339	-0.486339
C21	C	1.605600	0.338090	-0.402242
C22	C	1.639451	0.471753	-0.410726
N23	N	1.518754	0.172994	-0.036386
N24	N	1.608190	0.062067	-0.746976
C25	C	1.574333	0.104046	0.021892
C26	C	1.552603	0.131025	0.194752
H27	H	1.116560	0.153814	-0.172490
O28	O	0.906628	0.139952	-0.224481
C29	C	0.817614	0.037616	-0.194425
H30	H	0.861305	-0.048215	-0.280108
H31	H	0.797510	0.021271	-0.072817
H32	H	0.722048	0.057039	-0.206042
O33	O	1.361049	-0.280163	-0.340784
C34	C	1.282987	-0.218444	-0.195983
H35	H	1.333019	-0.125593	-0.166759
H36	H	1.183193	-0.202336	-0.199148
H37	H	1.269625	-0.277494	-0.104953
H38	H	1.488922	0.210028	0.272827
O39	O	1.650166	0.009766	-0.071403
C40	C	1.574849	-0.076385	-0.140579
H41	H	1.488112	-0.028741	-0.141450
H42	H	1.638052	-0.114320	-0.263534
H43	H	1.537481	-0.155755	-0.072695
H44	H	1.686872	-0.276787	-0.422589
H45	H	1.671859	-0.016945	0.174952
O46	O	1.442679	0.267107	0.056939
C47	C	1.336381	0.219363	0.171604
H48	H	1.362521	0.127054	0.187697
H49	H	1.314048	0.287474	0.284300
H50	H	1.246621	0.204956	0.135539
H51	H	1.206912	0.098393	-0.534846
H52	H	1.440044	-0.488140	-0.360779
H53	H	1.010373	0.081268	-0.610893
H54	H	1.745393	-0.491669	-0.437375
