data_functionalizedCrystal
_audit_creation_method	'MofGen! by Chris Wilmer'
_symmetry_space_group_name_H-M	'P1'
_symmetry_Int_Tables_number	1
_symmetry_cell_setting	triclinic
loop_
_symmetry_equiv_pos_as_xyz
  x,y,z
_cell_length_a	18.050591
_cell_length_b	16.625546
_cell_length_c	16.625539
_cell_angle_alpha	89.971468
_cell_angle_beta	89.987293
_cell_angle_gamma	90.021309
loop_
_atom_site_label
_atom_site_type_symbol
_atom_site_fract_x
_atom_site_fract_y
_atom_site_fract_z
Zn1	Zn	1.135338	-0.321040	-0.455804
Zn2	Zn	1.635338	0.178960	0.044196
Zn3	Zn	1.135256	-0.455879	-0.320966
Zn4	Zn	1.635256	0.044121	0.179034
Zn5	Zn	1.011153	-0.321061	-0.320995
Zn6	Zn	1.511153	0.178939	0.179005
Zn7	Zn	1.011118	-0.455832	-0.455766
Zn8	Zn	1.511118	0.044168	0.044234
O9	O	1.073216	-0.388453	-0.388383
O10	O	1.573216	0.111547	0.111617
O11	O	1.239252	-0.338938	-0.437921
O12	O	1.739252	0.161062	0.062079
O13	O	1.118774	-0.438023	-0.208138
O14	O	1.618774	0.061977	0.291862
O15	O	1.027675	-0.208226	-0.338905
O16	O	1.527675	0.291774	0.161095
O17	O	1.239192	-0.438003	-0.338857
O18	O	1.739192	0.061997	0.161143
O19	O	1.118913	-0.208210	-0.437949
O20	O	1.618913	0.291790	0.062051
O21	O	1.027596	-0.338973	-0.208159
O22	O	1.527596	0.161027	0.291841
O23	O	0.907223	-0.338928	-0.338869
O24	O	1.407223	0.161072	0.161131
O25	O	1.027615	-0.437923	-0.568604
O26	O	1.527615	0.062077	-0.068604
O27	O	0.907198	-0.437943	-0.437885
O28	O	1.407198	0.062057	0.062115
O29	O	1.118879	-0.338892	-0.568632
O30	O	1.618879	0.161108	-0.068632
O31	O	1.118740	-0.568705	-0.338820
O32	O	1.618740	-0.068705	0.161180
O33	O	1.027536	-0.568670	-0.437857
O34	O	1.527536	-0.068670	0.062143
C35	C	1.073146	-0.597944	-0.388349
C36	C	1.573146	-0.097944	0.111651
C37	C	1.073184	-0.687565	-0.388362
C38	C	1.573184	-0.187565	0.111638
C39	C	0.880264	-0.388433	-0.388376
C40	C	1.380264	0.111567	0.111624
C41	C	0.797718	-0.388444	-0.388393
C42	C	1.297718	0.111556	0.111607
C43	C	1.073313	-1.015740	-0.388446
C44	C	1.573313	-0.515740	0.111554
C45	C	1.073275	-0.924432	-0.388425
C46	C	1.573275	-0.424432	0.111575
C47	C	1.073248	-0.851656	-0.388403
C48	C	1.573248	-0.351656	0.111597
C49	C	1.073211	-0.760341	-0.388383
C50	C	1.573211	-0.260341	0.111617
C51	C	0.548900	-0.442400	-0.442164
C52	C	1.048900	0.057600	0.057836
C53	C	0.598270	-0.462026	-0.368568
C54	C	1.098270	0.037974	0.131432
C55	C	0.500598	-0.388469	-0.388391
C56	C	1.000598	0.111531	0.111609
C57	C	0.598310	-0.368869	-0.461984
C58	C	1.098310	0.131131	0.038016
C59	C	0.646583	-0.388459	-0.388396
C60	C	1.146583	0.111541	0.111604
C61	C	0.548880	-0.408134	-0.314756
C62	C	1.048880	0.091866	0.185244
C63	C	0.548916	-0.314942	-0.408222
C64	C	1.048916	0.185058	0.091778
C65	C	0.598263	-0.334540	-0.334574
C66	C	1.098263	0.165460	0.165426
C67	C	0.416500	-0.388478	-0.388390
C68	C	0.916500	0.111522	0.111610
C69	C	0.730680	-0.388451	-0.388389
C70	C	1.230680	0.111549	0.111611
C71	C	1.266922	-0.388473	-0.388390
C72	C	1.766922	0.111527	0.111610
C73	C	1.349468	-0.388482	-0.388393
C74	C	1.849468	0.111518	0.111607
C75	C	1.073253	-0.388400	-0.598692
C76	C	1.573253	0.111600	-0.098692
C77	C	1.073268	-0.388377	-0.688313
C78	C	1.573268	0.111623	-0.188313
C79	C	1.073307	-0.178144	-0.388434
C80	C	1.573307	0.321856	0.111566
C81	C	1.073346	-0.088523	-0.388456
C82	C	1.573346	0.411477	0.111544
C83	C	1.073280	-0.388359	-0.761096
C84	C	1.573280	0.111641	-0.261096
C85	C	1.073298	-0.388329	-0.852404
C86	C	1.573298	0.111671	-0.352404
C87	C	1.073315	-0.388301	-0.925181
C88	C	1.573315	0.111699	-0.425181
C89	C	1.073334	-0.388272	-1.016495
C90	C	1.573334	0.111728	-0.516495
C91	C	1.073223	-0.388448	-0.178892
C92	C	1.573223	0.111552	0.321108
C93	C	1.073351	-0.388243	-0.089271
C94	C	1.573351	0.111757	0.410729
H95	H	0.527226	-0.488047	-0.487579
H96	H	1.027226	0.011953	0.012421
H97	H	0.620023	-0.352295	-0.524219
H98	H	1.120023	0.147705	-0.024219
O99	O	0.522968	-0.428022	-0.240546
O100	O	1.022968	0.071978	0.259454
C101	C	0.444863	-0.427802	-0.241443
C102	C	0.944863	0.072198	0.258557
H103	H	0.424428	-0.436850	-0.305681
H104	H	0.924428	0.063150	0.194319
H105	H	0.423729	-0.367763	-0.217597
H106	H	0.923729	0.132237	0.282403
C107	C	0.440797	-0.485333	-0.108964
C108	C	0.940797	0.014667	0.391036
C109	C	0.415699	-0.496452	-0.187861
C110	C	0.915699	0.003548	0.312139
H111	H	0.422806	-0.527676	-0.075910
H112	H	0.922806	-0.027676	0.424090
H113	H	0.493418	-0.485479	-0.108358
H114	H	0.993418	0.014521	0.391642
H115	H	0.423183	-0.435298	-0.089104
H116	H	0.923183	0.064702	0.410896
H117	H	0.433320	-0.546481	-0.207724
H118	H	0.933320	-0.046481	0.292276
H119	H	0.363080	-0.496316	-0.188470
H120	H	0.863080	0.003684	0.311530
H121	H	0.619948	-0.524202	-0.351790
H122	H	1.119948	-0.024202	0.148210
O123	O	0.623841	-0.280118	-0.280208
O124	O	1.123841	0.219882	0.219792
C125	C	0.563417	-0.242548	-0.241806
C126	C	1.063417	0.257452	0.258194
H127	H	0.512587	-0.283047	-0.245957
H128	H	1.012587	0.216953	0.254043
H129	H	0.551260	-0.182666	-0.272514
H130	H	1.051260	0.317334	0.227486
C131	C	0.644932	-0.177954	-0.147671
C132	C	1.144932	0.322046	0.352329
C133	C	0.582503	-0.227698	-0.152764
C134	C	1.082503	0.272302	0.347236
H135	H	0.656705	-0.168789	-0.092747
H136	H	1.156705	0.331211	0.407253
H137	H	0.685641	-0.203262	-0.173545
H138	H	1.185641	0.296738	0.326455
H139	H	0.634793	-0.128057	-0.173266
H140	H	1.134793	0.371943	0.326734
H141	H	0.592646	-0.277596	-0.127179
H142	H	1.092646	0.222404	0.372821
H143	H	0.541796	-0.202397	-0.126884
H144	H	1.041796	0.297603	0.373116
O145	O	0.523060	-0.240814	-0.428400
O146	O	1.023060	0.259186	0.071600
C147	C	0.548217	-0.220377	-0.506061
C148	C	1.048217	0.279623	-0.006061
H149	H	0.562080	-0.277558	-0.540746
H150	H	1.062080	0.222442	-0.040746
H151	H	0.599888	-0.181249	-0.501043
H152	H	1.099888	0.318751	-0.001043
C153	C	0.470144	-0.103437	-0.508217
C154	C	0.970144	0.396563	-0.008217
C155	C	0.487165	-0.173668	-0.550820
C156	C	0.987165	0.326332	-0.050820
H157	H	0.432487	-0.074622	-0.535826
H158	H	0.932487	0.425378	-0.035826
H159	H	0.453197	-0.117204	-0.455894
H160	H	0.953197	0.382796	0.044106
H161	H	0.513208	-0.070840	-0.504038
H162	H	1.013208	0.429160	-0.004038
H163	H	0.444104	-0.206269	-0.554989
H164	H	0.944104	0.293731	-0.054989
H165	H	0.504103	-0.159906	-0.603145
H166	H	1.004103	0.340094	-0.103145
