data_functionalizedCrystal
_audit_creation_method	'MofGen! by Chris Wilmer'
_symmetry_space_group_name_H-M	'P1'
_symmetry_Int_Tables_number	1
_symmetry_cell_setting	triclinic
loop_
_symmetry_equiv_pos_as_xyz
  x,y,z
_cell_length_a	14.395555
_cell_length_b	14.395555
_cell_length_c	14.395555
_cell_angle_alpha	60.000749
_cell_angle_beta	90.000811
_cell_angle_gamma	60.003201
loop_
_atom_site_label
_atom_site_type_symbol
_atom_site_fract_x
_atom_site_fract_y
_atom_site_fract_z
Zr1	Zr	0.894905	1.016827	-0.121939
O2	O	0.746588	1.210609	-0.270262
O3	O	0.940368	0.823035	-0.076468
O4	O	0.940376	1.016822	-0.270264
O5	O	0.746580	1.016829	0.076401
O6	O	1.093243	1.016829	-0.270268
O7	O	0.746581	1.016822	-0.076467
O8	O	1.093230	0.670179	0.076398
O9	O	0.746593	1.363479	-0.270265
O10	O	1.073846	0.902753	-0.057080
O11	O	0.959762	0.902753	0.057005
O12	O	0.959770	1.130912	-0.171164
O13	O	0.845686	1.130912	-0.057079
Zr14	Zr	1.138709	1.016849	0.121861
Zr15	Zr	1.138711	1.016838	-0.121945
Zr16	Zr	0.894903	1.016838	0.121866
Zr17	Zr	0.894913	1.260636	-0.121943
Zr18	Zr	1.138702	0.773040	0.121864
O19	O	1.093246	1.210641	0.076390
O20	O	1.093249	1.210625	-0.270271
O21	O	0.746586	1.210625	0.076398
O22	O	1.287026	0.823066	0.270184
O23	O	1.287028	0.823051	-0.076476
O24	O	0.940366	0.823051	0.270192
O25	O	1.287034	1.016847	-0.076479
O26	O	1.093239	1.016853	0.270185
O27	O	0.940372	1.016847	0.270189
O28	O	1.287033	1.016853	0.076388
O29	O	0.940386	1.363487	-0.270269
O30	O	1.093228	0.670188	0.270191
O31	O	1.287021	0.670197	0.270186
O32	O	1.287023	0.670188	0.076393
O33	O	0.746592	1.363487	-0.076472
O34	O	0.940384	1.363496	-0.076476
O35	O	1.073844	0.902763	0.171086
O36	O	1.187928	0.902763	0.057000
O37	O	1.073852	1.130923	-0.057084
O38	O	0.959769	1.130923	0.057002
C39	C	1.016798	0.711870	-0.000035
C40	C	1.016795	0.608366	-0.000033
C41	C	0.954595	0.547774	0.062175
C42	C	0.909515	0.562023	-0.045099
C43	C	1.061847	0.409721	0.107208
C44	C	0.971653	0.624042	-0.107370
C45	C	1.124044	0.471676	0.045014
C46	C	1.078991	0.485973	-0.062324
C47	C	0.711844	1.016824	-0.000032
C48	C	0.608342	1.016819	-0.000030
C49	C	0.609952	0.892417	0.062172
C50	C	0.516938	0.954610	0.107256
C51	C	0.516928	0.954632	-0.045081
C52	C	0.516691	1.079013	0.045117
C53	C	0.516695	1.079017	-0.107280
C54	C	0.423663	1.141301	-0.062222
C55	C	1.321771	1.016852	-0.000047
C56	C	1.425273	1.016856	-0.000049
C57	C	1.016809	1.016824	-0.305003
C58	C	1.016810	1.016819	-0.408505
C59	C	1.016816	1.321806	-0.000044
C60	C	1.016819	1.425309	-0.000046
C61	C	1.079015	0.892417	-0.406890
C62	C	0.971745	0.954603	-0.499910
C63	C	1.124053	0.954639	-0.499913
C64	C	0.909477	1.079006	-0.500162
C65	C	1.061863	1.079024	-0.500150
C66	C	0.954529	1.141301	-0.593188
C67	C	1.016805	1.016852	0.304924
C68	C	1.016804	1.016856	0.408426
C69	C	1.321762	0.711883	-0.000042
C70	C	1.425260	0.608385	-0.000043
C71	C	1.016796	0.711883	0.304929
C72	C	1.016792	0.608385	0.408432
C73	C	1.321759	0.711897	0.304922
C74	C	1.425257	0.608403	0.408423
C75	C	0.711855	1.321778	-0.305000
C76	C	0.608357	1.425273	-0.408501
C77	C	0.711853	1.321792	-0.000037
C78	C	0.608354	1.425291	-0.000036
C79	C	1.016819	1.321792	-0.305008
C80	C	1.016822	1.425291	-0.408511
C81	C	1.548047	0.547837	0.062125
C82	C	1.578903	0.409732	0.107178
C83	C	1.578814	0.562130	-0.045161
C84	C	1.454752	0.471580	0.045074
C85	C	1.454667	0.624052	-0.107325
C86	C	1.485449	0.485956	-0.062299
C87	C	0.954585	0.547797	0.406820
C88	C	1.061855	0.409705	0.499838
C89	C	0.909552	0.562030	0.499846
C90	C	1.124125	0.471593	0.500086
C91	C	0.971744	0.623992	0.500081
C92	C	1.079079	0.485910	0.593115
C93	C	1.423640	0.547800	0.531213
C94	C	1.516623	0.409710	0.562006
C95	C	1.516696	0.561981	0.562043
C96	C	1.516877	0.471614	0.437852
C97	C	1.516936	0.623959	0.437893
C98	C	1.609936	0.485879	0.468612
H99	H	1.131590	0.459029	-0.115010
O100	O	0.801184	1.141890	-0.499339
C101	C	0.735617	1.272658	-0.596998
H102	H	0.794124	1.303646	-0.630233
H103	H	0.673159	1.339936	-0.574271
H104	H	0.686546	1.280134	-0.665457
H105	H	1.214713	0.434516	0.083153
H106	H	1.632436	0.318100	0.197857
O107	O	1.107550	1.141508	-0.498929
C108	C	1.220671	1.075589	-0.497489
H109	H	1.255495	0.969434	-0.461819
H110	H	1.275059	1.077372	-0.441688
H111	H	1.222933	1.126655	-0.587792
H112	H	1.401415	0.434161	0.083286
O113	O	1.232190	0.892083	-0.501200
C114	C	1.241353	0.980066	-0.599013
H115	H	1.153625	1.062410	-0.666881
H116	H	1.300429	0.925390	-0.633066
H117	H	1.277414	1.023542	-0.576186
O118	O	0.891847	0.580382	0.124840
C119	C	0.893484	0.677514	0.124803
H120	H	0.971934	0.673096	0.105836
H121	H	0.896220	0.659433	0.211741
H122	H	0.813622	0.778554	0.056806
H123	H	1.517523	0.318105	0.615489
O124	O	0.515690	0.892124	0.215421
C125	C	0.417849	0.980119	0.224538
H126	H	0.386384	1.085314	0.154881
H127	H	0.439623	0.960553	0.311367
H128	H	0.348425	0.965645	0.214741
O129	O	0.517815	1.141874	-0.215447
C130	C	0.517193	1.250898	-0.242659
H131	H	0.480126	1.282714	-0.185648
H132	H	0.463019	1.335422	-0.335485
H133	H	0.607926	1.222721	-0.228849
H134	H	1.131763	0.458886	0.672743
O135	O	0.801290	0.606346	-0.090395
C136	C	0.735978	0.637615	-0.024569
H137	H	0.794716	0.580868	0.064949
H138	H	0.673802	0.609715	-0.019948
H139	H	0.686603	0.747546	-0.065480
H140	H	0.933455	0.715602	-0.198111
H141	H	1.099938	0.318118	0.197906
O142	O	0.705074	0.766909	0.125180
C143	C	0.706043	0.701791	0.238203
H144	H	0.650932	0.777280	0.256314
H145	H	0.797003	0.633141	0.299115
H146	H	0.670980	0.642299	0.250574
H147	H	0.517518	1.131555	0.083315
H148	H	0.933631	0.902023	-0.500840
O149	O	1.454798	0.453596	-0.124911
C150	C	1.390533	0.404888	-0.077034
H151	H	1.411025	0.366255	0.016601
H152	H	1.412604	0.321815	-0.084910
H153	H	1.296005	0.487206	-0.124079
O154	O	1.390957	0.733315	-0.215542
C155	C	1.445000	0.712185	-0.291459
H156	H	1.539822	0.631784	-0.243862
H157	H	1.432351	0.806931	-0.362849
H158	H	1.406528	0.680757	-0.329053
H159	H	1.632288	0.599372	-0.083277
O160	O	1.578440	0.579942	0.125146
C161	C	1.642629	0.467873	0.238152
H162	H	1.622274	0.394631	0.256259
H163	H	1.620345	0.497882	0.299094
H164	H	1.737170	0.420484	0.250483
H165	H	1.343883	0.574892	0.556654
O166	O	1.705055	0.453496	0.438215
C167	C	1.802307	0.356263	0.536824
H168	H	1.779139	0.360429	0.611015
H169	H	1.871099	0.374443	0.521364
H170	H	1.835326	0.255294	0.557831
H171	H	0.344039	1.246580	-0.114820
O172	O	0.892055	0.579895	0.311718
C173	C	0.939936	0.467837	0.310763
H174	H	1.033546	0.394636	0.365834
H175	H	0.932145	0.497876	0.219797
H176	H	0.892835	0.420387	0.345881
H177	H	1.099969	0.318086	0.500765
O178	O	1.232343	0.427203	0.499057
C179	C	1.259373	0.508938	0.498717
H180	H	1.177660	0.609502	0.463462
H181	H	1.314614	0.520391	0.443104
H182	H	1.307702	0.463017	0.589306
H183	H	0.933603	0.715645	0.499094
O184	O	0.515874	0.891701	-0.090346
C185	C	0.514399	0.784101	-0.009190
H186	H	0.550318	0.752594	0.079830
H187	H	0.568514	0.698820	-0.016576
H188	H	0.423177	0.813879	-0.025197
H189	H	0.818859	0.599200	0.500763
O190	O	1.141517	0.766907	-0.311766
C191	C	1.093619	0.701780	-0.310801
H192	H	1.000021	0.777262	-0.365911
H193	H	1.101363	0.633119	-0.219839
H194	H	1.140741	0.642298	-0.345869
H195	H	0.901849	1.246581	-0.672816
O196	O	1.515715	0.427029	0.374232
C197	C	1.417361	0.428848	0.363548
H198	H	1.385295	0.425498	0.436826
H199	H	1.438703	0.339887	0.365853
H200	H	1.348555	0.522624	0.279328
H201	H	1.515992	0.715587	0.384413
O202	O	1.517875	0.606462	0.625751
C203	C	1.517192	0.719572	0.560593
H204	H	1.551804	0.720039	0.489250
H205	H	1.572841	0.719138	0.617367
H206	H	1.426383	0.811000	0.522477
