data_functionalizedCrystal
_audit_creation_method	'MofGen! by Chris Wilmer'
_symmetry_space_group_name_H-M	'P1'
_symmetry_Int_Tables_number	1
_symmetry_cell_setting	triclinic
loop_
_symmetry_equiv_pos_as_xyz
  x,y,z
_cell_length_a	6.817900
_cell_length_b	19.551136
_cell_length_c	17.982968
_cell_angle_alpha	96.150956
_cell_angle_beta	102.451960
_cell_angle_gamma	101.650842
loop_
_atom_site_label
_atom_site_type_symbol
_atom_site_fract_x
_atom_site_fract_y
_atom_site_fract_z
V1	V	-4.005978	-0.097332	-0.237926
O2	O	-4.003197	0.004004	-0.233011
O3	O	-3.948683	-0.192346	-0.236670
O4	O	-3.952598	-0.096131	-0.341525
O5	O	-3.999255	-0.092877	-0.127431
V6	V	-4.491404	-0.085176	-0.224665
O7	O	-4.263062	-0.123997	-0.267016
O8	O	-4.684516	-0.058511	-0.195575
O9	O	-4.325492	0.009837	-0.225921
O10	O	-4.611582	-0.186512	-0.229580
O11	O	-4.615523	-0.089631	-0.335160
O12	O	-4.321577	-0.086378	-0.121067
C13	C	-3.791681	-0.215499	-0.233013
C14	C	-3.826090	-0.293175	-0.232676
C15	C	-3.806393	-0.319473	-0.162698
C16	C	-3.838796	-0.392456	-0.162359
C17	C	-3.890856	-0.439139	-0.232001
C18	C	-3.910565	-0.412834	-0.301988
C19	C	-3.878182	-0.339852	-0.302326
C20	C	-3.852940	-0.560289	-0.282497
C21	C	-3.885309	-0.633269	-0.282156
C22	C	-3.990747	-0.664240	-0.230962
C23	C	-4.063781	-0.622220	-0.180096
C24	C	-4.031397	-0.549238	-0.180434
C25	C	-3.925976	-0.518277	-0.231642
C26	C	-4.006186	-0.769674	-0.160611
C27	C	-4.038603	-0.842660	-0.160275
C28	C	-4.110352	-0.863036	-0.299906
C29	C	-4.077954	-0.790052	-0.300241
C30	C	-4.025863	-0.743375	-0.230591
C31	C	-3.796674	-0.092766	-0.366764
C32	C	-3.834254	-0.092412	-0.451459
C33	C	-4.033502	-0.095747	-0.495143
C34	C	-4.068801	-0.095414	-0.574723
C35	C	-3.904852	-0.091751	-0.610617
C36	C	-3.705586	-0.088414	-0.566926
C37	C	-3.670288	-0.088742	-0.487347
C38	C	-3.847938	-0.087090	-0.887858
C39	C	-3.883254	-0.086765	-0.967443
C40	C	-4.246451	-0.093763	-0.975233
C41	C	-4.211152	-0.094091	-0.895654
C42	C	-4.011889	-0.090750	-0.851970
C43	C	-3.973616	-0.091109	-0.765681
C44	C	-3.943125	-0.091397	-0.696905
C45	C	-4.145835	0.032986	-0.229576
C46	C	-4.090665	0.110662	-0.229918
C47	C	-4.140843	-0.089745	-0.095823
C48	C	-4.082502	-0.090095	-0.011128
H49	H	-4.093980	-0.768641	-0.357224
H50	H	-4.344662	-0.097078	-0.866434
H51	H	-3.572096	-0.085427	-0.596156
O52	O	-3.756162	-0.274170	-0.095029
C53	C	-3.914744	-0.289191	-0.056089
H54	H	-4.065228	-0.317569	-0.099377
H55	H	-3.872162	-0.324443	-0.011548
C56	C	-3.757382	-0.184793	0.037923
C57	C	-3.942214	-0.219642	-0.015245
H58	H	-3.774323	-0.141893	0.063120
H59	H	-3.650538	-0.174674	0.011690
H60	H	-3.721917	-0.214177	0.075033
H61	H	-3.977662	-0.190261	-0.052359
H62	H	-4.049065	-0.229754	0.010982
O63	O	-3.897315	-0.314187	-0.370239
C64	C	-3.857508	-0.239761	-0.355602
H65	H	-3.885310	-0.222270	-0.296973
H66	H	-3.690206	-0.216412	-0.355651
C67	C	-3.968324	-0.235114	-0.490753
C68	C	-4.002487	-0.213631	-0.418747
H69	H	-4.057745	-0.218995	-0.529705
H70	H	-3.995135	-0.285256	-0.500615
H71	H	-3.828901	-0.215655	-0.490783
H72	H	-4.141900	-0.233098	-0.418714
H73	H	-3.975702	-0.163491	-0.408886
O74	O	-3.654524	-0.084020	-0.845417
C75	C	-3.655389	-0.144876	-0.809802
H76	H	-3.818435	-0.168172	-0.804735
H77	H	-3.602074	-0.185643	-0.846029
C78	C	-3.307849	-0.096199	-0.735032
C79	C	-3.508103	-0.124808	-0.728802
H80	H	-3.216990	-0.083822	-0.685069
H81	H	-3.307262	-0.055200	-0.759028
H82	H	-3.263449	-0.130177	-0.765225
H83	H	-3.552509	-0.090828	-0.698619
H84	H	-3.508694	-0.165801	-0.704799
H85	H	-4.167016	-0.098735	-0.465925
H86	H	-3.749734	-0.083780	-0.996664
O87	O	-3.813829	-0.673958	-0.331496
C88	C	-3.713546	-0.630959	-0.376671
H89	H	-3.773306	-0.580613	-0.378747
H90	H	-3.540034	-0.616596	-0.350136
C91	C	-3.684265	-0.733234	-0.456509
C92	C	-3.757676	-0.671401	-0.459064
H93	H	-3.711477	-0.758181	-0.507332
H94	H	-3.751820	-0.762204	-0.426072
H95	H	-3.539676	-0.721256	-0.434393
H96	H	-3.902265	-0.683380	-0.481171
H97	H	-3.690145	-0.642434	-0.489507
H98	H	-4.149620	-0.647434	-0.138404
O99	O	-3.476714	-0.085384	-0.444854
C100	C	-3.413451	-0.024549	-0.388004
H101	H	-3.504769	0.016082	-0.406810
H102	H	-3.442734	-0.039490	-0.331132
C103	C	-3.069274	-0.042702	-0.354229
C104	C	-3.181420	0.007204	-0.377330
H105	H	-2.926145	-0.023117	-0.347641
H106	H	-3.111896	-0.083690	-0.392527
H107	H	-3.093700	-0.055149	-0.306838
H108	H	-3.157014	0.019643	-0.424725
H109	H	-3.138789	0.048194	-0.339039
H110	H	-3.952957	-0.450848	-0.358691
H111	H	-4.408702	-0.096481	-1.010810
H112	H	-3.767080	-0.535079	-0.324188
H113	H	-4.231043	-0.098126	-0.610287
H114	H	-3.822752	-0.413872	-0.105373
H115	H	-4.090869	-0.515029	-0.139018
H116	H	-3.963769	-0.731667	-0.103898
H117	H	-4.152742	-0.901045	-0.356610
O118	O	-4.019300	-0.868087	-0.092224
C119	C	-3.966427	-0.811236	-0.030828
H120	H	-3.890791	-0.760968	-0.050212
H121	H	-4.111755	-0.803461	-0.012751
C122	C	-3.907423	-0.889284	0.061810
C123	C	-3.814510	-0.827544	0.038004
H124	H	-3.813721	-0.899343	0.104271
H125	H	-3.943052	-0.927586	0.020447
H126	H	-4.028527	-0.882796	0.076869
H127	H	-3.693424	-0.834036	0.022936
H128	H	-3.778857	-0.789243	0.079367
