data_functionalizedCrystal
_audit_creation_method	'MofGen! by Chris Wilmer'
_symmetry_space_group_name_H-M	'P1'
_symmetry_Int_Tables_number	1
_symmetry_cell_setting	triclinic
loop_
_symmetry_equiv_pos_as_xyz
  x,y,z
_cell_length_a	12.759401
_cell_length_b	12.759400
_cell_length_c	12.759393
_cell_angle_alpha	90.030447
_cell_angle_beta	90.018567
_cell_angle_gamma	90.012209
loop_
_atom_site_label
_atom_site_type_symbol
_atom_site_fract_x
_atom_site_fract_y
_atom_site_fract_z
Zn1	Zn	1.606267	-0.418231	0.593991
Zn2	Zn	1.606166	-0.593950	0.418315
Zn3	Zn	1.430569	-0.418283	0.418331
Zn4	Zn	1.430562	-0.593866	0.593956
O5	O	1.518391	-0.506082	0.506148
O6	O	1.753274	-0.441554	0.570696
O7	O	1.582833	-0.570704	0.271296
O8	O	1.453920	-0.271255	0.441654
O9	O	1.753200	-0.570654	0.441627
O10	O	1.583005	-0.271217	0.570711
O11	O	1.453822	-0.441642	0.271307
O12	O	1.283547	-0.441560	0.441620
O13	O	1.453909	-0.570511	0.740982
O14	O	1.283542	-0.570561	0.570651
O15	O	1.582998	-0.441473	0.741008
O16	O	1.582826	-0.740960	0.441593
O17	O	1.453811	-0.740898	0.570636
C18	C	1.245423	-0.506058	0.506134
C19	C	1.128647	-0.506072	0.506152
C20	C	1.073816	-0.438977	0.573463
C21	C	0.964092	-0.438997	0.573469
C22	C	0.964039	-0.573217	0.438853
C23	C	1.073761	-0.573191	0.438841
C24	C	1.073846	-0.361489	0.651186
C25	C	0.964122	-0.361509	0.651193
C26	C	1.518336	-0.779050	0.506132
C27	C	1.518408	-0.895826	0.506160
C28	C	1.585589	-0.950589	0.573415
C29	C	1.585638	-1.060313	0.573441
C30	C	1.451322	-1.060502	0.438947
C31	C	1.451269	-0.950780	0.438927
C32	C	1.652728	-0.895635	0.640647
C33	C	1.719915	-0.950398	0.707907
C34	C	1.719964	-1.060122	0.707933
C35	C	1.652826	-1.115083	0.640699
C36	C	1.792424	-0.506108	0.506164
C37	C	1.909201	-0.506119	0.506170
C38	C	1.518464	-0.505976	0.780182
C39	C	1.518496	-0.505931	0.896959
C40	C	1.518475	-0.232049	0.506188
C41	C	1.518510	-0.115272	0.506205
C42	C	1.518378	-0.506112	0.233181
C43	C	1.518550	-0.505861	0.116405
C44	C	1.585722	-0.438735	0.951836
C45	C	1.585747	-0.438697	1.061560
C46	C	1.451316	-0.573061	1.061520
C47	C	1.451287	-0.573093	0.951798
C48	C	1.663337	-0.361164	0.951860
C49	C	1.663362	-0.361126	1.061584
H50	H	0.934378	-0.383404	0.732529
O51	O	1.755606	-0.395932	0.911419
C52	C	1.928966	-0.461382	0.947827
C53	C	1.824537	-0.422002	0.993766
H54	H	1.984717	-0.482491	1.014382
H55	H	1.965546	-0.397208	0.897595
H56	H	1.913912	-0.533677	0.897481
H57	H	1.839501	-0.349727	1.044158
H58	H	1.787989	-0.486240	1.043938
H59	H	1.396541	-0.627807	0.907121
H60	H	1.634247	-0.283816	1.095630
H61	H	1.652698	-0.806292	0.640632
O62	O	1.760352	-0.387245	1.097252
C63	C	1.863584	-0.508383	1.198855
C64	C	1.753689	-0.478917	1.158548
H65	H	1.858238	-0.582515	1.248402
H66	H	1.896075	-0.441589	1.248569
H67	H	1.917815	-0.522896	1.129359
H68	H	1.699379	-0.464422	1.227980
H69	H	1.721284	-0.545729	1.108801
H70	H	1.774571	-0.905643	0.762653
H71	H	1.107913	-0.390722	0.728424
O72	O	1.385889	-0.638191	1.114747
C73	C	1.207171	-0.689202	1.148246
C74	C	1.281147	-0.615358	1.087923
H75	H	1.122473	-0.670784	1.126565
H76	H	1.218646	-0.677632	1.236107
H77	H	1.225643	-0.773921	1.126669
H78	H	1.262721	-0.530612	1.109413
H79	H	1.269659	-0.627020	1.000077
H80	H	1.396662	-1.105260	0.384208
O81	O	1.126974	-0.638511	0.373560
C82	C	1.160475	-0.817145	0.322180
C83	C	1.100166	-0.743289	0.396199
H84	H	1.138806	-0.901872	0.340443
H85	H	1.248338	-0.805692	0.333731
H86	H	1.138873	-0.798533	0.237509
H87	H	1.121680	-0.761855	0.480898
H88	H	1.012318	-0.754756	0.384557
O89	O	1.109413	-0.264351	0.625530
C90	C	1.211126	-0.114439	0.679061
C91	C	1.170899	-0.224422	0.708261
H92	H	1.260863	-0.082132	0.745924
H93	H	1.141667	-0.060124	0.664677
H94	H	1.260689	-0.119671	0.604919
H95	H	1.121353	-0.219291	0.782417
H96	H	1.240404	-0.278694	0.722577
H97	H	1.774662	-1.104707	0.762707
H98	H	1.396563	-0.906192	0.384163
H99	H	0.919337	-0.627863	0.384051
H100	H	0.930079	-0.284182	0.622191
H101	H	1.652859	-1.204428	0.640737
H102	H	1.641566	-0.279799	0.922102
