data_functionalizedCrystal
_audit_creation_method	'MofGen! by Chris Wilmer'
_symmetry_space_group_name_H-M	'P1'
_symmetry_Int_Tables_number	1
_symmetry_cell_setting	triclinic
loop_
_symmetry_equiv_pos_as_xyz
  x,y,z
_cell_length_a	10.489741
_cell_length_b	14.971506
_cell_length_c	14.048226
_cell_angle_alpha	89.997968
_cell_angle_beta	89.997839
_cell_angle_gamma	84.080781
loop_
_atom_site_label
_atom_site_type_symbol
_atom_site_fract_x
_atom_site_fract_y
_atom_site_fract_z
O1	O	-1.692607	-0.126193	0.079098
O2	O	-1.321275	-0.138038	0.079113
O3	O	-1.516881	-0.001973	0.079103
O4	O	-1.497002	-0.262258	0.079108
O5	O	-1.516862	-0.001972	-0.079219
O6	O	-1.321257	-0.138037	-0.079209
O7	O	-1.692588	-0.126192	-0.079223
Zn8	Zn	-1.506920	-0.132114	-0.104353
Zn9	Zn	-1.506944	-0.132116	0.104242
O10	O	-1.496983	-0.262257	-0.079213
C11	C	-1.273745	-0.137143	-0.000046
C12	C	-1.132146	-0.134466	-0.000041
C13	C	-1.515978	0.031357	-0.000057
C14	C	-1.513300	0.130668	-0.000052
C15	C	-1.740119	-0.127087	-0.000062
C16	C	-1.881718	-0.129764	-0.000062
C17	C	-1.064999	-0.047892	-0.000051
C18	C	-0.972412	-0.088790	0.078008
C19	C	-0.972428	-0.088809	-0.078084
C20	C	-1.041424	-0.175399	0.078083
C21	C	-1.041449	-0.175407	-0.078079
C22	C	-0.948889	-0.216367	-0.000000
C23	C	-1.497886	-0.295587	-0.000052
C24	C	-1.500564	-0.394898	-0.000050
C25	C	-1.617994	0.568355	-0.000057
C26	C	-1.620501	0.475040	-0.000063
C27	C	-1.505575	0.418474	-0.000055
C28	C	-1.388136	0.455227	-0.000051
C29	C	-1.385631	0.548540	-0.000052
C30	C	-1.393365	0.260735	-0.000048
C31	C	-1.395869	0.167415	-0.000045
C32	C	-1.628234	0.187235	-0.000059
C33	C	-1.625730	0.280547	-0.000060
C34	C	-1.508290	0.317294	-0.000054
N35	N	-1.506912	-0.132113	-0.246714
C36	C	-1.584354	-0.186894	-0.296529
C37	C	-1.584370	-0.186890	-0.396187
C38	C	-1.506937	-0.132109	-0.446027
C39	C	-1.429493	-0.077322	-0.396204
C40	C	-1.429484	-0.077321	-0.296548
C41	C	-1.429514	-0.077328	-0.603918
C42	C	-1.429520	-0.077329	-0.703581
C43	C	-1.584400	-0.186897	-0.703557
C44	C	-1.584391	-0.186896	-0.603901
C45	C	-1.506945	-0.132110	-0.554085
N46	N	-1.506962	-0.132111	0.246603
H47	H	-1.115505	0.023277	0.000045
N48	N	-1.663515	-0.242874	-0.754415
N49	N	-1.648358	-0.326127	-0.743272
H50	H	-1.704227	-0.365666	-0.779190
N51	N	-1.278473	0.109639	-0.000065
N52	N	-1.253947	0.055362	-0.066803
H53	H	-1.171032	0.014558	-0.066819
N54	N	-1.735379	0.626144	-0.000077
N55	N	-1.733131	0.709457	-0.000080
H56	H	-1.816037	0.750271	-0.000098
N57	N	-1.663462	-0.242854	-0.552969
N58	N	-1.613729	-0.301643	-0.497358
H59	H	-1.669573	-0.341163	-0.461383
H60	H	-0.898648	-0.287612	0.000044
H61	H	-1.297733	0.290649	-0.000056
N62	N	-1.265668	0.586065	-0.000057
N63	N	-1.163063	0.535552	-0.000055
H64	H	-1.078334	0.562052	-0.000066
N65	N	-0.934085	-0.042827	-0.160866
N66	N	-0.976135	0.037297	-0.174753
H67	H	-0.949059	0.069779	-0.233214
H68	H	-1.716124	0.445126	-0.000070
N69	N	-1.350357	-0.021373	-0.245667
N70	N	-1.266072	-0.055714	-0.190065
H71	H	-1.210187	-0.016196	-0.154133
N72	N	-1.748200	0.149706	-0.000091
N73	N	-1.825698	0.166768	-0.066833
H74	H	-1.910422	0.140260	-0.066853
N75	N	-0.934061	-0.042833	0.160798
N76	N	-0.976106	0.037286	0.174711
H77	H	-0.949030	0.069748	0.233181
H78	H	-1.294562	0.409164	-0.000050
H79	H	-1.719312	0.326602	-0.000060
N80	N	-1.663462	-0.242856	-0.245638
N81	N	-1.732610	-0.291756	-0.290134
H82	H	-1.788491	-0.331277	-0.254195
N83	N	-1.079550	-0.221343	0.160956
N84	N	-1.135646	-0.290626	0.152427
H85	H	-1.162569	-0.323079	0.210953
N86	N	-1.079898	-0.221312	-0.160867
N87	N	-1.195490	-0.231281	-0.173716
H88	H	-1.222650	-0.263695	-0.232192
N89	N	-1.350412	-0.021372	-0.754479
N90	N	-1.281274	0.027542	-0.709992
H91	H	-1.225400	0.067062	-0.745938
N92	N	-1.663489	-0.242849	-0.447058
N93	N	-1.732617	-0.291758	-0.402547
H94	H	-1.788502	-0.331280	-0.438473
N95	N	-1.350434	-0.021334	-0.553046
N96	N	-1.281319	0.027586	-0.597554
H97	H	-1.225477	0.067136	-0.561626
H98	H	-1.366452	-0.032713	-0.436792
