data_functionalizedCrystal
_audit_creation_method	'MofGen! by Chris Wilmer'
_symmetry_space_group_name_H-M	'P1'
_symmetry_Int_Tables_number	1
_symmetry_cell_setting	triclinic
loop_
_symmetry_equiv_pos_as_xyz
  x,y,z
_cell_length_a	26.455835
_cell_length_b	26.455273
_cell_length_c	26.451828
_cell_angle_alpha	60.005170
_cell_angle_beta	60.010757
_cell_angle_gamma	59.993435
loop_
_atom_site_label
_atom_site_type_symbol
_atom_site_fract_x
_atom_site_fract_y
_atom_site_fract_z
O1	O	0.069940	-0.738516	0.617604
O2	O	0.569940	-0.238516	1.117604
O3	O	0.026299	-0.574986	0.497618
O4	O	0.526299	-0.074986	0.997618
O5	O	0.129847	-0.678463	0.497546
O6	O	0.629847	-0.178463	0.997546
O7	O	-0.033607	-0.635040	0.617676
O8	O	0.466393	-0.135040	1.117676
O9	O	0.164197	-0.644116	0.531822
O10	O	0.664197	-0.144116	1.031822
O11	O	0.060649	-0.540639	0.531894
O12	O	0.560649	-0.040639	1.031894
O13	O	0.104290	-0.704170	0.651880
O14	O	0.604290	-0.204170	1.151880
Cu15	Cu	0.085606	-0.619268	0.595016
Cu16	Cu	0.585606	-0.119268	1.095016
Cu17	Cu	0.044984	-0.659887	0.554481
Cu18	Cu	0.544984	-0.159887	1.054481
O19	O	0.000742	-0.600693	0.651952
O20	O	0.500742	-0.100693	1.151952
N21	N	0.114179	-0.590703	0.623530
N22	N	0.614179	-0.090703	1.123530
N23	N	0.016416	-0.688458	0.525968
N24	N	0.516416	-0.188458	1.025968
C25	C	0.157553	-0.547535	0.933368
C26	C	0.657553	-0.047535	1.433368
C27	C	0.424104	-0.547506	0.666656
C28	C	0.924104	-0.047506	1.166656
C29	C	0.157413	-0.547503	0.666729
C30	C	0.657413	-0.047503	1.166729
C31	C	0.157397	-0.280846	0.666749
C32	C	0.657397	0.219154	1.166749
C33	C	0.200330	-0.409550	0.709625
C34	C	0.700330	0.090450	1.209625
C35	C	0.200339	-0.504608	0.709615
C36	C	0.700339	-0.004608	1.209615
C37	C	0.224118	-0.480848	0.733375
C38	C	0.724118	0.019152	1.233375
C39	C	0.327800	-0.462984	0.678792
C40	C	0.827800	0.037016	1.178792
C41	C	0.392611	-0.484588	0.657175
C42	C	0.892611	0.015412	1.157175
C43	C	0.392630	-0.589450	0.697162
C44	C	0.892630	-0.089450	1.197162
C45	C	0.327821	-0.567844	0.718781
C46	C	0.827821	-0.067844	1.218781
C47	C	0.215955	-0.377135	0.645910
C48	C	0.715955	0.122865	1.145910
C49	C	0.194327	-0.312320	0.624323
C50	C	0.694327	0.187680	1.124323
C51	C	0.141457	-0.312339	0.730169
C52	C	0.641457	0.187661	1.230169
C53	C	0.163084	-0.377154	0.751756
C54	C	0.663084	0.122846	1.251756
C55	C	0.136618	-0.488954	0.725292
C56	C	0.636618	0.011046	1.225292
C57	C	0.115007	-0.510553	0.703686
C58	C	0.615007	-0.010553	1.203686
C59	C	0.220833	-0.563461	0.650740
C60	C	0.720833	-0.063461	1.150740
C61	C	0.242447	-0.541861	0.672339
C62	C	0.742447	-0.041861	1.172339
C63	C	0.136680	-0.488971	0.837094
C64	C	0.636680	0.011029	1.337094
C65	C	0.115112	-0.510589	0.901907
C66	C	0.615112	-0.010589	1.401907
C67	C	0.220969	-0.563508	0.901868
C68	C	0.720969	-0.063508	1.401868
C69	C	0.242535	-0.541892	0.837053
C70	C	0.742535	-0.041892	1.337053
C71	C	0.200389	-0.504622	0.804668
C72	C	0.700389	-0.004622	1.304668
C73	C	0.295409	-0.504610	0.709593
C74	C	0.795409	-0.004610	1.209593
C75	C	0.132990	-0.570876	1.004655
C76	C	0.632990	-0.070876	1.504655
C77	C	0.495389	-0.570440	0.642547
C78	C	0.995389	-0.070440	1.142547
C79	C	0.132802	-0.570856	0.643399
C80	C	0.632802	-0.070856	1.143399
C81	C	0.133212	-0.209553	0.643833
C82	C	0.633212	0.290447	1.143833
C83	C	-0.097217	-0.706972	0.506986
C84	C	0.402783	-0.206972	1.006986
C85	C	-0.002040	-0.707108	0.412067
C86	C	0.497960	-0.207108	0.912067
C87	C	-0.002230	-0.802124	0.507163
C88	C	0.497770	-0.302124	1.007163
C89	C	-0.002214	-0.707101	0.507221
C90	C	0.497786	-0.207101	1.007221
C91	C	-0.025925	-0.730827	0.483360
C92	C	0.474075	-0.230827	0.983360
N93	N	0.553723	-0.590712	0.623415
N94	N	1.053723	-0.090712	1.123415
O95	O	0.751638	-0.596429	0.475603
O96	O	1.251638	-0.096429	0.975603
O97	O	0.751819	-0.716773	0.638980
O98	O	1.251819	-0.216773	1.138980
O99	O	0.751753	-0.716500	0.535361
O100	O	1.251753	-0.216500	1.035361
O101	O	0.751705	-0.596703	0.579222
O102	O	1.251705	-0.096703	1.079222
O103	O	0.648791	-0.682239	0.569747
O104	O	1.148791	-0.182239	1.069747
O105	O	0.648858	-0.682512	0.673366
O106	O	1.148858	-0.182512	1.173366
O107	O	0.648676	-0.562169	0.509989
O108	O	1.148676	-0.062169	1.009989
Cu109	Cu	0.639366	-0.619212	0.594817
Cu110	Cu	1.139366	-0.119212	1.094817
Cu111	Cu	0.761130	-0.659729	0.554152
Cu112	Cu	1.261130	-0.159729	1.054152
O113	O	0.648743	-0.562442	0.613609
O114	O	1.148743	-0.062442	1.113609
N115	N	0.846773	-0.688230	0.525548
N116	N	1.346773	-0.188230	1.025548
N117	N	0.114157	-0.151217	0.623565
N118	N	0.614157	0.348783	1.123565
O119	O	-0.033591	0.046803	0.617717
O120	O	0.466409	0.546803	1.117717
O121	O	0.129795	0.046806	0.497390
O122	O	0.629795	0.546806	0.997390
O123	O	0.026157	0.046789	0.497680
O124	O	0.526157	0.546789	0.997680
O125	O	0.070046	0.046819	0.617427
O126	O	0.570046	0.546819	1.117427
O127	O	0.060509	-0.056181	0.532004
O128	O	0.560509	0.443819	1.032004
O129	O	0.164146	-0.056164	0.531714
O130	O	0.664146	0.443836	1.031714
O131	O	0.000760	-0.056167	0.652041
O132	O	0.500760	0.443833	1.152041
Cu133	Cu	0.085590	-0.065568	0.595012
Cu134	Cu	0.585590	0.434432	1.095012
Cu135	Cu	0.044965	0.056206	0.554419
Cu136	Cu	0.544965	0.556206	1.054419
O137	O	0.104397	-0.056151	0.651751
O138	O	0.604397	0.443849	1.151751
N139	N	0.016390	0.141855	0.525867
N140	N	0.516390	0.641855	1.025867
N141	N	0.114410	-0.590756	1.062992
N142	N	0.614410	-0.090756	1.562992
O143	O	0.108565	-0.738494	1.260998
O144	O	0.608565	-0.238494	1.760998
O145	O	-0.011747	-0.575059	1.261012
O146	O	0.488253	-0.075059	1.761012
O147	O	-0.011470	-0.678679	1.260970
O148	O	0.488530	-0.178679	1.760970
O149	O	0.108287	-0.634874	1.261040
O150	O	0.608287	-0.134874	1.761040
O151	O	0.022849	-0.644347	1.158004
O152	O	0.522849	-0.144347	1.658004
O153	O	0.022572	-0.540726	1.158046
O154	O	0.522572	-0.040726	1.658046
O155	O	0.142884	-0.704162	1.158033
O156	O	0.642884	-0.204162	1.658033
Cu157	Cu	0.085861	-0.619309	1.148638
Cu158	Cu	0.585861	-0.119309	1.648638
Cu159	Cu	0.045275	-0.659911	1.270406
Cu160	Cu	0.545275	-0.159911	1.770406
O161	O	0.142606	-0.600541	1.158074
O162	O	0.642606	-0.100541	1.658074
N163	N	0.016726	-0.688471	1.356052
N164	N	0.516726	-0.188471	1.856052
C165	C	0.039385	-0.537207	0.498225
C166	C	0.539385	-0.037207	0.998225
C167	C	0.167616	-0.665350	0.498136
C168	C	0.667616	-0.165350	0.998136
C169	C	0.091204	-0.741950	0.651272
C170	C	0.591204	-0.241950	1.151272
C171	C	-0.037027	-0.613806	0.651361
C172	C	0.462973	-0.113806	1.151361
C173	C	0.700360	-0.716215	0.676756
C174	C	1.200360	-0.216215	1.176756
C175	C	0.700279	-0.715877	0.548436
C176	C	1.200279	-0.215877	1.048436
C177	C	0.700133	-0.562725	0.472214
C178	C	1.200133	-0.062725	0.972214
C179	C	0.700218	-0.563065	0.600533
C180	C	1.200218	-0.063065	1.100533
C181	C	0.167511	-0.004552	0.497940
C182	C	0.667511	0.495448	0.997940
C183	C	0.039211	-0.004699	0.498341
C184	C	0.539211	0.495301	0.998341
C185	C	-0.036999	-0.004682	0.651449
C186	C	0.463001	0.495318	1.151449
C187	C	0.091344	-0.004663	0.651090
C188	C	0.591344	0.495337	1.151090
C189	C	-0.011156	-0.537302	1.209530
C190	C	0.488844	-0.037302	1.709530
C191	C	-0.010806	-0.665617	1.209458
C192	C	0.489194	-0.165617	1.709458
C193	C	0.142293	-0.741918	1.209514
C194	C	0.642293	-0.241918	1.709514
C195	C	0.141950	-0.613596	1.209563
C196	C	0.641950	-0.113596	1.709563
H197	H	0.102355	-0.458618	0.810728
H198	H	0.602355	0.041382	1.310728
C199	C	0.700425	-0.767257	0.740142
C200	C	1.200425	-0.267257	1.240142
H201	H	0.700442	-0.803202	0.740194
H202	H	1.200442	-0.303202	1.240194
H203	H	0.736339	-0.776981	0.747682
H204	H	1.236339	-0.276981	1.247682
H205	H	0.664524	-0.753078	0.771656
H206	H	1.164524	-0.253078	1.271656
H207	H	0.700298	-0.753510	0.539047
H208	H	1.200298	-0.253510	1.039047
H209	H	-0.048413	-0.674973	1.209396
H210	H	0.451587	-0.174973	1.709396
C211	C	-0.100447	-0.601311	0.702325
C212	C	0.399553	-0.101311	1.202325
H213	H	-0.100556	-0.637155	0.738302
H214	H	0.399444	-0.137155	1.238302
H215	H	-0.107981	-0.567560	0.712013
H216	H	0.392019	-0.067560	1.212013
H217	H	-0.131933	-0.591520	0.688103
H218	H	0.368067	-0.091520	1.188103
C219	C	-0.062186	-0.473894	1.209536
C220	C	0.437814	0.026106	1.709536
H221	H	-0.047236	-0.447888	1.209557
H222	H	0.452764	0.052112	1.709557
H223	H	-0.073435	-0.455364	1.173624
H224	H	0.426565	0.044636	1.673624
H225	H	-0.097367	-0.479314	1.245441
H226	H	0.402633	0.020686	1.745441
C227	C	0.700054	-0.511681	0.408832
C228	C	1.200054	-0.011681	0.908832
H229	H	0.700050	-0.526639	0.382816
H230	H	1.200050	-0.026639	0.882816
H231	H	0.664130	-0.476513	0.414280
H232	H	1.164130	0.023487	0.914280
H233	H	0.735945	-0.500408	0.390292
H234	H	1.235945	-0.000408	0.890292
C235	C	0.231035	-0.677850	0.447172
C236	C	0.731035	-0.177850	0.947172
H237	H	0.257009	-0.718831	0.462194
H238	H	0.757009	-0.218831	0.962194
H239	H	0.225634	-0.673195	0.411991
H240	H	0.725634	-0.173195	0.911991
H241	H	0.249594	-0.649241	0.435899
H242	H	0.749594	-0.149241	0.935899
H243	H	0.214338	-0.004265	0.460069
H244	H	0.714338	0.495735	0.960069
C245	C	0.104029	-0.004653	0.701914
C246	C	0.604029	0.495347	1.201914
H247	H	0.068249	-0.004648	0.737947
H248	H	0.568249	0.495352	1.237947
H249	H	0.137807	-0.040557	0.711546
H250	H	0.637807	0.459443	1.211546
H251	H	0.113845	0.031263	0.687605
H252	H	0.613845	0.531263	1.187605
H253	H	0.179573	-0.604224	1.209577
H254	H	0.679573	-0.104224	1.709577
H255	H	0.063231	-0.497836	0.928300
H256	H	0.563231	0.002164	1.428300
C257	C	0.700196	-0.512224	0.613210
C258	C	1.200196	-0.012224	1.113210
H259	H	0.700228	-0.527356	0.654202
H260	H	1.200228	-0.027356	1.154202
H261	H	0.736074	-0.500922	0.584636
H262	H	1.236074	-0.000922	1.084636
H263	H	0.664260	-0.477029	0.608623
H264	H	1.164260	0.022971	1.108623
C265	C	0.428242	-0.438798	0.623292
C266	C	0.928242	0.061202	1.123292
H267	H	0.399655	-0.398043	0.620911
H268	H	0.899655	0.101957	1.120911
H269	H	0.453539	-0.449642	0.645367
H270	H	0.953539	0.050358	1.145367
H271	H	0.453507	-0.440454	0.582684
H272	H	0.953507	0.059546	1.082684
H273	H	0.029814	-0.004702	0.460721
H274	H	0.529814	0.495298	0.960721
C275	C	-0.100385	-0.004683	0.702484
C276	C	0.399615	0.495317	1.202484
H277	H	-0.126408	-0.004686	0.687535
H278	H	0.373592	0.495314	1.187535
H279	H	-0.094949	-0.040586	0.737668
H280	H	0.405051	0.459414	1.237668
H281	H	-0.118909	0.031234	0.713725
H282	H	0.381091	0.531234	1.213725
H283	H	0.030065	-0.490230	0.460543
H284	H	0.530065	0.009770	0.960543
H285	H	0.100526	-0.788925	0.688956
H286	H	0.600526	-0.288925	1.188956
C287	C	0.193324	-0.805325	1.209508
C288	C	0.693324	-0.305325	1.709508
H289	H	0.229262	-0.805391	1.209519
H290	H	0.729262	-0.305391	1.709519
H291	H	0.179134	-0.836824	1.245404
H292	H	0.679134	-0.336824	1.745404
H293	H	0.203069	-0.812872	1.173587
H294	H	0.703069	-0.312872	1.673587
C295	C	0.267328	-0.604491	0.937487
C296	C	0.767328	-0.104491	1.437487
H297	H	0.245362	-0.615120	0.980731
H298	H	0.745362	-0.115120	1.480731
H299	H	0.292617	-0.641136	0.926854
H300	H	0.792617	-0.141136	1.426854
H301	H	0.292601	-0.582491	0.926858
H302	H	0.792601	-0.082491	1.426858
C303	C	0.312618	-0.559111	0.801386
C304	C	0.812618	-0.059111	1.301386
H305	H	0.319429	-0.540907	0.758148
H306	H	0.819429	-0.040907	1.258148
H307	H	0.330831	-0.544210	0.812001
H308	H	0.830831	-0.044210	1.312001
H309	H	0.330828	-0.602846	0.811999
H310	H	0.830828	-0.102846	1.311999
C311	C	0.044916	-0.493332	0.720918
C312	C	0.544916	0.006668	1.220918
H313	H	0.038077	-0.511526	0.702706
H314	H	0.538077	-0.011526	1.202706
H315	H	0.026728	-0.508243	0.764648
H316	H	0.526728	-0.008243	1.264648
H317	H	0.026705	-0.449597	0.706017
H318	H	0.526705	0.050403	1.206017
C319	C	0.267151	-0.604519	0.609820
C320	C	0.767151	-0.104519	1.109820
H321	H	0.245156	-0.615170	0.599224
H322	H	0.745156	-0.115170	1.099224
H323	H	0.292465	-0.582592	0.573154
H324	H	0.792465	-0.082592	1.073154
H325	H	0.292403	-0.641156	0.631866
H326	H	0.792403	-0.141156	1.131866
C327	C	0.312538	-0.559080	0.655104
C328	C	0.812538	-0.059080	1.155104
H329	H	0.319377	-0.540876	0.673306
H330	H	0.819377	-0.040876	1.173306
H331	H	0.330754	-0.602811	0.669998
H332	H	0.830754	-0.102811	1.169998
H333	H	0.330721	-0.544162	0.611370
H334	H	0.830721	-0.044162	1.111370
C335	C	0.292188	-0.613634	0.752662
C336	C	0.792188	-0.113634	1.252662
H337	H	0.248947	-0.591712	0.764228
H338	H	0.748947	-0.091712	1.264228
H339	H	0.302796	-0.634122	0.725994
H340	H	0.802796	-0.134122	1.225994
H341	H	0.302831	-0.643314	0.788677
H342	H	0.802831	-0.143314	1.288677
C343	C	0.428290	-0.659006	0.707261
C344	C	0.928290	-0.159006	1.207261
H345	H	0.471528	-0.665910	0.689970
H346	H	0.971528	-0.165910	1.189970
H347	H	0.417690	-0.681606	0.750359
H348	H	0.917690	-0.181606	1.250359
H349	H	0.417659	-0.672410	0.687673
H350	H	0.917659	-0.172410	1.187673
C351	C	0.292148	-0.393429	0.668687
C352	C	0.792148	0.106571	1.168687
H353	H	0.248910	-0.386520	0.685968
H354	H	0.748910	0.113480	1.185968
H355	H	0.302782	-0.380021	0.688267
H356	H	0.802782	0.119979	1.188267
H357	H	0.302751	-0.370834	0.625584
H358	H	0.802751	0.129166	1.125584
C359	C	0.256918	-0.412770	0.599570
C360	C	0.756918	0.087230	1.099570
H361	H	0.263117	-0.384180	0.558530
H362	H	0.763117	0.115820	1.058530
H363	H	0.295776	-0.438054	0.605779
H364	H	0.795776	0.061946	1.105779
H365	H	0.237125	-0.438053	0.605804
H366	H	0.737125	0.061947	1.105804
H367	H	0.102328	-0.458621	0.755642
H368	H	0.602328	0.041379	1.255642
H369	H	0.111138	-0.285961	0.764475
H370	H	0.611138	0.214039	1.264475
C371	C	0.211509	-0.276659	0.554235
C372	C	0.711509	0.223341	1.054235
H373	H	0.193292	-0.233418	0.547412
H374	H	0.693292	0.266582	1.047412
H375	H	0.255235	-0.287276	0.536019
H376	H	0.755235	0.212724	1.036019
H377	H	0.196589	-0.287276	0.536035
H378	H	0.696589	0.212724	1.036035
C379	C	0.145825	-0.412812	0.821845
C380	C	0.645825	0.087188	1.321845
H381	H	0.120524	-0.384235	0.843844
H382	H	0.620524	0.115765	1.343844
H383	H	0.123837	-0.438064	0.832406
H384	H	0.623837	0.061936	1.332406
H385	H	0.182446	-0.438128	0.832526
H386	H	0.682446	0.061872	1.332526
