data_functionalizedCrystal
_audit_creation_method	'MofGen! by Chris Wilmer'
_symmetry_space_group_name_H-M	'P1'
_symmetry_Int_Tables_number	1
_symmetry_cell_setting	triclinic
loop_
_symmetry_equiv_pos_as_xyz
  x,y,z
_cell_length_a	15.995350
_cell_length_b	16.109301
_cell_length_c	14.586319
_cell_angle_alpha	89.998582
_cell_angle_beta	90.002117
_cell_angle_gamma	96.523072
loop_
_atom_site_label
_atom_site_type_symbol
_atom_site_fract_x
_atom_site_fract_y
_atom_site_fract_z
O1	O	0.107625	-1.103160	0.076178
O2	O	0.440958	-0.769827	0.409511
O3	O	0.774291	-0.436494	0.742844
O4	O	0.121018	-0.861102	0.076192
O5	O	0.454352	-0.527769	0.409525
O6	O	0.787685	-0.194435	0.742858
O7	O	-0.007568	-0.988748	0.076184
O8	O	0.325765	-0.655415	0.409517
O9	O	0.659099	-0.322081	0.742850
O10	O	0.236211	-0.975514	0.076186
O11	O	0.569544	-0.642181	0.409519
O12	O	0.902878	-0.308848	0.742853
O13	O	-0.007571	-0.988738	-0.076297
O14	O	0.325762	-0.655405	0.257036
O15	O	0.659096	-0.322071	0.590369
O16	O	0.121015	-0.861092	-0.076289
O17	O	0.454349	-0.527759	0.257044
O18	O	0.787682	-0.194425	0.590378
O19	O	0.107622	-1.103150	-0.076303
O20	O	0.440955	-0.769817	0.257030
O21	O	0.774288	-0.436484	0.590364
Cu22	Cu	0.114318	-0.982120	-0.090219
Cu23	Cu	0.447651	-0.648787	0.243115
Cu24	Cu	0.780985	-0.315453	0.576448
Cu25	Cu	0.114322	-0.982132	0.090107
Cu26	Cu	0.447655	-0.648799	0.423441
Cu27	Cu	0.780988	-0.315466	0.756774
O28	O	0.236208	-0.975504	-0.076295
O29	O	0.569541	-0.642171	0.257039
O30	O	0.902875	-0.308838	0.590372
C31	C	-0.038764	-0.988196	-0.000055
C32	C	0.294569	-0.654863	0.333278
C33	C	0.627903	-0.321529	0.666612
C34	C	-0.131714	-0.986556	-0.000050
C35	C	0.201619	-0.653222	0.333284
C36	C	0.534953	-0.319889	0.666617
C37	C	0.120474	-0.830122	-0.000047
C38	C	0.453808	-0.496789	0.333287
C39	C	0.787141	-0.163455	0.666620
C40	C	0.118848	-0.737826	-0.000041
C41	C	0.452181	-0.404493	0.333292
C42	C	0.785514	-0.071160	0.666625
C43	C	0.108166	-1.134130	-0.000062
C44	C	0.441499	-0.800797	0.333271
C45	C	0.774832	-0.467464	0.666604
C46	C	0.109792	-1.226426	-0.000062
C47	C	0.443126	-0.893093	0.333271
C48	C	0.776459	-0.559759	0.666605
C49	C	-0.469460	-0.980665	-0.000053
C50	C	-0.136127	-0.647332	0.333281
C51	C	0.197207	-0.313999	0.666614
C52	C	-0.422001	-0.889758	0.000295
C53	C	-0.088668	-0.556425	0.333628
C54	C	0.244666	-0.223091	0.666961
C55	C	-0.325311	-0.891399	-0.000049
C56	C	0.008022	-0.558065	0.333284
C57	C	0.341355	-0.224732	0.666618
C58	C	-0.301900	-0.983587	-0.000051
C59	C	0.031433	-0.650254	0.333283
C60	C	0.364767	-0.316920	0.666616
C61	C	-0.342992	-1.028420	-0.087126
C62	C	-0.009658	-0.695087	0.246208
C63	C	0.323675	-0.361753	0.579541
C64	C	-0.439627	-1.026136	-0.087198
C65	C	-0.106293	-0.692803	0.246135
C66	C	0.227040	-0.359469	0.579468
C67	C	-0.439982	-1.028026	0.086201
C68	C	-0.106649	-0.694692	0.419534
C69	C	0.226685	-0.361359	0.752867
C70	C	-0.343037	-1.028004	0.087351
C71	C	-0.009703	-0.694671	0.420685
C72	C	0.323630	-0.361338	0.754018
C73	C	-0.207203	-0.985243	-0.000053
C74	C	0.126130	-0.651910	0.333281
C75	C	0.459464	-0.318577	0.666614
C76	C	-0.564157	-0.979012	-0.000057
C77	C	-0.230824	-0.645679	0.333277
C78	C	0.102509	-0.312345	0.666610
C79	C	0.267404	-0.976056	-0.000054
C80	C	0.600737	-0.642723	0.333279
C81	C	0.934071	-0.309390	0.666613
C82	C	0.360354	-0.977697	-0.000053
C83	C	0.693687	-0.644363	0.333280
C84	C	1.027021	-0.311030	0.666613
N85	N	0.114315	-0.982118	-0.217050
N86	N	0.447648	-0.648784	0.116283
N87	N	0.780982	-0.315451	0.449616
C88	C	0.191366	-0.515573	-0.000051
C89	C	0.524699	-0.182240	0.333282
C90	C	0.858033	0.151093	0.666615
C91	C	0.189831	-0.428853	-0.000057
C92	C	0.523165	-0.095519	0.333276
C93	C	0.856498	0.237814	0.666610
C94	C	0.037268	-0.448686	-0.000055
C95	C	0.370601	-0.115352	0.333279
C96	C	0.703935	0.217981	0.666612
C97	C	0.038804	-0.535405	-0.000055
C98	C	0.372137	-0.202072	0.333278
C99	C	0.705470	0.131262	0.666611
C100	C	0.115855	-0.568846	-0.000049
C101	C	0.449189	-0.235513	0.333284
C102	C	0.782522	0.097821	0.666618
C103	C	0.112785	-0.395406	-0.000054
C104	C	0.446118	-0.062073	0.333279
C105	C	0.779451	0.271260	0.666612
C106	C	0.111120	-0.301380	-0.000061
C107	C	0.444453	0.031954	0.333273
C108	C	0.777787	0.365287	0.666606
C109	C	0.117520	-0.662879	-0.000044
C110	C	0.450854	-0.329545	0.333289
C111	C	0.784187	0.003788	0.666622
C112	C	0.057396	-1.038661	-0.548048
C113	C	0.390729	-0.705328	-0.214715
C114	C	0.724062	-0.371995	0.118619
C115	C	0.057396	-1.038659	-0.452067
C116	C	0.390729	-0.705326	-0.118733
C117	C	0.724063	-0.371993	0.214600
C118	C	0.171244	-0.925595	-0.452070
C119	C	0.504577	-0.592262	-0.118737
C120	C	0.837910	-0.258928	0.214597
C121	C	0.171247	-0.925602	-0.548050
C122	C	0.504580	-0.592268	-0.214716
C123	C	0.837913	-0.258935	0.118617
C124	C	0.114318	-0.982134	-0.596036
C125	C	0.447651	-0.648800	-0.262703
C126	C	0.780985	-0.315467	0.070631
C127	C	0.114315	-0.982125	-0.404075
C128	C	0.447649	-0.648792	-0.070742
C129	C	0.780982	-0.315458	0.262591
C130	C	0.114316	-0.982122	-0.300008
C131	C	0.447650	-0.648789	0.033325
C132	C	0.780983	-0.315456	0.366659
C133	C	0.114318	-0.982138	-0.700110
C134	C	0.447651	-0.648804	-0.366776
C135	C	0.780985	-0.315471	-0.033443
N136	N	0.114318	-0.982141	0.216939
N137	N	0.447652	-0.648808	0.550273
N138	N	0.780985	-0.315475	0.883606
H139	H	-0.296878	-0.856157	0.062370
H140	H	0.036455	-0.522823	0.395703
H141	H	0.369788	-0.189490	0.729036
H142	H	-0.327693	-1.095232	0.092608
H143	H	0.005641	-0.761899	0.425941
H144	H	0.338974	-0.428566	0.759274
Br145	Br	-0.019854	-1.115382	-0.386942
Br146	Br	0.313479	-0.782049	-0.053608
Br147	Br	0.646812	-0.448715	0.279725
Br148	Br	-0.452865	-0.829199	0.104374
Br149	Br	-0.119531	-0.495866	0.437707
Br150	Br	0.213802	-0.162532	0.771040
H151	H	0.011042	-1.084694	-0.587116
H152	H	0.344375	-0.751361	-0.253783
H153	H	0.677709	-0.418028	0.079550
Br154	Br	-0.067297	-0.403296	-0.000060
Br155	Br	0.266036	-0.069962	0.333273
Br156	Br	0.599370	0.263371	0.666607
Br157	Br	-0.278845	-0.832245	-0.104252
Br158	Br	0.054488	-0.498912	0.229081
Br159	Br	0.387821	-0.165579	0.562414
Br160	Br	0.248500	-0.848874	-0.386942
Br161	Br	0.581833	-0.515540	-0.053609
Br162	Br	0.915166	-0.182207	0.279724
H163	H	-0.314603	-0.997273	-0.151923
H164	H	0.018730	-0.663939	0.181411
H165	H	0.352064	-0.330606	0.514744
Br166	Br	-0.470122	-0.971630	-0.195681
Br167	Br	-0.136789	-0.638297	0.137652
Br168	Br	0.196544	-0.304964	0.470985
Br169	Br	-0.063683	-0.607710	-0.000064
Br170	Br	0.269650	-0.274377	0.333269
Br171	Br	0.602984	0.058956	0.666603
H172	H	-0.441586	-0.853581	-0.061797
H173	H	-0.108253	-0.520247	0.271537
H174	H	0.225080	-0.186914	0.604870
Br175	Br	-0.493411	-1.137373	-0.093797
Br176	Br	-0.160078	-0.804040	0.239537
Br177	Br	0.173256	-0.470707	0.572870
H178	H	-0.328885	-1.096148	-0.090365
H179	H	0.004449	-0.762815	0.242968
H180	H	0.337782	-0.429481	0.576302
H181	H	-0.460512	-0.998308	0.152198
H182	H	-0.127179	-0.664975	0.485531
H183	H	0.206155	-0.331642	0.818865
Br184	Br	0.248510	-0.848887	-0.613184
Br185	Br	0.581843	-0.515554	-0.279851
Br186	Br	0.915176	-0.182220	0.053483
H187	H	0.254106	-0.542798	-0.000053
H188	H	0.587440	-0.209465	0.333281
H189	H	0.920773	0.123869	0.666614
Br190	Br	0.292315	-0.356556	-0.000065
Br191	Br	0.625648	-0.023223	0.333269
Br192	Br	0.958982	0.310111	0.666602
Br193	Br	-0.297064	-0.973830	0.194734
Br194	Br	0.036269	-0.640496	0.528068
Br195	Br	0.369602	-0.307163	0.861401
H196	H	-0.471761	-1.095051	0.086785
H197	H	-0.138428	-0.761718	0.420118
H198	H	0.194906	-0.428385	0.753451
