data_functionalizedCrystal
_audit_creation_method	'MofGen! by Chris Wilmer'
_symmetry_space_group_name_H-M	'P1'
_symmetry_Int_Tables_number	1
_symmetry_cell_setting	triclinic
loop_
_symmetry_equiv_pos_as_xyz
  x,y,z
_cell_length_a	19.288864
_cell_length_b	10.723024
_cell_length_c	18.366186
_cell_angle_alpha	89.994974
_cell_angle_beta	89.977106
_cell_angle_gamma	83.802058
loop_
_atom_site_label
_atom_site_type_symbol
_atom_site_fract_x
_atom_site_fract_y
_atom_site_fract_z
O1	O	0.922366	0.155659	-0.060782
O2	O	0.720242	0.176657	-0.060732
O3	O	0.825966	-0.015516	-0.060755
O4	O	0.816641	0.347832	-0.060758
O5	O	0.825948	-0.015526	0.060344
O6	O	0.720223	0.176647	0.060368
O7	O	0.922347	0.155649	0.060318
Zn8	Zn	0.821282	0.166147	0.079570
Zn9	Zn	0.821306	0.166159	-0.079984
O10	O	0.816623	0.347822	0.060341
C11	C	0.694352	0.175976	-0.000176
C12	C	0.617235	0.173948	-0.000156
C13	C	0.573272	0.286707	-0.000169
C14	C	0.500813	0.284801	-0.000177
C15	C	0.472319	0.170131	-0.000187
C16	C	0.516291	0.057358	-0.000171
C17	C	0.588749	0.059266	-0.000155
C18	C	0.363477	0.079991	-0.042637
C19	C	0.291020	0.078087	-0.042657
C20	C	0.248835	0.164239	-0.000231
C21	C	0.279115	0.252317	0.042205
C22	C	0.351573	0.254226	0.042221
C23	C	0.393752	0.168049	-0.000203
C24	C	0.126303	0.274939	-0.000251
C25	C	0.053843	0.273029	-0.000255
C26	C	0.069323	0.045582	-0.000256
C27	C	0.141782	0.047496	-0.000245
C28	C	0.170267	0.162178	-0.000246
C29	C	0.825278	-0.062006	-0.000206
C30	C	0.823248	-0.200518	-0.000208
C31	C	0.882406	-0.276743	-0.000224
C32	C	0.880309	-0.419902	-0.000226
C33	C	0.948237	0.156330	-0.000240
C34	C	1.025354	0.158358	-0.000264
C35	C	0.817311	0.394313	-0.000209
C36	C	0.819341	0.532824	-0.000212
N37	N	0.821271	0.166138	0.188461
N38	N	0.821323	0.166159	-0.188875
C39	C	0.868102	0.081085	0.226551
C40	C	0.868106	0.081079	0.302779
C41	C	0.821287	0.166148	0.340914
C42	C	0.774447	0.251207	0.302815
C43	C	0.774440	0.251202	0.226588
C44	C	0.812728	0.279840	0.461675
C45	C	0.812741	0.279847	0.537899
C46	C	0.821307	0.166164	0.576021
C47	C	0.829874	0.052468	0.537909
C48	C	0.829867	0.052463	0.461682
C49	C	0.821290	0.166162	0.423569
C50	C	0.868144	0.081098	0.696766
C51	C	0.868144	0.081091	0.772995
C52	C	0.774489	0.251229	0.773030
C53	C	0.774486	0.251225	0.696802
C54	C	0.821317	0.166161	0.658675
H55	H	0.465012	0.376626	-0.000185
C56	C	0.384878	0.351098	0.088907
N57	N	0.409964	0.424058	0.124076
H58	H	0.930952	-0.485398	-0.000236
H59	H	0.736304	0.320463	0.195575
H60	H	0.736325	0.320469	0.333868
C61	C	0.750918	-0.378704	-0.000195
N62	N	0.699382	-0.312058	-0.000183
C63	C	0.723018	0.344881	0.654901
N64	N	0.684267	0.415455	0.623342
H65	H	0.046124	-0.047784	-0.000309
C66	C	0.257720	-0.018807	-0.089333
N67	N	0.232641	-0.091794	-0.124487
C68	C	0.919611	-0.012501	0.184616
N69	N	0.958406	-0.082994	0.153029
C70	C	0.637110	-0.064783	-0.000146
N71	N	0.673537	-0.158218	-0.000142
H72	H	0.771048	-0.241244	-0.000200
C73	C	0.232717	0.347089	0.088881
N74	N	0.197766	0.418469	0.124035
H75	H	0.906277	0.011824	0.804009
C76	C	0.190143	-0.076549	-0.000240
N77	N	0.226569	-0.169986	-0.000235
C78	C	0.919632	-0.012476	0.344686
N79	N	0.958445	-0.082938	0.376249
C80	C	0.839282	-0.072599	0.419762
N81	N	0.846369	-0.166799	0.388187
C82	C	0.839295	-0.072595	0.579837
N83	N	0.846392	-0.166788	0.611421
H84	H	0.736365	0.320489	0.804079
C85	C	0.952928	-0.221731	-0.000236
N86	N	1.006047	-0.180298	-0.000242
H87	H	0.906275	0.011829	0.665722
H88	H	0.805769	0.372425	0.568925
C89	C	0.803305	0.404910	0.419748
N90	N	0.796208	0.499109	0.388170
C91	C	0.409874	-0.014786	-0.089316
N92	N	0.444818	-0.086167	-0.124474
C93	C	0.157640	0.401091	-0.000243
N94	N	0.181240	0.496109	-0.000236
C95	C	0.604602	0.412861	-0.000156
N96	N	0.628200	0.507881	-0.000141
H97	H	0.018048	0.364855	-0.000261
H98	H	0.493087	-0.036008	-0.000189
