data_functionalizedCrystal
_audit_creation_method	'MofGen! by Chris Wilmer'
_symmetry_space_group_name_H-M	'P1'
_symmetry_Int_Tables_number	1
_symmetry_cell_setting	triclinic
loop_
_symmetry_equiv_pos_as_xyz
  x,y,z
_cell_length_a	9.065215
_cell_length_b	17.038272
_cell_length_c	8.140239
_cell_angle_alpha	90.003562
_cell_angle_beta	90.000939
_cell_angle_gamma	88.063127
loop_
_atom_site_label
_atom_site_type_symbol
_atom_site_fract_x
_atom_site_fract_y
_atom_site_fract_z
O1	O	1.971907	0.114731	0.136597
O2	O	1.543566	0.124145	0.136604
O3	O	1.755190	0.005604	0.136587
O4	O	1.760282	0.233271	0.136613
O5	O	1.755183	0.005603	-0.136640
O6	O	1.543558	0.124144	-0.136623
O7	O	1.971899	0.114730	-0.136631
Zn8	Zn	1.757728	0.119437	-0.180007
Zn9	Zn	1.757737	0.119438	0.179981
O10	O	1.760275	0.233270	-0.136614
C11	C	1.488485	0.123240	-0.000009
C12	C	1.324370	0.120536	-0.000006
C13	C	1.750556	-0.023558	-0.000026
C14	C	1.736740	-0.110451	-0.000025
C15	C	1.863588	-0.159650	-0.000029
C16	C	1.850597	-0.241294	-0.000013
C17	C	1.710758	-0.273738	-0.000005
C18	C	1.583900	-0.224532	0.000004
C19	C	1.596892	-0.142890	-0.000000
C20	C	1.664860	-0.519827	0.000018
C21	C	1.651877	-0.601476	0.000017
C22	C	1.918576	-0.618232	0.000003
C23	C	1.931556	-0.536587	-0.000011
C24	C	1.804698	-0.487389	0.000007
C25	C	1.697476	-0.357191	0.000006
C26	C	1.817981	-0.403937	0.000008
C27	C	2.026980	0.115634	-0.000014
C28	C	2.191095	0.118338	-0.000006
C29	C	1.764909	0.262433	0.000003
C30	C	1.778725	0.349325	0.000013
N31	N	1.757732	0.119435	-0.425690
N32	N	1.757744	0.119433	0.425664
H33	H	1.977460	-0.133241	-0.000046
H34	H	1.470039	-0.250954	0.000021
H35	H	1.493598	-0.102832	0.000003
H36	H	2.045428	-0.510178	-0.000017
H37	H	1.931838	-0.377518	0.000037
Br38	Br	2.022757	-0.308062	-0.000018
H39	H	1.583617	-0.383616	0.000009
H40	H	1.561562	-0.479779	0.000032
Br41	Br	1.462082	-0.645506	0.000011
Br42	Br	2.090730	-0.685004	-0.000020
