data_functionalizedCrystal
_audit_creation_method	'MofGen! by Chris Wilmer'
_symmetry_space_group_name_H-M	'P1'
_symmetry_Int_Tables_number	1
_symmetry_cell_setting	triclinic
loop_
_symmetry_equiv_pos_as_xyz
  x,y,z
_cell_length_a	6.817900
_cell_length_b	17.078472
_cell_length_c	16.305550
_cell_angle_alpha	96.275374
_cell_angle_beta	103.455250
_cell_angle_gamma	99.306020
loop_
_atom_site_label
_atom_site_type_symbol
_atom_site_fract_x
_atom_site_fract_y
_atom_site_fract_z
V1	V	-4.005358	-0.110437	-0.262946
O2	O	-4.014715	0.004618	-0.258028
O3	O	-3.936405	-0.218315	-0.261064
O4	O	-3.957028	-0.109040	-0.377664
O5	O	-3.993949	-0.105413	-0.140620
V6	V	-4.491640	-0.096639	-0.248325
O7	O	-4.260564	-0.140703	-0.295018
O8	O	-4.686631	-0.066373	-0.216253
O9	O	-4.337386	0.011239	-0.250207
O10	O	-4.599680	-0.211694	-0.253243
O11	O	-4.620446	-0.101663	-0.370651
O12	O	-4.316763	-0.098035	-0.133607
C13	C	-3.776404	-0.244603	-0.256894
C14	C	-3.801314	-0.332797	-0.256120
C15	C	-3.994349	-0.378282	-0.259961
C16	C	-4.017745	-0.461150	-0.259239
C17	C	-3.848102	-0.498530	-0.254669
C18	C	-3.655053	-0.453039	-0.250830
C19	C	-3.631662	-0.370174	-0.251559
C20	C	-3.898617	-0.745927	-0.252044
C21	C	-3.922022	-0.828798	-0.251313
C22	C	-4.284714	-0.836904	-0.259724
C23	C	-4.261303	-0.754036	-0.260447
C24	C	-4.068260	-0.708553	-0.256612
N25	N	-3.872011	-0.583234	-0.253928
N26	N	-4.044356	-0.623851	-0.257360
C27	C	-3.802710	-0.105212	-0.405628
C28	C	-3.844342	-0.104784	-0.499411
C29	C	-3.995743	-0.103126	-0.840157
C30	C	-3.760626	-0.098203	-0.799233
C31	C	-3.717286	-0.098977	-0.701737
C32	C	-3.920630	-0.103948	-0.671109
C33	C	-4.072844	-0.182301	-0.721675
C34	C	-4.114791	-0.181858	-0.819225
C35	C	-4.064268	-0.030322	-0.794370
C36	C	-4.016456	-0.029702	-0.696528
C37	C	-3.878192	-0.104416	-0.575570
C38	C	-4.038189	-0.102664	-0.935697
C39	C	-4.160729	0.037524	-0.254375
C40	C	-4.115057	0.125716	-0.255155
C41	C	-4.134423	-0.101866	-0.105638
C42	C	-4.072030	-0.102290	-0.011855
H43	H	-3.474477	-0.333141	-0.248434
O44	O	-3.578987	-0.031750	-0.660135
C45	C	-3.366825	0.091348	-0.672853
C46	C	-3.523415	0.015240	-0.720069
H47	H	-3.321880	0.129369	-0.721288
H48	H	-3.224146	0.073533	-0.633419
H49	H	-3.438643	0.127514	-0.628883
H50	H	-3.451783	-0.020961	-0.764082
H51	H	-3.666074	0.033110	-0.759448
H52	H	-3.640853	-0.151887	-0.685403
H53	H	-4.399452	-0.723607	-0.264174
O54	O	-4.159006	-0.341914	-0.264247
C55	C	-4.306990	-0.242076	-0.196561
C56	C	-4.120393	-0.283206	-0.191587
H57	H	-4.275820	-0.194590	-0.137832
H58	H	-4.449022	-0.288780	-0.199131
H59	H	-4.334219	-0.212370	-0.256444
H60	H	-4.092974	-0.312909	-0.131710
H61	H	-3.978466	-0.236468	-0.189064
H62	H	-3.783877	-0.859233	-0.247612
H63	H	-3.665193	-0.041602	-0.811640
O64	O	-4.320556	-0.190011	-0.852752
C65	C	-4.593836	-0.199033	-0.979396
C66	C	-4.360769	-0.189769	-0.941539
H67	H	-4.626427	-0.198858	-1.051188
H68	H	-4.651110	-0.147023	-0.948592
H69	H	-4.676537	-0.258141	-0.966434
H70	H	-4.277900	-0.130692	-0.954490
H71	H	-4.303652	-0.241823	-0.972346
O72	O	-3.711139	-0.701653	-0.248195
C73	C	-3.438114	-0.592479	-0.170672
C74	C	-3.650476	-0.642547	-0.174946
H75	H	-3.388983	-0.544692	-0.111446
H76	H	-3.447111	-0.562268	-0.230066
H77	H	-3.320958	-0.633459	-0.167316
H78	H	-3.767747	-0.601623	-0.178274
H79	H	-3.641310	-0.672768	-0.115553
O80	O	-4.268808	-0.033640	-0.826373
C81	C	-4.530598	0.032464	-0.898432
C82	C	-4.298910	0.036342	-0.862200
H83	H	-4.555007	0.089030	-0.927423
H84	H	-4.611992	0.027923	-0.844975
H85	H	-4.596317	-0.022470	-0.949777
H86	H	-4.233009	0.091272	-0.810867
H87	H	-4.217661	0.040840	-0.915705
H88	H	-4.068222	-0.236972	-0.849564
H89	H	-3.516931	-0.483482	-0.247115
H90	H	-3.705642	-0.150510	-0.830704
H91	H	-4.224776	-0.188773	-0.702757
O92	O	-3.994194	-0.248016	-0.701420
C93	C	-3.875148	-0.324243	-0.590350
C94	C	-3.964185	-0.249784	-0.613167
H95	H	-3.850900	-0.325705	-0.519000
H96	H	-3.721784	-0.321407	-0.607684
H97	H	-3.986996	-0.380775	-0.627498
H98	H	-3.852492	-0.193214	-0.576032
H99	H	-4.117585	-0.252690	-0.595854
O100	O	-3.968550	0.040561	-0.810214
C101	C	-3.743117	0.168049	-0.750681
C102	C	-3.851454	0.087820	-0.732614
H103	H	-3.648385	0.206273	-0.687956
H104	H	-3.863070	0.201407	-0.783967
H105	H	-3.637575	0.155833	-0.793513
H106	H	-3.956989	0.099964	-0.689761
H107	H	-3.731391	0.054487	-0.699370
H108	H	-3.906370	0.028252	-0.662195
H109	H	-4.163928	-0.028727	-0.675181
H110	H	-4.174932	-0.498181	-0.262368
H111	H	-4.441884	-0.873944	-0.262845
