data_functionalizedCrystal
_audit_creation_method	'MofGen! by Chris Wilmer'
_symmetry_space_group_name_H-M	'P1'
_symmetry_Int_Tables_number	1
_symmetry_cell_setting	triclinic
loop_
_symmetry_equiv_pos_as_xyz
  x,y,z
_cell_length_a	10.540539
_cell_length_b	14.519709
_cell_length_c	9.616153
_cell_angle_alpha	89.996797
_cell_angle_beta	89.995174
_cell_angle_gamma	84.102818
loop_
_atom_site_label
_atom_site_type_symbol
_atom_site_fract_x
_atom_site_fract_y
_atom_site_fract_z
O1	O	-1.684565	-0.129964	0.115583
O2	O	-1.184565	0.370036	0.615583
O3	O	-1.315027	-0.142209	0.115601
O4	O	-0.815027	0.357791	0.615601
O5	O	-1.509594	-0.001901	0.115579
O6	O	-1.009594	0.498099	0.615579
O7	O	-1.489999	-0.270272	0.115605
O8	O	-0.989999	0.229728	0.615605
O9	O	-1.509568	-0.001904	-0.115712
O10	O	-1.009568	0.498096	0.384288
O11	O	-1.315001	-0.142212	-0.115690
O12	O	-0.815001	0.357788	0.384310
O13	O	-1.684539	-0.129967	-0.115708
O14	O	-1.184539	0.370033	0.384292
Zn15	Zn	-1.499765	-0.136090	-0.152422
Zn16	Zn	-0.999765	0.363910	0.347578
Zn17	Zn	-1.499801	-0.136086	0.152315
Zn18	Zn	-0.999801	0.363914	0.652315
O19	O	-1.489972	-0.270275	-0.115686
O20	O	-0.989972	0.229725	0.384314
C21	C	-1.267720	-0.141293	-0.000043
C22	C	-0.767720	0.358707	0.499957
C23	C	-1.126800	-0.138545	-0.000036
C24	C	-0.626800	0.361455	0.499964
C25	C	-1.508668	0.032462	-0.000067
C26	C	-1.008668	0.532462	0.499933
C27	C	-1.505931	0.134858	-0.000067
C28	C	-1.005931	0.634858	0.499933
C29	C	-1.731846	-0.130884	-0.000061
C30	C	-1.231846	0.369116	0.499939
C31	C	-1.872766	-0.133631	-0.000058
C32	C	-1.372766	0.366369	0.499942
C33	C	-0.944448	-0.033266	-0.000587
C34	C	-0.444448	0.466734	0.499413
C35	C	-1.091038	-0.036051	-0.000051
C36	C	-0.591038	0.463949	0.499949
C37	C	-1.064640	-0.187868	0.132042
C38	C	-0.564640	0.312132	0.632042
C39	C	-0.918131	-0.184370	0.132138
C40	C	-0.418131	0.315630	0.632138
C41	C	-0.917591	-0.186458	-0.130884
C42	C	-0.417591	0.313542	0.369116
C43	C	-1.064563	-0.187402	-0.132615
C44	C	-0.564563	0.312598	0.367385
C45	C	-1.490899	-0.304639	-0.000037
C46	C	-0.990899	0.195361	0.499963
C47	C	-1.493635	-0.407035	-0.000028
C48	C	-0.993635	0.092965	0.499972
N49	N	-1.499751	-0.136092	-0.360396
N50	N	-0.999751	0.363908	0.139604
C51	C	-1.495856	0.509808	-0.000031
C52	C	-0.995856	1.009808	0.499969
C53	C	-1.498654	0.405485	-0.000041
C54	C	-0.998654	0.905485	0.499959
C55	C	-1.500893	0.322337	-0.000050
C56	C	-1.000893	0.822337	0.499950
C57	C	-1.503692	0.218007	-0.000058
C58	C	-1.003692	0.718007	0.499942
C59	C	-1.395358	-0.210896	-0.580755
C60	C	-0.895358	0.289104	-0.080755
C61	C	-1.395583	-0.211176	-0.419587
C62	C	-0.895583	0.288824	0.080413
C63	C	-1.632251	-0.157984	-0.418850
C64	C	-1.132251	0.342016	0.081150
C65	C	-1.631681	-0.158513	-0.580067
C66	C	-1.131681	0.341487	-0.080067
C67	C	-1.472968	-0.039152	-0.580316
C68	C	-0.972968	0.460848	-0.080316
C69	C	-1.469915	-0.039780	-0.419089
C70	C	-0.969915	0.460220	0.080911
N71	N	-1.499825	-0.136077	0.360289
N72	N	-0.999825	0.363923	0.860289
H73	H	-1.134037	0.002759	-0.094731
H74	H	-0.634037	0.502759	0.405269
Br75	Br	-1.230682	-0.189265	-0.645395
Br76	Br	-0.730682	0.310735	-0.145395
H77	H	-1.711857	-0.106214	-0.619064
H78	H	-1.211857	0.393786	-0.119064
H79	H	-1.412748	-0.283086	-0.381001
H80	H	-0.912748	0.216914	0.118999
H81	H	-1.541038	0.018571	-0.378802
H82	H	-1.041038	0.518571	0.121198
Br83	Br	-0.836918	-0.307224	0.142141
Br84	Br	-0.336918	0.192776	0.642141
Br85	Br	-0.871743	-0.123608	0.296682
Br86	Br	-0.371743	0.376392	0.796682
H87	H	-1.711847	-0.104977	-0.380505
H88	H	-1.211847	0.395023	0.119495
Br89	Br	-0.897470	0.034223	-0.158465
Br90	Br	-0.397470	0.534223	0.341535
H91	H	-1.086225	-0.263137	0.136963
H92	H	-0.586225	0.236863	0.636963
Br93	Br	-0.894798	0.033949	0.156383
Br94	Br	-0.394798	0.533949	0.656383
Br95	Br	-1.672568	-0.274512	-0.351524
Br96	Br	-1.172568	0.225488	0.148476
Br97	Br	-1.671071	-0.276373	-0.642716
Br98	Br	-1.171071	0.223627	-0.142716
H99	H	-1.378444	-0.018317	-0.621050
H100	H	-0.878444	0.481683	-0.121050
H101	H	-0.869608	-0.260489	-0.131769
H102	H	-0.369608	0.239511	0.368231
Br103	Br	-1.136219	-0.130761	0.295869
Br104	Br	-0.636219	0.369239	0.795869
Br105	Br	-1.161259	0.028804	0.158291
Br106	Br	-0.661259	0.528804	0.658291
Br107	Br	-1.133252	-0.127242	-0.295475
Br108	Br	-0.633252	0.372758	0.204525
H109	H	-0.886371	-0.153290	-0.230998
H110	H	-0.386371	0.346710	0.269002
Br111	Br	-1.103657	-0.311955	-0.145896
Br112	Br	-0.603657	0.188045	0.354104
Br113	Br	-1.231414	-0.189286	-0.353713
Br114	Br	-0.731414	0.310714	0.146287
H115	H	-1.549149	0.016536	-0.618440
H116	H	-1.049149	0.516536	-0.118440
H117	H	-1.412295	-0.282399	-0.621247
H118	H	-0.912295	0.217601	-0.121247
Br119	Br	-1.307458	-0.012119	-0.355421
Br120	Br	-0.807458	0.487881	0.144579
