data_functionalizedCrystal
_audit_creation_method	'MofGen! by Chris Wilmer'
_symmetry_space_group_name_H-M	'P1'
_symmetry_Int_Tables_number	1
_symmetry_cell_setting	triclinic
loop_
_symmetry_equiv_pos_as_xyz
  x,y,z
_cell_length_a	17.077404
_cell_length_b	16.625546
_cell_length_c	17.077396
_cell_angle_alpha	89.968950
_cell_angle_beta	89.982756
_cell_angle_gamma	90.022693
loop_
_atom_site_label
_atom_site_type_symbol
_atom_site_fract_x
_atom_site_fract_y
_atom_site_fract_z
Zn1	Zn	1.200039	-0.320990	-0.443833
Zn2	Zn	1.199953	-0.455835	-0.312563
Zn3	Zn	1.068776	-0.321020	-0.312581
Zn4	Zn	1.068740	-0.455785	-0.443787
O5	O	1.134377	-0.388408	-0.378191
O6	O	1.309875	-0.338886	-0.426432
O7	O	1.182531	-0.437985	-0.202719
O8	O	1.086240	-0.208184	-0.330019
O9	O	1.309811	-0.437956	-0.329988
O10	O	1.182679	-0.208162	-0.426449
O11	O	1.086156	-0.338937	-0.202732
O12	O	0.958925	-0.338889	-0.329974
O13	O	1.086178	-0.437871	-0.553640
O14	O	0.958898	-0.437900	-0.426370
O15	O	1.182643	-0.338837	-0.553674
O16	O	1.182496	-0.568661	-0.329943
O17	O	1.086094	-0.568624	-0.426353
C18	C	0.930429	-0.388393	-0.378169
C19	C	0.843180	-0.388406	-0.378179
C20	C	0.802196	-0.440039	-0.428292
C21	C	0.720216	-0.440041	-0.428304
C22	C	0.679220	-0.388413	-0.378199
C23	C	0.720209	-0.336775	-0.328084
C24	C	0.802188	-0.336769	-0.328076
C25	C	0.549339	-0.336790	-0.328103
C26	C	0.467355	-0.336797	-0.328110
C27	C	0.467367	-0.440062	-0.428331
C28	C	0.549346	-0.440057	-0.428323
C29	C	0.590329	-0.388419	-0.378207
C30	C	1.134303	-0.597898	-0.378158
C31	C	1.134343	-0.687520	-0.378170
C32	C	1.134480	-1.015695	-0.378252
C33	C	1.134439	-0.924387	-0.378232
C34	C	1.134411	-0.851610	-0.378211
C35	C	1.134371	-0.760296	-0.378191
C36	C	1.339121	-0.388423	-0.378213
C37	C	1.426371	-0.388429	-0.378223
C38	C	1.134417	-0.388345	-0.582936
C39	C	1.134433	-0.388319	-0.670185
C40	C	1.134473	-0.178099	-0.378241
C41	C	1.134514	-0.088478	-0.378263
C42	C	1.084266	-0.336738	-0.711182
C43	C	1.084279	-0.336720	-0.793162
C44	C	1.134464	-0.388278	-0.834145
C45	C	1.184633	-0.439864	-0.793143
C46	C	1.184615	-0.439886	-0.711164
C47	C	1.184667	-0.439814	-0.964013
C48	C	1.184685	-0.439791	-1.045998
C49	C	1.084331	-0.336648	-1.046011
C50	C	1.084313	-0.336670	-0.964032
C51	C	1.134484	-0.388255	-0.923036
C52	C	1.134383	-0.388412	-0.174243
C53	C	1.134518	-0.388211	-0.086994
H54	H	0.433978	-0.294747	-0.287319
H55	H	1.043452	-0.294682	-0.930667
C56	C	1.239797	-0.496623	-0.666064
H57	H	1.232594	-0.489258	-0.611371
H58	H	1.292549	-0.484827	-0.679505
H59	H	1.228279	-0.550795	-0.679485
C60	C	0.594420	-0.279987	-0.272979
H61	H	0.558265	-0.249245	-0.243134
H62	H	0.626423	-0.244893	-0.303066
H63	H	0.626376	-0.310788	-0.238716
C64	C	1.029056	-0.280030	-0.666108
H65	H	0.999174	-0.249315	-0.702268
H66	H	1.059085	-0.244906	-0.634136
H67	H	0.994832	-0.310891	-0.634121
H68	H	0.686850	-0.482086	-0.469111
H69	H	1.043425	-0.294721	-0.826538
H70	H	0.582722	-0.482101	-0.469119
H71	H	1.225490	-0.481848	-0.826517
H72	H	0.433994	-0.482105	-0.469140
H73	H	0.686824	-0.294735	-0.287291
H74	H	0.835569	-0.482083	-0.469091
C75	C	0.847270	-0.279972	-0.272953
H76	H	0.811115	-0.249229	-0.243109
H77	H	0.879272	-0.244879	-0.303043
H78	H	0.879228	-0.310771	-0.238690
H79	H	1.043481	-0.294644	-1.079395
C80	C	1.239891	-0.496499	-1.091077
H81	H	1.269764	-0.527229	-1.054922
H82	H	1.274113	-0.465643	-1.123064
H83	H	1.209853	-0.531620	-1.123050
H84	H	1.225528	-0.481813	-0.930636
