data_functionalizedCrystal
_audit_creation_method	'MofGen! by Chris Wilmer'
_symmetry_space_group_name_H-M	'P1'
_symmetry_Int_Tables_number	1
_symmetry_cell_setting	triclinic
loop_
_symmetry_equiv_pos_as_xyz
  x,y,z
_cell_length_a	27.440280
_cell_length_b	23.196402
_cell_length_c	23.196401
_cell_angle_alpha	60.008822
_cell_angle_beta	90.008388
_cell_angle_gamma	59.994614
loop_
_atom_site_label
_atom_site_type_symbol
_atom_site_fract_x
_atom_site_fract_y
_atom_site_fract_z
Zr1	Zr	0.469496	0.630945	-0.075648
O2	O	0.391662	0.751220	-0.167691
O3	O	0.493355	0.510676	-0.047435
O4	O	0.493333	0.630944	-0.167700
O5	O	0.391703	0.630952	0.047446
O6	O	0.573535	0.630934	-0.167704
O7	O	0.391684	0.630953	-0.047425
O8	O	0.573573	0.415798	0.047429
O9	O	0.391664	0.846088	-0.167687
O10	O	0.563386	0.560135	-0.035401
O11	O	0.503546	0.560141	0.035403
O12	O	0.503521	0.701740	-0.106194
O13	O	0.443682	0.701746	-0.035390
Zr14	Zr	0.597440	0.630928	0.075656
Zr15	Zr	0.597409	0.630930	-0.075653
Zr16	Zr	0.469527	0.630942	0.075661
Zr17	Zr	0.469500	0.782247	-0.075641
Zr18	Zr	0.597436	0.479625	0.075649
O19	O	0.573581	0.751196	0.047443
O20	O	0.573538	0.751200	-0.167699
O21	O	0.391706	0.751217	0.047451
O22	O	0.675274	0.510652	0.167699
O23	O	0.675230	0.510655	-0.047443
O24	O	0.493398	0.510673	0.167707
O25	O	0.675233	0.630921	-0.047438
O26	O	0.573603	0.630929	0.167709
O27	O	0.493401	0.630938	0.167712
O28	O	0.675252	0.630919	0.047434
O29	O	0.493338	0.846076	-0.167691
O30	O	0.573598	0.415797	0.167699
O31	O	0.675272	0.415785	0.167695
O32	O	0.675247	0.415787	0.047425
O33	O	0.391689	0.846086	-0.047416
O34	O	0.493362	0.846074	-0.047421
O35	O	0.563415	0.560133	0.106202
O36	O	0.623254	0.560127	0.035398
O37	O	0.563389	0.701732	-0.035395
O38	O	0.503550	0.701738	0.035409
C39	C	0.533463	0.441680	-0.000004
C40	C	0.533462	0.377448	-0.000007
C41	C	0.564694	0.347275	-0.036968
C42	C	0.564699	0.286914	-0.036963
C43	C	0.533462	0.256740	-0.000005
C44	C	0.502229	0.286917	0.036965
C45	C	0.502229	0.347272	0.036964
C46	C	0.481128	0.194717	-0.005277
C47	C	0.481126	0.134367	-0.005281
C48	C	0.533463	0.070585	0.000002
C49	C	0.585800	0.067167	0.005276
C50	C	0.585800	0.127521	0.005275
C51	C	0.533459	0.191296	0.000001
C52	C	0.564703	-0.025039	-0.036955
C53	C	0.564711	-0.085405	-0.036944
C54	C	0.502235	-0.085394	0.036979
C55	C	0.502233	-0.025036	0.036973
C56	C	0.533466	0.005141	0.000002
C57	C	0.373468	0.630955	0.000011
C58	C	0.319166	0.630961	0.000013
C59	C	-0.017542	0.630919	-0.052262
C60	C	-0.068560	0.630913	-0.052263
O61	O	-0.094944	0.630883	-0.096698
N62	N	-0.094067	0.630914	0.000002
C63	C	-0.068551	0.630912	0.052274
O64	O	-0.094931	0.630911	0.096730
C65	C	-0.017531	0.630912	0.052277
C66	C	0.007970	0.630920	0.000005
C67	C	0.007959	0.630926	-0.104530
C68	C	0.058973	0.630933	-0.104530
C69	C	0.084485	0.630934	-0.052263
C70	C	0.058984	0.630927	0.000005
C71	C	0.007987	0.630904	0.104552
C72	C	0.059010	0.630904	0.104550
C73	C	0.084511	0.630911	0.052278
C74	C	0.135510	0.630935	0.052272
N75	N	0.161017	0.630934	0.000007
C76	C	0.135505	0.630934	-0.052260
C77	C	-0.175694	0.630911	0.052265
C78	C	-0.226715	0.630917	0.052260
C79	C	-0.226721	0.630916	-0.052276
C80	C	-0.175701	0.630916	-0.052273
C81	C	-0.150187	0.630910	0.000001
C82	C	0.242637	0.630950	-0.052257
C83	C	0.293654	0.630960	-0.052254
C84	C	0.293656	0.630956	0.052284
C85	C	0.242642	0.630950	0.052280
C86	C	0.217135	0.630944	0.000006
O87	O	0.161927	0.630961	0.096686
O88	O	0.161896	0.630924	-0.096703
C89	C	0.693467	0.630918	-0.000003
C90	C	0.747770	0.630912	-0.000005
C91	C	0.533430	0.630939	-0.189260
C92	C	0.533417	0.630940	-0.253495
C93	C	0.533472	0.820193	0.000012
C94	C	0.533474	0.884424	0.000015
C95	C	0.502171	0.704854	-0.320621
C96	C	0.502186	0.704855	-0.380976
C97	C	0.533439	0.630938	-0.374201
C98	C	0.564692	0.557014	-0.307063
C99	C	0.564680	0.557015	-0.246710
C100	C	0.528999	0.574311	-0.441521
C101	C	0.529006	0.574313	-0.501874
C102	C	0.533477	0.630932	-0.560349
C103	C	0.537928	0.687563	-0.558469
C104	C	0.537917	0.687564	-0.498116
C105	C	0.533455	0.630929	-0.439640
C106	C	0.502246	0.704852	-0.692922
C107	C	0.502265	0.704850	-0.753277
C108	C	0.564767	0.557007	-0.679361
C109	C	0.564751	0.557011	-0.619008
C110	C	0.533488	0.630936	-0.625793
C111	C	0.533506	0.630933	0.189269
C112	C	0.533519	0.630932	0.253503
C113	C	0.693463	0.441662	-0.000011
C114	C	0.747764	0.377423	-0.000016
C115	C	0.533502	0.441677	0.189260
C116	C	0.533513	0.377444	0.253492
C117	C	0.693501	0.441659	0.189254
C118	C	0.747815	0.377420	0.253483
C119	C	0.373434	0.820214	-0.189245
C120	C	0.319121	0.884453	-0.253475
C121	C	0.373473	0.820211	0.000019
C122	C	0.319172	0.884449	0.000024
C123	C	0.533434	0.820195	-0.189252
C124	C	0.533423	0.884428	-0.253484
C125	C	0.742014	0.347261	-0.036981
C126	C	0.793030	0.286911	-0.037000
C127	C	0.849797	0.256720	-0.000049
C128	C	0.855546	0.286889	0.036917
C129	C	0.804530	0.347242	0.036931
C130	C	0.564769	0.347276	0.320619
C131	C	0.564778	0.286931	0.380977
C132	C	0.533533	0.256751	0.374208
C133	C	0.502274	0.286926	0.307074
C134	C	0.502262	0.347274	0.246717
C135	C	0.804563	0.347249	0.246687
C136	C	0.855601	0.286898	0.307032
C137	C	0.849891	0.256714	0.374172
C138	C	0.793138	0.286891	0.380966
C139	C	0.742100	0.347245	0.320622
C140	C	0.262373	0.914631	-0.246679
C141	C	0.211335	0.975001	-0.307023
C142	C	0.217045	1.005187	-0.374163
C143	C	0.273798	0.975007	-0.380958
C144	C	0.324835	0.914643	-0.320614
C145	C	0.324922	0.914618	0.036983
C146	C	0.273906	0.974985	0.036985
C147	C	0.217139	1.005178	0.000032
C148	C	0.211390	0.975006	-0.036931
C149	C	0.262406	0.914644	-0.036937
C150	C	0.564673	0.914589	-0.246692
C151	C	0.564674	0.974934	-0.307038
C152	C	0.533420	1.005122	-0.374177
C153	C	0.502169	0.974956	-0.380968
C154	C	0.502172	0.914607	-0.320622
H155	H	0.628416	0.124734	0.009570
Br156	Br	0.281722	1.015917	0.087155
H157	H	0.628420	0.015229	0.009586
H158	H	0.476722	0.890058	-0.326162
H159	H	0.533548	0.207612	0.423360
H160	H	0.788497	0.262306	0.435640
Br161	Br	0.401848	0.873690	-0.329850
Br162	Br	0.607093	0.015914	-0.087123
Br163	Br	0.812345	0.388166	0.087107
Br164	Br	0.281537	1.015982	-0.472083
Br165	Br	0.459751	1.015941	-0.472090
H166	H	0.695796	0.371841	-0.067079
Br167	Br	0.607099	-0.126354	-0.087113
H168	H	0.590235	0.262370	0.435634
H169	H	0.590127	0.371841	-0.067070
Br170	Br	0.147908	1.087098	0.000048
Br171	Br	0.919027	0.174811	-0.000076
H172	H	0.476835	0.262344	0.301572
H173	H	0.590121	0.999489	-0.301495
Br174	Br	0.522989	0.497413	-0.362140
Br175	Br	0.254591	0.873704	-0.087096
Br176	Br	0.401956	0.873658	0.087137
Br177	Br	0.134345	1.015988	-0.087076
Br178	Br	0.459841	-0.126339	0.087138
Br179	Br	0.093579	0.630937	-0.175470
H180	H	0.257712	0.890056	-0.192015
H181	H	0.590212	0.371841	0.326144
H182	H	0.901807	0.262335	0.301487
Br183	Br	0.459841	0.388206	0.155619
H184	H	0.476740	0.765047	-0.435641
Br185	Br	0.812329	0.388204	0.155576
Br186	Br	0.134320	1.015945	-0.297785
H187	H	0.590133	0.262342	-0.067062
H188	H	0.533423	1.054262	-0.423309
H189	H	0.891454	0.207570	0.423302
Br190	Br	0.665088	0.388180	0.329859
Br191	Br	0.147773	1.087112	-0.456053
Br192	Br	0.932590	0.245905	0.087063
H193	H	-0.154941	0.630922	-0.094838
Br194	Br	0.785214	0.245979	-0.087170
Br195	Br	0.459842	0.388222	0.087132
H196	H	0.590123	0.890019	-0.192030
H197	H	0.476798	-0.000465	0.067068
Br198	Br	0.543993	0.764411	-0.637824
H199	H	0.590193	0.496822	-0.564350
Br200	Br	0.410093	0.281275	-0.012447
Br201	Br	0.459843	0.245960	0.087131
Br202	Br	0.410096	0.139015	-0.012444
H203	H	0.221875	0.630943	-0.094822
Br204	Br	0.328258	0.630975	-0.123202
Br205	Br	-0.026655	0.630923	-0.175472
H206	H	-0.247480	0.630923	0.094819
Br207	Br	-0.261355	0.630915	-0.123210
Br208	Br	-0.141076	0.630910	0.123212
Br209	Br	0.459726	0.805180	-0.329831
H210	H	-0.012769	0.630898	0.147117
H211	H	0.079783	0.630896	0.147121
H212	H	0.221874	0.630956	0.094839
Br213	Br	0.607111	0.456697	-0.297866
H214	H	0.314435	0.630960	0.094838
H215	H	0.476789	0.765046	-0.698447
Br216	Br	0.543957	0.764416	-0.495565
Br217	Br	0.459861	0.805171	-0.844382
Br218	Br	0.522956	0.497466	-0.504423
Br219	Br	0.607193	0.456689	-0.670158
H220	H	0.590125	0.496824	-0.192051
