data_functionalizedCrystal
_audit_creation_method	'MofGen! by Chris Wilmer'
_symmetry_space_group_name_H-M	'P1'
_symmetry_Int_Tables_number	1
_symmetry_cell_setting	triclinic
loop_
_symmetry_equiv_pos_as_xyz
  x,y,z
_cell_length_a	19.902436
_cell_length_b	20.875641
_cell_length_c	20.875643
_cell_angle_alpha	119.909987
_cell_angle_beta	89.996833
_cell_angle_gamma	62.436880
loop_
_atom_site_label
_atom_site_type_symbol
_atom_site_fract_x
_atom_site_fract_y
_atom_site_fract_z
Zr1	Zr	0.678074	0.694274	0.105717
O2	O	0.579603	0.820525	0.208989
O3	O	0.704577	0.563016	0.070784
O4	O	0.714472	0.687038	0.204255
O5	O	0.566093	0.703957	-0.026041
O6	O	0.825050	0.687027	0.204246
O7	O	0.569708	0.696503	0.075518
O8	O	0.807349	0.465174	-0.034510
O9	O	0.583794	0.925810	0.212715
O10	O	0.802854	0.618851	0.059835
O11	O	0.717634	0.624422	-0.015950
O12	O	0.729284	0.770442	0.141195
O13	O	0.644063	0.776014	0.065409
Zr14	Zr	0.848669	0.706144	-0.056271
Zr15	Zr	0.854434	0.694256	0.105703
Zr16	Zr	0.672310	0.706163	-0.056257
Zr17	Zr	0.684759	0.862191	0.111659
Zr18	Zr	0.841985	0.538227	-0.062213
O19	O	0.822167	0.837402	-0.021338
O20	O	0.830363	0.820498	0.208969
O21	O	0.571407	0.837429	-0.021318
O22	O	0.947140	0.579893	-0.159543
O23	O	0.955337	0.562990	0.070764
O24	O	0.696380	0.579920	-0.159523
O25	O	0.960650	0.696461	0.075487
O26	O	0.812271	0.713380	-0.154809
O27	O	0.701693	0.713392	-0.154800
O28	O	0.957035	0.703915	-0.026072
O29	O	0.723976	0.925795	0.212704
O30	O	0.802767	0.474624	-0.163258
O31	O	0.942949	0.474609	-0.163269
O32	O	0.947531	0.465159	-0.034521
O33	O	0.579212	0.935259	0.083966
O34	O	0.719394	0.935244	0.083955
O35	O	0.797459	0.629976	-0.091749
O36	O	0.882680	0.624405	-0.015963
O37	O	0.809110	0.775996	0.065396
O38	O	0.723889	0.781568	-0.010389
C39	C	0.755011	0.490171	0.017290
C40	C	0.752173	0.418886	0.014768
C41	C	0.542773	0.700233	0.024740
C42	C	0.467904	0.700241	0.024746
C43	C	0.795322	0.382487	0.053142
C44	C	0.792657	0.315503	0.050765
C45	C	0.746839	0.284923	0.010017
C46	C	0.703689	0.321324	-0.028362
C47	C	0.706358	0.388303	-0.025989
C48	C	0.734089	0.084913	-0.001328
C49	C	0.731421	0.017931	-0.003696
C50	C	0.820392	0.012114	0.075430
C51	C	0.823053	0.079097	0.077803
C52	C	0.779906	0.115490	0.039421
N53	N	0.744112	0.216456	0.007588
N54	N	0.782638	0.183951	0.041846
C55	C	0.195899	0.700198	0.024715
C56	C	0.177972	0.795842	0.075809
C57	C	0.255822	0.795885	0.076076
C58	C	0.330844	0.700220	0.024731
C59	C	0.327714	0.648428	0.057854
C60	C	0.249524	0.649036	0.058228
C61	C	0.246241	0.655639	-0.059549
C62	C	0.323241	0.657493	-0.059356
C63	C	0.407111	0.700227	0.024739
C64	C	0.119634	0.700188	0.024710
C65	C	0.983970	0.700186	0.024706
C66	C	1.058839	0.700178	0.024700
C67	C	0.770582	0.685339	0.227328
C68	C	0.773029	0.680292	0.296091
C69	C	0.771733	0.910248	0.032155
C70	C	0.774570	0.981533	0.034678
C71	C	0.735778	0.757048	0.370864
C72	C	0.738087	0.752301	0.435471
C73	C	0.777645	0.670796	0.425303
C74	C	0.814901	0.594034	0.350521
C75	C	0.812596	0.598783	0.285916
C76	C	0.788662	0.648111	0.613968
C77	C	0.790963	0.643368	0.678581
C78	C	0.714149	0.801635	0.763526
C79	C	0.711844	0.806376	0.698915
C80	C	0.749104	0.729614	0.624140
N81	N	0.780004	0.665942	0.491340
N82	N	0.746748	0.734469	0.558104
C83	C	0.756160	0.715079	0.822117
C84	C	0.753711	0.720124	0.753354
C85	C	0.975609	0.490147	0.017273
C86	C	1.047641	0.418854	0.014745
C87	C	0.747800	0.505041	-0.185315
C88	C	0.742515	0.438803	-0.256600
C89	C	0.968399	0.505018	-0.185332
C90	C	1.037983	0.438771	-0.256623
C91	C	0.558345	0.895401	0.234778
C92	C	0.488761	0.961647	0.306069
C93	C	0.551134	0.910271	0.032173
C94	C	0.479103	0.981564	0.034701
C95	C	0.778943	0.895377	0.234761
C96	C	0.784228	0.961615	0.306046
C97	C	1.039799	0.382474	0.053130
C98	C	1.107475	0.315495	0.050770
C99	C	1.182990	0.284892	0.010019
C100	C	1.190830	0.321279	-0.028367
C101	C	1.123156	0.388261	-0.026002
C102	C	0.781701	0.410596	-0.329649
C103	C	0.776733	0.348368	-0.396635
C104	C	0.732582	0.314343	-0.390570
C105	C	0.693391	0.342556	-0.317513
C106	C	0.698356	0.404787	-0.250529
C107	C	1.115152	0.404753	-0.250543
C108	C	1.180541	0.342517	-0.317522
C109	C	1.168759	0.314295	-0.390580
C110	C	1.091582	0.348320	-0.396659
C111	C	1.026195	0.410560	-0.329681
C112	C	0.411592	0.995673	0.299989
C113	C	0.346203	1.057931	0.366968
C114	C	0.357985	1.086156	0.440027
C115	C	0.435162	1.052127	0.446106
C116	C	0.500549	0.989875	0.379127
C117	C	0.486944	1.017951	-0.003677
C118	C	0.419270	1.084947	-0.001299
C119	C	0.343755	1.115552	0.039455
C120	C	0.335915	1.079162	0.077838
C121	C	0.403589	1.012172	0.075463
C122	C	0.828385	0.995621	0.299956
C123	C	0.833366	1.057850	0.366929
C124	C	0.794185	1.086078	0.439992
C125	C	0.750026	1.052066	0.446080
C126	C	0.745050	0.989833	0.379107
H127	H	0.832628	0.407385	0.086327
N128	N	0.693118	0.844955	0.381831
H129	H	0.649020	0.850461	0.356927
H130	H	0.669923	0.892808	0.439017
N131	N	1.255975	0.212647	0.007475
H132	H	1.252982	0.158727	-0.017004
H133	H	1.304970	0.198848	-0.024149
N134	N	0.828826	0.565320	0.533325
H135	H	0.821366	0.580688	0.493937
H136	H	0.887430	0.529920	0.526059
N137	N	0.673978	0.884428	0.844171
H138	H	0.615358	0.919858	0.851504
H139	H	0.681499	0.868991	0.883511
H140	H	0.728546	0.263671	-0.445119
N141	N	0.267102	0.562366	-0.110164
H142	H	0.326781	0.521427	-0.130713
H143	H	0.244027	0.549080	-0.078662
H144	H	0.978318	0.407389	0.086323
H145	H	0.548427	0.993038	-0.036868
H146	H	1.124760	0.427721	-0.191061
H147	H	1.243376	0.314819	-0.312558
N148	N	1.272284	0.288260	-0.072318
H149	H	1.299288	0.223942	-0.114503
H150	H	1.266931	0.321524	-0.096232
H151	H	1.101076	0.285877	0.082029
H152	H	0.425669	1.114564	-0.032558
H153	H	0.707755	0.814804	0.496353
H154	H	0.657444	0.314844	-0.312586
H155	H	0.210155	0.689500	-0.087551
H156	H	0.666448	0.427744	-0.191052
N157	N	0.270769	1.187794	0.041996
H158	H	0.221736	1.201663	0.073633
H159	H	0.273827	1.241670	0.066454
N160	N	0.254463	1.112162	0.121776
H161	H	0.212788	1.160114	0.117444
H162	H	0.245179	1.062528	0.099177
N163	N	0.819010	0.317937	-0.475427
H164	H	0.798243	0.369489	-0.479664
H165	H	0.877940	0.290566	-0.482412
N166	N	0.395129	0.972915	0.116846
H167	H	0.424272	0.981637	0.157074
H168	H	0.337005	1.002487	0.142971
N169	N	0.857574	0.506124	0.339549
H170	H	0.853381	0.514762	0.391822
H171	H	0.832514	0.472401	0.309712
N172	N	0.583779	0.953161	0.385693
H173	H	0.623420	0.909437	0.332181
H174	H	0.593353	1.002213	0.416075
N175	N	0.880997	1.094522	0.360344
H176	H	0.858483	1.124409	0.332791
H177	H	0.878202	1.138189	0.413875
H178	H	0.376452	0.587959	-0.100356
H179	H	0.216533	0.679568	0.120155
H180	H	0.304736	1.136845	0.494559
N181	N	0.872487	0.112058	0.121744
H182	H	0.914082	0.103056	0.085041
H183	H	0.837026	0.176364	0.163944
N184	N	0.447864	1.082573	0.524907
H185	H	0.394727	1.127168	0.566408
H186	H	0.477138	1.030981	0.529086
N187	N	0.852779	0.515997	0.205265
H188	H	0.878188	0.463643	0.208625
H189	H	0.812069	0.514521	0.176611
H190	H	0.679634	0.872745	0.707204
H191	H	1.082001	0.325332	-0.456152
H192	H	0.963362	0.438249	-0.334642
N193	N	1.131619	0.427493	-0.067409
H194	H	1.189728	0.397936	-0.093583
H195	H	1.102437	0.418750	-0.107600
H196	H	0.694107	-0.006963	-0.036878
H197	H	0.823174	0.576994	0.670292
N198	N	0.829326	0.447285	-0.336202
H199	H	0.853389	0.419968	-0.392647
H200	H	0.793341	0.512685	-0.308733
H201	H	0.698959	0.114533	-0.032585
H202	H	0.323366	0.695302	-0.084132
H203	H	1.222009	0.263615	-0.445112
H204	H	0.283369	1.085627	0.362004
H205	H	0.401983	0.972696	0.240507
N206	N	0.870648	0.965185	0.221158
H207	H	0.899377	0.996174	0.227474
H208	H	0.910259	0.900037	0.190246
H209	H	0.798243	1.136752	0.494519
H210	H	0.709090	0.962152	0.384077
N211	N	0.839195	0.276245	0.092155
H212	H	0.868621	0.305786	0.118333
H213	H	0.801517	0.284986	0.132341
N214	N	0.866924	-0.027135	0.116828
H215	H	0.858282	-0.074205	0.109144
H216	H	0.925323	-0.053357	0.095071
H217	H	0.718127	1.075058	0.505577
H218	H	0.671220	0.417940	-0.057235
N219	N	0.654276	0.288334	-0.072315
H220	H	0.612680	0.297334	-0.035615
H221	H	0.627401	0.321570	-0.096266
N222	N	0.255222	0.849296	0.046885
H223	H	0.204265	0.873028	0.033732
H224	H	0.259014	0.899422	0.088370
H225	H	0.141754	0.830123	0.137650
N226	N	0.127043	0.849647	0.046815
H227	H	0.075052	0.852312	0.049084
H228	H	0.116299	0.910748	0.080414
N229	N	0.258373	0.841450	0.158487
H230	H	0.256677	0.809582	0.181679
H231	H	0.309010	0.841670	0.158961
N232	N	0.269778	0.555847	0.011878
H233	H	0.329413	0.514555	-0.008704
H234	H	0.246696	0.545437	0.046221
H235	H	0.332765	0.678208	0.119175
N236	N	0.397568	0.555044	0.010743
H237	H	0.431998	0.545390	-0.032628
H238	H	0.429759	0.543128	0.045179
