data_functionalizedCrystal
_audit_creation_method	'MofGen! by Chris Wilmer'
_symmetry_space_group_name_H-M	'P1'
_symmetry_Int_Tables_number	1
_symmetry_cell_setting	triclinic
loop_
_symmetry_equiv_pos_as_xyz
  x,y,z
_cell_length_a	19.188925
_cell_length_b	19.188930
_cell_length_c	9.198806
_cell_angle_alpha	89.991701
_cell_angle_beta	89.995113
_cell_angle_gamma	83.143665
loop_
_atom_site_label
_atom_site_type_symbol
_atom_site_fract_x
_atom_site_fract_y
_atom_site_fract_z
O1	O	0.926147	0.087148	-0.120940
O2	O	1.426147	0.587148	0.379060
O3	O	0.722835	0.098886	-0.120938
O4	O	1.222835	0.598886	0.379062
O5	O	0.830358	-0.008639	-0.120911
O6	O	1.330358	0.491361	0.379089
O7	O	0.818624	0.194673	-0.120967
O8	O	1.318624	0.694673	0.379033
O9	O	0.830350	-0.008639	0.120874
O10	O	1.330350	0.491361	0.620874
O11	O	0.722827	0.098886	0.120847
O12	O	1.222827	0.598886	0.620847
O13	O	0.926138	0.087148	0.120845
O14	O	1.426138	0.587148	0.620845
Cu15	Cu	0.824482	0.093017	0.142923
Cu16	Cu	1.324482	0.593017	0.642923
Cu17	Cu	0.824492	0.093017	-0.143016
Cu18	Cu	1.324492	0.593017	0.356984
O19	O	0.818615	0.194673	0.120818
O20	O	1.318615	0.694673	0.620818
C21	C	0.696820	0.098507	-0.000045
C22	C	1.196820	0.598507	0.499955
C23	C	0.619315	0.097367	-0.000043
C24	C	1.119315	0.597367	0.499957
C25	C	0.057545	0.152831	-0.000062
C26	C	0.557545	0.652831	0.499938
C27	C	0.130368	0.153908	-0.000070
C28	C	0.630368	0.653908	0.499930
C29	C	0.175302	0.090816	-0.000050
C30	C	0.675302	0.590816	0.499950
C31	C	0.147408	0.026642	-0.000059
C32	C	0.647408	0.526642	0.499941
C33	C	0.074586	0.025568	-0.000065
C34	C	0.574586	0.525568	0.499935
N35	N	0.295977	0.045139	0.082268
N36	N	0.795977	0.545139	0.582268
N37	N	0.365154	0.046165	0.082277
N38	N	0.865154	0.546165	0.582277
C39	C	0.394712	0.094050	-0.000034
C40	C	0.894712	0.594050	0.499966
N41	N	0.352477	0.140882	-0.082336
N42	N	0.852477	0.640882	0.417664
N43	N	0.283293	0.139858	-0.082339
N44	N	0.783293	0.639858	0.417661
C45	C	0.254267	0.091974	-0.000044
C46	C	0.754267	0.591974	0.499956
C47	C	0.501561	0.159386	-0.000044
C48	C	1.001561	0.659386	0.499956
C49	C	0.574385	0.160460	-0.000061
C50	C	1.074385	0.660460	0.499939
C51	C	0.591425	0.033193	-0.000035
C52	C	1.091425	0.533193	0.499965
C53	C	0.518601	0.032121	-0.000033
C54	C	1.018601	0.532121	0.499967
C55	C	0.473673	0.095220	-0.000030
C56	C	0.973673	0.595220	0.499970
C57	C	0.829974	-0.034650	-0.000014
C58	C	1.329974	0.465350	0.499986
C59	C	0.828833	-0.112154	-0.000002
C60	C	1.328833	0.387846	0.499998
C61	C	0.891924	-0.157079	0.000005
C62	C	1.391924	0.342921	0.500005
C63	C	0.890852	-0.229903	-0.000018
C64	C	1.390852	0.270097	0.499982
C65	C	0.826686	-0.257799	-0.000019
C66	C	1.326686	0.242201	0.499981
C67	C	0.763587	-0.212864	-0.000033
C68	C	1.263587	0.287136	0.499967
C69	C	0.764660	-0.140041	-0.000025
C70	C	1.264660	0.359959	0.499975
N71	N	0.777636	-0.365803	0.082266
N72	N	1.277636	0.134197	0.582266
N73	N	0.776620	-0.434981	0.082260
N74	N	1.276620	0.065019	0.582260
C75	C	0.823448	-0.477207	-0.000048
C76	C	1.323448	0.022793	0.499952
N77	N	0.871340	-0.447643	-0.082333
N78	N	1.371340	0.052357	0.417667
N79	N	0.872358	-0.378458	-0.082322
N80	N	1.372358	0.121542	0.417678
C81	C	0.825515	-0.336761	-0.000029
C82	C	1.325515	0.163239	0.499971
C83	C	0.885381	-0.601097	-0.000069
C84	C	1.385381	-0.101097	0.499931
C85	C	0.884307	-0.673922	-0.000101
C86	C	1.384307	-0.173922	0.499899
C87	C	0.757040	-0.656880	-0.000102
C88	C	1.257040	-0.156880	0.499898
C89	C	0.758116	-0.584057	-0.000084
C90	C	1.258116	-0.084057	0.499916
C91	C	0.822289	-0.556170	-0.000061
C92	C	1.322289	-0.056170	0.499939
C93	C	0.952154	0.087527	-0.000051
C94	C	1.452154	0.587527	0.499949
C95	C	1.029658	0.088666	-0.000063
C96	C	1.529658	0.588666	0.499937
C97	C	0.819000	0.220684	-0.000082
C98	C	1.319000	0.720684	0.499918
C99	C	0.820140	0.298188	-0.000104
C100	C	1.320140	0.798188	0.499896
N101	N	0.824480	0.093016	0.344037
N102	N	1.324480	0.593016	0.844037
N103	N	0.824499	0.093012	-0.344130
N104	N	1.324499	0.593012	0.155870
C105	C	0.869628	0.047673	0.416245
C106	C	1.369628	0.547673	0.916245
C107	C	0.869639	0.047670	0.583658
C108	C	1.369639	0.547670	1.083658
H109	H	0.020968	0.204211	-0.000067
H110	H	0.520968	0.704211	0.499933
Cl111	Cl	0.764808	0.152948	0.439932
Cl112	Cl	1.264808	0.652948	0.939932
H113	H	0.942230	-0.266488	-0.000019
H114	H	1.442230	0.233512	0.499981
Cl115	Cl	0.963629	-0.730401	-0.000103
Cl116	Cl	1.463629	-0.230401	0.499897
H117	H	0.944179	-0.134379	0.000019
H118	H	1.444179	0.365621	0.500019
Cl119	Cl	0.039528	-0.055104	-0.000070
Cl120	Cl	0.539528	0.444896	0.499930
Cl121	Cl	0.445077	0.238709	-0.000046
Cl122	Cl	0.945077	0.738709	0.499954
H123	H	0.704794	-0.679592	-0.000110
H124	H	1.204794	-0.179592	0.499890
H125	H	0.153078	0.206160	-0.000056
H126	H	0.653078	0.706160	0.499944
Cl127	Cl	0.203896	-0.052674	-0.000040
Cl128	Cl	0.703896	0.447326	0.499960
H129	H	0.711342	-0.235581	-0.000037
H130	H	1.211342	0.264419	0.499963
H131	H	0.706740	-0.547478	-0.000081
H132	H	1.206740	-0.047478	0.499919
Cl133	Cl	0.647907	-0.046124	-0.000032
Cl134	Cl	1.147907	0.453876	0.499968
H135	H	0.908271	0.008851	0.354129
H136	H	1.408271	0.508851	0.854129
H137	H	0.937635	-0.578390	-0.000057
H138	H	1.437635	-0.078390	0.499943
Cl139	Cl	0.929323	-0.012265	0.679523
Cl140	Cl	1.429323	0.487735	1.179523
H141	H	0.785846	0.131837	0.593783
H142	H	1.285846	0.631837	1.093783
H143	H	0.597088	0.212713	-0.000072
H144	H	1.097088	0.712713	0.499928
H145	H	0.495896	-0.020129	-0.000024
H146	H	0.995896	0.479871	0.499976
H147	H	0.713282	-0.103462	-0.000030
H148	H	1.213282	0.396538	0.499970
