data_functionalizedCrystal
_audit_creation_method	'MofGen! by Chris Wilmer'
_symmetry_space_group_name_H-M	'P1'
_symmetry_Int_Tables_number	1
_symmetry_cell_setting	triclinic
loop_
_symmetry_equiv_pos_as_xyz
  x,y,z
_cell_length_a	6.817900
_cell_length_b	11.102237
_cell_length_c	9.514088
_cell_angle_alpha	88.636075
_cell_angle_beta	118.843545
_cell_angle_gamma	108.604801
loop_
_atom_site_label
_atom_site_type_symbol
_atom_site_fract_x
_atom_site_fract_y
_atom_site_fract_z
V1	V	-4.243921	-0.178092	-0.500746
O2	O	-4.200436	0.006240	-0.491211
O3	O	-4.219790	-0.350898	-0.497325
O4	O	-4.278443	-0.176370	-0.719138
O5	O	-4.141377	-0.169496	-0.267863
V6	V	-4.713659	-0.155924	-0.472891
O7	O	-4.535417	-0.226721	-0.561849
O8	O	-4.872360	-0.107296	-0.411789
O9	O	-4.514583	0.016881	-0.476313
O10	O	-4.874541	-0.340256	-0.482427
O11	O	-4.933600	-0.164521	-0.705775
O12	O	-4.455931	-0.157646	-0.254500
C13	C	-4.068012	-0.392992	-0.489426
C14	C	-4.130122	-0.534269	-0.488085
C15	C	-4.258364	-0.619448	-0.634530
C16	C	-4.316715	-0.752193	-0.633268
C17	C	-4.118575	-0.714565	-0.339102
C18	C	-4.060212	-0.581823	-0.340365
C19	C	-4.372768	-0.641174	-0.804365
C20	C	-4.431119	-0.773918	-0.803103
C21	C	-4.142827	-0.170363	-0.772368
C22	C	-4.252497	-0.170099	-0.950904
C23	C	-4.329703	0.058969	-0.484207
C24	C	-4.246835	0.200245	-0.485559
C25	C	-4.254886	-0.163657	-0.201261
C26	C	-4.124453	-0.163915	-0.022723
H27	H	-4.537591	-0.611893	-0.863802
C28	C	-4.513942	-0.176969	-1.052352
H29	H	-4.555829	-0.175870	-1.163063
H30	H	-4.616023	-0.254153	-1.042976
H31	H	-4.531252	-0.105098	-1.013614
C32	C	-3.919117	-0.488128	-0.179275
H33	H	-3.885860	-0.535466	-0.091124
H34	H	-3.773165	-0.431406	-0.168541
H35	H	-4.011306	-0.439722	-0.178764
C36	C	-4.041708	-0.766881	-0.176625
H37	H	-4.094845	-0.858138	-0.196845
H38	H	-3.872368	-0.733234	-0.111268
H39	H	-4.110540	-0.741560	-0.121534
C40	C	-3.863022	-0.157047	-0.921291
H41	H	-3.797401	-0.153141	-0.990286
H42	H	-3.772806	-0.082365	-0.840823
H43	H	-3.857579	-0.231420	-0.870199
C44	C	-4.304386	-0.831694	-0.865213
H45	H	-4.207582	-0.765569	-0.893756
H46	H	-4.206873	-0.869896	-0.782274
H47	H	-4.420539	-0.895253	-0.957954
C48	C	-4.217655	-0.597021	-0.884594
H49	H	-4.193446	-0.668939	-0.916718
H50	H	-4.296320	-0.559949	-0.977319
H51	H	-4.067470	-0.534944	-0.809214
H52	H	-4.633773	-0.823279	-0.874116
