data_functionalizedCrystal
_audit_creation_method	'MofGen! by Chris Wilmer'
_symmetry_space_group_name_H-M	'P1'
_symmetry_Int_Tables_number	1
_symmetry_cell_setting	triclinic
loop_
_symmetry_equiv_pos_as_xyz
  x,y,z
_cell_length_a	18.101398
_cell_length_b	21.295417
_cell_length_c	18.101389
_cell_angle_alpha	89.977434
_cell_angle_beta	89.975673
_cell_angle_gamma	90.025773
loop_
_atom_site_label
_atom_site_type_symbol
_atom_site_fract_x
_atom_site_fract_y
_atom_site_fract_z
Zn1	Zn	1.132124	-0.250755	-0.418817
Zn2	Zn	1.132021	-0.356008	-0.294967
Zn3	Zn	1.008283	-0.250748	-0.294979
Zn4	Zn	1.008235	-0.355981	-0.418755
O5	O	1.070166	-0.303373	-0.356880
O6	O	1.235743	-0.264731	-0.402409
O7	O	1.115584	-0.342054	-0.191335
O8	O	1.024774	-0.162660	-0.311437
O9	O	1.235668	-0.342060	-0.311417
O10	O	1.115759	-0.162664	-0.402421
O11	O	1.024674	-0.264720	-0.191344
O12	O	0.904644	-0.264694	-0.311377
O13	O	1.024692	-0.342014	-0.522397
O14	O	0.904609	-0.342008	-0.402315
O15	O	1.115713	-0.264705	-0.522442
O16	O	1.115538	-0.444094	-0.311357
O17	O	1.024592	-0.444074	-0.402304
C18	C	0.877755	-0.303348	-0.356841
C19	C	0.795441	-0.303352	-0.356842
C20	C	0.496350	-0.303391	-0.356904
C21	C	0.527673	-0.254504	-0.299967
C22	C	0.613291	-0.254635	-0.299724
C23	C	0.644733	-0.303371	-0.356873
C24	C	0.613615	-0.369679	-0.335543
C25	C	0.527970	-0.369407	-0.335147
C26	C	0.527965	-0.286547	-0.435305
C27	C	0.613615	-0.285070	-0.434877
C28	C	0.728592	-0.303364	-0.356857
C29	C	0.412491	-0.303403	-0.356919
C30	C	1.070069	-0.466925	-0.356839
C31	C	1.070095	-0.536893	-0.356846
C32	C	1.117492	-0.569749	-0.309538
C33	C	1.117527	-0.635491	-0.309555
C34	C	1.070151	-0.668375	-0.356871
C35	C	1.022751	-0.635511	-0.404188
C36	C	1.022722	-0.569770	-0.404175
N37	N	1.005367	-0.771637	-0.362504
N38	N	1.005396	-0.834089	-0.362512
C39	C	1.070234	-0.866450	-0.356914
N40	N	1.135044	-0.834001	-0.351293
N41	N	1.135014	-0.771543	-0.351282
C42	C	1.070177	-0.739661	-0.356891
C43	C	1.117673	-0.970592	-0.309622
C44	C	1.117709	-1.036335	-0.309644
C45	C	1.022926	-1.036354	-0.404273
C46	C	1.022897	-0.970612	-0.404255
C47	C	1.070269	-0.937734	-0.356925
C48	C	1.263328	-0.303399	-0.356919
C49	C	1.345642	-0.303410	-0.356935
C50	C	1.070209	-0.303357	-0.550042
C51	C	1.070227	-0.303350	-0.632356
C52	C	1.070283	-0.139183	-0.356937
C53	C	1.070334	-0.069215	-0.356961
C54	C	1.070270	-0.303232	-0.931447
C55	C	1.012805	-0.351719	-0.900093
C56	C	1.012960	-0.351944	-0.814475
C57	C	1.070248	-0.303291	-0.783064
C58	C	1.148274	-0.321303	-0.814168
C59	C	1.147953	-0.321621	-0.899813
C60	C	1.050388	-0.236626	-0.899877
C61	C	1.048652	-0.237011	-0.814226
C62	C	1.070240	-0.303323	-0.699205
C63	C	1.070283	-0.303202	-1.015306
C64	C	1.070166	-0.303344	-0.164469
C65	C	1.070291	-0.303173	-0.082155
H66	H	0.507249	-0.407065	-0.374809
H67	H	1.156249	-0.943822	-0.271085
C68	C	0.970750	-0.934468	-0.456284
H69	H	0.942534	-0.963466	-0.484463
H70	H	0.999045	-0.908785	-0.488576
H71	H	0.938486	-0.908861	-0.427910
C72	C	1.169848	-1.072477	-0.257602
H73	H	1.198050	-1.043479	-0.229410
H74	H	1.202114	-1.098086	-0.285965
H75	H	1.141541	-1.098158	-0.225312
C76	C	0.641119	-0.219165	-0.456626
H77	H	0.622114	-0.208364	-0.503865
H78	H	0.693571	-0.219039	-0.458279
H79	H	0.624634	-0.189430	-0.421158
C80	C	0.500599	-0.334645	-0.492617
H81	H	0.470054	-0.364846	-0.468922
H82	H	0.541783	-0.355123	-0.514455
H83	H	0.473059	-0.313636	-0.529824
H84	H	0.633745	-0.265769	-0.241630
C85	C	1.170720	-0.387395	-0.926812
H86	H	1.170730	-0.388168	-0.979287
H87	H	1.136656	-0.417648	-0.908674
H88	H	1.218832	-0.396941	-0.909135
C89	C	0.970817	-1.072518	-0.456324
H90	H	0.977620	-1.116378	-0.449555
H91	H	0.981622	-1.061711	-0.506089
H92	H	0.921057	-1.061786	-0.445430
C93	C	0.934802	-0.336708	-0.786059
H94	H	0.902668	-0.330329	-0.826858
H95	H	0.936390	-0.299708	-0.756806
H96	H	0.917122	-0.370698	-0.756992
C97	C	0.934404	-0.336647	-0.927895
H98	H	0.936012	-0.300652	-0.958878
H99	H	0.903018	-0.328608	-0.886908
H100	H	0.915818	-0.371382	-0.955069
H101	H	1.087452	-0.198968	-0.792845
C102	C	0.642516	-0.329674	-0.495258
H103	H	0.674076	-0.360180	-0.473588
H104	H	0.669293	-0.306266	-0.531048
H105	H	0.602002	-0.350109	-0.518380
C106	C	0.500928	-0.388708	-0.257724
H107	H	0.448452	-0.388717	-0.256802
H108	H	0.519045	-0.359729	-0.222192
H109	H	0.518599	-0.429596	-0.246420
C110	C	1.030350	-0.418006	-0.929172
H111	H	1.072547	-0.416262	-0.960334
H112	H	0.989341	-0.433438	-0.956410
H113	H	1.040001	-0.445212	-0.888709
H114	H	1.026087	-0.401314	-0.793988
C115	C	1.207763	-0.275998	-0.927840
H116	H	1.232152	-0.257355	-0.886881
H117	H	1.185407	-0.244152	-0.956996
H118	H	1.242641	-0.298351	-0.956923
H119	H	0.635030	-0.384213	-0.278847
C120	C	1.169660	-0.671641	-0.257509
H121	H	1.197865	-0.642644	-0.229316
H122	H	1.201923	-0.697254	-0.285869
H123	H	1.141347	-0.697318	-0.225220
C124	C	1.207672	-0.275102	-0.786684
H125	H	1.185360	-0.244345	-0.755919
H126	H	1.230280	-0.255106	-0.827811
H127	H	1.244015	-0.297354	-0.759350
H128	H	0.984178	-0.662290	-0.442715
C129	C	1.171437	-0.386382	-0.785207
H130	H	1.133669	-0.402663	-0.754168
H131	H	1.216002	-0.382642	-0.757863
H132	H	1.178916	-0.413997	-0.825728
H133	H	0.994480	-0.220216	-0.921464
C134	C	0.971088	-0.218653	-0.786755
H135	H	0.951942	-0.251240	-0.756417
H136	H	0.939352	-0.212496	-0.827903
H137	H	0.974125	-0.180901	-0.758976
H138	H	0.633980	-0.407079	-0.375715
H139	H	0.506392	-0.239037	-0.454697
C140	C	1.106919	-0.187821	-0.927281
H141	H	1.142467	-0.207904	-0.957814
H142	H	1.130996	-0.169229	-0.886114
H143	H	1.082165	-0.156228	-0.954842
C144	C	1.169608	-0.533587	-0.257486
H145	H	1.197846	-0.562575	-0.229319
H146	H	1.141291	-0.507974	-0.225185
H147	H	1.201852	-0.507909	-0.285850
H148	H	0.984125	-0.543018	-0.442700
H149	H	0.507102	-0.205183	-0.313191
C150	C	0.641718	-0.188209	-0.317770
H151	H	0.600924	-0.160899	-0.325313
H152	H	0.671000	-0.189578	-0.361301
H153	H	0.670758	-0.173161	-0.277813
H154	H	0.506124	-0.265512	-0.242211
