data_functionalizedCrystal
_audit_creation_method	'MofGen! by Chris Wilmer'
_symmetry_space_group_name_H-M	'P1'
_symmetry_Int_Tables_number	1
_symmetry_cell_setting	triclinic
loop_
_symmetry_equiv_pos_as_xyz
  x,y,z
_cell_length_a	22.610064
_cell_length_b	15.995350
_cell_length_c	15.995350
_cell_angle_alpha	96.507625
_cell_angle_beta	89.993698
_cell_angle_gamma	89.995416
loop_
_atom_site_label
_atom_site_type_symbol
_atom_site_fract_x
_atom_site_fract_y
_atom_site_fract_z
O1	O	0.049131	-1.110991	0.107915
O2	O	0.549131	-0.610991	0.607915
O3	O	0.049143	-0.867216	0.121243
O4	O	0.549143	-0.367216	0.621243
O5	O	0.049137	-0.995767	-0.007309
O6	O	0.549137	-0.495767	0.492691
O7	O	0.049138	-0.982440	0.236467
O8	O	0.549138	-0.482440	0.736467
O9	O	-0.049233	-0.995745	-0.007290
O10	O	0.450767	-0.495745	0.492710
O11	O	-0.049226	-0.867193	0.121261
O12	O	0.450774	-0.367193	0.621261
O13	O	-0.049238	-1.110969	0.107934
O14	O	0.450762	-0.610969	0.607934
Zn15	Zn	-0.064850	-0.989077	0.114601
Zn16	Zn	0.435150	-0.489077	0.614601
Zn17	Zn	0.064756	-0.989107	0.114576
Zn18	Zn	0.564756	-0.489107	0.614576
O19	O	-0.049231	-0.982417	0.236485
O20	O	0.450769	-0.482417	0.736485
C21	C	-0.000040	-0.836010	0.120701
C22	C	0.499960	-0.336010	0.620701
C23	C	-0.000035	-0.743060	0.119049
C24	C	0.499965	-0.243060	0.619049
N25	N	-0.153302	-0.989063	0.114617
N26	N	0.346698	-0.489063	0.614617
C27	C	-0.000047	-0.995205	-0.038494
C28	C	0.499953	-0.495205	0.461506
C29	C	-0.000044	-0.993553	-0.131444
C30	C	0.499956	-0.493553	0.368556
C31	C	-0.561947	-1.046032	0.057662
C32	C	-0.061947	-0.546032	0.557662
C33	C	-0.623867	-1.046037	0.057656
C34	C	-0.123867	-0.546037	0.557656
O35	O	-0.655888	-1.094438	0.009243
O36	O	-0.155888	-0.594438	0.509243
N37	N	-0.654840	-0.989107	0.114559
N38	N	-0.154840	-0.489107	0.614559
C39	C	-0.623889	-0.932163	0.171465
C40	C	-0.123889	-0.432163	0.671465
O41	O	-0.655920	-0.883739	0.219864
O42	O	-0.155920	-0.383739	0.719864
C43	C	-0.561971	-0.932155	0.171467
C44	C	-0.061971	-0.432155	0.671467
C45	C	-0.531001	-0.989095	0.114566
C46	C	-0.031001	-0.489095	0.614566
C47	C	-0.530977	-1.102967	0.000766
C48	C	-0.030977	-0.602967	0.500766
C49	C	-0.469062	-1.102963	0.000773
C50	C	0.030938	-0.602963	0.500773
C51	C	-0.438116	-1.046026	0.057677
C52	C	0.061884	-0.546026	0.557677
C53	C	-0.469085	-0.989091	0.114573
C54	C	0.030915	-0.489091	0.614573
C55	C	-0.531021	-0.875208	0.228369
C56	C	-0.031021	-0.375208	0.728369
C57	C	-0.469098	-0.875205	0.228365
C58	C	0.030902	-0.375205	0.728365
C59	C	-0.438129	-0.932145	0.171464
C60	C	0.061871	-0.432145	0.671464
C61	C	-0.376224	-0.932150	0.171485
C62	C	0.123776	-0.432150	0.671485
N63	N	-0.345251	-0.989080	0.114582
N64	N	0.154749	-0.489080	0.614582
C65	C	-0.376197	-1.046018	0.057678
C66	C	0.123803	-0.546018	0.557678
C67	C	-0.753923	-0.932182	0.171457
C68	C	-0.253923	-0.432182	0.671457
C69	C	-0.815841	-0.932193	0.171460
C70	C	-0.315841	-0.432193	0.671460
C71	C	-0.815814	-1.046066	0.057650
C72	C	-0.315814	-0.546066	0.557650
C73	C	-0.753895	-1.046059	0.057651
C74	C	-0.253895	-0.546059	0.557651
C75	C	-0.722950	-0.989112	0.114554
C76	C	-0.222950	-0.489112	0.614554
C77	C	-0.246170	-1.046007	0.057698
C78	C	0.253830	-0.546007	0.557698
C79	C	-0.184248	-1.046001	0.057713
C80	C	0.315752	-0.546001	0.557713
C81	C	-0.184281	-0.932125	0.171520
C82	C	0.315719	-0.432125	0.671520
C83	C	-0.246196	-0.932134	0.171509
C84	C	0.253804	-0.432134	0.671509
C85	C	-0.277139	-0.989078	0.114591
C86	C	0.222861	-0.489078	0.614591
O87	O	-0.344163	-0.883771	0.219870
O88	O	0.155837	-0.383771	0.719870
O89	O	-0.344159	-1.094426	0.009280
O90	O	0.155841	-0.594426	0.509280
N91	N	0.153208	-0.989128	0.114553
N92	N	0.653208	-0.489128	0.614553
C93	C	-0.000053	-1.142175	0.108476
C94	C	0.499947	-0.642175	0.608476
C95	C	-0.000054	-1.235125	0.110127
C96	C	0.499946	-0.735125	0.610127
C97	C	-0.000048	-0.405312	0.113117
C98	C	0.499952	0.094688	0.613117
C99	C	-0.000268	-0.452746	0.021565
C100	C	0.499732	0.047254	0.521565
C101	C	-0.000042	-0.549436	0.023217
C102	C	0.499958	-0.049436	0.523217
C103	C	-0.000042	-0.572873	0.116060
C104	C	0.499958	-0.072873	0.616060
C105	C	0.056130	-0.531799	0.161205
C106	C	0.556130	-0.031799	0.661205
C107	C	0.056173	-0.435163	0.158906
C108	C	0.556173	0.064837	0.658906
C109	C	-0.055691	-0.434798	0.160818
C110	C	0.444309	0.065202	0.660818
C111	C	-0.056430	-0.531743	0.160797
C112	C	0.443570	-0.031743	0.660797
C113	C	-0.000036	-0.667570	0.117727
C114	C	0.499964	-0.167570	0.617727
C115	C	-0.000049	-0.310614	0.111452
C116	C	0.499951	0.189386	0.611452
C117	C	-0.000045	-0.987621	-0.469192
C118	C	0.499955	-0.487621	0.030808
C119	C	0.000180	-0.896069	-0.421758
C120	C	0.500180	-0.396069	0.078242
C121	C	-0.000042	-0.897721	-0.325068
C122	C	0.499958	-0.397721	0.174932
C123	C	-0.000044	-0.990564	-0.301631
C124	C	0.499956	-0.490564	0.198369
C125	C	-0.056219	-1.035707	-0.342698
C126	C	0.443781	-0.535707	0.157302
C127	C	-0.056266	-1.033407	-0.439334
C128	C	0.443734	-0.533407	0.060666
C129	C	0.055598	-1.035325	-0.439713
C130	C	0.555598	-0.535325	0.060287
C131	C	0.056341	-1.035303	-0.342768
C132	C	0.556341	-0.535303	0.157232
C133	C	-0.000045	-0.992231	-0.206934
C134	C	0.499955	-0.492231	0.293066
C135	C	-0.000048	-0.985956	-0.563890
C136	C	0.499952	-0.485956	-0.063890
C137	C	-0.000046	-0.982980	0.267671
C138	C	0.499954	-0.482980	0.767671
C139	C	-0.000046	-0.984631	0.360621
C140	C	0.499954	-0.484631	0.860621
H141	H	-0.159035	-1.092371	0.011378
H142	H	0.340965	-0.592371	0.511378
N143	N	-0.279538	-1.107433	-0.003680
N144	N	0.220462	-0.607433	0.496320
H145	H	-0.305228	-1.075455	-0.040785
H146	H	0.194772	-0.575455	0.459215
H147	H	-0.250479	-1.143482	-0.039658
H148	H	0.249521	-0.643482	0.460342
N149	N	0.052795	-0.426795	-0.026693
N150	N	0.552795	0.073205	0.473307
H151	H	0.077885	-0.477858	-0.044960
H152	H	0.577885	0.022142	0.455040
H153	H	0.039037	-0.400671	-0.077905
H154	H	0.539037	0.099329	0.422095
N155	N	-0.053370	-0.587089	-0.023807
N156	N	0.446630	-0.087089	0.476193
H157	H	-0.053322	-0.650113	-0.022826
H158	H	0.446678	-0.150113	0.477174
H159	H	-0.090584	-0.562497	0.003944
H160	H	0.409416	-0.062497	0.503944
H161	H	0.040294	-0.577304	-0.012526
H162	H	0.540294	-0.077304	0.487474
N163	N	-0.056205	-0.392714	0.250224
N164	N	0.443795	0.107286	0.750224
H165	H	-0.092050	-0.411893	0.280560
H166	H	0.407950	0.088107	0.780560
H167	H	-0.019139	-0.408418	0.280033
H168	H	0.480861	0.091582	0.780033
N169	N	-0.053472	-0.850389	-0.288138
N170	N	0.446528	-0.350389	0.211862
H171	H	-0.040175	-0.801664	-0.246701
H172	H	0.459825	-0.301664	0.253299
H173	H	-0.076951	-0.828426	-0.334729
H174	H	0.423049	-0.328426	0.165271
N175	N	-0.435663	-1.164373	-0.060602
N176	N	0.064337	-0.664373	0.439398
H177	H	-0.464670	-1.200437	-0.096648
H178	H	0.035330	-0.700437	0.403352
H179	H	-0.409974	-1.132320	-0.097639
H180	H	0.090026	-0.632320	0.402361
N181	N	-0.111478	-0.567905	0.117145
N182	N	0.388522	-0.067905	0.617145
H183	H	-0.136420	-0.595946	0.158330
H184	H	0.363580	-0.095946	0.658330
H185	H	-0.134902	-0.521209	0.095272
H186	H	0.365098	-0.021209	0.595272
N187	N	-0.564349	-1.164396	-0.060601
N188	N	-0.064349	-0.664396	0.439399
H189	H	-0.535325	-1.200461	-0.096634
H190	H	-0.035325	-0.700461	0.403366
H191	H	-0.590029	-1.201409	-0.028509
H192	H	-0.090029	-0.701409	0.471491
N193	N	-0.720494	-1.107471	-0.003719
N194	N	-0.220494	-0.607471	0.496281
H195	H	-0.749500	-1.143540	-0.039763
H196	H	-0.249500	-0.643540	0.460237
H197	H	-0.694806	-1.075419	-0.040759
H198	H	-0.194806	-0.575419	0.459241
H199	H	-0.058309	-1.103916	-0.328572
H200	H	0.441691	-0.603916	0.171428
N201	N	-0.435722	-0.813779	0.289736
N202	N	0.064278	-0.313779	0.789736
H203	H	-0.464741	-0.777713	0.325777
H204	H	0.035259	-0.277713	0.825777
H205	H	-0.410033	-0.845823	0.326779
H206	H	0.089967	-0.345823	0.826779
N207	N	0.111790	-0.410915	0.115275
N208	N	0.611790	0.089085	0.615275
H209	H	0.136048	-0.462978	0.097713
H210	H	0.636048	0.037022	0.597713
H211	H	0.100853	-0.382963	0.063886
H212	H	0.600853	0.117037	0.563886
N213	N	-0.279604	-0.870737	0.232892
N214	N	0.220396	-0.370737	0.732892
H215	H	-0.250601	-0.834671	0.268944
H216	H	0.249399	-0.334671	0.768944
H217	H	-0.305292	-0.833721	0.200815
H218	H	0.194708	-0.333721	0.700815
N219	N	-0.053619	-0.428196	-0.026915
N220	N	0.446381	0.071804	0.473085
H221	H	-0.078224	-0.479828	-0.044825
H222	H	0.421776	0.020172	0.455175
H223	H	-0.078126	-0.386067	0.010035
H224	H	0.421874	0.113933	0.510035
H225	H	-0.841052	-0.885837	0.217803
H226	H	-0.341052	-0.385837	0.717803
N227	N	-0.059660	-1.122440	-0.482046
N228	N	0.440340	-0.622440	0.017954
H229	H	-0.096482	-1.129204	-0.517915
H230	H	0.403518	-0.629204	-0.017915
H231	H	-0.023630	-1.134711	-0.518718
H232	H	0.476370	-0.634711	-0.018718
H233	H	0.058722	-0.402915	0.226121
H234	H	0.558722	0.097085	0.726121
N235	N	0.053536	-0.847602	-0.446320
N236	N	0.553536	-0.347602	0.053680
H237	H	0.052824	-0.789038	-0.415180
H238	H	0.552824	-0.289038	0.084820
H239	H	0.090744	-0.877500	-0.431322
H240	H	0.590744	-0.377500	0.068678
N241	N	0.111396	-0.991659	-0.306620
N242	N	0.611396	-0.491659	0.193380
H243	H	0.134862	-0.969789	-0.353283
H244	H	0.634862	-0.469789	0.146717
H245	H	0.099825	-0.943139	-0.263764
H246	H	0.599825	-0.443139	0.236236
H247	H	0.058219	-0.545924	0.229414
H248	H	0.558219	-0.045924	0.729414
N249	N	-0.112093	-0.407602	0.121182
N250	N	0.387907	0.092398	0.621182
H251	H	-0.135431	-0.369880	0.164117
H252	H	0.364569	0.130120	0.664117
H253	H	-0.102097	-0.375919	0.071893
H254	H	0.397903	0.124081	0.571893
H255	H	0.097934	-0.560182	0.129834
H256	H	0.597934	-0.060182	0.629834
N257	N	-0.849197	-1.107480	-0.003728
N258	N	-0.349197	-0.607480	0.496272
H259	H	-0.893121	-1.098838	0.004908
H260	H	-0.393121	-0.598838	0.504908
H261	H	-0.838371	-1.097809	-0.063133
H262	H	-0.338371	-0.597809	0.436867
N263	N	-0.720555	-0.870764	0.232849
N264	N	-0.220555	-0.370764	0.732849
H265	H	-0.694865	-0.902751	0.269945
H266	H	-0.194865	-0.402751	0.769945
H267	H	-0.694900	-0.833698	0.200780
H268	H	-0.194900	-0.333698	0.700780
H269	H	-0.556228	-0.828843	0.274702
H270	H	-0.056228	-0.328843	0.774702
N271	N	-0.150897	-0.870716	0.232893
N272	N	0.349103	-0.370716	0.732893
H273	H	-0.106974	-0.879356	0.224255
H274	H	0.393026	-0.379356	0.724255
H275	H	-0.161724	-0.811323	0.223178
H276	H	0.338276	-0.311323	0.723178
H277	H	-0.059823	-0.547108	0.228501
H278	H	0.440177	-0.047108	0.728501
H279	H	0.040226	-0.862235	-0.296653
H280	H	0.540226	-0.362235	0.203347
N281	N	-0.052878	-0.847793	-0.447689
N282	N	0.447122	-0.347793	0.052311
H283	H	-0.051496	-0.844500	-0.510344
H284	H	0.448504	-0.344500	-0.010344
H285	H	-0.090264	-0.877515	-0.433114
H286	H	0.409736	-0.377515	0.066886
H287	H	-0.098256	-1.000469	-0.457627
H288	H	0.401744	-0.500469	0.042373
N289	N	-0.111593	-0.994167	-0.305088
N290	N	0.388407	-0.494167	0.194912
H291	H	-0.100420	-0.946114	-0.261460
H292	H	0.399580	-0.446114	0.238540
H293	H	-0.135671	-0.971936	-0.350945
H294	H	0.364329	-0.471936	0.149055
N295	N	0.111997	-0.995693	-0.466932
N296	N	0.611997	-0.495693	0.033068
H297	H	0.113855	-0.935049	-0.441362
H298	H	0.613855	-0.435049	0.058638
H299	H	0.147104	-1.027332	-0.447366
H300	H	0.647104	-0.527332	0.052634
H301	H	0.059731	-1.103008	-0.327407
H302	H	0.559731	-0.603008	0.172593
H303	H	0.055974	-1.102825	-0.471474
H304	H	0.555974	-0.602825	0.028526
