data_functionalizedCrystal
_audit_creation_method	'MofGen! by Chris Wilmer'
_symmetry_space_group_name_H-M	'P1'
_symmetry_Int_Tables_number	1
_symmetry_cell_setting	triclinic
loop_
_symmetry_equiv_pos_as_xyz
  x,y,z
_cell_length_a	14.519709
_cell_length_b	14.519709
_cell_length_c	13.448316
_cell_angle_alpha	90.007547
_cell_angle_beta	90.001142
_cell_angle_gamma	83.680145
loop_
_atom_site_label
_atom_site_type_symbol
_atom_site_fract_x
_atom_site_fract_y
_atom_site_fract_z
O1	O	1.223870	0.120893	0.082565
O2	O	1.473870	0.370893	0.332565
O3	O	1.723870	0.620893	0.582565
O4	O	1.973870	0.870893	0.832565
O5	O	0.955393	0.135130	0.082595
O6	O	1.205393	0.385130	0.332595
O7	O	1.455393	0.635130	0.582595
O8	O	1.705393	0.885130	0.832595
O9	O	1.096750	-0.006227	0.082570
O10	O	1.346750	0.243773	0.332570
O11	O	1.596750	0.493773	0.582570
O12	O	1.846750	0.743773	0.832570
O13	O	1.082514	0.262250	0.082590
O14	O	1.332514	0.512250	0.332590
O15	O	1.582514	0.762250	0.582590
O16	O	1.832514	1.012250	0.832590
O17	O	1.096732	-0.006236	-0.082814
O18	O	1.346732	0.243764	0.167186
O19	O	1.596732	0.493764	0.417186
O20	O	1.846732	0.743764	0.667186
O21	O	0.955376	0.135121	-0.082789
O22	O	1.205376	0.385121	0.167211
O23	O	1.455376	0.635121	0.417211
O24	O	1.705376	0.885121	0.667211
O25	O	1.223852	0.120885	-0.082819
O26	O	1.473852	0.370885	0.167181
O27	O	1.723852	0.620885	0.417181
O28	O	1.973852	0.870885	0.667181
Cu29	Cu	1.089612	0.128002	-0.097905
Cu30	Cu	1.339612	0.378002	0.152095
Cu31	Cu	1.589612	0.628002	0.402095
Cu32	Cu	1.839612	0.878002	0.652095
Cu33	Cu	1.089633	0.128012	0.097681
Cu34	Cu	1.339633	0.378012	0.347681
Cu35	Cu	1.589633	0.628012	0.597681
Cu36	Cu	1.839633	0.878012	0.847681
O37	O	1.082496	0.262241	-0.082794
O38	O	1.332496	0.512241	0.167206
O39	O	1.582496	0.762241	0.417206
O40	O	1.832496	1.012241	0.667206
C41	C	0.921025	0.134462	-0.000093
C42	C	1.171025	0.384462	0.249907
C43	C	1.421025	0.634462	0.499907
C44	C	1.671025	0.884462	0.749907
C45	C	0.818643	0.132474	-0.000081
C46	C	1.068643	0.382474	0.249919
C47	C	1.318643	0.632474	0.499919
C48	C	1.568643	0.882474	0.749919
C49	C	0.443748	0.125154	-0.000127
C50	C	0.693748	0.375154	0.249873
C51	C	0.943748	0.625154	0.499873
C52	C	1.193748	0.875154	0.749873
C53	C	0.548056	0.127187	-0.000114
C54	C	0.798056	0.377187	0.249886
C55	C	1.048056	0.627187	0.499886
C56	C	1.298056	0.877187	0.749886
C57	C	0.631192	0.128814	-0.000103
C58	C	0.881192	0.378814	0.249897
C59	C	1.131192	0.628814	0.499897
C60	C	1.381192	0.878814	0.749897
C61	C	0.735507	0.130847	-0.000092
C62	C	0.985507	0.380847	0.249908
C63	C	1.235507	0.630847	0.499908
C64	C	1.485507	0.880847	0.749908
C65	C	1.096078	-0.040591	-0.000122
C66	C	1.346078	0.209409	0.249878
C67	C	1.596078	0.459409	0.499878
C68	C	1.846078	0.709409	0.749878
C69	C	1.094090	-0.142972	-0.000122
C70	C	1.344090	0.107028	0.249878
C71	C	1.594090	0.357028	0.499878
C72	C	1.844090	0.607028	0.749878
C73	C	1.086770	-0.517868	-0.000096
C74	C	1.336770	-0.267868	0.249904
C75	C	1.586770	-0.017868	0.499904
C76	C	1.836770	0.232132	0.749904
C77	C	1.088803	-0.413560	-0.000103
C78	C	1.338803	-0.163560	0.249897
C79	C	1.588803	0.086440	0.499897
C80	C	1.838803	0.336440	0.749897
C81	C	1.090430	-0.330423	-0.000110
C82	C	1.340430	-0.080423	0.249890
C83	C	1.590430	0.169577	0.499890
C84	C	1.840430	0.419577	0.749890
C85	C	1.092463	-0.226109	-0.000116
C86	C	1.342463	0.023891	0.249884
C87	C	1.592463	0.273891	0.499884
C88	C	1.842463	0.523891	0.749884
C89	C	1.258221	0.121553	-0.000129
C90	C	1.508221	0.371553	0.249871
C91	C	1.758221	0.621553	0.499871
C92	C	2.008221	0.871553	0.749871
C93	C	1.360602	0.123541	-0.000134
C94	C	1.610602	0.373541	0.249866
C95	C	1.860602	0.623541	0.499866
C96	C	2.110602	0.873541	0.749866
C97	C	1.083168	0.296605	-0.000100
C98	C	1.333168	0.546605	0.249900
C99	C	1.583168	0.796605	0.499900
C100	C	1.833168	1.046605	0.749900
C101	C	1.085156	0.398987	-0.000093
C102	C	1.335156	0.648987	0.249907
C103	C	1.585156	0.898987	0.499907
C104	C	1.835156	1.148987	0.749907
N105	N	1.089604	0.127994	-0.235469
N106	N	1.339604	0.377994	0.014531
N107	N	1.589604	0.627994	0.264531
N108	N	1.839604	0.877994	0.514531
C109	C	1.152217	0.065427	-0.287521
C110	C	1.402217	0.315427	-0.037521
C111	C	1.652217	0.565427	0.212479
C112	C	1.902217	0.815427	0.462479
C113	C	1.152222	0.065427	-0.391624
C114	C	1.402222	0.315427	-0.141624
C115	C	1.652222	0.565427	0.108376
C116	C	1.902222	0.815427	0.358376
C117	C	1.089620	0.127998	-0.443674
C118	C	1.339620	0.377998	-0.193674
C119	C	1.589620	0.627998	0.056326
C120	C	1.839620	0.877998	0.306326
C121	C	1.027001	0.190568	-0.391615
C122	C	1.277001	0.440568	-0.141615
C123	C	1.527001	0.690568	0.108385
C124	C	1.777001	0.940568	0.358385
C125	C	1.026991	0.190563	-0.287514
C126	C	1.276991	0.440563	-0.037514
C127	C	1.526991	0.690563	0.212486
C128	C	1.776991	0.940563	0.462486
C129	C	1.027026	0.190574	-0.608595
C130	C	1.277026	0.440574	-0.358595
C131	C	1.527026	0.690574	-0.108595
C132	C	1.777026	0.940574	0.141405
C133	C	1.027037	0.190580	-0.712704
C134	C	1.277037	0.440580	-0.462704
C135	C	1.527037	0.690580	-0.212704
C136	C	1.777037	0.940580	0.037296
C137	C	1.152257	0.065437	-0.712705
C138	C	1.402257	0.315437	-0.462705
C139	C	1.652257	0.565437	-0.212705
C140	C	1.902257	0.815437	0.037295
C141	C	1.152248	0.065433	-0.608604
C142	C	1.402248	0.315433	-0.358604
C143	C	1.652248	0.565433	-0.108604
C144	C	1.902248	0.815433	0.141396
C145	C	1.089630	0.128004	-0.556552
C146	C	1.339630	0.378004	-0.306552
C147	C	1.589630	0.628004	-0.056552
C148	C	1.839630	0.878004	0.193448
N149	N	1.089649	0.128013	0.235245
N150	N	1.339649	0.378013	0.485245
N151	N	1.589649	0.628013	0.735245
N152	N	1.839649	0.878013	0.985245
H153	H	1.203199	0.014478	-0.245148
H154	H	1.453199	0.264478	0.004852
H155	H	1.703199	0.514478	0.254852
H156	H	1.953199	0.764478	0.504852
H157	H	1.203243	0.014490	-0.755092
H158	H	1.453243	0.264490	-0.505092
H159	H	1.703243	0.514490	-0.255092
H160	H	1.953243	0.764490	-0.005092
H161	H	1.203228	0.014487	-0.566225
H162	H	1.453228	0.264487	-0.316225
H163	H	1.703228	0.514487	-0.066225
H164	H	1.953228	0.764487	0.183775
H165	H	1.203205	0.014479	-0.434004
H166	H	1.453205	0.264479	-0.184004
H167	H	1.703205	0.514479	0.065996
H168	H	1.953205	0.764479	0.315996
H169	H	0.976058	0.241531	-0.755077
H170	H	1.226058	0.491531	-0.505077
H171	H	1.476058	0.741531	-0.255077
H172	H	1.726058	0.991531	-0.005077
H173	H	0.976033	0.241524	-0.566218
H174	H	1.226033	0.491524	-0.316218
H175	H	1.476033	0.741524	-0.066218
H176	H	1.726033	0.991524	0.183782
H177	H	0.976024	0.241512	-0.434000
H178	H	1.226024	0.491512	-0.184000
H179	H	1.476024	0.741512	0.066000
H180	H	1.726024	0.991512	0.316000
H181	H	0.976005	0.241511	-0.245134
H182	H	1.226005	0.491511	0.004866
H183	H	1.476005	0.741511	0.254866
H184	H	1.726005	0.991511	0.504866
