data_functionalizedCrystal
_audit_creation_method	'MofGen! by Chris Wilmer'
_symmetry_space_group_name_H-M	'P1'
_symmetry_Int_Tables_number	1
_symmetry_cell_setting	triclinic
loop_
_symmetry_equiv_pos_as_xyz
  x,y,z
_cell_length_a	34.490303
_cell_length_b	34.489386
_cell_length_c	34.485816
_cell_angle_alpha	60.004462
_cell_angle_beta	60.008900
_cell_angle_gamma	59.994399
loop_
_atom_site_label
_atom_site_type_symbol
_atom_site_fract_x
_atom_site_fract_y
_atom_site_fract_z
O1	O	0.053846	-0.566517	0.473678
O2	O	0.020329	-0.441078	0.381663
O3	O	0.099768	-0.520436	0.381578
O4	O	-0.025592	-0.487159	0.473762
O5	O	0.126127	-0.494082	0.407849
O6	O	0.046689	-0.414724	0.407933
O7	O	0.080206	-0.540163	0.499949
Zn8	Zn	0.067632	-0.473259	0.458112
Zn9	Zn	0.032903	-0.507982	0.423499
O10	O	0.000767	-0.460805	0.500033
N11	N	0.091336	-0.449565	0.481736
N12	N	0.009203	-0.531680	0.399875
C13	C	0.142510	-0.268211	0.532817
C14	C	0.142641	-0.398441	0.662987
C15	C	0.142524	-0.398421	0.532817
C16	C	0.272762	-0.398394	0.532723
C17	C	0.156853	-0.311177	0.547124
C18	C	0.156928	-0.384109	0.620020
C19	C	0.229794	-0.384081	0.547073
C20	C	0.156863	-0.384097	0.547124
C21	C	0.124253	-0.213522	0.514606
C22	C	0.124277	-0.416652	0.514606
C23	C	0.175110	-0.365866	0.565335
C24	C	0.352285	-0.384669	0.490824
C25	C	0.401998	-0.401229	0.474223
C26	C	0.402027	-0.481671	0.504898
C27	C	0.352316	-0.465109	0.521500
C28	C	0.136220	-0.188652	0.465734
C29	C	0.119621	-0.138936	0.449181
C30	C	0.079092	-0.138961	0.530374
C31	C	0.095691	-0.188678	0.546927
C32	C	0.075398	-0.404656	0.526651
C33	C	0.058814	-0.421229	0.510091
C34	C	0.139984	-0.461794	0.469452
C35	C	0.156570	-0.445221	0.486007
C36	C	0.075593	-0.404694	0.742565
C37	C	0.059066	-0.421281	0.792280
C38	C	0.140274	-0.461856	0.792215
C39	C	0.156800	-0.445269	0.742499
C40	C	0.124458	-0.416687	0.717675
C41	C	0.327446	-0.416608	0.514460
C42	C	-0.023585	-0.564792	0.161919
C43	C	-0.023910	-0.769260	0.366530
C44	C	-0.023880	-0.564780	0.366623
C45	C	-0.228325	-0.564561	0.366222
C46	C	-0.129610	-0.597564	0.333467
C47	C	-0.056729	-0.597644	0.333613
C48	C	-0.074925	-0.615849	0.315324
C49	C	-0.088689	-0.695351	0.357144
C50	C	-0.072155	-0.745068	0.373736
C51	C	0.008283	-0.745150	0.343188
C52	C	-0.008252	-0.695435	0.326596
C53	C	-0.154529	-0.609541	0.382326
C54	C	-0.204241	-0.592916	0.398818
C55	C	-0.204114	-0.552341	0.317588
C56	C	-0.154401	-0.568966	0.301096
C57	C	-0.068707	-0.548770	0.321590
C58	C	-0.052166	-0.532225	0.338221
C59	C	-0.011669	-0.613425	0.378886
C60	C	-0.028210	-0.629972	0.362261
C61	C	-0.068581	-0.548777	0.235758
C62	C	-0.051939	-0.532234	0.186043
C63	C	-0.011379	-0.613438	0.186090
C64	C	-0.028020	-0.629981	0.235806
C65	C	-0.056622	-0.597649	0.260639
C66	C	-0.056739	-0.670537	0.333576
C67	C	-0.005614	-0.545951	0.107238
C68	C	-0.006360	-0.823943	0.385033
C69	C	-0.005995	-0.545937	0.384582
C70	C	-0.283006	-0.545971	0.383725
N71	N	0.426163	-0.449489	0.481488
O72	O	0.588601	-0.457377	0.364497
O73	O	0.588789	-0.549696	0.489801
O74	O	0.588709	-0.549485	0.410335
O75	O	0.588681	-0.457588	0.443963
O76	O	0.509731	-0.523223	0.436741
O77	O	0.509811	-0.523434	0.516207
O78	O	0.509624	-0.431115	0.390903
Zn79	Zn	0.497178	-0.473105	0.457747
Zn80	Zn	0.601234	-0.507706	0.422956
O81	O	0.509704	-0.431326	0.470368
N82	N	0.672250	-0.531322	0.399211
N83	N	0.091303	-0.114798	0.481730
O84	O	-0.025603	0.047729	0.473733
O85	O	0.099703	0.047764	0.381394
O86	O	0.020199	0.047731	0.381655
O87	O	0.053901	0.047761	0.473472
O88	O	0.046564	-0.031252	0.407974
O89	O	0.126068	-0.031219	0.407713
O90	O	0.000762	-0.031254	0.500052
Zn91	Zn	0.067601	-0.043777	0.458061
Zn92	Zn	0.032864	0.060287	0.423385
O93	O	0.080266	-0.031222	0.499791
N94	N	0.009156	0.131307	0.399717
N95	N	0.091635	-0.449614	0.816396
O96	O	0.083664	-0.566502	0.978913
O97	O	-0.008637	-0.441152	0.978954
O98	O	-0.008421	-0.520640	0.978930
O99	O	0.083448	-0.487013	0.978936
O100	O	0.017877	-0.494296	0.899950
O101	O	0.017661	-0.414807	0.899974
O102	O	0.109961	-0.540157	0.899933
Zn103	Zn	0.067986	-0.473299	0.887414
Zn104	Zn	0.033338	-0.508010	0.991473
O105	O	0.109746	-0.460669	0.899956
N106	N	0.009689	-0.531700	1.062491
C107	C	0.030367	-0.412095	0.382120
C108	C	0.128741	-0.510370	0.382016
C109	C	0.070168	-0.569147	0.499490
C110	C	-0.028207	-0.470871	0.499595
C111	C	0.549323	-0.549278	0.518791
C112	C	0.549225	-0.549017	0.420381
C113	C	0.549087	-0.431532	0.361914
C114	C	0.549188	-0.431794	0.460322
C115	C	0.128638	0.008374	0.381806
C116	C	0.030215	0.008236	0.382161
C117	C	-0.028206	0.008233	0.499608
C118	C	0.070250	0.008272	0.499285
C119	C	-0.008199	-0.412187	0.939469
C120	C	-0.007927	-0.510619	0.939425
C121	C	0.109523	-0.569121	0.939417
C122	C	0.109257	-0.470684	0.939444
H123	H	0.019274	-0.411508	0.812539
H124	H	0.077468	0.008281	0.528131
H125	H	-0.037176	-0.376187	0.939482
O126	O	-0.130212	-0.557391	0.253627
C127	C	-0.142335	-0.574364	0.232930
H128	H	-0.156046	-0.604998	0.261218
H129	H	-0.171147	-0.544516	0.217179
C130	C	-0.081296	-0.554217	0.158645
C131	C	-0.098132	-0.591846	0.193388
H132	H	-0.054030	-0.564999	0.134252
H133	H	-0.073129	-0.542780	0.172588
H134	H	-0.105310	-0.529347	0.145525
H135	H	-0.074121	-0.616713	0.206512
H136	H	-0.106294	-0.603287	0.179446
H137	H	0.164745	-0.517463	0.353068
H138	H	0.332093	-0.491119	0.540748
O139	O	0.021912	-0.369128	0.347594
C140	C	0.062702	-0.369013	0.306631
H141	H	0.095332	-0.397095	0.317040
H142	H	0.058862	-0.377282	0.280832
C143	C	0.028288	-0.285293	0.269892
C144	C	0.068366	-0.319781	0.282677
H145	H	0.031782	-0.254925	0.255114
H146	H	0.000806	-0.285371	0.297488
H147	H	0.025093	-0.292191	0.248395
H148	H	0.071557	-0.312887	0.304178
H149	H	0.095849	-0.319701	0.255083
H150	H	0.164551	0.008603	0.352745
O151	O	-0.042286	-0.519256	0.939361
C152	C	-0.024986	-0.565938	0.939346
H153	H	0.015463	-0.578440	0.924411
H154	H	-0.037004	-0.590514	0.977226
C155	C	-0.094175	-0.551489	0.926676
C156	C	-0.044495	-0.566843	0.908329
H157	H	-0.106210	-0.552048	0.907545
H158	H	-0.105832	-0.520039	0.926688
H159	H	-0.104184	-0.571971	0.958242
H160	H	-0.034487	-0.546357	0.876766
H161	H	-0.032837	-0.598289	0.908311
O162	O	-0.063731	-0.484745	0.326458
C163	C	-0.046659	-0.464135	0.276666
H164	H	-0.016000	-0.492476	0.260684
H165	H	-0.076443	-0.448403	0.261871
C166	C	-0.066845	-0.389782	0.283478
C167	C	-0.029187	-0.424590	0.263849
H168	H	-0.056070	-0.365387	0.275571
H169	H	-0.078349	-0.403666	0.317024
H170	H	-0.091662	-0.376677	0.271147
H171	H	-0.004374	-0.437698	0.276184
H172	H	-0.017679	-0.410707	0.230304
H173	H	0.017768	-0.675232	0.307405
H174	H	0.138503	-0.605120	0.939399
O175	O	0.143646	-0.462017	0.939418
C176	C	0.126343	-0.415338	0.939443
H177	H	0.095849	-0.392869	0.924502
H178	H	0.113112	-0.416042	0.977337
C179	C	0.203961	-0.421349	0.926818
C180	C	0.166510	-0.393750	0.908463
H181	H	0.228738	-0.408032	0.907710
H182	H	0.215619	-0.452798	0.926803
H183	H	0.192929	-0.421933	0.958396
H184	H	0.177542	-0.393171	0.876889
H185	H	0.154856	-0.362301	0.908472
O186	O	0.549262	-0.397366	0.468852
C187	C	0.590124	-0.384542	0.436260
H188	H	0.618720	-0.414950	0.422313
H189	H	0.580822	-0.351468	0.405367
C190	C	0.573575	-0.336785	0.478362
C191	C	0.608698	-0.374134	0.461234
H192	H	0.585032	-0.330363	0.493766
H193	H	0.546045	-0.345423	0.500319
H194	H	0.565827	-0.309228	0.452614
H195	H	0.616442	-0.401692	0.486983
H196	H	0.636231	-0.365500	0.439283
H197	H	0.077330	-0.605181	0.528391
H198	H	-0.134345	-0.632833	0.408685
O199	O	0.044109	-0.376948	0.718527
C200	C	-0.002564	-0.369909	0.751157
H201	H	-0.002440	-0.399890	0.786585
H202	H	-0.016807	-0.334497	0.756455
C203	C	-0.034630	-0.332734	0.688274
C204	C	-0.034477	-0.369559	0.731786
H205	H	-0.054316	-0.332516	0.676324
H206	H	-0.003185	-0.337474	0.666290
H207	H	-0.046498	-0.303228	0.692695
H208	H	-0.022604	-0.399065	0.727363
H209	H	-0.065921	-0.364824	0.753769
H210	H	-0.064213	-0.463781	0.528541
H211	H	0.166612	-0.485121	0.812425
O212	O	0.021622	0.008133	0.347788
C213	C	0.010451	-0.032782	0.364171
H214	H	0.025796	-0.061358	0.393655
H215	H	-0.029763	-0.023548	0.378508
C216	C	0.012995	-0.016250	0.286663
C217	C	0.031846	-0.051349	0.322872
H218	H	0.026190	-0.027702	0.261188
H219	H	0.020520	0.011316	0.275625
H220	H	-0.020516	-0.008558	0.298616
H221	H	0.065355	-0.059036	0.310920
H222	H	0.024328	-0.078917	0.333907
O223	O	-0.071172	0.008251	0.534130
C224	C	-0.100741	0.008228	0.517063
H225	H	-0.087902	0.023174	0.476612
H226	H	-0.099454	-0.029667	0.529147
C227	C	-0.167893	0.020846	0.586422
C228	C	-0.152126	0.039207	0.536739
H229	H	-0.199590	0.039953	0.598560
H230	H	-0.147972	0.020860	0.597922
H231	H	-0.166817	-0.010733	0.596486
H232	H	-0.153197	0.070782	0.526676
H233	H	-0.172049	0.039198	0.525238
H234	H	0.196592	-0.455039	0.722237
O235	O	0.549405	-0.583811	0.561742
C236	C	0.549409	-0.566706	0.591294
H237	H	0.564322	-0.536200	0.568457
H238	H	0.511529	-0.553547	0.615305
C239	C	0.562122	-0.644474	0.650038
C240	C	0.580442	-0.607009	0.621989
H241	H	0.581262	-0.669335	0.668973
H242	H	0.562117	-0.655998	0.630129
H243	H	0.530556	-0.633503	0.670043
H244	H	0.612005	-0.617980	0.601980
H245	H	0.580452	-0.595488	0.641894
H246	H	0.049100	-0.381393	0.549936
O247	O	-0.063625	-0.484741	0.161952
C248	C	-0.092429	-0.459756	0.194533
H249	H	-0.110545	-0.483441	0.229953
H250	H	-0.069515	-0.449059	0.199873
C251	C	-0.108127	-0.385825	0.131557
C252	C	-0.130380	-0.414915	0.175060
H253	H	-0.131535	-0.358164	0.119545
H254	H	-0.088720	-0.402658	0.109606
H255	H	-0.089032	-0.376917	0.136013
H256	H	-0.149469	-0.423828	0.170602
H257	H	-0.149791	-0.398083	0.197010
H258	H	0.019013	-0.411451	0.519888
H259	H	0.549027	-0.402547	0.325928
O260	O	0.171420	-0.489528	0.441661
C261	C	0.218118	-0.496573	0.434595
H262	H	0.218032	-0.466601	0.440148
H263	H	0.232390	-0.531992	0.461039
C264	C	0.250072	-0.533723	0.376832
C265	C	0.249966	-0.496908	0.383649
H266	H	0.269718	-0.533932	0.345407
H267	H	0.218611	-0.528978	0.381593
H268	H	0.261964	-0.563235	0.398872
H269	H	0.238068	-0.467397	0.361614
H270	H	0.281426	-0.501648	0.378883
H271	H	0.196371	-0.454985	0.476195
H272	H	0.422274	-0.521162	0.510626
H273	H	0.422223	-0.375220	0.454977
O274	O	0.549258	-0.583519	0.411873
C275	C	0.549313	-0.624508	0.452642
H276	H	0.564290	-0.624094	0.475298
H277	H	0.511440	-0.625109	0.474106
C278	C	0.561905	-0.669542	0.409749
C279	C	0.580304	-0.669034	0.437574
H280	H	0.581021	-0.697008	0.400455
H281	H	0.561867	-0.641926	0.382282
H282	H	0.530345	-0.670040	0.427640
H283	H	0.611862	-0.668530	0.419680
H284	H	0.580349	-0.696651	0.465037
O285	O	0.328200	-0.337542	0.483966
C286	C	0.360787	-0.312903	0.459533
H287	H	0.396239	-0.338415	0.465247
H288	H	0.366044	-0.297448	0.419985
C289	C	0.297853	-0.241070	0.471532
C290	C	0.341394	-0.272403	0.478553
H291	H	0.285890	-0.216087	0.483262
H292	H	0.275898	-0.257669	0.487991
H293	H	0.302239	-0.228196	0.438574
H294	H	0.337006	-0.285281	0.511510
H295	H	0.363348	-0.255806	0.462100
O296	O	0.163942	-0.212710	0.434273
C297	C	0.170950	-0.180098	0.387586
H298	H	0.140967	-0.144666	0.387697
H299	H	0.206360	-0.174796	0.373318
C300	C	0.208102	-0.243015	0.355577
C301	C	0.171273	-0.199498	0.355713
H302	H	0.208303	-0.254982	0.335915
H303	H	0.203382	-0.264987	0.387031
H304	H	0.237606	-0.238591	0.343688
H305	H	0.141770	-0.203923	0.367608
H306	H	0.175988	-0.177527	0.324261
H307	H	0.055841	-0.118733	0.556693
O308	O	0.131265	-0.114723	0.401717
C309	C	0.156292	-0.085962	0.389684
H310	H	0.147348	-0.078521	0.422442
H311	H	0.196080	-0.105109	0.376013
C312	C	0.152948	-0.047873	0.310522
C313	C	0.141960	-0.038730	0.350755
H314	H	0.144110	-0.018739	0.286508
H315	H	0.136089	-0.067251	0.318628
H316	H	0.186105	-0.063829	0.299135
H317	H	0.108803	-0.022779	0.362145
H318	H	0.158814	-0.019348	0.342651
O319	O	0.084121	-0.212800	0.594408
C320	C	0.101135	-0.200622	0.615018
H321	H	0.131781	-0.186950	0.586688
H322	H	0.071316	-0.171762	0.630711
C323	C	0.080964	-0.261567	0.689396
C324	C	0.118607	-0.244778	0.654601
H325	H	0.091739	-0.288803	0.713814
H326	H	0.069499	-0.269770	0.675511
H327	H	0.056118	-0.237512	0.702468
H328	H	0.143449	-0.268830	0.641526
H329	H	0.130076	-0.236579	0.668485
O330	O	0.016342	-0.644893	0.162024
C331	C	-0.008780	-0.673587	0.174115
H332	H	-0.037758	-0.674036	0.210180
H333	H	-0.025601	-0.658622	0.146085
C334	C	0.061238	-0.723988	0.132171
C335	C	0.025648	-0.724543	0.176469
H336	H	0.082474	-0.755420	0.133621
H337	H	0.078163	-0.704656	0.124023
H338	H	0.047214	-0.711515	0.108817
H339	H	0.039671	-0.737010	0.199820
H340	H	0.008726	-0.743879	0.184620
O341	O	0.016015	-0.644893	0.406723
C342	C	0.023049	-0.691577	0.413753
H343	H	-0.006900	-0.691455	0.408132
H344	H	0.058485	-0.705854	0.387334
C345	C	0.060107	-0.723603	0.471614
C346	C	0.023320	-0.723453	0.464715
H347	H	0.060276	-0.743266	0.503049
H348	H	0.055369	-0.692151	0.466877
H349	H	0.089633	-0.735499	0.449595
H350	H	-0.006205	-0.711551	0.486729
H351	H	0.028053	-0.754904	0.469457
H352	H	-0.018278	-0.669778	0.256062
O353	O	0.055401	-0.769266	0.336353
C354	C	0.080057	-0.736703	0.312002
H355	H	0.058410	-0.701253	0.291594
H356	H	0.085775	-0.731424	0.338633
C357	C	0.155092	-0.799692	0.302062
C358	C	0.128506	-0.756152	0.276993
H359	H	0.184979	-0.811689	0.280468
H360	H	0.138481	-0.821631	0.318469
H361	H	0.159852	-0.795287	0.324253
H362	H	0.123741	-0.760559	0.254806
H363	H	0.145117	-0.734214	0.260581
O364	O	-0.135779	-0.671183	0.363847
C365	C	-0.150915	-0.683325	0.341470
H366	H	-0.119137	-0.697032	0.312137
H367	H	-0.167599	-0.712149	0.368700
C368	C	-0.226867	-0.622302	0.355898
C369	C	-0.187838	-0.639133	0.319867
H370	H	-0.249645	-0.595044	0.342573
H371	H	-0.216671	-0.614122	0.370975
H372	H	-0.240764	-0.646326	0.378586
H373	H	-0.173938	-0.615112	0.297183
H374	H	-0.198033	-0.647308	0.304785
O375	O	-0.103184	-0.769172	0.396572
C376	C	-0.090780	-0.797951	0.371392
H377	H	-0.069240	-0.783024	0.332751
H378	H	-0.068660	-0.835647	0.387955
C379	C	-0.162662	-0.816963	0.421169
C380	C	-0.136210	-0.798628	0.373709
H381	H	-0.190686	-0.817383	0.422600
H382	H	-0.171019	-0.797576	0.438135
H383	H	-0.144224	-0.848375	0.434967
H384	H	-0.154647	-0.767215	0.359914
H385	H	-0.127858	-0.818010	0.356741
H386	H	-0.091926	-0.522444	0.298262
O387	O	-0.228377	-0.604615	0.446298
C388	C	-0.195836	-0.633414	0.471333
H389	H	-0.160380	-0.651516	0.447662
H390	H	-0.190568	-0.610494	0.482089
C391	C	-0.258848	-0.649146	0.545196
C392	C	-0.215302	-0.671382	0.516125
H393	H	-0.270856	-0.672565	0.572828
H394	H	-0.280772	-0.629742	0.528331
H395	H	-0.254452	-0.630047	0.554155
H396	H	-0.219700	-0.690476	0.507162
H397	H	-0.193379	-0.690790	0.532990
H398	H	-0.091873	-0.522445	0.255974
H399	H	-0.224299	-0.529059	0.291228
H400	H	-0.018458	-0.669769	0.372051
