data_functionalizedCrystal
_audit_creation_method	'MofGen! by Chris Wilmer'
_symmetry_space_group_name_H-M	'P1'
_symmetry_Int_Tables_number	1
_symmetry_cell_setting	triclinic
loop_
_symmetry_equiv_pos_as_xyz
  x,y,z
_cell_length_a	19.805407
_cell_length_b	29.839131
_cell_length_c	19.805399
_cell_angle_alpha	89.969027
_cell_angle_beta	89.983114
_cell_angle_gamma	90.041420
loop_
_atom_site_label
_atom_site_type_symbol
_atom_site_fract_x
_atom_site_fract_y
_atom_site_fract_z
Zn1	Zn	1.034647	-0.178858	-0.382710
Zn2	Zn	1.534647	0.321142	0.117290
Zn3	Zn	1.034538	-0.253987	-0.269518
Zn4	Zn	1.534538	0.246013	0.230482
Zn5	Zn	0.921467	-0.178872	-0.269535
Zn6	Zn	1.421467	0.321128	0.230465
Zn7	Zn	0.921396	-0.253961	-0.382665
Zn8	Zn	1.421396	0.246039	0.117335
O9	O	0.978012	-0.216419	-0.326107
O10	O	1.478012	0.283581	0.173893
O11	O	1.129349	-0.188828	-0.367707
O12	O	1.629349	0.311172	0.132293
O13	O	1.019523	-0.244039	-0.174804
O14	O	1.519523	0.255961	0.325196
O15	O	0.936556	-0.116003	-0.284574
O16	O	1.436556	0.383997	0.215426
O17	O	1.129269	-0.244026	-0.284545
O18	O	1.629269	0.255974	0.215455
O19	O	1.019709	-0.115992	-0.367723
O20	O	1.519709	0.384008	0.132277
O21	O	0.936450	-0.188853	-0.174816
O22	O	1.436450	0.311147	0.325184
O23	O	0.826741	-0.188828	-0.284530
O24	O	1.326741	0.311172	0.215470
O25	O	0.936435	-0.243982	-0.477388
O26	O	1.436435	0.256018	0.022612
O27	O	0.826689	-0.243996	-0.367646
O28	O	1.326689	0.256004	0.132354
O29	O	1.019640	-0.188803	-0.477421
O30	O	1.519640	0.311197	0.022579
O31	O	1.019453	-0.316851	-0.284501
O32	O	1.519453	0.183149	0.215499
O33	O	0.936328	-0.316832	-0.367630
O34	O	1.436328	0.183168	0.132370
C35	C	0.802156	-0.216411	-0.326085
C36	C	1.302156	0.283589	0.173915
C37	C	0.726924	-0.216418	-0.326092
C38	C	1.226924	0.283582	0.173908
C39	C	0.691570	-0.245187	-0.369300
C40	C	1.191570	0.254813	0.130700
C41	C	0.620882	-0.245188	-0.369310
C42	C	1.120882	0.254812	0.130690
C43	C	0.585548	-0.216421	-0.326107
C44	C	1.085548	0.283579	0.173893
C45	C	0.620907	-0.187649	-0.282897
C46	C	1.120907	0.312351	0.217103
C47	C	0.691594	-0.187646	-0.282891
C48	C	1.191594	0.312354	0.217109
C49	C	0.335834	-0.187659	-0.282919
C50	C	0.835834	0.312341	0.217081
C51	C	0.265142	-0.187665	-0.282927
C52	C	0.765142	0.312335	0.217073
C53	C	0.265121	-0.245201	-0.369338
C54	C	0.765121	0.254799	0.130662
C55	C	0.335808	-0.245198	-0.369332
C56	C	0.835808	0.254802	0.130668
C57	C	0.371161	-0.216424	-0.326125
C58	C	0.871161	0.283576	0.173875
C59	C	0.447809	-0.216423	-0.326116
C60	C	0.947809	0.283577	0.173884
C61	C	0.508901	-0.216424	-0.326112
C62	C	1.008901	0.283576	0.173888
C63	C	0.977890	-0.333142	-0.326073
C64	C	1.477890	0.166858	0.173927
C65	C	0.977899	-0.383076	-0.326082
C66	C	1.477899	0.116924	0.173918
C67	C	1.021374	-0.692717	-0.282885
C68	C	1.521374	-0.192717	0.217115
C69	C	1.021457	-0.880390	-0.282912
C70	C	1.521457	-0.380390	0.217088
O71	O	1.058324	-0.904652	-0.246159
O72	O	1.558324	-0.404652	0.253841
N73	N	0.978152	-0.903861	-0.326158
N74	N	1.478152	-0.403861	0.173842
C75	C	0.934826	-0.880412	-0.369404
C76	C	1.434826	-0.380412	0.130596
O77	O	0.898000	-0.904682	-0.406194
O78	O	1.398000	-0.404682	0.093806
C79	C	0.934747	-0.692740	-0.369381
C80	C	1.434747	-0.192740	0.130619
C81	C	0.978050	-0.669271	-0.326127
C82	C	1.478050	-0.169271	0.173873
C83	C	1.064674	-0.669248	-0.239635
C84	C	1.564674	-0.169248	0.260365
C85	C	1.064650	-0.622332	-0.239626
C86	C	1.564650	-0.122332	0.260374
C87	C	1.021326	-0.598886	-0.282868
C88	C	1.521326	-0.098886	0.217132
C89	C	0.978026	-0.622355	-0.326118
C90	C	1.478026	-0.122355	0.173882
C91	C	0.891425	-0.669291	-0.412630
C92	C	1.391425	-0.169291	0.087370
C93	C	0.891410	-0.622370	-0.412621
C94	C	1.391410	-0.122370	0.087379
C95	C	0.934713	-0.598901	-0.369367
C96	C	1.434713	-0.098901	0.130633
C97	C	0.934678	-0.551993	-0.369351
C98	C	1.434678	-0.051993	0.130649
N99	N	0.977983	-0.528522	-0.326104
N100	N	1.477983	-0.028522	0.173896
C101	C	1.021307	-0.551968	-0.282863
C102	C	1.521307	-0.051968	0.217137
C103	C	0.934870	-0.978942	-0.369412
C104	C	1.434870	-0.478942	0.130588
C105	C	0.934889	-1.025860	-0.369418
C106	C	1.434889	-0.525860	0.130582
C107	C	1.021521	-1.025835	-0.282926
C108	C	1.521521	-0.525835	0.217074
C109	C	1.021498	-0.978916	-0.282918
C110	C	1.521498	-0.478916	0.217082
C111	C	0.978175	-0.955471	-0.326166
C112	C	1.478175	-0.455471	0.173834
C113	C	1.021253	-0.453442	-0.282847
C114	C	1.521253	0.046558	0.217153
C115	C	1.021223	-0.406523	-0.282840
C116	C	1.521223	0.093477	0.217160
C117	C	0.934594	-0.406552	-0.369334
C118	C	1.434594	0.093448	0.130666
C119	C	0.934621	-0.453467	-0.369339
C120	C	1.434621	0.046533	0.130661
C121	C	0.977956	-0.476911	-0.326093
C122	C	1.477956	0.023089	0.173907
O123	O	0.897836	-0.527702	-0.406090
O124	O	1.397836	-0.027702	0.093910
O125	O	1.058139	-0.527690	-0.246090
O126	O	1.558139	-0.027690	0.253910
C127	C	1.021398	-0.739632	-0.282894
C128	C	1.521398	-0.239632	0.217106
C129	C	0.978098	-0.763101	-0.326144
C130	C	1.478098	-0.263101	0.173856
C131	C	0.934774	-0.739655	-0.369386
C132	C	1.434774	-0.239655	0.130614
C133	C	0.978117	-0.810019	-0.326149
C134	C	1.478117	-0.310019	0.173851
C135	C	1.021440	-0.833466	-0.282908
C136	C	1.521440	-0.333466	0.217092
C137	C	1.064746	-0.809994	-0.239661
C138	C	1.564746	-0.309994	0.260339
C139	C	1.064722	-0.763079	-0.239653
C140	C	1.564722	-0.263079	0.260347
C141	C	0.891469	-0.763126	-0.412632
C142	C	1.391469	-0.263126	0.087368
C143	C	0.891496	-0.810042	-0.412637
C144	C	1.391496	-0.310042	0.087363
C145	C	0.934819	-0.833488	-0.369395
C146	C	1.434819	-0.333488	0.130605
C147	C	1.154555	-0.216428	-0.326129
C148	C	1.654555	0.283572	0.173871
C149	C	1.229787	-0.216432	-0.326139
C150	C	1.729787	0.283568	0.173861
C151	C	0.978042	-0.216388	-0.502650
C152	C	1.478042	0.283612	-0.002650
C153	C	0.978054	-0.216375	-0.577882
C154	C	1.478054	0.283625	-0.077882
C155	C	0.978153	-0.099241	-0.326156
C156	C	1.478153	0.400759	0.173844
C157	C	0.978213	-0.049307	-0.326176
C158	C	1.478213	0.450693	0.173824
C159	C	0.934811	-0.187636	-0.613232
C160	C	1.434811	0.312364	-0.113232
C161	C	0.934820	-0.187628	-0.683920
C162	C	1.434820	0.312372	-0.183920
C163	C	0.978077	-0.216355	-0.719258
C164	C	1.478077	0.283645	-0.219258
C165	C	1.021322	-0.245097	-0.683903
C166	C	1.521322	0.254903	-0.183903
C167	C	1.021309	-0.245108	-0.613215
C168	C	1.521309	0.254892	-0.113215
C169	C	1.021376	-0.245055	-0.968976
C170	C	1.521376	0.254945	-0.468976
C171	C	1.021387	-0.245041	-1.039668
C172	C	1.521387	0.254959	-0.539668
C173	C	0.934887	-0.187575	-1.039681
C174	C	1.434887	0.312425	-0.539681
C175	C	0.934874	-0.187586	-0.968994
C176	C	1.434874	0.312414	-0.468994
C177	C	0.978116	-0.216329	-0.933645
C178	C	1.478116	0.283671	-0.433645
C179	C	0.978105	-0.216339	-0.856997
C180	C	1.478105	0.283661	-0.356997
C181	C	0.978092	-0.216344	-0.795905
C182	C	1.478092	0.283656	-0.295905
C183	C	0.978021	-0.216418	-0.150251
C184	C	1.478021	0.283582	0.349749
C185	C	0.978140	-0.216305	-0.075019
C186	C	1.478140	0.283695	0.424981
H187	H	0.364573	-0.268624	-0.404510
H188	H	0.864573	0.231376	0.095490
N189	N	1.111398	-0.694534	-0.192987
N190	N	1.611398	-0.194534	0.307013
H191	H	1.142761	-0.713970	-0.220515
H192	H	1.642761	-0.213970	0.279485
H193	H	1.138776	-0.672513	-0.165599
H194	H	1.638776	-0.172513	0.334401
N195	N	0.227031	-0.156637	-0.236326
N196	N	0.727031	0.343363	0.263674
H197	H	0.239361	-0.124546	-0.246927
H198	H	0.739361	0.375454	0.253073
H199	H	0.176899	-0.161048	-0.242907
H200	H	0.676899	0.338952	0.257093
N201	N	0.887871	-0.381261	-0.415978
N202	N	1.387871	0.118739	0.084022
H203	H	0.839518	-0.389461	-0.405428
H204	H	1.339518	0.110539	0.094572
H205	H	0.894489	-0.347986	-0.409390
H206	H	1.394489	0.152014	0.090610
H207	H	0.899652	-0.164191	-0.940226
H208	H	1.399652	0.335809	-0.440226
N209	N	1.111479	-0.835285	-0.193023
N210	N	1.611479	-0.335285	0.306977
H211	H	1.100998	-0.827151	-0.144650
H212	H	1.600998	-0.327151	0.355350
H213	H	1.104900	-0.868560	-0.199652
H214	H	1.604900	-0.368560	0.300348
N215	N	0.887910	-0.478784	-0.415983
N216	N	1.387910	0.021216	0.084017
H217	H	0.860459	-0.456809	-0.443372
H218	H	1.360459	0.043191	0.056628
H219	H	0.915453	-0.498215	-0.447338
H220	H	1.415453	0.001785	0.052662
H221	H	0.856132	-0.603282	-0.447842
H222	H	1.356132	-0.103282	0.052158
N223	N	1.067938	-0.381212	-0.236192
N224	N	1.567938	0.118788	0.263808
H225	H	1.061352	-0.347931	-0.242744
H226	H	1.561352	0.152069	0.257256
H227	H	1.057441	-0.389442	-0.187843
H228	H	1.557441	0.110558	0.312157
N229	N	0.844780	-0.835348	-0.459290
N230	N	1.344780	-0.335348	0.040710
H231	H	0.855261	-0.827151	-0.507657
H232	H	1.355261	-0.327151	-0.007657
H233	H	0.851383	-0.868622	-0.452685
H234	H	1.351383	-0.368622	0.047315
H235	H	1.056760	-0.959811	-0.247697
H236	H	1.556760	-0.459811	0.252303
N237	N	1.068018	-0.276048	-0.930848
N238	N	1.568018	0.223952	-0.430848
H239	H	1.040481	-0.296871	-0.901508
H240	H	1.540481	0.203129	-0.401508
H241	H	1.095419	-0.294215	-0.963998
H242	H	1.595419	0.205785	-0.463998
H243	H	0.899675	-0.164172	-1.068471
H244	H	1.399675	0.335828	-0.568471
H245	H	1.099983	-0.743974	-0.204431
H246	H	1.599983	-0.243974	0.295569
N247	N	1.068039	-0.276029	-1.077789
N248	N	1.568039	0.223971	-0.577789
H249	H	1.116408	-0.269061	-1.065497
H250	H	1.616408	0.230939	-0.565497
H251	H	1.057423	-0.308117	-1.065461
H252	H	1.557423	0.191883	-0.565461
H253	H	1.056539	-0.268490	-0.712680
H254	H	1.556539	0.231510	-0.212680
N255	N	0.226991	-0.276236	-0.415943
N256	N	0.726991	0.223764	0.084057
H257	H	0.176850	-0.271874	-0.409395
H258	H	0.676850	0.228126	0.090605
H259	H	0.239374	-0.269287	-0.464302
H260	H	0.739374	0.230713	0.035698
H261	H	0.364609	-0.164233	-0.247732
H262	H	0.864609	0.335767	0.252268
N263	N	0.582753	-0.276224	-0.415906
N264	N	1.082753	0.223776	0.084094
H265	H	0.553455	-0.258000	-0.447333
H266	H	1.053455	0.242000	0.052667
H267	H	0.615908	-0.294442	-0.443222
H268	H	1.115908	0.205558	0.056778
H269	H	1.056527	-0.268506	-0.584434
H270	H	1.556527	0.231494	-0.084434
N271	N	0.888176	-1.051166	-0.416068
N272	N	1.388176	-0.551166	0.083932
H273	H	0.915668	-1.070601	-0.447465
H274	H	1.415668	-0.570601	0.052535
H275	H	0.856840	-1.070638	-0.388491
H276	H	1.356840	-0.570638	0.111509
H277	H	0.592133	-0.164225	-0.247723
H278	H	1.092133	0.335775	0.252277
N279	N	0.729729	-0.156614	-0.236293
N280	N	1.229729	0.343386	0.263707
H281	H	0.696621	-0.138390	-0.208924
H282	H	1.196621	0.361610	0.291076
H283	H	0.759031	-0.174870	-0.204916
H284	H	1.259031	0.325130	0.295084
H285	H	0.899590	-0.164240	-0.584465
H286	H	1.399590	0.335760	-0.084465
N287	N	1.067992	-0.478725	-0.236205
N288	N	1.567992	0.021275	0.263795
H289	H	1.095414	-0.456732	-0.208808
H290	H	1.595414	0.043268	0.291192
H291	H	1.040471	-0.498223	-0.204858
H292	H	1.540471	0.001777	0.295142
N293	N	1.111365	-0.597023	-0.192984
N294	N	1.611365	-0.097023	0.307016
H295	H	1.138815	-0.619001	-0.165600
H296	H	1.638815	-0.119001	0.334400
H297	H	1.142662	-0.577528	-0.220569
H298	H	1.642662	-0.077528	0.279431
H299	H	0.720333	-0.268614	-0.404479
H300	H	1.220333	0.231386	0.095521
H301	H	0.899590	-0.959856	-0.404631
H302	H	1.399590	-0.459856	0.095369
N303	N	1.068248	-1.051128	-0.236284
N304	N	1.568248	-0.551128	0.263716
H305	H	1.061685	-1.084411	-0.242854
H306	H	1.561685	-0.584411	0.257146
H307	H	1.116578	-1.042893	-0.246867
H308	H	1.616578	-0.542893	0.253133
H309	H	0.856159	-0.688391	-0.447849
H310	H	1.356159	-0.188391	0.052151
H311	H	0.856190	-0.744040	-0.447845
H312	H	1.356190	-0.244040	0.052155
H313	H	0.899604	-0.164228	-0.712699
H314	H	1.399604	0.335772	-0.212699
