data_functionalizedCrystal
_audit_creation_method	'MofGen! by Chris Wilmer'
_symmetry_space_group_name_H-M	'P1'
_symmetry_Int_Tables_number	1
_symmetry_cell_setting	triclinic
loop_
_symmetry_equiv_pos_as_xyz
  x,y,z
_cell_length_a	15.995292
_cell_length_b	15.995292
_cell_length_c	13.930277
_cell_angle_alpha	89.998637
_cell_angle_beta	89.991610
_cell_angle_gamma	83.468616
loop_
_atom_site_label
_atom_site_type_symbol
_atom_site_fract_x
_atom_site_fract_y
_atom_site_fract_z
O1	O	1.110997	0.107697	-0.079850
O2	O	0.867212	0.121076	-0.079845
O3	O	0.995794	-0.007506	-0.079849
O4	O	0.982415	0.236279	-0.079846
O5	O	0.995776	-0.007509	0.079813
O6	O	0.867194	0.121073	0.079817
O7	O	1.110979	0.107694	0.079812
Zn8	Zn	0.989084	0.114383	0.105164
Zn9	Zn	0.989107	0.114387	-0.105197
O10	O	0.982397	0.236276	0.079816
C11	C	0.836008	0.120530	-0.000014
C12	C	0.743055	0.118898	-0.000012
C13	C	0.405318	0.112896	-0.000023
C14	C	0.428611	0.205703	-0.000379
C15	C	0.525286	0.207467	-0.000015
C16	C	0.572873	0.115874	-0.000018
C17	C	0.543771	0.069473	0.091152
C18	C	0.446980	0.068356	0.091225
C19	C	0.447146	0.066464	-0.090341
C20	C	0.543638	0.069903	-0.091542
C21	C	0.667569	0.117552	-0.000013
C22	C	0.310622	0.111215	-0.000023
C23	C	0.995240	-0.038703	-0.000021
C24	C	0.993608	-0.131655	-0.000028
C25	C	0.987607	-0.469393	-0.000019
C26	C	1.080413	-0.446100	0.000336
C27	C	1.082177	-0.349424	-0.000027
C28	C	0.990584	-0.301837	-0.000023
C29	C	0.944196	-0.330927	-0.091194
C30	C	0.943078	-0.427717	-0.091267
C31	C	0.941163	-0.427577	0.090299
C32	C	0.944602	-0.331085	0.091500
C33	C	0.992263	-0.207141	-0.000028
C34	C	0.985926	-0.564088	-0.000020
C35	C	1.142183	0.108240	-0.000022
C36	C	1.235136	0.109873	-0.000029
C37	C	0.982951	0.267473	-0.000015
C38	C	0.984583	0.360426	-0.000014
N39	N	0.989074	0.114380	0.248730
N40	N	0.989124	0.114383	-0.248763
C41	C	0.932169	0.171301	0.701001
C42	C	1.046069	0.057467	0.700967
C43	C	1.046059	0.057464	0.600471
C44	C	0.989104	0.114381	0.550236
C45	C	0.932159	0.171301	0.600496
C46	C	1.103008	0.000551	0.550204
C47	C	1.103001	0.000547	0.449702
C48	C	1.046041	0.057461	0.399464
C49	C	0.989094	0.114382	0.449731
C50	C	0.932139	0.171299	0.399495
C51	C	0.875187	0.228218	0.449760
C52	C	0.875200	0.228215	0.550259
C53	C	1.046029	0.057463	0.298965
C54	C	0.932129	0.171300	0.298990
H55	H	0.544312	0.243801	-0.065372
C56	C	1.131260	-0.323732	0.088262
N57	N	1.168234	-0.304385	0.154763
C58	C	0.848880	-0.446472	0.091143
N59	N	0.779376	-0.460712	0.091775
C60	C	0.869494	0.233936	0.243739
N61	N	0.822326	0.281123	0.202125
H62	H	1.092444	0.011130	0.741872
C63	C	0.853143	-0.287851	-0.095777
N64	N	0.784563	-0.255402	-0.099229
C65	C	0.987739	-0.303843	-0.182861
N66	N	1.020542	-0.283447	-0.251902
H67	H	1.149383	-0.045786	0.591108
H68	H	0.970382	-0.455673	0.159406
H69	H	1.149373	-0.045800	0.408782
H70	H	0.400615	0.241476	-0.065762
C71	C	0.389394	0.253761	0.087459
N72	N	0.359855	0.289955	0.153620
H73	H	1.116178	-0.474105	0.065718
C74	C	1.131565	-0.324565	-0.088479
N75	N	1.168763	-0.305842	-0.155106
H76	H	0.828817	0.274564	0.408847
H77	H	0.978380	-0.312528	0.158948
C78	C	0.550133	0.256840	0.088439
N79	N	0.568848	0.294026	0.155069
C80	C	0.570840	0.113006	0.182819
N81	N	0.591224	0.145802	0.251861
C82	C	0.408983	0.105749	-0.183698
N83	N	0.380239	0.135350	-0.254011
C84	C	1.128483	-0.485306	-0.087501
N85	N	1.164686	-0.514837	-0.153661
C86	C	0.410728	0.111782	0.183289
N87	N	0.383427	0.144498	0.252630
H88	H	0.828832	0.274557	0.591190
H89	H	1.092402	0.011125	0.258045
C90	C	0.854281	-0.286530	0.098943
N91	N	0.786248	-0.252972	0.104540
H92	H	0.432444	0.000310	0.095364
C93	C	0.586870	-0.021570	0.095755
N94	N	0.619343	-0.090140	0.099227
C95	C	0.851154	-0.447358	-0.096871
N96	N	0.781917	-0.462147	-0.101101
C97	C	0.588189	-0.020418	-0.098980
N98	N	0.621743	-0.088453	-0.104573
C99	C	0.568732	0.115539	-0.182663
N100	N	0.587641	0.149911	-0.251294
C101	C	0.428259	-0.025821	-0.091180
N102	N	0.414027	-0.095327	-0.091805
C103	C	0.986513	-0.463956	-0.183333
N104	N	1.019234	-0.491248	-0.252677
H105	H	0.885797	0.217641	0.741929
