data_functionalizedCrystal
_audit_creation_method	'MofGen! by Chris Wilmer'
_symmetry_space_group_name_H-M	'P1'
_symmetry_Int_Tables_number	1
_symmetry_cell_setting	triclinic
loop_
_symmetry_equiv_pos_as_xyz
  x,y,z
_cell_length_a	17.699083
_cell_length_b	9.616153
_cell_length_c	17.699083
_cell_angle_alpha	89.996845
_cell_angle_beta	96.716985
_cell_angle_gamma	90.000830
loop_
_atom_site_label
_atom_site_type_symbol
_atom_site_fract_x
_atom_site_fract_y
_atom_site_fract_z
O1	O	1.004079	0.115453	-0.095708
O2	O	1.504079	0.615453	0.404292
O3	O	0.783700	0.115499	-0.108161
O4	O	1.283700	0.615499	0.391839
O5	O	0.900116	0.115463	0.008255
O6	O	1.400116	0.615463	0.508255
O7	O	0.887663	0.115490	-0.212124
O8	O	1.387663	0.615490	0.287876
O9	O	0.900100	-0.115829	0.008252
O10	O	1.400100	0.384171	0.508252
O11	O	0.783684	-0.115792	-0.108163
O12	O	1.283684	0.384208	0.391837
O13	O	1.004063	-0.115838	-0.095711
O14	O	1.504063	0.384162	0.404289
Zn15	Zn	0.893871	-0.152538	-0.101937
Zn16	Zn	1.393871	0.347462	0.398063
Zn17	Zn	0.893892	0.152199	-0.101934
Zn18	Zn	1.393892	0.652199	0.398066
O19	O	0.887647	-0.115801	-0.212126
O20	O	1.387647	0.384199	0.287874
C21	C	0.755495	-0.000141	-0.107716
C22	C	1.255495	0.499859	0.392284
C23	C	0.671477	-0.000123	-0.106377
C24	C	1.171477	0.499877	0.393623
N25	N	0.893862	-0.360512	-0.101939
N26	N	1.393862	0.139488	0.398061
C27	C	0.622856	-0.000115	-0.174710
C28	C	1.122856	0.499885	0.325290
C29	C	0.543913	-0.000134	-0.173448
C30	C	1.043913	0.499866	0.326552
C31	C	0.513592	-0.000150	-0.103852
C32	C	1.013592	0.499850	0.396148
C33	C	0.562219	-0.000162	-0.035513
C34	C	1.062219	0.499838	0.464487
C35	C	0.641161	-0.000154	-0.036776
C36	C	1.141161	0.499846	0.463224
C37	C	0.243856	-0.000197	-0.030418
C38	C	0.743856	0.499803	0.469582
C39	C	0.164908	-0.000201	-0.029160
C40	C	0.664908	0.499799	0.470840
C41	C	0.146608	-0.000177	-0.167090
C42	C	0.646608	0.499823	0.332910
C43	C	0.225550	-0.000169	-0.168353
C44	C	0.725550	0.499831	0.331647
C45	C	0.274170	-0.000188	-0.100015
C46	C	0.774170	0.499812	0.399985
C47	C	0.359769	-0.000171	-0.101384
C48	C	0.859769	0.499829	0.398616
C49	C	0.427995	-0.000157	-0.102481
C50	C	0.927995	0.499843	0.397519
C51	C	0.831402	-0.580862	-0.164009
C52	C	1.331402	-0.080862	0.335991
C53	C	0.831535	-0.419695	-0.164238
C54	C	1.331535	0.080305	0.335762
C55	C	0.972805	-0.418976	-0.119044
C56	C	1.472805	0.081024	0.380956
C57	C	0.972464	-0.580193	-0.119482
C58	C	1.472464	-0.080193	0.380518
C59	C	0.878170	-0.580429	-0.022555
C60	C	1.378170	-0.080429	0.477445
C61	C	0.876348	-0.419202	-0.023090
C62	C	1.376348	0.080798	0.476910
C63	C	1.032268	-0.000195	-0.096156
C64	C	1.532268	0.499805	0.403844
C65	C	1.116286	-0.000203	-0.097494
C66	C	1.616286	0.499797	0.402506
C67	C	0.899662	-0.000183	0.036451
C68	C	1.399662	0.499817	0.536451
C69	C	0.898323	-0.000183	0.120469
C70	C	1.398323	0.499817	0.620469
N71	N	0.893907	0.360173	-0.101926
N72	N	1.393907	0.860173	0.398074
C73	C	0.888102	-0.000153	-0.240322
C74	C	1.388102	0.499847	0.259678
C75	C	0.889440	-0.000143	-0.324340
C76	C	1.389440	0.499857	0.175660
C77	C	0.966656	-0.000199	0.169090
C78	C	1.466656	0.499801	0.669090
C79	C	0.965394	-0.000187	0.248033
C80	C	1.465394	0.499813	0.748033
C81	C	0.895798	-0.000168	0.278354
C82	C	1.395798	0.499832	0.778354
C83	C	0.827459	-0.000148	0.229727
C84	C	1.327459	0.499852	0.729727
C85	C	0.828722	-0.000150	0.150785
C86	C	1.328722	0.499850	0.650785
C87	C	0.822364	-0.000135	0.548090
C88	C	1.322364	0.499865	1.048090
C89	C	0.821106	-0.000137	0.627038
C90	C	1.321106	0.499863	1.127038
C91	C	0.959036	-0.000172	0.645338
C92	C	1.459036	0.499828	1.145338
C93	C	0.960299	-0.000175	0.566396
C94	C	1.460299	0.499825	1.066396
C95	C	0.891961	-0.000147	0.517776
C96	C	1.391961	0.499853	1.017776
C97	C	0.893330	-0.000158	0.432177
C98	C	1.393330	0.499842	0.932177
C99	C	0.894427	-0.000167	0.363951
C100	C	1.394427	0.499833	0.863951
H101	H	0.647537	-0.000101	-0.231384
H102	H	1.147537	0.499899	0.268616
H103	H	0.283434	-0.000214	0.025228
H104	H	0.783434	0.499786	0.525228
F105	F	0.529948	-0.000188	0.038557
F106	F	1.029948	0.499812	0.538557
H107	H	0.766718	-0.000113	0.508512
H108	H	1.266718	0.499887	1.008512
H109	H	0.772851	-0.380169	-0.154068
H110	H	1.272851	0.119831	0.345932
H111	H	0.818278	-0.380991	-0.010106
H112	H	1.318278	0.119009	0.489894
H113	H	0.918923	-0.378921	0.025261
H114	H	1.418923	0.121079	0.525261
F115	F	0.937750	-0.630268	0.037830
F116	F	1.437750	-0.130268	0.537830
F117	F	0.991394	-0.366180	-0.193836
F118	F	1.491394	0.133820	0.306164
H119	H	0.764429	-0.000124	0.651721
H120	H	1.264429	0.499876	1.151721
H121	H	0.107012	-0.000168	-0.222734
H122	H	0.607012	0.499832	0.277266
F123	F	0.132641	-0.000219	0.044918
F124	F	0.632641	0.499781	0.544918
F125	F	1.034373	-0.000193	0.534131
F126	F	1.534373	0.499807	1.034131
H127	H	0.821868	-0.621157	-0.006070
H128	H	1.321868	-0.121157	0.493930
H129	H	1.023330	-0.000223	0.144409
H130	H	1.523330	0.499777	0.644409
H131	H	0.680748	-0.000159	0.018868
H132	H	1.180748	0.499841	0.518868
H133	H	0.770792	-0.000124	0.254420
H134	H	1.270792	0.499876	0.754420
H135	H	1.020417	-0.380638	-0.075024
H136	H	1.520417	0.119362	0.424976
H137	H	1.021038	-0.000203	0.287618
H138	H	1.521038	0.499797	0.787618
F139	F	0.754450	-0.631550	-0.150928
F140	F	1.254450	-0.131550	0.349072
H141	H	1.014680	-0.000187	0.684934
H142	H	1.514680	0.499813	1.184934
H143	H	0.773078	-0.000137	0.111198
H144	H	1.273078	0.499863	0.611198
H145	H	0.250232	-0.000149	-0.225025
H146	H	0.750232	0.499851	0.274975
F147	F	0.492170	-0.000119	-0.246178
F148	F	0.992170	0.499881	0.253822
H149	H	0.841296	-0.621356	-0.222581
H150	H	1.341296	-0.121356	0.277419
H151	H	0.841565	-0.381111	-0.223142
H152	H	1.341565	0.118889	0.276858
F153	F	0.990617	-0.629323	-0.195136
F154	F	1.490617	-0.129323	0.304864
H155	H	1.020420	-0.619196	-0.076039
H156	H	1.520420	-0.119196	0.423961
