data_functionalizedCrystal
_audit_creation_method	'MofGen! by Chris Wilmer'
_symmetry_space_group_name_H-M	'P1'
_symmetry_Int_Tables_number	1
_symmetry_cell_setting	triclinic
loop_
_symmetry_equiv_pos_as_xyz
  x,y,z
_cell_length_a	13.033286
_cell_length_b	18.101395
_cell_length_c	13.033109
_cell_angle_alpha	97.152016
_cell_angle_beta	90.884484
_cell_angle_gamma	82.862374
loop_
_atom_site_label
_atom_site_type_symbol
_atom_site_fract_x
_atom_site_fract_y
_atom_site_fract_z
Zn1	Zn	1.645772	-0.477106	-0.381359
Zn2	Zn	1.623788	-0.583508	-0.209405
Zn3	Zn	1.451985	-0.446208	-0.231298
Zn4	Zn	1.473740	-0.587408	-0.403195
O5	O	1.548821	-0.523558	-0.306314
O6	O	1.786751	-0.502519	-0.340248
O7	O	1.582693	-0.550732	-0.068406
O8	O	1.477787	-0.346685	-0.251228
O9	O	1.770600	-0.580692	-0.213914
O10	O	1.620161	-0.369385	-0.361477
O11	O	1.456470	-0.449858	-0.084491
O12	O	1.310975	-0.453640	-0.272401
O13	O	1.514865	-0.587339	-0.544202
O14	O	1.326958	-0.557379	-0.398693
O15	O	1.641256	-0.506301	-0.528159
O16	O	1.603788	-0.687647	-0.235088
O17	O	1.493548	-0.690513	-0.377464
C18	C	1.281656	-0.502580	-0.340293
C19	C	1.167365	-0.493626	-0.354853
C20	C	1.108407	-0.528233	-0.298741
C21	C	0.990280	-0.518980	-0.313788
C22	C	1.548674	-0.715953	-0.306289
C23	C	1.548710	-0.798271	-0.306300
C24	C	1.548833	-0.948993	-0.306326
C25	C	1.479424	-0.982171	-0.395850
C26	C	1.479767	-1.067846	-0.396147
C27	C	1.548952	-1.097388	-0.306352
C28	C	1.661061	-1.077666	-0.321708
C29	C	1.660605	-0.992036	-0.322328
C30	C	1.507080	-0.967413	-0.201132
C31	C	1.504832	-1.052944	-0.202031
C32	C	1.549026	-1.181255	-0.306364
C33	C	1.548766	-0.865126	-0.306316
C34	C	1.817029	-0.544617	-0.272204
C35	C	1.931324	-0.553592	-0.257668
C36	C	1.582939	-0.550702	-0.574536
C37	C	1.597478	-0.562269	-0.688836
C38	C	1.549000	-0.330416	-0.306359
C39	C	1.549076	-0.248110	-0.306378
C40	C	1.541508	-0.517515	-0.747753
C41	C	1.556533	-0.529470	-0.865888
C42	C	1.514895	-0.496470	-0.039128
C43	C	1.500555	-0.484710	0.075196
H44	H	0.968295	-0.590080	-0.198491
H45	H	1.130389	-0.457150	-0.414037
H46	H	1.482461	-0.470353	-0.710736
H47	H	1.397077	-1.080782	-0.388154
N48	N	1.426491	-0.425535	-0.878366
N49	N	1.455143	-0.375167	-0.813812
H50	H	1.402837	-0.333375	-0.781014
N51	N	1.154763	-0.574005	-0.224496
N52	N	1.143651	-0.642090	-0.232655
H53	H	1.176385	-0.674418	-0.180217
N54	N	1.703830	-1.116858	-0.416500
N55	N	1.793081	-1.108621	-0.442947
H56	H	1.823283	-1.136298	-0.509897
H57	H	1.422259	-1.064847	-0.190194
H58	H	1.396473	-0.953496	-0.388099
N59	N	0.943909	-0.473228	-0.388053
N60	N	0.892283	-0.501327	-0.461098
H61	H	0.859530	-0.469017	-0.513549
N62	N	1.515877	-1.105584	-0.494274
N63	N	1.458990	-1.145036	-0.549348
H64	H	1.484499	-1.171691	-0.618652
H65	H	1.507893	-0.970159	-0.473644
N66	N	1.702944	-0.979352	-0.418269
N67	N	1.732621	-1.033680	-0.484305
H68	H	1.762523	-1.024726	-0.552067
N69	N	1.630626	-0.588630	-0.912312
N70	N	1.724011	-0.589964	-0.888334
H71	H	1.776341	-0.631744	-0.921123
N72	N	1.671536	-0.621440	-0.735281
N73	N	1.683634	-0.631070	-0.831181
H74	H	1.735938	-0.672862	-0.863983
N75	N	1.728642	-0.964998	-0.243125
N76	N	1.776316	-1.009375	-0.187573
H77	H	1.824370	-0.990283	-0.131639
H78	H	1.550599	-1.072224	-0.132899
H79	H	1.714822	-1.097093	-0.257913
N80	N	1.405326	-0.929364	-0.180184
N81	N	1.362340	-0.888204	-0.242540
H82	H	1.290475	-0.861329	-0.227755
H83	H	1.557458	-0.945665	-0.134603
