data_functionalizedCrystal
_audit_creation_method	'MofGen! by Chris Wilmer'
_symmetry_space_group_name_H-M	'P1'
_symmetry_Int_Tables_number	1
_symmetry_cell_setting	triclinic
loop_
_symmetry_equiv_pos_as_xyz
  x,y,z
_cell_length_a	16.109302
_cell_length_b	19.188924
_cell_length_c	15.186229
_cell_angle_alpha	89.994194
_cell_angle_beta	89.994701
_cell_angle_gamma	83.301872
loop_
_atom_site_label
_atom_site_type_symbol
_atom_site_fract_x
_atom_site_fract_y
_atom_site_fract_z
O1	O	1.102830	0.089747	-0.073272
O2	O	0.860731	0.100915	-0.073266
O3	O	0.988770	-0.006309	-0.073259
O4	O	0.974791	0.196970	-0.073279
O5	O	0.988762	-0.006311	0.073199
O6	O	0.860722	0.100913	0.073192
O7	O	1.102822	0.089745	0.073185
Zn8	Zn	0.981771	0.095329	0.096442
Zn9	Zn	0.981782	0.095331	-0.096522
O10	O	0.974783	0.196969	0.073178
C11	C	0.829753	0.100461	-0.000036
C12	C	0.737463	0.099105	-0.000033
C13	C	0.525128	0.095967	0.079792
C14	C	0.438412	0.094685	0.079789
C15	C	0.438432	0.094690	-0.079887
C16	C	0.525147	0.095968	-0.079883
C17	C	0.568492	0.096609	-0.000041
C18	C	0.395061	0.094050	-0.000048
C19	C	0.301040	0.092660	-0.000051
C20	C	0.662519	0.097998	-0.000037
C21	C	0.988314	-0.032322	-0.000029
C22	C	0.986958	-0.109830	-0.000027
C23	C	0.986330	-0.146229	-0.079861
C24	C	0.985044	-0.219055	-0.079868
C25	C	0.984403	-0.255480	-0.000036
C26	C	0.985027	-0.219071	0.079809
C27	C	0.986304	-0.146246	0.079813
N28	N	1.029706	-0.375038	0.059380
N29	N	1.028494	-0.444219	0.059371
C30	C	0.980552	-0.474898	-0.000044
N31	N	0.933878	-0.433784	-0.059462
N32	N	0.935093	-0.364597	-0.059455
C33	C	0.983017	-0.334447	-0.000032
C34	C	0.978528	-0.590264	-0.079891
C35	C	0.977237	-0.663090	-0.079894
C36	C	0.977228	-0.663106	0.079785
C37	C	0.978511	-0.590280	0.079786
C38	C	0.979165	-0.553864	-0.000055
C39	C	1.133799	0.090198	-0.000046
C40	C	1.226090	0.091555	-0.000055
C41	C	0.975239	0.222982	-0.000053
C42	C	0.976595	0.300490	-0.000061
N43	N	0.981769	0.095327	0.228134
N44	N	0.981790	0.095327	-0.228215
C45	C	1.038484	0.047864	0.453860
C46	C	1.038487	0.047863	0.546050
C47	C	0.925069	0.142792	0.546053
C48	C	0.925063	0.142790	0.453865
C49	C	0.981775	0.095327	0.407771
C50	C	0.981784	0.095327	0.592148
C51	C	0.981786	0.095326	0.692105
C52	C	0.981772	0.095327	0.307808
H53	H	0.403129	0.094169	-0.144891
H54	H	0.984502	-0.248733	0.144809
H55	H	0.986812	-0.116610	0.144826
C56	C	0.572850	0.096677	-0.167703
H57	H	0.534615	0.096122	-0.215255
H58	H	0.613169	0.056484	-0.171018
H59	H	0.600185	0.137872	-0.171019
C60	C	0.862688	0.195004	0.403159
H61	H	0.870804	0.188200	0.341654
H62	H	0.871548	0.241605	0.418257
H63	H	0.807227	0.187408	0.418274
H64	H	0.979029	-0.560644	0.144795
C65	C	1.100857	-0.004348	0.403160
H66	H	1.134625	-0.032620	0.443816
H67	H	1.135372	0.020772	0.367185
H68	H	1.071048	-0.033423	0.367210
C69	C	1.100869	-0.004343	0.596744
H70	H	1.134645	-0.032605	0.556086
H71	H	1.071076	-0.033417	0.632717
H72	H	1.135387	0.020788	0.632696
C73	C	0.976516	-0.703164	0.167598
H74	H	0.975668	-0.751751	0.156163
H75	H	0.928251	-0.685893	0.200401
H76	H	1.025201	-0.696573	0.200404
H77	H	0.976721	-0.692725	-0.144907
C78	C	0.862699	0.195003	0.596759
H79	H	0.870829	0.188213	0.658264
H80	H	0.807240	0.187410	0.581664
H81	H	0.871563	0.241605	0.581638
C82	C	0.987034	-0.106174	-0.167681
H83	H	0.986468	-0.138286	-0.215229
H84	H	1.036002	-0.083097	-0.171004
H85	H	0.939051	-0.072431	-0.170995
C86	C	0.979237	-0.550202	-0.167709
H87	H	0.978667	-0.582312	-0.215258
H88	H	1.028210	-0.527131	-0.171029
H89	H	0.931259	-0.516454	-0.171023
H90	H	0.403109	0.094162	0.144797
C91	C	0.572808	0.096653	0.167614
H92	H	0.534561	0.096077	0.215158
H93	H	0.600152	0.137838	0.170947
H94	H	0.613120	0.056450	0.170924
H95	H	0.984527	-0.248697	-0.144880
