data_functionalizedCrystal
_audit_creation_method	'MofGen! by Chris Wilmer'
_symmetry_space_group_name_H-M	'P1'
_symmetry_Int_Tables_number	1
_symmetry_cell_setting	triclinic
loop_
_symmetry_equiv_pos_as_xyz
  x,y,z
_cell_length_a	29.839134
_cell_length_b	29.839131
_cell_length_c	18.101390
_cell_angle_alpha	89.964306
_cell_angle_beta	89.972820
_cell_angle_gamma	90.036281
loop_
_atom_site_label
_atom_site_type_symbol
_atom_site_fract_x
_atom_site_fract_y
_atom_site_fract_z
Zn1	Zn	0.686743	-0.178898	-0.418911
Zn2	Zn	1.186743	0.321102	0.081089
Zn3	Zn	0.686668	-0.254034	-0.295063
Zn4	Zn	1.186668	0.245966	0.204937
Zn5	Zn	0.611619	-0.178912	-0.295063
Zn6	Zn	1.111619	0.321088	0.204937
Zn7	Zn	0.611573	-0.253995	-0.418842
Zn8	Zn	1.111573	0.246005	0.081158
O9	O	0.649151	-0.216460	-0.356970
O10	O	1.149151	0.283540	0.143030
O11	O	0.749600	-0.188875	-0.402511
O12	O	1.249600	0.311125	0.097489
O13	O	0.676700	-0.244091	-0.191430
O14	O	1.176700	0.255909	0.308570
O15	O	0.621634	-0.116043	-0.311520
O16	O	1.121634	0.383957	0.188480
O17	O	0.749545	-0.244077	-0.311521
O18	O	1.249545	0.255923	0.188479
O19	O	0.676828	-0.116033	-0.402511
O20	O	1.176828	0.383967	0.097489
O21	O	0.621562	-0.188899	-0.191430
O22	O	1.121562	0.311101	0.308570
O23	O	0.548746	-0.188861	-0.311453
O24	O	1.048746	0.311139	0.188547
O25	O	0.621557	-0.244011	-0.522484
O26	O	1.121557	0.255989	-0.022484
O27	O	0.548712	-0.244025	-0.402394
O28	O	1.048712	0.255975	0.097606
O29	O	0.676784	-0.188838	-0.522535
O30	O	1.176784	0.311162	-0.022535
O31	O	0.676656	-0.316896	-0.311454
O32	O	1.176656	0.183104	0.188546
O33	O	0.621484	-0.316867	-0.402394
O34	O	1.121484	0.183133	0.097606
C35	C	0.532428	-0.216441	-0.356916
C36	C	1.032428	0.283559	0.143084
C37	C	0.482494	-0.216443	-0.356911
C38	C	0.982494	0.283557	0.143089
C39	C	0.649070	-0.333182	-0.356933
C40	C	1.149070	0.166818	0.143067
C41	C	0.649076	-0.383117	-0.356942
C42	C	1.149076	0.116883	0.143058
C43	C	0.677931	-0.692762	-0.309687
C44	C	1.177931	-0.192762	0.190313
C45	C	0.677986	-0.880435	-0.309715
C46	C	1.177986	-0.380435	0.190285
O47	O	0.702455	-0.904702	-0.269509
O48	O	1.202455	-0.404702	0.230491
N49	N	0.649244	-0.903902	-0.357026
N50	N	1.149244	-0.403902	0.142974
C51	C	0.620487	-0.880447	-0.404336
C52	C	1.120487	-0.380447	0.095664
O53	O	0.596045	-0.904713	-0.444582
O54	O	1.096045	-0.404713	0.055418
C55	C	0.620435	-0.692775	-0.404310
C56	C	1.120435	-0.192775	0.095690
C57	C	0.649176	-0.669311	-0.356991
C58	C	1.149176	-0.169311	0.143009
C59	C	0.706670	-0.669298	-0.262372
C60	C	1.206670	-0.169298	0.237628
C61	C	0.706654	-0.622383	-0.262363
C62	C	1.206654	-0.122383	0.237637
C63	C	0.677899	-0.598931	-0.309667
C64	C	1.177899	-0.098931	0.190333
C65	C	0.649160	-0.622395	-0.356982
C66	C	1.149160	-0.122395	0.143018
C67	C	0.591681	-0.669321	-0.451623
C68	C	1.091681	-0.169321	0.048377
C69	C	0.591671	-0.622400	-0.451614
C70	C	1.091671	-0.122400	0.048386
C71	C	0.620412	-0.598936	-0.404295
C72	C	1.120412	-0.098936	0.095705
C73	C	0.620389	-0.552029	-0.404277
C74	C	1.120389	-0.052029	0.095723
N75	N	0.649131	-0.528562	-0.356967
N76	N	1.149131	-0.028562	0.143033
C77	C	0.677887	-0.552013	-0.309662
C78	C	1.177887	-0.052013	0.190338
C79	C	0.620517	-0.978978	-0.404345
C80	C	1.120517	-0.478978	0.095655
C81	C	0.620529	-1.025896	-0.404350
C82	C	1.120529	-0.525896	0.095650
C83	C	0.678029	-1.025880	-0.309731
C84	C	1.178029	-0.525880	0.190269
C85	C	0.678014	-0.978962	-0.309722
C86	C	1.178014	-0.478962	0.190278
C87	C	0.649259	-0.955511	-0.357034
C88	C	1.149259	-0.455511	0.142966
C89	C	0.677851	-0.453488	-0.309645
C90	C	1.177851	0.046512	0.190355
C91	C	0.677831	-0.406568	-0.309637
C92	C	1.177831	0.093432	0.190363
C93	C	0.620333	-0.406587	-0.404259
C94	C	1.120333	0.093413	0.095741
C95	C	0.620351	-0.453503	-0.404264
C96	C	1.120351	0.046497	0.095736
C97	C	0.649114	-0.476952	-0.356955
C98	C	1.149114	0.023048	0.143045
O99	O	0.595936	-0.527733	-0.444468
O100	O	1.095936	-0.027733	0.055532
O101	O	0.702333	-0.527739	-0.269433
O102	O	1.202333	-0.027739	0.230567
C103	C	0.677947	-0.739678	-0.309696
C104	C	1.177947	-0.239678	0.190304
C105	C	0.649208	-0.763142	-0.357010
C106	C	1.149208	-0.263142	0.142990
C107	C	0.620452	-0.739690	-0.404315
C108	C	1.120452	-0.239690	0.095685
C109	C	0.649220	-0.810060	-0.357016
C110	C	1.149220	-0.310060	0.142984
C111	C	0.677975	-0.833511	-0.309711
C112	C	1.177975	-0.333511	0.190289
C113	C	0.706718	-0.810044	-0.262401
C114	C	1.206718	-0.310044	0.237599
C115	C	0.706702	-0.763129	-0.262391
C116	C	1.206702	-0.263129	0.237609
C117	C	0.591710	-0.763157	-0.451625
C118	C	1.091710	-0.263157	0.048375
C119	C	0.591728	-0.810072	-0.451631
C120	C	1.091728	-0.310072	0.048369
C121	C	0.620483	-0.833524	-0.404326
C122	C	1.120483	-0.333524	0.095674
C123	C	0.172842	-0.245226	-0.404264
C124	C	0.672842	0.254774	0.095736
C125	C	-0.014831	-0.245238	-0.404297
C126	C	0.485169	0.254762	0.095703
O127	O	-0.039102	-0.269689	-0.444527
O128	O	0.460898	0.230311	0.055473
N129	N	-0.038291	-0.216476	-0.357025
N130	N	0.461709	0.283524	0.142975
C131	C	-0.014831	-0.187707	-0.309746
C132	C	0.485169	0.312293	0.190254
O133	O	-0.039092	-0.163240	-0.269544
O134	O	0.460908	0.336760	0.230456
C135	C	0.172841	-0.187692	-0.309717
C136	C	0.672841	0.312308	0.190283
C137	C	0.196299	-0.216459	-0.356986
C138	C	0.696299	0.283541	0.143014
C139	C	0.196301	-0.273990	-0.451531
C140	C	0.696301	0.226010	0.048469
C141	C	0.243216	-0.273989	-0.451519
C142	C	0.743216	0.226011	0.048481
C143	C	0.266673	-0.245222	-0.404241
C144	C	0.766673	0.254778	0.095759
C145	C	0.243215	-0.216458	-0.356975
C146	C	0.743215	0.283542	0.143025
C147	C	0.196301	-0.158921	-0.262441
C148	C	0.696301	0.341079	0.237559
C149	C	0.243222	-0.158919	-0.262440
C150	C	0.743222	0.341081	0.237560
C151	C	0.266680	-0.187686	-0.309709
C152	C	0.766680	0.312314	0.190291
C153	C	0.313588	-0.187690	-0.309685
C154	C	0.813588	0.312310	0.190315
N155	N	0.337048	-0.216452	-0.356957
N156	N	0.837048	0.283548	0.143043
C157	C	0.313591	-0.245218	-0.404235
C158	C	0.813591	0.254782	0.095765
C159	C	-0.113362	-0.187717	-0.309763
C160	C	0.386638	0.312283	0.190237
C161	C	-0.160279	-0.187721	-0.309769
C162	C	0.339721	0.312279	0.190231
C163	C	-0.160276	-0.245252	-0.404322
C164	C	0.339724	0.254748	0.095678
C165	C	-0.113357	-0.245250	-0.404312
C166	C	0.386643	0.254750	0.095688
C167	C	-0.089901	-0.216479	-0.357035
C168	C	0.410099	0.283521	0.142965
C169	C	0.412117	-0.245213	-0.404207
C170	C	0.912117	0.254787	0.095793
C171	C	0.459037	-0.245210	-0.404189
C172	C	0.959037	0.254790	0.095811
C173	C	0.459029	-0.187677	-0.309639
C174	C	0.959029	0.312323	0.190361
C175	C	0.412113	-0.187681	-0.309654
C176	C	0.912113	0.312319	0.190346
C177	C	0.388659	-0.216451	-0.356944
C178	C	0.888659	0.283549	0.143056
O179	O	0.337888	-0.163248	-0.269483
O180	O	0.837888	0.336752	0.230517
O181	O	0.337860	-0.269675	-0.444442
O182	O	0.837860	0.230325	0.055558
C183	C	0.125927	-0.245227	-0.404276
C184	C	0.625927	0.254773	0.095724
C185	C	0.102469	-0.216463	-0.357010
C186	C	0.602469	0.283537	0.142990
C187	C	0.125926	-0.187696	-0.309732
C188	C	0.625926	0.312304	0.190268
C189	C	0.055551	-0.216467	-0.357016
C190	C	0.555551	0.283533	0.142984
C191	C	0.032094	-0.245233	-0.404294
C192	C	0.532094	0.254767	0.095706
C193	C	0.055554	-0.273996	-0.451565
C194	C	0.555554	0.226004	0.048435
C195	C	0.102470	-0.273994	-0.451554
C196	C	0.602470	0.226006	0.048446
C197	C	0.102465	-0.158934	-0.262460
C198	C	0.602465	0.341066	0.237540
C199	C	0.055549	-0.158939	-0.262475
C200	C	0.555549	0.341061	0.237525
C201	C	0.032092	-0.187705	-0.309753
C202	C	0.532092	0.312295	0.190247
C203	C	0.766329	-0.216479	-0.357024
C204	C	1.266329	0.283521	0.142976
C205	C	0.816263	-0.216487	-0.357047
C206	C	1.316263	0.283513	0.142953
C207	C	0.649173	-0.216419	-0.550132
C208	C	1.149173	0.283581	-0.050132
C209	C	0.649183	-0.216401	-0.632446
C210	C	1.149183	0.283599	-0.132446
C211	C	0.649244	-0.099281	-0.357023
C212	C	1.149244	0.400719	0.142977
C213	C	0.649284	-0.049347	-0.357045
C214	C	1.149284	0.450653	0.142955
C215	C	0.649199	-0.216387	-0.783154
C216	C	1.149199	0.283613	-0.283154
C217	C	0.683948	-0.181671	-0.814540
C218	C	1.183948	0.318329	-0.314540
C219	C	0.684093	-0.181765	-0.900158
C220	C	1.184093	0.318235	-0.400158
C221	C	0.649215	-0.216373	-0.931537
C222	C	1.149215	0.283627	-0.431537
C223	C	0.661870	-0.263759	-0.900426
C224	C	1.161870	0.236241	-0.400426
C225	C	0.662113	-0.263566	-0.814781
C226	C	1.162113	0.236434	-0.314781
C227	C	0.601711	-0.204129	-0.814699
C228	C	1.101711	0.295871	-0.314699
C229	C	0.601975	-0.203076	-0.900351
C230	C	1.101975	0.296924	-0.400351
C231	C	0.649223	-0.216367	-1.015397
C232	C	1.149223	0.283633	-0.515397
C233	C	0.649192	-0.216396	-0.699295
C234	C	1.149192	0.283604	-0.199295
C235	C	0.649154	-0.216468	-0.164559
C236	C	1.149154	0.283532	0.335441
C237	C	0.649231	-0.216359	-0.082246
C238	C	1.149231	0.283641	0.417754
H239	H	0.701235	-0.387465	-0.271102
H240	H	1.201235	0.112535	0.228898
H241	H	0.676137	-0.146432	-0.793968
H242	H	1.176137	0.353568	-0.293968
H243	H	0.574720	-0.226502	-0.921707
H244	H	1.074720	0.273498	-0.421707
H245	H	0.121565	-0.297419	-0.490046
H246	H	0.621565	0.202581	0.009954
H247	H	0.177207	-0.297416	-0.490034
H248	H	0.677207	0.202584	0.009966
C249	C	0.628733	-0.299655	-0.927880
C250	C	1.128733	0.200345	-0.427880
N251	N	0.603774	-0.326691	-0.948560
N252	N	1.103774	0.173309	-0.448560
C253	C	-0.087566	-0.156067	-0.257746
C254	C	0.412434	0.343933	0.242254
N255	N	-0.068138	-0.132230	-0.218564
N256	N	0.431862	0.367770	0.281436
H257	H	0.696821	-0.273935	-0.794820
H258	H	1.196821	0.226065	-0.294820
C259	C	-0.087558	-0.276894	-0.456315
C260	C	0.412442	0.223106	0.043685
N261	N	-0.068127	-0.300728	-0.495489
N262	N	0.431873	0.199272	0.004511
H263	H	0.590148	-0.170169	-0.793106
H264	H	1.090148	0.329831	-0.293106
H265	H	0.718936	-0.189699	-0.793035
H266	H	1.218936	0.310301	-0.293035
H267	H	0.262312	-0.297413	-0.490012
H268	H	0.762312	0.202587	0.009988
H269	H	0.568319	-0.829173	-0.490162
H270	H	1.068319	-0.329173	0.009838
H271	H	0.696195	-0.274309	-0.921908
H272	H	1.196195	0.225691	-0.421908
H273	H	0.730088	-0.688387	-0.223851
H274	H	1.230088	-0.188387	0.276149
C275	C	0.738268	-0.596578	-0.210302
C276	C	1.238268	-0.096578	0.289698
N277	N	0.762081	-0.577145	-0.171085
N278	N	1.262081	-0.077145	0.328915
H279	H	-0.179383	-0.268675	-0.442817
H280	H	0.320617	0.231325	0.057183
C281	C	0.588894	-0.953188	-0.456415
C282	C	1.088894	-0.453188	0.043585
N283	N	0.565079	-0.933765	-0.495641
N284	N	1.065079	-0.433765	0.004359
C285	C	0.560064	-0.695121	-0.503681
C286	C	1.060064	-0.195121	-0.003681
N287	N	0.536249	-0.714553	-0.542895
N288	N	1.036249	-0.214553	-0.042895
H289	H	0.262317	-0.135487	-0.223945
H290	H	0.762317	0.364513	0.276055
H291	H	-0.179375	-0.164300	-0.271270
H292	H	0.320625	0.335700	0.228730
C293	C	0.589074	-0.155967	-0.927831
C294	C	1.089074	0.344033	-0.427831
N295	N	0.579358	-0.120484	-0.948535
N296	N	1.079358	0.379516	-0.448535
C297	C	0.386309	-0.156039	-0.257650
C298	C	0.886309	0.343961	0.242350
N299	N	0.366875	-0.132203	-0.218484
N300	N	0.866875	0.367797	0.281516
H301	H	0.701442	-1.044982	-0.271213
H302	H	1.201442	-0.544982	0.228787
H303	H	0.597121	-1.044996	-0.442875
H304	H	1.097121	-0.544996	0.057125
C305	C	0.731636	-0.192741	-0.927863
C306	C	1.231636	0.307259	-0.427863
N307	N	0.767448	-0.201011	-0.948730
N308	N	1.267448	0.298989	-0.448730
C309	C	0.484838	-0.276857	-0.456192
C310	C	0.984838	0.223143	0.043808
N311	N	0.504270	-0.300692	-0.495361
N312	N	1.004270	0.199308	0.004639
H313	H	0.575824	-0.229413	-0.794398
H314	H	1.075824	0.270587	-0.294398
C315	C	0.029742	-0.305638	-0.503572
C316	C	0.529742	0.194362	-0.003572
N317	N	0.010299	-0.329467	-0.542745
N318	N	0.510299	0.170533	-0.042745
C319	C	0.709488	-0.479275	-0.257597
C320	C	1.209488	0.020725	0.242403
N321	N	0.733315	-0.498697	-0.218391
N322	N	1.233315	0.001303	0.281609
C323	C	0.709632	-0.953156	-0.257671
C324	C	1.209632	-0.453156	0.242329
N325	N	0.733449	-0.933721	-0.218464
N326	N	1.233449	-0.433721	0.281536
H327	H	0.568256	-0.603309	-0.490144
H328	H	1.068256	-0.103309	0.009856
H329	H	0.596949	-0.472608	-0.442797
H330	H	1.096949	0.027392	0.057203
C331	C	0.588706	-0.380782	-0.456295
C332	C	1.088706	0.119218	0.043705
N333	N	0.564887	-0.361344	-0.495493
N334	N	1.064887	0.138656	0.004507
C335	C	0.484841	-0.156030	-0.257645
C336	C	0.984841	0.343970	0.242355
N337	N	0.504284	-0.132190	-0.218489
N338	N	1.004284	0.367810	0.281511
C339	C	0.170507	-0.127269	-0.210448
C340	C	0.670507	0.372731	0.289552
N341	N	0.151080	-0.103424	-0.171287
N342	N	0.651080	0.396576	0.328713
C343	C	0.629402	-0.299718	-0.786725
C344	C	1.129402	0.200282	-0.286725
N345	N	0.604768	-0.326951	-0.765597
N346	N	1.104768	0.173049	-0.265597
H347	H	0.676187	-0.146634	-0.921196
H348	H	1.176187	0.353366	-0.421196
H349	H	0.730106	-0.744028	-0.223860
H350	H	1.230106	-0.244028	0.276140
C351	C	0.738348	-0.835850	-0.210365
C352	C	1.238348	-0.335850	0.289635
N353	N	0.762172	-0.855289	-0.171176
N354	N	1.262172	-0.355289	0.328824
H355	H	0.393026	-0.268638	-0.442716
H356	H	0.893026	0.231362	0.057284
C357	C	0.029751	-0.127289	-0.210473
C358	C	0.529751	0.372711	0.289527
N359	N	0.010321	-0.103447	-0.171311
N360	N	0.510321	0.396553	0.328689
H361	H	0.568295	-0.744066	-0.490148
H362	H	1.068295	-0.244066	0.009852
H363	H	0.121559	-0.135509	-0.223960
H364	H	0.621559	0.364491	0.276040
