data_functionalizedCrystal
_audit_creation_method	'MofGen! by Chris Wilmer'
_symmetry_space_group_name_H-M	'P1'
_symmetry_Int_Tables_number	1
_symmetry_cell_setting	triclinic
loop_
_symmetry_equiv_pos_as_xyz
  x,y,z
_cell_length_a	9.065218
_cell_length_b	8.597304
_cell_length_c	7.540329
_cell_angle_alpha	82.296522
_cell_angle_beta	89.996962
_cell_angle_gamma	85.172810
loop_
_atom_site_label
_atom_site_type_symbol
_atom_site_fract_x
_atom_site_fract_y
_atom_site_fract_z
O1	O	1.960828	0.230168	-0.182649
O2	O	2.460828	0.730168	0.317351
O3	O	1.531578	0.249048	-0.185536
O4	O	2.031578	0.749048	0.314464
O5	O	1.754650	0.011261	-0.149197
O6	O	2.254650	0.511261	0.350803
O7	O	1.737756	0.467955	-0.218988
O8	O	2.237756	0.967955	0.281012
O9	O	1.754637	0.011258	0.145768
O10	O	2.254637	0.511258	0.645768
O11	O	1.531565	0.249045	0.109430
O12	O	2.031565	0.749045	0.609430
O13	O	1.960814	0.230165	0.112316
O14	O	2.460814	0.730165	0.612316
Cu15	Cu	1.746188	0.239605	0.137806
Cu16	Cu	2.246188	0.739605	0.637806
Cu17	Cu	1.746204	0.239608	-0.211025
Cu18	Cu	2.246204	0.739608	0.288975
O19	O	1.737742	0.467952	0.075978
O20	O	2.237742	0.967952	0.575978
C21	C	1.476581	0.247232	-0.037776
C22	C	1.976581	0.747232	0.462224
C23	C	1.312728	0.241807	-0.036948
C24	C	1.812728	0.741807	0.463052
C25	C	1.752829	-0.047238	0.007221
C26	C	2.252829	0.452762	0.507221
C27	C	1.747404	-0.221541	0.033847
C28	C	2.247404	0.278459	0.533847
C29	C	2.015811	0.231981	-0.035447
C30	C	2.515811	0.731981	0.464553
C31	C	2.179664	0.237406	-0.036287
C32	C	2.679664	0.737406	0.463713
C33	C	1.739563	0.526451	-0.080445
C34	C	2.239563	1.026451	0.419555
C35	C	1.744988	0.700754	-0.107082
C36	C	2.244988	1.200754	0.392918
N37	N	1.746188	0.239601	0.383155
N38	N	2.246188	0.739601	0.883155
N39	N	1.746216	0.239599	-0.456372
N40	N	2.246216	0.739599	0.043628
H41	H	1.747066	-0.232423	-0.248117
H42	H	2.247066	0.267577	0.251883
H43	H	1.745305	-0.288369	0.174891
H44	H	2.245305	0.211631	0.674891
