data_functionalizedCrystal
_audit_creation_method	'MofGen! by Chris Wilmer'
_symmetry_space_group_name_H-M	'P1'
_symmetry_Int_Tables_number	1
_symmetry_cell_setting	triclinic
loop_
_symmetry_equiv_pos_as_xyz
  x,y,z
_cell_length_a	14.044191
_cell_length_b	27.732048
_cell_length_c	12.503572
_cell_angle_alpha	93.489054
_cell_angle_beta	86.162165
_cell_angle_gamma	87.917216
loop_
_atom_site_label
_atom_site_type_symbol
_atom_site_fract_x
_atom_site_fract_y
_atom_site_fract_z
O1	O	1.261504	0.113917	-0.089290
O2	O	1.761504	0.613917	0.410710
O3	O	0.985597	0.109711	-0.089303
O4	O	1.485597	0.609711	0.410697
O5	O	1.132118	0.041820	-0.089276
O6	O	1.632118	0.541820	0.410724
O7	O	1.114983	0.181808	-0.089317
O8	O	1.614983	0.681808	0.410683
O9	O	1.121099	0.046935	0.089364
O10	O	1.621099	0.546935	0.589364
O11	O	0.974577	0.114826	0.089337
O12	O	1.474577	0.614826	0.589337
O13	O	1.250485	0.119032	0.089350
O14	O	1.750485	0.619032	0.589350
Cu15	Cu	1.111525	0.117396	0.105655
Cu16	Cu	1.611525	0.617396	0.605655
Cu17	Cu	1.124557	0.111347	-0.105608
Cu18	Cu	1.624557	0.611347	0.394392
O19	O	1.103963	0.186923	0.089323
O20	O	1.603963	0.686923	0.589323
C21	C	0.944800	0.110428	0.000016
C22	C	1.444800	0.610428	0.500016
C23	C	0.839654	0.104940	0.000012
C24	C	1.339654	0.604940	0.500012
C25	C	0.588944	0.133831	0.000014
C26	C	1.088944	0.633831	0.500014
C27	C	0.647143	0.094914	0.000024
C28	C	1.147143	0.594914	0.500024
C29	C	0.754266	0.100494	0.000017
C30	C	1.254266	0.600494	0.500017
C31	C	0.481811	0.128252	0.000020
C32	C	0.981811	0.628252	0.500020
C33	C	1.126249	0.026354	0.000047
C34	C	1.626249	0.526354	0.500047
C35	C	1.125165	-0.027351	0.000056
C36	C	1.625165	0.472649	0.500056
C37	C	1.204934	-0.362424	0.000005
C38	C	1.704934	0.137576	0.500005
C39	C	1.200915	-0.564272	-0.000011
C40	C	1.700915	-0.064272	0.499989
O41	O	1.273858	-0.592105	-0.000054
O42	O	1.773858	-0.092105	0.499946
N43	N	1.114033	-0.587475	-0.000014
N44	N	1.614033	-0.087475	0.499986
C45	C	1.028150	-0.560212	-0.000020
C46	C	1.528150	-0.060212	0.499980
O47	O	0.954160	-0.584578	-0.000034
O48	O	1.454160	-0.084578	0.499966
C49	C	1.032170	-0.358364	-0.000012
C50	C	1.532170	0.141636	0.499988
C51	C	1.119057	-0.335164	0.000002
C52	C	1.619057	0.164836	0.500002
C53	C	1.291814	-0.339224	0.000017
C54	C	1.791814	0.160776	0.500017
C55	C	1.292817	-0.288764	0.000027
C56	C	1.792817	0.211236	0.500027
C57	C	1.206940	-0.261505	0.000024
C58	C	1.706940	0.238495	0.500024
C59	C	1.120060	-0.284705	0.000011
C60	C	1.620060	0.215295	0.500011
C61	C	0.946289	-0.331102	-0.000026
C62	C	1.446289	0.168898	0.499974
C63	C	0.947301	-0.280637	-0.000027
C64	C	1.447301	0.219363	0.499973
C65	C	1.034188	-0.257438	-0.000013
C66	C	1.534188	0.242562	0.499987
C67	C	1.035187	-0.206986	0.000018
C68	C	1.535187	0.293014	0.500018
N69	N	1.122069	-0.183784	0.000021
N70	N	1.622069	0.316216	0.500021
C71	C	1.207946	-0.211043	0.000024
C72	C	1.707946	0.288957	0.500024
C73	C	1.026046	-0.666185	-0.000022
C74	C	1.526046	-0.166185	0.499978
C75	C	1.025040	-0.716646	-0.000022
C76	C	1.525040	-0.216646	0.499978
C77	C	1.197806	-0.720704	-0.000014
C78	C	1.697806	-0.220704	0.499986
C79	C	1.198810	-0.670241	-0.000007
C80	C	1.698810	-0.170241	0.499993
C81	C	1.112928	-0.642982	-0.000019
C82	C	1.612928	-0.142982	0.499981
C83	C	1.210046	-0.105075	0.000045
C84	C	1.710046	0.394925	0.500045
C85	C	1.211041	-0.054611	0.000059
C86	C	1.711041	0.445389	0.500059
C87	C	1.038277	-0.050558	0.000046
C88	C	1.538277	0.449442	0.500046
C89	C	1.037280	-0.101018	0.000038
C90	C	1.537280	0.398982	0.500038
C91	C	1.123173	-0.128275	0.000034
C92	C	1.623173	0.371725	0.500034
O93	O	0.962284	-0.179123	0.000049
O94	O	1.462284	0.320877	0.500049
O95	O	1.281926	-0.186668	0.000014
O96	O	1.781926	0.313332	0.500014
C97	C	1.203930	-0.412883	-0.000005
C98	C	1.703930	0.087117	0.499995
C99	C	1.117050	-0.436083	-0.000018
C100	C	1.617050	0.063917	0.499982
C101	C	1.031174	-0.408824	-0.000021
C102	C	1.531174	0.091176	0.499979
C103	C	1.116045	-0.486545	-0.000018
C104	C	1.616045	0.013455	0.499982
C105	C	1.201922	-0.513804	-0.000015
C106	C	1.701922	-0.013804	0.499985
C107	C	1.288804	-0.490602	-0.000012
C108	C	1.788804	0.009398	0.499988
C109	C	1.289807	-0.440142	-0.000002
C110	C	1.789807	0.059858	0.499998
C111	C	0.944292	-0.432026	-0.000024
C112	C	1.444292	0.067974	0.499976
C113	C	0.943295	-0.482485	-0.000032
C114	C	1.443295	0.017515	0.499968
C115	C	1.029172	-0.509745	-0.000029
C116	C	1.529172	-0.009745	0.499971
C117	C	1.291282	0.118315	0.000029
C118	C	1.791282	0.618315	0.500029
C119	C	1.396428	0.123803	0.000026
C120	C	1.896428	0.623803	0.500026
C121	C	1.109833	0.202389	-0.000003
C122	C	1.609833	0.702389	0.499997
C123	C	1.110917	0.256094	-0.000019
C124	C	1.610917	0.756094	0.499981
N125	N	1.102366	0.121651	0.254245
N126	N	1.602366	0.621651	0.754245
N127	N	1.133723	0.107089	-0.254198
N128	N	1.633723	0.607089	0.245802
C129	C	1.088893	0.127914	0.473358
C130	C	1.588893	0.627914	0.973358
C131	C	1.147193	0.100828	0.526696
C132	C	1.647193	0.600828	1.026696
C133	C	1.139696	0.104312	0.648618
C134	C	1.639696	0.604312	1.148618
C135	C	1.096388	0.124429	0.351425
C136	C	1.596388	0.624429	0.851425
H137	H	0.619570	0.171337	-0.000001
H138	H	1.119570	0.671337	0.499999
H139	H	1.033354	0.153718	0.519255
H140	H	1.533354	0.653718	1.019255
H141	H	1.360559	-0.421258	0.000009
H142	H	1.860559	0.078742	0.500009
C143	C	0.852821	-0.250656	-0.000037
C144	C	1.352821	0.249344	0.499963
N145	N	0.781659	-0.228075	-0.000040
N146	N	1.281659	0.271925	0.499960
C147	C	0.941701	-0.126538	0.000029
C148	C	1.441701	0.373462	0.500029
N149	N	0.869709	-0.145757	0.000012
N150	N	1.369709	0.354243	0.500012
H151	H	0.968358	-0.028354	0.000047
H152	H	1.468358	0.471646	0.500047
C153	C	1.306628	-0.029094	0.000071
C154	C	1.806628	0.470906	0.500071
N155	N	1.378622	-0.009877	0.000078
N156	N	1.878622	0.490123	0.500078
C157	C	1.388401	-0.263252	0.000031
C158	C	1.888401	0.236748	0.500031
N159	N	1.460400	-0.244039	0.000029
N160	N	1.960400	0.255961	0.500029
C161	C	0.605770	0.044240	0.000029
C162	C	1.105770	0.544240	0.500029
N163	N	0.574604	0.006074	0.000027
N164	N	1.074604	0.506074	0.500027
C165	C	1.304532	-0.135051	0.000050
C166	C	1.804532	0.364949	0.500050
N167	N	1.375698	-0.157628	0.000063
N168	N	1.875698	0.342372	0.500063
H169	H	1.361749	-0.361413	0.000016
H170	H	1.861749	0.138587	0.500016
H171	H	1.269561	-0.651355	0.000004
H172	H	1.769561	-0.151355	0.500004
C173	C	1.292272	-0.750698	-0.000019
C174	C	1.792272	-0.250698	0.499981
N175	N	1.363419	-0.773293	-0.000033
N176	N	1.863419	-0.273293	0.499967
H177	H	0.874359	-0.409836	-0.000029
H178	H	1.374359	0.090164	0.499971
C179	C	0.929457	-0.742160	-0.000024
C180	C	1.429457	-0.242160	0.499976
N181	N	0.857461	-0.761375	-0.000032
N182	N	1.357461	-0.261375	0.499968
C183	C	0.931562	-0.636206	-0.000034
C184	C	1.431562	-0.136206	0.499966
N185	N	0.860396	-0.613629	-0.000040
N186	N	1.360396	-0.113629	0.499960
H187	H	1.358727	-0.512805	-0.000004
H188	H	1.858727	-0.012805	0.499996
H189	H	0.872536	-0.501370	-0.000034
H190	H	1.372536	-0.001370	0.499966
C191	C	1.222240	0.065970	0.464686
C192	C	1.722240	0.565970	0.964686
N193	N	1.278768	0.039720	0.417976
N194	N	1.778768	0.539720	0.917976
C195	C	0.850705	-0.356611	-0.000049
C196	C	1.350705	0.143389	0.499951
N197	N	0.778706	-0.375823	-0.000070
N198	N	1.278706	0.124177	0.499930
