data_functionalizedCrystal
_audit_creation_method	'MofGen! by Chris Wilmer'
_symmetry_space_group_name_H-M	'P1'
_symmetry_Int_Tables_number	1
_symmetry_cell_setting	triclinic
loop_
_symmetry_equiv_pos_as_xyz
  x,y,z
_cell_length_a	29.839134
_cell_length_b	16.994747
_cell_length_c	29.839125
_cell_angle_alpha	89.991363
_cell_angle_beta	90.021980
_cell_angle_gamma	90.005924
loop_
_atom_site_label
_atom_site_type_symbol
_atom_site_fract_x
_atom_site_fract_y
_atom_site_fract_z
Zn1	Zn	0.686814	-0.314247	0.254207
Zn2	Zn	0.686786	-0.446127	0.179112
Zn3	Zn	0.611697	-0.314229	0.179077
Zn4	Zn	0.611685	-0.446101	0.254200
O5	O	0.649246	-0.380176	0.216649
O6	O	0.749678	-0.331759	0.244263
O7	O	0.676819	-0.428635	0.116240
O8	O	0.621679	-0.203850	0.189031
O9	O	0.749657	-0.428651	0.189091
O10	O	0.676867	-0.203863	0.244230
O11	O	0.621651	-0.331730	0.116214
O12	O	0.548828	-0.331704	0.189025
O13	O	0.621657	-0.428606	0.317068
O14	O	0.548819	-0.428589	0.244217
O15	O	0.676855	-0.331734	0.317074
O16	O	0.676807	-0.556505	0.189084
O17	O	0.621630	-0.556486	0.244251
C18	C	0.532523	-0.380143	0.216617
C19	C	0.482589	-0.380147	0.216613
C20	C	0.649220	-0.585116	0.216669
C21	C	0.649223	-0.674438	0.216668
Zn22	Zn	0.611710	-0.945316	0.179064
Zn23	Zn	0.686834	-0.945312	0.254188
Zn24	Zn	0.611700	-0.813493	0.254193
Zn25	Zn	0.686795	-0.813382	0.179097
O26	O	0.649260	-0.879376	0.216635
O27	O	0.621696	-1.055697	0.189014
O28	O	0.676880	-0.927870	0.317055
O29	O	0.548834	-0.831028	0.244215
O30	O	0.676890	-1.055693	0.244206
O31	O	0.548842	-0.927877	0.189019
O32	O	0.621679	-0.831024	0.317059
O33	O	0.621641	-0.703097	0.244247
O34	O	0.676822	-0.830839	0.116226
O35	O	0.676812	-0.703016	0.189075
O36	O	0.621658	-0.927770	0.116202
O37	O	0.749696	-0.927763	0.244238
O38	O	0.749667	-0.830835	0.189070
C39	C	0.172950	-0.430699	0.245353
C40	C	-0.014723	-0.430721	0.245373
O41	O	-0.038984	-0.473665	0.269789
N42	N	-0.038196	-0.380205	0.216683
C43	C	-0.014749	-0.329676	0.187988
O44	O	-0.039020	-0.286704	0.163589
C45	C	0.172924	-0.329650	0.187971
C46	C	0.196395	-0.380176	0.216659
C47	C	0.196421	-0.481219	0.274039
C48	C	0.243337	-0.481216	0.274032
C49	C	0.266781	-0.430693	0.245339
C50	C	0.243310	-0.380172	0.216652
C51	C	0.196371	-0.279118	0.159279
C52	C	0.243292	-0.279115	0.159278
C53	C	0.266762	-0.329640	0.187966
C54	C	0.313670	-0.329646	0.187952
N55	N	0.337143	-0.380162	0.216642
C56	C	0.313699	-0.430686	0.245335
C57	C	-0.113279	-0.329694	0.187999
C58	C	-0.160197	-0.329701	0.188002
C59	C	-0.160168	-0.430746	0.245388
C60	C	-0.113250	-0.430742	0.245381
C61	C	-0.089806	-0.380210	0.216688
C62	C	0.412225	-0.430676	0.245318
C63	C	0.459144	-0.430671	0.245307
C64	C	0.459111	-0.329624	0.187924
C65	C	0.412196	-0.329632	0.187933
C66	C	0.388754	-0.380160	0.216633
O67	O	0.337960	-0.286719	0.163552
O68	O	0.337979	-0.473639	0.269737
C69	C	0.126035	-0.430702	0.245360
C70	C	0.102564	-0.380182	0.216673
C71	C	0.126008	-0.329658	0.187980
C72	C	0.055646	-0.380189	0.216677
C73	C	0.032201	-0.430712	0.245371
C74	C	0.055675	-0.481228	0.274060
C75	C	0.102590	-0.481225	0.274053
C76	C	0.102535	-0.279142	0.159290
C77	C	0.055619	-0.279150	0.159299
C78	C	0.032175	-0.329673	0.187992
C79	C	0.766424	-0.380210	0.216682
C80	C	0.816358	-0.380225	0.216696
C81	C	0.649258	-0.380169	0.333827
C82	C	0.649263	-0.380166	0.383762
C83	C	0.649274	-0.174436	0.216626
C84	C	0.649288	-0.085114	0.216617
C85	C	0.649259	-0.380126	0.099927
C86	C	0.649341	-0.379907	0.049992
C87	C	0.678035	-0.329592	0.693411
C88	C	0.678057	-0.329525	0.881084
O89	O	0.702486	-0.286600	0.905354
N90	N	0.649323	-0.379955	0.904547
C91	C	0.620579	-0.430401	0.881089
O92	O	0.596136	-0.473287	0.905352
C93	C	0.620554	-0.430464	0.693417
C94	C	0.649294	-0.380037	0.669956
C95	C	0.706771	-0.279168	0.669951
C96	C	0.706767	-0.279189	0.623035
C97	C	0.678026	-0.329633	0.599580
C98	C	0.649290	-0.380057	0.623041
C99	C	0.591809	-0.480906	0.669959
C100	C	0.591804	-0.480916	0.623038
C101	C	0.620544	-0.430488	0.599578
C102	C	0.620545	-0.430521	0.552670
N103	N	0.649279	-0.380092	0.529207
C104	C	0.678020	-0.329648	0.552662
C105	C	0.620594	-0.430366	0.979620
C106	C	0.620601	-0.430351	1.026537
C107	C	0.678078	-0.329474	1.026530
C108	C	0.678074	-0.329493	0.979611
C109	C	0.649328	-0.379936	0.956157
C110	C	0.678009	-0.329695	0.454136
C111	C	0.678004	-0.329722	0.407217
C112	C	0.620525	-0.430596	0.407229
C113	C	0.620531	-0.430572	0.454144
C114	C	0.649275	-0.380115	0.477597
O115	O	0.596125	-0.473418	0.528372
O116	O	0.702452	-0.286755	0.528391
C117	C	0.678039	-0.329572	0.740327
C118	C	0.649302	-0.379996	0.763787
C119	C	0.620561	-0.430440	0.740332
C120	C	0.649309	-0.379981	0.810705
C121	C	0.678049	-0.329537	0.834160
C122	C	0.706784	-0.279107	0.810697
C123	C	0.706779	-0.279128	0.763782
C124	C	0.591827	-0.480870	0.763795
C125	C	0.591834	-0.480846	0.810711
C126	C	0.620575	-0.430402	0.834166
C127	C	0.765982	-0.879289	0.216658
C128	C	0.815917	-0.879274	0.216681
C129	C	0.649237	-0.879293	0.099457
C130	C	0.649227	-0.879257	0.049523
C131	C	0.532081	-0.879465	0.216614
C132	C	0.482147	-0.879504	0.216605
C133	C	0.649251	-0.879503	0.333358
C134	C	0.649135	-0.879690	0.383292
C135	C	0.839369	-0.929780	0.245392
C136	C	0.886287	-0.929782	0.245413
C137	C	0.909753	-0.879274	0.216726
C138	C	0.886298	-0.828766	0.188012
C139	C	0.839380	-0.828769	0.187989
C140	C	0.620497	-0.929708	0.026058
C141	C	0.620479	-0.929675	-0.020861
C142	C	0.649193	-0.879194	-0.044314
C143	C	0.677923	-0.828738	-0.020846
C144	C	0.677939	-0.828768	0.026072
C145	C	0.458691	-0.829091	0.245338
C146	C	0.411772	-0.829111	0.245330
C147	C	0.388311	-0.879549	0.216589
C148	C	0.411770	-0.929964	0.187852
C149	C	0.458688	-0.929939	0.187859
C150	C	0.620547	-0.828988	0.406724
C151	C	0.620430	-0.829163	0.453643
C152	C	0.648904	-0.880035	0.477128
C153	C	0.677494	-0.930741	0.453693
C154	C	0.677608	-0.930570	0.406775
H155	H	0.478252	-0.471817	0.268669
C156	C	0.813563	-0.985348	0.276949
C157	C	0.781307	-0.951263	0.312231
C158	C	0.755506	-1.006837	0.343789
C159	C	0.761960	-1.096498	0.340063
C160	C	0.794218	-1.130587	0.304780
C161	C	0.820019	-1.075012	0.273223
H162	H	0.776528	-0.884887	0.314990
H163	H	0.731627	-0.981601	0.369908
H164	H	0.742861	-1.137637	0.363424
H165	H	0.798997	-1.196963	0.302021
H166	H	0.843898	-1.100248	0.247103
H167	H	0.905378	-0.970911	0.268798
H168	H	0.947957	-0.879279	0.216750
H169	H	0.392678	-0.788057	0.268732
C170	C	0.484486	-0.985405	0.156254
C171	C	0.516728	-0.951201	0.120987
C172	C	0.542523	-1.006671	0.089380
C173	C	0.536076	-1.096345	0.093039
C174	C	0.503832	-1.130554	0.128307
C175	C	0.478037	-1.075084	0.159915
H176	H	0.521502	-0.884814	0.118277
H177	H	0.566392	-0.981346	0.063272
H178	H	0.555171	-1.137407	0.069641
H179	H	0.499058	-1.196940	0.131017
H180	H	0.454168	-1.100408	0.186022
H181	H	0.905411	-0.787644	0.164656
H182	H	0.597115	-0.970817	0.045147
C183	C	0.588934	-0.486058	0.479961
C184	C	0.592600	-0.575731	0.473533
C185	C	0.561004	-0.631217	0.499348
C186	C	0.525742	-0.597030	0.531592
C187	C	0.522075	-0.507352	0.538022
C188	C	0.553671	-0.451866	0.512206
H189	H	0.618704	-0.601042	0.449663
H190	H	0.563719	-0.697603	0.494589
H191	H	0.502353	-0.638104	0.550703
H192	H	0.495971	-0.482041	0.561892
H193	H	0.550956	-0.385480	0.516966
C194	C	0.709692	-0.273979	1.052335
C195	C	0.744960	-0.308153	1.084609
C196	C	0.776569	-0.252656	1.110416
C197	C	0.772909	-0.162987	1.103950
C198	C	0.737640	-0.128809	1.071674
C199	C	0.706031	-0.184305	1.045867
H200	H	0.747670	-0.374535	1.089397
H201	H	0.802678	-0.277957	1.134309
H202	H	0.796308	-0.121905	1.123054
H203	H	0.734929	-0.062426	1.066886
H204	H	0.679922	-0.159004	1.021974
H205	H	0.393144	-0.471819	0.268690
H206	H	0.701301	-0.787639	-0.039948
H207	H	0.568432	-0.521917	0.829808
H208	H	0.820289	-0.787636	0.164610
H209	H	0.597082	-0.970763	-0.039962
C210	C	0.336700	-0.879575	0.216587
C211	C	0.310907	-0.955393	0.228145
C212	C	0.259297	-0.955418	0.228146
C213	C	0.233480	-0.879625	0.216590
C214	C	0.259273	-0.803801	0.205032
C215	C	0.310883	-0.803777	0.205031
H216	H	0.330019	-1.011505	0.236700
H217	H	0.240204	-1.011548	0.236702
H218	H	0.195275	-0.879643	0.216591
H219	H	0.240162	-0.747689	0.196477
H220	H	0.329977	-0.747646	0.196474
H221	H	0.649176	-0.879179	-0.082517
C222	C	-0.087497	-0.274115	0.156426
C223	C	-0.093952	-0.184455	0.160153
C224	C	-0.068174	-0.128880	0.128577
C225	C	-0.035941	-0.162966	0.093273
C226	C	-0.029485	-0.252630	0.089545
C227	C	-0.055263	-0.308205	0.121121
H228	H	-0.117814	-0.159219	0.186289
H229	H	-0.072953	-0.062505	0.131337
H230	H	-0.016859	-0.121826	0.069899
H231	H	-0.005623	-0.277866	0.063410
H232	H	-0.050484	-0.374580	0.118361
H233	H	0.477788	-0.788016	0.268743
C234	C	0.385958	-0.985449	0.156243
C235	C	0.334350	-0.985476	0.156245
C236	C	0.308537	-1.040966	0.124640
C237	C	0.334331	-1.096430	0.093032
C238	C	0.385942	-1.096405	0.093029
C239	C	0.411755	-1.040915	0.124634
H240	H	0.315253	-0.944417	0.179644
H241	H	0.270331	-1.040984	0.124642
H242	H	0.315222	-1.137507	0.069635
H243	H	0.405039	-1.137465	0.069629
H244	H	0.449961	-1.040897	0.124632
C245	C	0.709548	-0.773275	0.051880
C246	C	0.760617	-0.779681	0.045423
C247	C	0.792228	-0.724184	0.071228
C248	C	0.772770	-0.662282	0.103489
C249	C	0.721698	-0.655874	0.109947
C250	C	0.690087	-0.711371	0.084142
H251	H	0.775024	-0.825506	0.021540
H252	H	0.830035	-0.728928	0.066447
H253	H	0.796170	-0.621200	0.122591
H254	H	0.707291	-0.610048	0.133830
H255	H	0.652280	-0.706627	0.088923
H256	H	0.597203	-0.471423	1.045635
C257	C	0.648778	-0.880212	0.528738
C258	C	0.617331	-0.824433	0.554509
C259	C	0.617204	-0.824604	0.606119
C260	C	0.648523	-0.880554	0.631958
C261	C	0.679972	-0.936338	0.606187
C262	C	0.680099	-0.936167	0.554577
H263	H	0.594144	-0.783011	0.535381
H264	H	0.593923	-0.783309	0.625196
H265	H	0.648429	-0.880681	0.670163
H266	H	0.703159	-0.977760	0.625315
H267	H	0.703380	-0.977462	0.535500
H268	H	0.597361	-0.787558	0.387609
H269	H	0.701414	-0.288605	0.473226
C270	C	0.708813	-0.986693	0.479535
C271	C	0.689020	-1.048490	0.511673
C272	C	0.720340	-1.104437	0.537519
C273	C	0.771452	-1.098586	0.531227
C274	C	0.791247	-1.036786	0.499088
C275	C	0.759928	-0.980840	0.473242
H276	H	0.651181	-1.052823	0.516331
H277	H	0.705685	-1.150185	0.561310
H278	H	0.794637	-1.140001	0.550360
H279	H	0.829086	-1.032453	0.494429
H280	H	0.774582	-0.935091	0.449451
H281	H	0.262442	-0.522357	0.297394
H282	H	0.177338	-0.522362	0.297407
H283	H	0.597149	-0.787868	0.472717
H284	H	-0.094143	-0.471883	0.268743
H285	H	-0.179265	-0.471884	0.268751
H286	H	-0.179303	-0.288567	0.164637
H287	H	0.177269	-0.237977	0.135916
H288	H	0.700891	-0.971855	0.387700
C289	C	0.738391	-0.223676	0.695745
C290	C	0.789459	-0.230140	0.689299
C291	C	0.821085	-0.174648	0.715089
C292	C	0.801642	-0.112692	0.747326
C293	C	0.750571	-0.106225	0.753774
C294	C	0.718946	-0.161717	0.727983
H295	H	0.803854	-0.276006	0.665434
H296	H	0.858891	-0.179435	0.710316
H297	H	0.825053	-0.071613	0.766418
H298	H	0.736176	-0.060359	0.777639
H299	H	0.681140	-0.156930	0.732757
H300	H	0.262377	-0.237960	0.135914
H301	H	0.730182	-0.238064	0.744684
H302	H	0.393085	-0.288492	0.164571
C303	C	0.029880	-0.536803	0.305625
C304	C	-0.002391	-0.598675	0.286113
C305	C	-0.028188	-0.654243	0.317678
C306	C	-0.021715	-0.647939	0.368754
C307	C	0.010557	-0.586064	0.388268
C308	C	0.036354	-0.530497	0.356704
H309	H	-0.007184	-0.603345	0.248301
H310	H	-0.052078	-0.700047	0.303232
H311	H	-0.040812	-0.689073	0.392120
H312	H	0.015350	-0.581395	0.426080
H313	H	0.060244	-0.484693	0.371150
C314	C	0.128404	-0.536800	0.305615
C315	C	0.121942	-0.626460	0.301881
C316	C	0.147752	-0.682037	0.333445
C317	C	0.180023	-0.647953	0.368743
C318	C	0.186486	-0.558288	0.372477
C319	C	0.160676	-0.502711	0.340913
H320	H	0.098052	-0.651695	0.275751
H321	H	0.142968	-0.748413	0.330680
H322	H	0.199129	-0.689094	0.392108
H323	H	0.210376	-0.533052	0.398608
H324	H	0.165461	-0.436335	0.343678
H325	H	0.478208	-0.288492	0.164561
C326	C	0.588917	-0.486088	0.381418
C327	C	0.553654	-0.451908	0.349141
C328	C	0.522048	-0.507399	0.323326
C329	C	0.525704	-0.597070	0.329790
C330	C	0.560969	-0.631254	0.362069
C331	C	0.592575	-0.575763	0.387883
H332	H	0.550946	-0.385524	0.344355
H333	H	0.495943	-0.482093	0.299431
H334	H	0.502308	-0.638147	0.310681
H335	H	0.563677	-0.697638	0.366855
H336	H	0.618681	-0.601069	0.411778
H337	H	0.036513	-0.238007	0.135933
H338	H	0.730187	-0.238036	0.829802
H339	H	0.701409	-0.288657	0.388117
C340	C	0.128317	-0.223566	0.127720
C341	C	0.160584	-0.161675	0.147219
C342	C	0.186363	-0.106100	0.115644
C343	C	0.179875	-0.112414	0.064571
C344	C	0.147607	-0.174308	0.045069
C345	C	0.121828	-0.229884	0.076644
H346	H	0.165387	-0.156999	0.185030
H347	H	0.210249	-0.060282	0.130081
H348	H	0.198958	-0.071274	0.041197
H349	H	0.142803	-0.178985	0.007259
H350	H	0.097941	-0.275701	0.062207
C351	C	0.709684	-0.274017	0.953806
C352	C	0.706032	-0.184345	0.960244
C353	C	0.737643	-0.128865	0.934443
C354	C	0.772906	-0.163058	0.902203
C355	C	0.776560	-0.252736	0.895764
C356	C	0.744949	-0.308215	0.921565
H357	H	0.679926	-0.159029	0.984111
H358	H	0.734938	-0.062480	0.939210
H359	H	0.796306	-0.121989	0.883103
H360	H	0.802665	-0.278052	0.871896
H361	H	0.747654	-0.374601	0.916798
H362	H	0.597186	-0.471448	0.960528
C363	C	0.560185	-0.536372	0.695751
C364	C	0.579624	-0.598317	0.728023
C365	C	0.547994	-0.653785	0.753810
C366	C	0.496927	-0.647308	0.747325
C367	C	0.477485	-0.585360	0.715052
C368	C	0.509115	-0.529892	0.689265
H369	H	0.617430	-0.603115	0.732824
H370	H	0.562386	-0.699643	0.777701
H371	H	0.473513	-0.688369	0.766415
H372	H	0.439680	-0.580563	0.710251
H373	H	0.494723	-0.484034	0.665374
H374	H	0.730169	-0.238124	0.603938
H375	H	0.568423	-0.521949	0.744703
H376	H	0.568391	-0.521985	0.603944
