data_functionalizedCrystal
_audit_creation_method	'MofGen! by Chris Wilmer'
_symmetry_space_group_name_H-M	'P1'
_symmetry_Int_Tables_number	1
_symmetry_cell_setting	triclinic
loop_
_symmetry_equiv_pos_as_xyz
  x,y,z
_cell_length_a	10.723023
_cell_length_b	11.792254
_cell_length_c	9.198806
_cell_angle_alpha	89.996642
_cell_angle_beta	89.996191
_cell_angle_gamma	84.333073
loop_
_atom_site_label
_atom_site_type_symbol
_atom_site_fract_x
_atom_site_fract_y
_atom_site_fract_z
O1	O	1.656775	0.159187	-0.120889
O2	O	1.293583	0.174426	-0.120893
O3	O	1.483984	0.001656	-0.120881
O4	O	1.466374	0.331957	-0.120902
O5	O	1.483969	0.001656	0.120904
O6	O	1.293568	0.174425	0.120892
O7	O	1.656760	0.159187	0.120896
Cu8	Cu	1.475162	0.166806	0.142971
Cu9	Cu	1.475180	0.166806	-0.142968
O10	O	1.466358	0.331956	0.120884
C11	C	1.247079	0.173317	-0.000001
C12	C	1.108533	0.169999	-0.000002
C13	C	0.903570	0.165092	0.125245
C14	C	1.046764	0.168520	0.125249
C15	C	1.482868	-0.040637	0.000011
C16	C	1.479547	-0.166658	0.000010
C17	C	1.476849	-0.269000	0.000005
C18	C	1.473476	-0.397394	-0.000009
C19	C	1.703264	0.160296	0.000001
C20	C	1.841810	0.163613	-0.000008
C21	C	1.467475	0.374250	-0.000012
C22	C	1.470796	0.500270	-0.000020
N23	N	1.475159	0.166805	0.344085
N24	N	1.475194	0.166799	-0.344082
C25	C	1.555104	0.093944	0.416287
C26	C	1.555123	0.093940	0.583699
H27	H	0.894945	0.164892	-0.107238
Br28	Br	1.668847	-0.010314	0.312757
Br29	Br	1.135281	0.170626	0.303989
H30	H	1.623572	0.031565	0.645790
H31	H	1.406750	0.229185	0.593837
H32	H	1.406725	0.229177	0.406208
H33	H	0.850433	0.163825	0.232474
H34	H	1.055429	0.168725	-0.107241
