data_functionalizedCrystal
_audit_creation_method	'MofGen! by Chris Wilmer'
_symmetry_space_group_name_H-M	'P1'
_symmetry_Int_Tables_number	1
_symmetry_cell_setting	triclinic
loop_
_symmetry_equiv_pos_as_xyz
  x,y,z
_cell_length_a	10.540539
_cell_length_b	10.540539
_cell_length_c	9.616153
_cell_angle_alpha	90.000094
_cell_angle_beta	89.995174
_cell_angle_gamma	95.474508
loop_
_atom_site_label
_atom_site_type_symbol
_atom_site_fract_x
_atom_site_fract_y
_atom_site_fract_z
O1	O	1.685892	-0.178895	-0.115573
O2	O	1.316479	-0.195751	-0.115589
O3	O	1.509614	-0.002617	-0.115579
O4	O	1.492758	-0.372030	-0.115583
O5	O	1.509587	-0.002621	0.115712
O6	O	1.316452	-0.195755	0.115702
O7	O	1.685865	-0.178899	0.115718
Zn8	Zn	1.501155	-0.187328	0.152433
Zn9	Zn	1.501190	-0.187323	-0.152304
O10	O	1.492731	-0.372034	0.115708
C11	C	1.269163	-0.194489	0.000054
C12	C	1.128215	-0.190707	0.000048
C13	C	0.944788	-0.045790	0.000589
C14	C	1.091406	-0.049624	0.000054
C15	C	1.066557	-0.258600	-0.132027
C16	C	0.920013	-0.253785	-0.132123
C17	C	0.919494	-0.256660	0.130899
C18	C	1.066476	-0.257959	0.132630
C19	C	1.508336	0.044684	0.000064
C20	C	1.504554	0.185632	0.000056
C21	C	1.733182	-0.180161	0.000072
C22	C	1.874130	-0.183943	0.000069
C23	C	1.494008	-0.419335	0.000062
C24	C	1.497790	-0.560283	0.000060
N25	N	1.501140	-0.187331	0.360407
C26	C	1.359637	0.369059	-0.000469
C27	C	1.363471	0.222441	0.000052
C28	C	1.572435	0.247288	0.132138
C29	C	1.567620	0.393832	0.132249
C30	C	1.570519	0.394355	-0.130772
C31	C	1.571819	0.247373	-0.132518
N32	N	1.501215	-0.187310	-0.360278
C33	C	1.397510	-0.290298	0.580772
C34	C	1.397739	-0.290684	0.419604
C35	C	1.633864	-0.217464	0.418862
C36	C	1.633299	-0.218193	0.580080
C37	C	1.473368	-0.053892	0.580319
C38	C	1.470321	-0.054757	0.419092
H39	H	0.872267	-0.358563	0.131790
H40	H	1.712941	-0.146204	0.619073
H41	H	1.415178	-0.388722	0.621270
Cl42	Cl	0.898162	0.039911	-0.144822
H43	H	0.891814	-0.203603	-0.230849
H44	H	1.372683	-0.031917	0.380887
Cl45	Cl	0.900630	0.040262	0.146827
H46	H	0.872044	-0.355250	-0.138119
H47	H	1.133162	0.004177	-0.094786
H48	H	0.887936	-0.211004	0.231010
H49	H	1.378631	-0.025213	0.621052
H50	H	1.517430	0.422030	0.230979
Cl51	Cl	1.157188	0.032858	0.146225
H52	H	1.657654	-0.315531	0.617668
Cl53	Cl	1.732397	0.212778	0.139736
Cl54	Cl	1.755923	-0.104815	0.359664
Cl55	Cl	1.590104	0.064458	0.639174
H56	H	1.088911	-0.362208	-0.136942
H57	H	1.298585	-0.272445	0.619578
Cl58	Cl	1.132320	-0.185781	-0.283786
H59	H	1.107427	-0.208361	0.230338
H60	H	1.090701	-0.360819	0.140603
Cl61	Cl	1.281003	0.156661	-0.146128
H62	H	1.303917	0.397661	-0.095187
Cl63	Cl	1.273682	0.416238	0.144512
H64	H	1.524869	0.425910	-0.230881
H65	H	1.309662	0.180683	0.094886
Cl66	Cl	1.724267	0.467897	0.141528
Cl67	Cl	1.672309	-0.366048	0.356508
Cl68	Cl	1.499601	0.181522	0.283890
H69	H	1.522152	0.206516	-0.230229
H70	H	1.674680	0.223152	-0.140490
Cl71	Cl	1.727849	0.467270	-0.132142
Cl72	Cl	1.245459	-0.262774	0.358583
Cl73	Cl	1.425323	-0.443522	0.360029
H74	H	1.540848	0.025564	0.378801
