data_functionalizedCrystal
_audit_creation_method	'MofGen! by Chris Wilmer'
_symmetry_space_group_name_H-M	'P1'
_symmetry_Int_Tables_number	1
_symmetry_cell_setting	triclinic
loop_
_symmetry_equiv_pos_as_xyz
  x,y,z
_cell_length_a	14.853569
_cell_length_b	10.868271
_cell_length_c	14.853567
_cell_angle_alpha	89.998659
_cell_angle_beta	96.364752
_cell_angle_gamma	90.002343
loop_
_atom_site_label
_atom_site_type_symbol
_atom_site_fract_x
_atom_site_fract_y
_atom_site_fract_z
O1	O	1.196364	0.102255	-0.117711
O2	O	1.696364	0.602255	0.382289
O3	O	0.933904	0.102269	-0.131731
O4	O	1.433904	0.602269	0.368269
O5	O	1.072145	0.102265	0.006508
O6	O	1.572145	0.602265	0.506508
O7	O	1.058123	0.102259	-0.255951
O8	O	1.558123	0.602259	0.244049
O9	O	1.072133	-0.102379	0.006514
O10	O	1.572133	0.397621	0.506514
O11	O	0.933893	-0.102376	-0.131726
O12	O	1.433893	0.397624	0.368274
O13	O	1.196352	-0.102389	-0.117706
O14	O	1.696352	0.397611	0.382294
Zn15	Zn	1.065121	-0.134874	-0.124715
Zn16	Zn	1.565121	0.365126	0.375285
Zn17	Zn	1.065136	0.134754	-0.124722
Zn18	Zn	1.565136	0.634754	0.375278
O19	O	1.058112	-0.102386	-0.255946
O20	O	1.558112	0.397614	0.244054
C21	C	0.900310	-0.000052	-0.131093
C22	C	1.400310	0.499948	0.368907
C23	C	0.800226	-0.000046	-0.129189
C24	C	1.300226	0.499954	0.370811
N25	N	1.065117	-0.318888	-0.124710
N26	N	1.565117	0.181112	0.375290
C27	C	0.763850	-0.000039	-0.046178
C28	C	1.263850	0.499961	0.453822
C29	C	0.742560	-0.000057	-0.210410
C30	C	1.242560	0.499943	0.289590
C31	C	0.648526	-0.000059	-0.208624
C32	C	1.148526	0.499941	0.291376
C33	C	0.612150	-0.000052	-0.125613
C34	C	1.112150	0.499948	0.374387
C35	C	0.669807	-0.000044	-0.044389
C36	C	1.169807	0.499956	0.455611
C37	C	0.590862	-0.000079	-0.289847
C38	C	1.090862	0.499921	0.210153
C39	C	0.496821	-0.000082	-0.288064
C40	C	0.996821	0.499918	0.211936
C41	C	0.460443	-0.000067	-0.205052
C42	C	0.960443	0.499933	0.294948
C43	C	0.518107	-0.000057	-0.123824
C44	C	1.018107	0.499943	0.376176
C45	C	0.481730	-0.000051	-0.040813
C46	C	0.981730	0.499949	0.459187
C47	C	0.539393	-0.000033	0.040415
C48	C	1.039393	0.499967	0.540415
C49	C	0.633429	-0.000029	0.038623
C50	C	1.133429	0.499971	0.538623
C51	C	0.366407	-0.000070	-0.203259
C52	C	0.866407	0.499930	0.296741
C53	C	0.387688	-0.000056	-0.039024
C54	C	0.887688	0.499944	0.460976
C55	C	1.065131	-0.569894	-0.124720
C56	C	1.565131	-0.069894	0.375280
C57	C	1.065120	-0.430217	-0.124717
C58	C	1.565120	0.069783	0.375283
C59	C	1.229947	-0.000066	-0.118344
C60	C	1.729947	0.499934	0.381656
C61	C	1.330030	-0.000064	-0.120249
C62	C	1.830030	0.499936	0.379751
C63	C	1.071504	-0.000053	0.040100
C64	C	1.571504	0.499947	0.540100
C65	C	1.069600	-0.000043	0.140183
C66	C	1.569600	0.499957	0.640183
N67	N	1.065147	0.318768	-0.124720
N68	N	1.565147	0.818768	0.375280
C69	C	1.058753	-0.000065	-0.289537
C70	C	1.558753	0.499935	0.210463
C71	C	1.060657	-0.000067	-0.389621
C72	C	1.560657	0.499933	0.110379
C73	C	0.979434	-0.000061	0.552718
C74	C	1.479434	0.499939	1.052718
C75	C	1.143667	-0.000070	0.573998
C76	C	1.643667	0.499930	1.073998
C77	C	1.145457	-0.000063	0.479964
C78	C	1.645457	0.499937	0.979964
C79	C	1.064234	-0.000057	0.422303
C80	C	1.564234	0.499943	0.922303
C81	C	0.981222	-0.000058	0.458675
C82	C	1.481222	0.499942	0.958675
C83	C	1.228468	-0.000074	0.443585
C84	C	1.728468	0.499926	0.943585
C85	C	1.230262	-0.000068	0.349545
C86	C	1.730262	0.499932	0.849545
C87	C	1.149038	-0.000053	0.291882
C88	C	1.649038	0.499947	0.791882
C89	C	1.066022	-0.000053	0.328260
C90	C	1.566022	0.499947	0.828260
C91	C	0.984800	-0.000047	0.270599
C92	C	1.484800	0.499953	0.770599
C93	C	0.901783	-0.000038	0.306974
C94	C	1.401783	0.499962	0.806974
C95	C	0.899998	-0.000043	0.401012
C96	C	1.399998	0.499957	0.901012
C97	C	1.150822	-0.000048	0.197845
C98	C	1.650822	0.499952	0.697845
C99	C	0.986587	-0.000044	0.176556
C100	C	1.486587	0.499956	0.676556
H101	H	0.358078	-0.000044	0.028574
H102	H	0.858078	0.499956	0.528574
Cl103	Cl	0.493651	-0.000036	0.144768
Cl104	Cl	0.993651	0.499964	0.644768
Cl105	Cl	0.705922	-0.000021	0.140729
Cl106	Cl	1.205922	0.499979	0.640729
H107	H	0.810802	-0.000020	0.019956
H108	H	1.310802	0.499980	0.519956
H109	H	0.920445	-0.000034	0.129613
H110	H	1.420445	0.499966	0.629613
Cl111	Cl	0.795644	-0.000028	0.446748
Cl112	Cl	1.295644	0.499972	0.946748
H113	H	0.319463	-0.000096	-0.269395
H114	H	0.819463	0.499904	0.230605
H115	H	0.835651	-0.000042	0.260014
H116	H	1.335651	0.499958	0.760014
H117	H	1.209794	-0.000084	0.620951
H118	H	1.709794	0.499916	1.120951
Cl119	Cl	1.330569	-0.000108	0.516076
Cl120	Cl	1.830569	0.499892	1.016076
Cl121	Cl	0.424341	-0.000094	-0.390177
Cl122	Cl	0.924341	0.499906	0.109823
Cl123	Cl	0.788292	-0.000068	-0.314761
Cl124	Cl	1.288292	0.499932	0.185239
Cl125	Cl	0.875075	-0.000038	0.598445
Cl126	Cl	1.375075	0.499962	1.098445
H127	H	1.297859	-0.000074	0.319937
H128	H	1.797859	0.499926	0.819937
H129	H	1.218413	-0.000064	0.168232
H130	H	1.718413	0.499936	0.668232
H131	H	0.620487	-0.000092	-0.357430
H132	H	1.120487	0.499908	0.142570
