data_functionalizedCrystal
_audit_creation_method	'MofGen! by Chris Wilmer'
_symmetry_space_group_name_H-M	'P1'
_symmetry_Int_Tables_number	1
_symmetry_cell_setting	triclinic
loop_
_symmetry_equiv_pos_as_xyz
  x,y,z
_cell_length_a	14.519731
_cell_length_b	10.654545
_cell_length_c	13.596369
_cell_angle_alpha	90.003630
_cell_angle_beta	90.005416
_cell_angle_gamma	84.087140
loop_
_atom_site_label
_atom_site_type_symbol
_atom_site_fract_x
_atom_site_fract_y
_atom_site_fract_z
O1	O	1.224711	0.164753	0.081788
O2	O	0.956337	0.184111	0.081789
O3	O	1.096694	-0.008366	0.081788
O4	O	1.084354	0.357230	0.081789
O5	O	1.096680	-0.008376	-0.081795
O6	O	0.956323	0.184101	-0.081794
O7	O	1.224697	0.164742	-0.081795
Zn8	Zn	1.090508	0.174420	-0.107766
Zn9	Zn	1.090526	0.174434	0.107761
O10	O	1.084340	0.357220	-0.081793
C11	C	0.921966	0.183199	-0.000002
C12	C	0.819572	0.180481	-0.000002
C13	C	1.095781	-0.055160	-0.000002
C14	C	1.093069	-0.194578	0.000004
C15	C	1.093096	-0.194575	0.178347
C16	C	1.091839	-0.260072	0.267518
C17	C	1.089291	-0.391066	0.267520
C18	C	1.087998	-0.456567	0.178340
C19	C	1.089255	-0.391070	0.089169
C20	C	1.091805	-0.260073	0.089177
C21	C	1.089222	-0.391072	-0.089172
C22	C	1.091776	-0.260078	-0.089175
C23	C	1.087929	-0.456572	-0.178352
C24	C	1.089193	-0.391077	-0.267525
C25	C	1.091741	-0.260075	-0.267522
C26	C	1.093033	-0.194582	-0.178347
C27	C	0.736416	0.178272	0.000002
C28	C	0.632093	0.175513	0.000003
C29	C	0.548943	0.173322	0.000003
C30	C	0.444613	0.170563	0.000005
C31	C	1.259068	0.165655	-0.000001
C32	C	1.361462	0.168373	0.000005
C33	C	1.085254	0.404014	-0.000002
C34	C	1.087965	0.543432	-0.000001
N35	N	1.090502	0.174410	-0.254858
C36	C	1.090525	0.174435	-0.656149
C37	C	1.090516	0.174432	-0.544498
C38	C	1.090514	0.174423	-0.455507
C39	C	1.090504	0.174419	-0.343849
N40	N	1.090540	0.174434	0.254853
H41	H	1.095180	-0.087915	0.178355
H42	H	1.088134	-0.444417	-0.340128
H43	H	1.092890	-0.206727	0.340127
H44	H	1.088259	-0.444392	0.340130
H45	H	1.085913	-0.563228	0.178349
H46	H	1.095113	-0.087920	-0.178336
H47	H	1.092751	-0.206753	-0.340137
H48	H	1.085850	-0.563234	-0.178344
