data_functionalizedCrystal
_audit_creation_method	'MofGen! by Chris Wilmer'
_symmetry_space_group_name_H-M	'P1'
_symmetry_Int_Tables_number	1
_symmetry_cell_setting	triclinic
loop_
_symmetry_equiv_pos_as_xyz
  x,y,z
_cell_length_a	19.288856
_cell_length_b	13.448316
_cell_length_c	14.971486
_cell_angle_alpha	90.006811
_cell_angle_beta	96.626555
_cell_angle_gamma	89.991245
loop_
_atom_site_label
_atom_site_type_symbol
_atom_site_fract_x
_atom_site_fract_y
_atom_site_fract_z
O1	O	-0.921718	0.082738	0.111545
O2	O	-0.421718	0.582738	0.611545
O3	O	-0.719505	0.082730	0.126605
O4	O	-0.219505	0.582730	0.626605
O5	O	-0.826031	0.082727	-0.011154
O6	O	-0.326031	0.582727	0.488846
O7	O	-0.815192	0.082741	0.249305
O8	O	-0.315192	0.582741	0.749305
O9	O	-0.826018	-0.082657	-0.011163
O10	O	-0.326018	0.417343	0.488837
O11	O	-0.719492	-0.082654	0.126597
O12	O	-0.219492	0.417346	0.626597
O13	O	-0.921704	-0.082646	0.111537
O14	O	-0.421704	0.417354	0.611537
Cu15	Cu	-0.820597	-0.097751	0.119066
Cu16	Cu	-0.320597	0.402249	0.619066
Cu17	Cu	-0.820613	0.097835	0.119076
Cu18	Cu	-0.320613	0.597835	0.619076
O19	O	-0.815178	-0.082643	0.249296
O20	O	-0.315178	0.417357	0.749296
C21	C	-0.693621	0.000037	0.126118
C22	C	-0.193621	0.500037	0.626118
C23	C	-0.616512	0.000034	0.124667
C24	C	-0.116512	0.500034	0.624667
N25	N	-0.820591	-0.235315	0.119059
N26	N	-0.320591	0.264685	0.619059
C27	C	-0.052702	0.000023	0.195683
C28	C	0.447298	0.500023	0.695683
C29	C	-0.125153	0.000031	0.197054
C30	C	0.374847	0.500031	0.697054
C31	C	-0.169596	0.000025	0.116223
C32	C	0.330404	0.500025	0.616223
C33	C	-0.141583	0.000039	0.034015
C34	C	0.358417	0.500039	0.534015
C35	C	-0.069134	0.000041	0.032647
C36	C	0.430866	0.500041	0.532647
C37	C	-0.290666	-0.057919	0.055936
C38	C	0.209334	0.442081	0.555936
C39	C	-0.363114	-0.057928	0.057308
C40	C	0.136886	0.442072	0.557308
C41	C	-0.393056	0.000022	0.120442
C42	C	0.106944	0.500022	0.620442
C43	C	-0.350540	0.057968	0.182218
C44	C	0.149460	0.557968	0.682218
C45	C	-0.278090	0.057970	0.180849
C46	C	0.221910	0.557970	0.680849
C47	C	-0.248157	0.000023	0.117698
C48	C	0.251843	0.500023	0.617698
C49	C	-0.499621	0.000024	0.204131
C50	C	0.000379	0.500024	0.704131
C51	C	-0.572074	0.000037	0.205499
C52	C	-0.072074	0.500037	0.705499
C53	C	-0.588503	0.000035	0.042457
C54	C	-0.088503	0.500035	0.542457
C55	C	-0.516051	0.000032	0.041092
C56	C	-0.016051	0.500032	0.541092
C57	C	-0.471614	0.000021	0.121931
C58	C	0.028386	0.500021	0.621931
C59	C	-0.867775	-0.287357	0.058084
C60	C	-0.367775	0.212643	0.558084
C61	C	-0.867780	-0.391460	0.058083
C62	C	-0.367780	0.108540	0.558083
C63	C	-0.820602	-0.443520	0.119062
C64	C	-0.320602	0.056480	0.619062
C65	C	-0.773413	-0.391471	0.180040
C66	C	-0.273413	0.108529	0.680040
C67	C	-0.773406	-0.287369	0.180036
C68	C	-0.273406	0.212631	0.680036
C69	C	-0.773432	-0.608451	0.180046
C70	C	-0.273432	-0.108451	0.680046
C71	C	-0.773440	-0.712559	0.180051
C72	C	-0.273440	-0.212559	0.680051
C73	C	-0.867806	-0.712541	0.058093
C74	C	-0.367806	-0.212541	0.558093
C75	C	-0.867799	-0.608440	0.058089
C76	C	-0.367799	-0.108440	0.558089
C77	C	-0.820610	-0.556398	0.119068
C78	C	-0.320610	-0.056398	0.619068
C79	C	0.052411	0.000042	0.112027
C80	C	0.552411	0.500042	0.612027
C81	C	-0.024697	0.000031	0.113486
C82	C	0.475303	0.500031	0.613486
C83	C	-0.825540	0.000035	-0.044481
C84	C	-0.325540	0.500035	0.455519
C85	C	-0.824087	0.000036	-0.143770
C86	C	-0.324087	0.500036	0.356230
N87	N	-0.820624	0.235399	0.119076
N88	N	-0.320624	0.735399	0.619076
C89	C	-0.886668	0.000038	-0.201336
C90	C	-0.386668	0.500038	0.298664
C91	C	-0.885299	0.000048	-0.294628
C92	C	-0.385299	0.500048	0.205372
C93	C	-0.821348	0.000049	-0.330352
C94	C	-0.321348	0.500049	0.169648
C95	C	-0.758762	0.000050	-0.272778
C96	C	-0.258762	0.500050	0.227222
C97	C	-0.760132	0.000047	-0.179488
C98	C	-0.260132	0.500047	0.320512
C99	C	-0.755912	0.000054	-0.467225
C100	C	-0.255912	0.500054	0.032775
C101	C	-0.754541	0.000055	-0.560522
C102	C	-0.254541	0.500055	-0.060522
C103	C	-0.881079	0.000054	-0.582365
C104	C	-0.381079	0.500054	-0.082365
C105	C	-0.882449	0.000051	-0.489075
C106	C	-0.382449	0.500051	0.010925
C107	C	-0.819862	0.000051	-0.431508
C108	C	-0.319862	0.500051	0.068492
C109	C	-0.815670	0.000051	0.282623
C110	C	-0.315670	0.500051	0.782623
C111	C	-0.817123	0.000056	0.381912
C112	C	-0.317123	0.500056	0.881912
H113	H	-0.016526	0.000019	0.261509
H114	H	0.483474	0.500019	0.761509
H115	H	-0.702467	0.000040	-0.589605
H116	H	-0.202467	0.500040	-0.089605
H117	H	-0.936259	0.000047	-0.341495
H118	H	-0.436259	0.500047	0.158505
H119	H	-0.934523	0.000043	-0.459992
H120	H	-0.434523	0.500043	0.040008
H121	H	-0.147960	0.000015	0.263991
H122	H	0.352040	0.500015	0.763991
Br123	Br	-0.709362	-0.216741	0.262786
Br124	Br	-0.209362	0.283259	0.762786
H125	H	-0.906195	-0.244977	0.008431
H126	H	-0.406195	0.255023	0.508431
H127	H	-0.624688	0.000039	-0.023357
H128	H	-0.124688	0.500039	0.476643
H129	H	-0.266294	-0.105111	0.004521
H130	H	0.233706	0.394889	0.504521
Br131	Br	-0.478041	0.000050	-0.070468
Br132	Br	0.021959	0.500050	0.429532
Br133	Br	-0.031123	0.000058	-0.078916
Br134	Br	0.468877	0.500058	0.421084
Br135	Br	-0.931831	-0.537784	-0.024661
Br136	Br	-0.431831	-0.037784	0.475339
H137	H	-0.397725	-0.105116	0.007011
H138	H	0.102275	0.394884	0.507011
Br139	Br	-0.709411	-0.783204	0.262813
Br140	Br	-0.209411	-0.283204	0.762813
H141	H	-0.243477	0.105154	0.231148
H142	H	0.256523	0.605154	0.731148
Br143	Br	-0.675197	0.000053	-0.101361
Br144	Br	-0.175197	0.500053	0.398639
H145	H	-0.594873	0.000039	0.272436
H146	H	-0.094873	0.500039	0.772436
Br147	Br	-0.973464	0.000022	-0.152863
Br148	Br	-0.473464	0.500022	0.347137
H149	H	-0.906228	-0.754920	0.008442
H150	H	-0.406228	-0.254920	0.508442
Br151	Br	-0.391165	0.136604	0.267917
Br152	Br	0.108835	0.636604	0.767917
H153	H	-0.463438	0.000017	0.269955
H154	H	0.036562	0.500017	0.769955
H155	H	-0.177774	0.000037	-0.031798
H156	H	0.322226	0.500037	0.468202
H157	H	-0.932039	0.000058	-0.629241
H158	H	-0.432039	0.500058	-0.129241
H159	H	-0.734997	-0.433864	0.229688
H160	H	-0.234997	0.066136	0.729688
Br161	Br	-0.931814	-0.462091	-0.024673
Br162	Br	-0.431814	0.037909	0.475327
Br163	Br	-0.671970	0.000068	-0.321260
Br164	Br	-0.171970	0.500068	0.178740
Br165	Br	-0.709386	-0.537826	0.262801
Br166	Br	-0.209386	-0.037826	0.762801
H167	H	-0.704947	0.000056	-0.420356
H168	H	-0.204947	0.500056	0.079644
