data_functionalizedCrystal
_audit_creation_method	'MofGen! by Chris Wilmer'
_symmetry_space_group_name_H-M	'P1'
_symmetry_Int_Tables_number	1
_symmetry_cell_setting	triclinic
loop_
_symmetry_equiv_pos_as_xyz
  x,y,z
_cell_length_a	17.699083
_cell_length_b	19.188924
_cell_length_c	16.776229
_cell_angle_alpha	89.991276
_cell_angle_beta	89.998886
_cell_angle_gamma	83.212490
loop_
_atom_site_label
_atom_site_type_symbol
_atom_site_fract_x
_atom_site_fract_y
_atom_site_fract_z
O1	O	1.003960	0.088295	-0.066180
O2	O	0.783566	0.099782	-0.066207
O3	O	0.900126	-0.007611	-0.066183
O4	O	0.887400	0.195687	-0.066204
O5	O	0.900110	-0.007617	0.066393
O6	O	0.783551	0.099775	0.066370
O7	O	1.003944	0.088288	0.066396
Zn8	Zn	0.893745	0.094031	0.087432
Zn9	Zn	0.893765	0.094039	-0.087243
O10	O	0.887385	0.195681	0.066373
C11	C	0.755362	0.099367	0.000078
C12	C	0.671345	0.098132	0.000068
C13	C	0.899707	-0.033625	0.000106
C14	C	0.898472	-0.111132	0.000108
C15	C	0.622640	0.161169	0.000062
C16	C	0.543698	0.160005	0.000073
C17	C	0.513464	0.095803	0.000084
C18	C	0.562175	0.032761	0.000092
C19	C	0.641116	0.033926	0.000087
C20	C	0.243819	0.028060	0.000112
C21	C	0.164872	0.026900	0.000115
C22	C	0.146401	0.154139	0.000098
C23	C	0.225341	0.155305	0.000093
C24	C	0.274046	0.092263	0.000106
C25	C	0.359644	0.093526	0.000096
C26	C	0.427868	0.094538	0.000088
C27	C	0.897905	-0.147528	-0.072160
C28	C	0.896734	-0.220352	-0.072166
C29	C	0.896146	-0.256779	0.000099
C30	C	0.896710	-0.220373	0.072377
C31	C	0.897873	-0.147550	0.072381
N32	N	0.937385	-0.376398	0.053890
N33	N	0.936281	-0.445578	0.053881
C34	C	0.892641	-0.476192	0.000091
N35	N	0.850154	-0.435014	-0.053702
N36	N	0.851261	-0.365828	-0.053695
C37	C	0.894885	-0.335744	0.000103
C38	C	0.890802	-0.591552	-0.072188
C39	C	0.889627	-0.664376	-0.072191
C40	C	0.889611	-0.664398	0.072354
C41	C	0.890778	-0.591574	0.072355
C42	C	0.891378	-0.555155	0.000082
C43	C	1.032149	0.088703	0.000110
C44	C	1.116165	0.089938	0.000114
C45	C	0.887804	0.221695	0.000082
C46	C	0.889038	0.299202	0.000075
N47	N	0.893737	0.094024	0.206644
N48	N	0.893780	0.094040	-0.206454
C49	C	0.945365	0.046490	0.248371
C50	C	0.945369	0.046490	0.331823
C51	C	0.893748	0.094027	0.373547
C52	C	0.842114	0.141563	0.331813
C53	C	0.842107	0.141560	0.248363
C54	C	0.842142	0.141577	0.668360
C55	C	0.842154	0.141578	0.751817
C56	C	0.945404	0.046507	0.751821
C57	C	0.945397	0.046503	0.668371
C58	C	0.893761	0.094037	0.626645
C59	C	0.893756	0.094036	0.536156
C60	C	0.893756	0.094032	0.464033
H61	H	0.504044	0.211336	0.000067
H62	H	0.647250	0.213450	0.000053
C63	C	0.831287	-0.234857	0.195561
C64	C	0.896063	-0.260411	0.151813
H65	H	0.830884	-0.259577	0.244601
H66	H	0.832066	-0.186283	0.205904
H67	H	0.786981	-0.241393	0.165850
H68	H	0.940370	-0.253870	0.181522
H69	H	0.895291	-0.308996	0.141472
H70	H	0.987404	0.007783	0.214406
H71	H	0.898391	-0.117880	-0.131011
H72	H	0.891247	-0.561940	0.131203
H73	H	0.537552	-0.019514	0.000112
C74	C	0.825403	0.236627	0.845643
C75	C	0.785404	0.193832	0.797680
H76	H	0.790368	0.268887	0.873952
H77	H	0.856149	0.208320	0.882433
H78	H	0.856809	0.261708	0.813068
H79	H	0.754001	0.168747	0.830256
H80	H	0.754644	0.222143	0.760886
H81	H	0.889126	-0.694055	0.131194
C82	C	0.990263	-0.074421	0.777528
C83	C	1.002156	-0.005753	0.797689
H84	H	1.025303	-0.106681	0.805841
H85	H	0.939786	-0.081941	0.791214
H86	H	0.997650	-0.081214	0.721855
H87	H	0.994764	0.001042	0.853361
H88	H	1.052646	0.001769	0.784008
C89	C	0.199152	0.280963	0.000087
C90	C	0.258574	0.225878	0.000085
H91	H	0.219669	0.324532	0.000089
H92	H	0.168747	0.277868	-0.046142
H93	H	0.168746	0.277853	0.046323
H94	H	0.288976	0.228985	-0.046155
H95	H	0.288991	0.228974	0.046318
C96	C	0.017187	0.208863	0.000108
C97	C	0.092862	0.223438	0.000095
H98	H	-0.015862	0.251645	0.000109
H99	H	0.008045	0.182538	-0.046116
H100	H	0.008056	0.182531	0.046349
H101	H	0.101995	0.249766	-0.046149
H102	H	0.102008	0.249775	0.046324
C103	C	0.191057	-0.098765	0.000150
C104	C	0.131637	-0.043677	0.000135
H105	H	0.170536	-0.142333	0.000167
H106	H	0.221461	-0.095670	-0.046081
H107	H	0.221463	-0.095659	0.046384
H108	H	0.101234	-0.046780	-0.046103
H109	H	0.101220	-0.046773	0.046370
C110	C	0.740089	0.235558	0.676750
C111	C	0.785390	0.193831	0.622502
H112	H	0.705056	0.267821	0.648435
H113	H	0.712970	0.206526	0.709308
H114	H	0.771522	0.260634	0.709290
H115	H	0.753958	0.168750	0.589967
H116	H	0.812511	0.222866	0.589931
C117	C	0.681173	-0.074165	-0.068061
C118	C	0.694659	-0.035365	0.000088
H119	H	0.714233	-0.116941	-0.068059
H120	H	0.629840	-0.084048	-0.068051
H121	H	0.690315	-0.047823	-0.114291
H122	H	0.685512	-0.061706	0.046318
H123	H	0.746004	-0.025484	0.000085
C124	C	0.896837	-0.213019	-0.215042
C125	C	0.896081	-0.260366	-0.151608
H126	H	0.896428	-0.237722	-0.264085
H127	H	0.853175	-0.179209	-0.212025
H128	H	0.941428	-0.190026	-0.212043
H129	H	0.851486	-0.283355	-0.154605
H130	H	0.939746	-0.294189	-0.154627
C131	C	0.834122	-0.057706	0.156228
C132	C	0.898500	-0.107539	0.151823
H133	H	0.834510	-0.033008	0.205276
H134	H	0.834649	-0.025597	0.113194
H135	H	0.789546	-0.080720	0.153216
H136	H	0.943077	-0.084524	0.154829
H137	H	0.897981	-0.139653	0.194870
C138	C	0.890692	-0.598841	-0.215064
C139	C	0.891449	-0.551513	-0.151628
H140	H	0.891085	-0.574122	-0.264105
H141	H	0.934360	-0.632645	-0.212057
H142	H	0.846107	-0.621844	-0.212056
H143	H	0.936036	-0.528514	-0.154632
H144	H	0.847776	-0.517697	-0.154636
H145	H	0.889161	-0.694008	-0.131043
H146	H	0.987408	0.007784	0.365798
C147	C	0.991037	0.004108	0.540449
C148	C	1.002005	-0.005874	0.622508
H149	H	1.025948	-0.028264	0.512138
H150	H	0.940501	-0.003290	0.526866
H151	H	0.999237	0.050646	0.526691
H152	H	0.993800	-0.052411	0.636268
H153	H	1.052554	0.001519	0.636097
C154	C	0.796284	0.183789	0.459734
C155	C	0.785372	0.193819	0.377674
H156	H	0.761257	0.216055	0.488043
H157	H	0.788221	0.137207	0.473420
H158	H	0.846772	0.191315	0.473391
H159	H	0.734885	0.186288	0.364015
H160	H	0.793429	0.240413	0.363982
C161	C	0.740054	0.235543	0.256735
C162	C	0.785359	0.193814	0.202493
H163	H	0.705021	0.267804	0.228416
H164	H	0.712933	0.206512	0.289292
H165	H	0.771483	0.260622	0.289275
H166	H	0.753930	0.168731	0.169956
H167	H	0.812482	0.222848	0.169922
H168	H	0.283465	-0.023272	0.000123
