data_functionalizedCrystal
_audit_creation_method	'MofGen! by Chris Wilmer'
_symmetry_space_group_name_H-M	'P1'
_symmetry_Int_Tables_number	1
_symmetry_cell_setting	triclinic
loop_
_symmetry_equiv_pos_as_xyz
  x,y,z
_cell_length_a	19.805407
_cell_length_b	19.805405
_cell_length_c	21.395356
_cell_angle_alpha	89.973607
_cell_angle_beta	89.975469
_cell_angle_gamma	90.026726
loop_
_atom_site_label
_atom_site_type_symbol
_atom_site_fract_x
_atom_site_fract_y
_atom_site_fract_z
Zn1	Zn	1.034767	-0.269480	-0.354283
Zn2	Zn	1.034672	-0.382668	-0.249508
Zn3	Zn	0.921572	-0.269499	-0.249518
Zn4	Zn	0.921545	-0.382633	-0.354246
O5	O	0.978139	-0.326070	-0.301889
O6	O	1.129471	-0.284502	-0.340395
O7	O	1.019640	-0.367679	-0.161831
O8	O	0.936639	-0.174780	-0.263435
O9	O	1.129401	-0.367661	-0.263417
O10	O	1.019803	-0.174766	-0.340405
O11	O	0.936546	-0.284533	-0.161838
O12	O	0.826852	-0.284499	-0.263399
O13	O	0.936593	-0.367600	-0.441929
O14	O	0.826832	-0.367618	-0.340343
O15	O	1.019777	-0.284468	-0.441956
O16	O	1.019614	-0.477380	-0.263382
O17	O	0.936500	-0.477354	-0.340333
C18	C	0.802283	-0.326057	-0.301868
C19	C	0.727051	-0.326068	-0.301874
C20	C	0.691714	-0.369413	-0.341874
C21	C	0.621026	-0.369414	-0.341883
C22	C	0.585675	-0.326073	-0.301889
C23	C	0.621017	-0.282723	-0.261887
C24	C	0.691704	-0.282719	-0.261882
C25	C	0.335944	-0.282738	-0.261908
C26	C	0.265252	-0.282747	-0.261915
C27	C	0.265265	-0.369433	-0.341909
C28	C	0.335952	-0.369429	-0.341904
C29	C	0.371288	-0.326077	-0.301905
C30	C	0.447936	-0.326075	-0.301897
C31	C	0.509028	-0.326078	-0.301893
C32	C	0.978062	-0.501926	-0.301866
C33	C	0.978091	-0.577158	-0.301877
C34	C	1.021369	-0.612437	-0.341987
C35	C	1.021393	-0.683125	-0.341999
C36	C	0.978143	-0.718534	-0.301897
C37	C	0.934860	-0.683250	-0.261785
C38	C	0.934833	-0.612563	-0.261777
C39	C	0.934969	-0.968323	-0.261817
C40	C	0.935001	-1.039015	-0.261827
C41	C	1.021529	-1.038886	-0.342039
C42	C	1.021502	-0.968199	-0.342031
C43	C	0.978217	-0.932921	-0.301922
C44	C	0.978190	-0.856272	-0.301910
C45	C	0.978172	-0.795181	-0.301905
C46	C	1.154682	-0.326083	-0.301909
C47	C	1.229914	-0.326089	-0.301918
C48	C	0.978192	-0.326028	-0.465312
C49	C	0.978215	-0.326010	-0.534953
C50	C	0.978235	-0.149527	-0.301925
C51	C	0.978276	-0.074295	-0.301941
C52	C	0.934960	-0.282712	-0.567660
C53	C	0.934957	-0.282699	-0.633096
C54	C	0.978222	-0.325978	-0.665822
C55	C	1.021481	-0.369285	-0.633107
C56	C	1.021477	-0.369301	-0.567672
C57	C	1.039207	-0.331299	-0.769509
C58	C	1.039212	-0.331278	-0.834942
C59	C	0.978234	-0.325932	-0.867642
C60	C	0.917249	-0.320593	-0.834902
C61	C	0.917245	-0.320609	-0.769468
C62	C	0.978231	-0.325966	-0.736774
C63	C	0.934972	-0.282618	-0.971302
C64	C	0.934969	-0.282610	-1.036739
C65	C	1.021498	-0.369192	-1.036748
C66	C	1.021496	-0.369204	-0.971313
C67	C	0.978233	-0.325913	-0.938594
C68	C	0.978125	-0.326063	-0.139101
C69	C	0.978233	-0.325890	-0.069460
H70	H	0.592257	-0.404711	-0.374454
H71	H	0.899591	-0.583839	-0.229116
H72	H	0.899740	-0.247353	-1.063368
H73	H	1.056591	-0.583612	-0.374640
H74	H	1.056772	-1.067617	-0.374700
H75	H	1.056640	-0.711846	-0.374655
H76	H	1.056727	-0.404430	-1.063393
H77	H	1.056720	-0.404461	-0.944682
H78	H	0.236472	-0.247449	-0.229347
H79	H	1.056723	-0.939371	-0.374683
H80	H	0.899726	-0.939605	-0.229158
H81	H	0.236486	-0.404730	-0.374480
H82	H	0.899730	-0.247463	-0.541024
H83	H	0.364731	-0.404724	-0.374469
H84	H	1.088866	-0.335647	-0.742890
H85	H	1.088869	-0.335623	-0.861594
H86	H	1.056707	-0.404523	-0.659756
H87	H	0.899642	-0.712085	-0.229136
H88	H	1.056704	-0.404559	-0.541043
H89	H	0.899778	-1.067842	-0.229170
H90	H	0.899735	-0.247437	-0.659731
H91	H	0.867595	-0.316235	-0.861525
H92	H	0.720475	-0.247419	-0.229313
H93	H	0.867589	-0.316262	-0.742813
H94	H	0.899745	-0.247368	-0.944661
H95	H	0.364706	-0.247443	-0.229334
H96	H	0.720491	-0.404709	-0.374440
H97	H	0.592229	-0.247431	-0.229326
