data_functionalizedCrystal
_audit_creation_method	'MofGen! by Chris Wilmer'
_symmetry_space_group_name_H-M	'P1'
_symmetry_Int_Tables_number	1
_symmetry_cell_setting	triclinic
loop_
_symmetry_equiv_pos_as_xyz
  x,y,z
_cell_length_a	29.839134
_cell_length_b	29.839126
_cell_length_c	18.050589
_cell_angle_alpha	89.983119
_cell_angle_beta	90.023083
_cell_angle_gamma	89.970362
loop_
_atom_site_label
_atom_site_type_symbol
_atom_site_fract_x
_atom_site_fract_y
_atom_site_fract_z
Zn1	Zn	0.686795	-0.254148	-0.295818
Zn2	Zn	0.936795	-0.004148	-0.045818
Zn3	Zn	1.186795	0.245852	0.204182
Zn4	Zn	1.436795	0.495852	0.454182
Zn5	Zn	0.686734	-0.179027	-0.419999
Zn6	Zn	0.936734	0.070973	-0.169999
Zn7	Zn	1.186734	0.320973	0.080001
Zn8	Zn	1.436734	0.570973	0.330001
Zn9	Zn	0.611668	-0.179017	-0.295816
Zn10	Zn	0.861668	0.070983	-0.045816
Zn11	Zn	1.111668	0.320983	0.204184
Zn12	Zn	1.361668	0.570983	0.454184
Zn13	Zn	0.611643	-0.254116	-0.419960
Zn14	Zn	0.861643	-0.004116	-0.169960
Zn15	Zn	1.111643	0.245884	0.080040
Zn16	Zn	1.361643	0.495884	0.330040
O17	O	0.649210	-0.216577	-0.357898
O18	O	0.899210	0.033423	-0.107898
O19	O	1.149210	0.283423	0.142102
O20	O	1.399210	0.533423	0.392102
O21	O	0.749654	-0.244200	-0.312308
O22	O	0.999654	0.005800	-0.062308
O23	O	1.249654	0.255800	0.187692
O24	O	1.499654	0.505800	0.437692
O25	O	0.676762	-0.116159	-0.403541
O26	O	0.926762	0.133841	-0.153541
O27	O	1.176762	0.383841	0.096459
O28	O	1.426762	0.633841	0.346459
O29	O	0.621669	-0.188993	-0.191891
O30	O	0.871669	0.061007	0.058109
O31	O	1.121669	0.311007	0.308109
O32	O	1.371669	0.561007	0.558109
O33	O	0.749609	-0.189010	-0.403543
O34	O	0.999609	0.060990	-0.153543
O35	O	1.249609	0.310990	0.096457
O36	O	1.499609	0.560990	0.346457
O37	O	0.676865	-0.244191	-0.191893
O38	O	0.926865	0.005809	0.058107
O39	O	1.176865	0.255809	0.308107
O40	O	1.426865	0.505809	0.558107
O41	O	0.621610	-0.116151	-0.312304
O42	O	0.871610	0.133849	-0.062304
O43	O	1.121610	0.383849	0.187696
O44	O	1.371610	0.633849	0.437696
O45	O	0.548797	-0.188962	-0.312266
O46	O	0.798797	0.061038	-0.062266
O47	O	1.048797	0.311038	0.187734
O48	O	1.298797	0.561038	0.437734
O49	O	0.621627	-0.316987	-0.403477
O50	O	0.871627	-0.066987	-0.153477
O51	O	1.121627	0.183013	0.096523
O52	O	1.371627	0.433013	0.346523
O53	O	0.548779	-0.244136	-0.403474
O54	O	0.798779	0.005864	-0.153474
O55	O	1.048779	0.255864	0.096526
O56	O	1.298779	0.505864	0.346526
O57	O	0.676841	-0.317011	-0.312270
O58	O	0.926841	-0.067011	-0.062270
O59	O	1.176841	0.182989	0.187730
O60	O	1.426841	0.432989	0.437730
O61	O	0.676737	-0.188979	-0.523918
O62	O	0.926737	0.061021	-0.273918
O63	O	1.176737	0.311021	-0.023918
O64	O	1.426737	0.561021	0.226082
O65	O	0.621568	-0.244146	-0.523889
O66	O	0.871568	0.005854	-0.273889
O67	O	1.121568	0.255854	-0.023889
O68	O	1.371568	0.505854	0.226111
C69	C	0.532487	-0.216545	-0.357866
C70	C	0.782487	0.033455	-0.107866
C71	C	1.032487	0.283455	0.142134
C72	C	1.282487	0.533455	0.392134
C73	C	0.482553	-0.216541	-0.357871
C74	C	0.732553	0.033459	-0.107871
C75	C	0.982553	0.283459	0.142129
C76	C	1.232553	0.533459	0.392129
C77	C	0.172909	-0.245271	-0.405460
C78	C	0.422909	0.004729	-0.155460
C79	C	0.672909	0.254729	0.094540
C80	C	0.922909	0.504729	0.344540
C81	C	-0.014764	-0.245291	-0.405481
C82	C	0.235236	0.004709	-0.155481
C83	C	0.485236	0.254709	0.094519
C84	C	0.735236	0.504709	0.344519
O85	O	-0.039029	-0.269699	-0.445908
O86	O	0.210971	-0.019699	-0.195908
O87	O	0.460971	0.230301	0.054092
O88	O	0.710971	0.480301	0.304092
N89	N	-0.038232	-0.216611	-0.357925
N90	N	0.211768	0.033389	-0.107925
N91	N	0.461768	0.283389	0.142075
N92	N	0.711768	0.533389	0.392075
C93	C	-0.014780	-0.187926	-0.310357
C94	C	0.235220	0.062074	-0.060357
C95	C	0.485220	0.312074	0.189643
C96	C	0.735220	0.562074	0.439643
O97	O	-0.039047	-0.163535	-0.269903
O98	O	0.210953	0.086465	-0.019903
O99	O	0.460953	0.336465	0.230097
O100	O	0.710953	0.586465	0.480097
C101	C	0.172892	-0.187908	-0.310333
C102	C	0.422892	0.062092	-0.060333
C103	C	0.672892	0.312092	0.189667
C104	C	0.922892	0.562092	0.439667
C105	C	0.196359	-0.216587	-0.357897
C106	C	0.446359	0.033413	-0.107897
C107	C	0.696359	0.283413	0.142103
C108	C	0.946359	0.533413	0.392103
C109	C	0.196376	-0.273948	-0.453020
C110	C	0.446376	-0.023948	-0.203020
C111	C	0.696376	0.226052	0.046980
C112	C	0.946376	0.476052	0.296980
C113	C	0.243291	-0.273941	-0.453017
C114	C	0.493291	-0.023941	-0.203017
C115	C	0.743291	0.226059	0.046983
C116	C	0.993291	0.476059	0.296983
C117	C	0.266740	-0.245257	-0.405455
C118	C	0.516740	0.004743	-0.155455
C119	C	0.766740	0.254743	0.094545
C120	C	1.016740	0.504743	0.344545
C121	C	0.243274	-0.216580	-0.357895
C122	C	0.493274	0.033420	-0.107895
C123	C	0.743274	0.283420	0.142105
C124	C	0.993274	0.533420	0.392105
C125	C	0.196344	-0.159226	-0.262762
C126	C	0.446344	0.090774	-0.012762
C127	C	0.696344	0.340774	0.237238
C128	C	0.946344	0.590774	0.487238
C129	C	0.243265	-0.159225	-0.262759
C130	C	0.493265	0.090775	-0.012759
C131	C	0.743265	0.340775	0.237241
C132	C	0.993265	0.590775	0.487241
C133	C	0.266731	-0.187904	-0.310323
C134	C	0.516731	0.062096	-0.060323
C135	C	0.766731	0.312096	0.189677
C136	C	1.016731	0.562096	0.439677
C137	C	0.313639	-0.187889	-0.310329
C138	C	0.563639	0.062111	-0.060329
C139	C	0.813639	0.312111	0.189671
C140	C	1.063639	0.562111	0.439671
N141	N	0.337107	-0.216569	-0.357885
N142	N	0.587107	0.033431	-0.107885
N143	N	0.837107	0.283431	0.142115
N144	N	1.087107	0.533431	0.392115
C145	C	0.313658	-0.245253	-0.405448
C146	C	0.563658	0.004747	-0.155448
C147	C	0.813658	0.254747	0.094552
C148	C	1.063658	0.504747	0.344552
C149	C	-0.113310	-0.187936	-0.310374
C150	C	0.136690	0.062064	-0.060374
C151	C	0.386690	0.312064	0.189626
C152	C	0.636690	0.562064	0.439626
C153	C	-0.160228	-0.187940	-0.310381
C154	C	0.089772	0.062060	-0.060381
C155	C	0.339772	0.312060	0.189619
C156	C	0.589772	0.562060	0.439619
C157	C	-0.160209	-0.245306	-0.405504
C158	C	0.089791	0.004694	-0.155504
C159	C	0.339791	0.254694	0.094496
C160	C	0.589791	0.504694	0.344496
C161	C	-0.113290	-0.245300	-0.405501
C162	C	0.136710	0.004700	-0.155501
C163	C	0.386710	0.254700	0.094499
C164	C	0.636710	0.504700	0.344499
C165	C	-0.089842	-0.216616	-0.357930
C166	C	0.160158	0.033384	-0.107930
C167	C	0.410158	0.283384	0.142070
C168	C	0.660158	0.533384	0.392070
C169	C	0.412184	-0.245236	-0.405439
C170	C	0.662184	0.004764	-0.155439
C171	C	0.912184	0.254764	0.094561
C172	C	1.162184	0.504764	0.344561
C173	C	0.459104	-0.245225	-0.405434
C174	C	0.709104	0.004775	-0.155434
C175	C	0.959104	0.254775	0.094566
C176	C	1.209104	0.504775	0.344566
C177	C	0.459080	-0.187861	-0.310308
C178	C	0.709080	0.062139	-0.060308
C179	C	0.959080	0.312139	0.189692
C180	C	1.209080	0.562139	0.439692
C181	C	0.412165	-0.187870	-0.310315
C182	C	0.662165	0.062130	-0.060315
C183	C	0.912165	0.312130	0.189685
C184	C	1.162165	0.562130	0.439685
C185	C	0.388718	-0.216561	-0.357883
C186	C	0.638718	0.033439	-0.107883
C187	C	0.888718	0.283439	0.142117
C188	C	1.138718	0.533439	0.392117
O189	O	0.337933	-0.163498	-0.269917
O190	O	0.587933	0.086502	-0.019917
O191	O	0.837933	0.336502	0.230083
O192	O	1.087933	0.586502	0.480083
O193	O	0.337934	-0.269647	-0.445884
O194	O	0.587934	-0.019647	-0.195884
O195	O	0.837934	0.230353	0.054116
O196	O	1.087934	0.480353	0.304116
C197	C	0.125994	-0.245278	-0.405463
C198	C	0.375994	0.004722	-0.155463
C199	C	0.625994	0.254722	0.094537
C200	C	0.875994	0.504722	0.344537
C201	C	0.102528	-0.216601	-0.357903
C202	C	0.352528	0.033399	-0.107903
C203	C	0.602528	0.283399	0.142097
C204	C	0.852528	0.533399	0.392097
C205	C	0.125977	-0.187917	-0.310340
C206	C	0.375977	0.062083	-0.060340
C207	C	0.625977	0.312083	0.189660
C208	C	0.875977	0.562083	0.439660
C209	C	0.055610	-0.216605	-0.357910
C210	C	0.305610	0.033395	-0.107910
C211	C	0.555610	0.283395	0.142090
C212	C	0.805610	0.533395	0.392090
C213	C	0.032161	-0.245289	-0.405473
C214	C	0.282161	0.004711	-0.155473
C215	C	0.532161	0.254711	0.094527
C216	C	0.782161	0.504711	0.344527
C217	C	0.055629	-0.273969	-0.453029
C218	C	0.305629	-0.023969	-0.203029
C219	C	0.555629	0.226031	0.046971
C220	C	0.805629	0.476031	0.296971
C221	C	0.102545	-0.273962	-0.453026
C222	C	0.352545	-0.023962	-0.203026
C223	C	0.602545	0.226038	0.046974
C224	C	0.852545	0.476038	0.296974
C225	C	0.102508	-0.159237	-0.262785
C226	C	0.352508	0.090763	-0.012785
C227	C	0.602508	0.340763	0.237215
C228	C	0.852508	0.590763	0.487215
C229	C	0.055593	-0.159246	-0.262792
C230	C	0.305593	0.090754	-0.012792
C231	C	0.555593	0.340754	0.237208
C232	C	0.805593	0.590754	0.487208
C233	C	0.032144	-0.187930	-0.310355
C234	C	0.282144	0.062070	-0.060355
C235	C	0.532144	0.312070	0.189645
C236	C	0.782144	0.562070	0.439645
C237	C	0.649238	-0.333755	-0.357870
C238	C	0.899238	-0.083755	-0.107870
C239	C	1.149238	0.166245	0.142130
C240	C	1.399238	0.416245	0.392130
C241	C	0.649249	-0.383690	-0.357857
C242	C	0.899249	-0.133690	-0.107857
C243	C	1.149249	0.116310	0.142143
C244	C	1.399249	0.366310	0.392143
C245	C	0.620541	-0.693332	-0.310276
C246	C	0.870541	-0.443332	-0.060276
C247	C	1.120541	-0.193332	0.189724
C248	C	1.370541	0.056668	0.439724
C249	C	0.620554	-0.881006	-0.310225
C250	C	0.870554	-0.631006	-0.060225
C251	C	1.120554	-0.381006	0.189775
C252	C	1.370554	-0.131006	0.439775
O253	O	0.596123	-0.905270	-0.269844
O254	O	0.846123	-0.655270	-0.019844
O255	O	1.096123	-0.405270	0.230156
O256	O	1.346123	-0.155270	0.480156
N257	N	0.649271	-0.904475	-0.357718
N258	N	0.899271	-0.654475	-0.107718
N259	N	1.149271	-0.404475	0.142282
N260	N	1.399271	-0.154475	0.392282
C261	C	0.677984	-0.881024	-0.405231
C262	C	0.927984	-0.631024	-0.155231
C263	C	1.177984	-0.381024	0.094769
C264	C	1.427984	-0.131024	0.344769
O265	O	0.702407	-0.905292	-0.445631
O266	O	0.952407	-0.655292	-0.195631
O267	O	1.202407	-0.405292	0.054369
O268	O	1.452407	-0.155292	0.304369
C269	C	0.677969	-0.693351	-0.405286
C270	C	0.927969	-0.443351	-0.155286
C271	C	1.177969	-0.193351	0.094714
C272	C	1.427969	0.056649	0.344714
C273	C	0.649254	-0.669884	-0.357784
C274	C	0.899254	-0.419884	-0.107784
C275	C	1.149254	-0.169884	0.142216
C276	C	1.399254	0.080116	0.392216
C277	C	0.591828	-0.669865	-0.262779
C278	C	0.841828	-0.419865	-0.012779
C279	C	1.091828	-0.169865	0.237221
C280	C	1.341828	0.080135	0.487221
C281	C	0.591827	-0.622950	-0.262789
C282	C	0.841827	-0.372950	-0.012789
C283	C	1.091827	-0.122950	0.237211
C284	C	1.341827	0.127050	0.487211
C285	C	0.620539	-0.599501	-0.310297
C286	C	0.870539	-0.349501	-0.060297
C287	C	1.120539	-0.099501	0.189703
C288	C	1.370539	0.150499	0.439703
C289	C	0.649252	-0.622969	-0.357795
C290	C	0.899252	-0.372969	-0.107795
C291	C	1.149252	-0.122969	0.142205
C292	C	1.399252	0.127031	0.392205
C293	C	0.706680	-0.669901	-0.452802
C294	C	0.956680	-0.419901	-0.202802
C295	C	1.206680	-0.169901	0.047198
C296	C	1.456680	0.080099	0.297198
C297	C	0.706673	-0.622979	-0.452813
C298	C	0.956673	-0.372979	-0.202813
C299	C	1.206673	-0.122979	0.047187
C300	C	1.456673	0.127021	0.297187
C301	C	0.677957	-0.599512	-0.405311
C302	C	0.927957	-0.349512	-0.155311
C303	C	1.177957	-0.099512	0.094689
C304	C	1.427957	0.150488	0.344689
C305	C	0.677964	-0.552605	-0.405313
C306	C	0.927964	-0.302605	-0.155313
C307	C	1.177964	-0.052605	0.094687
C308	C	1.427964	0.197395	0.344687
N309	N	0.649247	-0.529135	-0.357820
N310	N	0.899247	-0.279135	-0.107820
N311	N	1.149247	-0.029135	0.142180
N312	N	1.399247	0.220865	0.392180
C313	C	0.620534	-0.552584	-0.310312
C314	C	0.870534	-0.302584	-0.060312
C315	C	1.120534	-0.052584	0.189688
C316	C	1.370534	0.197416	0.439688
C317	C	0.677991	-0.979554	-0.405198
C318	C	0.927991	-0.729554	-0.155198
C319	C	1.177991	-0.479554	0.094802
C320	C	1.427991	-0.229554	0.344802
C321	C	0.677995	-1.026472	-0.405184
C322	C	0.927995	-0.776472	-0.155184
C323	C	1.177995	-0.526472	0.094816
C324	C	1.427995	-0.276472	0.344816
C325	C	0.620564	-1.026451	-0.310178
C326	C	0.870564	-0.776451	-0.060178
C327	C	1.120564	-0.526451	0.189822
C328	C	1.370564	-0.276451	0.439822
C329	C	0.620562	-0.979532	-0.310189
C330	C	0.870562	-0.729532	-0.060189
C331	C	1.120562	-0.479532	0.189811
C332	C	1.370562	-0.229532	0.439811
C333	C	0.649274	-0.956085	-0.357705
C334	C	0.899274	-0.706085	-0.107705
C335	C	1.149274	-0.456085	0.142295
C336	C	1.399274	-0.206085	0.392295
C337	C	0.620534	-0.454058	-0.310337
C338	C	0.870534	-0.204058	-0.060337
C339	C	1.120534	0.045942	0.189663
C340	C	1.370534	0.295942	0.439663
C341	C	0.620537	-0.407138	-0.310350
C342	C	0.870537	-0.157138	-0.060350
C343	C	1.120537	0.092862	0.189650
C344	C	1.370537	0.342862	0.439650
C345	C	0.677966	-0.407163	-0.405358
C346	C	0.927966	-0.157163	-0.155358
C347	C	1.177966	0.092837	0.094642
C348	C	1.427966	0.342837	0.344642
C349	C	0.677966	-0.454079	-0.405343
C350	C	0.927966	-0.204079	-0.155343
C351	C	1.177966	0.045921	0.094657
C352	C	1.427966	0.295921	0.344657
C353	C	0.649246	-0.477525	-0.357830
C354	C	0.899246	-0.227525	-0.107830
C355	C	1.149246	0.022475	0.142170
C356	C	1.399246	0.272475	0.392170
O357	O	0.702378	-0.528312	-0.445679
O358	O	0.952378	-0.278312	-0.195679
O359	O	1.202378	-0.028312	0.054321
O360	O	1.452378	0.221688	0.304321
O361	O	0.596109	-0.528307	-0.269929
O362	O	0.846109	-0.278307	-0.019929
O363	O	1.096109	-0.028307	0.230071
O364	O	1.346109	0.221693	0.480071
C365	C	0.620542	-0.740248	-0.310266
C366	C	0.870542	-0.490248	-0.060266
C367	C	1.120542	-0.240248	0.189734
C368	C	1.370542	0.009752	0.439734
C369	C	0.649256	-0.763715	-0.357763
C370	C	0.899256	-0.513715	-0.107763
C371	C	1.149256	-0.263715	0.142237
C372	C	1.399256	-0.013715	0.392237
C373	C	0.677968	-0.740267	-0.405271
C374	C	0.927968	-0.490267	-0.155271
C375	C	1.177968	-0.240267	0.094729
C376	C	1.427968	0.009733	0.344729
C377	C	0.649260	-0.810633	-0.357749
C378	C	0.899260	-0.560633	-0.107749
C379	C	1.149260	-0.310633	0.142251
C380	C	1.399260	-0.060633	0.392251
C381	C	0.620548	-0.834081	-0.310241
C382	C	0.870548	-0.584081	-0.060241
C383	C	1.120548	-0.334081	0.189759
C384	C	1.370548	-0.084081	0.439759
C385	C	0.591831	-0.810612	-0.262747
C386	C	0.841831	-0.560612	-0.012747
C387	C	1.091831	-0.310612	0.237253
C388	C	1.341831	-0.060612	0.487253
C389	C	0.591830	-0.763696	-0.262758
C390	C	0.841830	-0.513696	-0.012758
C391	C	1.091830	-0.263696	0.237242
C392	C	1.341830	-0.013696	0.487242
C393	C	0.706685	-0.763736	-0.452764
C394	C	0.956685	-0.513736	-0.202764
C395	C	1.206685	-0.263736	0.047236
C396	C	1.456685	-0.013736	0.297236
C397	C	0.706684	-0.810652	-0.452749
C398	C	0.956684	-0.560652	-0.202749
C399	C	1.206684	-0.310652	0.047251
C400	C	1.456684	-0.060652	0.297251
C401	C	0.677972	-0.834100	-0.405241
C402	C	0.927972	-0.584100	-0.155241
C403	C	1.177972	-0.334100	0.094759
C404	C	1.427972	-0.084100	0.344759
C405	C	0.766388	-0.216610	-0.357930
C406	C	1.016388	0.033390	-0.107930
C407	C	1.266388	0.283390	0.142070
C408	C	1.516388	0.533390	0.392070
C409	C	0.816323	-0.216624	-0.357944
C410	C	1.066323	0.033376	-0.107944
C411	C	1.316323	0.283376	0.142056
C412	C	1.566323	0.533376	0.392056
C413	C	0.649156	-0.216570	-0.550850
C414	C	0.899156	0.033430	-0.300850
C415	C	1.149156	0.283430	-0.050850
C416	C	1.399156	0.533430	0.199150
C417	C	0.649173	-0.216581	-0.633396
C418	C	0.899173	0.033419	-0.383396
C419	C	1.149173	0.283419	-0.133396
C420	C	1.399173	0.533419	0.116604
C421	C	0.649208	-0.099854	-0.357873
C422	C	0.899208	0.150146	-0.107873
C423	C	1.149208	0.400146	0.142127
C424	C	1.399208	0.650146	0.392127
C425	C	0.649283	-0.049920	-0.357676
C426	C	0.899283	0.200080	-0.107676
C427	C	1.149283	0.450080	0.142324
C428	C	1.399283	0.700080	0.392324
C429	C	0.619202	-0.246571	-0.832858
C430	C	0.869202	0.003429	-0.582858
C431	C	1.119202	0.253429	-0.332858
C432	C	1.369202	0.503429	-0.082858
C433	C	0.608250	-0.205574	-0.882289
C434	C	0.858250	0.044426	-0.632289
C435	C	1.108250	0.294426	-0.382289
C436	C	1.358250	0.544426	-0.132289
C437	C	0.649218	-0.216587	-0.784526
C438	C	0.899218	0.033413	-0.534526
C439	C	1.149218	0.283413	-0.284526
C440	C	1.399218	0.533413	-0.034526
C441	C	0.660191	-0.257588	-0.882177
C442	C	0.910191	-0.007588	-0.632177
C443	C	1.160191	0.242412	-0.382177
C444	C	1.410191	0.492412	-0.132177
C445	C	0.649259	-0.216597	-0.930511
C446	C	0.899259	0.033403	-0.680511
C447	C	1.149259	0.283403	-0.430511
C448	C	1.399259	0.533403	-0.180511
C449	C	0.638245	-0.175569	-0.832870
C450	C	0.888245	0.074431	-0.582870
C451	C	1.138245	0.324431	-0.332870
C452	C	1.388245	0.574431	-0.082870
C453	C	0.690204	-0.227611	-0.832754
C454	C	0.940204	0.022389	-0.582754
C455	C	1.190204	0.272389	-0.332754
C456	C	1.440204	0.522389	-0.082754
C457	C	0.679269	-0.186586	-0.882162
C458	C	0.929269	0.063414	-0.632162
C459	C	1.179269	0.313414	-0.382162
C460	C	1.429269	0.563414	-0.132162
C461	C	0.649192	-0.216582	-0.700428
C462	C	0.899192	0.033418	-0.450428
C463	C	1.149192	0.283418	-0.200428
C464	C	1.399192	0.533418	0.049572
C465	C	0.649285	-0.216597	-1.014608
C466	C	0.899285	0.033403	-0.764608
C467	C	1.149285	0.283403	-0.514608
C468	C	1.399285	0.533403	-0.264608
C469	C	0.649276	-0.216594	-0.164192
C470	C	0.899276	0.033406	0.085808
C471	C	1.149276	0.283406	0.335808
C472	C	1.399276	0.533406	0.585808
C473	C	0.649305	-0.216602	-0.081647
C474	C	0.899305	0.033398	0.168353
C475	C	1.149305	0.283398	0.418353
C476	C	1.399305	0.533398	0.668353
H477	H	0.262393	-0.297295	-0.491748
H478	H	0.512393	-0.047295	-0.241748
H479	H	0.762393	0.202705	0.008252
H480	H	1.012393	0.452705	0.258252
H481	H	0.730065	-0.744649	-0.491455
H482	H	0.980065	-0.494649	-0.241455
H483	H	1.230065	-0.244649	0.008545
H484	H	1.480065	0.005351	0.258545
Cl485	Cl	0.026141	-0.310027	-0.512824
Cl486	Cl	0.276141	-0.060027	-0.262824
Cl487	Cl	0.526141	0.189973	-0.012824
Cl488	Cl	0.776141	0.439973	0.237176
Cl489	Cl	0.623879	-0.122025	-0.799574
Cl490	Cl	0.873879	0.127975	-0.549574
Cl491	Cl	1.123879	0.377975	-0.299574
Cl492	Cl	1.373879	0.627975	-0.049574
Cl493	Cl	0.714073	-0.483581	-0.465047
Cl494	Cl	0.964073	-0.233581	-0.215047
Cl495	Cl	1.214073	0.016419	0.034953
Cl496	Cl	1.464073	0.266419	0.284953
Cl497	Cl	0.579957	-0.285664	-0.799429
Cl498	Cl	0.829957	-0.035664	-0.549429
Cl499	Cl	1.079957	0.214336	-0.299429
Cl500	Cl	1.329957	0.464336	-0.049429
Cl501	Cl	0.555737	-0.840099	-0.203022
Cl502	Cl	0.805737	-0.590099	0.046978
Cl503	Cl	1.055737	-0.340099	0.296978
Cl504	Cl	1.305737	-0.090099	0.546978
H505	H	0.704670	-0.161205	-0.903675
H506	H	0.954670	0.088795	-0.653675
H507	H	1.204670	0.338795	-0.403675
H508	H	1.454670	0.588795	-0.153675
Cl509	Cl	0.742769	-0.593506	-0.512553
Cl510	Cl	0.992769	-0.343506	-0.262553
Cl511	Cl	1.242769	-0.093506	-0.012553
Cl512	Cl	1.492769	0.156494	0.237447
H513	H	0.121596	-0.135879	-0.224052
H514	H	0.371596	0.114121	0.025948
H515	H	0.621596	0.364121	0.275948
H516	H	0.871596	0.614121	0.525948
H517	H	0.669456	-0.292259	-0.903836
H518	H	0.919456	-0.042259	-0.653836
H519	H	1.169456	0.207741	-0.403836
H520	H	1.419456	0.457741	-0.153836
Cl521	Cl	0.584436	-0.377639	-0.250627
Cl522	Cl	0.834436	-0.127639	-0.000627
Cl523	Cl	1.084436	0.122361	0.249373
Cl524	Cl	1.334436	0.372361	0.499373
H525	H	0.478208	-0.268580	-0.444169
H526	H	0.728208	-0.018580	-0.194169
H527	H	0.978208	0.231420	0.055831
H528	H	1.228208	0.481420	0.305831
H529	H	0.724838	-0.236946	-0.810981
H530	H	0.974838	0.013054	-0.560981
H531	H	1.224838	0.263054	-0.310981
H532	H	1.474838	0.513054	-0.060981
H533	H	0.730063	-0.688999	-0.491484
H534	H	0.980063	-0.438999	-0.241484
H535	H	1.230063	-0.188999	0.008516
H536	H	1.480063	0.061001	0.258516
Cl537	Cl	0.166905	-0.310013	-0.512822
Cl538	Cl	0.416905	-0.060013	-0.262822
Cl539	Cl	0.666905	0.189987	-0.012822
Cl540	Cl	0.916905	0.439987	0.237178
Cl541	Cl	-0.189697	-0.281369	-0.465292
Cl542	Cl	0.060303	-0.031369	-0.215292
Cl543	Cl	0.310303	0.218631	0.034708
Cl544	Cl	0.560303	0.468631	0.284708
H545	H	0.393099	-0.268600	-0.444171
H546	H	0.643099	-0.018600	-0.194171
H547	H	0.893099	0.231400	0.055829
H548	H	1.143099	0.481400	0.305829
H549	H	0.701345	-0.388063	-0.444035
H550	H	0.951345	-0.138063	-0.194035
H551	H	1.201345	0.111937	0.055965
H552	H	1.451345	0.361937	0.305965
Cl553	Cl	0.026098	-0.123187	-0.202992
Cl554	Cl	0.276098	0.126813	0.047008
Cl555	Cl	0.526098	0.376813	0.297008
Cl556	Cl	0.776098	0.626813	0.547008
Cl557	Cl	0.742789	-0.840148	-0.512471
Cl558	Cl	0.992789	-0.590148	-0.262471
Cl559	Cl	1.242789	-0.340148	-0.012471
Cl560	Cl	1.492789	-0.090148	0.237529
H561	H	0.573609	-0.196259	-0.904063
H562	H	0.823609	0.053741	-0.654063
H563	H	1.073609	0.303741	-0.404063
H564	H	1.323609	0.553741	-0.154063
Cl565	Cl	-0.189723	-0.151879	-0.250593
Cl566	Cl	0.060277	0.098121	-0.000593
Cl567	Cl	0.310277	0.348121	0.249407
Cl568	Cl	0.560277	0.598121	0.499407
H569	H	-0.094187	-0.268653	-0.444231
H570	H	0.155813	-0.018653	-0.194231
H571	H	0.405813	0.231347	0.055769
H572	H	0.655813	0.481347	0.305769
H573	H	-0.094223	-0.164577	-0.271636
H574	H	0.155777	0.085423	-0.021636
H575	H	0.405777	0.335423	0.228364
H576	H	0.655777	0.585423	0.478364
Cl577	Cl	0.166855	-0.123173	-0.202957
Cl578	Cl	0.416855	0.126827	0.047043
Cl579	Cl	0.666855	0.376827	0.297043
Cl580	Cl	0.916855	0.626827	0.547043
H581	H	0.393058	-0.164516	-0.271586
H582	H	0.643058	0.085484	-0.021586
H583	H	0.893058	0.335484	0.228414
H584	H	1.143058	0.585484	0.478414
Cl585	Cl	0.272740	-0.123163	-0.202952
Cl586	Cl	0.522740	0.126837	0.047048
Cl587	Cl	0.772740	0.376837	0.297048
Cl588	Cl	1.022740	0.626837	0.547048
Cl589	Cl	0.584461	-0.950035	-0.250472
Cl590	Cl	0.834461	-0.700035	-0.000472
Cl591	Cl	1.084461	-0.450035	0.249528
Cl592	Cl	1.334461	-0.200035	0.499528
H593	H	0.121647	-0.297316	-0.491757
H594	H	0.371647	-0.047316	-0.241757
H595	H	0.621647	0.202684	0.008243
H596	H	0.871647	0.452684	0.258243
Cl597	Cl	0.488568	-0.151804	-0.250517
Cl598	Cl	0.738568	0.098196	-0.000517
Cl599	Cl	0.988568	0.348196	0.249483
Cl600	Cl	1.238568	0.598196	0.499483
H601	H	0.568447	-0.744593	-0.224077
H602	H	0.818447	-0.494593	0.025923
H603	H	1.068447	-0.244593	0.275923
H604	H	1.318447	0.005407	0.525923
H605	H	0.597149	-0.473142	-0.271647
H606	H	0.847149	-0.223142	-0.021647
H607	H	1.097149	0.026858	0.228353
H608	H	1.347149	0.276858	0.478353
H609	H	0.568442	-0.603847	-0.224111
H610	H	0.818442	-0.353847	0.025889
H611	H	1.068442	-0.103847	0.275889
H612	H	1.318442	0.146153	0.525889
H613	H	0.597187	-1.045550	-0.271493
H614	H	0.847187	-0.795550	-0.021493
H615	H	1.097187	-0.545550	0.228507
H616	H	1.347187	-0.295550	0.478507
Cl617	Cl	0.714102	-1.055968	-0.464893
Cl618	Cl	0.964102	-0.805968	-0.214893
Cl619	Cl	1.214102	-0.555968	0.035107
Cl620	Cl	1.464102	-0.305968	0.285107
Cl621	Cl	0.714092	-0.950084	-0.464934
Cl622	Cl	0.964092	-0.700084	-0.214934
Cl623	Cl	1.214092	-0.450084	0.035066
Cl624	Cl	1.464092	-0.200084	0.285066
Cl625	Cl	0.555722	-0.699335	-0.203055
Cl626	Cl	0.805722	-0.449335	0.046945
Cl627	Cl	1.055722	-0.199335	0.296945
Cl628	Cl	1.305722	0.050665	0.546945
