data_functionalizedCrystal
_audit_creation_method	'MofGen! by Chris Wilmer'
_symmetry_space_group_name_H-M	'P1'
_symmetry_Int_Tables_number	1
_symmetry_cell_setting	triclinic
loop_
_symmetry_equiv_pos_as_xyz
  x,y,z
_cell_length_a	11.792241
_cell_length_b	11.792254
_cell_length_c	10.868271
_cell_angle_alpha	89.994692
_cell_angle_beta	89.999893
_cell_angle_gamma	84.196007
loop_
_atom_site_label
_atom_site_type_symbol
_atom_site_fract_x
_atom_site_fract_y
_atom_site_fract_z
O1	O	1.506915	0.155568	-0.102203
O2	O	1.840249	0.488901	0.231130
O3	O	2.173582	0.822234	0.564463
O4	O	1.176575	0.171600	-0.102232
O5	O	1.509908	0.504934	0.231101
O6	O	1.843242	0.838267	0.564435
O7	O	1.349754	-0.001586	-0.102208
O8	O	1.683088	0.331748	0.231125
O9	O	2.016421	0.665081	0.564458
O10	O	1.333736	0.328754	-0.102227
O11	O	1.667070	0.662087	0.231106
O12	O	2.000403	0.995420	0.564440
O13	O	1.349740	-0.001592	0.102436
O14	O	1.683073	0.331741	0.435770
O15	O	2.016407	0.665074	0.769103
O16	O	1.176561	0.171594	0.102413
O17	O	1.509894	0.504927	0.435746
O18	O	1.843227	0.838260	0.769079
O19	O	1.506901	0.155561	0.102441
O20	O	1.840234	0.488894	0.435775
O21	O	2.173568	0.822227	0.769108
Zn22	Zn	1.341729	0.163576	0.134919
Zn23	Zn	1.675062	0.496909	0.468252
Zn24	Zn	2.008395	0.830243	0.801585
Zn25	Zn	1.341748	0.163585	-0.134709
Zn26	Zn	1.675081	0.496918	0.198624
Zn27	Zn	2.008414	0.830252	0.531957
O28	O	1.333722	0.328747	0.102418
O29	O	1.667055	0.662080	0.435751
O30	O	2.000389	0.995413	0.769084
C31	C	1.134277	0.170590	0.000087
C32	C	1.467610	0.503923	0.333420
C33	C	1.800944	0.837257	0.666753
C34	C	1.008263	0.167576	0.000076
C35	C	1.341596	0.500909	0.333409
C36	C	1.674930	0.834242	0.666743
C37	C	1.348738	-0.043880	0.000114
C38	C	1.682071	0.289454	0.333447
C39	C	2.015405	0.622787	0.666780
C40	C	1.345718	-0.169893	0.000112
C41	C	1.679051	0.163441	0.333445
C42	C	2.012385	0.496774	0.666779
C43	C	1.343264	-0.272229	0.000108
C44	C	1.676597	0.061104	0.333441
C45	C	2.009931	0.394437	0.666774
C46	C	1.340196	-0.400616	0.000096
C47	C	1.673529	-0.067283	0.333429
C48	C	2.006862	0.266051	0.666763
C49	C	0.777551	0.162033	0.000112
C50	C	1.110884	0.495366	0.333445
C51	C	1.444217	0.828699	0.666778
C52	C	0.905936	0.165112	0.000092
C53	C	1.239269	0.498446	0.333425
C54	C	1.572603	0.831779	0.666759
C55	C	1.549199	0.156571	0.000120
C56	C	1.882533	0.489905	0.333453
C57	C	2.215866	0.823238	0.666787
C58	C	1.675213	0.159586	0.000123
C59	C	2.008546	0.492919	0.333456
C60	C	2.341880	0.826252	0.666789
C61	C	1.334738	0.371041	0.000093
C62	C	1.668071	0.704374	0.333426
C63	C	2.001405	1.037708	0.666760
C64	C	1.337758	0.497054	0.000086
C65	C	1.671092	0.830387	0.333420
C66	C	2.004425	1.163721	0.666753
N67	N	1.341724	0.163569	0.318933
N68	N	1.675057	0.496903	0.652266
N69	N	2.008391	0.830236	0.985599
N70	N	1.341761	0.163583	-0.318724
N71	N	1.675094	0.496916	0.014610
N72	N	2.008428	0.830250	0.347943
C73	C	1.341742	0.163583	0.569939
C74	C	1.675075	0.496916	0.903272
C75	C	2.008408	0.830249	1.236605
C76	C	1.341728	0.163579	0.430261
C77	C	1.675062	0.496912	0.763595
C78	C	2.008395	0.830245	1.096928
