data_functionalizedCrystal
_audit_creation_method	'MofGen! by Chris Wilmer'
_symmetry_space_group_name_H-M	'P1'
_symmetry_Int_Tables_number	1
_symmetry_cell_setting	triclinic
loop_
_symmetry_equiv_pos_as_xyz
  x,y,z
_cell_length_a	10.686220
_cell_length_b	19.121063
_cell_length_c	10.686551
_cell_angle_alpha	91.787201
_cell_angle_beta	89.691918
_cell_angle_gamma	96.652836
loop_
_atom_site_label
_atom_site_type_symbol
_atom_site_fract_x
_atom_site_fract_y
_atom_site_fract_z
Zn1	Zn	1.960178	-0.171149	0.576393
Zn2	Zn	1.934959	-0.298212	0.377034
Zn3	Zn	1.733026	-0.189107	0.384180
Zn4	Zn	1.741490	-0.296789	0.602695
O5	O	1.842413	-0.238814	0.485075
O6	O	2.132864	-0.181084	0.535949
O7	O	1.894076	-0.291850	0.203100
O8	O	1.770171	-0.088483	0.401661
O9	O	2.114336	-0.274436	0.389481
O10	O	1.937058	-0.075289	0.542879
O11	O	1.745717	-0.211691	0.208351
O12	O	1.558117	-0.210311	0.427165
O13	O	1.784596	-0.272012	0.774087
O14	O	1.564336	-0.289425	0.587707
O15	O	1.945265	-0.179704	0.754764
O16	O	1.902282	-0.396264	0.414984
O17	O	1.760141	-0.395219	0.580777
C18	C	1.515583	-0.251663	0.511066
C19	C	1.375765	-0.257175	0.522216
C20	C	1.829430	-0.421212	0.499984
C21	C	1.823994	-0.499236	0.506394
C22	C	1.895514	-0.536407	0.423148
C23	C	1.890409	-0.609719	0.429183
C24	C	1.813778	-0.645858	0.518461
C25	C	1.742256	-0.608681	0.601716
C26	C	1.747368	-0.535371	0.595685
C27	C	1.794644	-0.867182	0.540991
C28	C	1.789534	-0.940498	0.547013
C29	C	1.937690	-0.941530	0.374481
C30	C	1.942789	-0.868219	0.368454
C31	C	1.871272	-0.831048	0.451713
C32	C	1.808556	-0.720794	0.524630
C33	C	1.876502	-0.756113	0.445549
C34	C	2.170519	-0.225915	0.458984
C35	C	2.310339	-0.220419	0.447865
C36	C	1.868688	-0.223696	0.811038
C37	C	1.879884	-0.217254	0.949944
C38	C	1.855484	-0.055701	0.470134
C39	C	1.861053	0.022331	0.463766
C40	C	1.816317	-0.253820	0.160371
C41	C	1.805378	-0.260055	0.021430
H42	H	1.324808	-0.292868	0.594399
O43	O	1.966380	-0.167723	1.003640
C44	C	2.185982	-0.123362	1.023963
C45	C	2.088167	-0.179504	0.963090
H46	H	2.284466	-0.132858	0.991181
H47	H	2.180050	-0.126825	1.130176
H48	H	2.165825	-0.068801	0.995528
H49	H	2.108259	-0.234090	0.991426
H50	H	2.094121	-0.175979	0.856888
H51	H	1.689131	-0.505106	0.663474
O52	O	1.725032	-0.831194	0.621907
C53	C	1.577566	-0.837911	0.793689
C54	C	1.656326	-0.878760	0.702112
H55	H	1.522018	-0.876349	0.858576
H56	H	1.509521	-0.808907	0.738724
H57	H	1.642934	-0.798223	0.851621
H58	H	1.591056	-0.918483	0.644158
H59	H	1.724384	-0.907716	0.757151
H60	H	1.361289	-0.184734	0.375679
H61	H	1.679867	-0.638111	0.674412
O62	O	1.970059	-0.501411	0.336379
C63	C	2.116410	-0.510186	0.165841
C64	C	2.032060	-0.549902	0.264064
H65	H	2.166540	-0.549375	0.107330
H66	H	2.189244	-0.470587	0.215146
H67	H	2.055813	-0.481190	0.102270
H68	H	2.092555	-0.578939	0.327663
H69	H	1.959220	-0.589460	0.214677
O70	O	1.951125	-0.721030	0.358945
C71	C	2.161823	-0.692924	0.279509
C72	C	2.077471	-0.732683	0.377681
H73	H	2.263987	-0.702343	0.294606
H74	H	2.153296	-0.634129	0.289500
H75	H	2.130609	-0.712905	0.181674
H76	H	2.108628	-0.712761	0.475558
H77	H	2.086006	-0.791472	0.367580
O78	O	2.007135	-0.977742	0.293753
C79	C	2.064895	-1.091140	0.226547
C80	C	1.986192	-1.050218	0.318061
H81	H	2.047970	-1.149746	0.246150
H82	H	2.169115	-1.071707	0.239339
H83	H	2.035798	-1.082261	0.126330
H84	H	2.015180	-1.059079	0.418314
H85	H	1.881990	-1.069658	0.305159
H86	H	1.948647	-0.639981	0.361394
H87	H	2.005188	-0.838796	0.295757
H88	H	1.727149	-0.969919	0.619734
O89	O	1.719086	-0.309594	0.967476
C90	C	1.628960	-0.361445	0.775178
C91	C	1.726720	-0.305301	0.836128
H92	H	1.635117	-0.358003	0.668974
H93	H	1.530411	-0.351936	0.807740
H94	H	1.649041	-0.416002	0.803711
H95	H	1.706757	-0.250722	0.807623
H96	H	1.825238	-0.314872	0.803567
H97	H	1.746160	-0.750227	0.597317
