data_functionalizedCrystal
_audit_creation_method	'MofGen! by Chris Wilmer'
_symmetry_space_group_name_H-M	'P1'
_symmetry_Int_Tables_number	1
_symmetry_cell_setting	triclinic
loop_
_symmetry_equiv_pos_as_xyz
  x,y,z
_cell_length_a	12.759395
_cell_length_b	12.759394
_cell_length_c	19.076919
_cell_angle_alpha	87.725879
_cell_angle_beta	87.715567
_cell_angle_gamma	90.014682
loop_
_atom_site_label
_atom_site_type_symbol
_atom_site_fract_x
_atom_site_fract_y
_atom_site_fract_z
Zn1	Zn	1.582347	-0.442156	0.397899
Zn2	Zn	1.589312	-0.610792	0.280210
Zn3	Zn	1.413719	-0.435128	0.280225
Zn4	Zn	1.406638	-0.617792	0.397873
O5	O	1.498004	-0.526467	0.339052
O6	O	1.730292	-0.464538	0.382292
O7	O	1.571898	-0.581619	0.181722
O8	O	1.436136	-0.289040	0.295852
O9	O	1.735409	-0.588434	0.295827
O10	O	1.560026	-0.294204	0.382307
O11	O	1.442890	-0.452560	0.181733
O12	O	1.265759	-0.459347	0.295826
O13	O	1.424068	-0.600364	0.496366
O14	O	1.260557	-0.593549	0.382261
O15	O	1.553160	-0.471325	0.496385
O16	O	1.565032	-0.758741	0.295801
O17	O	1.430822	-0.763883	0.382247
C18	C	1.225037	-0.526446	0.339043
C19	C	1.108260	-0.526463	0.339056
C20	C	1.102903	-0.397676	0.429238
C21	C	1.045363	-0.333295	0.474335
C22	C	0.935641	-0.333315	0.474344
C23	C	0.883456	-0.397719	0.429250
C24	C	0.940996	-0.462099	0.384153
C25	C	1.050720	-0.462075	0.384150
C26	C	0.946353	-0.590879	0.293968
C27	C	1.056075	-0.590867	0.293961
C28	C	0.894168	-0.655283	0.248873
C29	C	0.951708	-0.719671	0.203779
C30	C	1.061436	-0.719650	0.203773
C31	C	1.113615	-0.655247	0.248865
C32	C	1.497942	-0.799433	0.339035
C33	C	1.498010	-0.916211	0.339051
C34	C	1.637860	-0.910807	0.249102
C35	C	1.707811	-0.962966	0.204135
C36	C	1.707871	-1.072689	0.204155
C37	C	1.637975	-1.130255	0.249146
C38	C	1.568024	-1.078096	0.294113
C39	C	1.567969	-0.968370	0.294087
C40	C	1.428181	-1.083500	0.384064
C41	C	1.428114	-0.973778	0.384043
C42	C	1.358285	-1.141067	0.429056
C43	C	1.288326	-1.088908	0.474020
C44	C	1.288268	-0.979178	0.473998
C45	C	1.358162	-0.921618	0.429009
C46	C	1.772037	-0.526489	0.339061
C47	C	1.888813	-0.526499	0.339065
C48	C	1.487047	-0.537409	0.522627
C49	C	1.482378	-0.542072	0.600855
C50	C	1.498094	-0.252435	0.339084
C51	C	1.498133	-0.135660	0.339098
C52	C	1.508979	-0.515491	0.156191
C53	C	1.513851	-0.510532	0.077963
C54	C	1.547393	-0.477082	0.637619
C55	C	1.542993	-0.481460	0.711123
C56	C	1.473583	-0.550833	0.747862
C57	C	1.408562	-0.615825	0.711094
C58	C	1.412957	-0.611442	0.637591
C59	C	1.453225	-0.571142	0.967691
C60	C	1.448837	-0.575522	1.041199
C61	C	1.583267	-0.441155	1.041223
C62	C	1.587661	-0.436782	0.967719
C63	C	1.522636	-0.501770	0.930957
N64	N	1.469086	-0.555311	0.822995
N65	N	1.527128	-0.497286	0.855825
H66	H	1.087864	-0.280857	0.511049
C67	C	1.332211	-0.692136	0.751502
H68	H	1.294113	-0.730207	0.719078
H69	H	1.370670	-0.739626	0.780172
H70	H	1.284729	-0.653647	0.780177
H71	H	1.192244	-0.397649	0.429233
C72	C	1.124727	-0.790466	0.154165
H73	H	1.197548	-0.781230	0.160614
H74	H	1.106129	-0.861694	0.164377
H75	H	1.109557	-0.772147	0.106895
C76	C	1.381679	-0.642605	0.927262
H77	H	1.339714	-0.684546	0.959672
H78	H	1.337636	-0.600679	0.898601
H79	H	1.423546	-0.686689	0.898576
H80	H	1.644185	-0.380294	0.937811
C81	C	0.773477	-0.655310	0.248880
H82	H	0.750642	-0.702880	0.215563
H83	H	0.745955	-0.676303	0.294277
H84	H	0.749377	-0.586762	0.236791
C85	C	0.872345	-0.262504	0.523952
H86	H	0.919134	-0.224149	0.550811
H87	H	0.831138	-0.215070	0.497090
H88	H	0.827725	-0.304617	0.554572
H89	H	1.231427	-1.135787	0.510652
H90	H	1.764722	-0.916086	0.167505
C91	C	1.211324	-0.921806	0.523462
H92	H	1.221300	-0.848214	0.517012
H93	H	1.141371	-0.939239	0.513134
H94	H	1.223850	-0.942563	0.570764
C95	C	0.762766	-0.397733	0.429256
H96	H	0.735971	-0.350169	0.462573
H97	H	0.740647	-0.376756	0.383861
H98	H	0.737219	-0.466290	0.441352
H99	H	1.638039	-1.219597	0.249164
C100	C	0.894305	-0.790507	0.154183
H101	H	0.820718	-0.781298	0.160648
H102	H	0.915101	-0.772202	0.106912
H103	H	0.911667	-0.861733	0.164404
C104	C	1.614514	-0.409976	0.751560
H105	H	1.656491	-0.368043	0.719152
H106	H	1.572631	-0.365901	0.780236
H107	H	1.658563	-0.451889	0.780231
C108	C	1.654780	-0.369666	1.081663
H109	H	1.642219	-0.382204	1.130700
H110	H	1.726086	-0.384326	1.069620
H111	H	1.640138	-0.298354	1.069623
C112	C	1.358348	-1.261759	0.429076
H113	H	1.410010	-1.284580	0.395848
H114	H	1.373768	-1.289247	0.474507
H115	H	1.291297	-1.285907	0.416872
C116	C	1.341444	-0.682929	0.597148
H117	H	1.353994	-0.670376	0.548111
H118	H	1.356071	-0.754240	0.609184
H119	H	1.270136	-0.668255	0.609192
C120	C	1.358101	-0.800927	0.428988
H121	H	1.306429	-0.778104	0.462209
H122	H	1.425147	-0.776775	0.441186
H123	H	1.342672	-0.773442	0.383554
H124	H	1.202956	-0.655219	0.248860
C125	C	1.623739	-0.400766	0.597212
H126	H	1.661820	-0.362680	0.629637
H127	H	1.671220	-0.439242	0.568534
H128	H	1.585267	-0.353274	0.568544
C129	C	1.784813	-1.130066	0.154692
H130	H	1.826428	-1.080072	0.127891
H131	H	1.828972	-1.174424	0.181646
H132	H	1.746498	-1.171089	0.124013
C133	C	1.372477	-0.651827	1.081615
H134	H	1.379183	-0.645134	1.130655
H135	H	1.302613	-0.635720	1.069568
H136	H	1.388547	-0.721706	1.069562
C137	C	1.637792	-0.790115	0.249075
H138	H	1.689439	-0.763301	0.215844
H139	H	1.570720	-0.764629	0.236868
H140	H	1.653196	-0.767954	0.294500
