data_functionalizedCrystal
_audit_creation_method	'MofGen! by Chris Wilmer'
_symmetry_space_group_name_H-M	'P1'
_symmetry_Int_Tables_number	1
_symmetry_cell_setting	triclinic
loop_
_symmetry_equiv_pos_as_xyz
  x,y,z
_cell_length_a	15.625020
_cell_length_b	15.538191
_cell_length_c	11.804365
_cell_angle_alpha	97.089886
_cell_angle_beta	60.610748
_cell_angle_gamma	66.738808
loop_
_atom_site_label
_atom_site_type_symbol
_atom_site_fract_x
_atom_site_fract_y
_atom_site_fract_z
O1	O	1.321244	-0.005490	-0.669651
O2	O	1.022088	0.033933	-0.540449
O3	O	1.229901	-0.127664	-0.630207
O4	O	1.113432	0.156108	-0.579894
O5	O	1.175206	-0.085161	-0.408527
O6	O	0.967393	0.076436	-0.318770
O7	O	1.266549	0.037013	-0.447972
Cu8	Cu	1.111977	0.060606	-0.363129
Cu9	Cu	1.176660	0.010341	-0.625291
O10	O	1.058736	0.198611	-0.358214
C11	C	0.957389	0.057615	-0.413478
C12	C	0.846096	0.064845	-0.365412
C13	C	1.214740	-0.142504	-0.524634
C14	C	1.251040	-0.250044	-0.540323
C15	C	0.659420	0.098200	-0.176837
C16	C	0.764000	0.091405	-0.222016
C17	C	0.823639	0.045065	-0.463687
C18	C	0.719064	0.051852	-0.418529
C19	C	0.636961	0.078421	-0.275102
C20	C	0.696605	0.032073	-0.516795
C21	C	0.592037	0.038864	-0.471639
C22	C	0.509928	0.065435	-0.328218
C23	C	0.532393	0.085213	-0.229947
C24	C	0.778706	0.005510	-0.660220
C25	C	0.756248	-0.014269	-0.758486
C26	C	0.651681	-0.007484	-0.713332
C27	C	0.569572	0.019087	-0.569911
C28	C	0.629216	-0.027262	-0.811603
C29	C	0.524648	-0.020470	-0.766447
C30	C	0.465004	0.025879	-0.524755
C31	C	0.890437	-0.508383	-0.384558
C32	C	0.924568	-0.609436	-0.399296
C33	C	1.116549	-0.647556	-0.482211
C34	C	1.082436	-0.546506	-0.467486
C35	C	0.969379	-0.476926	-0.418658
C36	C	1.161378	-0.515049	-0.501586
C37	C	1.127265	-0.414007	-0.486856
C38	C	1.014212	-0.344421	-0.438025
C39	C	0.935266	-0.375884	-0.403927
C40	C	1.274433	-0.584629	-0.550405
C41	C	1.353374	-0.553172	-0.584505
C42	C	1.319265	-0.452130	-0.569784
C43	C	1.206211	-0.382544	-0.520954
C44	C	1.398210	-0.420667	-0.603883
C45	C	1.364098	-0.319624	-0.589152
C46	C	1.172098	-0.281501	-0.506223
C47	C	1.331250	0.013331	-0.574946
C48	C	1.442545	0.006099	-0.623020
C49	C	1.073898	0.213450	-0.463790
C50	C	1.037601	0.320989	-0.448109
N51	N	1.066490	0.095958	-0.178742
N52	N	1.222158	-0.025020	-0.809683
C53	C	1.331396	-0.109932	0.080789
C54	C	1.365808	-0.136680	-0.058735
C55	C	1.290981	-0.078523	-0.088744
C56	C	1.181737	0.006387	0.020786
C57	C	1.147326	0.033142	0.160322
C58	C	1.106911	0.064551	-0.009211
C59	C	0.997667	0.149461	0.100319
C60	C	0.963262	0.176212	0.239841
C61	C	1.038088	0.118055	0.269850
C62	C	1.141322	0.037796	-0.148748
C63	C	0.957252	0.180870	-0.069215
C64	C	0.922841	0.207618	0.070310
H65	H	0.398143	0.047526	-0.407960
H66	H	1.230268	-0.031338	-0.237916
F67	F	1.051772	-0.207446	-0.454267
F68	F	0.977903	-0.236879	-0.422336
F69	F	1.310734	-0.692166	-0.566073
H70	H	0.843205	-0.319229	-0.364176
F71	F	1.473693	-0.627230	-0.636461
H72	H	0.798377	-0.451728	-0.344806
H73	H	0.833892	0.276754	0.159506
F74	F	0.840536	-0.642907	-0.362991
H75	H	1.428380	-0.294012	-0.616918
F76	F	1.327606	-0.106993	-0.237240
F77	F	1.236868	-0.721614	-0.534166
F78	F	0.445017	0.113468	-0.077299
F79	F	0.843636	-0.042546	-0.911127
H80	H	0.506362	-0.036574	-0.846465
H81	H	0.696074	-0.048885	-0.928380
F82	F	0.572044	0.126455	-0.024189
F83	F	0.398633	0.072670	-0.280157
H84	H	1.490259	-0.477330	-0.643626
F85	F	1.482067	-0.227042	-0.175298
F86	F	0.877613	0.242772	-0.101146
H87	H	0.782274	0.107520	-0.141983
F88	F	1.001462	0.146519	0.418351
F89	F	0.911027	0.016788	-0.616328
H90	H	1.392314	-0.157272	0.105234
F91	F	0.847002	0.266589	0.356409
H92	H	0.863847	-0.000012	-0.696980
