data_functionalizedCrystal
_audit_creation_method	'MofGen! by Chris Wilmer'
_symmetry_space_group_name_H-M	'P1'
_symmetry_Int_Tables_number	1
_symmetry_cell_setting	triclinic
loop_
_symmetry_equiv_pos_as_xyz
  x,y,z
_cell_length_a	14.971491
_cell_length_b	15.625429
_cell_length_c	14.048226
_cell_angle_alpha	71.916421
_cell_angle_beta	89.991693
_cell_angle_gamma	83.939107
loop_
_atom_site_label
_atom_site_type_symbol
_atom_site_fract_x
_atom_site_fract_y
_atom_site_fract_z
O1	O	1.186966	0.117509	-0.119758
O2	O	0.926569	0.131574	-0.124605
O3	O	1.063723	-0.006689	-0.076883
O4	O	1.049812	0.255772	-0.167480
O5	O	1.063706	-0.006697	0.081441
O6	O	0.926552	0.131566	0.033719
O7	O	1.186949	0.117501	0.038566
Zn8	Zn	1.056748	0.124532	0.061280
Zn9	Zn	1.056770	0.124543	-0.147319
O10	O	1.049795	0.255764	-0.009156
C11	C	0.893236	0.130940	-0.045225
C12	C	0.793938	0.129053	-0.044570
C13	C	0.366240	0.120913	-0.128084
C14	C	0.459541	0.122683	-0.128691
C15	C	0.506178	0.123570	-0.042693
C16	C	0.459511	0.122677	0.043921
C17	C	0.366213	0.120900	0.044530
C18	C	0.653973	0.126383	0.042646
C19	C	0.747277	0.128162	0.042037
C20	C	0.747301	0.128167	-0.130576
C21	C	0.654003	0.126390	-0.129967
C22	C	0.607342	0.125498	-0.043353
C23	C	1.063084	-0.040282	0.013871
C24	C	1.061195	-0.140365	0.048412
C25	C	1.055002	-0.469504	-0.269465
C26	C	1.053223	-0.563547	-0.236979
C27	C	1.053205	-0.563542	-0.064385
C28	C	1.054989	-0.469498	-0.096856
C29	C	1.055886	-0.422486	-0.199397
C30	C	1.055873	-0.422480	-0.026789
C31	C	1.057651	-0.328444	-0.059258
C32	C	1.058546	-0.281425	-0.161795
C33	C	1.057665	-0.328450	-0.231866
C34	C	1.054969	-0.469493	0.075752
C35	C	1.055853	-0.422475	0.145819
C36	C	1.057638	-0.328438	0.113351
C37	C	1.058533	-0.281419	0.010814
C38	C	1.058519	-0.281413	0.183422
C39	C	1.060298	-0.187376	0.150953
C40	C	1.060311	-0.187382	-0.021655
C41	C	1.220282	0.118135	-0.040816
C42	C	1.319579	0.120023	-0.041477
C43	C	1.050434	0.289357	-0.099912
C44	C	1.052323	0.389440	-0.134459
N45	N	1.056740	0.124524	0.203643
N46	N	1.056785	0.124544	-0.289680
C47	C	1.117490	0.063327	0.274584
C48	C	1.117497	0.063326	0.374242
C49	C	1.056755	0.124528	0.402956
C50	C	0.995998	0.185729	0.332007
C51	C	0.995988	0.185724	0.232353
C52	C	0.996024	0.185735	0.539719
C53	C	0.996034	0.185741	0.639380
C54	C	1.117532	0.063337	0.681608
C55	C	1.117522	0.063333	0.581954
C56	C	1.056766	0.124535	0.511012
H57	H	0.328221	0.120184	0.115051
Br58	Br	0.522865	0.123883	-0.246232
Br59	Br	1.061547	-0.123574	-0.160820
Br60	Br	0.302955	0.119719	-0.244806
Br61	Br	1.199937	-0.019732	0.235625
Br62	Br	1.058900	-0.264642	-0.371031
Br63	Br	0.810624	0.129392	-0.248130
H64	H	0.946518	0.235556	0.174592
Br65	Br	0.590709	0.125198	-0.246684
H66	H	0.785246	0.128889	0.112062
H67	H	1.060998	-0.149091	0.208008
H68	H	0.615983	0.125669	0.113173
Br69	Br	1.056238	-0.405696	-0.408629
Br70	Br	1.199942	-0.019732	0.470523
H71	H	1.166987	0.013502	0.558575
H72	H	1.167002	0.013505	0.739376
H73	H	1.053511	-0.546062	0.102184
H74	H	1.052495	-0.601824	-0.294044
Br75	Br	1.051977	-0.627350	0.074773
Br76	Br	1.054624	-0.486283	0.284977
Br77	Br	1.057279	-0.345222	0.322579
H78	H	0.946571	0.235577	0.662751
H79	H	0.946546	0.235569	0.481960
Br80	Br	0.913554	0.268784	0.370973
Br81	Br	0.522803	0.123876	0.160637
H82	H	1.059984	-0.204853	-0.188230
