data_functionalizedCrystal
_audit_creation_method	'MofGen! by Chris Wilmer'
_symmetry_space_group_name_H-M	'P1'
_symmetry_Int_Tables_number	1
_symmetry_cell_setting	triclinic
loop_
_symmetry_equiv_pos_as_xyz
  x,y,z
_cell_length_a	12.837943
_cell_length_b	8.559649
_cell_length_c	7.088929
_cell_angle_alpha	84.655815
_cell_angle_beta	83.134203
_cell_angle_gamma	97.696198
loop_
_atom_site_label
_atom_site_type_symbol
_atom_site_fract_x
_atom_site_fract_y
_atom_site_fract_z
O1	O	1.330979	-0.425033	0.158937
O2	O	1.030786	-0.404761	0.158949
O3	O	1.207330	-0.186322	0.158940
O4	O	1.154435	-0.643472	0.158946
O5	O	1.230929	-0.157056	-0.159036
O6	O	1.054385	-0.375495	-0.159027
O7	O	1.354578	-0.395768	-0.159039
Cu8	Cu	1.206636	-0.382959	-0.188067
Cu9	Cu	1.178728	-0.417569	0.187977
O10	O	1.178034	-0.614207	-0.159030
C11	C	1.004510	-0.383279	-0.000038
C12	C	0.891059	-0.362854	-0.000033
C13	C	1.223137	-0.112770	-0.000045
C14	C	1.235068	0.062793	-0.000035
N15	N	1.226273	-0.358617	-0.452556
C16	C	0.630553	-0.608412	-0.000057
C17	C	0.523954	-0.589227	-0.000054
C18	C	0.571261	-0.305300	-0.000037
C19	C	0.677860	-0.324485	-0.000040
C20	C	0.707501	-0.476046	-0.000047
C21	C	0.814101	-0.495230	-0.000037
C22	C	0.861407	-0.211303	-0.000034
C23	C	0.754808	-0.192119	-0.000030
C24	C	1.380853	-0.417250	-0.000049
C25	C	1.494304	-0.437676	-0.000041
C26	C	1.162226	-0.687759	-0.000041
C27	C	1.150294	-0.863323	-0.000039
N28	N	1.159100	-0.441900	0.452466
H29	H	0.838232	-0.618638	-0.000045
O30	O	0.662537	-0.771868	-0.000068
H31	H	0.591120	-0.860690	-0.000082
H32	H	1.089483	-0.528205	-0.465884
H33	H	0.461305	-0.697013	-0.000067
H34	H	1.295901	-0.272319	-0.534216
O35	O	1.042060	0.042561	-0.000042
H36	H	0.981842	0.124294	-0.000067
H37	H	0.547119	-0.181892	-0.000189
H38	H	0.730661	-0.068720	-0.000047
O39	O	0.944401	-0.068519	-0.000034
H40	H	1.023509	-0.107315	-0.000048
H41	H	1.316783	0.133859	-0.000053
