data_functionalizedCrystal
_audit_creation_method	'MofGen! by Chris Wilmer'
_symmetry_space_group_name_H-M	'P1'
_symmetry_Int_Tables_number	1
_symmetry_cell_setting	triclinic
loop_
_symmetry_equiv_pos_as_xyz
  x,y,z
_cell_length_a	19.188930
_cell_length_b	16.776229
_cell_length_c	17.699083
_cell_angle_alpha	89.992455
_cell_angle_beta	83.213897
_cell_angle_gamma	89.978976
loop_
_atom_site_label
_atom_site_type_symbol
_atom_site_fract_x
_atom_site_fract_y
_atom_site_fract_z
O1	O	0.926253	-0.066546	0.094493
O2	O	0.722956	-0.066492	0.107213
O3	O	0.830348	-0.066513	-0.009343
O4	O	0.818861	-0.066524	0.211050
O5	O	0.830334	0.066063	-0.009351
O6	O	0.722942	0.066085	0.107206
O7	O	0.926239	0.066030	0.094486
Zn8	Zn	0.824588	0.087107	0.100845
Zn9	Zn	0.824607	-0.087568	0.100854
O10	O	0.818847	0.066052	0.211043
C11	C	0.696938	-0.000196	0.106798
C12	C	0.619432	-0.000175	0.105561
N13	N	0.824581	0.206318	0.100838
N14	N	0.824620	-0.206779	0.100855
C15	C	0.574584	-0.000191	0.173953
C16	C	0.501759	-0.000200	0.172791
C17	C	0.473785	-0.000209	0.103234
C18	C	0.518642	-0.000188	0.034833
C19	C	0.591465	-0.000172	0.035997
N20	N	0.365750	-0.045360	0.050069
N21	N	0.296570	-0.045377	0.048968
C22	C	0.254372	-0.000257	0.099724
N23	N	0.283966	0.044871	0.151634
N24	N	0.353152	0.044885	0.152737
C25	C	0.394821	-0.000226	0.101965
C26	C	0.130559	-0.000282	0.166861
C27	C	0.057733	-0.000285	0.165696
C28	C	0.074617	-0.000282	0.027736
C29	C	0.147442	-0.000270	0.028903
C30	C	0.175408	-0.000274	0.098467
C31	C	0.952258	-0.000267	0.094902
C32	C	1.029763	-0.000293	0.096138
C33	C	0.829930	-0.000225	-0.037543
C34	C	0.828695	-0.000224	-0.121560
C35	C	0.872148	0.248026	0.049248
C36	C	0.872152	0.331478	0.049247
C37	C	0.824591	0.373221	0.100841
C38	C	0.777018	0.331508	0.152434
C39	C	0.777012	0.248057	0.152430
C40	C	0.777044	0.668055	0.152449
C41	C	0.777055	0.751512	0.152450
C42	C	0.872184	0.751476	0.049266
C43	C	0.872177	0.668025	0.049262
C44	C	0.824602	0.626319	0.100852
C45	C	0.824598	0.535831	0.100851
C46	C	0.824598	0.463708	0.100846
C47	C	0.891732	-0.000240	-0.170264
C48	C	0.890567	-0.000247	-0.249206
C49	C	0.826365	-0.000232	-0.279442
C50	C	0.763323	-0.000219	-0.230732
C51	C	0.764489	-0.000218	-0.151791
C52	C	0.758623	-0.000224	-0.549089
C53	C	0.757463	-0.000222	-0.628035
C54	C	0.884702	-0.000253	-0.646503
C55	C	0.885867	-0.000252	-0.567563
C56	C	0.822826	-0.000243	-0.518859
C57	C	0.824089	-0.000237	-0.433262
C58	C	0.825101	-0.000232	-0.365038
C59	C	0.819266	-0.000238	0.239243
C60	C	0.820500	-0.000244	0.323259
H61	H	0.597349	-0.000196	0.230598
O62	O	0.491437	-0.000341	-0.032715
C63	C	0.449840	-0.069005	-0.037505
H64	H	0.467022	-0.116992	0.001991
H65	H	0.456491	-0.092050	-0.098524
H66	H	0.392373	-0.053497	-0.019855
O67	O	0.918268	0.372024	-0.000941
C68	C	0.880973	0.420337	-0.047530
H69	H	0.825913	0.395222	-0.048667
H70	H	0.909569	0.421273	-0.107764
H71	H	0.877280	0.483583	-0.023836
O72	O	0.730780	0.791939	0.202595
C73	C	0.688797	0.737235	0.248140
H74	H	0.688057	0.677753	0.217111
H75	H	0.633024	0.761379	0.259828
H76	H	0.711359	0.728337	0.304310
O77	O	0.951849	-0.000364	-0.296437
C78	C	0.990841	-0.069042	-0.282765
H79	H	0.973596	-0.091928	-0.222821
H80	H	1.049080	-0.053609	-0.288510
H81	H	0.981379	-0.117123	-0.325908
H82	H	0.713157	-0.000205	-0.112137
O83	O	0.954082	-0.000114	-0.140860
C84	C	0.958553	0.068537	-0.095744
H85	H	0.922094	0.116540	-0.114296
H86	H	1.014833	0.091567	-0.103024
H87	H	0.942347	0.053019	-0.033433
H88	H	0.627981	-0.000159	-0.019698
O89	O	0.458156	-0.000080	0.239211
C90	C	0.415477	0.068560	0.242661
H91	H	0.442188	0.116565	0.203874
H92	H	0.407170	0.091595	0.303656
H93	H	0.362563	0.053023	0.223243
O94	O	0.730934	0.627465	0.202603
C95	C	0.768241	0.579184	0.249209
H96	H	0.822920	0.566649	0.218911
H97	H	0.739071	0.520520	0.261272
H98	H	0.772900	0.611341	0.305129
O99	O	0.157812	-0.000166	0.234386
C100	C	0.199385	0.068515	0.239187
H101	H	0.217615	0.091405	0.179469
H102	H	0.247028	0.053085	0.269203
H103	H	0.167130	0.116592	0.272769
O104	O	0.014265	-0.000334	0.232206
C105	C	0.054569	-0.000314	0.293849
H106	H	0.108966	-0.025404	0.274457
H107	H	0.027642	-0.038814	0.341755
H108	H	0.059691	0.063288	0.315184
O109	O	0.191040	-0.000125	-0.037513
C110	C	0.233650	0.068535	-0.040965
H111	H	0.206891	0.116523	-0.002179
H112	H	0.241933	0.091581	-0.101962
H113	H	0.286580	0.053022	-0.021548
O114	O	0.948190	-0.000374	-0.538103
C115	C	0.952682	-0.069049	-0.493001
H116	H	0.897620	-0.091923	-0.473154
H117	H	0.980426	-0.053616	-0.441401
H118	H	0.983633	-0.117138	-0.527977
O119	O	0.918377	0.207603	-0.000944
C120	C	0.960372	0.262315	-0.046467
H121	H	0.931753	0.321816	-0.047241
H122	H	0.971127	0.238211	-0.106942
H123	H	1.012194	0.271159	-0.022030
O124	O	0.695111	-0.000075	-0.657444
C125	C	0.690624	0.068579	-0.702576
H126	H	0.727065	0.116566	-0.684028
H127	H	0.634337	0.091632	-0.695309
H128	H	0.706842	0.053054	-0.764882
H129	H	0.910908	0.634040	0.007252
O130	O	0.697323	-0.000169	-0.501893
C131	C	0.640410	-0.000170	-0.545511
H132	H	0.658234	0.024922	-0.604493
H133	H	0.596247	0.038337	-0.516252
H134	H	0.620727	-0.063767	-0.551059
H135	H	0.738290	0.365500	0.194440
H136	H	0.936033	-0.000264	-0.686167
H137	H	0.051841	-0.000338	-0.028899
O138	O	0.918327	0.792114	-0.000827
C139	C	0.908149	0.874721	0.010245
H140	H	0.852593	0.886145	0.038679
H141	H	0.916022	0.906440	-0.047095
H142	H	0.947599	0.898376	0.048103
H143	H	0.738276	0.214100	0.194439
O144	O	0.701018	-0.000169	-0.260227
C145	C	0.713505	-0.000191	-0.340345
H146	H	0.768020	0.024895	-0.359068
H147	H	0.672426	0.038311	-0.364451
H148	H	0.710165	-0.063793	-0.362303
