data_functionalizedCrystal
_audit_creation_method	'MofGen! by Chris Wilmer'
_symmetry_space_group_name_H-M	'P1'
_symmetry_Int_Tables_number	1
_symmetry_cell_setting	triclinic
loop_
_symmetry_equiv_pos_as_xyz
  x,y,z
_cell_length_a	27.732048
_cell_length_b	14.971486
_cell_length_c	14.048226
_cell_angle_alpha	90.000920
_cell_angle_beta	90.000972
_cell_angle_gamma	83.128391
loop_
_atom_site_label
_atom_site_type_symbol
_atom_site_fract_x
_atom_site_fract_y
_atom_site_fract_z
O1	O	0.641420	0.106429	0.079027
O2	O	0.500701	0.122612	0.079054
O3	O	0.574832	-0.015739	0.079047
O4	O	0.567288	0.244780	0.079035
O5	O	0.574823	-0.015747	-0.079274
O6	O	0.500692	0.122604	-0.079267
O7	O	0.641411	0.106421	-0.079294
Zn8	Zn	0.571050	0.114511	-0.104417
Zn9	Zn	0.571062	0.114522	0.104178
O10	O	0.567280	0.244772	-0.079287
C11	C	0.482688	0.122268	-0.000103
C12	C	0.429028	0.121245	-0.000092
C13	C	0.574490	-0.049063	-0.000110
C14	C	0.573479	-0.148344	-0.000098
N15	N	0.571045	0.114504	-0.246778
C16	C	0.090561	0.196562	-0.000136
C17	C	-0.111116	0.192767	-0.000145
O18	O	-0.142054	0.261639	-0.000189
N19	N	-0.130619	0.110731	-0.000139
C20	C	-0.099698	0.029637	-0.000138
O21	O	-0.120914	-0.040227	-0.000143
C22	C	0.101978	0.033433	-0.000136
C23	C	0.121477	0.115475	-0.000132
C24	C	0.110061	0.278597	-0.000134
C25	C	0.160477	0.279545	-0.000126
C26	C	0.191393	0.198458	-0.000122
C27	C	0.171893	0.116423	-0.000125
C28	C	0.132897	-0.047659	-0.000141
C29	C	0.183319	-0.046703	-0.000143
C30	C	0.202818	0.035339	-0.000139
C31	C	0.253226	0.036284	-0.000113
N32	N	0.272729	0.118320	-0.000119
C33	C	0.241812	0.199407	-0.000123
C34	C	-0.205582	0.027650	-0.000137
C35	C	-0.256000	0.026701	-0.000135
C36	C	-0.267415	0.189831	-0.000144
C37	C	-0.216995	0.190779	-0.000139
C38	C	-0.186079	0.109686	-0.000142
C39	C	0.347690	0.201392	-0.000107
C40	C	0.398112	0.202332	-0.000096
C41	C	0.409522	0.039203	-0.000092
C42	C	0.359105	0.038261	-0.000098
C43	C	0.328190	0.119363	-0.000109
O44	O	0.284193	-0.032551	-0.000079
O45	O	0.263037	0.269261	-0.000139
C46	C	0.040144	0.195614	-0.000144
C47	C	0.020645	0.113579	-0.000147
C48	C	0.051561	0.032492	-0.000142
C49	C	-0.029774	0.112630	-0.000145
C50	C	-0.060691	0.193717	-0.000150
C51	C	-0.041188	0.275753	-0.000155
C52	C	0.009228	0.276701	-0.000148
C53	C	0.032059	-0.049544	-0.000137
C54	C	-0.018358	-0.050486	-0.000143
C55	C	-0.049275	0.030602	-0.000147
C56	C	0.659424	0.106765	-0.000135
C57	C	0.713083	0.107788	-0.000140
C58	C	0.567621	0.278096	-0.000128
C59	C	0.568632	0.377377	-0.000133
C60	C	0.525082	0.435290	-0.000124
C61	C	0.526035	0.528575	-0.000111
C62	C	0.570538	0.563944	-0.000115
C63	C	0.614092	0.506023	-0.000121
C64	C	0.613138	0.412740	-0.000127
C65	C	0.616075	0.700454	-0.000111
C66	C	0.617029	0.793743	-0.000107
C67	C	0.528972	0.816288	-0.000096
C68	C	0.528019	0.723006	-0.000101
C69	C	0.571572	0.665091	-0.000110
C70	C	0.603881	0.053267	-0.296599
C71	C	0.603884	0.053266	-0.396257
C72	C	0.571054	0.114507	-0.446092
C73	C	0.538215	0.175747	-0.396263
C74	C	0.538210	0.175743	-0.296607
C75	C	0.538229	0.175753	-0.603978
C76	C	0.538234	0.175759	-0.703640
C77	C	0.603903	0.053277	-0.703627
C78	C	0.603898	0.053272	-0.603971
C79	C	0.571059	0.114514	-0.554150
N80	N	0.571070	0.114522	0.246538
H81	H	0.413985	0.269143	-0.000092
H82	H	0.651541	0.653302	-0.000110
H83	H	0.511481	0.225608	-0.436844
H84	H	0.630641	0.003412	-0.744197
C85	C	0.502091	0.243066	-0.758457
H86	H	0.482520	0.279514	-0.714514
H87	H	0.519470	0.280105	-0.797356
H88	H	0.481970	0.211082	-0.797310
C89	C	0.502109	0.243121	-0.549176
H90	H	0.482561	0.279602	-0.593127
H91	H	0.481969	0.211205	-0.510304
H92	H	0.519520	0.280133	-0.510297
H93	H	-0.271872	-0.040106	-0.000124
C94	C	0.313691	0.290601	-0.000107
H95	H	0.332532	0.339588	-0.000093
H96	H	0.293784	0.293634	-0.055315
H97	H	0.293787	0.293622	0.055112
C98	C	0.181920	0.369791	-0.000141
H99	H	0.156281	0.417941	-0.000155
H100	H	0.201352	0.373570	0.055066
H101	H	0.201348	0.373547	-0.055362
H102	H	0.650327	0.534828	-0.000126
H103	H	-0.180413	-0.038389	-0.000139
H104	H	0.630633	0.003410	-0.563396
C105	C	0.066060	-0.138745	-0.000124
H106	H	0.047220	-0.187732	-0.000114
H107	H	0.085970	-0.141781	-0.055328
H108	H	0.085962	-0.141763	0.055099
C109	C	0.502092	0.243107	-0.241804
H110	H	0.482544	0.279586	-0.285755
H111	H	0.481953	0.211186	-0.202935
H112	H	0.519501	0.280121	-0.202923
H113	H	0.084893	0.344632	-0.000141
C114	C	0.217324	-0.135907	-0.000137
H115	H	0.198486	-0.184898	-0.000130
H116	H	0.237233	-0.138936	-0.055341
H117	H	0.237226	-0.138925	0.055086
H118	H	-0.292596	0.255855	-0.000148
C119	C	0.661043	0.349035	-0.000140
H120	H	0.687685	0.383458	-0.000150
H121	H	0.662504	0.312174	0.055067
H122	H	0.662499	0.312181	-0.055360
C123	C	-0.195550	0.281024	-0.000143
H124	H	-0.221188	0.329176	-0.000150
H125	H	-0.176117	0.284793	0.055064
H126	H	-0.176123	0.284785	-0.055363
C127	C	0.639994	-0.014101	-0.241790
H128	H	0.659547	-0.050577	-0.285738
H129	H	0.660130	0.017814	-0.202905
H130	H	0.622581	-0.051118	-0.202924
H131	H	-0.034229	-0.117299	-0.000139
C132	C	0.337655	-0.051981	-0.000092
H133	H	0.363290	-0.100137	-0.000091
H134	H	0.318219	-0.055741	0.055111
H135	H	0.318228	-0.055745	-0.055316
C136	C	0.443536	-0.049986	-0.000095
H137	H	0.476355	-0.037664	-0.000102
H138	H	0.437623	-0.083663	0.055111
H139	H	0.437620	-0.083649	-0.055316
H140	H	0.117030	-0.114466	-0.000145
H141	H	0.025099	0.343508	-0.000146
H142	H	0.630621	0.003402	-0.436821
C143	C	-0.075201	0.364949	-0.000158
H144	H	-0.056370	0.413950	-0.000151
H145	H	-0.095106	0.367961	-0.055369
H146	H	-0.095106	0.367966	0.055058
C147	C	0.476128	0.396392	-0.000114
H148	H	0.450328	0.444247	-0.000096
H149	H	0.473919	0.360473	-0.055324
H150	H	0.473931	0.360472	0.055103
H151	H	0.490572	0.575725	-0.000101
H152	H	0.491781	0.694212	-0.000103
H153	H	0.493509	0.863447	-0.000092
H154	H	0.653267	0.822537	-0.000108
