data_functionalizedCrystal
_audit_creation_method	'MofGen! by Chris Wilmer'
_symmetry_space_group_name_H-M	'P1'
_symmetry_Int_Tables_number	1
_symmetry_cell_setting	triclinic
loop_
_symmetry_equiv_pos_as_xyz
  x,y,z
_cell_length_a	12.759401
_cell_length_b	25.639239
_cell_length_c	12.759393
_cell_angle_alpha	90.037052
_cell_angle_beta	90.018496
_cell_angle_gamma	90.038847
loop_
_atom_site_label
_atom_site_type_symbol
_atom_site_fract_x
_atom_site_fract_y
_atom_site_fract_z
Zn1	Zn	1.606080	-0.208118	0.593941
Zn2	Zn	2.106080	0.291882	1.093941
Zn3	Zn	1.605901	-0.295564	0.418245
Zn4	Zn	2.105901	0.204436	0.918245
Zn5	Zn	1.430382	-0.208145	0.418281
Zn6	Zn	1.930382	0.291855	0.918281
Zn7	Zn	1.430297	-0.295524	0.593886
Zn8	Zn	1.930297	0.204476	1.093886
O9	O	1.518165	-0.251838	0.506088
O10	O	2.018165	0.248162	1.006088
O11	O	1.753078	-0.219723	0.570643
O12	O	2.253078	0.280277	1.070643
O13	O	1.582579	-0.283996	0.271228
O14	O	2.082579	0.216004	0.771228
O15	O	1.453799	-0.134976	0.441621
O16	O	1.953799	0.365024	0.941621
O17	O	1.752946	-0.283970	0.441559
O18	O	2.252946	0.216030	0.941559
O19	O	1.582884	-0.134956	0.570678
O20	O	2.082884	0.365044	1.070678
O21	O	1.453626	-0.219770	0.271255
O22	O	1.953626	0.280230	0.771255
O23	O	1.283350	-0.219731	0.441567
O24	O	1.783350	0.280269	0.941567
O25	O	1.453655	-0.283901	0.740914
O26	O	1.953655	0.216099	1.240914
O27	O	1.283288	-0.283928	0.570584
O28	O	1.783288	0.216072	1.070584
O29	O	1.582802	-0.219684	0.740955
O30	O	2.082802	0.280316	1.240955
O31	O	1.582496	-0.368724	0.441505
O32	O	2.082496	0.131276	0.941505
O33	O	1.453481	-0.368695	0.570549
O34	O	1.953481	0.131305	1.070549
C35	C	1.245198	-0.251828	0.506074
C36	C	1.745198	0.248172	1.006074
C37	C	1.128421	-0.251837	0.506093
C38	C	1.628421	0.248163	1.006093
C39	C	1.073554	-0.285318	0.573160
C40	C	1.573554	0.214682	1.073160
C41	C	0.963830	-0.285324	0.573172
C42	C	1.463830	0.214676	1.073172
C43	C	0.963850	-0.218368	0.439039
C44	C	1.463850	0.281632	0.939039
C45	C	1.073572	-0.218359	0.439033
C46	C	1.573572	0.281641	0.939033
C47	C	1.073542	-0.323976	0.650598
C48	C	1.573542	0.176024	1.150598
C49	C	0.963818	-0.323983	0.650609
C50	C	1.463818	0.176017	1.150609
C51	C	1.517989	-0.387680	0.506040
C52	C	2.017989	0.112320	1.006040
C53	C	1.518009	-0.445795	0.506055
C54	C	2.018009	0.054205	1.006055
C55	C	1.585519	-0.806160	0.439010
C56	C	2.085519	-0.306160	0.939010
C57	C	1.585560	-0.860765	0.439024
C58	C	2.085560	-0.360765	0.939024
O59	O	1.642775	-0.889004	0.381967
O60	O	2.142775	-0.389004	0.881967
N61	N	1.518350	-0.888077	0.506158
N62	N	2.018350	-0.388077	1.006158
C63	C	1.451103	-0.860782	0.573289
C64	C	1.951103	-0.360782	1.073289
O65	O	1.393940	-0.889027	0.630394
O66	O	1.893940	-0.389027	1.130394
C67	C	1.451068	-0.806179	0.573280
C68	C	1.951068	-0.306179	1.073280
C69	C	1.518275	-0.778869	0.506134
C70	C	2.018275	-0.278869	1.006134
C71	C	1.652721	-0.778851	0.371870
C72	C	2.152721	-0.278851	0.871870
C73	C	1.652678	-0.724250	0.371855
C74	C	2.152678	-0.224250	0.871855
C75	C	1.585434	-0.696959	0.438980
C76	C	2.085434	-0.196959	0.938980
C77	C	1.518232	-0.724269	0.506119
C78	C	2.018232	-0.224269	1.006119
C79	C	1.383827	-0.778885	0.640416
C80	C	1.883827	-0.278885	1.140416
C81	C	1.383799	-0.724278	0.640401
C82	C	1.883799	-0.224278	1.140401
C83	C	1.451005	-0.696968	0.573256
C84	C	1.951005	-0.196968	1.073256
C85	C	1.450946	-0.642377	0.573228
C86	C	1.950946	-0.142377	1.073228
N87	N	1.518155	-0.615065	0.506094
N88	N	2.018155	-0.115065	1.006094
C89	C	1.585399	-0.642356	0.438970
C90	C	2.085399	-0.142356	0.938970
C91	C	1.451182	-0.975453	0.573306
C92	C	1.951182	-0.475453	1.073306
C93	C	1.451210	-1.030055	0.573311
C94	C	1.951210	-0.530055	1.073311
C95	C	1.585669	-1.030034	0.439046
C96	C	2.085669	-0.530034	0.939046
C97	C	1.585634	-0.975430	0.439037
C98	C	2.085634	-0.475430	0.939037
C99	C	1.518391	-0.948140	0.506172
C100	C	2.018391	-0.448140	1.006172
C101	C	1.585305	-0.527691	0.438943
C102	C	2.085305	-0.027691	0.938943
C103	C	1.585253	-0.473086	0.438930
C104	C	2.085253	0.026914	0.938930
C105	C	1.450799	-0.473111	0.573198
C106	C	1.950799	0.026889	1.073198
C107	C	1.450846	-0.527712	0.573207
C108	C	1.950846	-0.027712	1.073207
C109	C	1.518108	-0.555000	0.506076
C110	C	2.018108	-0.055000	1.006076
O111	O	1.393762	-0.614103	0.630258
O112	O	1.893762	-0.114103	1.130258
O113	O	1.642562	-0.614104	0.381885
O114	O	2.142562	-0.114104	0.881885
C115	C	1.792198	-0.251848	0.506103
C116	C	2.292198	0.248152	1.006103
C117	C	1.908975	-0.251852	0.506109
C118	C	2.408975	0.248148	1.006109
C119	C	1.518239	-0.251785	0.780122
C120	C	2.018239	0.248215	1.280122
C121	C	1.518270	-0.251763	0.896898
C122	C	2.018270	0.248237	1.396898
C123	C	1.518371	-0.115465	0.506159
C124	C	2.018371	0.384535	1.006159
C125	C	1.518459	-0.057351	0.506190
C126	C	2.018459	0.442649	1.006190
C127	C	1.518152	-0.251853	0.233121
C128	C	2.018152	0.248147	0.733121
C129	C	1.518325	-0.251728	0.116345
C130	C	2.018325	0.248272	0.616345
C131	C	1.585526	-0.218322	0.951783
C132	C	2.085526	0.281678	1.451783
C133	C	1.585551	-0.218303	1.061507
C134	C	2.085551	0.281697	1.561507
C135	C	1.451061	-0.285170	1.061452
C136	C	1.951061	0.214830	1.561452
C137	C	1.451032	-0.285186	0.951730
C138	C	1.951032	0.214814	1.451730
C139	C	1.663176	-0.179718	0.951816
C140	C	2.163176	0.320282	1.451816
C141	C	1.663201	-0.179699	1.061540
C142	C	2.163201	0.320301	1.561540
H143	H	1.103359	-0.313178	0.732007
H144	H	1.603359	0.186822	1.232007
O145	O	1.658207	-1.059481	0.366660
O146	O	2.158207	-0.559481	0.866660
H147	H	1.640230	-1.049051	0.284179
H148	H	2.140230	-0.549051	0.784179
O149	O	1.118571	-0.374898	0.611805
O150	O	1.618571	0.125102	1.111805
H151	H	1.053710	-0.401904	0.591248
H152	H	1.553710	0.098096	1.091248
H153	H	1.396125	-0.549949	0.627886
H154	H	1.896125	-0.049949	1.127886
O155	O	1.378539	-0.321218	1.120592
O156	O	1.878539	0.178782	1.620592
H157	H	1.425526	-0.347817	1.170565
H158	H	1.925526	0.152183	1.670565
O159	O	0.918784	-0.304835	0.753065
O160	O	1.418784	0.195165	1.253065
H161	H	0.983641	-0.294681	0.807379
H162	H	1.483641	0.205319	1.307379
H163	H	1.396262	-0.312415	0.907047
H164	H	1.896262	0.187585	1.407047
O165	O	1.725247	-0.808282	0.299459
O166	O	2.225247	-0.308282	0.799459
H167	H	1.771957	-0.780110	0.252773
H168	H	2.271957	-0.280110	0.752773
H169	H	1.329095	-0.801111	0.695088
H170	H	1.829095	-0.301111	1.195088
O171	O	1.658131	-0.945976	0.366628
O172	O	2.158131	-0.445976	0.866628
H173	H	1.704896	-0.974132	0.319963
H174	H	2.204896	-0.474132	0.819963
O175	O	0.924294	-0.377603	0.621528
O176	O	1.424294	0.122397	1.121528
H177	H	0.953323	-0.406474	0.679437
H178	H	1.453323	0.093526	1.179437
O179	O	1.657750	-0.443629	0.366515
O180	O	2.157750	0.056371	0.866515
H181	H	1.704524	-0.471783	0.319853
H182	H	2.204524	0.028217	0.819853
O183	O	1.657839	-0.557120	0.366531
O184	O	2.157839	-0.057120	0.866531
H185	H	1.704548	-0.528950	0.319840
H186	H	2.204548	-0.028950	0.819840
O187	O	1.634386	-0.126085	0.912405
O188	O	2.134386	0.373915	1.412405
H189	H	1.634394	-0.126130	0.825414
H190	H	2.134394	0.373870	1.325414
O191	O	1.624695	-0.128735	1.106654
O192	O	2.124695	0.371265	1.606654
H193	H	1.554287	-0.136018	1.155582
H194	H	2.054287	0.363982	1.655582
O195	O	1.311258	-0.694842	0.712799
O196	O	1.811258	-0.194842	1.212799
H197	H	1.264528	-0.723010	0.759477
H198	H	1.764528	-0.223010	1.259477
O199	O	1.765516	-0.198935	0.906712
O200	O	2.265516	0.301065	1.406712
H201	H	1.819799	-0.209109	0.971533
H202	H	2.319799	0.290891	1.471533
O203	O	1.770964	-0.194066	1.101000
O204	O	2.270964	0.305934	1.601000
H205	H	1.792061	-0.233501	1.071962
H206	H	2.292061	0.266499	1.571962
H207	H	1.707407	-0.702018	0.317183
H208	H	2.207407	-0.202018	0.817183
H209	H	1.396474	-1.052286	0.627977
H210	H	1.896474	-0.552286	1.127977
H211	H	0.919178	-0.191111	0.384442
H212	H	1.419178	0.308889	0.884442
O213	O	1.132755	-0.182254	0.366685
O214	O	1.632755	0.317746	0.866685
H215	H	1.076179	-0.158984	0.320045
H216	H	1.576179	0.341016	0.820045
O217	O	1.378622	-0.946024	0.645699
O218	O	1.878622	-0.446024	1.145699
H219	H	1.396585	-0.956470	0.728174
H220	H	1.896585	-0.456470	1.228174
O221	O	1.378277	-0.443672	0.645600
O222	O	1.878277	0.056328	1.145600
H223	H	1.389556	-0.401116	0.634313
H224	H	1.889556	0.098884	1.134313
