data_functionalizedCrystal
_audit_creation_method	'MofGen! by Chris Wilmer'
_symmetry_space_group_name_H-M	'P1'
_symmetry_Int_Tables_number	1
_symmetry_cell_setting	triclinic
loop_
_symmetry_equiv_pos_as_xyz
  x,y,z
_cell_length_a	21.295417
_cell_length_b	18.050591
_cell_length_c	18.050582
_cell_angle_alpha	89.976005
_cell_angle_beta	90.026755
_cell_angle_gamma	89.976412
loop_
_atom_site_label
_atom_site_type_symbol
_atom_site_fract_x
_atom_site_fract_y
_atom_site_fract_z
Zn1	Zn	-0.250765	-1.135281	0.420071
Zn2	Zn	0.249235	-0.635281	0.920071
Zn3	Zn	-0.356027	-1.135186	0.295872
Zn4	Zn	0.143973	-0.635186	0.795872
Zn5	Zn	-0.250762	-1.011100	0.295875
Zn6	Zn	0.249238	-0.511100	0.795875
Zn7	Zn	-0.355988	-1.011043	0.420000
Zn8	Zn	0.144012	-0.511043	0.920000
O9	O	-0.303386	-1.073153	0.357954
O10	O	0.196614	-0.573153	0.857954
O11	O	-0.264746	-1.239193	0.403623
O12	O	0.235254	-0.739193	0.903623
O13	O	-0.342078	-1.118710	0.191947
O14	O	0.157922	-0.618710	0.691947
O15	O	-0.162673	-1.027636	0.312381
O16	O	0.337327	-0.527636	0.812381
O17	O	-0.342081	-1.239124	0.312375
O18	O	0.157919	-0.739124	0.812375
O19	O	-0.162676	-1.118871	0.403627
O20	O	0.337324	-0.618871	0.903627
O21	O	-0.264741	-1.027545	0.191950
O22	O	0.235259	-0.527545	0.691950
O23	O	-0.264703	-0.907168	0.312313
O24	O	0.235297	-0.407168	0.812313
O25	O	-0.342015	-1.027539	0.523934
O26	O	0.157985	-0.527539	1.023934
O27	O	-0.342012	-0.907126	0.403507
O28	O	0.157988	-0.407126	0.903507
O29	O	-0.264708	-1.118816	0.523986
O30	O	0.235292	-0.618816	1.023986
O31	O	-0.444111	-1.118655	0.312307
O32	O	0.055889	-0.618655	0.812307
O33	O	-0.444082	-1.027448	0.403504
O34	O	0.055918	-0.527448	0.903504
C35	C	-0.303354	-0.880200	0.357903
C36	C	0.196646	-0.380200	0.857903
C37	C	-0.303355	-0.797655	0.357899
C38	C	0.196645	-0.297655	0.857899
C39	C	-0.466937	-1.073055	0.357913
C40	C	0.033063	-0.573055	0.857913
C41	C	-0.536905	-1.073081	0.357921
C42	C	-0.036905	-0.573081	0.857921
C43	C	-0.261258	-0.598205	0.308411
C44	C	0.238742	-0.098205	0.808411
C45	C	-0.318670	-0.548783	0.290127
C46	C	0.181330	-0.048783	0.790127
C47	C	-0.303368	-0.646524	0.357924
C48	C	0.196632	-0.146524	0.857924
C49	C	-0.245969	-0.548865	0.376198
C50	C	0.254031	-0.048865	0.876198
C51	C	-0.303375	-0.500539	0.357947
C52	C	0.196625	-0.000539	0.857947
C53	C	-0.360811	-0.598189	0.339605
C54	C	0.139189	-0.098189	0.839605
C55	C	-0.288071	-0.598276	0.425708
C56	C	0.211929	-0.098276	0.925708
C57	C	-0.345523	-0.548875	0.407450
C58	C	0.154477	-0.048875	0.907450
C59	C	-0.303363	-0.730623	0.357909
C60	C	0.196637	-0.230623	0.857909
C61	C	-0.303386	-0.416443	0.357963
C62	C	0.196614	0.083557	0.857963
C63	C	-0.569766	-1.120615	0.310483
C64	C	-0.069766	-0.620615	0.810483
C65	C	-0.635508	-1.120650	0.310500
C66	C	-0.135508	-0.620650	0.810500
C67	C	-0.668388	-1.073138	0.357946
C68	C	-0.168388	-0.573138	0.857946
C69	C	-0.635519	-1.025600	0.405393
C70	C	-0.135519	-0.525600	0.905393
C71	C	-0.569778	-1.025572	0.405380
C72	C	-0.069778	-0.525572	0.905380
N73	N	-0.771647	-1.008171	0.363590
N74	N	-0.271647	-0.508171	0.863590
N75	N	-0.834099	-1.008200	0.363598
N76	N	-0.334099	-0.508200	0.863598
C77	C	-0.866462	-1.073221	0.357989
C78	C	-0.366462	-0.573221	0.857989
N79	N	-0.834015	-1.138214	0.352357
N80	N	-0.334015	-0.638214	0.852357
N81	N	-0.771558	-1.138184	0.352345
N82	N	-0.271558	-0.638184	0.852345
C83	C	-0.739673	-1.073163	0.357966
C84	C	-0.239673	-0.573163	0.857966
C85	C	-0.970609	-1.120797	0.310567
C86	C	-0.470609	-0.620797	0.810567
C87	C	-1.036352	-1.120833	0.310589
C88	C	-0.536352	-0.620833	0.810589
C89	C	-1.036362	-1.025776	0.405478
C90	C	-0.536362	-0.525776	0.905478
C91	C	-0.970620	-1.025747	0.405460
C92	C	-0.470620	-0.525747	0.905460
C93	C	-0.937747	-1.073256	0.358000
C94	C	-0.437747	-0.573256	0.858000
C95	C	-0.139195	-1.073270	0.358012
C96	C	0.360805	-0.573270	0.858012
C97	C	-0.069227	-1.073321	0.358037
C98	C	0.430773	-0.573321	0.858037
C99	C	-0.303358	-1.073182	0.551660
C100	C	0.196642	-0.573182	1.051660
C101	C	-0.303346	-1.073194	0.634206
C102	C	0.196654	-0.573194	1.134206
C103	C	-0.303407	-0.266858	0.357993
C104	C	0.196593	0.233142	0.857993
C105	C	-0.303388	-0.349404	0.357975
C106	C	0.196612	0.150596	0.857975
C107	C	-0.303368	-1.073166	0.165002
C108	C	0.196632	-0.573166	0.665002
C109	C	-0.303203	-1.073298	0.082457
C110	C	0.196797	-0.573298	0.582457
C111	C	-0.345328	-1.023596	0.833629
C112	C	0.154672	-0.523596	1.333629
C113	C	-0.360722	-1.091350	0.883029
C114	C	0.139278	-0.591350	1.383029
C115	C	-0.303298	-1.073231	0.785336
C116	C	0.196702	-0.573231	1.285336
C117	C	-0.287886	-1.005513	0.883017
C118	C	0.212114	-0.505513	1.383017
C119	C	-0.303252	-1.073260	0.931322
C120	C	0.196748	-0.573260	1.431322
C121	C	-0.318722	-1.141021	0.833650
C122	C	0.181278	-0.641021	1.333650
C123	C	-0.245859	-1.055138	0.833634
C124	C	0.254141	-0.555138	1.333634
C125	C	-0.261232	-1.122940	0.883012
C126	C	0.238768	-0.622940	1.383012
C127	C	-0.303325	-1.073213	0.701238
C128	C	0.196675	-0.573213	1.201238
C129	C	-0.303225	-1.073286	1.015418
C130	C	0.196775	-0.573286	1.515418
H131	H	-0.331616	-0.527044	0.232814
H132	H	0.168384	-0.027044	0.732814
N133	N	-0.336102	-1.216897	0.805052
N134	N	0.163898	-0.716897	1.305052
H135	H	-0.343929	-1.251275	0.848230
H136	H	0.156071	-0.751275	1.348230
H137	H	-0.300626	-1.236990	0.773841
H138	H	0.199374	-0.736990	1.273841
H139	H	-0.275107	-0.620032	0.483004
H140	H	0.224893	-0.120032	0.983004
N141	N	-0.181670	-0.520158	0.396663
N142	N	0.318330	-0.020158	0.896663
H143	H	-0.149896	-0.538102	0.359215
H144	H	0.350104	-0.038102	0.859215
H145	H	-0.169840	-0.538940	0.447503
H146	H	0.330160	-0.038940	0.947503
N147	N	-0.670983	-0.974353	0.456562
N148	N	-0.170983	-0.474353	0.956562
H149	H	-0.659581	-0.921294	0.444968
H150	H	-0.159581	-0.421294	0.944968
H151	H	-0.659496	-0.985910	0.509615
H152	H	-0.159496	-0.485910	1.009615
H153	H	-0.225669	-1.164975	0.904558
H154	H	0.274331	-0.664975	1.404558
H155	H	-0.543022	-0.986864	0.444010
H156	H	-0.043022	-0.486864	0.944010
H157	H	-0.543003	-1.159302	0.271840
H158	H	-0.043003	-0.659302	0.771840
N159	N	-0.270634	-0.929640	0.911732
N160	N	0.229366	-0.429640	1.411732
H161	H	-0.231136	-0.933210	0.942524
H162	H	0.268864	-0.433210	1.442524
H163	H	-0.306026	-0.909850	0.943267
H164	H	0.193974	-0.409850	1.443267
N165	N	-0.392750	-0.520352	0.462921
N166	N	0.107250	-0.020352	0.962921
H167	H	-0.370523	-0.489573	0.501588
H168	H	0.129477	0.010427	1.001588
H169	H	-0.414345	-0.563599	0.487632
H170	H	0.085655	-0.063599	0.987632
N171	N	-0.935170	-0.974471	0.456616
N172	N	-0.435170	-0.474471	0.956616
H173	H	-0.946573	-0.985971	0.509694
H174	H	-0.446573	-0.485971	1.009694
H175	H	-0.946666	-0.921442	0.444961
H176	H	-0.446666	-0.421442	0.944961
H177	H	-1.063132	-0.987094	0.444113
H178	H	-0.563132	-0.487094	0.944113
H179	H	-1.063106	-1.159545	0.271961
H180	H	-0.563106	-0.659545	0.771961
N181	N	-0.935154	-1.172048	0.259388
N182	N	-0.435154	-0.672048	0.759388
H183	H	-0.907837	-1.206429	0.289601
H184	H	-0.407837	-0.706429	0.789601
H185	H	-0.907954	-1.141829	0.224939
H186	H	-0.407954	-0.641829	0.724939
H187	H	-0.380917	-0.981660	0.811946
H188	H	0.119083	-0.481660	1.311946
H189	H	-0.225687	-0.619865	0.266497
H190	H	0.274313	-0.119865	0.766497
H191	H	-0.197318	-1.039798	0.811920
H192	H	0.302682	-0.539798	1.311920
N193	N	-0.425035	-1.111651	0.911772
N194	N	0.074965	-0.611651	1.411772
H195	H	-0.456773	-1.074119	0.893812
H196	H	0.043227	-0.574119	1.393812
H197	H	-0.424381	-1.111997	0.967717
H198	H	0.075619	-0.611997	1.467717
H199	H	-0.409370	-0.619765	0.324095
H200	H	0.090630	-0.119765	0.824095
N201	N	-0.670962	-1.171922	0.259334
N202	N	-0.170962	-0.671922	0.759334
H203	H	-0.640161	-1.202015	0.229268
H204	H	-0.140161	-0.702015	0.729268
H205	H	-0.698275	-1.141720	0.224943
H206	H	-0.198275	-0.641720	0.724943
