data_functionalizedCrystal
_audit_creation_method	'MofGen! by Chris Wilmer'
_symmetry_space_group_name_H-M	'P1'
_symmetry_Int_Tables_number	1
_symmetry_cell_setting	triclinic
loop_
_symmetry_equiv_pos_as_xyz
  x,y,z
_cell_length_a	16.974885
_cell_length_b	12.837942
_cell_length_c	15.455313
_cell_angle_alpha	92.949088
_cell_angle_beta	90.969048
_cell_angle_gamma	89.099236
loop_
_atom_site_label
_atom_site_type_symbol
_atom_site_fract_x
_atom_site_fract_y
_atom_site_fract_z
O1	O	1.058993	0.132204	0.002139
O2	O	1.558993	0.632204	0.502139
O3	O	0.830750	0.148031	-0.013870
O4	O	1.330750	0.648031	0.486130
O5	O	0.939810	-0.010800	-0.006215
O6	O	1.439810	0.489200	0.493785
O7	O	0.949933	0.291035	-0.005516
O8	O	1.449933	0.791035	0.494484
O9	O	0.933571	-0.001755	0.137609
O10	O	1.433571	0.498245	0.637609
O11	O	0.824511	0.157076	0.129954
O12	O	1.324511	0.657076	0.629954
O13	O	1.052753	0.141249	0.145963
O14	O	1.552753	0.641249	0.645963
Cu15	Cu	0.938062	0.149988	0.151091
Cu16	Cu	1.438062	0.649988	0.651091
Cu17	Cu	0.945441	0.139292	-0.018998
Cu18	Cu	1.445441	0.639292	0.481002
O19	O	0.943693	0.300080	0.138308
O20	O	1.443693	0.800080	0.638308
C21	C	0.798214	0.151785	0.055979
C22	C	1.298214	0.651785	0.555979
C23	C	0.710560	0.149482	0.049831
C24	C	1.210560	0.649482	0.549831
C25	C	0.933271	-0.044908	0.065456
C26	C	1.433271	0.455092	0.565456
C27	C	0.923073	-0.160015	0.064740
C28	C	1.423073	0.339985	0.564740
C29	C	0.217531	0.135949	0.006750
C30	C	0.717531	0.635949	0.506750
C31	C	0.299891	0.138114	0.012538
C32	C	0.799891	0.638114	0.512538
C33	C	0.337661	0.144135	0.093832
C34	C	0.837661	0.644135	0.593832
C35	C	0.293068	0.147981	0.169342
C36	C	0.793068	0.647981	0.669342
C37	C	0.210710	0.145808	0.163553
C38	C	0.710710	0.645808	0.663553
C39	C	0.583609	0.151155	0.119552
C40	C	1.083609	0.651155	0.619552
C41	C	0.665973	0.153330	0.125335
C42	C	1.165973	0.653330	0.625335
C43	C	0.672790	0.143462	-0.031469
C44	C	1.172790	0.643462	0.468531
C45	C	0.590430	0.141296	-0.037251
C46	C	1.090430	0.641296	0.462749
C47	C	0.545844	0.145136	0.038259
C48	C	1.045844	0.645136	0.538259
N49	N	0.421846	0.146352	0.099750
N50	N	0.921846	0.646352	0.599750
N51	N	0.461661	0.142912	0.032340
N52	N	0.961661	0.642912	0.532340
C53	C	1.045675	-0.400614	0.073321
C54	C	1.545675	0.099386	0.573321
C55	C	1.036097	-0.508768	0.072648
C56	C	1.536097	-0.008768	0.572648
C57	C	0.894339	-0.484480	0.062714
C58	C	1.394339	0.015520	0.562714
C59	C	0.903917	-0.376326	0.063387
C60	C	1.403917	0.123674	0.563387
C61	C	0.979588	-0.334397	0.068692
C62	C	1.479588	0.165603	0.568692
C63	C	0.989165	-0.226240	0.069371
C64	C	1.489165	0.273760	0.569371
C65	C	0.847408	-0.201955	0.059432
C66	C	1.347408	0.298045	0.559432
C67	C	0.837830	-0.310109	0.058758
C68	C	1.337830	0.189891	0.558758
C69	C	1.085290	0.137495	0.076112
C70	C	1.585290	0.637495	0.576112
C71	C	1.172944	0.139798	0.082254
C72	C	1.672944	0.639798	0.582254
C73	C	0.950233	0.334188	0.066634
C74	C	1.450233	0.834188	0.566634
C75	C	0.960431	0.449295	0.067345
C76	C	1.460431	0.949295	0.567345
N77	N	0.932878	0.157512	0.270722
N78	N	1.432878	0.657512	0.770722
N79	N	0.950631	0.131760	-0.138629
N80	N	1.450631	0.631760	0.361371
C81	C	0.979230	0.090059	0.319370
C82	C	1.479230	0.590059	0.819370
C83	C	0.975318	0.095758	0.409903
C84	C	1.475318	0.595758	0.909903
C85	C	0.925057	0.168915	0.451788
C86	C	1.425057	0.668915	0.951788
C87	C	0.878700	0.236370	0.403133
C88	C	1.378700	0.736370	0.903133
C89	C	0.882608	0.230666	0.312601
C90	C	1.382608	0.730666	0.812601
C91	C	0.908182	0.193511	0.722185
C92	C	1.408182	0.693511	1.222185
C93	C	0.904279	0.199212	0.812723
C94	C	1.404279	0.699212	1.312723
C95	C	1.000897	0.058598	0.819487
C96	C	1.500897	0.558598	1.319487
C97	C	1.004805	0.052904	0.728953
C98	C	1.504805	0.552904	1.228953
C99	C	0.958444	0.120356	0.680307
C100	C	1.458444	0.620356	1.180307
N101	N	0.921058	0.174744	0.544327
N102	N	1.421058	0.674744	1.044327
N103	N	0.962439	0.114521	0.587768
N104	N	1.462439	0.614521	1.087768
H105	H	0.336191	0.134974	-0.048946
H106	H	0.836191	0.634974	0.451054
H107	H	1.045731	-0.006666	0.694853
H108	H	1.545731	0.493334	1.194853
O109	O	1.107379	-0.580183	0.077650
O110	O	1.607379	-0.080183	0.577650
H111	H	1.108954	-0.633719	0.018960
H112	H	1.608954	-0.133719	0.518960
O113	O	0.706717	0.159809	0.213020
O114	O	1.206717	0.659809	0.713020
H115	H	0.661878	0.162101	0.264555
H116	H	1.161878	0.662101	0.764555
O117	O	0.720876	0.139312	-0.112910
O118	O	1.220876	0.639312	0.387090
H119	H	0.708419	0.065926	-0.151487
H120	H	1.208419	0.565926	0.348513
O121	O	0.162465	0.150354	0.244886
O122	O	0.662465	0.650354	0.744886
H123	H	0.126356	0.079142	0.246256
H124	H	0.626356	0.579142	0.746256
O125	O	0.858190	0.266273	0.669726
O126	O	1.358190	0.766273	1.169726
H127	H	0.818377	0.219893	0.625584
H128	H	1.318377	0.719893	1.125584
O129	O	1.127285	-0.355377	0.079041
O130	O	1.627285	0.144623	0.579041
H131	H	1.171632	-0.419594	0.082143
H132	H	1.671632	0.080406	0.582143
O133	O	0.535523	0.155314	0.200991
O134	O	1.035523	0.655314	0.700991
H135	H	0.575626	0.159880	0.258489
H136	H	1.075626	0.659880	0.758489
O137	O	0.812727	-0.529711	0.056998
O138	O	1.312727	-0.029711	0.556998
H139	H	0.817173	-0.616041	0.057314
H140	H	1.317173	-0.116041	0.557314
O141	O	1.070777	-0.181009	0.075082
O142	O	1.570777	0.318991	0.575082
H143	H	1.115122	-0.245229	0.078175
H144	H	1.615122	0.254771	0.578175
H145	H	0.776221	-0.344264	0.054436
H146	H	1.276221	0.155736	0.554436
H147	H	0.323827	0.152876	0.235533
H148	H	0.823827	0.652876	0.735533
O149	O	0.776120	-0.130538	0.054435
O150	O	1.276120	0.369462	0.554435
H151	H	0.795490	-0.048286	0.055790
H152	H	1.295490	0.451714	0.555790
O153	O	1.033438	0.011150	0.274195
O154	O	1.533438	0.511150	0.774195
H155	H	1.065005	-0.034803	0.323236
H156	H	1.565005	0.465197	0.823236
O157	O	1.050891	-0.014160	0.871952
O158	O	1.550891	0.485840	1.371952
H159	H	1.039727	0.002088	0.941941
H160	H	1.539727	0.502088	1.441941
O161	O	1.025327	0.023026	0.462378
O162	O	1.525327	0.523026	0.962378
H163	H	1.060946	-0.028787	0.418044
H164	H	1.560946	0.471213	0.918044
O165	O	0.549715	0.134782	-0.124944
O166	O	1.049715	0.634782	0.375056
H167	H	0.510635	0.204159	-0.131483
H168	H	1.010635	0.704159	0.368517
O169	O	0.850056	0.278108	0.857903
O170	O	1.350056	0.778108	1.357903
H171	H	0.818467	0.324044	0.808867
H172	H	1.318467	0.824044	1.308867
O173	O	0.824491	0.315283	0.448302
O174	O	1.324491	0.815283	0.948302
H175	H	0.829566	0.307928	0.519429
H176	H	1.329566	0.807928	1.019429
O177	O	0.832616	0.303408	0.260117
O178	O	1.332616	0.803408	0.760117
H179	H	0.847975	0.385374	0.278593
H180	H	1.347975	0.885374	0.778593
O181	O	0.176794	0.129434	-0.080931
O182	O	0.676794	0.629434	0.419069
H183	H	0.221639	0.127104	-0.132461
H184	H	0.721639	0.627104	0.367539
