data_functionalizedCrystal
_audit_creation_method	'MofGen! by Chris Wilmer'
_symmetry_space_group_name_H-M	'P1'
_symmetry_Int_Tables_number	1
_symmetry_cell_setting	triclinic
loop_
_symmetry_equiv_pos_as_xyz
  x,y,z
_cell_length_a	16.109302
_cell_length_b	10.489741
_cell_length_c	15.186229
_cell_angle_alpha	90.003995
_cell_angle_beta	90.005906
_cell_angle_gamma	84.000477
loop_
_atom_site_label
_atom_site_type_symbol
_atom_site_fract_x
_atom_site_fract_y
_atom_site_fract_z
O1	O	1.104141	0.163952	0.073268
O2	O	1.604141	0.663952	0.573268
O3	O	0.862205	0.184354	0.073261
O4	O	1.362205	0.684354	0.573261
O5	O	0.988679	-0.011525	0.073259
O6	O	1.488679	0.488475	0.573259
O7	O	0.977668	0.359831	0.073269
O8	O	1.477668	0.859831	0.573269
O9	O	0.988669	-0.011529	-0.073198
O10	O	1.488669	0.488471	0.426802
O11	O	0.862195	0.184350	-0.073197
O12	O	1.362195	0.684350	0.426803
O13	O	1.104132	0.163948	-0.073190
O14	O	1.604132	0.663948	0.426810
Zn15	Zn	0.983162	0.174148	-0.096446
Zn16	Zn	1.483162	0.674148	0.403554
Zn17	Zn	0.983175	0.174154	0.096517
Zn18	Zn	1.483175	0.674154	0.596517
O19	O	0.977658	0.359826	-0.073188
O20	O	1.477658	0.859826	0.426812
C21	C	0.831220	0.183525	0.000031
C22	C	1.331220	0.683525	0.500031
C23	C	0.738910	0.181047	0.000028
C24	C	1.238910	0.681047	0.500028
C25	C	0.526528	0.175314	-0.079797
C26	C	1.026528	0.675314	0.420203
C27	C	0.439794	0.172972	-0.079794
C28	C	0.939794	0.672972	0.420206
C29	C	0.439815	0.172984	0.079882
C30	C	0.939815	0.672984	0.579882
C31	C	0.526549	0.175317	0.079878
C32	C	1.026549	0.675317	0.579878
C33	C	0.569903	0.176489	0.000036
C34	C	1.069903	0.676489	0.500036
C35	C	0.396434	0.171813	0.000043
C36	C	0.896434	0.671813	0.500043
C37	C	0.302393	0.169274	0.000047
C38	C	0.802393	0.669274	0.500047
C39	C	0.663950	0.179026	0.000032
C40	C	1.163950	0.679026	0.500032
C41	C	0.987842	-0.059046	0.000031
C42	C	1.487842	0.440954	0.500031
C43	C	0.985354	-0.200640	0.000032
C44	C	1.485354	0.299360	0.500032
C45	C	0.904883	-0.267613	0.000037
C46	C	1.404883	0.232387	0.500037
C47	C	0.942892	-0.360289	-0.072173
C48	C	1.442892	0.139711	0.427827
C49	C	0.942921	-0.360259	0.072222
C50	C	1.442921	0.139741	0.572222
C51	C	1.023396	-0.291451	-0.072237
C52	C	1.523396	0.208549	0.427763
C53	C	1.023414	-0.291412	0.072223
C54	C	1.523414	0.208588	0.572223
C55	C	1.061481	-0.384061	-0.000004
C56	C	1.561481	0.115939	0.499996
C57	C	1.135117	0.164776	0.000042
C58	C	1.635117	0.664776	0.500042
C59	C	1.227427	0.167255	0.000050
C60	C	1.727427	0.667255	0.500050
C61	C	0.978495	0.407348	0.000042
C62	C	1.478495	0.907348	0.500042
C63	C	0.980983	0.548942	0.000046
C64	C	1.480983	1.048942	0.500046
N65	N	0.983159	0.174143	-0.228139
N66	N	1.483159	0.674143	0.271861
C67	C	1.039185	0.087437	-0.546058
C68	C	1.539185	0.587437	-0.046058
C69	C	1.039182	0.087437	-0.453868
C70	C	1.539182	0.587437	0.046132
C71	C	0.927156	0.260864	-0.453877
C72	C	1.427156	0.760864	0.046123
C73	C	0.927163	0.260869	-0.546065
C74	C	1.427163	0.760869	-0.046065
C75	C	0.983176	0.174148	-0.592153
C76	C	1.483176	0.674148	-0.092153
C77	C	0.983167	0.174144	-0.407776
C78	C	1.483167	0.674144	0.092224
C79	C	0.983164	0.174145	-0.307820
C80	C	1.483164	0.674145	0.192180
C81	C	0.983181	0.174148	-0.692116
C82	C	1.483181	0.674148	-0.192116
N83	N	0.983184	0.174149	0.228210
N84	N	1.483184	0.674149	0.728210
H85	H	0.561824	0.176269	-0.144809
H86	H	1.061824	0.676269	0.355191
Cl87	Cl	1.075916	-0.244622	-0.166596
Cl88	Cl	1.575916	0.255378	0.333404
H89	H	0.908865	-0.390727	0.133276
H90	H	1.408865	0.109273	0.633276
Cl91	Cl	0.385270	0.171498	-0.180160
Cl92	Cl	0.885270	0.671498	0.319840
H93	H	0.404506	0.172031	0.144886
H94	H	0.904506	0.672031	0.644886
H95	H	0.561865	0.176269	0.144891
H96	H	1.061865	0.676269	0.644891
Cl97	Cl	0.802734	-0.189473	-0.000073
Cl98	Cl	1.302734	0.310527	0.499927
H99	H	1.127704	-0.434446	-0.000043
H100	H	1.627704	0.065554	0.499957
Cl101	Cl	1.075946	-0.244234	0.166486
Cl102	Cl	1.575946	0.255766	0.666486
Cl103	Cl	0.890319	-0.407411	-0.166431
Cl104	Cl	1.390319	0.092589	0.333569
Cl105	Cl	1.109604	-0.021579	-0.603994
Cl106	Cl	1.609604	0.478421	-0.103994
Cl107	Cl	0.856751	0.369891	-0.604019
Cl108	Cl	1.356751	0.869891	-0.104019
Cl109	Cl	1.109597	-0.021573	-0.395923
Cl110	Cl	1.609597	0.478427	0.104077
Cl111	Cl	0.856740	0.369875	-0.395934
Cl112	Cl	1.356740	0.869875	0.104066
