data_functionalizedCrystal
_audit_creation_method	'MofGen! by Chris Wilmer'
_symmetry_space_group_name_H-M	'P1'
_symmetry_Int_Tables_number	1
_symmetry_cell_setting	triclinic
loop_
_symmetry_equiv_pos_as_xyz
  x,y,z
_cell_length_a	14.971486
_cell_length_b	23.532407
_cell_length_c	13.448316
_cell_angle_alpha	89.988737
_cell_angle_beta	89.998199
_cell_angle_gamma	83.231404
loop_
_atom_site_label
_atom_site_type_symbol
_atom_site_fract_x
_atom_site_fract_y
_atom_site_fract_z
O1	O	1.186163	0.074216	-0.082588
O2	O	0.925669	0.083104	-0.082616
O3	O	1.063771	-0.004238	-0.082583
O4	O	1.048061	0.161558	-0.082621
O5	O	1.063754	-0.004243	0.082801
O6	O	0.925652	0.083099	0.082767
O7	O	1.186146	0.074211	0.082796
Cu8	Cu	1.055897	0.078654	0.097882
Cu9	Cu	1.055918	0.078661	-0.097703
O10	O	1.048044	0.161553	0.082763
C11	C	0.892340	0.082704	0.000072
C12	C	0.793056	0.081513	0.000062
C13	C	0.735288	0.132824	0.000052
C14	C	0.642001	0.131701	0.000067
C15	C	0.606482	0.079267	0.000085
C16	C	0.664257	0.027952	0.000099
C17	C	0.757543	0.029075	0.000091
C18	C	0.469819	0.025615	0.000113
C19	C	0.376527	0.024491	0.000119
C20	C	0.354277	0.128241	0.000089
C21	C	0.447563	0.129364	0.000081
C22	C	0.505331	0.078049	0.000093
C23	C	1.063363	-0.025458	0.000111
C24	C	1.062160	-0.088680	0.000119
C25	C	1.136342	-0.487466	0.000072
C26	C	1.135224	-0.546871	0.000065
O27	O	1.203992	-0.583321	0.000035
N28	N	1.053123	-0.569849	0.000056
C29	C	0.972133	-0.533418	0.000046
O30	O	0.902196	-0.558417	0.000037
C31	C	0.973251	-0.474014	0.000046
C32	C	1.055358	-0.451040	0.000065
C33	C	1.218442	-0.464491	0.000090
C34	C	1.219559	-0.405090	0.000099
C35	C	1.138576	-0.368664	0.000091
C36	C	1.056475	-0.391639	0.000074
C37	C	0.892263	-0.437584	0.000029
C38	C	0.893388	-0.378177	0.000028
C39	C	0.975495	-0.355203	0.000047
C40	C	0.976609	-0.295812	0.000076
N41	N	1.058711	-0.272834	0.000084
C42	C	1.139694	-0.309260	0.000092
C43	C	0.969791	-0.658170	0.000043
C44	C	0.968671	-0.717573	0.000049
C45	C	1.131763	-0.731022	0.000066
C46	C	1.132882	-0.671618	0.000067
C47	C	1.051892	-0.635193	0.000051
C48	C	1.142034	-0.184513	0.000113
C49	C	1.143143	-0.125106	0.000126
C50	C	0.980052	-0.111663	0.000104
C51	C	0.978942	-0.171064	0.000096
C52	C	1.059940	-0.207489	0.000097
O53	O	0.907878	-0.259327	0.000101
O54	O	1.209619	-0.284253	0.000087
C55	C	1.219475	0.074611	0.000105
C56	C	1.318760	0.075802	0.000109
C57	C	1.048453	0.182773	0.000066
C58	C	1.049655	0.245996	0.000052
N59	N	1.055890	0.078650	0.235447
N60	N	1.055933	0.078661	-0.235267
C61	C	1.117060	0.039991	0.287502
C62	C	1.117066	0.039990	0.391605
C63	C	1.055904	0.078652	0.443651
C64	C	0.994728	0.117313	0.391589
C65	C	0.994718	0.117310	0.287488
C66	C	0.994752	0.117317	0.608569
C67	C	0.994762	0.117320	0.712678
C68	C	1.117100	0.039997	0.712686
C69	C	1.117090	0.039994	0.608585
C70	C	1.055914	0.078656	0.556530
H71	H	0.594969	0.173484	0.000057
C72	C	1.184340	-0.002539	0.230256
C73	C	1.251622	-0.045066	0.287522
C74	C	1.318902	-0.087598	0.230280
C75	C	1.318899	-0.087604	0.115773
C76	C	1.251615	-0.045076	0.058501
C77	C	1.184335	-0.002544	0.115743
H78	H	1.251626	-0.045063	0.372293
H79	H	1.368710	-0.119080	0.272677
H80	H	1.368704	-0.119089	0.073399
H81	H	1.251611	-0.045079	-0.026270
H82	H	1.134527	0.028938	0.073345
C83	C	0.486631	0.187042	0.000062
C84	C	0.464630	0.229679	0.085934
C85	C	0.503696	0.287359	0.085919
C86	C	0.564764	0.302402	0.000031
C87	C	0.586768	0.259764	-0.085847
C88	C	0.547702	0.202084	-0.085832
H89	H	0.419421	0.218545	0.149519
H90	H	0.487407	0.318922	0.149492
H91	H	0.593683	0.345100	0.000020
H92	H	0.631977	0.270898	-0.149432
H93	H	0.563991	0.170521	-0.149406
C94	C	0.927478	0.159845	0.769926
C95	C	0.927487	0.159852	0.884433
C96	C	0.860200	0.202378	0.941679
C97	C	0.792904	0.244897	0.884417
C98	C	0.792892	0.244892	0.769903
C99	C	0.860179	0.202366	0.712658
H100	H	0.977306	0.128376	0.926827
H101	H	0.860209	0.202382	1.026450
H102	H	0.743094	0.276377	0.926794
H103	H	0.743073	0.276368	0.727509
H104	H	0.860170	0.202362	0.627887
C105	C	0.880695	-0.618105	0.000043
C106	C	0.859028	-0.575407	-0.085835
C107	C	0.769933	-0.535345	-0.085837
C108	C	0.702505	-0.537981	0.000040
C109	C	0.724170	-0.580681	0.085925
C110	C	0.813265	-0.620742	0.085926
H111	H	0.908944	-0.573454	-0.149412
H112	H	0.753896	-0.503736	-0.149414
H113	H	0.636552	-0.508325	0.000040
H114	H	0.674254	-0.582634	0.149502
H115	H	0.829303	-0.652352	0.149504
C116	C	1.231130	-0.224574	0.000121
C117	C	1.252785	-0.267273	0.086000
C118	C	1.341880	-0.307334	0.086017
C119	C	1.409322	-0.304696	0.000153
C120	C	1.387670	-0.261996	-0.085732
C121	C	1.298574	-0.221935	-0.085748
H122	H	1.202859	-0.269228	0.149567
H123	H	1.357908	-0.338944	0.149595
H124	H	1.475276	-0.334352	0.000165
H125	H	1.437595	-0.260042	-0.149299
H126	H	1.282546	-0.190325	-0.149327
H127	H	0.307237	0.170023	0.000084
H128	H	1.166875	0.008511	0.433988
C129	C	0.804296	-0.338109	0.000014
C130	C	0.736882	-0.340719	-0.085877
C131	C	0.647793	-0.300653	-0.085889
C132	C	0.626116	-0.257976	-0.000010
C133	C	0.693532	-0.255364	0.085888
C134	C	0.782622	-0.295431	0.085900
H135	H	0.752927	-0.372313	-0.149456
H136	H	0.597887	-0.302586	-0.149477
H137	H	0.560167	-0.228316	-0.000019
H138	H	0.677488	-0.223771	0.149467
H139	H	0.832527	-0.293497	0.149488
C140	C	1.184367	-0.002532	0.551329
C141	C	1.183452	-0.067387	0.565660
C142	C	1.250726	-0.109915	0.508402
C143	C	1.318917	-0.087588	0.436813
C144	C	1.319835	-0.022730	0.422478
C145	C	1.252560	0.019798	0.479736
H146	H	1.132971	-0.083918	0.618658
H147	H	1.250046	-0.157927	0.519014
H148	H	1.368718	-0.119069	0.394427
H149	H	1.370316	-0.006199	0.369481
H150	H	1.253240	0.067810	0.469124
H151	H	0.944933	0.148797	0.566189
C152	C	0.533368	-0.030831	0.000124
C153	C	0.529728	-0.073786	0.086011
C154	C	0.593278	-0.130230	0.086016
C155	C	0.660467	-0.143719	0.000134
C156	C	0.664109	-0.100762	-0.085759
C157	C	0.600560	-0.044319	-0.085765
H158	H	0.479988	-0.063802	0.149591
H159	H	0.590581	-0.162029	0.149600
H160	H	0.707510	-0.185502	0.000138
H161	H	0.713849	-0.110747	-0.149340
H162	H	0.603257	-0.012520	-0.149349
C163	C	1.307534	-0.504553	0.000103
C164	C	1.374941	-0.501931	0.085998
C165	C	1.464040	-0.541988	0.086022
C166	C	1.485733	-0.584668	0.000150
C167	C	1.418325	-0.587292	-0.085752
C168	C	1.329225	-0.547234	-0.085775
H169	H	1.358884	-0.470335	0.149572
H170	H	1.513940	-0.540046	0.149612
H171	H	1.551689	-0.614321	0.000167
H172	H	1.434381	-0.618887	-0.149325
H173	H	1.279325	-0.549177	-0.149366
H174	H	0.825402	-0.456279	0.000008
H175	H	0.347612	-0.018205	0.000135
H176	H	0.764199	0.175522	0.000036
H177	H	0.635331	-0.014741	0.000128
H178	H	1.286419	-0.386390	0.000110
H179	H	0.804577	-0.012707	0.000098
H180	H	1.210008	-0.106405	0.000144
H181	H	0.914118	-0.081994	0.000101
H182	H	0.912084	-0.189771	0.000109
H183	H	1.199740	-0.652917	0.000081
H184	H	0.944924	0.148790	0.433971
H185	H	1.197704	-0.760691	0.000069
H186	H	0.901812	-0.736273	0.000052
H187	H	0.944906	0.148789	0.245105
H188	H	1.166911	0.008517	0.755076
