data_functionalizedCrystal
_audit_creation_method	'MofGen! by Chris Wilmer'
_symmetry_space_group_name_H-M	'P1'
_symmetry_Int_Tables_number	1
_symmetry_cell_setting	triclinic
loop_
_symmetry_equiv_pos_as_xyz
  x,y,z
_cell_length_a	27.732025
_cell_length_b	14.519731
_cell_length_c	13.596369
_cell_angle_alpha	90.005210
_cell_angle_beta	89.991454
_cell_angle_gamma	83.161162
loop_
_atom_site_label
_atom_site_type_symbol
_atom_site_fract_x
_atom_site_fract_y
_atom_site_fract_z
O1	O	0.063412	1.222743	0.081756
O2	O	0.070863	0.954138	0.081755
O3	O	-0.003220	1.096794	0.081785
O4	O	0.137495	1.080088	0.081725
O5	O	-0.003224	1.096780	-0.081798
O6	O	0.070859	0.954124	-0.081828
O7	O	0.063408	1.222729	-0.081827
Zn8	Zn	0.067133	1.088425	-0.107800
Zn9	Zn	0.067138	1.088443	0.107728
O10	O	0.137491	1.080074	-0.081858
C11	C	0.070512	0.919778	-0.000036
C12	C	0.069465	0.817416	-0.000035
C13	C	-0.021231	1.096439	0.000004
C14	C	-0.074891	1.095393	0.000033
N15	N	0.067129	1.088419	-0.254892
C16	C	-0.458090	1.087967	0.089144
C17	C	-0.256412	1.091882	0.089176
O18	O	-0.230340	1.092432	0.165013
N19	N	-0.231191	1.092364	0.000010
C20	C	-0.256392	1.091873	-0.089171
O21	O	-0.230313	1.092383	-0.165012
C22	C	-0.458070	1.087964	-0.089202
C23	C	-0.483288	1.087473	-0.000029
C24	C	-0.483309	1.087477	0.178309
C25	C	-0.533725	1.086493	0.178301
C26	C	-0.558923	1.085999	0.089127
C27	C	-0.533705	1.086489	-0.000038
C28	C	-0.483271	1.087480	-0.178381
C29	C	-0.533694	1.086505	-0.178381
C30	C	-0.558912	1.086014	-0.089209
C31	C	-0.609319	1.085011	-0.089221
N32	N	-0.634540	1.084529	-0.000054
C33	C	-0.609342	1.085023	0.089119
C34	C	-0.150509	1.093924	-0.089149
C35	C	-0.100089	1.094899	-0.089141
C36	C	-0.100113	1.094910	0.089206
C37	C	-0.150532	1.093928	0.089198
C38	C	-0.175730	1.093442	0.000018
C39	C	-0.715220	1.082956	0.089094
C40	C	-0.765640	1.081968	0.089077
C41	C	-0.765613	1.081962	-0.089269
C42	C	-0.715196	1.082945	-0.089253
C43	C	-0.690001	1.083445	-0.000064
O44	O	-0.635422	1.084471	-0.165018
O45	O	-0.635432	1.084534	0.164949
C46	C	-0.407674	1.088951	0.089153
C47	C	-0.382456	1.089441	-0.000012
C48	C	-0.407654	1.088947	-0.089185
C49	C	-0.332037	1.090416	-0.000004
C50	C	-0.306839	1.090910	0.089170
C51	C	-0.332060	1.090428	0.178336
C52	C	-0.382476	1.089444	0.178327
C53	C	-0.382432	1.089429	-0.178352
C54	C	-0.332016	1.090412	-0.178336
C55	C	-0.306818	1.090906	-0.089162
C56	C	0.155501	1.080428	-0.000074
C57	C	0.209162	1.081474	-0.000096
C58	C	0.063759	1.257090	-0.000034
C59	C	0.064805	1.359452	-0.000029
C60	C	0.065655	1.442581	-0.000027
C61	C	0.066717	1.546871	-0.000030
C62	C	0.067560	1.629995	-0.000032
C63	C	0.068622	1.734292	-0.000033
C64	C	0.067138	1.088442	-0.656183
C65	C	0.067137	1.088433	-0.544531
C66	C	0.067134	1.088431	-0.455541
C67	C	0.067132	1.088421	-0.343882
N68	N	0.067138	1.088456	0.254819
H69	H	-0.786170	1.081565	0.161695
H70	H	-0.402944	1.089029	-0.250970
H71	H	-0.462798	1.087882	0.250929
O72	O	-0.687995	1.083476	-0.185431
H73	H	-0.660771	1.021048	-0.189709
H74	H	-0.786138	1.081557	-0.161872
O75	O	-0.177679	1.093392	-0.185347
H76	H	-0.204894	1.155829	-0.189629
O77	O	-0.072932	1.095451	0.185391
H78	H	-0.033637	1.096220	0.170406
H79	H	-0.311535	1.090824	0.250945
H80	H	-0.079560	1.095282	-0.161754
H81	H	-0.694712	1.083364	0.161721
H82	H	-0.171062	1.093526	0.161810
O83	O	-0.409675	1.088916	0.274504
H84	H	-0.428391	1.025585	0.278763
H85	H	-0.462748	1.087890	-0.250995
O86	O	-0.304819	1.090951	-0.274520
H87	H	-0.330817	1.090455	-0.336524
O88	O	-0.560872	1.085974	-0.274570
H89	H	-0.534862	1.086471	-0.336568
H90	H	-0.554254	1.086099	0.250914
