data_functionalizedCrystal
_audit_creation_method	'MofGen! by Chris Wilmer'
_symmetry_space_group_name_H-M	'P1'
_symmetry_Int_Tables_number	1
_symmetry_cell_setting	triclinic
loop_
_symmetry_equiv_pos_as_xyz
  x,y,z
_cell_length_a	10.540539
_cell_length_b	15.944551
_cell_length_c	9.016244
_cell_angle_alpha	89.996810
_cell_angle_beta	89.994699
_cell_angle_gamma	84.012115
loop_
_atom_site_label
_atom_site_type_symbol
_atom_site_fract_x
_atom_site_fract_y
_atom_site_fract_z
O1	O	1.684281	0.118370	-0.123274
O2	O	1.314716	0.129523	-0.123293
O3	O	1.509591	0.001731	-0.123269
O4	O	1.489407	0.246161	-0.123297
O5	O	1.509562	0.001734	0.123411
O6	O	1.314688	0.129525	0.123388
O7	O	1.684253	0.118372	0.123407
Cu8	Cu	1.499468	0.123949	0.145921
Cu9	Cu	1.499502	0.123946	-0.145807
O10	O	1.489378	0.246164	0.123384
C11	C	1.267411	0.128688	0.000046
C12	C	1.126497	0.126185	0.000039
C13	C	0.944375	0.030298	0.000626
C14	C	1.090959	0.032835	0.000054
C15	C	1.064229	0.171108	-0.140828
C16	C	0.917728	0.167922	-0.140930
C17	C	0.917181	0.169824	0.139592
C18	C	1.064151	0.170684	0.141438
C19	C	1.508739	-0.029566	0.000071
C20	C	1.506227	-0.122827	0.000072
C21	C	1.379430	-0.338440	0.000045
C22	C	1.438296	-0.399105	0.121677
C23	C	1.501682	-0.293580	0.000060
C24	C	1.438353	-0.399091	-0.121531
C25	C	1.497283	-0.458519	0.000043
C26	C	1.560582	-0.353017	0.121792
C27	C	1.560622	-0.352996	-0.121525
C28	C	1.619577	-0.413643	0.000136
C29	C	1.504213	-0.198563	0.000072
C30	C	1.494762	-0.553535	0.000042
C31	C	1.731559	0.119207	0.000065
C32	C	1.872473	0.121710	0.000062
C33	C	1.490231	0.277461	0.000040
C34	C	1.492743	0.370722	0.000029
N35	N	1.499453	0.123951	0.351108
N36	N	1.499526	0.123937	-0.350993
C37	C	1.394894	0.192082	0.586128
C38	C	1.395120	0.192337	0.414237
C39	C	1.631905	0.143889	0.413450
C40	C	1.631333	0.144372	0.585395
C41	C	1.472882	0.035659	0.585659
C42	C	1.469829	0.036231	0.413705
H43	H	0.914680	-0.006426	-0.099827
Br44	Br	0.871474	0.112580	-0.316422
H45	H	0.868845	0.235058	-0.147331
H46	H	1.386576	-0.419520	0.224501
Br47	Br	1.161324	-0.026234	-0.168823
H48	H	1.655936	0.207567	0.370366
H49	H	1.296130	0.180269	0.627518
H50	H	1.612234	-0.332717	0.224735
H51	H	1.612297	-0.332559	-0.224355
H52	H	1.134043	-0.002512	0.101034
Br53	Br	1.135934	0.119095	-0.315555
H54	H	1.386641	-0.419477	-0.224368
Br55	Br	1.099966	0.285361	-0.149617
H56	H	1.711623	0.096739	0.626986
Br57	Br	1.307433	0.011038	0.345801
H58	H	1.277955	-0.305737	0.000161
H59	H	1.296667	0.180340	0.372089
Br60	Br	1.788854	-0.467904	0.000249
Br61	Br	1.422873	0.300631	0.658073
H62	H	0.886034	0.139615	0.246368
H63	H	0.916281	-0.006580	0.101649
H64	H	1.654810	0.208777	0.625478
Br65	Br	1.102972	0.284125	0.155603
H66	H	1.105548	0.137866	0.245651
H67	H	1.378403	0.016683	0.629105
H68	H	0.869036	0.237251	0.140536
H69	H	1.412128	0.257831	0.373084
Br70	Br	1.764771	0.063423	0.345304
H71	H	1.541079	-0.016915	0.370738
H72	H	1.549184	-0.015061	0.626321
