data_functionalizedCrystal
_audit_creation_method	'MofGen! by Chris Wilmer'
_symmetry_space_group_name_H-M	'P1'
_symmetry_Int_Tables_number	1
_symmetry_cell_setting	triclinic
loop_
_symmetry_equiv_pos_as_xyz
  x,y,z
_cell_length_a	19.077399
_cell_length_b	18.215405
_cell_length_c	18.215399
_cell_angle_alpha	89.969449
_cell_angle_beta	92.275086
_cell_angle_gamma	92.324501
loop_
_atom_site_label
_atom_site_type_symbol
_atom_site_fract_x
_atom_site_fract_y
_atom_site_fract_z
Zn1	Zn	1.075970	-0.247799	-0.371003
Zn2	Zn	1.409303	0.085534	-0.037669
Zn3	Zn	1.742637	0.418868	0.295664
Zn4	Zn	1.075882	-0.370874	-0.247935
Zn5	Zn	1.409216	-0.037541	0.085399
Zn6	Zn	1.742549	0.295793	0.418732
Zn7	Zn	0.958274	-0.252766	-0.252883
Zn8	Zn	1.291607	0.080568	0.080450
Zn9	Zn	1.624940	0.413901	0.413783
Zn10	Zn	0.958241	-0.375773	-0.375891
Zn11	Zn	1.291574	-0.042440	-0.042557
Zn12	Zn	1.624908	0.290893	0.290776
O13	O	1.017092	-0.311803	-0.311928
O14	O	1.350425	0.021530	0.021405
O15	O	1.683758	0.354864	0.354739
O16	O	1.174448	-0.259996	-0.350561
O17	O	1.507781	0.073337	-0.017228
O18	O	1.841115	0.406670	0.316106
O19	O	1.060258	-0.355235	-0.145608
O20	O	1.393592	-0.021902	0.187726
O21	O	1.726925	0.311432	0.521059
O22	O	0.973936	-0.149120	-0.268578
O23	O	1.307270	0.184213	0.064755
O24	O	1.640603	0.517546	0.398089
O25	O	1.174384	-0.350419	-0.260143
O26	O	1.507717	-0.017086	0.073190
O27	O	1.841050	0.316248	0.406523
O28	O	1.060407	-0.145471	-0.355360
O29	O	1.393741	0.187862	-0.022026
O30	O	1.727074	0.521195	0.311307
O31	O	0.973852	-0.268461	-0.149244
O32	O	1.307185	0.064872	0.184090
O33	O	1.640518	0.398206	0.517423
O34	O	0.859780	-0.273212	-0.273317
O35	O	1.193113	0.060122	0.060016
O36	O	1.526446	0.393455	0.393349
O37	O	0.973881	-0.358769	-0.478225
O38	O	1.307214	-0.025436	-0.144892
O39	O	1.640548	0.307898	0.188441
O40	O	0.859756	-0.363585	-0.363690
O41	O	1.193089	-0.030252	-0.030357
O42	O	1.526422	0.303082	0.302977
O43	O	1.060376	-0.264747	-0.474635
O44	O	1.393709	0.068586	-0.141301
O45	O	1.727043	0.401920	0.192032
O46	O	1.060227	-0.474510	-0.264883
O47	O	1.393560	-0.141177	0.068451
O48	O	1.726893	0.192156	0.401784
O49	O	0.973796	-0.478110	-0.358891
O50	O	1.307129	-0.144776	-0.025558
O51	O	1.640463	0.188557	0.307775
C52	C	1.017017	-0.503012	-0.311896
C53	C	1.350351	-0.169679	0.021438
C54	C	1.683684	0.163654	0.354771
C55	C	1.017050	-0.584810	-0.311904
C56	C	1.350383	-0.251477	0.021430
C57	C	1.683717	0.081857	0.354763
C58	C	0.834230	-0.319469	-0.319571
C59	C	1.167564	0.013864	0.013762
C60	C	1.500897	0.347197	0.347095
C61	C	0.756001	-0.322767	-0.322859
C62	C	1.089335	0.010566	0.010474
C63	C	1.422668	0.343900	0.343808
C64	C	1.062160	-0.771101	-0.263036
C65	C	1.395493	-0.437767	0.070298
C66	C	1.728827	-0.104434	0.403631
C67	C	1.062191	-0.847958	-0.263052
C68	C	1.395525	-0.514625	0.070281
C69	C	1.728858	-0.181291	0.403615
C70	C	0.972113	-0.851749	-0.360869
C71	C	1.305447	-0.518416	-0.027536
C72	C	1.638780	-0.185083	0.305797
C73	C	0.972086	-0.774893	-0.360856
C74	C	1.305419	-0.441560	-0.027522
C75	C	1.638753	-0.108227	0.305811
C76	C	1.017108	-0.734571	-0.311935
C77	C	1.350442	-0.401238	0.021399
C78	C	1.683775	-0.067904	0.354732
C79	C	1.017167	-0.888284	-0.311965
C80	C	1.350500	-0.554951	0.021369
C81	C	1.683834	-0.221618	0.354702
C82	C	1.017201	-0.971617	-0.311983
C83	C	1.350534	-0.638283	0.021350
C84	C	1.683868	-0.304950	0.354684
C85	C	1.017076	-0.651233	-0.311917
C86	C	1.350409	-0.317900	0.021416
C87	C	1.683742	0.015433	0.354749
C88	C	0.719241	-0.277193	-0.277428
C89	C	1.052574	0.056141	0.055905
C90	C	1.385908	0.389474	0.389238
C91	C	0.645737	-0.280297	-0.280517
C92	C	0.979070	0.053036	0.052816
C93	C	1.312403	0.386369	0.386150
C94	C	0.608994	-0.328973	-0.329040
C95	C	0.942327	0.004360	0.004293
C96	C	1.275661	0.337694	0.337626
C97	C	0.645759	-0.374552	-0.374473
C98	C	0.979093	-0.041219	-0.041139
C99	C	1.312426	0.292114	0.292194
C100	C	0.719262	-0.371451	-0.371380
C101	C	1.052596	-0.038117	-0.038047
C102	C	1.385929	0.295216	0.295287
C103	C	0.389164	-0.343305	-0.343325
C104	C	0.722498	-0.009972	-0.009991
C105	C	1.055831	0.323361	0.323342
C106	C	0.315656	-0.346402	-0.346416
C107	C	0.648990	-0.013069	-0.013082
C108	C	0.982323	0.320265	0.320251
C109	C	0.315639	-0.252147	-0.252458
C110	C	0.648972	0.081186	0.080875
C111	C	0.982305	0.414519	0.414208
C112	C	0.389143	-0.249047	-0.249373
C113	C	0.722476	0.084286	0.083960
C114	C	1.055810	0.417619	0.417294
C115	C	0.425902	-0.294629	-0.294803
C116	C	0.759235	0.038704	0.038531
C117	C	1.092569	0.372038	0.371864
N118	N	0.533861	-0.332146	-0.332200
N119	N	0.867194	0.001187	0.001133
N120	N	1.200527	0.334521	0.334466
N121	N	0.501034	-0.291459	-0.291638
N122	N	0.834367	0.041874	0.041695
N123	N	1.167701	0.375207	0.375028
C124	C	1.200667	-0.304107	-0.304255
C125	C	1.534000	0.029226	0.029078
C126	C	1.867334	0.362560	0.362412
C127	C	1.278896	-0.300828	-0.300985
C128	C	1.612229	0.032506	0.032348
C129	C	1.945563	0.365839	0.365682
C130	C	1.017134	-0.311750	-0.503879
C131	C	1.350468	0.021583	-0.170546
C132	C	1.683801	0.354916	0.162788
C133	C	1.017153	-0.311728	-0.585677
C134	C	1.350486	0.021605	-0.252344
C135	C	1.683819	0.354939	0.080989
C136	C	1.017185	-0.119846	-0.311976
C137	C	1.350519	0.213487	0.021358
C138	C	1.683852	0.546821	0.354691
C139	C	1.017225	-0.038045	-0.311996
C140	C	1.350559	0.295288	0.021337
C141	C	1.683892	0.628621	0.354671
C142	C	1.062207	-0.262726	-0.772002
C143	C	1.395540	0.070607	-0.438669
C144	C	1.728874	0.403941	-0.105335
C145	C	1.062215	-0.262704	-0.848860
C146	C	1.395549	0.070629	-0.515527
C147	C	1.728882	0.403962	-0.182194
C148	C	0.972148	-0.360614	-0.852588
C149	C	1.305482	-0.027281	-0.519255
C150	C	1.638815	0.306053	-0.185922
C151	C	0.972137	-0.360632	-0.775731
C152	C	1.305470	-0.027298	-0.442398
C153	C	1.638804	0.306035	-0.109065
C154	C	1.017170	-0.311689	-0.735440
C155	C	1.350504	0.021645	-0.402107
C156	C	1.683837	0.354978	-0.068773
C157	C	1.017190	-0.311649	-0.889155
C158	C	1.350523	0.021684	-0.555822
C159	C	1.683857	0.355017	-0.222489
C160	C	1.017199	-0.311626	-0.972489
C161	C	1.350532	0.021707	-0.639155
C162	C	1.683865	0.355041	-0.305822
C163	C	1.017161	-0.311711	-0.652101
C164	C	1.350494	0.021623	-0.318768
C165	C	1.683827	0.354956	0.014565
C166	C	1.017089	-0.311800	-0.120722
C167	C	1.350423	0.021533	0.212612
C168	C	1.683756	0.354866	0.545945
C169	C	1.017208	-0.311610	-0.038918
C170	C	1.350541	0.021723	0.294415
C171	C	1.683874	0.355057	0.627748
H172	H	1.098878	-0.877697	-0.223234
H173	H	1.432211	-0.544364	0.110099
H174	H	1.765545	-0.211030	0.443432
N175	N	0.923552	-0.895240	-0.413629
N176	N	1.256886	-0.561907	-0.080296
N177	N	1.590219	-0.228573	0.253038
H178	H	0.930403	-0.949472	-0.406216
H179	H	1.263736	-0.616138	-0.072883
H180	H	1.597070	-0.282805	0.260450
H181	H	0.873290	-0.883965	-0.404226
H182	H	1.206623	-0.550632	-0.070893
H183	H	1.539957	-0.217298	0.262441
N184	N	0.923494	-0.735487	-0.413601
N185	N	1.256827	-0.402153	-0.080268
N186	N	1.590161	-0.068820	0.253065
H187	H	0.894973	-0.772692	-0.444591
H188	H	1.228306	-0.439358	-0.111257
H189	H	1.561639	-0.106025	0.222076
H190	H	0.890931	-0.705014	-0.384969
H191	H	1.224265	-0.371681	-0.051636
H192	H	1.557598	-0.038347	0.281697
N193	N	0.606090	-0.231121	-0.231537
N194	N	0.939423	0.102213	0.101797
N195	N	1.272757	0.435546	0.435130
H196	H	0.553951	-0.240467	-0.240860
H197	H	0.887284	0.092866	0.092474
H198	H	1.220617	0.426199	0.425807
H199	H	0.618904	-0.241947	-0.178412
H200	H	0.952238	0.091386	0.154922
H201	H	1.285571	0.424720	0.488255
H202	H	0.749152	-0.237550	-0.237921
H203	H	1.082485	0.095784	0.095412
H204	H	1.415818	0.429117	0.428746
N205	N	1.110775	-0.209939	-0.728543
N206	N	1.444108	0.123394	-0.395210
N207	N	1.777442	0.456727	-0.061877
H208	H	1.139306	-0.178918	-0.763371
H209	H	1.472639	0.154415	-0.430037
H210	H	1.805972	0.487749	-0.096704
H211	H	1.082137	-0.177091	-0.697859
H212	H	1.415470	0.156242	-0.364525
H213	H	1.748804	0.489575	-0.031192
H214	H	0.935458	-0.400503	-0.745962
H215	H	1.268791	-0.067169	-0.412629
H216	H	1.602124	0.266164	-0.079296
N217	N	1.110788	-0.209886	-0.888287
N218	N	1.444122	0.123448	-0.554954
N219	N	1.777455	0.456781	-0.221621
H220	H	1.161069	-0.219208	-0.872813
H221	H	1.494402	0.114126	-0.539479
H222	H	1.827736	0.447459	-0.206146
H223	H	1.103905	-0.217317	-0.943080
H224	H	1.437238	0.116017	-0.609747
H225	H	1.770572	0.449350	-0.276414
N226	N	1.110720	-0.727608	-0.210277
N227	N	1.444053	-0.394275	0.123057
N228	N	1.777387	-0.060942	0.456390
H229	H	1.139266	-0.762415	-0.179304
H230	H	1.472600	-0.429082	0.154030
H231	H	1.805933	-0.095749	0.487363
H232	H	1.143261	-0.694304	-0.238898
H233	H	1.476594	-0.360971	0.094435
H234	H	1.809927	-0.027638	0.427769
H235	H	0.419054	-0.209415	-0.209855
H236	H	0.752387	0.123918	0.123479
H237	H	1.085721	0.457251	0.456812
H238	H	0.935486	-0.400463	-0.885403
H239	H	1.268819	-0.067130	-0.552070
H240	H	1.602152	0.266203	-0.218736
N241	N	0.275992	-0.203001	-0.203447
N242	N	0.609326	0.130332	0.129887
N243	N	0.942659	0.463665	0.463220
H244	H	0.223853	-0.212355	-0.212762
H245	H	0.557186	0.120978	0.120572
H246	H	0.890520	0.454312	0.453905
H247	H	0.288821	-0.213862	-0.150332
H248	H	0.622155	0.119471	0.183001
H249	H	0.955488	0.452804	0.516334
N250	N	0.276024	-0.398898	-0.398760
N251	N	0.609357	-0.065565	-0.065427
N252	N	0.942690	0.267769	0.267906
H253	H	0.310463	-0.427303	-0.427072
H254	H	0.643797	-0.093970	-0.093739
H255	H	0.977130	0.239364	0.239595
H256	H	0.245498	-0.434201	-0.370029
H257	H	0.578832	-0.100868	-0.036696
H258	H	0.912165	0.232466	0.296638
N259	N	0.428806	-0.392467	-0.392320
N260	N	0.762140	-0.059134	-0.058987
N261	N	1.095473	0.274199	0.274346
H262	H	0.394374	-0.423770	-0.423529
H263	H	0.727708	-0.090437	-0.090196
H264	H	1.061041	0.242896	0.243138
H265	H	0.459329	-0.361271	-0.425149
H266	H	0.792663	-0.027938	-0.091816
H267	H	1.125996	0.305396	0.241518
N268	N	0.606128	-0.427055	-0.426804
N269	N	0.939461	-0.093722	-0.093470
N270	N	1.272795	0.239611	0.239863
H271	H	0.575656	-0.398477	-0.462245
H272	H	0.908990	-0.065144	-0.128912
H273	H	1.242323	0.268190	0.204421
H274	H	0.640613	-0.455447	-0.455063
H275	H	0.973946	-0.122114	-0.121730
H276	H	1.307279	0.211220	0.211604
N277	N	0.758915	-0.420609	-0.420376
N278	N	1.092248	-0.087276	-0.087043
N279	N	1.425581	0.246058	0.246291
H280	H	0.724486	-0.451915	-0.451585
H281	H	1.057820	-0.118582	-0.118252
H282	H	1.391153	0.214751	0.215081
H283	H	0.789437	-0.389412	-0.453204
H284	H	1.122771	-0.056078	-0.119871
H285	H	1.456104	0.277255	0.213463
