data_functionalizedCrystal
_audit_creation_method	'MofGen! by Chris Wilmer'
_symmetry_space_group_name_H-M	'P1'
_symmetry_Int_Tables_number	1
_symmetry_cell_setting	triclinic
loop_
_symmetry_equiv_pos_as_xyz
  x,y,z
_cell_length_a	16.776229
_cell_length_b	17.699083
_cell_length_c	17.699083
_cell_angle_alpha	83.283015
_cell_angle_beta	89.998886
_cell_angle_gamma	89.992455
loop_
_atom_site_label
_atom_site_type_symbol
_atom_site_fract_x
_atom_site_fract_y
_atom_site_fract_z
O1	O	-0.066178	0.095713	1.004078
O2	O	-0.066204	0.108165	0.783700
O3	O	-0.066183	-0.008250	0.900116
O4	O	-0.066199	0.212128	0.887663
O5	O	0.066393	-0.008257	0.900100
O6	O	0.066372	0.108158	0.783685
O7	O	0.066398	0.095706	1.004063
Zn8	Zn	0.087435	0.101931	0.893871
Zn9	Zn	-0.087241	0.101940	0.893892
O10	O	0.066378	0.212121	0.887648
C11	C	0.000105	-0.036451	0.899662
C12	C	0.000105	-0.120469	0.898323
C13	C	0.000081	0.107716	0.755495
C14	C	0.000071	0.106377	0.671477
N15	N	0.206646	0.101924	0.893863
N16	N	-0.206452	0.101941	0.893906
C17	C	0.248372	0.050396	0.945428
C18	C	0.331824	0.050396	0.945432
C19	C	0.373549	0.101927	0.893875
C20	C	0.331817	0.153457	0.842305
C21	C	0.248366	0.153454	0.842297
C22	C	0.668364	0.153472	0.842332
C23	C	0.751820	0.153473	0.842345
C24	C	0.751822	0.050414	0.945466
C25	C	0.668372	0.050411	0.945459
C26	C	0.626647	0.101938	0.893887
C27	C	0.536158	0.101937	0.893882
C28	C	0.464036	0.101932	0.893882
C29	C	0.000114	-0.169090	0.966656
C30	C	0.000107	-0.248033	0.965394
C31	C	0.000096	-0.278354	0.895798
C32	C	0.000085	-0.229727	0.827459
C33	C	0.000086	-0.150785	0.828722
C34	C	0.000078	-0.548090	0.822364
C35	C	0.000078	-0.627038	0.821106
C36	C	0.000099	-0.645338	0.959036
C37	C	0.000100	-0.566396	0.960299
C38	C	0.000084	-0.517776	0.891961
C39	C	0.000090	-0.432177	0.893330
C40	C	0.000096	-0.363951	0.894427
C41	C	0.000087	0.240322	0.888102
C42	C	0.000082	0.324340	0.889440
C43	C	0.000066	0.174710	0.622856
C44	C	0.000077	0.173448	0.543913
C45	C	0.000086	0.103852	0.513592
C46	C	0.000093	0.035513	0.562219
C47	C	0.000088	0.036776	0.641161
C48	C	0.000113	0.030418	0.243856
C49	C	0.000115	0.029160	0.164908
C50	C	0.000101	0.167090	0.146608
C51	C	0.000097	0.168353	0.225550
C52	C	0.000108	0.100015	0.274170
C53	C	0.000098	0.101384	0.359769
C54	C	0.000090	0.102481	0.427995
C55	C	0.000112	0.096156	1.032268
C56	C	0.000116	0.097494	1.116286
H57	H	0.214406	0.008437	0.987414
H58	H	0.000071	-0.651721	0.764429
Br59	Br	0.000125	-0.065299	0.123759
Br60	Br	0.611748	-0.019522	1.015435
Br61	Br	0.611742	0.223401	0.772345
Br62	Br	0.000130	-0.062327	0.309831
H63	H	0.365798	0.008438	0.987419
Br64	Br	0.000067	-0.084798	0.735980
Br65	Br	0.000113	-0.058941	0.521071
H66	H	0.000072	0.229092	0.504328
H67	H	0.000128	-0.144409	1.023330
Br68	Br	0.808453	-0.019518	1.015458
H69	H	0.000085	0.225025	0.250232
H70	H	0.365793	0.195412	0.800322
H71	H	0.000107	-0.684934	1.014680
Br72	Br	0.000045	0.269168	0.663998
H73	H	0.785791	0.195437	0.800358
H74	H	0.214393	0.195412	0.800308
Br75	Br	0.000120	-0.314016	1.058137
H76	H	0.000113	-0.541714	1.016971
H77	H	0.000065	-0.508512	0.766718
H78	H	0.000097	0.222734	0.107012
Br79	Br	0.000057	-0.270875	0.733005
H80	H	0.000091	-0.018868	0.680748
