data_functionalizedCrystal
_audit_creation_method	'MofGen! by Chris Wilmer'
_symmetry_space_group_name_H-M	'P1'
_symmetry_Int_Tables_number	1
_symmetry_cell_setting	triclinic
loop_
_symmetry_equiv_pos_as_xyz
  x,y,z
_cell_length_a	11.792254
_cell_length_b	19.188930
_cell_length_c	10.268362
_cell_angle_alpha	89.989600
_cell_angle_beta	89.995475
_cell_angle_gamma	83.671689
loop_
_atom_site_label
_atom_site_type_symbol
_atom_site_fract_x
_atom_site_fract_y
_atom_site_fract_z
O1	O	1.505467	0.095737	-0.108315
O2	O	1.174981	0.105590	-0.108320
O3	O	1.349761	-0.000937	-0.108292
O4	O	1.330687	0.202265	-0.108343
O5	O	1.349746	-0.000942	0.108309
O6	O	1.174966	0.105586	0.108281
O7	O	1.505452	0.095733	0.108286
Cu8	Cu	1.340207	0.100659	0.128061
Cu9	Cu	1.340225	0.100664	-0.128095
O10	O	1.330672	0.202261	0.108258
C11	C	1.132692	0.104968	-0.000019
C12	C	1.006706	0.103110	-0.000020
C13	C	0.904392	0.101600	-0.000025
C14	C	0.776034	0.099713	-0.000026
C15	C	1.349136	-0.026954	0.000012
C16	C	1.347282	-0.104469	0.000023
C17	C	1.449837	-0.148809	0.000031
C18	C	1.448095	-0.221643	0.000010
C19	C	1.343792	-0.250134	0.000008
C20	C	1.241223	-0.205784	-0.000007
C21	C	1.242968	-0.132951	0.000001
N22	N	1.264059	-0.358594	0.073720
N23	N	1.262409	-0.427782	0.073715
C24	C	1.338528	-0.469572	-0.000019
N25	N	1.416378	-0.439562	-0.073731
N26	N	1.418032	-0.370368	-0.073721
C27	C	1.341888	-0.329107	-0.000002
C28	C	1.439202	-0.592887	-0.000035
C29	C	1.437455	-0.665722	-0.000064
C30	C	1.230580	-0.649861	-0.000069
C31	C	1.232330	-0.577028	-0.000053
C32	C	1.336643	-0.548546	-0.000030
C33	C	1.547741	0.096356	-0.000017
C34	C	1.673726	0.098214	-0.000025
N35	N	1.340203	0.100655	0.308227
C36	C	1.331297	0.228278	-0.000049
C37	C	1.333151	0.305793	-0.000069
N38	N	1.340239	0.100663	-0.308261
C39	C	1.340220	0.100663	0.573897
C40	C	1.340207	0.100660	0.426059
H41	H	1.534777	-0.125624	0.000045
H42	H	1.531611	-0.257752	0.000011
H43	H	1.524140	-0.569696	-0.000023
O44	O	1.129159	-0.677412	-0.000129
C45	C	1.039012	-0.622653	-0.000091
H46	H	1.070582	-0.573054	-0.041089
H47	H	1.007386	-0.612483	0.103824
C48	C	0.901839	-0.704491	-0.034686
C49	C	0.940611	-0.643575	-0.085051
H50	H	0.841138	-0.717397	-0.087088
H51	H	0.962572	-0.741384	-0.034707
H52	H	0.875492	-0.696008	0.051909
H53	H	0.966970	-0.652061	-0.171637
H54	H	0.879880	-0.606684	-0.085047
O55	O	1.139974	-0.233538	-0.000181
C56	C	1.132774	-0.275167	-0.112379
H57	H	1.222321	-0.292958	-0.149774
H58	H	1.082410	-0.243178	-0.190933
C59	C	0.961996	-0.317970	-0.032380
C60	C	1.071980	-0.339826	-0.078302
H61	H	0.924491	-0.357853	-0.011363
H62	H	0.966843	-0.289922	0.043208
H63	H	0.920040	-0.291312	-0.097849
H64	H	1.113938	-0.366477	-0.012828
H65	H	1.067138	-0.367880	-0.153879
H66	H	1.148818	-0.540925	-0.000052
O67	O	1.143236	-0.089976	0.000058
C68	C	1.050797	-0.130735	0.000011
H69	H	1.079869	-0.184984	0.041008
H70	H	1.018817	-0.136026	-0.103907
C71	C	0.918042	-0.028201	0.034601
C72	C	0.953747	-0.094828	0.084965
H73	H	0.858174	-0.006051	0.087000
H74	H	0.980319	-0.000740	0.034628
H75	H	0.891399	-0.032620	-0.051996
H76	H	0.980401	-0.090408	0.171554
H77	H	0.891472	-0.122288	0.084955
O78	O	1.537188	-0.708697	-0.000000
C79	C	1.629625	-0.667936	-0.000009
H80	H	1.600540	-0.613700	0.041004
H81	H	1.661632	-0.662613	-0.103917
C82	C	1.762376	-0.770478	0.034568
C83	C	1.726655	-0.703866	0.084952
H84	H	1.822231	-0.792642	0.086971
H85	H	1.700101	-0.797940	0.034569
H86	H	1.789040	-0.766033	-0.052021
H87	H	1.699978	-0.708312	0.171533
H88	H	1.788928	-0.676405	0.084968
