data_functionalizedCrystal
_audit_creation_method	'MofGen! by Chris Wilmer'
_symmetry_space_group_name_H-M	'P1'
_symmetry_Int_Tables_number	1
_symmetry_cell_setting	triclinic
loop_
_symmetry_equiv_pos_as_xyz
  x,y,z
_cell_length_a	15.698487
_cell_length_b	16.704494
_cell_length_c	16.704494
_cell_angle_alpha	89.699037
_cell_angle_beta	56.631731
_cell_angle_gamma	56.633407
loop_
_atom_site_label
_atom_site_type_symbol
_atom_site_fract_x
_atom_site_fract_y
_atom_site_fract_z
Zr1	Zr	0.851055	-0.066984	0.811562
O2	O	1.059982	-0.209851	0.668690
O3	O	0.663775	-0.023191	0.855360
O4	O	0.861878	-0.200246	0.845750
O5	O	0.845792	0.106872	0.685880
O6	O	0.845792	-0.192667	0.985418
O7	O	0.861878	-0.032796	0.678300
O8	O	0.491421	0.124053	1.002608
O9	O	1.200162	-0.209848	0.668690
O10	O	0.720783	0.001147	0.978272
O11	O	0.720783	0.099722	0.879696
O12	O	0.954024	-0.108738	0.868382
O13	O	0.954024	-0.010162	0.769806
Zr14	Zr	0.799742	0.167858	1.046406
Zr15	Zr	0.825398	-0.054896	1.034316
Zr16	Zr	0.825398	0.155769	0.823652
Zr17	Zr	1.074627	-0.066979	0.811562
Zr18	Zr	0.576170	0.167853	1.046406
O19	O	0.987022	0.124065	1.002608
O20	O	1.023502	-0.192663	0.985418
O21	O	1.023502	0.106876	0.685880
O22	O	0.590815	0.310725	1.189278
O23	O	0.627295	-0.006002	1.172088
O24	O	0.627295	0.293536	0.872550
O25	O	0.805005	-0.005998	1.172088
O26	O	0.788919	0.301120	1.012218
O27	O	0.805005	0.293540	0.872550
O28	O	0.788919	0.133670	1.179668
O29	O	1.179769	-0.200239	0.845750
O30	O	0.471028	0.301113	1.012218
O31	O	0.450634	0.310722	1.189278
O32	O	0.471028	0.133662	1.179668
O33	O	1.179769	-0.032789	0.678300
O34	O	1.159376	-0.023180	0.855360
O35	O	0.696773	0.209611	0.989586
O36	O	0.696773	0.111036	1.088161
O37	O	0.930014	0.001151	0.978272
O38	O	0.930014	0.099727	0.879696
C39	C	0.545743	0.050431	0.928984
C40	C	0.450831	0.050428	0.928984
C41	C	0.857490	0.035316	0.650352
C42	C	0.868382	0.030184	0.555787
C43	C	0.793307	0.329068	0.944106
C44	C	0.782415	0.423633	0.949239
C45	C	0.277047	0.050447	0.928982
C46	C	0.373752	0.050439	0.928981
C47	C	1.105053	0.050443	0.928984
C48	C	1.199966	0.050445	0.928984
C49	C	0.857490	-0.228194	0.913862
C50	C	0.868382	-0.322759	0.908729
C51	C	1.005476	0.486601	0.844132
C52	C	0.995248	0.575450	0.848951
C53	C	0.751735	0.690181	0.963690
C54	C	0.761962	0.601332	0.958870
C55	C	0.888837	0.499543	0.899091
C56	C	0.899062	0.410693	0.894278
C57	C	0.655551	0.525424	1.009010
C58	C	0.645323	0.614273	1.013829
C59	C	0.645321	0.135285	0.492824
C60	C	0.655549	0.130465	0.403974
C61	C	0.899062	0.015733	0.289238
C62	C	0.888835	0.020552	0.378088
C63	C	0.761960	0.080329	0.479879
C64	C	0.751735	0.085141	0.568729
C65	C	0.995246	-0.029585	0.453993
C66	C	1.005474	-0.034404	0.365144
C67	C	0.793307	0.065558	1.207616
C68	C	0.782415	0.070690	1.302181
C69	C	0.513652	0.065552	1.207616
C70	C	0.407848	0.070682	1.302181
C71	C	0.513652	0.329062	0.944106
C72	C	0.407848	0.423624	0.949239
C73	C	0.481560	0.344183	1.222738
C74	C	0.364864	0.443878	1.322435
C75	C	1.169237	-0.243309	0.635230
C76	C	1.285933	-0.343004	0.535532
C77	C	1.137145	0.035322	0.650352
C78	C	1.242949	0.030192	0.555787
C79	C	1.137145	-0.228188	0.913862
C80	C	1.242949	-0.322750	0.908729
C81	C	0.370695	0.015720	1.289228
C82	C	0.271297	0.020519	1.378072
C83	C	0.209046	0.080286	1.479869
C84	C	0.246207	0.135249	1.492820
C85	C	0.345611	0.130443	1.403976
C86	C	0.345627	0.525402	1.009011
C87	C	0.246225	0.614262	1.013830
C88	C	0.209038	0.601342	0.958882
C89	C	0.271270	0.499554	0.899102
C90	C	0.370677	0.410696	0.894278
C91	C	0.310061	0.439240	1.420719
C92	C	0.200426	0.532906	1.514404
C93	C	0.145589	0.631208	1.509802
C94	C	0.200402	0.635843	1.411508
C95	C	0.310041	0.542178	1.317826
C96	C	1.340746	-0.338367	0.437249
C97	C	1.450410	-0.432032	0.343564
C98	C	1.505251	-0.530334	0.348166
C99	C	1.450433	-0.534969	0.446460
C100	C	1.340778	-0.441304	0.540142
C101	C	1.280112	0.085144	0.568740
C102	C	1.379538	0.080321	0.479894
C103	C	1.441793	0.020551	0.378097
C104	C	1.404627	-0.034408	0.365146
C105	C	1.305209	-0.029590	0.453991
C106	C	1.280102	-0.309797	0.963689
C107	C	1.379501	-0.398639	0.958888
C108	C	1.441752	-0.500434	0.899119
C109	C	1.404591	-0.513386	0.844158
C110	C	1.305187	-0.424544	0.848966
H111	H	1.002370	0.327815	0.845605
Cl112	Cl	1.258507	-0.440849	0.779853
H113	H	0.560569	0.175217	0.414522
H114	H	1.455291	-0.596279	0.795495
Cl115	Cl	0.448940	-0.059428	1.161265
Cl116	Cl	1.201860	-0.181836	1.038837
Cl117	Cl	0.084079	0.086319	1.591549
Cl118	Cl	1.426205	-0.382333	1.027982
H119	H	0.375846	0.175206	1.414538
Cl120	Cl	1.164968	0.358639	0.768998
Cl121	Cl	0.007752	0.748950	1.627585
Cl122	Cl	1.141887	0.559175	0.779854
H123	H	0.241054	-0.024239	1.367506
H124	H	0.648441	0.773068	1.012353
Cl125	Cl	0.592238	0.160285	0.696694
H126	H	1.495025	-0.428238	0.263539
Cl127	Cl	1.643103	-0.648076	0.230383
Cl128	Cl	0.167929	0.210385	1.620801
Cl129	Cl	1.519388	-0.658558	0.452227
H130	H	1.002355	-0.032920	0.206349
Cl131	Cl	0.485834	0.742239	1.088973
H132	H	0.155737	0.715893	1.407777
H133	H	0.560574	0.535956	1.053761
Cl134	Cl	0.485829	0.210416	0.620790
H135	H	0.421326	0.327827	0.845609
Cl136	Cl	1.201875	0.160286	0.696702
H137	H	0.375891	0.535942	1.053757
Cl138	Cl	0.084063	0.713062	0.964960
Cl139	Cl	1.164963	-0.109543	0.237174
H140	H	1.090223	-0.074337	0.443458
H141	H	0.195565	0.697135	1.062512
Cl142	Cl	1.566721	-0.612111	0.893082
H143	H	0.240978	0.489049	0.854366
H144	H	1.522743	0.016637	0.305763
Cl145	Cl	0.378915	0.548026	1.194273
H146	H	0.354694	0.359207	1.424486
Cl147	Cl	0.131536	0.527055	1.637959
Cl148	Cl	1.271825	-0.214799	0.431436
H149	H	1.296150	-0.445092	0.620166
H150	H	1.409780	0.125080	0.490460
H151	H	1.455329	-0.083071	0.282251
H152	H	1.274956	-0.074336	0.443430
