data_functionalizedCrystal
_audit_creation_method	'MofGen! by Chris Wilmer'
_symmetry_space_group_name_H-M	'P1'
_symmetry_Int_Tables_number	1
_symmetry_cell_setting	triclinic
loop_
_symmetry_equiv_pos_as_xyz
  x,y,z
_cell_length_a	16.959455
_cell_length_b	29.839131
_cell_length_c	16.959447
_cell_angle_alpha	90.033915
_cell_angle_beta	90.014322
_cell_angle_gamma	90.038367
loop_
_atom_site_label
_atom_site_type_symbol
_atom_site_fract_x
_atom_site_fract_y
_atom_site_fract_z
Zn1	Zn	1.208267	-0.178881	0.446889
Zn2	Zn	1.708267	0.321119	0.946889
Zn3	Zn	1.208140	-0.254014	0.314702
Zn4	Zn	1.708140	0.245986	0.814702
Zn5	Zn	1.076095	-0.178895	0.314726
Zn6	Zn	1.576095	0.321105	0.814726
Zn7	Zn	1.076010	-0.253981	0.446841
Zn8	Zn	1.576010	0.246019	0.946841
O9	O	1.142128	-0.216443	0.380790
O10	O	1.642128	0.283557	0.880790
O11	O	1.318861	-0.188856	0.429364
O12	O	1.818861	0.311144	0.929364
O13	O	1.190606	-0.244070	0.204094
O14	O	1.690606	0.255930	0.704094
O15	O	1.093716	-0.116026	0.332288
O16	O	1.593716	0.383974	0.832288
O17	O	1.318767	-0.244056	0.332247
O18	O	1.818767	0.255944	0.832247
O19	O	1.190822	-0.116016	0.429388
O20	O	1.690822	0.383984	0.929388
O21	O	1.093593	-0.188880	0.204112
O22	O	1.593593	0.311120	0.704112
O23	O	0.965473	-0.188847	0.332242
O24	O	1.465473	0.311153	0.832242
O25	O	1.093572	-0.243999	0.557458
O26	O	1.593572	0.256001	1.057458
O27	O	0.965411	-0.244012	0.429305
O28	O	1.465411	0.255988	0.929305
O29	O	1.190740	-0.188823	0.557493
O30	O	1.690740	0.311177	1.057493
O31	O	1.190524	-0.316877	0.332200
O32	O	1.690524	0.183123	0.832200
O33	O	1.093449	-0.316852	0.429282
O34	O	1.593449	0.183148	0.929282
C35	C	0.936762	-0.216428	0.380771
C36	C	1.436762	0.283572	0.880771
C37	C	0.848905	-0.216433	0.380782
C38	C	1.348905	0.283567	0.880782
C39	C	0.477437	-0.187695	0.330354
C40	C	0.977437	0.312305	0.830354
C41	C	0.477421	-0.245228	0.431270
C42	C	0.977421	0.254772	0.931270
C43	C	0.559967	-0.245221	0.431265
C44	C	1.059967	0.254779	0.931265
C45	C	0.601252	-0.216452	0.380803
C46	C	1.101252	0.283548	0.880803
C47	C	0.559991	-0.187688	0.330346
C48	C	1.059991	0.312312	0.830346
C49	C	0.601235	-0.273987	0.481716
C50	C	1.101235	0.226013	0.981716
C51	C	0.683786	-0.273982	0.481713
C52	C	1.183786	0.226018	0.981713
C53	C	0.725072	-0.245210	0.431254
C54	C	1.225072	0.254790	0.931254
C55	C	0.683806	-0.216445	0.380795
C56	C	1.183806	0.283555	0.880795
C57	C	0.725090	-0.187676	0.330333
C58	C	1.225090	0.312324	0.830333
C59	C	0.683826	-0.158908	0.279878
C60	C	1.183826	0.341092	0.779878
C61	C	0.601277	-0.158916	0.279887
C62	C	1.101277	0.341084	0.779887
C63	C	0.807620	-0.245202	0.431245
C64	C	1.307620	0.254798	0.931245
C65	C	0.807644	-0.187669	0.330325
C66	C	1.307644	0.312331	0.830325
C67	C	1.141985	-0.333165	0.380750
C68	C	1.641985	0.166835	0.880750
C69	C	1.141996	-0.383100	0.380760
C70	C	1.641996	0.116900	0.880760
C71	C	1.192767	-0.692743	0.330313
C72	C	1.692767	-0.192743	0.830313
C73	C	1.192864	-0.880416	0.330344
C74	C	1.692864	-0.380416	0.830344
O75	O	1.235918	-0.904681	0.287422
O76	O	1.735918	-0.404681	0.787422
N77	N	1.142292	-0.903885	0.380849
N78	N	1.642292	-0.403885	0.880849
C79	C	1.091695	-0.880432	0.431354
C80	C	1.591695	-0.380432	0.931354
O81	O	1.048688	-0.904700	0.474319
O82	O	1.548688	-0.404700	0.974319
C83	C	1.091602	-0.692760	0.431327
C84	C	1.591602	-0.192760	0.931327
C85	C	1.142172	-0.669294	0.380812
C86	C	1.642172	-0.169294	0.880812
C87	C	1.243333	-0.669277	0.279803
C88	C	1.743333	-0.169277	0.779803
C89	C	1.243305	-0.622362	0.279793
C90	C	1.743305	-0.122362	0.779793
C91	C	1.192711	-0.598913	0.330293
C92	C	1.692711	-0.098913	0.830293
C93	C	1.142144	-0.622379	0.380802
C94	C	1.642144	-0.122379	0.880802
C95	C	1.041010	-0.669308	0.481835
C96	C	1.541010	-0.169308	0.981835
C97	C	1.040992	-0.622387	0.481826
C98	C	1.540992	-0.122387	0.981826
C99	C	1.091563	-0.598921	0.431311
C100	C	1.591563	-0.098921	0.931311
C101	C	1.091522	-0.552014	0.431292
C102	C	1.591522	-0.052014	0.931292
N103	N	1.142094	-0.528545	0.380786
N104	N	1.642094	-0.028545	0.880786
C105	C	1.192689	-0.551995	0.330287
C106	C	1.692689	-0.051995	0.830287
C107	C	1.091746	-0.978963	0.431364
C108	C	1.591746	-0.478963	0.931364
C109	C	1.091768	-1.025881	0.431370
C110	C	1.591768	-0.525881	0.931370
C111	C	1.192939	-1.025862	0.330360
C112	C	1.692939	-0.525862	0.830360
C113	C	1.192912	-0.978943	0.330351
C114	C	1.692912	-0.478943	0.830351
C115	C	1.142319	-0.955494	0.380858
C116	C	1.642319	-0.455494	0.880858
C117	C	1.192626	-0.453469	0.330268
C118	C	1.692626	0.046531	0.830268
C119	C	1.192591	-0.406549	0.330260
C120	C	1.692591	0.093451	0.830260
C121	C	1.091424	-0.406572	0.431273
C122	C	1.591424	0.093428	0.931273
C123	C	1.091455	-0.453488	0.431278
C124	C	1.591455	0.046512	0.931278
C125	C	1.142063	-0.476935	0.380773
C126	C	1.642063	0.023065	0.880773
O127	O	1.048497	-0.527720	0.474197
O128	O	1.548497	-0.027720	0.974197
O129	O	1.235702	-0.527719	0.287341
O130	O	1.735702	-0.027719	0.787341
C131	C	1.192795	-0.739659	0.330323
C132	C	1.692795	-0.239659	0.830323
C133	C	1.142228	-0.763125	0.380833
C134	C	1.642228	-0.263125	0.880833
C135	C	1.091633	-0.739675	0.431332
C136	C	1.591633	-0.239675	0.931332
C137	C	1.142250	-0.810043	0.380839
C138	C	1.642250	-0.310043	0.880839
C139	C	1.192845	-0.833492	0.330339
C140	C	1.692845	-0.333492	0.830339
C141	C	1.243417	-0.810024	0.279834
C142	C	1.743417	-0.310024	0.779834
C143	C	1.243389	-0.763108	0.279824
C144	C	1.743389	-0.263108	0.779824
C145	C	1.041061	-0.763144	0.481838
C146	C	1.541061	-0.263144	0.981838
C147	C	1.041092	-0.810059	0.481843
C148	C	1.541092	-0.310059	0.981843
C149	C	1.091687	-0.833509	0.431344
C150	C	1.591687	-0.333509	0.931344
C151	C	1.348296	-0.216458	0.380808
C152	C	1.848296	0.283542	0.880808
C153	C	1.436153	-0.216465	0.380816
C154	C	1.936153	0.283535	0.880816
C155	C	1.142161	-0.216406	0.586958
C156	C	1.642161	0.283594	1.086958
C157	C	1.142175	-0.216390	0.674814
C158	C	1.642175	0.283610	1.174814
C159	C	1.142293	-0.099264	0.380846
C160	C	1.642293	0.400736	0.880846
C161	C	1.142363	-0.049330	0.380870
C162	C	1.642363	0.450670	0.880870
C163	C	1.142141	-0.216447	0.175423
C164	C	1.642141	0.283553	0.675423
C165	C	1.142280	-0.216337	0.087567
C166	C	1.642280	0.283663	0.587567
C167	C	1.091678	-0.245070	1.046274
C168	C	1.591678	0.254930	1.546274
C169	C	1.192860	-0.187615	1.046306
C170	C	1.692860	0.312385	1.546306
C171	C	1.192839	-0.187625	0.963760
C172	C	1.692839	0.312375	1.463760
C173	C	1.142238	-0.216358	0.922468
C174	C	1.642238	0.283642	1.422468
C175	C	1.091657	-0.245081	0.963721
C176	C	1.591657	0.254919	1.463721
C177	C	1.243424	-0.158905	0.922501
C178	C	1.743424	0.341095	1.422501
C179	C	1.243406	-0.158914	0.839950
C180	C	1.743406	0.341086	1.339950
C181	C	1.192800	-0.187645	0.798656
C182	C	1.692800	0.312355	1.298656
C183	C	1.142217	-0.216369	0.839914
C184	C	1.642217	0.283631	1.339914
C185	C	1.091615	-0.245102	0.798621
C186	C	1.591615	0.254898	1.298621
C187	C	1.041028	-0.273824	0.839878
C188	C	1.541028	0.226176	1.339878
C189	C	1.041051	-0.273812	0.922426
C190	C	1.541051	0.226188	1.422426
C191	C	1.192776	-0.187657	0.716107
C192	C	1.692776	0.312343	1.216107
C193	C	1.091594	-0.245113	0.716068
C194	C	1.591594	0.254887	1.216068
H195	H	1.233771	-0.387445	0.289123
H196	H	1.733771	0.112555	0.789123
H197	H	1.050228	-0.387473	0.472387
H198	H	1.550228	0.112527	0.972387
H199	H	0.443803	-0.268653	0.472350
H200	H	0.943803	0.231347	0.972350
H201	H	1.284568	-0.744006	0.238690
H202	H	1.784568	-0.244006	0.738690
H203	H	1.284597	-0.135526	0.806366
H204	H	1.784597	0.364474	1.306366
H205	H	0.999832	-0.297221	0.806247
H206	H	1.499832	0.202779	1.306247
H207	H	0.567615	-0.297413	0.522794
H208	H	1.067615	0.202587	1.022794
H209	H	1.050381	-0.268507	0.682453
H210	H	1.550381	0.231493	1.182453
C211	C	0.729244	-0.127263	0.224373
C212	C	1.229244	0.372737	0.724373
H213	H	0.784316	-0.131381	0.231600
H214	H	1.284316	0.368619	0.731600
H215	H	0.715692	-0.133798	0.171244
H216	H	1.215692	0.366202	0.671244
H217	H	0.715755	-0.097085	0.236048
H218	H	1.215755	0.402915	0.736048
C219	C	0.729170	-0.305620	0.537217
C220	C	1.229170	0.194380	1.037217
H221	H	0.692758	-0.322752	0.567275
H222	H	1.192758	0.177248	1.067275
H223	H	0.761349	-0.325171	0.506921
H224	H	1.261349	0.174829	1.006921
H225	H	0.761394	-0.288451	0.571713
H226	H	1.261394	0.211549	1.071713
H227	H	0.999794	-0.603298	0.522958
H228	H	1.499794	-0.103298	1.022958
H229	H	1.233837	-0.472554	0.289144
H230	H	1.733837	0.027446	0.789144
C231	C	1.299070	-0.127296	0.967922
C232	C	1.799070	0.372704	1.467922
H233	H	1.291826	-0.131398	1.022994
H234	H	1.791826	0.368602	1.522994
H235	H	1.352171	-0.133871	0.954400
H236	H	1.852171	0.366129	1.454400
H237	H	1.287528	-0.097112	0.954406
H238	H	1.787528	0.402888	1.454406
H239	H	1.284486	-0.603259	0.238662
H240	H	1.784486	-0.103259	0.738662
C241	C	0.853008	-0.276842	0.486738
C242	C	1.353008	0.223158	0.986738
H243	H	0.816598	-0.293976	0.516794
H244	H	1.316598	0.206024	1.016794
H245	H	0.885185	-0.296390	0.456436
H246	H	1.385185	0.203610	0.956436
H247	H	0.885235	-0.259676	0.521237
H248	H	1.385235	0.240324	1.021237
H249	H	1.050582	-1.044983	0.472496
H250	H	1.550582	-0.544983	0.972496
H251	H	0.567672	-0.135496	0.238808
H252	H	1.067672	0.364504	0.738808
C253	C	1.248596	-1.051660	0.274813
C254	C	1.748596	-0.551660	0.774813
H255	H	1.278714	-1.030967	0.244727
H256	H	1.778714	-0.530967	0.744727
H257	H	1.283018	-1.069932	0.305091
H258	H	1.783018	-0.569932	0.805091
H259	H	1.218387	-1.069991	0.240345
H260	H	1.718387	-0.569991	0.740345
C261	C	0.432052	-0.156055	0.274855
C262	C	0.932052	0.343945	0.774855
H263	H	0.376975	-0.160179	0.282081
H264	H	0.876975	0.339821	0.782081
H265	H	0.445616	-0.125877	0.286516
H266	H	0.945616	0.374123	0.786516
H267	H	0.445555	-0.162595	0.221722
H268	H	0.945555	0.337405	0.721722
C269	C	1.248411	-0.156064	0.670728
C270	C	1.748411	0.343936	1.170728
H271	H	1.278547	-0.138949	0.707144
H272	H	1.778547	0.361051	1.207144
H273	H	1.282816	-0.173254	0.638510
H274	H	1.782816	0.326746	1.138510
H275	H	1.218186	-0.136489	0.638544
H276	H	1.718186	0.363511	1.138544
C277	C	0.985417	-0.305406	0.967809
C278	C	1.485417	0.194594	1.467809
H279	H	0.992685	-0.301287	1.022886
H280	H	1.492685	0.198713	1.522886
H281	H	0.932313	-0.298831	0.954290
H282	H	1.432313	0.201169	1.454290
H283	H	0.996946	-0.335595	0.954261
H284	H	1.496946	0.164405	1.454261
H285	H	0.841252	-0.164238	0.289237
H286	H	1.341252	0.335762	0.789237
H287	H	0.999826	-0.688406	0.522966
H288	H	1.499826	-0.188406	1.022966
H289	H	1.234062	-0.164225	1.079932
H290	H	1.734062	0.335775	1.579932
H291	H	1.284538	-0.688365	0.238680
H292	H	1.784538	-0.188365	0.738680
H293	H	1.234091	-0.959840	0.289218
H294	H	1.734091	-0.459840	0.789218
C295	C	1.036081	-0.953175	0.486917
C296	C	1.536081	-0.453175	0.986917
H297	H	1.005963	-0.973875	0.516987
H298	H	1.505963	-0.473875	1.016987
H299	H	1.066275	-0.934841	0.521389
H300	H	1.566275	-0.434841	1.021389
H301	H	1.001648	-0.934905	0.456640
H302	H	1.501648	-0.434905	0.956640
C303	C	1.036039	-0.276663	1.091651
C304	C	1.536039	0.223337	1.591651
H305	H	1.043298	-0.272545	1.146729
H306	H	1.543298	0.227455	1.646729
H307	H	0.982937	-0.270088	1.078124
H308	H	1.482937	0.229912	1.578124
H309	H	1.047569	-0.306852	1.078104
H310	H	1.547569	0.193148	1.578104
H311	H	1.050279	-0.472595	0.472414
H312	H	1.550279	0.027405	0.972414
H313	H	1.284611	-0.829124	0.238713
H314	H	1.784611	-0.329124	0.738713
H315	H	0.999905	-0.829161	0.522978
H316	H	1.499905	-0.329161	1.022978
C317	C	0.985397	-0.737356	0.537384
C318	C	1.485397	-0.237356	1.037384
H319	H	0.955281	-0.758056	0.567456
H320	H	1.455281	-0.258056	1.067456
H321	H	1.015589	-0.719020	0.571853
H322	H	1.515589	-0.219020	1.071853
H323	H	0.950962	-0.719088	0.507104
H324	H	1.450962	-0.219088	1.007104
