data_functionalizedCrystal
_audit_creation_method	'MofGen! by Chris Wilmer'
_symmetry_space_group_name_H-M	'P1'
_symmetry_Int_Tables_number	1
_symmetry_cell_setting	triclinic
loop_
_symmetry_equiv_pos_as_xyz
  x,y,z
_cell_length_a	10.654562
_cell_length_b	10.489716
_cell_length_c	9.130313
_cell_angle_alpha	90.002761
_cell_angle_beta	89.996930
_cell_angle_gamma	84.509620
loop_
_atom_site_label
_atom_site_type_symbol
_atom_site_fract_x
_atom_site_fract_y
_atom_site_fract_z
O1	O	1.667893	0.179235	-0.121881
O2	O	1.302423	0.196288	-0.121862
O3	O	1.493490	0.002158	-0.121877
O4	O	1.476826	0.373365	-0.121866
O5	O	1.493488	0.002163	0.121722
O6	O	1.302421	0.196293	0.121737
O7	O	1.667891	0.179241	0.121717
Cu8	Cu	1.485156	0.187767	0.143970
Cu9	Cu	1.485158	0.187761	-0.144114
O10	O	1.476824	0.373370	0.121733
C11	C	1.255624	0.195035	-0.000060
C12	C	1.116180	0.191279	-0.000053
C13	C	1.050647	0.189530	0.132721
C14	C	0.919624	0.186011	0.132696
C15	C	0.919676	0.185995	-0.132888
C16	C	1.050699	0.189505	-0.132862
C17	C	1.050615	0.189544	0.286054
C18	C	0.919592	0.186025	0.286030
C19	C	1.492237	-0.045371	-0.000082
C20	C	1.488491	-0.187000	-0.000095
C21	C	1.605659	-0.284725	-0.000088
C22	C	1.543746	-0.362061	-0.120188
C23	C	1.543717	-0.362020	0.119981
C24	C	1.426627	-0.262471	-0.120294
C25	C	1.426615	-0.262424	0.119983
C26	C	1.364615	-0.339711	-0.000146
C27	C	1.714690	0.180493	-0.000088
C28	C	1.854134	0.184250	-0.000104
C29	C	1.478077	0.420899	-0.000065
C30	C	1.481823	0.562529	-0.000062
N31	N	1.485163	0.187771	0.346592
N32	N	1.485161	0.187748	-0.346737
C33	C	1.569789	0.101840	0.423237
C34	C	1.569786	0.101825	0.576574
C35	C	1.400526	0.273683	0.576607
C36	C	1.400524	0.273691	0.423273
C37	C	1.667514	0.002622	0.423220
C38	C	1.667511	0.002607	0.576556
H39	H	1.080225	0.282577	0.333634
F40	F	0.880852	0.064531	0.348462
H41	H	0.873339	0.274183	0.344898
H42	H	1.707576	-0.260093	-0.000216
F43	F	1.310451	0.365119	0.658228
F44	F	1.608395	-0.418947	-0.252911
F45	F	1.111041	0.074325	0.363015
F46	F	1.310440	0.365134	0.341702
F47	F	1.362017	-0.205850	-0.253160
H48	H	1.758709	0.033694	0.375657
F49	F	1.627574	-0.118491	0.638710
H50	H	1.262622	-0.364097	-0.000206
F51	F	1.362040	-0.205486	0.252714
F52	F	1.608394	-0.418865	0.252694
H53	H	1.646034	-0.095424	0.381598
F54	F	0.849977	0.184095	-0.274225
F55	F	1.793668	0.031170	0.630954
H56	H	1.104053	0.190910	-0.240980
