data_functionalizedCrystal
_audit_creation_method	'MofGen! by Chris Wilmer'
_symmetry_space_group_name_H-M	'P1'
_symmetry_Int_Tables_number	1
_symmetry_cell_setting	triclinic
loop_
_symmetry_equiv_pos_as_xyz
  x,y,z
_cell_length_a	15.944493
_cell_length_b	15.021413
_cell_length_c	10.540510
_cell_angle_alpha	89.993466
_cell_angle_beta	83.994177
_cell_angle_gamma	90.006749
loop_
_atom_site_label
_atom_site_type_symbol
_atom_site_fract_x
_atom_site_fract_y
_atom_site_fract_z
O1	O	1.115521	0.074015	0.163347
O2	O	0.871085	0.074019	0.183608
O3	O	0.998893	0.074017	-0.011310
O4	O	0.987713	0.074018	0.358264
O5	O	0.998872	-0.074047	-0.011282
O6	O	0.871064	-0.074045	0.183636
O7	O	1.115501	-0.074049	0.163374
Zn8	Zn	0.993279	-0.097555	0.173509
Zn9	Zn	0.993306	0.097526	0.173473
O10	O	0.987693	-0.074047	0.358292
C11	C	0.839775	-0.000012	0.182794
C12	C	0.746511	-0.000011	0.180311
N13	N	0.993267	-0.230693	0.173534
C14	C	0.511427	-0.000010	0.295044
C15	C	0.460495	-0.073017	0.233186
C16	C	0.575763	-0.000013	0.175711
C17	C	0.460519	0.072962	0.233131
C18	C	0.410828	-0.000010	0.171276
C19	C	0.526059	-0.073080	0.113886
C20	C	0.526087	0.072965	0.113847
C21	C	0.475186	-0.000060	0.051903
C22	C	0.670778	-0.000015	0.178269
C23	C	0.315815	-0.000015	0.168708
C24	C	0.934159	-0.470375	0.263621
C25	C	1.010207	-0.529711	0.288241
C26	C	0.993289	-0.412300	0.173502
C27	C	0.917262	-0.529706	0.148911
C28	C	0.993302	-0.587724	0.173474
C29	C	1.069375	-0.470329	0.198179
C30	C	0.976379	-0.470319	0.058799
C31	C	1.052481	-0.529628	0.083370
C32	C	0.993279	-0.311243	0.173521
C33	C	0.993320	-0.688779	0.173454
C34	C	1.146811	-0.000015	0.164189
C35	C	1.240074	-0.000011	0.166671
C36	C	0.998049	-0.000013	-0.058588
C37	C	0.995557	-0.000008	-0.199503
N38	N	0.993325	0.230663	0.173438
C39	C	1.084345	-0.000349	-0.418195
C40	C	1.087003	-0.000010	-0.271637
C41	C	0.948757	0.084543	-0.243625
C42	C	0.946746	0.084609	-0.390358
C43	C	0.944818	-0.083768	-0.390109
C44	C	0.949156	-0.084881	-0.243828
C45	C	0.988536	-0.000014	0.405570
C46	C	0.991029	-0.000014	0.546485
H47	H	0.431845	-0.134738	0.283594
H48	H	0.554745	0.134689	0.063478
H49	H	0.882392	-0.089985	-0.193830
O50	O	0.959426	-0.439120	-0.056918
C51	C	1.008520	-0.352113	-0.242004
C52	C	1.027848	-0.387407	-0.110993
H53	H	1.063819	-0.310280	-0.285750
H54	H	0.998215	-0.410548	-0.307617
H55	H	0.949178	-0.309329	-0.229591
H56	H	1.087198	-0.430177	-0.123285
H57	H	1.038100	-0.328931	-0.045426
H58	H	1.123622	-0.060618	-0.242791
H59	H	0.431886	0.134676	0.283540
H60	H	0.978746	0.147811	-0.431031
O61	O	0.874658	-0.439368	0.354772
C62	C	0.825271	-0.434498	0.578677
C63	C	0.892716	-0.469657	0.475582
H64	H	0.839837	-0.458987	0.676372
H65	H	0.825414	-0.358609	0.577339
H66	H	0.760591	-0.459919	0.558622
H67	H	0.957430	-0.444301	0.495567
H68	H	0.892499	-0.545544	0.476944
O69	O	0.456124	0.000011	-0.070876
C70	C	0.469257	0.076296	-0.273102
C71	C	0.490915	0.076321	-0.134096
H72	H	0.497361	0.137995	-0.324249
H73	H	0.496482	0.014061	-0.323807
H74	H	0.397834	0.076838	-0.274131
H75	H	0.562326	0.075810	-0.132950
H76	H	0.463631	0.138551	-0.083449
H77	H	0.527657	-0.000078	0.397836
H78	H	0.878350	0.088441	-0.412401
H79	H	0.554582	-0.134863	0.063531
O80	O	0.862865	-0.084413	-0.415167
C81	C	0.716984	-0.082482	-0.328108
C82	C	0.809755	-0.081734	-0.299545
H83	H	0.674018	-0.080335	-0.234646
H84	H	0.704255	-0.021940	-0.388447
H85	H	0.704001	-0.145797	-0.382391
H86	H	0.822803	-0.018460	-0.245221
H87	H	0.822437	-0.142319	-0.239263
O88	O	1.027307	-0.560993	0.403850
C89	C	1.047117	-0.690153	0.532996
C90	C	1.027774	-0.654848	0.401997
H91	H	1.047483	-0.766038	0.531550
H92	H	1.111469	-0.664780	0.554733
H93	H	0.996653	-0.665766	0.609725
H94	H	1.078184	-0.679221	0.325185
H95	H	0.963397	-0.680214	0.380370
H96	H	0.852962	-0.555790	0.128124
H97	H	1.133690	-0.444357	0.219082
H98	H	1.119774	0.059943	-0.462206
H99	H	1.119963	-0.060984	-0.460635
O100	O	1.112314	-0.560438	-0.007434
C101	C	1.260026	-0.564931	-0.084120
C102	C	1.192353	-0.529994	0.018806
H103	H	1.324751	-0.540315	-0.062956
H104	H	1.259298	-0.640821	-0.084029
H105	H	1.246112	-0.539468	-0.181635
H106	H	1.206220	-0.555390	0.116372
H107	H	1.193097	-0.454104	0.018603
O108	O	1.130949	0.072485	-0.238575
C109	C	1.208457	0.203795	-0.311316
C110	C	1.158691	0.121736	-0.348929
H111	H	1.230916	0.243627	-0.400518
H112	H	1.166064	0.247321	-0.243113
H113	H	1.265288	0.181147	-0.262464
H114	H	1.101858	0.144304	-0.397831
H115	H	1.201141	0.078228	-0.417075
O116	O	0.868500	0.088347	-0.185765
C117	C	0.779195	0.096312	0.012987
C118	C	0.870127	0.092031	-0.052381
H119	H	0.780480	0.099273	0.120840
H120	H	0.746595	0.158271	-0.020529
H121	H	0.743186	0.034491	-0.012966
H122	H	0.906206	0.153807	-0.026458
H123	H	0.902662	0.030032	-0.018862
O124	O	0.987426	0.159701	-0.207428
C125	C	0.988596	0.320111	-0.206808
C126	C	0.944706	0.235071	-0.247848
H127	H	0.954087	0.381069	-0.239494
H128	H	0.987520	0.321238	-0.098504
H129	H	1.056722	0.320977	-0.252123
H130	H	0.876563	0.234148	-0.202622
H131	H	0.945850	0.233977	-0.356161
O132	O	0.979160	-0.160250	-0.441314
C133	C	0.956001	-0.295814	-0.554788
C134	C	0.916998	-0.209228	-0.496878
H135	H	0.905758	-0.335447	-0.599702
H136	H	1.009792	-0.278925	-0.630914
H137	H	0.981324	-0.337202	-0.476528
H138	H	0.891627	-0.167799	-0.575048
H139	H	0.863246	-0.226180	-0.420722
H140	H	0.983209	-0.147431	-0.215678
