data_functionalizedCrystal
_audit_creation_method	'MofGen! by Chris Wilmer'
_symmetry_space_group_name_H-M	'P1'
_symmetry_Int_Tables_number	1
_symmetry_cell_setting	triclinic
loop_
_symmetry_equiv_pos_as_xyz
  x,y,z
_cell_length_a	21.295412
_cell_length_b	16.120530
_cell_length_c	21.295417
_cell_angle_alpha	92.874222
_cell_angle_beta	89.968813
_cell_angle_gamma	92.913341
loop_
_atom_site_label
_atom_site_type_symbol
_atom_site_fract_x
_atom_site_fract_y
_atom_site_fract_z
Zn1	Zn	-0.404643	-1.274467	-0.299484
Zn2	Zn	-0.071310	-0.941134	0.033849
Zn3	Zn	0.262023	-0.607801	0.367182
Zn4	Zn	-0.299365	-1.274358	-0.404750
Zn5	Zn	0.033969	-0.941024	-0.071416
Zn6	Zn	0.367302	-0.607691	0.261917
Zn7	Zn	-0.294058	-1.135059	-0.294157
Zn8	Zn	0.039276	-0.801726	0.039176
Zn9	Zn	0.372609	-0.468393	0.372509
Zn10	Zn	-0.399268	-1.134999	-0.399372
Zn11	Zn	-0.065934	-0.801666	-0.066039
Zn12	Zn	0.267399	-0.468333	0.267294
O13	O	-0.349333	-1.204721	-0.349441
O14	O	-0.016000	-0.871388	-0.016108
O15	O	0.317333	-0.538054	0.317226
O16	O	-0.395148	-1.391117	-0.317928
O17	O	-0.061815	-1.057784	0.015406
O18	O	0.271518	-0.724451	0.348739
O19	O	-0.210570	-1.255859	-0.390100
O20	O	0.122763	-0.922526	-0.056767
O21	O	0.456096	-0.589192	0.276566
O22	O	-0.308756	-1.153623	-0.206777
O23	O	0.024577	-0.820290	0.126556
O24	O	0.357911	-0.486957	0.459889
O25	O	-0.317801	-1.391037	-0.395265
O26	O	0.015533	-1.057704	-0.061932
O27	O	0.348866	-0.724370	0.271401
O28	O	-0.390003	-1.256046	-0.210691
O29	O	-0.056669	-0.922712	0.122642
O30	O	0.276664	-0.589379	0.455976
O31	O	-0.206672	-1.153517	-0.308849
O32	O	0.126662	-0.820184	0.024485
O33	O	0.459995	-0.486850	0.357818
O34	O	-0.303543	-1.018387	-0.303635
O35	O	0.029790	-0.685053	0.029698
O36	O	0.363123	-0.351720	0.363032
O37	O	-0.488071	-1.153521	-0.386101
O38	O	-0.154738	-0.820187	-0.052768
O39	O	0.178596	-0.486854	0.280566
O40	O	-0.380841	-1.018342	-0.380936
O41	O	-0.047507	-0.685009	-0.047603
O42	O	0.285826	-0.351676	0.285731
O43	O	-0.492020	-1.255987	-0.312714
O44	O	-0.158687	-0.922654	0.020620
O45	O	0.174646	-0.589320	0.353953
O46	O	-0.312588	-1.255800	-0.492123
O47	O	0.020745	-0.922467	-0.158790
O48	O	0.354079	-0.589134	0.174544
O49	O	-0.385986	-1.153414	-0.488172
O50	O	-0.052653	-0.820081	-0.154839
O51	O	0.280680	-0.486748	0.178494
C52	C	-0.341033	-0.988115	-0.341124
C53	C	-0.007700	-0.654781	-0.007791
C54	C	0.325633	-0.321448	0.325542
C55	C	-0.337497	-0.895450	-0.337582
C56	C	-0.004164	-0.562116	-0.004248
C57	C	0.329169	-0.228783	0.329085
C58	C	-0.349294	-1.204612	-0.512988
C59	C	-0.015961	-0.871278	-0.179655
C60	C	0.317372	-0.537945	0.153678
C61	C	-0.349302	-1.204641	-0.582958
C62	C	-0.015968	-0.871308	-0.249624
C63	C	0.317365	-0.537974	0.083709
C64	C	-0.513525	-1.204759	-0.349402
C65	C	-0.180192	-0.871426	-0.016068
C66	C	0.153142	-0.538093	0.317265
C67	C	-0.583494	-1.204776	-0.349385
C68	C	-0.250161	-0.871442	-0.016052
C69	C	0.083173	-0.538109	0.317282
C70	C	-1.085013	-1.258209	-0.311076
C71	C	-0.751679	-0.924876	0.022258
C72	C	-0.418346	-0.591542	0.355591
C73	C	-1.019270	-1.258203	-0.311091
C74	C	-0.685936	-0.924869	0.022243
C75	C	-0.352603	-0.591536	0.355576
C76	C	-0.984336	-1.204848	-0.349305
C77	C	-0.651003	-0.871515	-0.015971
C78	C	-0.317670	-0.538181	0.317362
C79	C	-1.015151	-1.151511	-0.387519
C80	C	-0.681818	-0.818178	-0.054185
C81	C	-0.348485	-0.484844	0.279148
C82	C	-1.080893	-1.151525	-0.387507
C83	C	-0.747560	-0.818192	-0.054174
C84	C	-0.414227	-0.484858	0.279159
N85	N	-0.878316	-1.131846	-0.351350
N86	N	-0.544983	-0.798512	-0.018016
N87	N	-0.211650	-0.465179	0.315317
N88	N	-0.815864	-1.131835	-0.351357
N89	N	-0.482531	-0.798502	-0.018023
N90	N	-0.149198	-0.465168	0.315310
C91	C	-0.786260	-1.204804	-0.349342
C92	C	-0.452926	-0.871471	-0.016009
C93	C	-0.119593	-0.538137	0.317324
N94	N	-0.821466	-1.277786	-0.347308
N95	N	-0.488133	-0.944453	-0.013975
N96	N	-0.154800	-0.611120	0.319358
N97	N	-0.883924	-1.277796	-0.347298
N98	N	-0.550591	-0.944463	-0.013964
N99	N	-0.217257	-0.611129	0.319369
C100	C	-0.913050	-1.204827	-0.349322
C101	C	-0.579717	-0.871494	-0.015988
C102	C	-0.246383	-0.538161	0.317345
C103	C	-0.684167	-1.258135	-0.311150
C104	C	-0.350833	-0.924802	0.022183
C105	C	-0.017500	-0.591468	0.355516
C106	C	-0.618423	-1.258130	-0.311170
C107	C	-0.285089	-0.924797	0.022163
C108	C	0.048244	-0.591463	0.355497
C109	C	-0.614305	-1.151431	-0.387594
C110	C	-0.280972	-0.818097	-0.054261
C111	C	0.052361	-0.484764	0.279072
C112	C	-0.680048	-1.151443	-0.387578
C113	C	-0.346715	-0.818110	-0.054245
C114	C	-0.013382	-0.484777	0.279088
C115	C	-0.714975	-1.204794	-0.349353
C116	C	-0.381642	-0.871461	-0.016020
C117	C	-0.048308	-0.538128	0.317314
C118	C	-0.185782	-1.204731	-0.349436
C119	C	0.147551	-0.871397	-0.016103
C120	C	0.480885	-0.538064	0.317230
C121	C	-0.115820	-1.204876	-0.349282
C122	C	0.217513	-0.871542	-0.015949
C123	C	0.550847	-0.538209	0.317385
C124	C	-0.357666	-1.422173	-0.357791
C125	C	-0.024333	-1.088840	-0.024457
C126	C	0.309001	-0.755506	0.308876
C127	C	-0.361217	-1.514838	-0.361349
C128	C	-0.027884	-1.181505	-0.028015
C129	C	0.305450	-0.848171	0.305318
C130	C	-0.331047	-0.725790	-0.331099
C131	C	0.002286	-0.392456	0.002235
C132	C	0.335620	-0.059123	0.335568
C133	C	-0.367665	-0.684493	-0.367830
C134	C	-0.034332	-0.351159	-0.034496
C135	C	0.299001	-0.017826	0.298837
C136	C	-0.364076	-0.590088	-0.364222
C137	C	-0.030743	-0.256755	-0.030889
C138	C	0.302590	0.076579	0.302444
C139	C	-0.334635	-0.820203	-0.334705
C140	C	-0.001302	-0.486869	-0.001372
C141	C	0.332031	-0.153536	0.331962
C142	C	-0.311126	-1.258001	-0.617862
C143	C	0.022207	-0.924668	-0.284529
C144	C	0.355541	-0.591334	0.048804
C145	C	-0.311142	-1.258040	-0.683606
C146	C	0.022192	-0.924707	-0.350273
C147	C	0.355525	-0.591373	-0.016940
C148	C	-0.349326	-1.204704	-0.714443
C149	C	-0.015992	-0.871371	-0.381109
C150	C	0.317341	-0.538038	-0.047776
C151	C	-0.387509	-1.151341	-0.679530
C152	C	-0.054175	-0.818007	-0.346197
C153	C	0.279158	-0.484674	-0.012863
C154	C	-0.387497	-1.151309	-0.613787
C155	C	-0.054163	-0.817976	-0.280454
C156	C	0.279170	-0.484643	0.052879
N157	N	-0.351330	-1.131773	-0.814912
N158	N	-0.017997	-0.798440	-0.481579
N159	N	0.315337	-0.465107	-0.148246
N160	N	-0.351338	-1.131806	-0.877365
N161	N	-0.018004	-0.798472	-0.544032
N162	N	0.315329	-0.465139	-0.210698
C163	C	-0.349365	-1.204798	-0.912521
C164	C	-0.016032	-0.871464	-0.579187
C165	C	0.317301	-0.538131	-0.245854
N166	N	-0.347372	-1.277758	-0.882865
N167	N	-0.014039	-0.944425	-0.549531
N168	N	0.319294	-0.611091	-0.216198
N169	N	-0.347361	-1.277724	-0.820406
N170	N	-0.014028	-0.944391	-0.487073
N171	N	0.319305	-0.611058	-0.153740
C172	C	-0.349343	-1.204733	-0.785729
C173	C	-0.016010	-0.871400	-0.452396
C174	C	0.317323	-0.538066	-0.119062
C175	C	-0.311205	-1.258204	-1.018713
C176	C	0.022128	-0.924871	-0.685379
C177	C	0.355462	-0.591538	-0.352046
C178	C	-0.311225	-1.258245	-1.084458
C179	C	0.022108	-0.924912	-0.751125
C180	C	0.355442	-0.591578	-0.417791
C181	C	-0.387588	-1.151538	-1.080380
C182	C	-0.054255	-0.818205	-0.747047
C183	C	0.279078	-0.484872	-0.413713
C184	C	-0.387572	-1.151505	-1.014636
C185	C	-0.054239	-0.818172	-0.681303
C186	C	0.279095	-0.484839	-0.347970
C187	C	-0.349377	-1.204837	-0.983807
C188	C	-0.016043	-0.871504	-0.650473
C189	C	0.317290	-0.538171	-0.317140
C190	C	-0.349387	-1.204853	-0.185256
C191	C	-0.016054	-0.871520	0.148078
C192	C	0.317280	-0.538187	0.481411
C193	C	-0.349410	-1.204910	-0.115290
C194	C	-0.016077	-0.871576	0.218044
C195	C	0.317257	-0.538243	0.551377
H196	H	-1.113446	-1.301655	-0.279952
H197	H	-0.780113	-0.968322	0.053381
H198	H	-0.446780	-0.634989	0.386714
H199	H	-0.280106	-1.301633	-0.993610
H200	H	0.053227	-0.968300	-0.660277
H201	H	0.386561	-0.634967	-0.326944
H202	H	-0.418655	-1.108051	-0.986215
H203	H	-0.085322	-0.774718	-0.652882
H204	H	0.248011	-0.441384	-0.319548
C205	C	-0.269226	-1.316948	-1.122853
C206	C	0.064107	-0.983614	-0.789520
C207	C	0.397441	-0.650281	-0.456186
N208	N	-0.237590	-1.361162	-1.151773
N209	N	0.095743	-1.027828	-0.818439
N210	N	0.429076	-0.694495	-0.485106
H211	H	-0.994182	-1.301633	-0.279976
H212	H	-0.660848	-0.968299	0.053357
H213	H	-0.327515	-0.634966	0.386691
H214	H	-0.712606	-1.301576	-0.280025
H215	H	-0.379272	-0.968243	0.053309
H216	H	-0.045939	-0.634909	0.386642
H217	H	-0.401711	-0.720038	-0.401984
H218	H	-0.068378	-0.386704	-0.068651
H219	H	0.264955	-0.053371	0.264683
C220	C	-0.584535	-1.316802	-0.269136
C221	C	-0.251202	-0.983469	0.064197
C222	C	0.082132	-0.650135	0.397531
N223	N	-0.559010	-1.360993	-0.237474
N224	N	-0.225677	-1.027660	0.095860
N225	N	0.107656	-0.694326	0.429193
H226	H	-0.986704	-1.108071	-0.418634
H227	H	-0.653371	-0.774737	-0.085301
H228	H	-0.320038	-0.441404	0.248033
H229	H	-0.297004	-0.690247	-0.296947
H230	H	0.036329	-0.356914	0.036387
H231	H	0.369662	-0.023580	0.369720
H232	H	-1.105976	-1.108093	-0.418620
H233	H	-0.772643	-0.774760	-0.085287
H234	H	-0.439309	-0.441426	0.248046
C235	C	-0.575882	-1.092741	-0.429632
C236	C	-0.242549	-0.759408	-0.096298
C237	C	0.090784	-0.426074	0.237035
N238	N	-0.546939	-1.048535	-0.461296
N239	N	-0.213605	-0.715202	-0.127963
N240	N	0.119728	-0.381869	0.205371
H241	H	-0.705132	-1.108010	-0.418687
H242	H	-0.371798	-0.774677	-0.085354
H243	H	-0.038465	-0.441343	0.247979
C244	C	-0.269103	-1.316659	-0.583953
C245	C	0.064230	-0.983326	-0.250620
C246	C	0.397564	-0.649992	0.082714
N247	N	-0.237448	-1.360837	-0.558411
N248	N	0.095885	-1.027504	-0.225078
N249	N	0.429219	-0.694170	0.108255
C250	C	-0.269141	-1.316738	-0.722009
C251	C	0.064193	-0.983405	-0.388675
C252	C	0.397526	-0.650071	-0.055342
N253	N	-0.237504	-1.360947	-0.750931
N254	N	0.095830	-1.027614	-0.417598
N255	N	0.429163	-0.694281	-0.084265
C256	C	-0.429509	-1.092669	-0.713451
C257	C	-0.096176	-0.759335	-0.380118
C258	C	0.237158	-0.426002	-0.046784
N259	N	-0.461145	-1.048475	-0.739000
N260	N	-0.127812	-0.715142	-0.405667
N261	N	0.205521	-0.381809	-0.072334
C262	C	-0.429503	-1.092617	-0.575391
C263	C	-0.096170	-0.759284	-0.242058
C264	C	0.237164	-0.425950	0.091275
N265	N	-0.461145	-1.048412	-0.546471
N266	N	-0.127812	-0.715079	-0.213137
N267	N	0.205521	-0.381746	0.120196
H268	H	-0.418681	-1.108115	-1.105486
H269	H	-0.085348	-0.774782	-0.772153
H270	H	0.247985	-0.441448	-0.438820
