data_functionalizedCrystal
_audit_creation_method	'MofGen! by Chris Wilmer'
_symmetry_space_group_name_H-M	'P1'
_symmetry_Int_Tables_number	1
_symmetry_cell_setting	triclinic
loop_
_symmetry_equiv_pos_as_xyz
  x,y,z
_cell_length_a	12.759401
_cell_length_b	16.120484
_cell_length_c	12.759401
_cell_angle_alpha	87.114147
_cell_angle_beta	90.006940
_cell_angle_gamma	92.926992
loop_
_atom_site_label
_atom_site_type_symbol
_atom_site_fract_x
_atom_site_fract_y
_atom_site_fract_z
Zn1	Zn	1.584822	-0.332025	0.615194
Zn2	Zn	2.084822	0.167975	1.115194
Zn3	Zn	1.575814	-0.471408	0.448404
Zn4	Zn	2.075814	0.028592	0.948404
Zn5	Zn	1.409164	-0.332014	0.439529
Zn6	Zn	1.909164	0.167986	0.939529
Zn7	Zn	1.400171	-0.471405	0.624041
Zn8	Zn	1.900171	0.028595	1.124041
O9	O	1.492493	-0.401713	0.531792
O10	O	1.992493	0.098287	1.031792
O11	O	1.730648	-0.350520	0.593081
O12	O	2.230648	0.149480	1.093081
O13	O	1.553702	-0.452914	0.300205
O14	O	2.053702	0.047086	0.800205
O15	O	1.439999	-0.215348	0.455415
O16	O	1.939999	0.284652	0.955415
O17	O	1.724030	-0.452924	0.470541
O18	O	2.224030	0.047076	0.970541
O19	O	1.569054	-0.215355	0.584476
O20	O	2.069054	0.284645	1.084476
O21	O	1.431265	-0.350502	0.293685
O22	O	1.931265	0.149498	0.793685
O23	O	1.260951	-0.350499	0.463993
O24	O	1.760951	0.149501	0.963993
O25	O	1.424672	-0.452919	0.769888
O26	O	1.924672	0.047081	1.269888
O27	O	1.254343	-0.452908	0.599553
O28	O	1.754343	0.047092	1.099553
O29	O	1.560334	-0.350517	0.763389
O30	O	2.060334	0.149483	1.263389
O31	O	1.544982	-0.588075	0.479119
O32	O	2.044982	-0.088075	0.979119
O33	O	1.415937	-0.588073	0.608158
O34	O	1.915937	-0.088073	1.108158
C35	C	1.219526	-0.401703	0.531771
C36	C	1.719526	0.098297	1.031771
C37	C	1.102749	-0.401718	0.531788
C38	C	1.602749	0.098282	1.031788
C39	C	1.044469	-0.455124	0.602273
C40	C	1.544469	0.044876	1.102273
C41	C	0.934744	-0.455127	0.602294
C42	C	1.434744	0.044873	1.102294
C43	C	0.941590	-0.348317	0.461335
C44	C	1.441590	0.151683	0.961335
C45	C	1.051312	-0.348310	0.461320
C46	C	1.551312	0.151690	0.961320
C47	C	1.478535	-0.618325	0.545584
C48	C	1.978535	-0.118325	1.045584
C49	C	1.472660	-0.710992	0.551520
C50	C	1.972660	-0.210992	1.051520
C51	C	1.461939	-0.880657	0.562378
C52	C	1.961939	-0.380657	1.062378
C53	C	1.523235	-0.921928	0.501223
C54	C	2.023235	-0.421928	1.001223
C55	C	1.517270	-1.016336	0.507265
C56	C	2.017270	-0.516336	1.007265
C57	C	1.467903	-0.786241	0.556338
C58	C	1.967903	-0.286241	1.056338
C59	C	1.766525	-0.401724	0.531814
C60	C	2.266525	0.098276	1.031814
C61	C	1.883302	-0.401728	0.531824
C62	C	2.383302	0.098272	1.031824
C63	C	1.492504	-0.401718	0.805826
C64	C	1.992504	0.098282	1.305826
C65	C	1.492509	-0.401721	0.922602
C66	C	1.992509	0.098279	1.422602
C67	C	1.506534	-0.184255	0.517969
C68	C	2.006534	0.315745	1.017969
C69	C	1.512518	-0.091588	0.512078
C70	C	2.012518	0.408412	1.012078
C71	C	1.563139	-0.348409	0.974082
C72	C	2.063139	0.151591	1.474082
C73	C	1.563130	-0.348407	1.083806
C74	C	2.063130	0.151593	1.583806
C75	C	1.421857	-0.455037	1.090561
C76	C	1.921857	0.044963	1.590561
C77	C	1.421862	-0.455034	0.980839
C78	C	1.921862	0.044966	1.480839
C79	C	1.492480	-0.401726	1.258825
C80	C	1.992480	0.098274	1.758825
C81	C	1.492495	-0.401723	1.142049
C82	C	1.992495	0.098277	1.642049
H83	H	1.086345	-0.498611	0.659655
H84	H	1.586345	0.001389	1.159655
H85	H	0.887297	-0.498614	0.659692
H86	H	1.387297	0.001386	1.159692
H87	H	0.899697	-0.304835	0.403961
H88	H	1.399697	0.195165	0.903961
O89	O	1.598681	-0.874825	0.425851
O90	O	2.098681	-0.374825	0.925851
H91	H	1.591580	-0.806991	0.432866
H92	H	2.091580	-0.306991	0.932866
H93	H	1.098766	-0.304815	0.403922
H94	H	1.598766	0.195185	0.903922
O95	O	1.386476	-0.927760	0.637722
O96	O	1.886476	-0.427760	1.137722
H97	H	1.393565	-0.995593	0.630684
H98	H	1.893565	-0.495593	1.130684
O99	O	1.639325	-0.290904	0.911265
O100	O	2.139325	0.209096	1.411265
H101	H	1.688429	-0.253828	0.965500
H102	H	2.188429	0.246172	1.465500
H103	H	1.620643	-0.304994	1.125716
H104	H	2.120643	0.195006	1.625716
H105	H	1.364339	-0.498446	0.938923
H106	H	1.864339	0.001554	1.438923
O107	O	1.345663	-0.512539	1.153371
O108	O	1.845663	-0.012539	1.653371
H109	H	1.357529	-0.503590	1.238318
H110	H	1.857529	-0.003590	1.738318
