data_functionalizedCrystal
_audit_creation_method	'MofGen! by Chris Wilmer'
_symmetry_space_group_name_H-M	'P1'
_symmetry_Int_Tables_number	1
_symmetry_cell_setting	triclinic
loop_
_symmetry_equiv_pos_as_xyz
  x,y,z
_cell_length_a	10.723023
_cell_length_b	10.723022
_cell_length_c	9.798715
_cell_angle_alpha	89.998341
_cell_angle_beta	90.003871
_cell_angle_gamma	95.532613
loop_
_atom_site_label
_atom_site_type_symbol
_atom_site_fract_x
_atom_site_fract_y
_atom_site_fract_z
O1	O	-1.657188	0.175019	-0.113483
O2	O	-1.294035	0.191774	-0.113487
O3	O	-1.483989	0.001820	-0.113480
O4	O	-1.467234	0.364973	-0.113490
O5	O	-1.483973	0.001821	0.113502
O6	O	-1.294019	0.191774	0.113495
O7	O	-1.657172	0.175020	0.113499
Zn8	Zn	-1.475593	0.183397	0.149535
Zn9	Zn	-1.475614	0.183396	-0.149523
O10	O	-1.467218	0.364974	0.113492
C11	C	-1.247528	0.190555	0.000004
C12	C	-1.108973	0.186908	0.000003
C13	C	-1.482762	-0.044679	0.000009
C14	C	-1.479115	-0.183233	0.000005
C15	C	-1.703679	0.176239	0.000005
C16	C	-1.842234	0.179886	-0.000003
C17	C	-1.047210	0.185281	-0.117581
C18	C	-0.904007	0.181512	-0.117585
C19	C	-1.581632	-0.401412	-0.000001
C20	C	-1.585403	-0.258209	0.000004
C21	C	-1.468445	0.411473	-0.000001
C22	C	-1.472092	0.550027	-0.000005
N23	N	-1.475588	0.183397	0.353635
C24	C	-1.555540	0.103471	0.578570
C25	C	-1.555525	0.103470	0.421407
N26	N	-1.475619	0.183396	0.646377
H27	H	-1.100348	0.186686	-0.218246
H28	H	-1.623981	0.035047	0.636866
H29	H	-1.055833	0.185516	0.100668
H30	H	-1.407187	0.251829	0.588078
Cl31	Cl	-1.661165	-0.002189	0.331385
H32	H	-0.850892	0.180109	-0.218253
H33	H	-1.672620	-0.465855	0.000006
Cl34	Cl	-1.369931	0.289047	0.443649
Cl35	Cl	-0.924226	0.182035	0.155435
Cl36	Cl	-1.331604	-0.350488	0.000007
H37	H	-1.679191	-0.216397	-0.000043
Cl38	Cl	-1.334303	-0.247771	-0.000010
