data_functionalizedCrystal
_audit_creation_method	'MofGen! by Chris Wilmer'
_symmetry_space_group_name_H-M	'P1'
_symmetry_Int_Tables_number	1
_symmetry_cell_setting	triclinic
loop_
_symmetry_equiv_pos_as_xyz
  x,y,z
_cell_length_a	12.759401
_cell_length_b	13.897448
_cell_length_c	12.759393
_cell_angle_alpha	89.967638
_cell_angle_beta	89.982932
_cell_angle_gamma	90.017853
loop_
_atom_site_label
_atom_site_type_symbol
_atom_site_fract_x
_atom_site_fract_y
_atom_site_fract_z
Zn1	Zn	1.606219	-0.383963	-0.593968
Zn2	Zn	1.606108	-0.545290	-0.418283
Zn3	Zn	1.430525	-0.384011	-0.418308
Zn4	Zn	1.430500	-0.545218	-0.593924
O5	O	1.518338	-0.464621	-0.506121
O6	O	1.753225	-0.405374	-0.570671
O7	O	1.582781	-0.523946	-0.271265
O8	O	1.453888	-0.249023	-0.441638
O9	O	1.753144	-0.523900	-0.441596
O10	O	1.582969	-0.248988	-0.570695
O11	O	1.453781	-0.405455	-0.271283
O12	O	1.283501	-0.405386	-0.441596
O13	O	1.453845	-0.523778	-0.740951
O14	O	1.283482	-0.523824	-0.570621
O15	O	1.582945	-0.405304	-0.740984
O16	O	1.582757	-0.680262	-0.441554
O17	O	1.453738	-0.680210	-0.570597
C18	C	1.245371	-0.464603	-0.506107
C19	C	1.128594	-0.464619	-0.506125
C20	C	1.073750	-0.526388	-0.573198
C21	C	0.964026	-0.526400	-0.573209
C22	C	0.964000	-0.402871	-0.439067
C23	C	1.073722	-0.402854	-0.439062
C24	C	1.073764	-0.597710	-0.650640
C25	C	0.964040	-0.597722	-0.650652
C26	C	1.518261	-0.715235	-0.506090
C27	C	1.518325	-0.822449	-0.506113
C28	C	1.518435	-1.018744	-0.506178
C29	C	1.518371	-0.909511	-0.506145
C30	C	1.792371	-0.464639	-0.506136
C31	C	1.909148	-0.464647	-0.506142
C32	C	1.518405	-0.464528	-0.780154
C33	C	1.518433	-0.464488	-0.896931
C34	C	1.518444	-0.213028	-0.506174
C35	C	1.518489	-0.105814	-0.506197
C36	C	1.585654	-0.526120	-1.061505
C37	C	1.585614	-0.526161	-0.951780
C38	C	1.451279	-0.402777	-0.951812
C39	C	1.451314	-0.402742	-1.061534
C40	C	1.663214	-0.597352	-1.061486
C41	C	1.663175	-0.597393	-0.951761
C42	C	1.518332	-0.464644	-0.233154
C43	C	1.518507	-0.464412	-0.116377
H44	H	1.396626	-0.352503	-1.106207
H45	H	1.396573	-0.352568	-0.907145
H46	H	0.919309	-0.352584	-0.384467
N47	N	1.132873	-0.336230	-0.366720
H48	H	1.210709	-0.345589	-0.376891
H49	H	1.113711	-0.267363	-0.383212
N50	N	1.765626	-0.561912	-1.106584
H51	H	1.779022	-0.493891	-1.082179
H52	H	1.824491	-0.604986	-1.082133
N53	N	1.624526	-0.691397	-0.906628
H54	H	1.560449	-0.679242	-0.862071
H55	H	1.605932	-0.736762	-0.965575
N56	N	0.918997	-0.562415	-0.753113
H57	H	0.839939	-0.563714	-0.749378
H58	H	0.943513	-0.494414	-0.766562
N59	N	1.770952	-0.570916	-0.912306
H60	H	1.819074	-0.559064	-0.973841
H61	H	1.766208	-0.510684	-0.868310
H62	H	1.103572	-0.577789	-0.732048
H63	H	0.934241	-0.672410	-0.628717
N64	N	1.118829	-0.691651	-0.611843
H65	H	1.059900	-0.737055	-0.593104
H66	H	1.163422	-0.721342	-0.668672
N67	N	1.634318	-0.696284	-1.100927
H68	H	1.687038	-0.744778	-1.074553
H69	H	1.562198	-0.713979	-1.074560
