data_functionalizedCrystal
_audit_creation_method	'MofGen! by Chris Wilmer'
_symmetry_space_group_name_H-M	'P1'
_symmetry_Int_Tables_number	1
_symmetry_cell_setting	triclinic
loop_
_symmetry_equiv_pos_as_xyz
  x,y,z
_cell_length_a	18.050590
_cell_length_b	18.050589
_cell_length_c	12.759393
_cell_angle_alpha	89.970454
_cell_angle_beta	89.992932
_cell_angle_gamma	90.017386
loop_
_atom_site_label
_atom_site_type_symbol
_atom_site_fract_x
_atom_site_fract_y
_atom_site_fract_z
Zn1	Zn	1.135350	-0.295838	-0.593638
Zn2	Zn	1.135244	-0.420046	-0.417961
Zn3	Zn	1.011152	-0.295851	-0.418016
Zn4	Zn	1.011117	-0.419968	-0.593641
O5	O	1.073216	-0.357926	-0.505814
O6	O	1.239260	-0.312342	-0.570310
O7	O	1.118753	-0.403610	-0.270947
O8	O	1.027686	-0.191925	-0.441334
O9	O	1.239182	-0.403597	-0.441241
O10	O	1.118934	-0.191915	-0.570363
O11	O	1.027583	-0.312364	-0.270987
O12	O	0.907223	-0.312288	-0.441337
O13	O	1.027627	-0.403463	-0.740662
O14	O	0.907197	-0.403476	-0.570368
O15	O	1.118900	-0.312266	-0.740660
O16	O	1.118719	-0.523960	-0.441244
O17	O	1.027524	-0.523903	-0.570315
C18	C	0.880264	-0.357875	-0.505859
C19	C	0.797718	-0.357871	-0.505903
C20	C	0.598275	-0.407601	-0.575904
C21	C	0.548884	-0.339883	-0.601750
C22	C	0.646587	-0.357913	-0.505852
C23	C	0.548896	-0.425670	-0.480005
C24	C	0.500602	-0.357959	-0.505805
C25	C	0.598284	-0.290158	-0.531749
C26	C	0.598301	-0.375991	-0.409958
C27	C	0.548932	-0.308226	-0.435769
C28	C	0.730686	-0.357887	-0.505882
C29	C	0.416506	-0.357977	-0.505774
C30	C	1.073126	-0.550878	-0.505797
C31	C	1.073156	-0.633424	-0.505824
C32	C	1.023612	-0.832870	-0.575989
C33	C	1.005505	-0.882314	-0.480126
C34	C	1.073229	-0.784554	-0.505838
C35	C	1.091372	-0.882192	-0.601712
C36	C	1.073298	-0.930539	-0.505860
C37	C	1.055086	-0.832911	-0.409924
C38	C	1.140984	-0.832784	-0.531575
C39	C	1.122903	-0.882206	-0.435646
C40	C	1.073187	-0.700456	-0.505827
C41	C	1.073339	-1.014636	-0.505860
C42	C	1.266921	-0.357977	-0.505769
C43	C	1.349467	-0.357999	-0.505750
C44	C	1.073271	-0.357855	-0.779847
C45	C	1.073295	-0.357824	-0.896624
C46	C	1.073326	-0.164220	-0.505854
C47	C	1.073373	-0.081674	-0.505872
C48	C	1.120824	-0.310330	-0.951487
C49	C	1.120837	-0.310298	-1.061211
C50	C	1.025788	-0.405260	-1.061200
C51	C	1.025773	-0.405288	-0.951478
C52	C	1.073203	-0.357943	-0.232847
C53	C	1.073323	-0.357764	-0.116070
H54	H	0.981592	-0.811207	-0.635229
C55	C	1.178985	-0.910962	-0.356639
C56	C	1.232407	-0.953553	-0.408543
C57	C	1.284082	-0.980050	-0.335795
H58	H	1.154443	-0.940683	-0.305919
H59	H	1.202352	-0.870318	-0.322814
H60	H	1.209042	-0.994192	-0.442351
H61	H	1.256968	-0.923848	-0.459257
H62	H	1.307449	-0.939406	-0.301970
H63	H	1.259533	-1.009768	-0.285079
H64	H	1.320339	-1.008946	-0.371002
H65	H	0.987099	-0.443906	-1.105876
C66	C	0.519970	-0.319659	-0.709924
C67	C	0.544947	-0.371841	-0.782976
C68	C	0.518320	-0.353247	-0.882634
H69	H	0.537587	-0.271907	-0.728900
H70	H	0.467342	-0.319413	-0.709001
H71	H	0.597565	-0.372079	-0.783902
H72	H	0.527333	-0.419597	-0.764034
H73	H	0.465691	-0.353002	-0.881710
H74	H	0.535938	-0.305495	-0.901599
H75	H	0.535257	-0.388654	-0.932209
H76	H	0.620023	-0.391288	-0.328907
C77	C	1.172358	-0.258758	-1.120965
C78	C	1.162186	-0.268872	-1.228797
C79	C	1.209627	-0.221395	-1.283874
H80	H	1.222279	-0.269597	-1.103108
H81	H	1.161507	-0.208847	-1.103049
H82	H	1.173043	-0.318772	-1.246706
H83	H	1.112275	-0.258028	-1.246686
H84	H	1.198775	-0.171483	-1.265958
H85	H	1.259545	-0.232237	-1.266008
H86	H	1.202727	-0.228245	-1.357044
H87	H	0.527404	-0.266177	-0.376508
C88	C	0.627318	-0.463523	-0.654883
C89	C	0.704875	-0.463251	-0.653211
C90	C	0.731657	-0.514759	-0.725943
H91	H	0.610477	-0.450637	-0.723022
H92	H	0.609725	-0.511540	-0.637201
H93	H	0.722461	-0.415244	-0.670900
H94	H	0.721736	-0.476145	-0.585090
H95	H	0.714064	-0.562776	-0.708261
H96	H	0.714811	-0.501868	-0.794077
H97	H	0.784281	-0.514586	-0.724812
C98	C	0.627227	-0.213817	-0.561037
C99	C	0.704788	-0.214697	-0.560790
C100	C	0.731478	-0.144390	-0.587782
H101	H	0.610017	-0.178446	-0.511614
H102	H	0.609937	-0.200904	-0.628955
H103	H	0.722071	-0.227600	-0.492882
H104	H	0.722018	-0.250052	-0.610214
H105	H	0.714188	-0.131477	-0.655700
H106	H	0.714263	-0.109025	-0.538356
H107	H	0.784105	-0.144979	-0.587627
C108	C	0.520065	-0.502112	-0.451023
C109	C	0.545079	-0.553878	-0.524640
C110	C	0.518541	-0.624306	-0.497982
H111	H	0.467445	-0.501564	-0.450610
H112	H	0.537729	-0.515326	-0.383414
H113	H	0.527411	-0.540668	-0.592231
H114	H	0.597695	-0.554450	-0.525064
H115	H	0.536206	-0.637519	-0.430373
H116	H	0.465922	-0.623749	-0.497569
H117	H	0.535515	-0.659438	-0.547920
H118	H	1.106691	-0.903839	-0.682782
H119	H	0.948239	-0.904086	-0.458377
H120	H	1.039701	-0.811353	-0.328832
H121	H	1.159518	-0.271680	-0.906828
C122	C	0.974259	-0.456982	-0.891959
C123	C	0.990402	-0.530461	-0.918604
C124	C	0.942971	-0.578096	-0.863785
H125	H	0.924343	-0.446193	-0.909902
H126	H	0.981062	-0.450247	-0.818747
H127	H	0.983593	-0.537192	-0.991800
H128	H	1.040310	-0.541272	-0.900659
H129	H	0.949774	-0.571362	-0.790573
H130	H	0.893057	-0.567302	-0.881732
H131	H	0.953922	-0.627957	-0.881849
C132	C	1.217299	-0.803789	-0.560847
C133	C	1.235973	-0.828697	-0.661336
C134	C	1.306264	-0.801991	-0.688354
H135	H	1.252768	-0.821397	-0.511820
H136	H	1.216837	-0.751161	-0.560054
H137	H	1.236441	-0.881314	-0.662121
H138	H	1.200522	-0.811090	-0.710385
H139	H	1.305802	-0.749364	-0.687561
H140	H	1.341728	-0.819602	-0.639321
H141	H	1.318941	-0.818882	-0.756541
