data_functionalizedCrystal
_audit_creation_method	'MofGen! by Chris Wilmer'
_symmetry_space_group_name_H-M	'P1'
_symmetry_Int_Tables_number	1
_symmetry_cell_setting	triclinic
loop_
_symmetry_equiv_pos_as_xyz
  x,y,z
_cell_length_a	19.077115
_cell_length_b	16.120484
_cell_length_c	19.077174
_cell_angle_alpha	95.281307
_cell_angle_beta	85.484425
_cell_angle_gamma	90.738480
loop_
_atom_site_label
_atom_site_type_symbol
_atom_site_fract_x
_atom_site_fract_y
_atom_site_fract_z
Zn1	Zn	1.077026	-0.405078	-0.458484
Zn2	Zn	1.577026	0.094922	0.041516
Zn3	Zn	1.066712	-0.538657	-0.346088
Zn4	Zn	1.566712	-0.038657	0.153912
Zn5	Zn	0.954891	-0.393424	-0.335404
Zn6	Zn	1.454891	0.106576	0.164596
Zn7	Zn	0.953608	-0.538603	-0.459205
Zn8	Zn	1.453608	-0.038603	0.040795
O9	O	1.013059	-0.468940	-0.399795
O10	O	1.513059	0.031060	0.100205
O11	O	1.174106	-0.427697	-0.447744
O12	O	1.674106	0.072303	0.052256
O13	O	1.048099	-0.514537	-0.245821
O14	O	1.548099	-0.014537	0.254179
O15	O	0.975947	-0.278308	-0.346958
O16	O	1.475947	0.221692	0.153042
O17	O	1.166528	-0.525838	-0.365167
O18	O	1.666528	-0.025838	0.134833
O19	O	1.065679	-0.286870	-0.437384
O20	O	1.565679	0.213130	0.062616
O21	O	0.965945	-0.407835	-0.237972
O22	O	1.465945	0.092165	0.262028
O23	O	0.856273	-0.407782	-0.347657
O24	O	1.356273	0.092218	0.152343
O25	O	0.973759	-0.525745	-0.557959
O26	O	1.473759	-0.025745	-0.057959
O27	O	0.855330	-0.514445	-0.438613
O28	O	1.355330	-0.014445	0.061387
O29	O	1.064434	-0.427644	-0.557429
O30	O	1.564434	0.072356	-0.057429
O31	O	1.046854	-0.655312	-0.365866
O32	O	1.546854	-0.155312	0.134134
O33	O	0.963757	-0.655272	-0.448973
O34	O	1.463757	-0.155272	0.051027
C35	C	0.830275	-0.459843	-0.392054
C36	C	1.330275	0.040157	0.107946
C37	C	0.752079	-0.455972	-0.388760
C38	C	1.252079	0.044028	0.111240
C39	C	0.311970	-0.428174	-0.365139
C40	C	0.811970	0.071826	0.134861
C41	C	0.385443	-0.431816	-0.368238
C42	C	0.885443	0.068184	0.131762
C43	C	0.421699	-0.489254	-0.417074
C44	C	0.921699	0.010746	0.082926
C45	C	0.384477	-0.543049	-0.462819
C46	C	0.884477	-0.043049	0.037181
C47	C	0.311006	-0.539402	-0.459722
C48	C	0.811006	-0.039402	0.040278
C49	C	0.641385	-0.506120	-0.431408
C50	C	1.141385	-0.006120	0.068592
C51	C	0.714862	-0.509764	-0.434500
C52	C	1.214862	-0.009764	0.065500
C53	C	0.715823	-0.398530	-0.339920
C54	C	1.215823	0.101470	0.160080
C55	C	0.642350	-0.394892	-0.336825
C56	C	1.142350	0.105108	0.163175
C57	C	0.605135	-0.448683	-0.382572
C58	C	1.105135	0.051317	0.117428
N59	N	0.496801	-0.492980	-0.420242
N60	N	0.996801	0.007020	0.079758
N61	N	0.530035	-0.444953	-0.379407
N62	N	1.030035	0.055047	0.120593
C63	C	1.004067	-0.685543	-0.408673
C64	C	1.504067	-0.185543	0.091327
C65	C	1.000285	-0.778211	-0.412498
C66	C	1.500285	-0.278211	0.087502
C67	C	0.993385	-0.947876	-0.419495
C68	C	1.493385	-0.447876	0.080505
C69	C	1.032860	-0.989171	-0.380112
C70	C	1.532860	-0.489171	0.119888
C71	C	1.029021	-1.083579	-0.384006
C72	C	1.529021	-0.583579	0.115994
C73	C	0.997224	-0.853460	-0.415603
C74	C	1.497224	-0.353460	0.084397
C75	C	1.196557	-0.478074	-0.407567
C76	C	1.696557	0.021926	0.092433
C77	C	1.274753	-0.481966	-0.410879
C78	C	1.774753	0.018034	0.089121
C79	C	1.020104	-0.477989	-0.584041
C80	C	1.520104	0.022011	-0.084041
C81	C	1.023106	-0.481844	-0.662555
C82	C	1.523106	0.018156	-0.162555
C83	C	1.022107	-0.251494	-0.390899
C84	C	1.522107	0.248506	0.109101
C85	C	1.025962	-0.158831	-0.387107
C86	C	1.525962	0.341169	0.112893
C87	C	0.981745	-0.428103	-0.695354
C88	C	1.481745	0.071897	-0.195354
C89	C	0.984563	-0.431732	-0.769127
C90	C	1.484563	0.068268	-0.269127
C91	C	1.028746	-0.489100	-0.810100
C92	C	1.528746	0.010900	-0.310100
C93	C	1.070108	-0.542848	-0.777296
C94	C	1.570108	-0.042848	-0.277296
C95	C	1.067286	-0.539222	-0.703524
C96	C	1.567286	-0.039222	-0.203524
C97	C	1.041769	-0.505907	-1.031172
C98	C	1.541769	-0.005907	-0.531172
C99	C	1.044590	-0.509527	-1.104948
C100	C	1.544590	-0.009527	-0.604948
C101	C	0.959043	-0.398412	-1.096775
C102	C	1.459043	0.101588	-0.596775
C103	C	0.956228	-0.394788	-1.023002
C104	C	1.456228	0.105212	-0.523002
C105	C	0.997588	-0.448538	-0.990205
C106	C	1.497588	0.051462	-0.490205
N107	N	1.031629	-0.492810	-0.885508
N108	N	1.531629	0.007190	-0.385508
N109	N	0.994701	-0.444832	-0.914798
N110	N	1.494701	0.055168	-0.414798
C111	C	1.006085	-0.459869	-0.216266
C112	C	1.506085	0.040131	0.283734
C113	C	1.003229	-0.455785	-0.137747
C114	C	1.503229	0.044215	0.362253
H115	H	0.282456	-0.381402	-0.325371
H116	H	0.782456	0.118598	0.174629
H117	H	1.106079	-0.589562	-0.810662
H118	H	1.606079	-0.089562	-0.310662
H119	H	0.956710	-0.983424	-0.456132
H120	H	1.456710	-0.483424	0.043868
H121	H	0.611094	-0.549924	-0.468656
H122	H	1.111094	-0.049924	0.031344
H123	H	1.069537	-0.953621	-0.343471
H124	H	1.569537	-0.453621	0.156529
H125	H	0.945771	-0.381383	-0.661999
H126	H	1.445771	0.118617	-0.161999
H127	H	1.075439	-0.549683	-1.004478
H128	H	1.575439	-0.049683	-0.504478
H129	H	0.950880	-0.387973	-0.795829
H130	H	1.450880	0.112027	-0.295829
H131	H	0.920248	-0.348075	-0.989647
H132	H	1.420248	0.151925	-0.489647
H133	H	0.925370	-0.354652	-1.123486
H134	H	1.425370	0.145348	-0.623486
H135	H	1.080571	-0.556244	-1.138307
H136	H	1.580571	-0.056244	-0.638307
H137	H	1.100972	-0.582978	-0.676821
H138	H	1.600972	-0.082978	-0.176821
H139	H	0.414003	-0.589813	-0.502585
H140	H	0.914003	-0.089813	-0.002585
H141	H	0.415742	-0.388016	-0.330989
H142	H	0.915742	0.111984	0.169011
H143	H	0.746132	-0.354735	-0.302676
H144	H	1.246132	0.145265	0.197324
H145	H	0.612835	-0.348125	-0.297053
H146	H	1.112835	0.151875	0.202947
H147	H	0.744380	-0.556538	-0.474271
H148	H	1.244380	-0.056538	0.025729
H149	H	0.280705	-0.583203	-0.496970
H150	H	0.780705	-0.083203	0.003030
