data_functionalizedCrystal
_audit_creation_method	'MofGen! by Chris Wilmer'
_symmetry_space_group_name_H-M	'P1'
_symmetry_Int_Tables_number	1
_symmetry_cell_setting	triclinic
loop_
_symmetry_equiv_pos_as_xyz
  x,y,z
_cell_length_a	9.065218
_cell_length_b	17.038272
_cell_length_c	8.140239
_cell_angle_alpha	89.996147
_cell_angle_beta	89.997198
_cell_angle_gamma	88.063721
loop_
_atom_site_label
_atom_site_type_symbol
_atom_site_fract_x
_atom_site_fract_y
_atom_site_fract_z
O1	O	1.971908	0.114742	-0.136620
O2	O	1.543567	0.124153	-0.136623
O3	O	1.755192	0.005614	-0.136608
O4	O	1.760283	0.233281	-0.136634
O5	O	1.755179	0.005612	0.136619
O6	O	1.543555	0.124152	0.136605
O7	O	1.971895	0.114740	0.136607
Zn8	Zn	1.757723	0.119446	0.179986
Zn9	Zn	1.757740	0.119448	-0.180002
O10	O	1.760271	0.233280	0.136593
C11	C	1.488484	0.123248	-0.000009
C12	C	1.324369	0.120544	-0.000010
C13	C	1.750555	-0.023549	0.000005
C14	C	1.736739	-0.110441	0.000005
C15	C	1.863587	-0.159639	0.000007
C16	C	1.850596	-0.241284	-0.000009
C17	C	1.710756	-0.273728	-0.000015
C18	C	1.583899	-0.224524	-0.000022
C19	C	1.596891	-0.142881	-0.000019
C20	C	1.664859	-0.519818	-0.000038
C21	C	1.651876	-0.601467	-0.000037
C22	C	1.918575	-0.618221	-0.000026
C23	C	1.931554	-0.536576	-0.000012
C24	C	1.804697	-0.487379	-0.000028
C25	C	1.697475	-0.357182	-0.000026
C26	C	1.817980	-0.403927	-0.000029
C27	C	2.026979	0.115646	-0.000010
C28	C	2.191093	0.118350	-0.000020
C29	C	1.764908	0.262442	-0.000024
C30	C	1.778724	0.349335	-0.000034
N31	N	1.757722	0.119444	0.425669
N32	N	1.757751	0.119443	-0.425685
H33	H	1.953890	-0.281338	-0.000003
O34	O	1.953735	-0.372321	-0.000242
C35	C	2.123211	-0.289893	-0.141826
C36	C	1.969412	-0.325629	-0.141779
H37	H	2.135947	-0.252147	-0.256263
H38	H	2.135967	-0.252039	-0.027557
H39	H	2.211627	-0.339089	-0.141739
H40	H	1.880904	-0.276483	-0.141924
H41	H	1.956783	-0.363502	-0.256037
O42	O	1.473715	-0.095054	-0.000308
C43	C	1.333664	0.006888	-0.141818
C44	C	1.473206	-0.047242	-0.141704
H45	H	1.333221	0.045569	-0.256107
H46	H	1.231430	-0.030284	-0.141926
H47	H	1.333086	0.045491	-0.027422
H48	H	1.473928	-0.085856	-0.256080
H49	H	1.575377	-0.010024	-0.141509
H50	H	1.583616	-0.383607	-0.000027
H51	H	2.021854	-0.658286	-0.000016
O52	O	2.067360	-0.505021	0.000273
C53	C	2.236751	-0.422528	0.141774
C54	C	2.082922	-0.458229	0.141669
H55	H	2.249371	-0.384675	0.256063
H56	H	2.325256	-0.471681	0.141876
H57	H	2.249470	-0.384752	0.027378
H58	H	2.070059	-0.495997	0.256046
H59	H	1.994493	-0.409038	0.141482
H60	H	1.537996	-0.627879	-0.000015
O61	O	1.999397	-0.128090	0.000302
C62	C	2.168817	-0.045612	0.141799
C63	C	2.014977	-0.081300	0.141698
H64	H	2.181451	-0.007761	0.256088
H65	H	2.257308	-0.094772	0.141899
H66	H	2.181546	-0.007837	0.027403
H67	H	2.002104	-0.119067	0.256074
H68	H	1.926562	-0.032101	0.141513
O69	O	1.541523	-0.472117	-0.000253
C70	C	1.317588	-0.432790	-0.141841
C71	C	1.457196	-0.486871	-0.141788
H72	H	1.249387	-0.444688	-0.256276
H73	H	1.249176	-0.444730	-0.027570
H74	H	1.350909	-0.368869	-0.141761
H75	H	1.424007	-0.550812	-0.141925
H76	H	1.525574	-0.474865	-0.256048
H77	H	1.470038	-0.250946	-0.000038
