data_functionalizedCrystal
_audit_creation_method	'MofGen! by Chris Wilmer'
_symmetry_space_group_name_H-M	'P1'
_symmetry_Int_Tables_number	1
_symmetry_cell_setting	triclinic
loop_
_symmetry_equiv_pos_as_xyz
  x,y,z
_cell_length_a	17.077404
_cell_length_b	15.299816
_cell_length_c	17.077396
_cell_angle_alpha	99.656369
_cell_angle_beta	89.980499
_cell_angle_gamma	80.351064
loop_
_atom_site_label
_atom_site_type_symbol
_atom_site_fract_x
_atom_site_fract_y
_atom_site_fract_z
Zn1	Zn	1.254116	-0.359055	-0.497975
Zn2	Zn	1.587450	-0.025722	-0.164642
Zn3	Zn	1.920783	0.307611	0.168692
Zn4	Zn	1.276733	-0.509886	-0.389448
Zn5	Zn	1.610067	-0.176552	-0.056115
Zn6	Zn	1.943400	0.156781	0.277218
Zn7	Zn	1.122853	-0.359087	-0.366728
Zn8	Zn	1.456186	-0.025754	-0.033394
Zn9	Zn	1.789520	0.307580	0.299939
Zn10	Zn	1.145518	-0.509832	-0.520664
Zn11	Zn	1.478851	-0.176499	-0.187331
Zn12	Zn	1.812185	0.156835	0.146003
O13	O	1.199805	-0.434465	-0.443704
O14	O	1.533139	-0.101132	-0.110370
O15	O	1.866472	0.232202	0.222963
O16	O	1.366965	-0.379073	-0.483592
O17	O	1.700298	-0.045739	-0.150259
O18	O	2.033632	0.287594	0.183075
O19	O	1.256301	-0.489918	-0.276593
O20	O	1.589634	-0.156584	0.056740
O21	O	1.922967	0.176749	0.390074
O22	O	1.121315	-0.232873	-0.365134
O23	O	1.454648	0.100461	-0.031800
O24	O	1.787981	0.433794	0.301533
O25	O	1.383582	-0.489887	-0.403858
O26	O	1.716915	-0.156554	-0.070525
O27	O	2.050248	0.176780	0.262809
O28	O	1.217753	-0.232849	-0.461560
O29	O	1.551087	0.100484	-0.128227
O30	O	1.884420	0.433817	0.205106
O31	O	1.143245	-0.379126	-0.259900
O32	O	1.476579	-0.045793	0.073433
O33	O	1.809912	0.287540	0.406767
O34	O	1.016011	-0.379075	-0.387134
O35	O	1.349345	-0.045741	-0.053801
O36	O	1.682678	0.287592	0.279532
O37	O	1.159944	-0.489796	-0.627496
O38	O	1.493277	-0.156462	-0.294162
O39	O	1.826611	0.176871	0.039171
O40	O	1.032663	-0.489826	-0.500231
O41	O	1.365997	-0.156493	-0.166897
O42	O	1.699330	0.176840	0.166436
O43	O	1.239731	-0.379021	-0.610826
O44	O	1.573064	-0.045687	-0.277493
O45	O	1.906397	0.287646	0.055840
O46	O	1.278278	-0.636089	-0.425859
O47	O	1.611612	-0.302755	-0.092525
O48	O	1.944945	0.030578	0.240808
O49	O	1.181875	-0.636049	-0.522262
O50	O	1.515208	-0.302716	-0.188929
O51	O	1.848542	0.030617	0.144404
C52	C	0.995855	-0.434449	-0.443680
C53	C	1.329188	-0.101115	-0.110346
C54	C	1.662522	0.232218	0.222987
C55	C	0.908607	-0.434463	-0.443691
C56	C	1.241941	-0.101130	-0.110358
C57	C	1.575274	0.232203	0.222975
C58	C	0.876321	-0.492219	-0.502513
C59	C	1.209655	-0.158886	-0.169180
C60	C	1.542988	0.174448	0.164154
C61	C	0.794341	-0.492221	-0.502526
C62	C	1.127675	-0.158888	-0.169193
C63	C	1.461008	0.174446	0.164141
C64	C	0.744649	-0.434471	-0.443713
C65	C	1.077982	-0.101138	-0.110380
C66	C	1.411316	0.232195	0.222954
C67	C	0.776940	-0.376709	-0.384888
C68	C	1.110273	-0.043376	-0.051555
C69	C	1.443606	0.289957	0.281779
C70	C	0.858918	-0.376704	-0.384879
C71	C	1.192251	-0.043370	-0.051546
C72	C	1.525584	0.289963	0.281788
C73	C	0.606072	-0.376727	-0.384909
C74	C	0.939406	-0.043394	-0.051576
C75	C	1.272739	0.289939	0.281757
C76	C	0.524089	-0.376734	-0.384917
C77	C	0.857422	-0.043401	-0.051584
C78	C	1.190755	0.289933	0.281749
C79	C	0.541496	-0.492244	-0.502556
C80	C	0.874829	-0.158911	-0.169223
C81	C	1.208163	0.174422	0.164110
C82	C	0.623474	-0.492239	-0.502547
C83	C	0.956807	-0.158905	-0.169214
C84	C	1.290141	0.174428	0.164119
C85	C	0.655759	-0.434478	-0.443721
C86	C	0.989092	-0.101144	-0.110388
C87	C	1.322426	0.232189	0.222945
C88	C	1.235012	-0.668794	-0.479005
C89	C	1.568345	-0.335461	-0.145672
C90	C	1.901678	-0.002127	0.187662
C91	C	1.250145	-0.769041	-0.494133
C92	C	1.583478	-0.435708	-0.160800
C93	C	1.916811	-0.102374	0.172533
C94	C	1.092160	-1.051967	-0.335846
C95	C	1.425494	-0.718634	-0.002513
C96	C	1.758827	-0.385301	0.330821
C97	C	1.077938	-0.957780	-0.321634
C98	C	1.411271	-0.624447	0.011699
C99	C	1.744605	-0.291114	0.345033
C100	C	1.120989	-0.910591	-0.364757
C101	C	1.454322	-0.577258	-0.031424
C102	C	1.787655	-0.243924	0.301909
C103	C	1.178264	-0.957598	-0.422096
C104	C	1.511597	-0.624264	-0.088762
C105	C	1.844930	-0.290931	0.244571
C106	C	1.192483	-1.051794	-0.436313
C107	C	1.525817	-0.718461	-0.102980
C108	C	1.859150	-0.385127	0.230353
C109	C	1.221311	-0.910417	-0.465225
C110	C	1.554645	-0.577084	-0.131891
C111	C	1.887978	-0.243751	0.201442
C112	C	1.278587	-0.957424	-0.522563
C113	C	1.611920	-0.624091	-0.189230
C114	C	1.945253	-0.290757	0.144104
C115	C	1.292804	-1.051611	-0.536778
C116	C	1.626137	-0.718278	-0.203444
C117	C	1.959471	-0.384944	0.129889
C118	C	1.249753	-1.098801	-0.493654
C119	C	1.583087	-0.765467	-0.160321
C120	C	1.916420	-0.432134	0.173012
C121	C	1.207092	-0.816221	-0.451007
C122	C	1.540425	-0.482888	-0.117674
C123	C	1.873759	-0.149555	0.215660
C124	C	1.307415	-0.816048	-0.551474
C125	C	1.640748	-0.482714	-0.218141
C126	C	1.974082	-0.149381	0.115192
C127	C	1.321637	-0.910235	-0.565686
C128	C	1.654971	-0.576901	-0.232353
C129	C	1.988304	-0.243568	0.100980
C130	C	1.404552	-0.434482	-0.443729
C131	C	1.737885	-0.101149	-0.110395
C132	C	2.071219	0.232185	0.222938
C133	C	1.491803	-0.434489	-0.443739
C134	C	1.825136	-0.101156	-0.110406
C135	C	2.158470	0.232177	0.222928
C136	C	1.199843	-0.434399	-0.648438
C137	C	1.533176	-0.101065	-0.315105
C138	C	1.866509	0.232268	0.018229
C139	C	1.199859	-0.434370	-0.735684
C140	C	1.533192	-0.101037	-0.402350
C141	C	1.866525	0.232296	-0.069017
C142	C	1.164483	-0.199221	-0.408282
C143	C	1.497816	0.134112	-0.074948
C144	C	1.831149	0.467446	0.258385
C145	C	1.149430	-0.098974	-0.393187
C146	C	1.482764	0.234359	-0.059854
C147	C	1.816097	0.567693	0.273480
C148	C	1.241405	-0.376685	-0.767995
C149	C	1.574738	-0.043352	-0.434661
C150	C	1.908071	0.289982	-0.101328
C151	C	1.241410	-0.376655	-0.849971
C152	C	1.574743	-0.043322	-0.516637
C153	C	1.908076	0.290012	-0.183304
C154	C	1.199873	-0.434315	-0.899635
C155	C	1.533206	-0.100982	-0.566302
C156	C	1.866539	0.232351	-0.232968
C157	C	1.158322	-0.492003	-0.867319
C158	C	1.491655	-0.158670	-0.533985
C159	C	1.824988	0.174663	-0.200652
C160	C	1.158312	-0.492028	-0.785343
C161	C	1.491646	-0.158695	-0.452010
C162	C	1.824979	0.174639	-0.118677
C163	C	1.158345	-0.491949	-1.038181
C164	C	1.491678	-0.158616	-0.704847
C165	C	1.825012	0.174718	-0.371514
C166	C	1.158355	-0.491926	-1.120162
C167	C	1.491688	-0.158592	-0.786828
C168	C	1.825022	0.174741	-0.453495
C169	C	1.241442	-0.376576	-1.102808
C170	C	1.574776	-0.043243	-0.769474
C171	C	1.908109	0.290091	-0.436141
C172	C	1.241433	-0.376601	-1.020832
C173	C	1.574766	-0.043267	-0.687499
C174	C	1.908100	0.290066	-0.354166
C175	C	1.199883	-0.434290	-0.988522
C176	C	1.533216	-0.100957	-0.655189
C177	C	1.866550	0.232377	-0.321855
C178	C	1.199803	-0.434466	-0.239756
C179	C	1.533137	-0.101133	0.093577
C180	C	1.866470	0.232200	0.426911
C181	C	1.199901	-0.434240	-0.152473
C182	C	1.533234	-0.100907	0.180861
C183	C	1.866568	0.232426	0.514194
H184	H	0.632354	-0.329684	-0.337013
H185	H	0.965688	0.003649	-0.003679
H186	H	1.299021	0.336983	0.329654
H187	H	0.515205	-0.539273	-0.550457
H188	H	0.848539	-0.205939	-0.217123
H189	H	1.181872	0.127394	0.116210
H190	H	1.124498	-0.538948	-0.907762
H191	H	1.457831	-0.205615	-0.574428
H192	H	1.791165	0.127718	-0.241095
O193	O	1.113501	-0.554244	-0.750487
O194	O	1.446834	-0.220910	-0.417154
O195	O	1.780168	0.112423	-0.083821
H196	H	1.067496	-0.513872	-0.707061
H197	H	1.400830	-0.180539	-0.373728
H198	H	1.734163	0.152794	-0.040395
H199	H	1.275261	-0.329654	-0.980398
H200	H	1.608595	0.003680	-0.647065
H201	H	1.941928	0.337013	-0.313731
H202	H	1.031304	-0.919511	-0.274951
H203	H	1.364638	-0.586178	0.058383
H204	H	1.697971	-0.252844	0.391716
H205	H	0.483629	-0.329698	-0.337034
H206	H	0.816962	0.003635	-0.003701
H207	H	1.150296	0.336968	0.329632
H208	H	1.057111	-1.090398	-0.300745
H209	H	1.390445	-0.757064	0.032589
H210	H	1.723778	-0.423731	0.365922
H211	H	1.261333	-1.175495	-0.505220
H212	H	1.594666	-0.842162	-0.171887
H213	H	1.928000	-0.508829	0.161447
H214	H	1.368271	-0.948521	-0.612372
H215	H	1.701604	-0.615187	-0.279039
H216	H	2.034938	-0.281854	0.054295
O217	O	1.286248	-0.314344	-1.137652
O218	O	1.619581	0.018989	-0.804319
O219	O	1.952915	0.352323	-0.470986
H220	H	1.332244	-0.354701	-1.181095
H221	H	1.665577	-0.021368	-0.847761
H222	H	1.998911	0.311966	-0.514428
H223	H	0.916777	-0.539248	-0.550403
H224	H	1.250110	-0.205915	-0.217070
H225	H	1.583443	0.127418	0.116263
H226	H	0.768059	-0.539252	-0.550424
H227	H	1.101392	-0.205919	-0.217091
H228	H	1.434726	0.127415	0.116243
O229	O	1.353858	-0.765154	-0.597979
O230	O	1.687191	-0.431820	-0.264645
O231	O	2.020525	-0.098487	0.068688
H232	H	1.418193	-0.783191	-0.587289
H233	H	1.751527	-0.449857	-0.253956
H234	H	2.084860	-0.116524	0.079378
O235	O	0.677075	-0.554520	-0.565981
O236	O	1.010408	-0.221187	-0.232648
O237	O	1.343742	0.112146	0.100685
H238	H	0.640854	-0.594679	-0.606894
H239	H	0.974187	-0.261345	-0.273561
H240	H	1.307520	0.071988	0.059773
H241	H	0.736473	-0.329685	-0.337004
H242	H	1.069806	0.003648	-0.003671
H243	H	1.403140	0.336982	0.329663
O244	O	0.893747	-0.314411	-0.321436
O245	O	1.227080	0.018922	0.011897
O246	O	1.560413	0.352256	0.345230
H247	H	0.937142	-0.354718	-0.287516
H248	H	1.270475	-0.021384	0.045817
H249	H	1.603809	0.311949	0.379150
H250	H	1.160458	-0.777957	-0.404322
H251	H	1.493791	-0.444623	-0.070989
H252	H	1.827125	-0.111290	0.262345
H253	H	1.109406	-0.833900	-0.353182
H254	H	1.442739	-0.500566	-0.019848
H255	H	1.776073	-0.167233	0.313485
O256	O	1.354572	-1.102317	-0.598625
O257	O	1.687906	-0.768983	-0.265292
O258	O	2.021239	-0.435650	0.068042
H259	H	1.382124	-1.053682	-0.626220
H260	H	1.715458	-0.720349	-0.292886
H261	H	2.048791	-0.387016	0.040447
H262	H	1.275232	-0.329734	-0.727563
H263	H	1.608565	0.003600	-0.394230
H264	H	1.941899	0.336933	-0.060896
H265	H	1.124530	-0.538876	-1.160597
H266	H	1.457863	-0.205543	-0.827264
H267	H	1.791197	0.127791	-0.493930
H268	H	1.275243	-0.329684	-0.876274
H269	H	1.608576	0.003649	-0.542941
H270	H	1.941909	0.336983	-0.209607
O271	O	1.113525	-0.554163	-1.003326
O272	O	1.446859	-0.220830	-0.669992
O273	O	1.780192	0.112503	-0.336659
H274	H	1.084648	-0.594259	-1.051631
H275	H	1.417981	-0.260926	-0.718298
H276	H	1.751314	0.072407	-0.384965
