data_functionalizedCrystal
_audit_creation_method	'MofGen! by Chris Wilmer'
_symmetry_space_group_name_H-M	'P1'
_symmetry_Int_Tables_number	1
_symmetry_cell_setting	triclinic
loop_
_symmetry_equiv_pos_as_xyz
  x,y,z
_cell_length_a	12.827893
_cell_length_b	25.639240
_cell_length_c	12.827885
_cell_angle_alpha	89.956835
_cell_angle_beta	89.980538
_cell_angle_gamma	90.032728
loop_
_atom_site_label
_atom_site_type_symbol
_atom_site_fract_x
_atom_site_fract_y
_atom_site_fract_z
Zn1	Zn	1.597545	-0.208126	-0.590751
Zn2	Zn	1.597386	-0.295571	-0.415971
Zn3	Zn	1.422786	-0.208151	-0.416025
Zn4	Zn	1.422719	-0.295532	-0.590671
O5	O	1.510109	-0.251845	-0.503355
O6	O	1.743760	-0.219731	-0.567578
O7	O	1.574186	-0.284002	-0.269742
O8	O	1.446063	-0.134983	-0.439259
O9	O	1.743643	-0.283977	-0.439167
O10	O	1.574458	-0.134964	-0.567630
O11	O	1.445909	-0.219775	-0.269782
O12	O	1.276541	-0.219737	-0.439181
O13	O	1.445949	-0.283911	-0.736918
O14	O	1.276492	-0.283935	-0.567493
O15	O	1.574393	-0.219694	-0.736977
O16	O	1.574121	-0.368731	-0.439089
O17	O	1.445794	-0.368702	-0.567440
C18	C	1.238599	-0.251835	-0.503335
C19	C	1.122446	-0.251843	-0.503351
C20	C	1.070665	-0.283660	-0.566746
C21	C	0.950614	-0.283670	-0.566764
C22	C	1.509962	-0.387688	-0.503273
C23	C	1.509994	-0.445802	-0.503273
C24	C	1.576998	-0.806117	-0.570318
C25	C	1.577028	-0.860721	-0.570339
O26	O	1.633822	-0.888917	-0.627259
N27	N	1.510254	-0.888084	-0.503456
C28	C	1.443437	-0.860840	-0.436554
O29	O	1.386643	-0.889129	-0.379667
C30	C	1.443402	-0.806237	-0.436539
C31	C	1.510188	-0.778876	-0.503419
C32	C	1.643777	-0.778756	-0.637194
C33	C	1.643748	-0.724155	-0.637171
C34	C	1.576938	-0.696915	-0.570272
C35	C	1.510158	-0.724276	-0.503396
C36	C	1.376581	-0.778994	-0.369643
C37	C	1.376551	-0.724387	-0.369634
C38	C	1.443337	-0.697027	-0.436515
C39	C	1.443319	-0.642435	-0.436475
N40	N	1.510093	-0.615072	-0.503358
C41	C	1.576903	-0.642312	-0.570257
C42	C	1.443515	-0.975511	-0.436592
C43	C	1.443555	-1.030113	-0.436601
C44	C	1.577145	-1.029990	-0.570388
C45	C	1.577110	-0.975387	-0.570373
C46	C	1.510290	-0.948148	-0.503476
C47	C	1.576836	-0.527647	-0.570203
C48	C	1.576803	-0.473042	-0.570171
C49	C	1.443210	-0.473170	-0.436389
C50	C	1.443246	-0.527770	-0.436416
C51	C	1.510063	-0.555008	-0.503332
O52	O	1.386552	-0.614205	-0.379587
O53	O	1.633678	-0.614017	-0.627144
C54	C	1.782679	-0.251856	-0.503375
C55	C	1.898832	-0.251860	-0.503384
C56	C	1.510181	-0.251795	-0.775925
C57	C	1.510212	-0.251773	-0.892078
C58	C	1.510286	-0.115472	-0.503460
C59	C	1.510361	-0.057358	-0.503504
C60	C	1.446756	-0.219986	-0.943883
C61	C	1.446787	-0.219963	-1.063933
C62	C	1.510098	-0.251857	-0.231845
C63	C	1.510269	-0.251731	-0.115692
H64	H	1.631192	-0.450766	-0.624633
H65	H	0.943357	-0.224621	-0.449103
H66	H	1.392465	-0.192746	-1.108484
H67	H	1.115209	-0.310891	-0.621010
H68	H	1.392403	-0.192790	-0.899357
H69	H	1.077902	-0.224608	-0.449094
H70	H	1.564560	-0.278972	-0.936603
H71	H	0.906083	-0.310911	-0.621035
C72	C	1.649489	-0.557119	-0.642897
C73	C	1.707974	-0.521462	-0.701436
C74	C	1.774923	-0.548592	-0.768400
H75	H	1.609619	-0.578416	-0.688500
H76	H	1.695118	-0.578409	-0.603003
H77	H	1.662351	-0.500181	-0.741327
H78	H	1.747866	-0.500165	-0.655861
H79	H	1.820551	-0.569883	-0.728506
H80	H	1.735044	-0.569888	-0.813995
H81	H	1.814619	-0.524403	-0.808119
C82	C	1.371143	-0.945873	-0.363883
C83	C	1.430325	-0.914520	-0.296960
C84	C	1.363691	-0.887208	-0.229978
H85	H	1.331361	-0.969933	-0.323956
H86	H	1.325585	-0.924544	-0.403776
H87	H	1.475865	-0.935847	-0.257071
H88	H	1.470105	-0.890450	-0.336858
H89	H	1.318133	-0.865879	-0.269870
H90	H	1.323913	-0.911272	-0.190058
H91	H	1.403836	-0.865928	-0.184569
C92	C	1.716293	-0.694549	-0.709906
C93	C	1.774780	-0.730100	-0.768510
C94	C	1.841611	-0.702850	-0.835540
H95	H	1.761934	-0.673244	-0.670089
H96	H	1.676306	-0.673257	-0.755457
H97	H	1.814765	-0.751383	-0.722965
H98	H	1.729167	-0.751406	-0.808348
H99	H	1.801624	-0.681558	-0.881090
H100	H	1.887245	-0.681546	-0.795715
H101	H	1.881296	-0.726968	-0.875317
H102	H	1.322197	-0.801262	-0.315182
H103	H	1.698182	-0.800929	-0.691677
C104	C	1.582827	-0.288044	-1.056494
C105	C	1.641416	-0.317340	-1.127519
C106	C	1.708275	-0.350792	-1.073016
H107	H	1.542888	-0.310858	-1.013890
H108	H	1.628395	-0.268047	-1.013956
H109	H	1.595854	-0.337336	-1.170039
H110	H	1.681376	-0.294540	-1.170125
H111	H	1.753843	-0.330795	-1.030478
H112	H	1.668327	-0.373602	-1.030414
H113	H	1.748042	-0.370669	-1.121198
C114	C	1.649650	-0.945778	-0.643110
C115	C	1.708144	-0.981327	-0.701713
C116	C	1.774969	-0.954074	-0.768745
H117	H	1.695287	-0.924470	-0.603295
H118	H	1.609658	-0.924488	-0.688661
H119	H	1.748134	-1.002608	-0.656167
H120	H	1.662535	-1.002636	-0.741549
H121	H	1.734976	-0.932785	-0.814296
H122	H	1.820598	-0.932767	-0.728921
H123	H	1.814658	-0.978190	-0.808521
H124	H	1.631543	-1.052179	-0.624863
H125	H	1.389182	-1.052385	-0.382130
C126	C	1.304042	-0.694720	-0.297111
C127	C	1.318282	-0.641043	-0.311418
C128	C	1.251499	-0.613699	-0.244637
H129	H	1.319310	-0.703634	-0.226872
H130	H	1.233804	-0.703662	-0.312361
H131	H	1.388505	-0.632104	-0.296160
H132	H	1.303007	-0.632114	-0.381643
H133	H	1.181261	-0.622642	-0.259887
H134	H	1.266773	-0.622617	-0.174402
H135	H	1.261145	-0.577277	-0.254341
H136	H	1.388872	-0.550048	-0.381949
C137	C	1.370713	-0.443494	-0.363876
C138	C	1.384967	-0.389820	-0.378202
C139	C	1.318185	-0.362465	-0.311437
H140	H	1.385974	-0.452402	-0.293632
H141	H	1.300474	-0.452434	-0.379127
H142	H	1.455190	-0.380883	-0.362943
H143	H	1.369698	-0.380896	-0.448432
H144	H	1.247946	-0.371405	-0.326689
H145	H	1.333452	-0.371377	-0.241198
H146	H	1.327840	-0.326045	-0.321155
