data_functionalizedCrystal
_audit_creation_method	'MofGen! by Chris Wilmer'
_symmetry_space_group_name_H-M	'P1'
_symmetry_Int_Tables_number	1
_symmetry_cell_setting	triclinic
loop_
_symmetry_equiv_pos_as_xyz
  x,y,z
_cell_length_a	27.731988
_cell_length_b	27.732048
_cell_length_c	22.010155
_cell_angle_alpha	89.999275
_cell_angle_beta	89.997158
_cell_angle_gamma	82.630513
loop_
_atom_site_label
_atom_site_type_symbol
_atom_site_fract_x
_atom_site_fract_y
_atom_site_fract_z
O1	O	-0.640950	-0.057373	0.050453
O2	O	-0.140950	0.442627	0.550453
O3	O	-0.500152	-0.066149	0.050472
O4	O	-0.000152	0.433851	0.550472
O5	O	-0.574924	0.008637	0.050450
O6	O	-0.074924	0.508637	0.550450
O7	O	-0.566178	-0.132159	0.050474
O8	O	-0.066178	0.367841	0.550474
O9	O	-0.574910	0.008625	-0.050600
O10	O	-0.074910	0.508625	0.449400
O11	O	-0.500138	-0.066160	-0.050578
O12	O	-0.000138	0.433840	0.449422
O13	O	-0.640936	-0.057385	-0.050598
O14	O	-0.140936	0.442615	0.449402
Cu15	Cu	-0.570536	-0.061773	-0.059815
Cu16	Cu	-0.070536	0.438227	0.440185
Cu17	Cu	-0.570552	-0.061760	0.059689
Cu18	Cu	-0.070552	0.438240	0.559689
O19	O	-0.566164	-0.132170	-0.050576
O20	O	-0.066164	0.367830	0.449424
C21	C	-0.482138	-0.065975	-0.000051
C22	C	0.017862	0.434025	0.499949
C23	C	-0.428481	-0.065433	-0.000044
C24	C	0.071519	0.434567	0.499956
C25	C	-0.574733	0.026638	-0.000077
C26	C	-0.074733	0.526638	0.499923
C27	C	-0.574181	0.080293	-0.000082
C28	C	-0.074181	0.580293	0.499918
C29	C	-0.095755	-0.062030	-0.055154
C30	C	0.404245	0.437970	0.444846
C31	C	0.105904	-0.059972	-0.055164
C32	C	0.605904	0.440028	0.444836
O33	O	0.131983	-0.059691	-0.102010
O34	O	0.631983	0.440309	0.397990
N35	N	0.131112	-0.059711	-0.000082
N36	N	0.631112	0.440289	0.499918
C37	C	0.105901	-0.059960	0.055007
C38	C	0.605901	0.440040	0.555007
O39	O	0.131968	-0.059686	0.101857
O40	O	0.631968	0.440314	0.601857
C41	C	-0.095757	-0.062015	0.055016
C42	C	0.404243	0.437985	0.555016
C43	C	-0.120962	-0.062281	-0.000070
C44	C	0.379038	0.437719	0.499930
C45	C	-0.120959	-0.062296	-0.110236
C46	C	0.379041	0.437704	0.389764
C47	C	-0.171370	-0.062813	-0.110233
C48	C	0.328630	0.437187	0.389767
C49	C	-0.196577	-0.063064	-0.055148
C50	C	0.303423	0.436936	0.444852
C51	C	-0.171373	-0.062798	-0.000067
C52	C	0.328627	0.437202	0.499933
C53	C	-0.120968	-0.062261	0.110103
C54	C	0.379032	0.437739	0.610103
C55	C	-0.171386	-0.062773	0.110101
C56	C	0.328614	0.437227	0.610101
C57	C	-0.196590	-0.063040	0.055015
C58	C	0.303410	0.436960	0.555015
C59	C	-0.246991	-0.063566	0.055020
C60	C	0.253009	0.436434	0.555020
N61	N	-0.272199	-0.063828	-0.000062
N62	N	0.227801	0.436172	0.499938
C63	C	-0.246992	-0.063577	-0.055146
C64	C	0.253008	0.436423	0.444854
C65	C	0.211774	-0.058883	0.054998
C66	C	0.711774	0.441117	0.554998
C67	C	0.262189	-0.058370	0.054996
C68	C	0.762189	0.441630	0.554996
C69	C	0.262189	-0.058381	-0.055175
C70	C	0.762189	0.441619	0.444825
C71	C	0.211774	-0.058897	-0.055172
C72	C	0.711774	0.441103	0.444828
C73	C	0.186567	-0.059144	-0.000084
C74	C	0.686567	0.440856	0.499916
C75	C	-0.352859	-0.064663	-0.055136
C76	C	0.147141	0.435337	0.444864
C77	C	-0.403274	-0.065182	-0.055128
C78	C	0.096726	0.434818	0.444872
C79	C	-0.403270	-0.065169	0.055042
C80	C	0.096730	0.434831	0.555042
C81	C	-0.352859	-0.064652	0.055035
C82	C	0.147141	0.435348	0.555035
C83	C	-0.327654	-0.064398	-0.000059
C84	C	0.172346	0.435602	0.499941
O85	O	-0.273102	-0.063843	0.101841
O86	O	0.226898	0.436157	0.601841
O87	O	-0.273069	-0.063841	-0.101990
O88	O	0.226931	0.436159	0.398010
C89	C	-0.045343	-0.061513	-0.055157
C90	C	0.454657	0.438487	0.444843
C91	C	-0.020139	-0.061247	-0.000076
C92	C	0.479861	0.438753	0.499924
C93	C	-0.045346	-0.061498	0.055008
C94	C	0.454654	0.438502	0.555008
C95	C	0.030275	-0.060734	-0.000078
C96	C	0.530275	0.439266	0.499922
C97	C	0.055482	-0.060483	-0.055162
C98	C	0.555482	0.439517	0.444838
C99	C	0.030275	-0.060745	-0.110245
C100	C	0.530275	0.439255	0.389755
C101	C	-0.020136	-0.061262	-0.110242
C102	C	0.479864	0.438738	0.389758
C103	C	-0.020138	-0.061236	0.110090
C104	C	0.479862	0.438764	0.610090
C105	C	0.030273	-0.060720	0.110083
C106	C	0.530273	0.439280	0.610083
C107	C	0.055480	-0.060469	0.054999
C108	C	0.555480	0.439531	0.554999
C109	C	0.341050	-0.057563	-0.000077
C110	C	0.841050	0.442437	0.499923
C111	C	0.287396	-0.058119	-0.000088
C112	C	0.787396	0.441881	0.499912
C113	C	-0.566355	-0.150171	-0.000048
C114	C	-0.066355	0.349829	0.499952
C115	C	-0.566908	-0.203826	-0.000039
C116	C	-0.066908	0.296174	0.499961
N117	N	-0.570528	-0.061782	-0.143867
N118	N	-0.070528	0.438218	0.356133
C119	C	-0.614886	0.419116	-0.000056
C120	C	-0.114886	0.919116	0.499944
C121	C	-0.612834	0.620776	-0.000047
C122	C	-0.112834	1.120776	0.499953
O123	O	-0.650056	0.652039	-0.000026
O124	O	-0.150056	1.152039	0.499974
N125	N	-0.568498	0.639890	-0.000042
N126	N	-0.068498	1.139890	0.499958
C127	C	-0.524671	0.608586	-0.000034
C128	C	-0.024671	1.108586	0.499966
O129	O	-0.486913	0.629471	-0.000023
O130	O	0.013087	1.129471	0.499977
C131	C	-0.526723	0.406928	-0.000039
C132	C	-0.026723	0.906928	0.499961
C133	C	-0.571062	0.387816	-0.000050
C134	C	-0.071062	0.887816	0.499950
C135	C	-0.659221	0.400005	-0.000067
C136	C	-0.159221	0.900005	0.499933
C137	C	-0.659734	0.349593	-0.000073
C138	C	-0.159734	0.849593	0.499927
C139	C	-0.615910	0.318293	-0.000067
C140	C	-0.115910	0.818293	0.499933
C141	C	-0.571574	0.337405	-0.000056
C142	C	-0.071574	0.837405	0.499944
C143	C	-0.482896	0.375625	-0.000027
C144	C	0.017104	0.875625	0.499973
C145	C	-0.483413	0.325207	-0.000027
C146	C	0.016587	0.825207	0.499973
C147	C	-0.527752	0.306096	-0.000038
C148	C	-0.027752	0.806096	0.499962
C149	C	-0.528263	0.255693	-0.000056
C150	C	-0.028263	0.755693	0.499944
N151	N	-0.572600	0.236578	-0.000061
N152	N	-0.072600	0.736578	0.499939
C153	C	-0.616423	0.267878	-0.000067
C154	C	-0.116423	0.767878	0.499933
C155	C	-0.523597	0.714460	-0.000033
C156	C	-0.023597	1.214460	0.499967
C157	C	-0.523084	0.764874	-0.000033
C158	C	-0.023084	1.264874	0.499967
C159	C	-0.611248	0.777060	-0.000045
C160	C	-0.111248	1.277060	0.499955
C161	C	-0.611760	0.726645	-0.000049
C162	C	-0.111760	1.226645	0.499951
C163	C	-0.567934	0.695345	-0.000039
C164	C	-0.067934	1.195345	0.499961
C165	C	-0.617496	0.162009	-0.000079
C166	C	-0.117496	0.662009	0.499921
C167	C	-0.618004	0.111593	-0.000087
C168	C	-0.118004	0.611593	0.499913
C169	C	-0.529841	0.099411	-0.000072
C170	C	-0.029841	0.599411	0.499928
C171	C	-0.529332	0.149823	-0.000067
C172	C	-0.029332	0.649823	0.499933
C173	C	-0.573163	0.181122	-0.000069
C174	C	-0.073163	0.681122	0.499931
O175	O	-0.491061	0.224401	-0.000071
O176	O	0.008939	0.724401	0.499929
O177	O	-0.654176	0.246984	-0.000065
O178	O	-0.154176	0.746984	0.499935
C179	C	-0.614373	0.469528	-0.000051
C180	C	-0.114373	0.969528	0.499949
C181	C	-0.570037	0.488640	-0.000039
C182	C	-0.070037	0.988640	0.499961
C183	C	-0.526214	0.457340	-0.000034
C184	C	-0.026214	0.957340	0.499966
C185	C	-0.569524	0.539054	-0.000039
C186	C	-0.069524	1.039054	0.499961
C187	C	-0.613348	0.570354	-0.000045
C188	C	-0.113348	1.070354	0.499955
C189	C	-0.657684	0.551240	-0.000051
C190	C	-0.157684	1.051240	0.499949
C191	C	-0.658197	0.500828	-0.000056
C192	C	-0.158197	1.000828	0.499944
C193	C	-0.481877	0.476454	-0.000028
C194	C	0.018123	0.976454	0.499972
C195	C	-0.481369	0.526867	-0.000024
C196	C	0.018631	1.026867	0.499976
C197	C	-0.525192	0.558167	-0.000029
C198	C	-0.025192	1.058167	0.499971
C199	C	-0.603663	-0.028650	-0.563656
C200	C	-0.103663	0.471350	-0.063656
C201	C	-0.603665	-0.028646	-0.627264
C202	C	-0.103665	0.471354	-0.127264
O203	O	-0.631818	-0.000482	-0.660164
O204	O	-0.131818	0.499518	-0.160164
N205	N	-0.570552	-0.061750	-0.659074
N206	N	-0.070552	0.438250	-0.159074
C207	C	-0.537431	-0.094856	-0.627274
C208	C	-0.037431	0.405144	-0.127274
O209	O	-0.509265	-0.123012	-0.660172
O210	O	-0.009265	0.376988	-0.160172
C211	C	-0.537427	-0.094856	-0.563667
C212	C	-0.037427	0.405144	-0.063667
C213	C	-0.570545	-0.061754	-0.531860
C214	C	-0.070545	0.438246	-0.031860
C215	C	-0.636778	0.004450	-0.531849
C216	C	-0.136778	0.504450	-0.031849
C217	C	-0.636777	0.004446	-0.468246
C218	C	-0.136777	0.504446	0.031754
C219	C	-0.603659	-0.028658	-0.436450
C220	C	-0.103659	0.471342	0.063550
C221	C	-0.570544	-0.061758	-0.468257
C222	C	-0.070544	0.438242	0.031743
C223	C	-0.504304	-0.127959	-0.531868
C224	C	-0.004304	0.372041	-0.031868
C225	C	-0.504302	-0.127957	-0.468257
C226	C	-0.004302	0.372043	0.031743
C227	C	-0.537421	-0.094855	-0.436450
C228	C	-0.037421	0.405145	0.063550
C229	C	-0.537424	-0.094866	-0.372858
C230	C	-0.037424	0.405134	0.127142
N231	N	-0.570538	-0.061763	-0.341047
N232	N	-0.070538	0.438237	0.158953
C233	C	-0.603655	-0.028658	-0.372843
C234	C	-0.103655	0.471342	0.127157
C235	C	-0.537442	-0.094851	-0.760852
C236	C	-0.037442	0.405149	-0.260852
C237	C	-0.537448	-0.094853	-0.824457
C238	C	-0.037448	0.405147	-0.324457
C239	C	-0.603681	-0.028643	-0.824443
C240	C	-0.103681	0.471357	-0.324443
C241	C	-0.603677	-0.028644	-0.760836
C242	C	-0.103677	0.471356	-0.260836
C243	C	-0.570555	-0.061748	-0.729041
C244	C	-0.070555	0.438252	-0.229041
C245	C	-0.603649	-0.028670	-0.239272
C246	C	-0.103649	0.471330	0.260728
C247	C	-0.603646	-0.028678	-0.175663
C248	C	-0.103646	0.471322	0.324337
C249	C	-0.537411	-0.094886	-0.175683
C250	C	-0.037411	0.405114	0.324317
C251	C	-0.537415	-0.094880	-0.239286
C252	C	-0.037415	0.405120	0.260714
C253	C	-0.570537	-0.061768	-0.271079
C254	C	-0.070537	0.438232	0.228921
O255	O	-0.509285	-0.123015	-0.339918
O256	O	-0.009285	0.376985	0.160082
O257	O	-0.631812	-0.000502	-0.339938
O258	O	-0.131812	0.499498	0.160062
N259	N	-0.570564	-0.061747	0.143742
N260	N	-0.070564	0.438253	0.643742
H261	H	-0.332343	-0.064461	-0.099999
H262	H	0.167657	0.435539	0.400001
H263	H	-0.510452	-0.121840	-0.265184
H264	H	-0.010452	0.378160	0.234816
N265	N	-0.478822	0.682498	-0.000023
N266	N	0.021178	1.182498	0.499977
N267	N	-0.439242	0.699577	-0.000019
N268	N	0.060758	1.199577	0.499981
H269	H	-0.407619	0.677007	-0.000014
H270	H	0.092381	1.177007	0.499986
N271	N	-0.470478	-0.161770	-0.564360
N272	N	0.029522	0.338230	-0.064360
N273	N	-0.485582	-0.191670	-0.599853
N274	N	0.014418	0.308330	-0.099853
H275	H	-0.461690	-0.215549	-0.622801
H276	H	0.038310	0.284451	-0.122801
H277	H	-0.191887	-0.063027	-0.155089
H278	H	0.308113	0.436973	0.344911
N279	N	-0.477797	0.784400	-0.000022
N280	N	0.022203	1.284400	0.499978
N281	N	-0.477339	0.829413	-0.000019
N282	N	0.022661	1.329413	0.499981
H283	H	-0.445353	0.843203	-0.000007
H284	H	0.054647	1.343203	0.499993
N285	N	-0.637504	0.005178	-0.728357
N286	N	-0.137504	0.505178	-0.228357
N287	N	-0.667403	-0.009923	-0.692858
N288	N	-0.167403	0.490077	-0.192858
H289	H	-0.691294	0.013970	-0.669927
H290	H	-0.191294	0.513970	-0.169927
H291	H	-0.510448	-0.121841	-0.149785
H292	H	-0.010448	0.378159	0.350215
N293	N	-0.470469	-0.161781	-0.435790
N294	N	0.029531	0.338219	0.064210
N295	N	-0.470795	-0.206457	-0.442902
N296	N	0.029205	0.293543	0.057098
H297	H	-0.446901	-0.230346	-0.419974
H298	H	0.053099	0.269654	0.080026
H299	H	-0.510484	-0.121813	-0.850350
H300	H	-0.010484	0.378187	-0.350350
H301	H	-0.654112	0.096035	-0.000098
H302	H	-0.154112	0.596035	0.499902
N303	N	0.186028	-0.059142	0.111271
N304	N	0.686028	0.440858	0.611271
N305	N	0.162607	-0.093511	0.123575
N306	N	0.662607	0.406489	0.623575
H307	H	0.144424	-0.093694	0.163317
H308	H	0.644424	0.406306	0.663317
N309	N	-0.485083	0.067427	-0.000072
N310	N	0.014917	0.567427	0.499928
N311	N	-0.485552	0.022416	-0.000075
N312	N	0.014448	0.522416	0.499925
H313	H	-0.453941	-0.000175	-0.000071
H314	H	0.046059	0.499825	0.499929
H315	H	-0.040657	-0.061439	0.154947
H316	H	0.459343	0.438561	0.654947
H317	H	-0.423793	-0.065401	-0.099988
H318	H	0.076207	0.434599	0.400012
N319	N	-0.429033	-0.065421	0.111300
N320	N	0.070967	0.434579	0.611300
N321	N	-0.461882	-0.031620	0.123575
N322	N	0.038118	0.468380	0.623575
H323	H	-0.480081	-0.031796	0.163307
H324	H	0.019919	0.468204	0.663307
H325	H	-0.510471	-0.121812	-0.734967
H326	H	-0.010471	0.378188	-0.234967
N327	N	-0.662263	0.193982	-0.000079
N328	N	-0.162263	0.693982	0.499921
N329	N	-0.671825	0.223473	0.042515
N330	N	-0.171825	0.723473	0.542515
H331	H	-0.703442	0.246054	0.042512
H332	H	-0.203442	0.746054	0.542512
H333	H	-0.663743	0.031402	-0.442352
H334	H	-0.163743	0.531402	0.057648
N335	N	-0.656009	0.809044	-0.000055
N336	N	-0.156009	1.309044	0.499945
N337	N	-0.655538	0.854055	-0.000056
N338	N	-0.155538	1.354055	0.499944
H339	H	-0.687149	0.876646	-0.000061
H340	H	-0.187149	1.376646	0.499939
H341	H	-0.100455	-0.062043	0.154960
H342	H	0.399545	0.437957	0.654960
N343	N	-0.705030	0.330083	-0.000082
N344	N	-0.205030	0.830083	0.499918
N345	N	-0.744151	0.358043	-0.000085
N346	N	-0.244151	0.858043	0.499915
H347	H	-0.776144	0.344268	-0.000089
H348	H	-0.276144	0.844268	0.499911
N349	N	-0.327103	-0.064388	0.111298
N350	N	0.172897	0.435612	0.611298
N351	N	-0.294254	-0.098182	0.123595
N352	N	0.205746	0.401818	0.623595
H353	H	-0.276067	-0.097993	0.163332
H354	H	0.223933	0.402007	0.663332
H355	H	-0.191906	-0.062974	0.154961
H356	H	0.308094	0.437026	0.654961
N357	N	-0.437106	0.444493	-0.000021
N358	N	0.062894	0.944493	0.499979
N359	N	-0.397526	0.461571	-0.000015
N360	N	0.102474	0.961571	0.499985
H361	H	-0.365903	0.439000	-0.000013
H362	H	0.134097	0.939000	0.499987
N363	N	-0.095224	-0.062037	-0.166513
N364	N	0.404776	0.437963	0.333487
N365	N	-0.117743	-0.062273	-0.215684
N366	N	0.382257	0.437727	0.284316
H367	H	-0.099571	-0.062092	-0.255434
H368	H	0.400429	0.437908	0.244566
H369	H	0.191256	-0.059115	-0.100028
H370	H	0.691256	0.440885	0.399972
N371	N	0.056037	-0.060494	-0.166507
N372	N	0.556037	0.439506	0.333493
N373	N	0.101049	-0.060035	-0.166493
N374	N	0.601049	0.439965	0.333507
H375	H	0.119246	-0.059856	-0.206226
H376	H	0.619246	0.440144	0.293774
N377	N	-0.484043	0.169351	-0.000078
N378	N	0.015957	0.669351	0.499922
N379	N	-0.454583	0.159645	-0.042675
N380	N	0.045417	0.659645	0.457325
H381	H	-0.422598	0.173435	-0.042681
H382	H	0.077402	0.673435	0.457319
N383	N	-0.670611	0.038274	-0.564312
N384	N	-0.170611	0.538274	-0.064312
N385	N	-0.700172	0.067823	-0.535893
N386	N	-0.200172	0.567823	-0.035893
H387	H	-0.724071	0.091712	-0.558816
H388	H	-0.224071	0.591712	-0.058816
N389	N	-0.045870	-0.061536	-0.166516
N390	N	0.454130	0.438464	0.333484
N391	N	-0.023350	-0.061313	-0.215690
N392	N	0.476650	0.438687	0.284310
H393	H	-0.041521	-0.061506	-0.255438
H394	H	0.458479	0.438494	0.244562
H395	H	-0.630647	-0.001687	-0.850342
H396	H	-0.130647	0.498313	-0.350342
H397	H	0.050790	-0.060507	0.154944
H398	H	0.550790	0.439493	0.654944
H399	H	-0.694302	0.485273	-0.000065
H400	H	-0.194302	0.985273	0.499935
H401	H	-0.694910	0.425485	-0.000069
H402	H	-0.194910	0.925485	0.499931
N403	N	0.287950	-0.058130	-0.111438
N404	N	0.787950	0.441870	0.388562
N405	N	0.332963	-0.057674	-0.111424
N406	N	0.832963	0.442326	0.388576
H407	H	0.351159	-0.057495	-0.151157
H408	H	0.851159	0.442505	0.348843
H409	H	0.282707	-0.058161	0.099852
H410	H	0.782707	0.441839	0.599852
N411	N	-0.657056	0.707134	-0.000064
N412	N	-0.157056	1.207134	0.499936
N413	N	-0.696178	0.735091	-0.000074
N414	N	-0.196178	1.235091	0.499926
H415	H	-0.728170	0.721315	-0.000084
H416	H	-0.228170	1.221315	0.499916
H417	H	-0.446790	0.391176	-0.000014
H418	H	0.053210	0.891176	0.499986
N419	N	-0.637475	0.005153	-0.271750
N420	N	-0.137475	0.505153	0.228250
N421	N	-0.622370	0.035056	-0.307241
N422	N	-0.122370	0.535056	0.192759
H423	H	-0.646261	0.058942	-0.330179
H424	H	-0.146261	0.558942	0.169821
N425	N	-0.438644	0.293235	-0.000003
N426	N	0.061356	0.793235	0.499997
N427	N	-0.409082	0.294785	0.042602
N428	N	0.090918	0.794785	0.542602
H429	H	-0.377465	0.272205	0.042620
H430	H	0.122535	0.772205	0.542620
N431	N	-0.702445	0.583225	-0.000063
N432	N	-0.202445	1.083225	0.499937
N433	N	-0.701974	0.628235	-0.000060
N434	N	-0.201974	1.128235	0.499940
H435	H	-0.733584	0.650827	-0.000067
H436	H	-0.233584	1.150827	0.499933
H437	H	-0.445260	0.542422	-0.000019
H438	H	0.054740	1.042422	0.499981
N439	N	-0.637476	0.005145	-0.143183
N440	N	-0.137476	0.505145	0.356817
N441	N	-0.667037	0.034704	-0.171585
N442	N	-0.167037	0.534704	0.328415
H443	H	-0.690926	0.058594	-0.148649
H444	H	-0.190926	0.558594	0.351351
