data_functionalizedCrystal
_audit_creation_method	'MofGen! by Chris Wilmer'
_symmetry_space_group_name_H-M	'P1'
_symmetry_Int_Tables_number	1
_symmetry_cell_setting	triclinic
loop_
_symmetry_equiv_pos_as_xyz
  x,y,z
_cell_length_a	14.971486
_cell_length_b	15.944551
_cell_length_c	14.048226
_cell_angle_alpha	89.998721
_cell_angle_beta	90.000107
_cell_angle_gamma	96.443567
loop_
_atom_site_label
_atom_site_type_symbol
_atom_site_fract_x
_atom_site_fract_y
_atom_site_fract_z
O1	O	1.186827	-0.109460	-0.079041
O2	O	1.686827	0.390540	0.420959
O3	O	0.926413	-0.122568	-0.079065
O4	O	1.426413	0.377432	0.420935
O5	O	1.063731	0.006254	-0.079058
O6	O	1.563731	0.506254	0.420942
O7	O	1.049509	-0.238282	-0.079048
O8	O	1.549509	0.261718	0.420952
O9	O	1.063718	0.006255	0.079264
O10	O	1.563718	0.506255	0.579264
O11	O	0.926400	-0.122567	0.079256
O12	O	1.426400	0.377433	0.579256
O13	O	1.186814	-0.109459	0.079281
O14	O	1.686814	0.390541	0.579281
Zn15	Zn	1.056605	-0.116013	0.104405
Zn16	Zn	1.556605	0.383987	0.604405
Zn17	Zn	1.056622	-0.116014	-0.104190
Zn18	Zn	1.556622	0.383986	0.395810
O19	O	1.049496	-0.238281	0.079273
O20	O	1.549496	0.261719	0.579273
C21	C	0.893082	-0.121982	0.000092
C22	C	1.393082	0.378018	0.500092
C23	C	0.793787	-0.120225	0.000082
C24	C	1.293787	0.379775	0.500082
C25	C	0.736480	-0.195904	0.000087
C26	C	1.236480	0.304096	0.500087
C27	C	0.643182	-0.194249	0.000101
C28	C	1.143182	0.305751	0.500101
C29	C	0.607194	-0.116913	0.000104
C30	C	1.107194	0.383087	0.500104
C31	C	0.664508	-0.041227	0.000102
C32	C	1.164508	0.458773	0.500102
C33	C	0.757804	-0.042884	0.000095
C34	C	1.257804	0.457116	0.500095
C35	C	0.470049	-0.037780	0.000115
C36	C	0.970049	0.462220	0.500115
C37	C	0.376747	-0.036123	0.000121
C38	C	0.876747	0.463877	0.500121
C39	C	0.355428	-0.189145	0.000121
C40	C	0.855428	0.310855	0.500121
C41	C	0.448724	-0.190801	0.000114
C42	C	0.948724	0.309199	0.500114
C43	C	0.506032	-0.115116	0.000110
C44	C	1.006032	0.384884	0.500110
C45	C	1.050093	-0.269576	0.000114
C46	C	1.550093	0.230424	0.500114
C47	C	1.051863	-0.362824	0.000118
C48	C	1.551863	0.137176	0.500118
C49	C	1.141210	-0.577766	0.000112
C50	C	1.641210	-0.077766	0.500112
C51	C	1.099714	-0.638742	0.078170
C52	C	1.599714	-0.138742	0.578170
C53	C	1.055065	-0.533553	0.000110
C54	C	1.555065	-0.033553	0.500110
C55	C	1.099706	-0.638729	-0.077922
C56	C	1.599706	-0.138729	0.422078
C57	C	1.058165	-0.698469	0.000098
C58	C	1.558165	-0.198469	0.500098
C59	C	1.013545	-0.593301	0.078232
C60	C	1.513545	-0.093301	0.578232
C61	C	1.013550	-0.593281	-0.077930
C62	C	1.513550	-0.093281	0.422070
C63	C	0.971991	-0.654240	0.000146
C64	C	1.471991	-0.154240	0.500146
C65	C	1.053282	-0.438549	0.000118
C66	C	1.553282	0.061451	0.500118
C67	C	1.059941	-0.793471	0.000097
C68	C	1.559941	-0.293471	0.500097
C69	C	1.220145	-0.110046	0.000121
C70	C	1.720145	0.389954	0.500121
C71	C	1.319440	-0.111802	0.000125
C72	C	1.819440	0.388198	0.500125
C73	C	1.063134	0.037549	0.000099
C74	C	1.563134	0.537549	0.500099
C75	C	1.061364	0.130797	0.000089
C76	C	1.561364	0.630797	0.500089
N77	N	1.056600	-0.116011	0.246766
N78	N	1.556600	0.383989	0.746766
N79	N	1.056634	-0.116009	-0.246550
N80	N	1.556634	0.383991	0.253450
C81	C	1.110847	-0.167042	0.296588
C82	C	1.610847	0.332958	0.796588
C83	C	1.110859	-0.167038	0.396245
C84	C	1.610859	0.332962	0.896245
C85	C	1.056617	-0.116008	0.446080
C86	C	1.556617	0.383992	0.946080
C87	C	1.002368	-0.064972	0.396251
C88	C	1.502368	0.435028	0.896251
C89	C	1.002362	-0.064971	0.296595
C90	C	1.502362	0.435029	0.796595
C91	C	1.002382	-0.064977	0.603965
C92	C	1.502382	0.435023	1.103965
C93	C	1.002387	-0.064979	0.703628
C94	C	1.502387	0.435021	1.203628
C95	C	1.110879	-0.167044	0.703615
C96	C	1.610879	0.332956	1.203615
C97	C	1.110873	-0.167044	0.603959
C98	C	1.610873	0.332956	1.103959
C99	C	1.056622	-0.116009	0.554138
C100	C	1.556622	0.383991	1.054138
H101	H	0.635199	0.021741	0.000118
H102	H	1.135199	0.521741	0.500118
H103	H	0.958218	-0.023426	0.744201
H104	H	1.458218	0.476574	1.244201
O105	O	1.163644	-0.216637	0.555696
O106	O	1.663644	0.283363	1.055696
C107	C	1.211514	-0.261697	0.621037
C108	C	1.711514	0.238303	1.121037
H109	H	1.216742	-0.226937	0.692076
H110	H	1.716742	0.273063	1.192076
H111	H	1.281842	-0.267016	0.592233
H112	H	1.781842	0.232984	1.092233
H113	H	1.174668	-0.327574	0.631636
H114	H	1.674668	0.172426	1.131636
H115	H	1.155011	-0.208602	0.256020
H116	H	1.655011	0.291398	0.756020
H117	H	0.958207	-0.023418	0.563404
H118	H	1.458207	0.476582	1.063404
O119	O	0.970134	-0.569358	-0.156738
O120	O	1.470134	-0.069358	0.343262
C121	C	0.942013	-0.641022	-0.212468
C122	C	1.442013	-0.141022	0.287532
H123	H	0.985529	-0.693340	-0.195435
H124	H	1.485529	-0.193340	0.304565
H125	H	0.949038	-0.623936	-0.291117
H126	H	1.449038	-0.123936	0.208883
H127	H	0.868733	-0.663740	-0.195918
H128	H	1.368733	-0.163740	0.304082
O129	O	0.813347	0.030709	0.000043
O130	O	1.313347	0.530709	0.500043
C131	C	0.761579	0.099324	0.000069
C132	C	1.261579	0.599324	0.500069
H133	H	0.691947	0.078076	-0.029899
H134	H	1.191947	0.578076	0.470101
H135	H	0.795990	0.152356	-0.045900
H136	H	1.295990	0.652356	0.454100
H137	H	0.754941	0.123026	0.076023
H138	H	1.254941	0.623026	0.576023
H139	H	1.212715	-0.544528	0.000196
H140	H	1.712715	-0.044528	0.500196
H141	H	0.958208	-0.023418	0.436834
H142	H	1.458208	0.476582	0.936834
H143	H	1.136144	-0.658883	0.144169
H144	H	1.636144	-0.158883	0.644169
O145	O	0.970162	-0.569270	0.157017
O146	O	1.470162	-0.069270	0.657017
C147	C	0.969031	-0.480971	0.156078
C148	C	1.469031	0.019029	0.656078
H149	H	1.026456	-0.450829	0.109826
H150	H	1.526456	0.049171	0.609826
H151	H	0.977474	-0.455527	0.231765
H152	H	1.477474	0.044473	0.731765
H153	H	0.902250	-0.465157	0.125886
H154	H	1.402250	0.034843	0.625886
H155	H	1.136164	-0.658853	-0.143910
H156	H	1.636164	-0.158853	0.356090
O157	O	0.949745	-0.015427	0.248048
O158	O	1.449745	0.484573	0.748048
C159	C	0.961354	-0.026383	0.149404
C160	C	1.461354	0.473617	0.649404
H161	H	1.029096	-0.050435	0.135789
H162	H	1.529096	0.449565	0.635789
H163	H	0.959098	0.036578	0.111529
H164	H	1.459098	0.536578	0.611529
H165	H	0.905255	-0.074150	0.121128
H166	H	1.405255	0.425850	0.621128
H167	H	0.900423	-0.687330	0.000183
H168	H	1.400423	-0.187330	0.500183
H169	H	1.155034	-0.208591	0.436805
H170	H	1.655034	0.291409	0.936805
H171	H	0.765774	-0.258881	0.000083
H172	H	1.265774	0.241119	0.500083
H173	H	0.308763	-0.250771	0.000128
H174	H	0.808763	0.249229	0.500128
O175	O	1.163691	-0.216490	0.752046
O176	O	1.663691	0.283510	1.252046
C177	C	1.224715	-0.165370	0.809698
C178	C	1.724715	0.334630	1.309698
H179	H	1.234316	-0.098545	0.779664
H180	H	1.734316	0.401455	1.279664
H181	H	1.292089	-0.192319	0.810816
H182	H	1.792089	0.307681	1.310816
H183	H	1.197090	-0.163908	0.885230
H184	H	1.697090	0.336092	1.385230
O185	O	0.587642	-0.267842	0.000061
O186	O	1.087642	0.232158	0.500061
C187	C	0.639413	-0.336455	0.000075
C188	C	1.139413	0.163545	0.500075
H189	H	0.709039	-0.315204	-0.029907
H190	H	1.209039	0.184796	0.470093
H191	H	0.604995	-0.389486	-0.045886
H192	H	1.104995	0.110514	0.454114
H193	H	0.646067	-0.360158	0.076029
H194	H	1.146067	0.139842	0.576029
H195	H	0.478022	-0.253775	0.000102
H196	H	0.978022	0.246225	0.500102
H197	H	0.516708	0.023852	0.000114
H198	H	1.016708	0.523852	0.500114
O199	O	0.341934	0.039073	0.000168
O200	O	0.841934	0.539073	0.500168
C201	C	0.412519	0.105520	0.000146
C202	C	0.912519	0.605520	0.500146
H203	H	0.475900	0.081914	0.030118
H204	H	0.975900	0.581914	0.530118
H205	H	0.393014	0.159505	0.046113
H206	H	0.893014	0.659505	0.546113
H207	H	0.425717	0.128873	-0.075808
H208	H	0.925717	0.628873	0.424192
