data_functionalizedCrystal
_audit_creation_method	'MofGen! by Chris Wilmer'
_symmetry_space_group_name_H-M	'P1'
_symmetry_Int_Tables_number	1
_symmetry_cell_setting	triclinic
loop_
_symmetry_equiv_pos_as_xyz
  x,y,z
_cell_length_a	16.974800
_cell_length_b	10.967829
_cell_length_c	16.053802
_cell_angle_alpha	80.477515
_cell_angle_beta	91.074188
_cell_angle_gamma	84.835183
loop_
_atom_site_label
_atom_site_type_symbol
_atom_site_fract_x
_atom_site_fract_y
_atom_site_fract_z
O1	O	1.051014	0.157359	-0.021026
O2	O	0.821785	0.176256	-0.039240
O3	O	0.940460	-0.012873	-0.004004
O4	O	0.932338	0.346488	-0.056263
O5	O	0.933928	-0.002506	0.132922
O6	O	0.815252	0.186623	0.097685
O7	O	1.044481	0.167726	0.115900
Zn8	Zn	0.928829	0.178820	0.128532
Zn9	Zn	0.937436	0.165161	-0.051873
O10	O	0.925805	0.356855	0.080663
C11	C	0.789144	0.180531	0.027367
C12	C	0.701618	0.177809	0.021842
C13	C	0.656942	0.182178	0.093887
C14	C	0.574703	0.179601	0.088701
C15	C	0.537141	0.172663	0.011468
C16	C	0.581824	0.168290	-0.060582
C17	C	0.664062	0.170858	-0.055394
C18	C	0.291568	0.164367	-0.012052
C19	C	0.209324	0.161803	-0.017235
C20	C	0.202209	0.173112	0.132049
C21	C	0.284448	0.175687	0.137229
C22	C	0.329124	0.171307	0.065180
N23	N	0.453080	0.170033	0.006164
N24	N	0.413185	0.173929	0.070486
C25	C	0.936109	-0.053683	0.071002
C26	C	0.932868	-0.190727	0.090497
C27	C	0.934808	-0.257190	0.028257
C28	C	0.931458	-0.398832	0.048404
C29	C	1.077122	0.163451	0.049290
C30	C	1.164648	0.166172	0.054810
C31	C	0.930156	0.397664	0.005655
C32	C	0.933398	0.534708	-0.013845
N33	N	0.922961	0.188142	0.251655
N34	N	0.943311	0.155830	-0.174994
C35	C	0.973477	0.107696	0.310339
C36	C	0.969379	0.114228	0.396529
C37	C	0.914769	0.201213	0.424032
C38	C	0.864248	0.281662	0.365341
C39	C	0.868342	0.275123	0.279153
C40	C	0.896884	0.229741	0.680128
C41	C	0.892795	0.236276	0.766322
C42	C	0.997926	0.068839	0.797505
C43	C	1.002019	0.062313	0.711313
C44	C	0.951495	0.142758	0.652630
N45	N	0.910581	0.207894	0.512131
N46	N	0.955679	0.136070	0.564533
H47	H	0.165825	0.176676	0.190707
H48	H	1.039059	0.003343	0.845292
H49	H	0.928723	-0.238686	0.158699
H50	H	0.927312	-0.446786	0.116611
H51	H	0.938944	-0.209228	-0.039946
N52	N	0.805344	0.375474	0.395008
H53	H	0.834434	0.432972	0.424951
H54	H	0.773975	0.425356	0.344714
H55	H	0.178744	0.156157	-0.080131
H56	H	0.538332	0.183138	0.147370
N57	N	1.032383	0.013883	0.280677
H58	H	1.063761	-0.036089	0.330935
H59	H	1.003239	-0.043531	0.250715
N60	N	0.339749	0.159634	-0.089756
H61	H	0.303473	0.154851	-0.139468
H62	H	0.368579	0.236903	-0.102232
H63	H	0.937529	-0.417337	-0.082054
H64	H	1.046486	-0.008517	0.688923
N65	N	1.023891	0.027504	0.459821
H66	H	1.059120	-0.028572	0.429317
H67	H	1.057601	0.077674	0.491117
N68	N	0.833899	0.330112	0.795988
H69	H	0.802514	0.380084	0.745734
H70	H	0.796781	0.285425	0.836194
H71	H	0.855747	0.295245	0.632354
N72	N	0.813852	0.361889	0.215859
H73	H	0.823289	0.450681	0.218919
H74	H	0.824754	0.344441	0.157119
N75	N	0.697445	0.189671	0.177190
H76	H	0.687029	0.115241	0.220289
H77	H	0.756308	0.190682	0.169473
N78	N	0.324959	0.183184	0.220528
H79	H	0.284177	0.185564	0.265382
H80	H	0.364380	0.108044	0.237307
H81	H	0.700436	0.167302	-0.114061
N82	N	0.541317	0.160791	-0.143883
H83	H	0.482439	0.159829	-0.136239
H84	H	0.551795	0.235226	-0.186943
