data_functionalizedCrystal
_audit_creation_method	'MofGen! by Chris Wilmer'
_symmetry_space_group_name_H-M	'P1'
_symmetry_Int_Tables_number	1
_symmetry_cell_setting	triclinic
loop_
_symmetry_equiv_pos_as_xyz
  x,y,z
_cell_length_a	15.944545
_cell_length_b	10.654550
_cell_length_c	14.421503
_cell_angle_alpha	90.002640
_cell_angle_beta	90.009865
_cell_angle_gamma	83.990538
loop_
_atom_site_label
_atom_site_type_symbol
_atom_site_fract_x
_atom_site_fract_y
_atom_site_fract_z
O1	O	-1.115451	-0.161919	0.077049
O2	O	-0.615451	0.338081	0.577049
O3	O	-0.871016	-0.181896	0.077064
O4	O	-0.371016	0.318104	0.577064
O5	O	-0.998854	0.010904	0.077053
O6	O	-0.498854	0.510904	0.577053
O7	O	-0.987614	-0.354720	0.077060
O8	O	-0.487614	0.145280	0.577060
O9	O	-0.998870	0.010892	-0.077171
O10	O	-0.498870	0.510892	0.422829
O11	O	-0.871032	-0.181909	-0.077159
O12	O	-0.371032	0.318091	0.422841
O13	O	-1.115467	-0.161932	-0.077174
O14	O	-0.615467	0.338068	0.422826
Cu15	Cu	-0.993251	-0.171922	-0.091249
Cu16	Cu	-0.493251	0.328078	0.408751
Cu17	Cu	-0.993232	-0.171907	0.091138
Cu18	Cu	-0.493232	0.328093	0.591138
O19	O	-0.987630	-0.354733	-0.077163
O20	O	-0.487630	0.145267	0.422837
C21	C	-0.839726	-0.181075	-0.000046
C22	C	-0.339726	0.318925	0.499954
C23	C	-0.746465	-0.178593	-0.000040
C24	C	-0.246465	0.321407	0.499960
C25	C	-1.146758	-0.162754	-0.000062
C26	C	-0.646758	0.337246	0.499938
C27	C	-1.240019	-0.165236	-0.000062
C28	C	-0.740019	0.334764	0.499938
C29	C	-0.475097	-0.051669	-0.000053
C30	C	0.024903	0.448331	0.499947
C31	C	-0.526041	-0.112867	-0.076094
C32	C	-0.026041	0.387133	0.423906
C33	C	-0.410770	-0.169741	-0.000056
C34	C	0.089230	0.330259	0.499944
C35	C	-0.526006	-0.112887	0.075958
C36	C	-0.026006	0.387113	0.575958
C37	C	-0.575708	-0.174083	-0.000047
C38	C	-0.075708	0.325917	0.499953
C39	C	-0.460485	-0.230908	-0.076160
C40	C	0.039515	0.269092	0.423840
C41	C	-0.460447	-0.230910	0.075960
C42	C	0.039553	0.269090	0.575960
C43	C	-0.511358	-0.292195	-0.000100
C44	C	-0.011358	0.207805	0.499900
C45	C	-0.315753	-0.167236	-0.000063
C46	C	0.184247	0.332764	0.499937
C47	C	-0.670722	-0.176598	-0.000047
C48	C	-0.170722	0.323402	0.499953
C49	C	-0.998036	0.057685	-0.000058
C50	C	-0.498036	0.557685	0.499942
C51	C	-0.995567	0.197096	-0.000054
C52	C	-0.495567	0.697096	0.499946
C53	C	-0.988447	-0.401514	-0.000050
C54	C	-0.488447	0.098486	0.499950
C55	C	-0.990916	-0.540925	-0.000048
C56	C	-0.490916	-0.040925	0.499952
N57	N	-0.993270	-0.171931	-0.219530
N58	N	-0.493270	0.328069	0.280470
C59	C	-1.070836	0.277559	-0.000062
C60	C	-0.570836	0.777559	0.499938
C61	C	-1.068511	0.408549	-0.000055
C62	C	-0.568511	0.908549	0.499945
C63	C	-0.915642	0.378603	-0.000038
C64	C	-0.415642	0.878603	0.499962
C65	C	-0.917968	0.247615	-0.000038
C66	C	-0.417968	0.747615	0.499962
C67	C	-1.148435	0.227040	-0.000078
C68	C	-0.648435	0.727040	0.499922
C69	C	-1.223710	0.307504	-0.000087
C70	C	-0.723710	0.807504	0.499913
C71	C	-1.221385	0.438494	-0.000080
C72	C	-0.721385	0.938494	0.499920
C73	C	-1.143785	0.489022	-0.000065
C74	C	-0.643785	0.989022	0.499935
C75	C	-1.052395	-0.082761	-0.469164
C76	C	-0.552395	0.417239	0.030836
C77	C	-0.976354	-0.058367	-0.530957
C78	C	-0.476354	0.441633	-0.030957
C79	C	-0.993251	-0.171916	-0.408691
C80	C	-0.493251	0.328084	0.091309
C81	C	-1.069274	-0.196236	-0.530992
C82	C	-0.569274	0.303764	-0.030992
C83	C	-0.993240	-0.171898	-0.591413
C84	C	-0.493240	0.328102	-0.091413
C85	C	-0.917172	-0.147467	-0.469123
C86	C	-0.417172	0.352533	0.030877
C87	C	-1.010142	-0.285384	-0.469154
C88	C	-0.510142	0.214616	0.030846
C89	C	-0.934047	-0.261039	-0.530919
C90	C	-0.434047	0.238961	-0.030919
C91	C	-0.993259	-0.171923	-0.303430
C92	C	-0.493259	0.328077	0.196570
C93	C	-0.993224	-0.171893	-0.696672
C94	C	-0.493224	0.328107	-0.196672
N95	N	-0.993220	-0.171887	0.219420
N96	N	-0.493220	0.328113	0.719420
H97	H	-0.458856	0.050016	-0.000129
H98	H	0.041144	0.550016	0.499871
H99	H	-0.883971	-0.336433	-0.557863
H100	H	-0.383971	0.163567	-0.057863
H101	H	-0.554628	-0.062997	0.140241
H102	H	-0.054628	0.437003	0.640241
H103	H	-1.133570	-0.216814	-0.558168
H104	H	-0.633570	0.283186	-0.058168
H105	H	-0.852860	-0.126780	-0.442061
H106	H	-0.352860	0.373220	0.057939
Cl107	Cl	-0.570272	-0.035893	-0.175352
Cl108	Cl	-0.070272	0.464107	0.324648
H109	H	-0.527439	-0.393958	-0.000142
H110	H	-0.027439	0.106042	0.499858
Cl111	Cl	-1.129534	0.033703	-0.427294
Cl112	Cl	-0.629534	0.533703	0.072706
Cl113	Cl	-0.954272	0.089794	-0.572863
Cl114	Cl	-0.454272	0.589794	-0.072863
H115	H	-1.024463	-0.381319	-0.441986
H116	H	-0.524463	0.118681	0.058014
H117	H	-1.150337	0.120383	-0.000087
H118	H	-0.650337	0.620383	0.499913
Cl119	Cl	-1.321259	0.243985	-0.000093
Cl120	Cl	-0.821259	0.743985	0.499907
H121	H	-0.856677	0.182100	-0.000033
H122	H	-0.356677	0.682100	0.499967
Cl123	Cl	-1.316014	0.539645	-0.000081
Cl124	Cl	-0.816014	1.039645	0.499919
Cl125	Cl	-0.416186	-0.307822	0.175222
Cl126	Cl	0.083814	0.192178	0.675222
Cl127	Cl	-0.416466	-0.307845	-0.175523
Cl128	Cl	0.083534	0.192155	0.324477
Cl129	Cl	-1.140865	0.653698	-0.000098
Cl130	Cl	-0.640865	1.153698	0.499902
H131	H	-0.852463	0.419753	-0.000027
H132	H	-0.352463	0.919753	0.499973
