data_functionalizedCrystal
_audit_creation_method	'MofGen! by Chris Wilmer'
_symmetry_space_group_name_H-M	'P1'
_symmetry_Int_Tables_number	1
_symmetry_cell_setting	triclinic
loop_
_symmetry_equiv_pos_as_xyz
  x,y,z
_cell_length_a	13.897448
_cell_length_b	12.827893
_cell_length_c	12.827885
_cell_angle_alpha	89.983492
_cell_angle_beta	89.967724
_cell_angle_gamma	90.020476
loop_
_atom_site_label
_atom_site_type_symbol
_atom_site_fract_x
_atom_site_fract_y
_atom_site_fract_z
Zn1	Zn	-0.383897	1.597655	-0.590748
Zn2	Zn	-0.545223	1.597541	-0.416001
Zn3	Zn	-0.383951	1.422896	-0.416031
Zn4	Zn	-0.545159	1.422874	-0.590710
O5	O	-0.464558	1.510242	-0.503373
O6	O	-0.405301	1.743876	-0.567571
O7	O	-0.523880	1.574336	-0.269769
O8	O	-0.248963	1.446134	-0.439236
O9	O	-0.523826	1.743792	-0.439185
O10	O	-0.248922	1.574529	-0.567600
O11	O	-0.405394	1.446024	-0.269791
O12	O	-0.405332	1.276657	-0.439199
O13	O	-0.523718	1.446098	-0.736951
O14	O	-0.523771	1.276641	-0.567535
O15	O	-0.405239	1.574508	-0.736979
O16	O	-0.680196	1.574315	-0.439148
O17	O	-0.680149	1.445988	-0.567506
C18	C	-0.715172	1.510165	-0.503342
C19	C	-0.822386	1.510228	-0.503364
C20	C	-0.464551	1.238732	-0.503367
C21	C	-0.464572	1.122579	-0.503389
C22	C	-0.464465	1.510314	-0.775943
C23	C	-0.464425	1.510344	-0.892096
C24	C	-1.018681	1.510338	-0.503430
C25	C	-0.909448	1.510274	-0.503397
C26	C	-0.212965	1.510347	-0.503426
C27	C	-0.105751	1.510391	-0.503448
C28	C	-0.464565	1.782812	-0.503379
C29	C	-0.464568	1.898965	-0.503382
C30	C	-0.405925	1.950791	-0.566906
C31	C	-0.405926	2.070841	-0.566910
C32	C	-0.405784	1.446872	-0.943892
C33	C	-0.405741	1.446902	-1.063942
C34	C	-0.464580	1.510230	-0.231863
C35	C	-0.464348	1.510402	-0.115710
H36	H	-0.355721	1.906284	-0.621292
O37	O	-0.345983	1.381955	-1.117117
C38	C	-0.400930	1.314529	-1.180259
H39	H	-0.476886	1.308010	-1.147287
H40	H	-0.366046	1.234121	-1.181605
H41	H	-0.404291	1.346932	-1.262940
H42	H	-0.514780	1.943471	-0.449006
H43	H	-0.355613	1.392505	-0.899359
H44	H	-0.355716	2.115410	-0.621291
O45	O	-0.524352	1.575086	-1.062539
C46	C	-0.586602	1.515491	-0.999367
H47	H	-0.592573	1.433221	-1.032321
H48	H	-0.660836	1.553252	-0.998007
H49	H	-0.556736	1.511809	-0.916694
O50	O	-0.524239	1.575350	-0.945096
C51	C	-0.503173	1.679530	-0.918528
H52	H	-0.466185	1.681761	-0.839262
H53	H	-0.572792	1.726364	-0.914890
H54	H	-0.453510	1.714707	-0.979947
O55	O	-0.524609	2.069539	-0.438553
C56	C	-0.620762	2.096080	-0.461368
H57	H	-0.622814	2.175363	-0.501471
H58	H	-0.664044	2.099668	-0.385937
H59	H	-0.653178	2.034673	-0.515141
