data_functionalizedCrystal
_audit_creation_method	'MofGen! by Chris Wilmer'
_symmetry_space_group_name_H-M	'P1'
_symmetry_Int_Tables_number	1
_symmetry_cell_setting	triclinic
loop_
_symmetry_equiv_pos_as_xyz
  x,y,z
_cell_length_a	19.288840
_cell_length_b	23.532407
_cell_length_c	18.366186
_cell_angle_alpha	89.992445
_cell_angle_beta	90.013590
_cell_angle_gamma	97.012658
loop_
_atom_site_label
_atom_site_type_symbol
_atom_site_fract_x
_atom_site_fract_y
_atom_site_fract_z
O1	O	0.921143	-0.070974	0.060681
O2	O	1.421143	0.429026	0.560681
O3	O	0.718850	-0.080572	0.060657
O4	O	1.218850	0.419428	0.560657
O5	O	0.826097	0.007146	0.060654
O6	O	1.326097	0.507146	0.560654
O7	O	0.813896	-0.158692	0.060684
O8	O	1.313896	0.341308	0.560684
O9	O	0.826083	0.007143	-0.060446
O10	O	1.326083	0.507143	0.439554
O11	O	0.718836	-0.080575	-0.060443
O12	O	1.218836	0.419425	0.439557
O13	O	0.921129	-0.070977	-0.060419
O14	O	1.421129	0.429023	0.439581
Zn15	Zn	0.819980	-0.075777	-0.079658
Zn16	Zn	1.319980	0.424223	0.420342
Zn17	Zn	0.819999	-0.075773	0.079896
Zn18	Zn	1.319999	0.424227	0.579896
O19	O	0.813882	-0.158696	-0.060416
O20	O	1.313882	0.341304	0.439584
C21	C	0.692967	-0.080267	0.000104
C22	C	1.192967	0.419733	0.500104
C23	C	0.615866	-0.079347	0.000094
C24	C	1.115866	0.420653	0.500094
C25	C	0.579671	-0.078904	0.066107
C26	C	1.079671	0.421096	0.566107
C27	C	0.507227	-0.078033	0.066116
C28	C	1.007227	0.421967	0.566116
C29	C	0.470982	-0.077594	0.000108
C30	C	0.970982	0.422406	0.500108
C31	C	0.507185	-0.078041	-0.065914
C32	C	1.007185	0.421959	0.434086
C33	C	0.579627	-0.078918	-0.065921
C34	C	1.079627	0.421082	0.434079
C35	C	0.361756	-0.042849	-0.050460
C36	C	0.861756	0.457151	0.449540
C37	C	0.289316	-0.041969	-0.050450
C38	C	0.789316	0.458031	0.449550
C39	C	0.247547	-0.074894	0.000126
C40	C	0.747547	0.425106	0.500126
C41	C	0.278228	-0.108691	0.050705
C42	C	0.778228	0.391309	0.550705
C43	C	0.350670	-0.109567	0.050698
C44	C	0.850670	0.390433	0.550698
C45	C	0.392431	-0.076644	0.000108
C46	C	0.892431	0.423356	0.500108
C47	C	0.132800	-0.073506	0.066153
C48	C	0.632800	0.426494	0.566153
C49	C	0.060353	-0.072639	0.066159
C50	C	0.560353	0.427361	0.566159
C51	C	0.060314	-0.072642	-0.065872
C52	C	0.560314	0.427358	0.434128
C53	C	0.132758	-0.073515	-0.065877
C54	C	0.632758	0.426485	0.434123
C55	C	0.168997	-0.073944	0.000138
C56	C	0.668997	0.426056	0.500138
C57	C	0.825779	0.028362	0.000101
C58	C	1.325779	0.528362	0.500101
C59	C	0.824845	0.091581	0.000094
C60	C	1.324845	0.591581	0.500094
C61	C	0.882453	0.490568	0.000129
C62	C	1.382453	0.990568	0.500129
C63	C	0.881585	0.549970	0.000132
C64	C	1.381585	1.049970	0.500132
O65	O	0.934988	0.586608	0.000164
O66	O	1.434988	1.086608	0.500164
N67	N	0.817827	0.572724	0.000123
N68	N	1.317827	1.072724	0.500123
C69	C	0.754932	0.536072	0.000118
C70	C	1.254932	1.036072	0.500118
O71	O	0.700622	0.560880	0.000112
O72	O	1.200622	1.060880	0.500112
C73	C	0.755801	0.476671	0.000120
C74	C	1.255801	0.976671	0.500120
C75	C	0.819563	0.453921	0.000121
C76	C	1.319563	0.953921	0.500121
C77	C	0.946209	0.467818	0.000131
C78	C	1.446209	0.967818	0.500131
C79	C	0.947077	0.408420	0.000126
C80	C	1.447077	0.908420	0.500126
C81	C	0.884187	0.371773	0.000119
C82	C	1.384187	0.871773	0.500119
C83	C	0.820430	0.394523	0.000116
C84	C	1.320430	0.894523	0.500116
C85	C	0.692907	0.440021	0.000120
C86	C	1.192907	0.940021	0.500120
C87	C	0.693781	0.380616	0.000122
C88	C	1.193781	0.880616	0.500122
C89	C	0.757543	0.357866	0.000124
C90	C	1.257543	0.857866	0.500124
C91	C	0.758408	0.298478	0.000104
C92	C	1.258408	0.798478	0.500104
N93	N	0.822166	0.275725	0.000113
N94	N	1.322166	0.775725	0.500113
C95	C	0.885056	0.312372	0.000120
C96	C	1.385056	0.812372	0.500120
C97	C	0.753113	0.660818	0.000116
C98	C	1.253113	1.160818	0.500116
C99	C	0.752244	0.720218	0.000110
C100	C	1.252244	1.220218	0.500110
C101	C	0.878897	0.734112	0.000125
C102	C	1.378897	1.234112	0.500125
C103	C	0.879765	0.674711	0.000126
C104	C	1.379765	1.174711	0.500126
C105	C	0.816871	0.638065	0.000125
C106	C	1.316871	1.138065	0.500125
C107	C	0.886873	0.187631	0.000109
C108	C	1.386873	0.687631	0.500109
C109	C	0.887734	0.128228	0.000101
C110	C	1.387734	0.628228	0.500101
C111	C	0.761082	0.114339	0.000090
C112	C	1.261082	0.614339	0.500090
C113	C	0.760220	0.173737	0.000094
C114	C	1.260220	0.673737	0.500094
C115	C	0.823121	0.210383	0.000106
C116	C	1.323121	0.710383	0.500106
O117	O	0.705034	0.261806	0.000075
O118	O	1.205034	0.761806	0.500075
O119	O	0.939358	0.287555	0.000136
O120	O	1.439358	0.787555	0.500136
C121	C	0.947012	-0.071282	0.000136
C122	C	1.447012	0.428718	0.500136
C123	C	1.024113	-0.072202	0.000151
C124	C	1.524113	0.427798	0.500151
C125	C	0.814200	0.820089	0.000131
C126	C	1.314200	1.320089	0.500131
C127	C	0.815134	0.756870	0.000121
C128	C	1.315134	1.256870	0.500121
N129	N	0.819973	-0.075779	-0.188549
N130	N	1.319973	0.424221	0.311451
C131	C	0.861898	-0.110211	-0.773087
C132	C	1.361898	0.389789	-0.273087
C133	C	0.861891	-0.110216	-0.696859
C134	C	1.361891	0.389784	-0.196859
C135	C	0.820005	-0.075766	-0.658760
C136	C	1.320005	0.424234	-0.158760
C137	C	0.778110	-0.041319	-0.696896
C138	C	1.278110	0.458681	-0.196896
C139	C	0.778113	-0.041319	-0.773122
C140	C	1.278113	0.458681	-0.273122
C141	C	0.818437	-0.024419	-0.538004
C142	C	1.318437	0.475581	-0.038004
C143	C	0.818438	-0.024418	-0.461779
C144	C	1.318438	0.475582	0.038221
C145	C	0.819991	-0.075768	-0.423653
C146	C	1.319991	0.424232	0.076347
C147	C	0.821557	-0.127119	-0.461761
C148	C	1.321557	0.372881	0.038239
C149	C	0.821560	-0.127119	-0.537987
C150	C	1.321560	0.372881	-0.037987
C151	C	0.819997	-0.075763	-0.576106
C152	C	1.319997	0.424237	-0.076106
C153	C	0.861873	-0.110222	-0.302871
C154	C	1.361873	0.389778	0.197129
C155	C	0.861860	-0.110229	-0.226642
C156	C	1.361860	0.389771	0.273358
C157	C	0.778083	-0.041326	-0.226681
C158	C	1.278083	0.458674	0.273319
C159	C	0.778091	-0.041324	-0.302908
C160	C	1.278091	0.458676	0.197092
C161	C	0.819990	-0.075771	-0.340999
C162	C	1.319990	0.424229	0.159001
N163	N	0.820012	-0.075766	0.188787
N164	N	1.320012	0.424234	0.688787
H165	H	0.375647	-0.137087	0.091880
H166	H	0.875647	0.362913	0.591880
Br167	Br	0.972239	0.237356	0.000126
Br168	Br	1.472239	0.737356	0.500126
H169	H	0.931686	0.656193	0.000128
H170	H	1.431686	1.156193	0.500128
H171	H	0.743986	-0.013273	-0.333951
H172	H	1.243986	0.486727	0.166049
Br173	Br	0.418435	0.001836	-0.119108
Br174	Br	0.918435	0.501836	0.380892
H175	H	0.701894	0.630983	0.000109
H176	H	1.201894	1.130983	0.500109
H177	H	0.609172	-0.079254	0.119861
H178	H	1.109172	0.420746	0.619861
H179	H	0.609096	-0.079280	-0.119678
H180	H	1.109096	0.420720	0.380322
H181	H	0.998999	0.389903	0.000130
H182	H	1.498999	0.889903	0.500130
Br183	Br	0.918693	-0.156996	-0.174897
Br184	Br	1.418693	0.343004	0.325103
Br185	Br	0.458094	-0.077432	0.155711
Br186	Br	0.958094	0.422568	0.655711
Br187	Br	0.816328	0.045276	-0.589739
Br188	Br	1.316328	0.545276	-0.089739
Br189	Br	0.816310	0.045271	-0.410069
Br190	Br	1.316310	0.545271	0.089931
Br191	Br	0.823671	-0.196812	-0.410028
Br192	Br	1.323671	0.303188	0.089972
Br193	Br	0.918732	-0.156971	-0.354571
Br194	Br	1.418732	0.343029	0.145429
H195	H	0.997425	0.497651	0.000140
H196	H	1.497425	0.997651	0.500140
H197	H	0.477669	-0.077686	-0.119658
H198	H	0.977669	0.422314	0.380342
Br199	Br	0.721261	0.005431	-0.824869
Br200	Br	1.221261	0.505431	-0.324869
Br201	Br	0.918756	-0.156964	-0.824778
Br202	Br	1.418756	0.343036	-0.324778
Br203	Br	0.964248	0.783859	0.000138
Br204	Br	1.464248	1.283859	0.500138
Br205	Br	0.665707	0.751085	0.000090
Br206	Br	1.165707	1.251085	0.500090
H207	H	0.640985	0.458533	0.000123
H208	H	1.140985	0.958533	0.500123
Br209	Br	0.181883	-0.074115	-0.155471
Br210	Br	0.681883	0.425885	0.344529
Br211	Br	0.721228	0.005422	-0.174984
Br212	Br	1.221228	0.505422	0.325016
Br213	Br	0.247682	0.003884	-0.119107
Br214	Br	0.747682	0.503884	0.380893
H215	H	0.744004	-0.013271	-0.665871
H216	H	1.244004	0.486729	-0.165871
H217	H	0.822833	-0.168931	-0.569011
H218	H	1.322833	0.331069	-0.069011
Br219	Br	0.181985	-0.074094	0.155742
Br220	Br	0.681985	0.425906	0.655742
H221	H	0.896000	-0.138268	-0.665810
H222	H	1.396000	0.361732	-0.165810
H223	H	0.642564	0.350781	0.000122
H224	H	1.142564	0.850781	0.500122
H225	H	0.939659	0.109708	0.000100
H226	H	1.439659	0.609708	0.500100
Br227	Br	0.673685	0.204614	0.000075
Br228	Br	1.173685	0.704614	0.500075
Br229	Br	0.675736	0.064592	0.000079
Br230	Br	1.175736	0.564592	0.500079
H231	H	0.030803	-0.072288	-0.119618
H232	H	0.530803	0.427712	0.380382
Br233	Br	0.011229	-0.072044	0.155757
Br234	Br	0.511229	0.427956	0.655757
Br235	Br	0.221550	-0.153379	0.119349
Br236	Br	0.721550	0.346621	0.619349
