data_functionalizedCrystal
_audit_creation_method	'MofGen! by Chris Wilmer'
_symmetry_space_group_name_H-M	'P1'
_symmetry_Int_Tables_number	1
_symmetry_cell_setting	triclinic
loop_
_symmetry_equiv_pos_as_xyz
  x,y,z
_cell_length_a	19.077399
_cell_length_b	15.299383
_cell_length_c	19.076919
_cell_angle_alpha	102.311458
_cell_angle_beta	85.520477
_cell_angle_gamma	97.753793
loop_
_atom_site_label
_atom_site_type_symbol
_atom_site_fract_x
_atom_site_fract_y
_atom_site_fract_z
Zn1	Zn	1.103515	0.322735	0.397349
Zn2	Zn	1.126905	0.467255	0.298257
Zn3	Zn	0.990373	0.322760	0.284207
Zn4	Zn	1.005963	0.479827	0.422459
O5	O	1.056689	0.398144	0.350568
O6	O	1.204582	0.336635	0.379576
O7	O	1.112058	0.442837	0.197063
O8	O	0.989068	0.196541	0.282827
O9	O	1.221767	0.442813	0.306773
O10	O	1.072193	0.196523	0.365952
O11	O	1.011748	0.336676	0.186741
O12	O	0.894476	0.348866	0.307175
O13	O	1.015639	0.464239	0.518458
O14	O	0.905930	0.464263	0.408749
O15	O	1.087310	0.348825	0.500010
O16	O	1.127175	0.595138	0.331121
O17	O	1.038319	0.604374	0.422372
C18	C	0.874802	0.407932	0.359163
C19	C	0.796992	0.412142	0.362859
C20	C	0.754439	0.353956	0.311775
C21	C	0.681329	0.357920	0.315249
C22	C	0.650774	0.420065	0.369811
C23	C	0.693333	0.478258	0.420897
C24	C	0.766441	0.474298	0.417420
C25	C	0.432766	0.438364	0.385873
C26	C	0.359651	0.442317	0.389348
C27	C	0.347653	0.321980	0.283698
C28	C	0.420763	0.318022	0.280228
C29	C	0.463316	0.376218	0.331312
N30	N	0.576044	0.424116	0.373364
N31	N	0.538045	0.372170	0.327755
C32	C	1.086995	0.632482	0.381010
C33	C	1.100024	0.732731	0.394054
C34	C	0.963816	1.015636	0.257596
C35	C	0.951571	0.921447	0.245342
C36	C	0.988683	0.874264	0.282519
C37	C	1.038042	0.921277	0.331952
C38	C	1.050284	1.015475	0.344211
C39	C	1.075152	0.874103	0.369134
C40	C	1.124510	0.921117	0.418567
C41	C	1.136750	1.015305	0.430823
C42	C	1.099638	1.062489	0.393647
C43	C	1.062910	0.779905	0.356875
C44	C	1.149378	0.779745	0.443490
C45	C	1.161623	0.873933	0.455744
C46	C	1.239286	0.388319	0.341940
C47	C	1.317098	0.384132	0.338264
C48	C	1.050604	0.407932	0.535709
C49	C	1.048012	0.412102	0.614606
C50	C	1.026243	1.162893	0.320028
C51	C	1.013170	1.062650	0.307032
C52	C	1.062781	0.388328	0.166137
C53	C	1.065476	0.383896	0.087201
C54	C	1.084107	0.353974	0.642068
C55	C	1.081662	0.357890	0.716199
C56	C	1.043125	0.419939	0.762867
C57	C	1.007026	0.478070	0.735401
C58	C	1.009467	0.474149	0.661270
C59	C	1.031818	0.438105	0.985604
C60	C	1.029381	0.442023	1.059739
C61	C	1.104017	0.321842	1.040532
C62	C	1.106458	0.317931	0.966402
C63	C	1.070356	0.376058	0.938941
N64	N	1.040627	0.423945	0.838642
N65	N	1.072850	0.372047	0.863167
H66	H	0.334775	0.492924	0.433783
H67	H	0.312999	0.274602	0.242108
H68	H	1.133408	0.274518	1.062899
O69	O	1.014883	0.734348	0.308910
C70	C	0.893229	0.710233	0.276281
C71	C	0.947552	0.761904	0.330651
H72	H	0.838777	0.732480	0.293847
H73	H	0.909801	0.725101	0.220878
H74	H	0.890889	0.634809	0.273890
H75	H	0.949919	0.837343	0.333105
H76	H	0.930959	0.746962	0.386027
H77	H	0.445637	0.267423	0.235794
O78	O	1.184744	1.060834	0.478842
C79	C	1.269197	1.050733	0.563479
C80	C	1.214873	0.999062	0.509110
H81	H	1.293560	1.000815	0.587977
H82	H	1.312664	1.091083	0.534946
H83	H	1.241540	1.098570	0.607806
H84	H	1.242467	0.951179	0.464769
H85	H	1.171410	0.958771	0.537694
O86	O	0.663717	0.538577	0.473990
C87	C	0.643070	0.590131	0.601456
C88	C	0.676658	0.521785	0.541396
H89	H	0.653508	0.576568	0.655967
H90	H	0.667272	0.661414	0.597725
H91	H	0.583514	0.582972	0.595132
H92	H	0.736214	0.528862	0.547681
H93	H	0.652400	0.450530	0.545145
O94	O	0.927745	1.061577	0.221602
C95	C	0.847359	1.172585	0.230306
C96	C	0.888186	1.120634	0.271162
H97	H	0.815354	1.220331	0.270357
H98	H	0.886447	1.213039	0.197457
H99	H	0.810011	1.122789	0.192846
H100	H	0.925535	1.170366	0.308660
H101	H	0.849058	1.080166	0.303965
H102	H	1.137841	0.267406	0.928408
H103	H	0.911383	0.883172	0.205095
H104	H	1.002433	0.485449	0.963256
H105	H	0.997998	0.492553	1.097736
O106	O	0.969648	0.538316	0.780835
C107	C	0.932774	0.597584	0.903543
C108	C	0.975144	0.529324	0.852173
H109	H	0.937191	0.590324	0.961230
H110	H	0.954947	0.668902	0.897885
H111	H	0.874768	0.584015	0.889532
H112	H	1.033156	0.542809	0.866151
H113	H	0.952913	0.458028	0.857840
H114	H	0.980066	0.521474	0.638911
H115	H	0.978712	0.797571	0.272538
O116	O	0.639895	0.301402	0.265713
C117	C	0.541875	0.183619	0.244376
C118	C	0.588742	0.247565	0.300563
H119	H	0.500516	0.140063	0.272529
H120	H	0.514182	0.224854	0.214238
H121	H	0.576270	0.138556	0.204751
H122	H	0.554397	0.292642	0.340233
H123	H	0.616440	0.206276	0.330646
O124	O	0.807839	0.530690	0.467059
C125	C	0.888822	0.543609	0.560578
C126	C	0.841981	0.479639	0.504381
H127	H	0.916427	0.502360	0.590778
H128	H	0.930254	0.587111	0.532453
H129	H	0.854417	0.588725	0.600144
H130	H	0.876329	0.434466	0.464799
H131	H	0.800546	0.436199	0.532555
O132	O	1.209508	0.919520	0.503857
C133	C	1.243120	0.952862	0.626776
C134	C	1.188850	0.901166	0.572358
H135	H	1.226430	0.938057	0.682174
H136	H	1.297585	0.930583	0.609336
H137	H	1.245498	1.028279	0.629109
H138	H	1.186409	0.825740	0.569999
H139	H	1.134413	0.923520	0.589819
H140	H	0.779310	0.303344	0.267350
H141	H	1.109607	1.139185	0.403619
O142	O	1.185545	0.734013	0.479580
C143	C	1.299694	0.700406	0.504703
C144	C	1.258831	0.752270	0.463806
H145	H	1.358952	0.715133	0.491952
H146	H	1.287938	0.722613	0.564931
H147	H	1.282432	0.625016	0.487463
H148	H	1.276069	0.827670	0.480985
H149	H	1.270589	0.729988	0.403586
H150	H	0.467404	0.485751	0.427469
H151	H	1.115490	0.303450	0.604075
H152	H	1.111056	0.310558	0.738555
