data_functionalizedCrystal
_audit_creation_method	'MofGen! by Chris Wilmer'
_symmetry_space_group_name_H-M	'P1'
_symmetry_Int_Tables_number	1
_symmetry_cell_setting	triclinic
loop_
_symmetry_equiv_pos_as_xyz
  x,y,z
_cell_length_a	19.288840
_cell_length_b	13.339070
_cell_length_c	17.766277
_cell_angle_alpha	89.997794
_cell_angle_beta	89.983415
_cell_angle_gamma	99.377655
loop_
_atom_site_label
_atom_site_type_symbol
_atom_site_fract_x
_atom_site_fract_y
_atom_site_fract_z
O1	O	0.945911	0.125963	-0.062721
O2	O	0.746967	0.142998	-0.062695
O3	O	0.823607	-0.012676	-0.062703
O4	O	0.869271	0.281637	-0.062713
O5	O	0.823587	-0.012684	0.062486
O6	O	0.746947	0.142990	0.062494
O7	O	0.945891	0.125955	0.062468
Cu8	Cu	0.846417	0.134472	0.073911
Cu9	Cu	0.846441	0.134481	-0.074139
O10	O	0.869251	0.281629	0.062475
C11	C	0.720974	0.142450	-0.000097
C12	C	0.643552	0.140817	-0.000087
C13	C	0.607206	0.140037	-0.068329
C14	C	0.534458	0.138492	-0.068338
C15	C	0.498056	0.137706	-0.000102
C16	C	0.534411	0.138492	0.068150
C17	C	0.607159	0.140048	0.068157
C18	C	0.376704	0.076038	0.052169
C19	C	0.303957	0.074477	0.052159
C20	C	0.273679	0.132913	-0.000121
C21	C	0.316155	0.192898	-0.052404
C22	C	0.388903	0.194453	-0.052397
C23	C	0.419174	0.136020	-0.000102
C24	C	0.158452	0.130459	-0.068378
C25	C	0.085703	0.128919	-0.068384
C26	C	0.085656	0.128910	0.068106
C27	C	0.158404	0.130459	0.068110
C28	C	0.194797	0.131228	-0.000134
C29	C	0.815883	-0.050333	-0.000108
C30	C	0.792890	-0.162527	-0.000108
C31	C	0.971668	-0.528158	-0.000131
C32	C	0.993273	-0.422747	-0.000127
C33	C	0.943179	-0.357687	-0.000123
C34	C	0.871477	-0.398048	-0.000122
C35	C	0.849870	-0.503470	-0.000120
C36	C	0.821381	-0.332999	-0.000112
C37	C	0.749679	-0.373360	-0.000111
C38	C	0.728075	-0.478772	-0.000110
C39	C	0.778169	-0.543832	-0.000114
C40	C	0.842988	-0.227577	-0.000113
C41	C	0.721190	-0.202889	-0.000102
C42	C	0.699585	-0.308300	-0.000107
C43	C	0.971883	0.126503	-0.000132
C44	C	1.049306	0.128136	-0.000147
C45	C	0.876975	0.319286	-0.000120
C46	C	0.899967	0.431480	-0.000125
N47	N	0.846405	0.134465	0.178042
N48	N	0.846457	0.134480	-0.178269
C49	C	0.880363	0.065566	0.217425
C50	C	0.880366	0.065561	0.296227
C51	C	0.846421	0.134473	0.335642
C52	C	0.812456	0.203377	0.296249
C53	C	0.812448	0.203373	0.217449
C54	C	0.855068	0.226564	0.460478
C55	C	0.855082	0.226570	0.539277
C56	C	0.846442	0.134485	0.578689
C57	C	0.837803	0.042390	0.539292
C58	C	0.837795	0.042386	0.460492
C59	C	0.846426	0.134484	0.421088
C60	C	0.880405	0.065575	0.703518
C61	C	0.880403	0.065569	0.782321
C62	C	0.812498	0.203393	0.782342
C63	C	0.812495	0.203391	0.703540
C64	C	0.846452	0.134483	0.664133
H65	H	0.291506	0.240486	-0.094973
H66	H	0.056019	0.128276	0.123666
H67	H	0.401349	0.028450	0.094746
H68	H	0.960774	-0.271857	-0.000119
Cl69	Cl	0.204207	0.131436	-0.154168
Cl70	Cl	0.865947	0.342344	0.588795
Cl71	Cl	0.658210	-0.121107	-0.000092
H72	H	0.784846	0.259499	0.671472
Cl73	Cl	0.488650	0.137511	0.153933
Cl74	Cl	0.652852	0.141027	0.153954
Cl75	Cl	0.933124	-0.176850	-0.000114
H76	H	0.187996	0.131087	0.123680
H77	H	0.908052	0.009458	0.814388
H78	H	1.051653	-0.389892	-0.000127
H79	H	0.908011	0.009455	0.185342
H80	H	0.636833	0.140664	-0.123899
H81	H	0.908052	0.009463	0.671431
Cl82	Cl	0.923060	-0.021062	0.345746
H83	H	0.269377	0.025628	0.094727
Cl84	Cl	0.826928	-0.073383	0.410967
Cl85	Cl	0.637935	-0.529510	-0.000098
Cl86	Cl	0.826947	-0.073382	0.588830
H87	H	0.056112	0.128290	-0.123957
Cl88	Cl	1.034634	-0.609950	-0.000123
H89	H	0.760582	-0.629668	-0.000121
Cl90	Cl	0.609447	-0.359054	-0.000107
Cl91	Cl	0.769818	0.290018	0.831887
Cl92	Cl	0.865996	0.342342	0.410939
H93	H	0.784816	0.259484	0.328345
H94	H	0.784794	0.259479	0.185382
H95	H	0.423485	0.243298	-0.094965
Cl96	Cl	0.488757	0.137510	-0.154135
