data_functionalizedCrystal
_audit_creation_method	'MofGen! by Chris Wilmer'
_symmetry_space_group_name_H-M	'P1'
_symmetry_Int_Tables_number	1
_symmetry_cell_setting	triclinic
loop_
_symmetry_equiv_pos_as_xyz
  x,y,z
_cell_length_a	10.489716
_cell_length_b	15.944493
_cell_length_c	9.565339
_cell_angle_alpha	90.006105
_cell_angle_beta	89.996780
_cell_angle_gamma	84.002090
loop_
_atom_site_label
_atom_site_type_symbol
_atom_site_fract_x
_atom_site_fract_y
_atom_site_fract_z
O1	O	1.692392	0.118406	-0.116229
O2	O	1.321034	0.129551	-0.116232
O3	O	1.516893	0.001761	-0.116242
O4	O	1.496534	0.246196	-0.116219
O5	O	1.516877	0.001769	0.116278
O6	O	1.321019	0.129559	0.116288
O7	O	1.692377	0.118413	0.116292
Zn8	Zn	1.506695	0.123988	0.153207
Zn9	Zn	1.506716	0.123977	-0.153148
O10	O	1.496518	0.246204	0.116301
C11	C	1.273506	0.128718	0.000027
C12	C	1.131911	0.126212	0.000025
C13	C	1.033126	0.204577	0.000029
C14	C	0.956359	0.163172	0.114676
C15	C	0.956382	0.163145	-0.114570
C16	C	1.057010	0.084839	0.114767
C17	C	1.057037	0.084824	-0.114583
C18	C	0.980320	0.043361	0.000092
C19	C	1.516053	-0.029535	0.000012
C20	C	1.513558	-0.122798	-0.000006
C21	C	1.628845	-0.357872	0.000022
C22	C	1.566683	-0.408814	-0.114622
C23	C	1.508936	-0.293547	0.000012
C24	C	1.566640	-0.408782	0.114624
C25	C	1.504480	-0.458483	0.000034
C26	C	1.446806	-0.343261	-0.114727
C27	C	1.446780	-0.343226	0.114622
C28	C	1.384530	-0.394135	-0.000050
C29	C	1.511506	-0.198532	-0.000003
C30	C	1.501900	-0.553496	0.000038
C31	C	1.739905	0.119247	0.000029
C32	C	1.881500	0.121752	0.000022
C33	C	1.497358	0.277500	0.000044
C34	C	1.499853	0.370763	0.000053
N35	N	1.506691	0.123994	0.362287
N36	N	1.506730	0.123964	-0.362227
C37	C	1.416085	0.183073	0.453494
C38	C	1.531343	0.200063	0.546677
C39	C	1.391483	0.107011	0.546660
C40	C	1.622006	0.141022	0.453417
C41	C	1.482071	0.047937	0.453393
C42	C	1.597411	0.064895	0.546532
H43	H	1.100788	0.051781	0.211788
O44	O	1.626881	-0.443013	0.230296
C45	C	1.539739	-0.484619	0.310290
H46	H	1.458758	-0.502236	0.240223
H47	H	1.591599	-0.544212	0.358057
H48	H	1.498395	-0.441057	0.397275
H49	H	1.617328	-0.437462	-0.211546
H50	H	0.912435	0.196239	-0.211482
H51	H	1.674134	0.014918	0.587127
H52	H	1.461184	-0.016349	0.412386
H53	H	1.294038	0.092661	0.587621
H54	H	1.056829	0.272743	0.000143
H55	H	1.396202	-0.314746	-0.211754
H56	H	1.732131	-0.341629	-0.000092
O57	O	1.324917	0.242774	0.404573
C58	C	1.383256	0.301050	0.321520
H59	H	1.478993	0.270273	0.280589
H60	H	1.318041	0.321419	0.229636
H61	H	1.399905	0.358581	0.387174
O62	O	0.903941	0.202773	0.230208
C63	C	0.930309	0.287689	0.229828
H64	H	0.950153	0.307856	0.118264
H65	H	0.844236	0.329182	0.273143
H66	H	1.017857	0.294695	0.297770
O67	O	1.261198	-0.413287	-0.000366
C68	C	1.198463	-0.379593	-0.121381
H69	H	1.272535	-0.369939	-0.205485
H70	H	1.129906	-0.425119	-0.161390
H71	H	1.142220	-0.316479	-0.095124
H72	H	1.396178	-0.314563	0.211549
H73	H	0.956857	-0.024855	0.000152
H74	H	1.101008	0.051765	-0.211518
O75	O	1.556254	0.276715	0.595810
C76	C	1.557044	0.275395	0.743193
H77	H	1.577858	0.207583	0.781188
H78	H	1.634379	0.314431	0.783496
H79	H	1.459538	0.303102	0.784072
O80	O	1.738165	0.158318	0.404539
C81	C	1.736720	0.158169	0.257147
H82	H	1.633654	0.170702	0.218610
H83	H	1.794959	0.209525	0.216481
H84	H	1.780377	0.094164	0.217166
