data_functionalizedCrystal
_audit_creation_method	'MofGen! by Chris Wilmer'
_symmetry_space_group_name_H-M	'P1'
_symmetry_Int_Tables_number	1
_symmetry_cell_setting	triclinic
loop_
_symmetry_equiv_pos_as_xyz
  x,y,z
_cell_length_a	12.811438
_cell_length_b	12.811415
_cell_length_c	13.448316
_cell_angle_alpha	84.562549
_cell_angle_beta	84.561792
_cell_angle_gamma	83.527069
loop_
_atom_site_label
_atom_site_type_symbol
_atom_site_fract_x
_atom_site_fract_y
_atom_site_fract_z
O1	O	1.393305	0.141386	-0.221077
O2	O	1.087786	0.156757	-0.194916
O3	O	1.248230	-0.003688	-0.194910
O4	O	1.232860	0.301831	-0.221083
O5	O	1.248210	-0.003698	-0.029523
O6	O	1.087766	0.156747	-0.029529
O7	O	1.393284	0.141376	-0.055691
Cu8	Cu	1.240523	0.149061	-0.027509
Cu9	Cu	1.240547	0.149073	-0.223098
O10	O	1.232840	0.301821	-0.055697
C11	C	1.048668	0.155890	-0.108619
C12	C	0.932138	0.153310	-0.097879
C13	C	0.767883	0.149669	0.007405
C14	C	0.877373	0.152094	-0.002682
C15	C	0.877404	0.152105	-0.182996
C16	C	0.767914	0.149680	-0.172909
C17	C	0.713158	0.148461	-0.077706
C18	C	0.603666	0.146028	-0.067619
C19	C	0.603698	0.146047	-0.247933
C20	C	0.713188	0.148472	-0.258020
C21	C	1.247359	-0.042801	-0.108613
C22	C	1.244778	-0.159331	-0.097875
C23	C	1.239933	-0.378281	-0.258021
C24	C	1.237508	-0.487771	-0.247936
C25	C	1.237497	-0.487803	-0.067622
C26	C	1.239922	-0.378312	-0.077706
C27	C	1.241141	-0.323555	-0.172909
C28	C	1.243573	-0.214064	-0.182993
C29	C	1.243554	-0.214097	-0.002679
C30	C	1.241130	-0.323587	0.007405
C31	C	1.432403	0.142243	-0.141990
C32	C	1.548933	0.144823	-0.152736
C33	C	1.233712	0.340934	-0.141996
C34	C	1.236292	0.457464	-0.152740
N35	N	1.240514	0.149052	0.110057
N36	N	1.240565	0.149073	-0.360664
C37	C	1.311581	0.078036	0.162095
C38	C	1.311588	0.078035	0.266198
C39	C	1.240531	0.149056	0.318260
C40	C	1.169457	0.220075	0.266214
C41	C	1.169446	0.220070	0.162115
C42	C	1.169486	0.220082	0.483191
C43	C	1.169497	0.220089	0.587298
C44	C	1.311628	0.078048	0.587275
C45	C	1.311617	0.078042	0.483175
C46	C	1.240543	0.149063	0.431137
H47	H	0.559128	0.145067	-0.317237
H48	H	0.757785	0.149470	-0.335532
H49	H	1.111606	0.277911	0.440826
H50	H	0.559085	0.145042	0.009900
H51	H	1.244569	-0.169483	-0.260512
H52	H	1.240133	-0.368185	0.084917
H53	H	1.240935	-0.333698	-0.335539
H54	H	1.369481	0.020217	0.440786
H55	H	1.236520	-0.532323	-0.317243
H56	H	1.244542	-0.169529	0.066625
H57	H	1.369455	0.020208	0.308567
H58	H	1.369498	0.020220	0.629651
H59	H	1.236496	-0.532404	0.009888
H60	H	1.369448	0.020207	0.119713
H61	H	1.111635	0.277920	0.629682
H62	H	1.111596	0.277898	0.308610
H63	H	0.723299	0.148682	0.084923
H64	H	0.921927	0.153081	0.066624
H65	H	0.922004	0.153108	-0.260507
H66	H	1.111574	0.277897	0.119746
