data_functionalizedCrystal
_audit_creation_method	'MofGen! by Chris Wilmer'
_symmetry_space_group_name_H-M	'P1'
_symmetry_Int_Tables_number	1
_symmetry_cell_setting	triclinic
loop_
_symmetry_equiv_pos_as_xyz
  x,y,z
_cell_length_a	21.395364
_cell_length_b	12.645330
_cell_length_c	21.395355
_cell_angle_alpha	90.011431
_cell_angle_beta	89.975273
_cell_angle_gamma	89.975480
loop_
_atom_site_label
_atom_site_type_symbol
_atom_site_fract_x
_atom_site_fract_y
_atom_site_fract_z
Zn1	Zn	0.957879	0.422209	-0.354295
Zn2	Zn	1.457879	0.922209	0.145705
Zn3	Zn	0.957789	0.599458	-0.249531
Zn4	Zn	1.457789	1.099458	0.250469
Zn5	Zn	0.853094	0.422204	-0.249532
Zn6	Zn	1.353094	0.922204	0.250468
Zn7	Zn	0.853071	0.599426	-0.354271
Zn8	Zn	1.353071	1.099426	0.145729
O9	O	0.905458	0.510825	-0.301907
O10	O	1.405458	1.010825	0.198093
O11	O	1.045545	0.445737	-0.340408
O12	O	1.545545	0.945737	0.159592
O13	O	0.943873	0.575957	-0.161853
O14	O	1.443873	1.075957	0.338147
O15	O	0.867040	0.273858	-0.263439
O16	O	1.367040	0.773858	0.236561
O17	O	1.045479	0.575962	-0.263438
O18	O	1.545479	1.075962	0.236562
O19	O	0.944026	0.273861	-0.340409
O20	O	1.444026	0.773861	0.159591
O21	O	0.866954	0.445729	-0.161854
O22	O	1.366954	0.945729	0.338146
O23	O	0.765413	0.445698	-0.263415
O24	O	1.265413	0.945698	0.236585
O25	O	0.867002	0.575906	-0.441952
O26	O	1.367002	1.075906	0.058048
O27	O	0.765396	0.575902	-0.340367
O28	O	1.265396	1.075902	0.159633
O29	O	0.944004	0.445706	-0.441970
O30	O	1.444004	0.945706	0.058030
O31	O	0.943852	0.747801	-0.263414
O32	O	1.443852	1.247801	0.236586
O33	O	0.866915	0.747778	-0.340366
O34	O	1.366915	1.247778	0.159634
C35	C	0.742671	0.510796	-0.301889
C36	C	1.242671	1.010796	0.198111
C37	C	0.673029	0.510810	-0.301896
C38	C	1.173029	1.010810	0.198104
C39	C	0.171241	0.578746	-0.341937
C40	C	0.671241	1.078746	0.158063
C41	C	0.236676	0.578746	-0.341930
C42	C	0.736676	1.078746	0.158070
C43	C	0.269391	0.510848	-0.301927
C44	C	0.769391	1.010848	0.198073
C45	C	0.236665	0.442963	-0.261916
C46	C	0.736665	0.942963	0.238084
C47	C	0.171231	0.442972	-0.261919
C48	C	0.671231	0.942972	0.238081
C49	C	0.373075	0.415311	-0.297069
C50	C	0.873075	0.915311	0.202931
C51	C	0.438508	0.415300	-0.297070
C52	C	0.938508	0.915300	0.202930
C53	C	0.471212	0.510820	-0.301913
C54	C	0.971212	1.010820	0.198087
C55	C	0.438474	0.606354	-0.306769
C56	C	0.938474	1.106354	0.193231
C57	C	0.373040	0.606363	-0.306772
C58	C	0.873040	1.106363	0.193228
C59	C	0.340343	0.510831	-0.301919
C60	C	0.840343	1.010831	0.198081
C61	C	0.574883	0.578706	-0.341911
C62	C	1.074883	1.078706	0.158089
C63	C	0.640319	0.578708	-0.341901
C64	C	1.140319	1.078708	0.158099
C65	C	0.640307	0.442915	-0.261889
C66	C	1.140307	0.942915	0.238111
C67	C	0.574871	0.442923	-0.261897
C68	C	1.074871	0.942923	0.238103
C69	C	0.542163	0.510816	-0.301911
C70	C	1.042163	1.010816	0.198089
C71	C	0.905388	0.786254	-0.301901
C72	C	1.405388	1.286254	0.198099
C73	C	0.905416	0.904084	-0.301919
C74	C	1.405416	1.404084	0.198081
C75	C	0.857200	1.071678	-0.350480
C76	C	1.357200	1.571678	0.149520
C77	C	0.856964	0.949118	-0.350323
C78	C	1.356964	1.449118	0.149677
C79	C	0.887534	0.948653	-0.235888
C80	C	1.387534	1.448653	0.264112
C81	C	0.887229	1.071252	-0.236184
C82	C	1.387229	1.571252	0.263816
C83	C	0.971775	1.071183	-0.318857
C84	C	1.471775	1.571183	0.181143
C85	C	0.971379	0.948577	-0.320299
C86	C	1.471379	1.448577	0.179701
C87	C	1.068882	0.510854	-0.301926
C88	C	1.568882	1.010854	0.198074
C89	C	1.138523	0.510866	-0.301933
C90	C	1.638523	1.010866	0.198067
C91	C	0.905510	0.510803	-0.465330
C92	C	1.405510	1.010803	0.034670
C93	C	0.905532	0.510794	-0.534972
C94	C	1.405532	1.010794	-0.034972
C95	C	0.905523	1.234319	-0.301929
C96	C	1.405523	1.734319	0.198071
C97	C	0.905495	1.116489	-0.301945
C98	C	1.405495	1.616489	0.198055
C99	C	0.945625	0.442996	-0.567695
C100	C	1.445625	0.942996	-0.067695
C101	C	0.945625	0.442950	-0.633131
C102	C	1.445625	0.942950	-0.133131
C103	C	0.905537	0.510722	-0.665840
C104	C	1.405537	1.010722	-0.165840
C105	C	0.865437	0.578525	-0.633109
C106	C	1.365437	1.078525	-0.133109
C107	C	0.865434	0.578561	-0.567674
C108	C	1.365434	1.078561	-0.067674
C109	C	0.900566	0.606174	-0.769512
C110	C	1.400566	1.106174	-0.269512
C111	C	0.900573	0.606139	-0.834945
C112	C	1.400573	1.106139	-0.334945
C113	C	0.905541	0.510610	-0.867661
C114	C	1.405541	1.010610	-0.367661
C115	C	0.910516	0.415111	-0.834935
C116	C	1.410516	0.915111	-0.334935
C117	C	0.910514	0.415147	-0.769501
C118	C	1.410514	0.915147	-0.269501
C119	C	0.905535	0.510690	-0.736792
C120	C	1.405535	1.010690	-0.236792
C121	C	0.945635	0.442756	-0.971337
C122	C	1.445635	0.942756	-0.471337
C123	C	0.945630	0.442709	-1.036774
C124	C	1.445630	0.942709	-0.536774
C125	C	0.865445	0.578293	-1.036750
C126	C	1.365445	1.078293	-0.536750
C127	C	0.865447	0.578331	-0.971315
C128	C	1.365447	1.078331	-0.471315
C129	C	0.905546	0.510564	-0.938612
C130	C	1.405546	1.010564	-0.438612
C131	C	0.905443	0.510769	-0.139119
C132	C	1.405443	1.010769	0.360881
C133	C	0.905542	0.510480	-0.069478
C134	C	1.405542	1.010480	0.430522
H135	H	0.144592	0.387694	-0.229343
H136	H	0.644592	0.887694	0.270657
Br137	Br	0.530489	0.670847	-0.396213
Br138	Br	1.030489	1.170847	0.103787
Br139	Br	0.806475	1.119066	-0.212305
Br140	Br	1.306475	1.619066	0.287695
H141	H	0.920878	1.100897	-0.198788
H142	H	1.420878	1.600897	0.301212
H143	H	0.808370	1.102572	-0.339419
H144	H	1.308370	1.602572	0.160581
H145	H	0.978282	0.387571	-0.944709
H146	H	1.478282	0.887571	-0.444709
H147	H	0.896526	0.683900	-0.861586
H148	H	1.396526	1.183900	-0.361586
H149	H	0.868153	0.918983	-0.399284
H150	H	1.368153	1.418983	0.100716
H151	H	0.896352	0.683946	-0.742881
H152	H	1.396352	1.183946	-0.242881
Br153	Br	0.807628	0.897628	-0.211575
Br154	Br	1.307628	1.397628	0.288425
Br155	Br	0.328699	0.285666	-0.290485
Br156	Br	0.828699	0.785666	0.209515
H157	H	0.978278	0.387493	-1.063416
H158	H	1.478278	0.887493	-0.563416
Br159	Br	0.811032	0.670257	-1.081134
Br160	Br	1.311032	1.170257	-0.581134
H161	H	0.988081	1.102045	-0.366188
H162	H	1.488081	1.602045	0.133812
Br163	Br	0.281061	0.350822	-0.207621
Br164	Br	0.781061	0.850822	0.292379
Br165	Br	0.993858	0.900027	-0.401296
Br166	Br	1.493858	1.400027	0.098704
H167	H	1.009262	0.917916	-0.287522
H168	H	1.509262	1.417916	0.212478
H169	H	0.978272	0.387735	-0.659779
H170	H	1.478272	0.887735	-0.159779
Br171	Br	1.031750	1.119500	-0.259948
Br172	Br	1.531750	1.619500	0.240052
H173	H	0.807833	0.919877	-0.339118
H174	H	1.307833	1.419877	0.160882
Br175	Br	1.000042	0.351023	-0.523316
Br176	Br	1.500042	0.851023	-0.023316
Br177	Br	0.944311	0.900041	-0.173963
Br178	Br	1.444311	1.400041	0.326037
Br179	Br	0.811027	0.670494	-0.677498
Br180	Br	1.311027	1.170494	-0.177498
Br181	Br	0.917262	0.285550	-0.725089
Br182	Br	1.417262	0.785550	-0.225089
H183	H	0.868281	1.101108	-0.399603
H184	H	1.368281	1.601108	0.100397
H185	H	0.914563	0.337322	-0.861571
H186	H	1.414563	0.837322	-0.361571
H187	H	0.832783	0.633769	-0.541031
H188	H	1.332783	1.133769	-0.041031
Br189	Br	0.126854	0.670891	-0.396239
Br190	Br	0.626854	1.170891	0.103761
H191	H	0.465100	0.684135	-0.310717
H192	H	0.965100	1.184135	0.189283
H193	H	0.263321	0.634022	-0.374508
H194	H	0.763321	1.134022	0.125492
H195	H	0.346388	0.684150	-0.310724
H196	H	0.846388	1.184150	0.189276
Br197	Br	0.684724	0.670849	-0.396190
Br198	Br	1.184724	1.170849	0.103810
Br199	Br	0.530464	0.350788	-0.207608
Br200	Br	1.030464	0.850788	0.292392
Br201	Br	0.684698	0.350779	-0.207590
Br202	Br	1.184698	0.850779	0.292410
H203	H	0.832803	0.633546	-0.944671
H204	H	1.332803	1.133546	-0.444671
Br205	Br	0.482931	0.285648	-0.290492
Br206	Br	0.982931	0.785648	0.209508
