data_functionalizedCrystal
_audit_creation_method	'MofGen! by Chris Wilmer'
_symmetry_space_group_name_H-M	'P1'
_symmetry_Int_Tables_number	1
_symmetry_cell_setting	triclinic
loop_
_symmetry_equiv_pos_as_xyz
  x,y,z
_cell_length_a	16.109302
_cell_length_b	27.732064
_cell_length_c	15.186229
_cell_angle_alpha	90.000359
_cell_angle_beta	89.994701
_cell_angle_gamma	83.055602
loop_
_atom_site_label
_atom_site_type_symbol
_atom_site_fract_x
_atom_site_fract_y
_atom_site_fract_z
O1	O	1.102367	0.062131	-0.073260
O2	O	0.860210	0.069863	-0.073252
O3	O	0.988803	-0.004368	-0.073260
O4	O	0.973775	0.136362	-0.073252
O5	O	0.988794	-0.004369	0.073198
O6	O	0.860202	0.069862	0.073205
O7	O	1.102359	0.062130	0.073197
Zn8	Zn	0.981279	0.065996	0.096455
Zn9	Zn	0.981290	0.065997	-0.096509
O10	O	0.973767	0.136361	0.073205
C11	C	0.829235	0.069549	-0.000022
C12	C	0.736951	0.068610	-0.000020
C13	C	0.524633	0.066438	0.079805
C14	C	0.437923	0.065550	0.079802
C15	C	0.437943	0.065554	-0.079874
C16	C	0.524652	0.066438	-0.079870
C17	C	0.567993	0.066882	-0.000028
C18	C	0.394576	0.065111	-0.000035
C19	C	0.300562	0.064148	-0.000039
C20	C	0.662014	0.067844	-0.000023
C21	C	0.988481	-0.022376	-0.000034
C22	C	0.987525	-0.076035	-0.000042
C23	C	0.905023	-0.453453	-0.000043
C24	C	0.908543	-0.251778	-0.000044
O25	O	0.844524	-0.220793	-0.000077
N26	N	0.984796	-0.232331	-0.000047
C27	C	1.060174	-0.263307	-0.000055
O28	O	1.125112	-0.242139	-0.000066
C29	C	1.056654	-0.464981	-0.000060
C30	C	0.980396	-0.484424	-0.000048
C31	C	0.828772	-0.472897	-0.000032
C32	C	0.827893	-0.523313	-0.000027
C33	C	0.903265	-0.554285	-0.000032
C34	C	0.979517	-0.534840	-0.000043
C35	C	1.132031	-0.495955	-0.000074
C36	C	1.131144	-0.546376	-0.000077
C37	C	1.054886	-0.565820	-0.000066
C38	C	1.054010	-0.616228	-0.000043
N39	N	0.977757	-0.635674	-0.000041
C40	C	0.902385	-0.604703	-0.000035
C41	C	1.062017	-0.157425	-0.000050
C42	C	1.062897	-0.107006	-0.000047
C43	C	0.911266	-0.095481	-0.000038
C44	C	0.910386	-0.145900	-0.000035
C45	C	0.985764	-0.176871	-0.000048
C46	C	0.900545	-0.710580	-0.000024
C47	C	0.899672	-0.761001	-0.000015
C48	C	1.051303	-0.772522	-0.000029
C49	C	1.052176	-0.722105	-0.000033
C50	C	0.976790	-0.691135	-0.000033
O51	O	1.117994	-0.647241	-0.000020
O52	O	0.837456	-0.625880	-0.000044
C53	C	0.905902	-0.403037	-0.000048
C54	C	0.982154	-0.383593	-0.000058
C55	C	1.057526	-0.414564	-0.000064
C56	C	0.983034	-0.333175	-0.000055
C57	C	0.907662	-0.302203	-0.000050
C58	C	0.831409	-0.321650	-0.000047
C59	C	0.830530	-0.372066	-0.000042
C60	C	1.133779	-0.395118	-0.000066
C61	C	1.134652	-0.344701	-0.000070
C62	C	1.059280	-0.313730	-0.000065
C63	C	1.133334	0.062444	-0.000034
C64	C	1.225618	0.063383	-0.000043
C65	C	0.974089	0.154369	-0.000023
C66	C	0.975045	0.208028	-0.000020
N67	N	0.981277	0.065995	0.228147
N68	N	0.981298	0.065995	-0.228202
C69	C	1.038237	0.033136	0.453867
C70	C	1.038240	0.033135	0.546056
C71	C	0.924333	0.098854	0.546072
C72	C	0.924327	0.098853	0.453884
C73	C	0.981284	0.065994	0.407784
C74	C	0.981292	0.065995	0.592162
C75	C	0.981295	0.065994	0.692118
C76	C	0.981280	0.065995	0.307821
H77	H	0.559957	0.066799	-0.144883
H78	H	0.839158	-0.685370	-0.000025
H79	H	1.084615	0.006379	0.583575
Br80	Br	0.379120	0.064936	-0.188225
H81	H	0.848290	-0.161727	-0.000022
Br82	Br	0.796173	-0.787385	0.000005
H83	H	0.877961	0.125608	0.583616
H84	H	0.877944	0.125610	0.416361
Br85	Br	0.808975	-0.053439	-0.000029
H86	H	0.765796	-0.539139	-0.000025
Br87	Br	0.726466	-0.430873	-0.000029
Br88	Br	0.583452	0.067039	0.188161
H89	H	0.768433	-0.387892	-0.000032
H90	H	1.084614	0.006380	0.416334
H91	H	1.124994	-0.091180	-0.000043
H92	H	1.112669	-0.797748	-0.000029
Br93	Br	0.379080	0.064946	0.188151
H94	H	1.123402	-0.182638	-0.000059
H95	H	1.194128	-0.480133	-0.000084
H96	H	1.192527	-0.571591	-0.000093
H97	H	1.114271	-0.706274	-0.000030
Br98	Br	1.238155	-0.318321	-0.000085
Br99	Br	0.729119	-0.279607	-0.000034
H100	H	1.195158	-0.420330	-0.000072
