data_functionalizedCrystal
_audit_creation_method	'MofGen! by Chris Wilmer'
_symmetry_space_group_name_H-M	'P1'
_symmetry_Int_Tables_number	1
_symmetry_cell_setting	triclinic
loop_
_symmetry_equiv_pos_as_xyz
  x,y,z
_cell_length_a	14.628931
_cell_length_b	14.628931
_cell_length_c	20.875641
_cell_angle_alpha	62.440404
_cell_angle_beta	90.001288
_cell_angle_gamma	59.999864
loop_
_atom_site_label
_atom_site_type_symbol
_atom_site_fract_x
_atom_site_fract_y
_atom_site_fract_z
Zr1	Zr	0.884859	0.992088	-0.081201
O2	O	0.744061	1.172461	-0.179997
O3	O	0.928022	0.804550	-0.050914
O4	O	0.934767	0.981755	-0.179997
O5	O	0.731994	1.005905	0.050909
O6	O	1.085199	0.981755	-0.179997
O7	O	0.737316	0.995256	-0.050914
O8	O	1.073133	0.664767	0.050909
O9	O	0.744061	1.322893	-0.179997
O10	O	1.058695	0.884341	-0.037997
O11	O	0.942458	0.892288	0.037992
O12	O	0.950400	1.100925	-0.113987
O13	O	0.834163	1.108872	-0.037997
Zr14	Zr	1.116294	1.009073	0.081195
Zr15	Zr	1.124781	0.992088	-0.081201
Zr16	Zr	0.876372	1.009073	0.081195
Zr17	Zr	0.884859	1.232010	-0.081201
Zr18	Zr	1.116294	0.769151	0.081195
O19	O	1.073132	1.196611	0.050908
O20	O	1.085199	1.172461	-0.179998
O21	O	0.731994	1.196611	0.050909
O22	O	1.257092	0.828700	0.179992
O23	O	1.269159	0.804549	-0.050914
O24	O	0.915955	0.828700	0.179992
O25	O	1.269159	0.995255	-0.050915
O26	O	1.066386	1.019406	0.179992
O27	O	0.915954	1.019406	0.179992
O28	O	1.263838	1.005905	0.050908
O29	O	0.934766	1.322893	-0.179998
O30	O	1.066387	0.678267	0.179992
O31	O	1.257092	0.678267	0.179992
O32	O	1.263838	0.664767	0.050909
O33	O	0.737315	1.336394	-0.050914
O34	O	0.928021	1.336394	-0.050915
O35	O	1.050753	0.900236	0.113981
O36	O	1.166990	0.892288	0.037992
O37	O	1.058695	1.108872	-0.037998
O38	O	0.942458	1.116820	0.037992
C39	C	1.000577	0.700474	-0.000002
C40	C	1.000577	0.598621	-0.000002
C41	C	1.076549	0.374765	0.053307
C42	C	1.076551	0.480033	0.053308
C43	C	0.700471	1.000580	-0.000002
C44	C	0.598618	1.000580	-0.000002
C45	C	0.555995	0.995005	-0.053312
C46	C	0.450725	0.995005	-0.053313
C47	C	1.300682	1.000580	-0.000003
C48	C	1.402535	1.000580	-0.000003
C49	C	1.011192	0.979335	-0.203135
C50	C	1.014795	0.972124	-0.272076
C51	C	1.000576	1.300686	-0.000003
C52	C	1.000576	1.402539	-0.000003
C53	C	0.959961	1.081789	-0.344131
C54	C	0.963360	1.075006	-0.408906
C55	C	1.021588	0.958558	-0.401625
C56	C	1.076429	0.848886	-0.329563
C57	C	1.073036	0.855670	-0.264789
C58	C	1.037806	0.926147	-0.591094
C59	C	1.041193	0.919372	-0.655875
C60	C	0.928125	1.145493	-0.735213
C61	C	0.924731	1.152266	-0.670435
C62	C	0.979576	1.042594	-0.598379
N63	N	1.025062	0.951623	-0.467834
N64	N	0.976109	1.049531	-0.532171
C65	C	0.989961	1.021826	0.203130
C66	C	0.986358	1.029036	0.272071
C67	C	1.300682	0.700474	-0.000003
C68	C	1.402536	0.598621	-0.000003
C69	C	0.989962	0.721720	0.203130
C70	C	0.986359	0.627077	0.272071
C71	C	1.290067	0.721720	0.203130
C72	C	1.388317	0.627077	0.272071
C73	C	0.711086	1.279441	-0.203135
C74	C	0.612836	1.374083	-0.272076
C75	C	0.700471	1.300686	-0.000003
C76	C	0.598618	1.402539	-0.000003
C77	C	1.011192	1.279441	-0.203136
C78	C	1.014794	1.374083	-0.272077
C79	C	1.041195	0.586781	0.344119
C80	C	1.037806	0.497868	0.408903
C81	C	0.979586	0.449246	0.401638
C82	C	0.924742	0.489551	0.329582
C83	C	0.928126	0.578469	0.264800
C84	C	1.495141	0.578483	0.264781
C85	C	1.587467	0.489569	0.329552
C86	C	1.572967	0.449244	0.401613
C87	C	1.466132	0.497847	0.408902
C88	C	1.373808	0.586766	0.344131
C89	C	0.506012	1.422689	-0.264786
C90	C	0.413686	1.511633	-0.329558
C91	C	0.428186	1.551963	-0.401619
C92	C	0.535021	1.503354	-0.408907
C93	C	0.627345	1.414418	-0.344137
C94	C	1.073024	1.422678	-0.264787
C95	C	1.076431	1.511592	-0.329559
C96	C	1.021600	1.551918	-0.401619
C97	C	0.963368	1.503315	-0.408908
C98	C	0.959969	1.414395	-0.344137
C99	C	1.394224	0.549269	-0.037699
C100	C	1.499493	0.443999	-0.037699
H101	H	1.141590	0.456429	0.098951
H102	H	0.326705	1.551196	-0.323608
H103	H	1.487586	0.562942	0.032266
H104	H	1.123848	1.551157	-0.323609
Br105	Br	0.975004	0.328572	0.489566
H106	H	0.439190	1.005361	0.045638
H107	H	0.935537	0.504251	-0.045645
H108	H	1.082470	0.465063	0.467568
Br109	Br	1.698277	0.328566	0.489510
Br110	Br	0.389612	0.987063	-0.129394
H111	H	0.883475	0.611265	0.206138
H112	H	0.918727	1.536162	-0.467588
H113	H	0.935528	0.622235	-0.045644
Br114	Br	1.487911	0.373281	-0.091486
Br115	Br	1.446472	0.443107	0.506705
Br116	Br	1.228836	0.652699	0.354039
H117	H	0.597440	0.990225	-0.098950
Br118	Br	1.252473	0.608742	-0.091497
Br119	Br	0.302876	1.672664	-0.489516
H120	H	1.117687	0.766369	-0.206119
Br121	Br	0.888939	1.223843	-0.506695
H122	H	0.546814	1.536203	-0.467587
Br123	Br	0.529560	1.008522	0.076077
Br124	Br	0.880928	1.239833	-0.354022
Br125	Br	1.610208	0.473228	0.053799
H126	H	0.883473	1.234782	-0.793887
Br127	Br	1.184971	0.205240	0.129377
H128	H	1.024376	1.624323	-0.454354
Br129	Br	0.772317	1.348457	-0.354044
H130	H	0.877319	1.247091	-0.676372
H131	H	1.088608	0.824541	-0.649938
H132	H	1.082466	0.836844	-0.532431
Br133	Br	1.732444	0.423623	0.319643
Br134	Br	0.486303	1.367972	-0.166997
H135	H	1.117675	1.389859	-0.206117
H136	H	1.123846	0.754072	-0.323639
H137	H	1.088605	0.626360	0.350050
Br138	Br	0.845734	0.423551	0.319735
H139	H	1.506969	0.611302	0.206111
H140	H	0.912546	1.374839	-0.350083
