data_functionalizedCrystal
_audit_creation_method	'MofGen! by Chris Wilmer'
_symmetry_space_group_name_H-M	'P1'
_symmetry_Int_Tables_number	1
_symmetry_cell_setting	triclinic
loop_
_symmetry_equiv_pos_as_xyz
  x,y,z
_cell_length_a	12.837943
_cell_length_b	10.654550
_cell_length_c	11.295483
_cell_angle_alpha	94.136004
_cell_angle_beta	85.461227
_cell_angle_gamma	89.656922
loop_
_atom_site_label
_atom_site_type_symbol
_atom_site_fract_x
_atom_site_fract_y
_atom_site_fract_z
O1	O	1.384729	0.319125	-0.098998
O2	O	1.082808	0.302983	-0.099005
O3	O	1.240710	0.129073	-0.098997
O4	O	1.226827	0.493035	-0.099006
O5	O	1.226841	0.144321	0.099053
O6	O	1.068938	0.318232	0.099045
O7	O	1.370860	0.334374	0.099052
Cu8	Cu	1.218633	0.327695	0.117132
Cu9	Cu	1.235034	0.309662	-0.117085
O10	O	1.212958	0.508284	0.099044
C11	C	1.037213	0.305155	0.000019
C12	C	0.922019	0.288892	0.000016
C13	C	0.682466	0.484398	0.000028
C14	C	0.574230	0.469123	0.000026
C15	C	0.597310	0.243071	0.000019
C16	C	0.705546	0.258345	0.000021
C17	C	0.748119	0.379012	0.000024
C18	C	0.856358	0.394285	0.000017
C19	C	0.879435	0.168234	0.000018
C20	C	0.771199	0.152960	0.000017
C21	C	1.232756	0.089788	0.000027
C22	C	1.229706	-0.049989	0.000022
C23	C	1.322676	-0.119329	0.000028
C24	C	1.319805	-0.250663	0.000020
C25	C	1.130985	-0.243306	0.000005
C26	C	1.133858	-0.111974	0.000005
C27	C	1.418525	-0.057343	0.000046
C28	C	1.511502	-0.126683	0.000053
C29	C	1.508631	-0.258018	0.000045
C30	C	1.412782	-0.320013	0.000029
C31	C	1.416454	0.332202	0.000025
C32	C	1.531648	0.348464	0.000020
C33	C	1.220912	0.547569	0.000018
C34	C	1.223962	0.687345	0.000014
N35	N	1.207104	0.340379	0.281868
N36	N	1.246571	0.296969	-0.281821
C37	C	1.329560	0.205592	0.531164
C38	C	1.320855	0.215188	0.655827
C39	C	1.180985	0.369157	0.655860
C40	C	1.189690	0.359562	0.531196
C41	C	1.263981	0.277778	0.468853
C42	C	1.272690	0.268191	0.344187
C43	C	1.132816	0.422153	0.344222
C44	C	1.124111	0.431748	0.468886
H45	H	0.717130	0.582649	0.000028
H46	H	1.052949	-0.293793	-0.000006
C47	C	1.031593	-0.035696	0.000000
H48	H	0.974097	-0.091418	0.000006
H49	H	1.033631	0.010374	-0.069065
H50	H	1.023953	0.021006	0.069073
H51	H	0.891019	0.492538	0.000021
H52	H	0.932903	0.082422	0.000007
H53	H	1.120493	0.435734	0.706636
C54	C	0.724367	0.020235	0.000009
H55	H	0.778973	-0.040341	0.000011
H56	H	0.687457	0.004268	-0.069055
H57	H	0.677791	0.014888	0.069082
H58	H	0.520778	0.554940	0.000033
C59	C	1.409619	-0.464478	0.000013
H60	H	1.339223	-0.491465	-0.000001
H61	H	1.439001	-0.490240	0.069074
H62	H	1.448673	-0.500855	-0.069063
H63	H	0.562620	0.144837	0.000116
C64	C	1.042403	0.521708	0.537470
H65	H	1.046614	0.517091	0.620639
H66	H	0.974488	0.498166	0.517055
H67	H	1.055714	0.605381	0.517036
C68	C	1.421682	0.087120	0.000051
H69	H	1.352583	0.119540	0.000052
H70	H	1.462042	0.110163	-0.069005
H71	H	1.452353	0.120783	0.069133
H72	H	1.589541	-0.076201	0.000036
H73	H	1.374254	0.156405	0.706557
C74	C	1.610899	-0.334289	0.000050
H75	H	1.668389	-0.278558	0.000069
H76	H	1.618548	-0.390990	-0.069014
H77	H	1.608860	-0.380357	0.069123
H78	H	1.333184	0.201602	0.293428
C79	C	1.060688	0.501576	0.275678
H80	H	1.076511	0.484152	0.192504
H81	H	1.071143	0.588385	0.296118
H82	H	0.989913	0.481175	0.296114
H83	H	1.390057	0.139010	0.480402
