data_functionalizedCrystal
_audit_creation_method	'MofGen! by Chris Wilmer'
_symmetry_space_group_name_H-M	'P1'
_symmetry_Int_Tables_number	1
_symmetry_cell_setting	triclinic
loop_
_symmetry_equiv_pos_as_xyz
  x,y,z
_cell_length_a	16.120530
_cell_length_b	16.120484
_cell_length_c	16.120297
_cell_angle_alpha	95.614431
_cell_angle_beta	90.128140
_cell_angle_gamma	90.167327
loop_
_atom_site_label
_atom_site_type_symbol
_atom_site_fract_x
_atom_site_fract_y
_atom_site_fract_z
Zn1	Zn	1.224987	-0.422264	-0.554813
Zn2	Zn	1.474987	-0.172264	-0.304813
Zn3	Zn	1.724987	0.077736	-0.054813
Zn4	Zn	1.974987	0.327736	0.195187
Zn5	Zn	1.224883	-0.554948	-0.422118
Zn6	Zn	1.474883	-0.304948	-0.172118
Zn7	Zn	1.724883	-0.054948	0.077882
Zn8	Zn	1.974883	0.195052	0.327882
Zn9	Zn	1.093726	-0.408180	-0.408056
Zn10	Zn	1.343726	-0.158180	-0.158056
Zn11	Zn	1.593726	0.091820	0.091944
Zn12	Zn	1.843726	0.341820	0.341944
Zn13	Zn	1.078880	-0.554181	-0.554051
Zn14	Zn	1.328880	-0.304181	-0.304051
Zn15	Zn	1.578880	-0.054181	-0.054051
Zn16	Zn	1.828880	0.195819	0.195949
O17	O	1.155619	-0.484893	-0.484760
O18	O	1.405619	-0.234893	-0.234760
O19	O	1.655619	0.015107	0.015240
O20	O	1.905619	0.265107	0.265240
O21	O	1.341009	-0.446081	-0.543415
O22	O	1.591009	-0.196081	-0.293415
O23	O	1.841009	0.053919	-0.043415
O24	O	2.091009	0.303919	0.206585
O25	O	1.213654	-0.529906	-0.303620
O26	O	1.463654	-0.279906	-0.053620
O27	O	1.713654	-0.029906	0.196380
O28	O	1.963654	0.220094	0.446380
O29	O	1.117395	-0.293418	-0.421958
O30	O	1.367395	-0.043418	-0.171958
O31	O	1.617395	0.206582	0.078042
O32	O	1.867395	0.456582	0.328042
O33	O	1.340932	-0.543563	-0.445925
O34	O	1.590932	-0.293563	-0.195925
O35	O	1.840932	-0.043563	0.054075
O36	O	2.090932	0.206437	0.304075
O37	O	1.213832	-0.303765	-0.529780
O38	O	1.463832	-0.053765	-0.279780
O39	O	1.713832	0.196235	-0.029780
O40	O	1.963832	0.446235	0.220220
O41	O	1.117294	-0.422076	-0.293289
O42	O	1.367294	-0.172076	-0.043289
O43	O	1.617294	0.077924	0.206711
O44	O	1.867294	0.327924	0.456711
O45	O	0.975721	-0.421332	-0.421218
O46	O	1.225721	-0.171332	-0.171218
O47	O	1.475721	0.078668	0.078782
O48	O	1.725721	0.328668	0.328782
O49	O	1.092092	-0.542255	-0.670785
O50	O	1.342092	-0.292255	-0.420785
O51	O	1.592092	-0.042255	-0.170785
O52	O	1.842092	0.207745	0.079215
O53	O	0.964814	-0.528598	-0.528480
O54	O	1.214814	-0.278598	-0.278480
O55	O	1.464814	-0.028598	-0.028480
O56	O	1.714814	0.221402	0.221520
O57	O	1.199436	-0.445336	-0.671345
O58	O	1.449436	-0.195336	-0.421345
O59	O	1.699436	0.054664	-0.171345
O60	O	1.949436	0.304664	0.078655
O61	O	1.199258	-0.671477	-0.445185
O62	O	1.449258	-0.421477	-0.195185
O63	O	1.699258	-0.171477	0.054815
O64	O	1.949258	0.078523	0.304815
O65	O	1.091990	-0.670913	-0.542116
O66	O	1.341990	-0.420913	-0.292116
O67	O	1.591990	-0.170913	-0.042116
O68	O	1.841990	0.079087	0.207884
C69	C	0.940181	-0.473354	-0.473241
C70	C	1.190181	-0.223354	-0.223241
C71	C	1.440181	0.026646	0.026759
C72	C	1.690181	0.276646	0.276759
C73	C	0.848013	-0.468438	-0.468334
C74	C	1.098013	-0.218438	-0.218334
C75	C	1.348013	0.031562	0.031666
C76	C	1.598013	0.281562	0.281666
C77	C	0.679262	-0.459445	-0.459381
C78	C	0.929262	-0.209445	-0.209381
C79	C	1.179262	0.040555	0.040619
C80	C	1.429262	0.290555	0.290619
C81	C	0.632810	-0.510407	-0.510202
C82	C	0.882810	-0.260407	-0.260202
C83	C	1.132810	-0.010407	-0.010202
C84	C	1.382810	0.239593	0.239798
C85	C	0.538911	-0.505403	-0.505220
C86	C	0.788911	-0.255403	-0.255220
C87	C	1.038911	-0.005403	-0.005220
C88	C	1.288911	0.244597	0.244780
C89	C	0.773169	-0.464448	-0.464361
C90	C	1.023169	-0.214448	-0.214361
C91	C	1.273169	0.035552	0.035639
C92	C	1.523169	0.285552	0.285639
C93	C	1.144023	-0.701438	-0.495113
C94	C	1.394023	-0.451438	-0.245113
C95	C	1.644023	-0.201438	0.004887
C96	C	1.894023	0.048562	0.254887
C97	C	1.139137	-0.794083	-0.499574
C98	C	1.389137	-0.544083	-0.249574
C99	C	1.639137	-0.294083	0.000426
C100	C	1.889137	-0.044083	0.250426
C101	C	1.130220	-0.963706	-0.507736
C102	C	1.380220	-0.713706	-0.257736
C103	C	1.630220	-0.463706	-0.007736
C104	C	1.880220	-0.213706	0.242264
C105	C	1.181166	-1.005249	-0.461804
C106	C	1.431166	-0.755249	-0.211804
C107	C	1.681166	-0.505249	0.038196
C108	C	1.931166	-0.255249	0.288196
C109	C	1.176204	-1.099633	-0.466346
C110	C	1.426204	-0.849633	-0.216346
C111	C	1.676204	-0.599633	0.033654
C112	C	1.926204	-0.349633	0.283654
C113	C	1.135180	-0.869313	-0.503196
C114	C	1.385180	-0.619313	-0.253196
C115	C	1.635180	-0.369313	-0.003196
C116	C	1.885180	-0.119313	0.246804
C117	C	1.371899	-0.496479	-0.496324
C118	C	1.621899	-0.246479	-0.246324
C119	C	1.871899	0.003521	0.003676
C120	C	2.121899	0.253521	0.253676
C121	C	1.464064	-0.501416	-0.501252
C122	C	1.714064	-0.251416	-0.251252
C123	C	1.964064	-0.001416	-0.001252
C124	C	2.214064	0.248584	0.248748
C125	C	1.144119	-0.495281	-0.702152
C126	C	1.394119	-0.245281	-0.452152
C127	C	1.644119	0.004719	-0.202152
C128	C	1.894119	0.254719	0.047848
C129	C	1.139219	-0.499708	-0.794791
C130	C	1.389219	-0.249708	-0.544791
C131	C	1.639219	0.000292	-0.294791
C132	C	1.889219	0.250292	-0.044791
C133	C	1.167282	-0.267505	-0.474385
C134	C	1.417282	-0.017505	-0.224385
C135	C	1.667282	0.232495	0.025615
C136	C	1.917282	0.482495	0.275615
C137	C	1.172251	-0.174867	-0.469964
C138	C	1.422251	0.075133	-0.219964
C139	C	1.672251	0.325133	0.030036
C140	C	1.922251	0.575133	0.280036
C141	C	1.130243	-0.507770	-0.964403
C142	C	1.380243	-0.257770	-0.714403
C143	C	1.630243	-0.007770	-0.464403
C144	C	1.880243	0.242230	-0.214403
C145	C	1.181172	-0.461776	-1.005965
C146	C	1.431172	-0.211776	-0.755965
C147	C	1.681172	0.038224	-0.505965
C148	C	1.931172	0.288224	-0.255965
C149	C	1.176177	-0.466262	-1.100342
C150	C	1.426177	-0.216262	-0.850342
C151	C	1.676177	0.033738	-0.600342
C152	C	1.926177	0.283738	-0.350342
C153	C	1.135236	-0.503285	-0.870017
C154	C	1.385236	-0.253285	-0.620017
C155	C	1.635236	-0.003285	-0.370017
C156	C	1.885236	0.246715	-0.120017
C157	C	1.167125	-0.474489	-0.268213
C158	C	1.417125	-0.224489	-0.018213
C159	C	1.667125	0.025511	0.231787
C160	C	1.917125	0.275511	0.481787
C161	C	1.172198	-0.469836	-0.175571
C162	C	1.422198	-0.219836	0.074429
C163	C	1.672198	0.030164	0.324429
C164	C	1.922198	0.280164	0.574429
H165	H	0.663563	-0.557794	-0.557453
H166	H	0.913563	-0.307794	-0.307453
H167	H	1.163563	-0.057794	-0.057453
H168	H	1.413563	0.192206	0.192547
H169	H	1.228508	-0.969931	-0.419069
H170	H	1.478508	-0.719931	-0.169069
H171	H	1.728508	-0.469931	0.080931
H172	H	1.978508	-0.219931	0.330931
H173	H	1.228524	-0.419031	-0.970668
H174	H	1.478524	-0.169031	-0.720668
H175	H	1.728524	0.080969	-0.470668
H176	H	1.978524	0.330969	-0.220668
C177	C	1.107640	-0.623831	-1.067165
C178	C	1.357640	-0.373831	-0.817165
C179	C	1.607640	-0.123831	-0.567165
C180	C	1.857640	0.126169	-0.317165
C181	C	1.066327	-0.565479	-1.012045
C182	C	1.316327	-0.315479	-0.762045
C183	C	1.566327	-0.065479	-0.512045
C184	C	1.816327	0.184521	-0.262045
H185	H	1.068182	-0.659461	-1.096580
H186	H	1.318182	-0.409461	-0.846580
H187	H	1.568182	-0.159461	-0.596580
H188	H	1.818182	0.090539	-0.346580
H189	H	1.138930	-0.595557	-1.105636
H190	H	1.388930	-0.345557	-0.855636
H191	H	1.638930	-0.095557	-0.605636
H192	H	1.888930	0.154443	-0.355636
H193	H	1.143817	-0.656058	-1.036654
H194	H	1.393817	-0.406058	-0.786654
H195	H	1.643817	-0.156058	-0.536654
H196	H	1.893817	0.093942	-0.286654
H197	H	1.030154	-0.533247	-1.042556
H198	H	1.280154	-0.283247	-0.792556
H199	H	1.530154	-0.033247	-0.542556
H200	H	1.780154	0.216753	-0.292556
H201	H	1.035023	-0.593755	-0.973569
H202	H	1.285023	-0.343755	-0.723569
H203	H	1.535023	-0.093755	-0.473569
H204	H	1.785023	0.156245	-0.223569
C205	C	0.551419	-0.402850	-0.402945
C206	C	0.801419	-0.152850	-0.152945
C207	C	1.051419	0.097150	0.097055
C208	C	1.301419	0.347150	0.347055
C209	C	0.637753	-0.395480	-0.395593
C210	C	0.887753	-0.145480	-0.145593
C211	C	1.137753	0.104520	0.104407
C212	C	1.387753	0.354520	0.354407
H213	H	0.525789	-0.363365	-0.363560
H214	H	0.775789	-0.113365	-0.113560
H215	H	1.025789	0.136635	0.136440
H216	H	1.275789	0.386635	0.386440
H217	H	0.534982	-0.392671	-0.457644
H218	H	0.784982	-0.142671	-0.207644
H219	H	1.034982	0.107329	0.042356
H220	H	1.284982	0.357329	0.292356
H221	H	0.534937	-0.457510	-0.392602
H222	H	0.784937	-0.207510	-0.142602
H223	H	1.034937	0.042490	0.107398
H224	H	1.284937	0.292490	0.357398
H225	H	0.654236	-0.340821	-0.405942
H226	H	0.904236	-0.090821	-0.155942
H227	H	1.154236	0.159179	0.094058
H228	H	1.404236	0.409179	0.344058
H229	H	0.654197	-0.405652	-0.340882
H230	H	0.904197	-0.155652	-0.090882
H231	H	1.154197	0.094348	0.159118
H232	H	1.404197	0.344348	0.409118
H233	H	1.082881	-0.999022	-0.550467
H234	H	1.332881	-0.749022	-0.300467
H235	H	1.582881	-0.499022	-0.050467
H236	H	1.832881	-0.249022	0.199533
