data_functionalizedCrystal
_audit_creation_method	'MofGen! by Chris Wilmer'
_symmetry_space_group_name_H-M	'P1'
_symmetry_Int_Tables_number	1
_symmetry_cell_setting	triclinic
loop_
_symmetry_equiv_pos_as_xyz
  x,y,z
_cell_length_a	6.817900
_cell_length_b	16.418049
_cell_length_c	10.992410
_cell_angle_alpha	93.843616
_cell_angle_beta	108.764651
_cell_angle_gamma	103.389670
loop_
_atom_site_label
_atom_site_type_symbol
_atom_site_fract_x
_atom_site_fract_y
_atom_site_fract_z
V1	V	-4.086920	-0.115886	-0.401046
O2	O	-4.073689	0.005569	-0.392946
O3	O	-4.037641	-0.229782	-0.398750
O4	O	-4.064933	-0.114103	-0.575751
O5	O	-4.046208	-0.110911	-0.214720
V6	V	-4.567240	-0.101359	-0.378705
O7	O	-4.355206	-0.147753	-0.450051
O8	O	-4.749152	-0.069492	-0.329699
O9	O	-4.393313	0.012538	-0.381000
O10	O	-4.697868	-0.222813	-0.386805
O11	O	-4.725349	-0.106334	-0.565031
O12	O	-4.366021	-0.103141	-0.204000
C13	C	-3.881573	-0.257548	-0.392539
C14	C	-3.922744	-0.350660	-0.391827
C15	C	-4.200504	-0.569149	-0.396640
C16	C	-4.239178	-0.656639	-0.395982
C17	C	-3.873016	-0.648094	-0.383119
C18	C	-3.834349	-0.560608	-0.383786
C19	C	-3.998096	-0.521137	-0.390540
C20	C	-4.075438	-0.696113	-0.389215
C21	C	-4.117369	-0.790973	-0.388502
C22	C	-3.956164	-0.426271	-0.391256
C23	C	-3.916385	-0.109987	-0.618320
C24	C	-3.979686	-0.109283	-0.761145
C25	C	-3.848321	-0.102870	-0.956243
C26	C	-3.782517	-0.103949	-0.807764
C27	C	-4.158227	-0.191869	-0.838572
C28	C	-4.222713	-0.191138	-0.987135
C29	C	-4.138189	-0.031223	-0.948479
C30	C	-4.067573	-0.030831	-0.799465
C31	C	-4.212722	0.040299	-0.387208
C32	C	-4.150791	0.133410	-0.387928
C33	C	-4.177909	-0.107261	-0.161424
C34	C	-4.093847	-0.107960	-0.018597
H35	H	-4.333839	-0.537015	-0.402138
C36	C	-3.601070	-0.023656	-0.735467
C37	C	-3.386504	-0.006124	-0.760392
C38	C	-3.205146	0.074208	-0.688144
C39	C	-3.238355	0.137008	-0.590971
C40	C	-3.452931	0.119479	-0.566042
C41	C	-3.634288	0.039146	-0.638290
H42	H	-3.361913	-0.052615	-0.832329
H43	H	-3.046303	0.087184	-0.706599
H44	H	-3.104103	0.196475	-0.537488
H45	H	-3.477522	0.165969	-0.494105
H46	H	-3.793132	0.026170	-0.619835
C47	C	-3.709026	-0.022100	-0.981375
C48	C	-3.734193	-0.007148	-1.121771
C49	C	-3.594905	0.073625	-1.146914
C50	C	-3.430450	0.139446	-1.031662
C51	C	-3.405277	0.124495	-0.891256
C52	C	-3.544565	0.043722	-0.866113
H53	H	-3.855938	-0.055874	-1.207096
H54	H	-3.613540	0.084692	-1.250852
H55	H	-3.327341	0.199239	-1.050275
H56	H	-3.283532	0.173221	-0.805931
H57	H	-3.525929	0.032655	-0.762175
H58	H	-4.306979	-0.198754	-0.809795
C59	C	-3.797053	-0.177361	-1.021346
C60	C	-3.977060	-0.242703	-1.130772
C61	C	-3.925803	-0.317198	-1.195871
C62	C	-3.694538	-0.326351	-1.151545
C63	C	-3.514515	-0.261007	-1.042113
C64	C	-3.565773	-0.186512	-0.977014
H65	H	-4.148270	-0.235929	-1.163590
H66	H	-4.059069	-0.365569	-1.276880
H67	H	-3.656594	-0.381496	-1.199736
H68	H	-3.343305	-0.267781	-1.009295
H69	H	-3.432507	-0.138140	-0.896005
C70	C	-3.687457	-0.179468	-0.774522
C71	C	-3.671269	-0.238985	-0.883160
C72	C	-3.576209	-0.314508	-0.849920
C73	C	-3.497336	-0.330515	-0.708041
C74	C	-3.513522	-0.270997	-0.599394
C75	C	-3.608582	-0.195474	-0.632634
H76	H	-3.729657	-0.227137	-0.988196
H77	H	-3.564227	-0.358567	-0.930349
H78	H	-3.426967	-0.386422	-0.683435
H79	H	-3.455133	-0.282845	-0.494358
H80	H	-3.620563	-0.151415	-0.552205
H81	H	-4.403996	-0.695727	-0.400952
C82	C	-4.077863	-0.270561	-0.804301
C83	C	-4.011747	-0.287945	-0.662821
C84	C	-3.931370	-0.366634	-0.628553
C85	C	-3.917108	-0.427939	-0.735763
C86	C	-3.983225	-0.410555	-0.877252
C87	C	-4.063603	-0.331866	-0.911521
H88	H	-4.022303	-0.242563	-0.583449
H89	H	-3.882425	-0.379502	-0.523813
H90	H	-3.857608	-0.486189	-0.710396
H91	H	-3.972670	-0.455938	-0.956624
H92	H	-4.112547	-0.318999	-1.016261
C93	C	-4.019133	0.053507	-0.975627
C94	C	-3.851793	0.119847	-0.862109
C95	C	-3.732714	0.204574	-0.889251
C96	C	-3.780976	0.222961	-1.029911
C97	C	-3.948324	0.156619	-1.143439
C98	C	-4.067403	0.071892	-1.116297
H99	H	-3.816060	0.106237	-0.757975
H100	H	-3.608832	0.253684	-0.805210
H101	H	-3.692827	0.285681	-1.050004
H102	H	-3.984057	0.170229	-1.247573
H103	H	-4.191285	0.022782	-1.200338
H104	H	-3.739703	-0.680242	-0.377617
H105	H	-3.669520	-0.521515	-0.378823
H106	H	-4.193449	-0.249242	-1.033632
H107	H	-4.403021	-0.198320	-1.029795
H108	H	-3.938726	0.030262	-0.746868
H109	H	-4.209914	-0.029861	-0.766949
H110	H	-4.316466	-0.034224	-0.989331
