data_functionalizedCrystal
_audit_creation_method	'MofGen! by Chris Wilmer'
_symmetry_space_group_name_H-M	'P1'
_symmetry_Int_Tables_number	1
_symmetry_cell_setting	triclinic
loop_
_symmetry_equiv_pos_as_xyz
  x,y,z
_cell_length_a	10.686220
_cell_length_b	21.295417
_cell_length_c	10.686551
_cell_angle_alpha	85.588773
_cell_angle_beta	90.308082
_cell_angle_gamma	94.411800
loop_
_atom_site_label
_atom_site_type_symbol
_atom_site_fract_x
_atom_site_fract_y
_atom_site_fract_z
Zn1	Zn	1.972206	-0.153472	-0.562356
Zn2	Zn	2.472206	0.346528	-0.062356
Zn3	Zn	1.955916	-0.267412	-0.352576
Zn4	Zn	2.455916	0.232588	0.147424
Zn5	Zn	1.746316	-0.169576	-0.368671
Zn6	Zn	2.246316	0.330424	0.131329
Zn7	Zn	1.762347	-0.266137	-0.578354
Zn8	Zn	2.262347	0.233863	-0.078354
O9	O	1.859196	-0.214149	-0.465489
O10	O	2.359196	0.285851	0.034511
O11	O	2.145590	-0.162381	-0.521098
O12	O	2.645590	0.337619	-0.021098
O13	O	1.914586	-0.261707	-0.179164
O14	O	2.414586	0.238293	0.320836
O15	O	1.776389	-0.079345	-0.394404
O16	O	2.276389	0.420655	0.105596
O17	O	2.133622	-0.246092	-0.366973
O18	O	2.633622	0.253908	0.133027
O19	O	1.942350	-0.067514	-0.536704
O20	O	2.442350	0.432486	-0.036704
O21	O	1.760594	-0.189827	-0.190989
O22	O	2.260594	0.310173	0.309011
O23	O	1.572897	-0.188590	-0.409916
O24	O	2.072897	0.311410	0.090084
O25	O	1.803712	-0.243918	-0.751778
O26	O	2.303712	0.256082	-0.251778
O27	O	1.584676	-0.259533	-0.563969
O28	O	2.084676	0.240467	-0.063969
O29	O	1.957894	-0.161144	-0.740025
O30	O	2.457894	0.338856	-0.240025
O31	O	1.930131	-0.355338	-0.382485
O32	O	2.430131	0.144662	0.117515
O33	O	1.787916	-0.354401	-0.548363
O34	O	2.287916	0.145599	-0.048363
C35	C	1.533270	-0.225671	-0.490426
C36	C	2.033270	0.274329	0.009574
C37	C	1.393839	-0.230614	-0.501124
C38	C	1.893839	0.269386	-0.001124
C39	C	1.859032	-0.377709	-0.465438
C40	C	2.359032	0.122291	0.034562
C41	C	1.859079	-0.447675	-0.465449
C42	C	2.359079	0.052325	0.034551
C43	C	1.945453	-0.474323	-0.539605
C44	C	2.445453	0.025677	-0.039605
C45	C	1.945500	-0.540063	-0.539633
C46	C	2.445500	-0.040063	-0.039633
C47	C	1.859184	-0.579152	-0.465481
C48	C	2.359184	-0.079152	0.034519
C49	C	1.772794	-0.552497	-0.391320
C50	C	2.272794	-0.052497	0.108680
C51	C	1.772741	-0.486758	-0.391304
C52	C	2.272741	0.013242	0.108696
N53	N	1.841275	-0.687283	-0.356418
N54	N	2.341275	-0.187283	0.143582
N55	N	1.841332	-0.749732	-0.356436
N56	N	2.341332	-0.249732	0.143564
C57	C	1.859335	-0.777219	-0.465526
C58	C	2.359335	-0.277219	0.034474
N59	N	1.877303	-0.739899	-0.574598
N60	N	2.377303	-0.239899	-0.074598
N61	N	1.877252	-0.677444	-0.574578
N62	N	2.377252	-0.177444	-0.074578
C63	C	1.859231	-0.650436	-0.465490
C64	C	2.359231	-0.150436	0.034510
C65	C	1.945764	-0.875150	-0.539719
C66	C	2.445764	-0.375150	-0.039719
C67	C	1.945802	-0.940891	-0.539749
C68	C	2.445802	-0.440891	-0.039749
C69	C	1.773102	-0.953324	-0.391424
C70	C	2.273102	-0.453324	0.108576
C71	C	1.773058	-0.887584	-0.391406
C72	C	2.273058	-0.387584	0.108594
C73	C	1.859396	-0.848500	-0.465551
C74	C	2.359396	-0.348500	0.034449
C75	C	2.186396	-0.202583	-0.440455
C76	C	2.686396	0.297417	0.059545
C77	C	2.325829	-0.197654	-0.429788
C78	C	2.825829	0.302346	0.070212
C79	C	1.884408	-0.200593	-0.792692
C80	C	2.384408	0.299407	-0.292692
C81	C	1.895152	-0.194816	-0.932126
C82	C	2.395152	0.305184	-0.432126
C83	C	1.859398	-0.049948	-0.465565
C84	C	2.359398	0.450052	0.034435
C85	C	1.859484	0.020024	-0.465598
C86	C	2.359484	0.520024	0.034402
C87	C	1.834155	-0.227605	-0.139554
C88	C	2.334155	0.272395	0.360446
C89	C	1.823654	-0.233196	-0.000101
C90	C	2.323654	0.266804	0.499899
H91	H	1.345390	-0.262620	-0.570380
H92	H	1.845390	0.237380	-0.070380
H93	H	1.702512	-0.584328	-0.330948
H94	H	2.202512	-0.084328	0.169052
H95	H	1.374271	-0.165654	-0.360528
H96	H	1.874271	0.334346	0.139472
C97	C	1.729852	-0.283557	-0.934624
C98	C	2.229852	0.216443	-0.434624
H99	H	1.734686	-0.280960	-0.846356
H100	H	2.234686	0.219040	-0.346356
H101	H	1.749784	-0.324329	-0.954613
H102	H	2.249784	0.175671	-0.454613
H103	H	1.647204	-0.276440	-0.962491
H104	H	2.147204	0.223560	-0.462491
H105	H	2.015752	-0.442503	-0.599982
H106	H	2.515752	0.057497	-0.099982
C107	C	1.988962	-0.144452	-0.997603
C108	C	2.488962	0.355548	-0.497603
H109	H	2.032381	-0.121151	-0.936260
H110	H	2.532381	0.378849	-0.436260
H111	H	1.944907	-0.116625	-1.052408
H112	H	2.444907	0.383375	-0.552408
H113	H	2.047490	-0.164513	-1.044519
H114	H	2.547490	0.335487	-0.544519
H115	H	2.015827	-0.561764	-0.600036
H116	H	2.515827	-0.061764	-0.100036
C117	C	2.040819	-0.970204	-0.621325
C118	C	2.540819	-0.470204	-0.121325
H119	H	2.092235	-0.937510	-0.665468
H120	H	2.592235	-0.437510	-0.165468
H121	H	1.997024	-0.995294	-0.679632
H122	H	2.497024	-0.495294	-0.179632
H123	H	2.091840	-0.995886	-0.569191
H124	H	2.591840	-0.495886	-0.069191
H125	H	1.702404	-0.465062	-0.330916
H126	H	2.202404	0.034938	0.169084
C127	C	2.040694	-0.832156	-0.621314
C128	C	2.540694	-0.332156	-0.121314
H129	H	2.092124	-0.857444	-0.665508
H130	H	2.592124	-0.357444	-0.165508
H131	H	2.091691	-0.806540	-0.569207
H132	H	2.591691	-0.306540	-0.069207
H133	H	1.996816	-0.805966	-0.679597
H134	H	2.496816	-0.305966	-0.179597
H135	H	1.702814	-0.985150	-0.331057
H136	H	2.202814	-0.485150	0.168943
H137	H	1.702729	-0.865886	-0.331015
H138	H	2.202729	-0.365886	0.168985
