data_functionalizedCrystal
_audit_creation_method	'MofGen! by Chris Wilmer'
_symmetry_space_group_name_H-M	'P1'
_symmetry_Int_Tables_number	1
_symmetry_cell_setting	triclinic
loop_
_symmetry_equiv_pos_as_xyz
  x,y,z
_cell_length_a	6.817900
_cell_length_b	11.168130
_cell_length_c	12.200875
_cell_angle_alpha	92.527366
_cell_angle_beta	107.143593
_cell_angle_gamma	108.508653
loop_
_atom_site_label
_atom_site_type_symbol
_atom_site_fract_x
_atom_site_fract_y
_atom_site_fract_z
V1	V	-4.093963	-0.174991	-0.357670
O2	O	-4.053850	0.008114	-0.350852
O3	O	-4.070359	-0.346695	-0.355233
O4	O	-4.063310	-0.172429	-0.513658
O5	O	-4.060948	-0.167358	-0.191330
V6	V	-4.572078	-0.153075	-0.337773
O7	O	-4.367084	-0.223068	-0.401315
O8	O	-4.749154	-0.104998	-0.294128
O9	O	-4.372475	0.018629	-0.340211
O10	O	-4.729587	-0.336180	-0.344591
O11	O	-4.722490	-0.160708	-0.504113
O12	O	-4.379524	-0.155637	-0.181785
C13	C	-3.920818	-0.388548	-0.349593
C14	C	-3.982925	-0.528919	-0.348640
C15	C	-3.911825	-0.166254	-0.551679
C16	C	-3.968211	-0.165295	-0.679200
C17	C	-4.022432	-0.719358	-0.247399
C18	C	-3.958241	-0.574277	-0.248382
C19	C	-4.071406	-0.163541	-0.912674
C20	C	-4.013972	-0.164516	-0.782752
C21	C	-4.185359	0.060476	-0.345847
C22	C	-4.102491	0.200845	-0.346808
C23	C	-4.194351	-0.161816	-0.143759
C24	C	-4.117203	-0.162769	-0.016236
H25	H	-4.001404	-0.758447	-0.161564
Br26	Br	-3.843847	-0.460017	-0.106524
H27	H	-4.051577	-0.597470	-0.433751
H28	H	-4.123499	-0.760065	-0.432643
