data_functionalizedCrystal
_audit_creation_method	'MofGen! by Chris Wilmer'
_symmetry_space_group_name_H-M	'P1'
_symmetry_Int_Tables_number	1
_symmetry_cell_setting	triclinic
loop_
_symmetry_equiv_pos_as_xyz
  x,y,z
_cell_length_a	19.077105
_cell_length_b	19.121063
_cell_length_c	19.076919
_cell_angle_alpha	85.393653
_cell_angle_beta	89.923776
_cell_angle_gamma	90.263052
loop_
_atom_site_label
_atom_site_type_symbol
_atom_site_fract_x
_atom_site_fract_y
_atom_site_fract_z
Zn1	Zn	1.043169	-0.339734	0.454309
Zn2	Zn	1.543169	0.160266	0.954309
Zn3	Zn	1.042790	-0.452646	0.341419
Zn4	Zn	1.542790	0.047354	0.841419
Zn5	Zn	0.930805	-0.330327	0.331718
Zn6	Zn	1.430805	0.169673	0.831718
Zn7	Zn	0.920631	-0.452222	0.454155
Zn8	Zn	1.420631	0.047778	0.954155
O9	O	0.984349	-0.393732	0.395400
O10	O	1.484349	0.106268	0.895400
O11	O	1.141268	-0.358826	0.443459
O12	O	1.641268	0.141174	0.943459
O13	O	1.032035	-0.432660	0.241647
O14	O	1.532035	0.067340	0.741647
O15	O	0.950127	-0.233307	0.343985
O16	O	1.450127	0.266693	0.843985
O17	O	1.140989	-0.441782	0.360519
O18	O	1.640989	0.058218	0.860519
O19	O	1.032681	-0.240219	0.434052
O20	O	1.532681	0.259781	0.934052
O21	O	0.949760	-0.342793	0.234520
O22	O	1.449760	0.157207	0.734520
O23	O	0.831307	-0.342382	0.343835
O24	O	1.331307	0.157618	0.843835
O25	O	0.932786	-0.441060	0.552660
O26	O	1.432786	0.058940	1.052660
O27	O	0.823831	-0.431938	0.433788
O28	O	1.323831	0.068062	0.933788
O29	O	1.022815	-0.358416	0.552774
O30	O	1.522815	0.141584	1.052774
O31	O	1.022169	-0.550857	0.360369
O32	O	1.522169	-0.050857	0.860369
O33	O	0.932419	-0.550546	0.443195
O34	O	1.432419	-0.050546	0.943195
C35	C	0.802120	-0.386094	0.387742
C36	C	1.302120	0.113906	0.887742
C37	C	0.724160	-0.382844	0.384484
C38	C	1.224160	0.117156	0.884484
C39	C	0.976167	-0.576182	0.402834
C40	C	1.476167	-0.076182	0.902834
C41	C	0.972730	-0.654239	0.406041
C42	C	1.472730	-0.154239	0.906041
C43	C	0.683661	-0.428009	0.429719
C44	C	1.183661	0.071991	0.929719
C45	C	0.610410	-0.424946	0.426660
C46	C	1.110410	0.075054	0.926660
C47	C	0.577659	-0.376721	0.378362
C48	C	1.077659	0.123279	0.878362
C49	C	0.618164	-0.331551	0.333125
C50	C	1.118164	0.168449	0.833125
C51	C	0.691414	-0.334611	0.336188
C52	C	1.191414	0.165389	0.836188
C53	C	0.359002	-0.362559	0.364190
C54	C	0.859002	0.137441	0.864190
C55	C	0.285746	-0.359503	0.361130
C56	C	0.785746	0.140497	0.861130
C57	C	0.277998	-0.452898	0.454666
C58	C	0.777998	0.047102	0.954666
C59	C	0.351249	-0.455957	0.457722
C60	C	0.851249	0.044043	0.957722
C61	C	0.391747	-0.410784	0.412487
C62	C	0.891747	0.089216	0.912487
N63	N	0.502785	-0.373590	0.375233
N64	N	1.002785	0.126410	0.875233
N65	N	0.466620	-0.413912	0.415620
N66	N	0.966620	0.086088	0.915620
C67	C	1.017877	-0.691052	0.364463
C68	C	1.517877	-0.191052	0.864463
C69	C	1.014648	-0.764395	0.367483
C70	C	1.514648	-0.264395	0.867483
C71	C	0.966269	-0.800923	0.412078
C72	C	1.466269	-0.300923	0.912078
C73	C	0.921120	-0.764105	0.453660
C74	C	1.421120	-0.264105	0.953660
C75	C	0.924353	-0.690764	0.450644
C76	C	1.424353	-0.190764	0.950644
C77	C	0.954173	-1.022359	0.423346
C78	C	1.454173	-0.522359	0.923346
C79	C	0.950942	-1.095705	0.426358
C80	C	1.450942	-0.595705	0.926358
C81	C	1.044471	-1.095990	0.340181
C82	C	1.544471	-0.595990	0.840181
C83	C	1.047697	-1.022647	0.337165
C84	C	1.547697	-0.522647	0.837165
C85	C	1.002551	-0.985836	0.378750
C86	C	1.502551	-0.485836	0.878750
C87	C	0.962966	-0.875891	0.415164
C88	C	1.462966	-0.375891	0.915164
C89	C	1.005857	-0.910869	0.375667
C90	C	1.505857	-0.410869	0.875667
C91	C	1.167289	-0.401401	0.403088
C92	C	1.667289	0.098599	0.903088
C93	C	1.245247	-0.404669	0.406365
C94	C	1.745247	0.095331	0.906365
C95	C	0.976708	-0.400740	0.578967
C96	C	1.476708	0.099260	1.078967
C97	C	0.973452	-0.403726	0.657192
C98	C	1.473452	0.096274	1.157192
C99	C	0.992581	-0.210571	0.387953
C100	C	1.492581	0.289429	0.887953
C101	C	0.996089	-0.132518	0.384780
C102	C	1.496089	0.367482	0.884780
C103	C	0.992003	-0.386702	0.212547
C104	C	1.492003	0.113298	0.712547
C105	C	0.995403	-0.383524	0.134320
C106	C	1.495403	0.116476	0.634320
C107	C	1.018793	-0.362103	0.694003
C108	C	1.518793	0.137897	1.194003
C109	C	1.015725	-0.364906	0.767503
C110	C	1.515725	0.135094	1.267503
C111	C	0.967319	-0.409336	0.804192
C112	C	1.467319	0.090664	1.304192
C113	C	0.921973	-0.450962	0.767376
C114	C	1.421973	0.049038	1.267376
C115	C	0.925038	-0.448154	0.693877
C116	C	1.425038	0.051846	1.193877
C117	C	0.953123	-0.422342	1.024005
C118	C	1.453123	0.077658	1.524005
C119	C	0.950063	-0.425148	1.097510
C120	C	1.450063	0.074852	1.597510
C121	C	1.043814	-0.339090	1.097632
C122	C	1.543814	0.160910	1.597632
C123	C	1.046877	-0.336290	1.024131
C124	C	1.546877	0.163710	1.524131
C125	C	1.001529	-0.377913	0.987321
C126	C	1.501529	0.122087	1.487321
N127	N	0.964183	-0.412204	0.879321
N128	N	1.464183	0.087796	1.379321
N129	N	1.004662	-0.375041	0.912193
N130	N	1.504662	0.124959	1.412193
H131	H	0.710321	-0.467281	0.469046
H132	H	1.210321	0.032719	0.969046
H133	H	0.377909	-0.495228	0.497049
H134	H	0.877909	0.004772	0.997049
C135	C	0.909743	-0.916079	0.464209
C136	C	1.409743	-0.416079	0.964209
N137	N	0.869654	-0.946351	0.501149
N138	N	1.369654	-0.446351	1.001149
C139	C	0.903236	-0.468126	0.983524
C140	C	1.403236	0.031874	1.483524
N141	N	0.865657	-0.502612	0.953030
N142	N	1.365657	-0.002612	1.453030
H143	H	0.724388	-0.297829	0.299356
H144	H	1.224388	0.202171	0.799356
C145	C	1.065605	-0.319117	0.807992
C146	C	1.565605	0.180883	1.307992
N147	N	1.103177	-0.284627	0.838487
N148	N	1.603177	0.215373	1.338487
H149	H	0.882558	-0.487135	0.797254
H150	H	1.382558	0.012865	1.297254
H151	H	0.245016	-0.489674	0.491494
H152	H	0.745016	0.010326	0.991494
H153	H	1.045250	-0.881126	0.339361
H154	H	1.545250	-0.381126	0.839361
C155	C	0.867901	-0.804289	0.502713
C156	C	1.367901	-0.304289	1.002713
N157	N	0.827811	-0.834554	0.539657
N158	N	1.327811	-0.334554	1.039657
H159	H	0.259084	-0.320225	0.321804
H160	H	0.759084	0.179775	0.821804
H161	H	0.391967	-0.325781	0.327352
H162	H	0.891967	0.174219	0.827352
C163	C	1.072043	-0.313224	0.653652
C164	C	1.572043	0.186776	1.153652
N165	N	1.112150	-0.276405	0.623261
N166	N	1.612150	0.223595	1.123261
H167	H	1.086296	-0.300112	0.994264
H168	H	1.586296	0.199888	1.494264
H169	H	0.591493	-0.292282	0.293803
H170	H	1.091493	0.207718	0.793803
H171	H	1.057269	-0.661315	0.328146
H172	H	1.557269	-0.161315	0.828146
H173	H	1.087091	-0.992907	0.300852
H174	H	1.587091	-0.492907	0.800852
H175	H	1.051411	-0.794364	0.333625
H176	H	1.551411	-0.294364	0.833625
C177	C	1.094131	-1.136488	0.294443
C178	C	1.594131	-0.636488	0.794443
N179	N	1.131538	-1.166992	0.259992
N180	N	1.631538	-0.666992	0.759992
H181	H	0.911554	-1.125446	0.462685
H182	H	1.411554	-0.625446	0.962685
C183	C	0.565864	-0.474644	0.476410
C184	C	1.065864	0.025356	0.976410
N185	N	0.532312	-0.512084	0.513879
N186	N	1.032312	-0.012084	1.013879
H187	H	0.917412	-0.992393	0.457205
H188	H	1.417412	-0.492393	0.957205
H189	H	1.080733	-0.305203	1.127610
H190	H	1.580733	0.194797	1.627610
H191	H	0.910642	-0.461330	1.127379
H192	H	1.410642	0.038670	1.627379
C193	C	0.875161	-0.493945	0.653386
C194	C	1.375161	0.006055	1.153386
N195	N	0.837590	-0.528435	0.622888
N196	N	1.337590	-0.028435	1.122888
C197	C	0.874688	-0.650270	0.496383
C198	C	1.374688	-0.150270	0.996383
N199	N	0.837281	-0.619772	0.530838
N200	N	1.337281	-0.119772	1.030838
