data_functionalizedCrystal
_audit_creation_method	'MofGen! by Chris Wilmer'
_symmetry_space_group_name_H-M	'P1'
_symmetry_Int_Tables_number	1
_symmetry_cell_setting	triclinic
loop_
_symmetry_equiv_pos_as_xyz
  x,y,z
_cell_length_a	15.995288
_cell_length_b	11.026607
_cell_length_c	9.482900
_cell_angle_alpha	101.400185
_cell_angle_beta	99.289458
_cell_angle_gamma	83.973601
loop_
_atom_site_label
_atom_site_type_symbol
_atom_site_fract_x
_atom_site_fract_y
_atom_site_fract_z
O1	O	-1.144732	0.137034	-0.120970
O2	O	-0.644732	0.637034	0.379030
O3	O	-0.903872	0.156430	-0.120956
O4	O	-0.403872	0.656430	0.379044
O5	O	-1.004339	-0.029913	-0.120956
O6	O	-0.504339	0.470087	0.379044
O7	O	-1.044265	0.323378	-0.120969
O8	O	-0.544265	0.823378	0.379031
O9	O	-0.983955	0.008089	0.120836
O10	O	-0.483955	0.508089	0.620836
O11	O	-0.883487	0.194433	0.120837
O12	O	-0.383487	0.694433	0.620837
O13	O	-1.124348	0.175036	0.120823
O14	O	-0.624348	0.675036	0.620823
Cu15	Cu	-1.002056	0.188205	0.142907
Cu16	Cu	-0.502056	0.688205	0.642907
Cu17	Cu	-1.026163	0.143262	-0.143040
Cu18	Cu	-0.526163	0.643262	0.356960
O19	O	-1.023880	0.361380	0.120823
O20	O	-0.523880	0.861380	0.620823
C21	C	-0.862365	0.174643	-0.000058
C22	C	-0.362365	0.674643	0.499942
C23	C	-0.769055	0.172281	-0.000052
C24	C	-0.269055	0.672281	0.499948
C25	C	-0.598214	0.167914	-0.000060
C26	C	-0.098214	0.667914	0.499940
C27	C	-0.570746	0.300592	-0.000060
C28	C	-0.070746	0.800592	0.499940
C29	C	-0.473740	0.298091	-0.000611
C30	C	0.026260	0.798091	0.499389
C31	C	-0.430009	0.163617	-0.000065
C32	C	0.069991	0.663617	0.499935
C33	C	-0.472837	0.076132	-0.137867
C34	C	0.027163	0.576132	0.362133
C35	C	-0.569986	0.079465	-0.137981
C36	C	-0.069986	0.579465	0.362019
C37	C	-0.546787	0.120718	0.136992
C38	C	-0.046787	0.620718	0.636992
C39	C	-0.449693	0.121021	0.138801
C40	C	0.050307	0.621021	0.638801
C41	C	-0.334947	0.161181	-0.000074
C42	C	0.165053	0.661181	0.499926
C43	C	-0.693277	0.170345	-0.000061
C44	C	-0.193277	0.670345	0.499939
C45	C	-0.986782	-0.056121	-0.000061
C46	C	-0.486782	0.443879	0.499939
C47	C	-0.964826	-0.190828	-0.000065
C48	C	-0.464826	0.309172	0.499935
C49	C	-1.025451	-0.264655	-0.000071
C50	C	-0.525451	0.235345	0.499929
C51	C	-1.002760	-0.403882	-0.000075
C52	C	-0.502760	0.096118	0.499925
C53	C	-0.165855	0.156840	-0.000073
C54	C	0.334145	0.656840	0.499927
C55	C	-0.259168	0.159251	-0.000073
C56	C	0.240832	0.659251	0.499927
C57	C	-1.041438	0.387587	-0.000075
C58	C	-0.541438	0.887587	0.499925
C59	C	-1.063395	0.522293	-0.000080
C60	C	-0.563395	1.022293	0.499920
N61	N	-0.985107	0.219814	0.344028
N62	N	-0.485107	0.719814	0.844028
N63	N	-1.043118	0.111643	-0.344161
N64	N	-0.543118	0.611643	0.155839
C65	C	-1.021157	0.152579	0.416227
C66	C	-0.521157	0.652579	0.916227
C67	C	-1.007062	0.178888	0.583644
C68	C	-0.507062	0.678888	1.083644
H69	H	-0.606591	0.337606	-0.098734
H70	H	-0.106591	0.837606	0.401266
H71	H	-1.084415	0.034594	0.593715
H72	H	-0.584415	0.534594	1.093715
H73	H	-0.604173	0.110652	-0.241383
H74	H	-0.104173	0.610652	0.258617
H75	H	-0.462032	0.333976	-0.099971
H76	H	0.037968	0.833976	0.400029
H77	H	-1.094153	-0.224785	-0.000066
H78	H	-0.594153	0.275215	0.499934
H79	H	-0.459932	0.105082	-0.240807
H80	H	0.040068	0.605082	0.259193
H81	H	-0.565063	0.180818	0.241471
H82	H	-0.065063	0.680818	0.741471
H83	H	-0.934054	-0.443746	-0.000080
H84	H	-0.434054	0.056254	0.499920
H85	H	-0.588945	0.369438	0.098741
H86	H	-0.088945	0.869438	0.598741
H87	H	-0.588070	-0.018886	-0.143866
H88	H	-0.088070	0.481114	0.356134
H89	H	-1.062452	0.075535	0.354098
H90	H	-0.562452	0.575535	0.854098
H91	H	-0.421004	0.185115	0.240749
H92	H	0.078996	0.685115	0.740749
H93	H	-0.418831	0.024289	0.147534
H94	H	0.081169	0.524289	0.647534
H95	H	-1.132112	-0.437863	-0.000194
H96	H	-0.632112	0.062137	0.499806
H97	H	-0.896124	-0.230698	-0.000071
H98	H	-0.396124	0.269302	0.499929
H99	H	-0.943805	0.296849	0.406158
H100	H	-0.443805	0.796849	0.906158
H101	H	-0.444748	0.365337	0.098148
H102	H	0.055252	0.865337	0.598148
H103	H	-0.444233	-0.023484	-0.142601
H104	H	0.055767	0.476516	0.357399
H105	H	-0.563712	0.023106	0.138320
H106	H	-0.063712	0.523106	0.638320
H107	H	-0.965757	0.255928	0.645769
H108	H	-0.465757	0.755928	1.145769
