data_functionalizedCrystal
_audit_creation_method	'MofGen! by Chris Wilmer'
_symmetry_space_group_name_H-M	'P1'
_symmetry_Int_Tables_number	1
_symmetry_cell_setting	triclinic
loop_
_symmetry_equiv_pos_as_xyz
  x,y,z
_cell_length_a	8.559649
_cell_length_b	8.559649
_cell_length_c	7.088929
_cell_angle_alpha	84.655815
_cell_angle_beta	95.325015
_cell_angle_gamma	69.778664
loop_
_atom_site_label
_atom_site_type_symbol
_atom_site_fract_x
_atom_site_fract_y
_atom_site_fract_z
O1	O	2.108185	-0.036318	-0.158958
O2	O	1.632699	0.047464	-0.158965
O3	O	1.912333	-0.232170	-0.158959
O4	O	1.828551	0.243315	-0.158964
O5	O	1.949712	-0.269616	0.159017
O6	O	1.670079	0.010018	0.159011
O7	O	2.145564	-0.073764	0.159018
Cu8	Cu	1.911235	-0.035292	0.188048
Cu9	Cu	1.867029	0.008992	-0.187995
O10	O	1.865931	0.205870	0.159012
C11	C	1.591080	0.035090	0.000022
C12	C	1.411380	0.053990	0.000019
C13	C	1.937372	-0.311201	0.000026
C14	C	1.956269	-0.490899	0.000015
C15	C	2.187183	-0.061390	0.000027
C16	C	2.366881	-0.080288	0.000017
C17	C	1.840892	0.284902	0.000023
C18	C	1.821992	0.464601	0.000021
N19	N	1.942338	-0.066441	0.452537
N20	N	1.835940	0.040127	-0.452484
H21	H	1.466259	-0.209706	0.000009
H22	H	1.311991	0.183419	0.000007
O23	O	1.667471	-0.416972	-0.000247
C24	C	1.386050	-0.281492	-0.165056
C25	C	1.560958	-0.415707	-0.164967
H26	H	1.299896	-0.280401	-0.298237
H27	H	1.330957	-0.311763	-0.032074
H28	H	1.397855	-0.152854	-0.164975
H29	H	1.549299	-0.544396	-0.165115
H30	H	1.615989	-0.385290	-0.297936
O31	O	2.110740	-0.609275	-0.000231
C32	C	2.353418	-0.705952	-0.165021
C33	C	2.178525	-0.571761	-0.164956
H34	H	2.408260	-0.675689	-0.298207
H35	H	2.439773	-0.706980	-0.032043
H36	H	2.341641	-0.834615	-0.164914
H37	H	2.190141	-0.443031	-0.165130
H38	H	2.092237	-0.570881	-0.297922
O39	O	1.704524	0.172069	0.450209
C40	C	1.567963	0.473007	0.388695
C41	C	1.716897	0.323735	0.498993
H42	H	1.577897	0.595664	0.428126
H43	H	1.570479	0.470596	0.228463
H44	H	1.445174	0.463251	0.427941
H45	H	1.839761	0.333392	0.459908
H46	H	1.714232	0.326196	0.659198
H47	H	2.052625	-0.176874	0.534195
