data_functionalizedCrystal
_audit_creation_method	'MofGen! by Chris Wilmer'
_symmetry_space_group_name_H-M	'P1'
_symmetry_Int_Tables_number	1
_symmetry_cell_setting	triclinic
loop_
_symmetry_equiv_pos_as_xyz
  x,y,z
_cell_length_a	19.319731
_cell_length_b	19.318970
_cell_length_c	19.315557
_cell_angle_alpha	60.007379
_cell_angle_beta	60.014690
_cell_angle_gamma	59.991495
loop_
_atom_site_label
_atom_site_type_symbol
_atom_site_fract_x
_atom_site_fract_y
_atom_site_fract_z
O1	O	0.095954	-1.011347	0.845684
O2	O	0.036156	-0.787405	0.681392
O3	O	0.177960	-0.929104	0.681276
O4	O	-0.045850	-0.869648	0.845799
O5	O	0.225008	-0.882072	0.728208
O6	O	0.083204	-0.740373	0.728324
O7	O	0.143002	-0.964315	0.892616
Cu8	Cu	0.117399	-0.848050	0.814755
Cu9	Cu	0.061759	-0.903670	0.759252
O10	O	0.001198	-0.822616	0.892732
N11	N	0.156535	-0.808935	0.853797
N12	N	0.022631	-0.942793	0.720211
C13	C	0.182113	-0.653200	0.879374
C14	C	0.182221	-0.783395	1.009518
C15	C	0.312319	-0.783375	0.879314
C16	C	0.182127	-0.783371	0.879357
C17	C	0.214696	-0.750836	0.911890
C18	C	-0.132988	-0.968144	0.694232
C19	C	-0.002674	-0.968326	0.564242
C20	C	-0.002907	-1.098444	0.694459
C21	C	-0.002887	-0.968321	0.694542
C22	C	-0.035363	-1.000810	0.661869
N23	N	0.389025	-0.808944	0.853717
O24	O	0.660019	-0.816766	0.651282
O25	O	0.660312	-0.981573	0.874999
O26	O	0.660193	-0.981192	0.733108
O27	O	0.660138	-0.817147	0.793174
O28	O	0.519202	-0.934278	0.780210
O29	O	0.519321	-0.934658	0.922102
O30	O	0.519028	-0.769852	0.698384
Cu31	Cu	0.506300	-0.847971	0.814544
Cu32	Cu	0.673039	-0.903453	0.758840
O33	O	0.519147	-0.770232	0.840276
N34	N	0.790314	-0.942480	0.719658
N35	N	0.156514	-0.576494	0.853827
O36	O	-0.045823	-0.305328	0.845846
O37	O	0.177892	-0.305317	0.681053
O38	O	0.035967	-0.305340	0.681465
O39	O	0.096102	-0.305306	0.845434
O40	O	0.083020	-0.446347	0.728459
O41	O	0.224945	-0.446325	0.728047
O42	O	0.001230	-0.446335	0.892839
Cu43	Cu	0.117383	-0.459205	0.814734
Cu44	Cu	0.061738	-0.292448	0.759159
O45	O	0.143154	-0.446313	0.892428
N46	N	0.022597	-0.175159	0.720067
N47	N	0.156703	-0.808977	1.086224
O48	O	0.148753	-1.011298	1.357359
O49	O	-0.016009	-0.787491	1.357400
O50	O	-0.015627	-0.929387	1.357339
O51	O	0.148372	-0.869401	1.357420
O52	O	0.031342	-0.882367	1.216340
O53	O	0.030961	-0.740471	1.216400
O54	O	0.195723	-0.964278	1.216360
Cu55	Cu	0.117631	-0.848081	1.203506
Cu56	Cu	0.062083	-0.903688	1.370254
O57	O	0.195341	-0.822381	1.216420
N58	N	0.023010	-0.942801	1.487536
C59	C	0.054075	-0.735670	0.682223
C60	C	0.229681	-0.911148	0.682079
C61	C	0.125082	-1.016051	0.891784
C62	C	-0.050524	-0.840572	0.891928
C63	C	0.589851	-0.980810	0.926735
C64	C	0.589706	-0.980340	0.751019
C65	C	0.589484	-0.770613	0.646650
C66	C	0.589634	-0.771085	0.822364
C67	C	0.229543	-0.375646	0.681799
C68	C	0.053845	-0.375847	0.682366
C69	C	-0.050480	-0.375832	0.892036
C70	C	0.125277	-0.375807	0.891527
C71	C	-0.015214	-0.735785	1.286905
C72	C	-0.014732	-0.911497	1.286802
C73	C	0.194928	-1.015984	1.286855
C74	C	0.194457	-0.840261	1.286926
H75	H	0.041301	-0.671339	0.630625
O76	O	0.306425	-0.926390	0.620545
C77	C	0.359103	-1.009707	0.651183
H78	H	0.336101	-1.032157	0.723397
H79	H	0.356771	-1.053547	0.629703
C80	C	0.479120	-0.983596	0.527425
C81	C	0.450872	-1.011168	0.616119
H82	H	0.535728	-0.984499	0.505794
H83	H	0.443630	-0.927465	0.506781
H84	H	0.477169	-1.020134	0.509536
H85	H	0.452813	-0.974624	0.634007
H86	H	0.486365	-1.067293	0.636765
H87	H	0.137858	-1.080380	0.943384
H88	H	-0.114728	-0.375837	0.943771
O89	O	-0.127244	-0.825307	0.953487
C90	C	-0.179936	-0.742005	0.922833
H91	H	-0.139117	-0.701747	0.868386
H92	H	-0.222757	-0.743290	0.899290
C93	C	-0.284928	-0.753099	1.061573
C94	C	-0.234792	-0.703653	0.994705
H95	H	-0.318768	-0.729442	1.105907
H96	H	-0.249430	-0.809222	1.082225
H97	H	-0.320604	-0.754166	1.041943
H98	H	-0.199109	-0.702595	1.014333
H99	H	-0.270285	-0.647528	0.974058
H100	H	0.589926	-1.032546	0.990990
H101	H	0.293660	-0.375252	0.629934
H102	H	0.246659	-1.080258	1.286832
H103	H	0.589730	-1.031874	0.738162
O104	O	-0.076252	-0.926782	1.286852
C105	C	-0.147773	-0.917338	1.359839
H106	H	-0.127520	-0.926557	1.410938
H107	H	-0.195793	-0.851119	1.343322
C108	C	-0.213263	-0.972692	1.330090
C109	C	-0.188387	-0.984023	1.392853
H110	H	-0.238319	-1.013824	1.350453
H111	H	-0.165080	-0.979053	1.280915
H112	H	-0.253277	-0.917508	1.316331
H113	H	-0.148367	-1.039202	1.406603
H114	H	-0.236565	-0.977674	1.442031
H115	H	0.589389	-0.718870	0.582402
O116	O	0.589575	-0.709683	0.837846
C117	C	0.589690	-0.740580	0.921160
H118	H	0.563062	-0.795031	0.961272
H119	H	0.657350	-0.764195	0.919864
C120	C	0.567090	-0.601997	0.910467
C121	C	0.534379	-0.668870	0.959736
H122	H	0.532976	-0.557763	0.934263
H123	H	0.567017	-0.581181	0.854336
H124	H	0.623474	-0.621687	0.909391
H125	H	0.478001	-0.649182	0.960803
H126	H	0.534442	-0.689681	1.015869
O127	O	0.038371	-0.375920	0.621023
C128	C	-0.044965	-0.375918	0.651914
H129	H	-0.067243	-0.402586	0.724129
H130	H	-0.088848	-0.308280	0.630458
C131	C	-0.019259	-0.398510	0.528396
C132	C	-0.046619	-0.431270	0.617091
H133	H	-0.020282	-0.432649	0.506913
H134	H	0.036885	-0.398507	0.507582
H135	H	-0.055833	-0.342145	0.510528
H136	H	-0.010040	-0.487629	0.634958
H137	H	-0.102757	-0.431283	0.637908
H138	H	0.245979	-0.827427	1.286940
O139	O	0.140789	-0.375849	0.952908
C140	C	0.224117	-0.375825	0.922009
H141	H	0.264199	-0.402511	0.867578
H142	H	0.222855	-0.308177	0.898369
C143	C	0.213470	-0.398358	1.060568
C144	C	0.262701	-0.431140	0.993720
H145	H	0.237270	-0.432475	1.104803
H146	H	0.157329	-0.398371	1.081386
H147	H	0.212422	-0.341985	1.040857
H148	H	0.263739	-0.487508	1.013429
H149	H	0.318843	-0.431138	0.972907
O150	O	-0.076848	-0.659069	1.286954
C151	C	-0.046326	-0.606313	1.286964
H152	H	0.008101	-0.647091	1.313665
H153	H	-0.022799	-0.563497	1.219328
C154	C	-0.185136	-0.501357	1.309477
C155	C	-0.118293	-0.551440	1.342279
H156	H	-0.229529	-0.467505	1.343594
H157	H	-0.205700	-0.536897	1.309468
H158	H	-0.165520	-0.465683	1.253114
H159	H	-0.137907	-0.587120	1.398636
H160	H	-0.097734	-0.515904	1.342299
