data_functionalizedCrystal
_audit_creation_method	'MofGen! by Chris Wilmer'
_symmetry_space_group_name_H-M	'P1'
_symmetry_Int_Tables_number	1
_symmetry_cell_setting	triclinic
loop_
_symmetry_equiv_pos_as_xyz
  x,y,z
_cell_length_a	15.298709
_cell_length_b	15.299816
_cell_length_c	11.169409
_cell_angle_alpha	99.647603
_cell_angle_beta	99.643451
_cell_angle_gamma	88.426258
loop_
_atom_site_label
_atom_site_type_symbol
_atom_site_fract_x
_atom_site_fract_y
_atom_site_fract_z
Zn1	Zn	1.399329	-0.116585	-0.383845
Zn2	Zn	1.424558	-0.263062	-0.211112
Zn3	Zn	1.252862	-0.142008	-0.222694
Zn4	Zn	1.278160	-0.288346	-0.451224
O5	O	1.338727	-0.202500	-0.317219
O6	O	1.525241	-0.114794	-0.327886
O7	O	1.401754	-0.247063	-0.044719
O8	O	1.251146	-0.016092	-0.220720
O9	O	1.543776	-0.222410	-0.200980
O10	O	1.358754	0.002587	-0.339117
O11	O	1.275609	-0.158125	-0.053228
O12	O	1.133653	-0.182642	-0.286054
O13	O	1.294262	-0.265503	-0.610215
O14	O	1.152239	-0.290156	-0.453954
O15	O	1.383284	-0.139311	-0.560713
O16	O	1.426284	-0.388961	-0.266314
O17	O	1.318726	-0.407537	-0.442723
C18	C	1.111166	-0.241902	-0.378573
C19	C	1.013819	-0.258779	-0.404854
C20	C	0.977804	-0.322769	-0.504509
C21	C	0.886340	-0.338622	-0.529211
C22	C	0.830883	-0.290491	-0.454255
C23	C	0.866898	-0.226503	-0.354592
C24	C	0.958370	-0.210644	-0.329893
C25	C	0.811449	-0.178366	-0.279639
C26	C	0.847464	-0.114378	-0.179977
C27	C	0.938928	-0.098523	-0.155282
C28	C	0.994385	-0.146654	-0.230238
C29	C	0.719977	-0.194225	-0.304338
C30	C	0.700543	-0.082100	-0.129723
C31	C	0.792007	-0.066247	-0.105020
C32	C	1.378011	-0.430019	-0.360593
C33	C	1.394897	-0.527338	-0.379167
C34	C	1.218615	-0.840826	-0.184718
C35	C	1.202745	-0.749390	-0.167271
C36	C	1.250782	-0.693873	-0.220243
C37	C	1.314691	-0.729800	-0.290666
C38	C	1.330557	-0.821246	-0.308124
C39	C	1.362724	-0.674293	-0.343648
C40	C	1.426633	-0.710220	-0.414072
C41	C	1.442497	-0.801656	-0.431525
C42	C	1.394461	-0.857174	-0.378553
C43	C	1.346858	-0.582847	-0.326191
C44	C	1.458801	-0.563267	-0.449597
C45	C	1.474670	-0.654702	-0.467044
C46	C	1.567177	-0.162946	-0.255625
C47	C	1.664528	-0.146090	-0.229378
C48	C	1.338781	-0.202391	-0.630224
C49	C	1.338803	-0.202345	-0.763608
C50	C	1.299314	0.025911	-0.273695
C51	C	1.282518	0.123246	-0.255147
C52	C	1.338714	-0.202537	-0.005406
C53	C	1.338818	-0.202308	0.128071
H54	H	1.068864	-0.133754	-0.210127
F55	F	0.977254	-0.030410	-0.049226
H56	H	1.179506	-0.886036	-0.141603
H57	H	0.821344	-0.014148	-0.023874
H58	H	0.655389	-0.042905	-0.068689
H59	H	1.494533	-0.830906	-0.488874
H60	H	1.150710	-0.720142	-0.109934
H61	H	0.690662	-0.246323	-0.385486
F62	F	1.278844	-0.544621	-0.251243
F63	F	1.411492	-0.954467	-0.396882
F64	F	1.233649	-0.596602	-0.202068
F65	F	1.542685	-0.692950	-0.541993
H66	H	1.497915	-0.518064	-0.492734
H67	H	0.756409	-0.303402	-0.474374
H68	H	0.857023	-0.390721	-0.610356
F69	F	1.036829	-0.373988	-0.584268
