data_functionalizedCrystal
_audit_creation_method	'MofGen! by Chris Wilmer'
_symmetry_space_group_name_H-M	'P1'
_symmetry_Int_Tables_number	1
_symmetry_cell_setting	triclinic
loop_
_symmetry_equiv_pos_as_xyz
  x,y,z
_cell_length_a	17.038272
_cell_length_b	14.519731
_cell_length_c	13.596369
_cell_angle_alpha	89.993029
_cell_angle_beta	90.000447
_cell_angle_gamma	87.400205
loop_
_atom_site_label
_atom_site_type_symbol
_atom_site_fract_x
_atom_site_fract_y
_atom_site_fract_z
O1	O	1.037705	0.200288	-0.081672
O2	O	0.810069	0.197107	-0.081701
O3	O	0.929914	0.064921	-0.081677
O4	O	0.917860	0.332473	-0.081697
O5	O	0.929902	0.064913	0.081906
O6	O	0.810057	0.197099	0.081882
O7	O	1.037693	0.200279	0.081911
Zn8	Zn	0.923873	0.198688	0.107868
Zn9	Zn	0.923889	0.198699	-0.107659
O10	O	0.917848	0.332465	0.081886
C11	C	0.780930	0.194211	0.000087
C12	C	0.694122	0.185581	0.000076
C13	C	0.929343	0.030515	0.000115
C14	C	0.927651	-0.071995	0.000115
C15	C	0.926276	-0.155245	0.000112
C16	C	0.924557	-0.259685	0.000105
C17	C	0.923193	-0.342928	0.000098
C18	C	0.921475	-0.447375	0.000092
C19	C	0.644142	0.264813	0.000071
C20	C	0.562578	0.256699	0.000085
C21	C	0.530996	0.169352	0.000097
C22	C	0.580983	0.090113	0.000105
C23	C	0.662545	0.098228	0.000098
C24	C	0.285189	0.140683	0.000126
C25	C	0.203620	0.132573	0.000130
C26	C	0.185221	0.299160	0.000112
C27	C	0.266786	0.307267	0.000099
C28	C	0.316766	0.228029	0.000112
C29	C	0.447624	0.161055	0.000109
C30	C	0.400136	0.236326	0.000107
C31	C	1.066832	0.203176	0.000121
C32	C	1.153640	0.211806	0.000125
C33	C	0.918419	0.366872	0.000093
C34	C	0.920112	0.469382	0.000086
N35	N	0.923868	0.198680	0.254960
N36	N	0.923900	0.198700	-0.254751
C37	C	0.923888	0.198700	0.656251
C38	C	0.923880	0.198697	0.544600
C39	C	0.923878	0.198691	0.455609
C40	C	0.923870	0.198687	0.343951
H41	H	0.669849	0.335940	0.000060
H42	H	0.325874	0.076161	0.000137
H43	H	0.177910	0.061441	0.000139
C44	C	0.546240	-0.005970	0.000120
N45	N	0.520072	-0.078342	0.000128
H46	H	0.703240	0.033709	0.000102
C47	C	0.434879	0.332405	0.000094
N48	N	0.461054	0.404773	0.000079
C49	C	0.412876	0.064975	0.000115
N50	N	0.386700	-0.007393	0.000121
H51	H	0.521886	0.321219	0.000080
H52	H	0.292493	0.378394	0.000077
H53	H	0.144519	0.363671	0.000103
