data_functionalizedCrystal
_audit_creation_method	'MofGen! by Chris Wilmer'
_symmetry_space_group_name_H-M	'P1'
_symmetry_Int_Tables_number	1
_symmetry_cell_setting	triclinic
loop_
_symmetry_equiv_pos_as_xyz
  x,y,z
_cell_length_a	14.853567
_cell_length_b	9.065218
_cell_length_c	7.540329
_cell_angle_alpha	90.001757
_cell_angle_beta	89.999401
_cell_angle_gamma	95.674592
loop_
_atom_site_label
_atom_site_type_symbol
_atom_site_fract_x
_atom_site_fract_y
_atom_site_fract_z
O1	O	1.197788	-0.192614	-0.147378
O2	O	0.935499	-0.215559	-0.147402
O3	O	1.072065	0.010663	-0.147386
O4	O	1.061222	-0.418836	-0.147394
O5	O	1.072057	0.010666	0.147579
O6	O	0.935490	-0.215556	0.147563
O7	O	1.197780	-0.192611	0.147587
Cu8	Cu	1.066634	-0.204084	0.174508
Cu9	Cu	1.066644	-0.204087	-0.174323
O10	O	1.061214	-0.418834	0.147571
C11	C	1.071019	0.065631	0.000094
C12	C	1.067903	0.229412	0.000085
C13	C	0.901898	-0.214518	0.000077
C14	C	0.801791	-0.211403	0.000068
C15	C	1.231381	-0.193652	0.000104
C16	C	1.331487	-0.196768	0.000102
C17	C	1.745113	-0.344319	0.000067
C18	C	1.764405	-0.075561	0.000073
C19	C	1.670350	-0.072632	0.000083
C20	C	1.613672	-0.205548	0.000083
C21	C	1.651049	-0.341393	0.000072
C22	C	1.632965	0.063211	0.000076
C23	C	1.538905	0.066146	0.000084
C24	C	1.482225	-0.066772	0.000096
C25	C	1.519607	-0.202622	0.000087
C26	C	1.462929	-0.335539	0.000086
C27	C	1.500310	-0.471391	0.000091
C28	C	1.594369	-0.474311	0.000084
C29	C	1.388166	-0.063852	0.000102
C30	C	1.368864	-0.332613	0.000091
C31	C	1.062260	-0.473801	0.000088
C32	C	1.065376	-0.637582	0.000085
N33	N	1.066634	-0.204080	0.419856
N34	N	1.066652	-0.204078	-0.419671
H35	H	1.322722	-0.440851	0.000102
H36	H	1.454150	-0.579611	0.000080
O37	O	1.351958	0.068188	-0.000143
C38	C	1.380788	0.149194	-0.152941
H39	H	1.446337	0.108859	-0.203875
H40	H	1.392831	0.272030	-0.118595
H41	H	1.326509	0.132200	-0.259905
O42	O	1.630578	-0.606355	-0.000161
C43	C	1.601742	-0.687377	-0.152949
H44	H	1.536187	-0.647057	-0.203866
H45	H	1.589708	-0.810211	-0.118597
H46	H	1.656013	-0.670383	-0.259929
O47	O	1.819363	0.053645	0.000300
C48	C	1.802272	0.136098	0.153091
H49	H	1.731238	0.100013	0.204037
H50	H	1.807877	0.259129	0.118732
H51	H	1.853878	0.115828	0.260052
O52	O	1.781568	-0.476152	-0.000007
C53	C	1.876740	-0.450244	0.000045
H54	H	1.897884	-0.335160	-0.055798
H55	H	1.906325	-0.537183	-0.085588
H56	H	1.902971	-0.457442	0.141557
O57	O	1.688116	0.192215	-0.000163
C58	C	1.743088	0.198564	-0.152946
H59	H	1.748793	0.081449	-0.203874
H60	H	1.813317	0.253365	-0.118584
H61	H	1.711608	0.266010	-0.259921
O62	O	1.502489	0.198013	0.000326
C63	C	1.448683	0.207763	0.153122
H64	H	1.426218	0.091529	0.204053
H65	H	1.386621	0.266692	0.118776
H66	H	1.489697	0.272951	0.260090
