data_functionalizedCrystal
_audit_creation_method	'MofGen! by Chris Wilmer'
_symmetry_space_group_name_H-M	'P1'
_symmetry_Int_Tables_number	1
_symmetry_cell_setting	triclinic
loop_
_symmetry_equiv_pos_as_xyz
  x,y,z
_cell_length_a	19.077300
_cell_length_b	8.497374
_cell_length_c	19.077068
_cell_angle_alpha	92.284024
_cell_angle_beta	89.940240
_cell_angle_gamma	92.294690
loop_
_atom_site_label
_atom_site_type_symbol
_atom_site_fract_x
_atom_site_fract_y
_atom_site_fract_z
Zn1	Zn	-1.062845	0.825332	0.322961
Zn2	Zn	-1.058065	0.572514	0.440439
Zn3	Zn	-0.945374	0.571704	0.318237
Zn4	Zn	-0.940582	0.846392	0.435720
O5	O	-1.001717	0.703986	0.379339
O6	O	-1.160540	0.783320	0.342497
O7	O	-1.043121	0.351644	0.424226
O8	O	-0.964963	0.596196	0.220532
O9	O	-1.157028	0.597576	0.428807
O10	O	-1.051269	0.782535	0.224003
O11	O	-0.960328	0.351049	0.334445
O12	O	-0.846410	0.616617	0.329870
O13	O	-0.956796	1.064361	0.420764
O14	O	-0.842889	0.818429	0.416184
O15	O	-1.046622	1.048889	0.337921
O16	O	-1.038474	0.617997	0.538144
O17	O	-0.952160	0.819214	0.534677
C18	C	-0.819154	0.719721	0.372002
C19	C	-0.741052	0.726492	0.368881
C20	C	-0.301620	0.775073	0.346436
C21	C	-0.375004	0.768703	0.349383
C22	C	-0.409862	0.668641	0.395719
C23	C	-0.371331	0.574954	0.439117
C24	C	-0.297947	0.581333	0.436173
C25	C	-0.629137	0.639184	0.409335
C26	C	-0.702526	0.632809	0.412274
C27	C	-0.706194	0.826561	0.322540
C28	C	-0.632810	0.832924	0.319598
C29	C	-0.594285	0.739243	0.362999
N30	N	-0.484873	0.662125	0.398730
N31	N	-0.519275	0.745769	0.359990
C32	C	-0.184992	0.688172	0.386701
C33	C	-0.263094	0.681390	0.389829
C34	C	-1.001711	1.115466	0.379340
C35	C	-1.001713	1.294111	0.379347
C36	C	-0.994297	0.721012	0.561908
C37	C	-0.991188	0.728343	0.640014
C38	C	-1.009184	0.686926	0.196058
C39	C	-1.012366	0.679656	0.117955
C40	C	-1.034701	0.627105	0.678491
C41	C	-1.031780	0.634009	0.751880
C42	C	-0.985342	0.742145	0.786791
C43	C	-0.941828	0.843394	0.748308
C44	C	-0.944752	0.836496	0.674920
C45	C	-0.971776	0.774007	1.006085
C46	C	-0.968853	0.780894	1.079478
C47	C	-1.058807	0.571510	1.083045
C48	C	-1.061724	0.564616	1.009656
C49	C	-1.018212	0.665870	0.971180
N50	N	-0.982354	0.749201	0.861806
N51	N	-1.021204	0.658820	0.896166
H52	H	-0.399717	0.493488	0.476847
C53	C	-1.112811	0.445663	0.971263
C54	C	-1.106740	0.267754	0.981170
C55	C	-1.157826	0.148793	0.942779
C56	C	-1.214981	0.207740	0.894481
C57	C	-1.221053	0.385658	0.884571
C58	C	-1.169968	0.504620	0.922962
H59	H	-1.064429	0.224110	1.016926
H60	H	-1.153330	0.017086	0.950115
H61	H	-1.252797	0.119678	0.866061
H62	H	-1.263365	0.429303	0.848816
H63	H	-1.174464	0.636327	0.915626
C64	C	-0.586770	0.536126	0.457073
C65	C	-0.597080	0.355385	0.451611
C66	C	-0.554710	0.252321	0.499351
C67	C	-0.502031	0.329997	0.552554
C68	C	-0.491718	0.510747	0.558018
C69	C	-0.534088	0.613812	0.510278
H70	H	-0.636078	0.297876	0.412225
H71	H	-0.562344	0.118517	0.495306
H72	H	-0.470666	0.253702	0.587895
H73	H	-0.452720	0.568256	0.597404
H74	H	-0.526454	0.747616	0.514323
C75	C	-0.740871	0.522744	0.463252
C76	C	-0.821590	0.515726	0.466484
C77	C	-0.859935	0.405668	0.517458
C78	C	-0.817562	0.302627	0.565200
C79	C	-0.736838	0.309642	0.561969
C80	C	-0.698493	0.419700	0.510995
H81	H	-0.852961	0.592006	0.431141
H82	H	-0.919692	0.400476	0.519849
H83	H	-0.845947	0.221155	0.602934
H84	H	-0.705467	0.233362	0.597312
H85	H	-0.638736	0.424892	0.508604
C86	C	-0.255566	0.478276	0.483904
C87	C	-0.265868	0.297534	0.478444
C88	C	-0.223486	0.194480	0.526179
C89	C	-0.170803	0.272168	0.579374
C90	C	-0.160498	0.452920	0.584837
C91	C	-0.202879	0.555974	0.537102
H92	H	-0.304870	0.240016	0.439063
H93	H	-0.231115	0.060675	0.522134
H94	H	-0.139429	0.195882	0.614710
H95	H	-0.121496	0.510439	0.624217
H96	H	-0.195251	0.689779	0.541146
H97	H	-0.936345	0.856449	0.974763
H98	H	-0.406369	0.844996	0.314050
H99	H	-0.604434	0.914411	0.281869
C100	C	-1.106673	0.460149	1.125370
C101	C	-1.103463	0.467729	1.206094
C102	C	-1.151335	0.356366	1.248418
C103	C	-1.202417	0.237424	1.210019
C104	C	-1.205629	0.229839	1.129291
C105	C	-1.157757	0.341201	1.086966
H106	H	-1.065648	0.555781	1.234523
H107	H	-1.148957	0.361982	1.308179
H108	H	-1.237854	0.154987	1.241350
H109	H	-1.243444	0.141786	1.100861
H110	H	-1.160135	0.335586	1.027206
C111	C	-0.748572	0.929610	0.274805
C112	C	-0.829291	0.922604	0.278037
C113	C	-0.871669	1.025661	0.230300
C114	C	-0.833327	1.135724	0.179330
C115	C	-0.752604	1.142735	0.176096
C116	C	-0.710226	1.039678	0.223833
H117	H	-0.857678	0.841124	0.315769
H118	H	-0.931426	1.020470	0.232694
H119	H	-0.864697	1.212013	0.143993
H120	H	-0.724217	1.224214	0.138364
H121	H	-0.650469	1.044869	0.221439
C122	C	-0.890748	0.962348	0.786708
C123	C	-0.833593	0.903391	0.835005
C124	C	-0.782511	1.022346	0.873405
C125	C	-0.788584	1.200258	0.863507
C126	C	-0.845741	1.259224	0.815209
C127	C	-0.896823	1.140269	0.776809
H128	H	-0.829095	0.771682	0.842333
H129	H	-0.740200	0.978694	0.909159
H130	H	-0.750770	1.288315	0.891933
H131	H	-0.850239	1.390933	0.807880
H132	H	-0.939134	1.183921	0.741055
C133	C	-0.263279	0.885141	0.295464
C134	C	-0.211601	1.016110	0.323978
C135	C	-0.173262	1.126184	0.273006
C136	C	-0.186601	1.105290	0.193520
C137	C	-0.238282	0.974315	0.165001
C138	C	-0.276621	0.864241	0.215973
H139	H	-0.201725	1.031583	0.382823
H140	H	-0.135005	1.223141	0.294118
H141	H	-0.158221	1.186773	0.155787
H142	H	-0.248158	0.958842	0.106157
H143	H	-0.314878	0.767284	0.194862
C144	C	-0.896885	0.947853	0.632591
C145	C	-0.816605	0.942672	0.639541
C146	C	-0.768739	1.054038	0.597212
C147	C	-0.801153	1.170584	0.547934
C148	C	-0.881438	1.175769	0.540981
C149	C	-0.929304	1.064404	0.583310
H150	H	-0.792606	0.856394	0.676022
H151	H	-0.709307	1.050199	0.602359
H152	H	-0.765720	1.253023	0.516599
H153	H	-0.905436	1.262048	0.504500
H154	H	-0.988736	1.068243	0.578163
H155	H	-1.072512	0.539043	0.650072
H156	H	-1.067212	0.551569	0.783206
H157	H	-0.931046	0.868978	1.107900
