data_functionalizedCrystal
_audit_creation_method	'MofGen! by Chris Wilmer'
_symmetry_space_group_name_H-M	'P1'
_symmetry_Int_Tables_number	1
_symmetry_cell_setting	triclinic
loop_
_symmetry_equiv_pos_as_xyz
  x,y,z
_cell_length_a	17.077404
_cell_length_b	15.299816
_cell_length_c	17.077396
_cell_angle_alpha	80.343631
_cell_angle_beta	90.018362
_cell_angle_gamma	80.348648
loop_
_atom_site_label
_atom_site_type_symbol
_atom_site_fract_x
_atom_site_fract_y
_atom_site_fract_z
Zn1	Zn	1.254125	-0.359112	0.497959
Zn2	Zn	1.754125	0.140888	0.997959
Zn3	Zn	1.276742	-0.509943	0.389432
Zn4	Zn	1.776742	-0.009943	0.889432
Zn5	Zn	1.122861	-0.359138	0.366713
Zn6	Zn	1.622861	0.140862	0.866713
Zn7	Zn	1.145526	-0.509884	0.520649
Zn8	Zn	1.645526	-0.009884	1.020649
O9	O	1.199813	-0.434519	0.443688
O10	O	1.699813	0.065481	0.943688
O11	O	1.366974	-0.379134	0.483574
O12	O	1.866974	0.120866	0.983574
O13	O	1.256309	-0.489974	0.276576
O14	O	1.756309	0.010026	0.776576
O15	O	1.121322	-0.232923	0.365119
O16	O	1.621322	0.267077	0.865119
O17	O	1.383591	-0.489949	0.403840
O18	O	1.883591	0.010051	0.903840
O19	O	1.217762	-0.232904	0.461545
O20	O	1.717762	0.267096	0.961545
O21	O	1.143253	-0.379178	0.259885
O22	O	1.643253	0.120822	0.759885
O23	O	1.016018	-0.379121	0.387121
O24	O	1.516018	0.120879	0.887121
O25	O	1.159952	-0.489848	0.627481
O26	O	1.659952	0.010152	1.127481
O27	O	1.032670	-0.489873	0.500217
O28	O	1.532670	0.010127	1.000217
O29	O	1.239739	-0.379077	0.610810
O30	O	1.739739	0.120923	1.110810
O31	O	1.278287	-0.636147	0.425842
O32	O	1.778287	-0.136147	0.925842
O33	O	1.181883	-0.636103	0.522247
O34	O	1.681883	-0.136103	1.022247
C35	C	0.995862	-0.434494	0.443667
C36	C	1.495862	0.065506	0.943667
C37	C	0.908613	-0.434505	0.443679
C38	C	1.408613	0.065495	0.943679
C39	C	0.858987	-0.376906	0.485289
C40	C	1.358987	0.123094	0.985289
C41	C	0.777008	-0.376912	0.485293
C42	C	1.277008	0.123088	0.985293
C43	C	0.744657	-0.434521	0.443692
C44	C	1.244657	0.065479	0.943692
C45	C	0.794289	-0.492123	0.402078
C46	C	1.294289	0.007877	0.902078
C47	C	0.876266	-0.492112	0.402069
C48	C	1.376266	0.007888	0.902069
C49	C	0.623422	-0.492143	0.402100
C50	C	1.123422	0.007857	0.902100
C51	C	0.541439	-0.492156	0.402110
C52	C	1.041439	0.007844	0.902110
C53	C	0.524163	-0.376943	0.485325
C54	C	1.024163	0.123057	0.985325
C55	C	0.606141	-0.376932	0.485316
C56	C	1.106141	0.123068	0.985316
C57	C	0.655768	-0.434535	0.443702
C58	C	1.155768	0.065465	0.943702
C59	C	1.235020	-0.668850	0.478989
C60	C	1.735020	-0.168850	0.978989
C61	C	1.250153	-0.769097	0.494117
C62	C	1.750153	-0.269097	0.994117
C63	C	1.092168	-1.052017	0.335832
C64	C	1.592168	-0.552017	0.835832
C65	C	1.077945	-0.957829	0.321620
C66	C	1.577945	-0.457829	0.821620
C67	C	1.120996	-0.910642	0.364743
C68	C	1.620996	-0.410642	0.864743
C69	C	1.178272	-0.957651	0.422080
C70	C	1.678272	-0.457651	0.922080
C71	C	1.192491	-1.051848	0.436298
C72	C	1.692491	-0.551848	0.936298
C73	C	1.221320	-0.910473	0.465209
C74	C	1.721320	-0.410473	0.965209
C75	C	1.278595	-0.957482	0.522546
C76	C	1.778595	-0.457482	1.022546
C77	C	1.292813	-1.051669	0.536761
C78	C	1.792813	-0.551669	1.036761
C79	C	1.249762	-1.098857	0.493638
C80	C	1.749762	-0.598857	0.993638
C81	C	1.207100	-0.816276	0.450991
C82	C	1.707100	-0.316276	0.950991
C83	C	1.307424	-0.816107	0.551457
C84	C	1.807424	-0.316107	1.051457
C85	C	1.321646	-0.910294	0.565669
C86	C	1.821646	-0.410294	1.065669
C87	C	1.404562	-0.434546	0.443710
C88	C	1.904562	0.065454	0.943710
C89	C	1.491813	-0.434557	0.443720
C90	C	1.991813	0.065443	0.943720
C91	C	1.199851	-0.434453	0.648422
C92	C	1.699851	0.065547	1.148422
C93	C	1.199867	-0.434425	0.735668
C94	C	1.699867	0.065575	1.235668
C95	C	1.164491	-0.199274	0.408266
C96	C	1.664491	0.300726	0.908266
C97	C	1.149438	-0.099026	0.393172
C98	C	1.649438	0.400974	0.893172
C99	C	1.199811	-0.434520	0.239740
C100	C	1.699811	0.065480	0.739740
C101	C	1.199909	-0.434295	0.152457
C102	C	1.699909	0.065705	0.652457
C103	C	1.241413	-0.376741	0.767978
C104	C	1.741413	0.123259	1.267978
C105	C	1.241418	-0.376711	0.849954
C106	C	1.741418	0.123289	1.349954
C107	C	1.199881	-0.434370	0.899619
C108	C	1.699881	0.065630	1.399619
C109	C	1.158329	-0.492056	0.867304
C110	C	1.658329	0.007944	1.367304
C111	C	1.158320	-0.492081	0.785328
C112	C	1.658320	0.007919	1.285328
C113	C	1.158353	-0.492002	1.038166
C114	C	1.658353	0.007998	1.538166
C115	C	1.158363	-0.491978	1.120147
C116	C	1.658363	0.008022	1.620147
C117	C	1.241451	-0.376632	1.102792
C118	C	1.741451	0.123368	1.602792
C119	C	1.241442	-0.376657	1.020816
C120	C	1.741442	0.123343	1.520816
C121	C	1.199891	-0.434344	0.988506
C122	C	1.699891	0.065656	1.488506
H123	H	0.916672	-0.539014	0.368185
H124	H	1.416672	-0.039014	0.868185
C125	C	1.014928	-0.906126	0.258567
C126	C	1.514928	-0.406126	0.758567
N127	N	0.967454	-0.867183	0.211078
N128	N	1.467454	-0.367183	0.711078
C129	C	0.469572	-0.313582	0.531103
C130	C	0.969572	0.186418	1.031103
N131	N	0.428452	-0.265865	0.565587
N132	N	0.928452	0.234135	1.065587
H133	H	1.275270	-0.329711	0.980381
H134	H	1.775270	0.170289	1.480381
C135	C	0.894565	-0.313528	0.531053
C136	C	1.394565	0.186472	1.031053
N137	N	0.921359	-0.265787	0.565521
N138	N	1.421359	0.234213	1.065521
H139	H	1.160466	-0.778009	0.404307
H140	H	1.660466	-0.278009	0.904307
C141	C	1.112618	-0.555538	0.749788
C142	C	1.612618	-0.055538	1.249788
N143	N	1.078191	-0.603335	0.723021
N144	N	1.578191	-0.103335	1.223021
H145	H	1.342478	-0.777687	0.586573
H146	H	1.842478	-0.277687	1.086573
H147	H	1.124506	-0.538999	0.907747
H148	H	1.624506	-0.038999	1.407747
C149	C	1.287107	-0.313310	0.713353
C150	C	1.787107	0.186690	1.213353
N151	N	1.321522	-0.265529	0.672211
N152	N	1.821522	0.234471	1.172211
C153	C	1.112648	-0.555464	1.002628
C154	C	1.612648	-0.055464	1.502628
N155	N	1.078229	-0.603268	0.975861
N156	N	1.578229	-0.103268	1.475861
C157	C	0.505855	-0.555528	0.356345
C158	C	1.005855	-0.055528	0.856345
N159	N	0.479053	-0.603261	0.321874
N160	N	0.979053	-0.103261	0.821874
H161	H	0.736605	-0.330011	0.519178
H162	H	1.236605	0.169989	1.019178
H163	H	0.632479	-0.330026	0.519197
H164	H	1.132479	0.169974	1.019197
H165	H	1.368280	-0.948583	0.612354
H166	H	1.868280	-0.448583	1.112354
C167	C	1.287124	-0.313256	0.885491
C168	C	1.787124	0.186744	1.385491
N169	N	1.321552	-0.265459	0.912257
N170	N	1.821552	0.234541	1.412257
H171	H	0.663826	-0.539047	0.368211
H172	H	1.163826	-0.039047	0.868211
C173	C	1.044874	-1.103929	0.288349
C174	C	1.544874	-0.603929	0.788349
N175	N	1.009269	-1.143031	0.252561
N176	N	1.509269	-0.643031	0.752561
C177	C	1.287156	-0.313175	1.138334
C178	C	1.787156	0.186825	1.638334
N179	N	1.321583	-0.265383	1.165108
N180	N	1.821583	0.234617	1.665108
C181	C	0.758700	-0.555493	0.356315
C182	C	1.258700	-0.055493	0.856315
N183	N	0.731896	-0.603227	0.321847
N184	N	1.231896	-0.103227	0.821847
C185	C	1.105353	-0.807032	0.349104
C186	C	1.605353	-0.307032	0.849104
N187	N	1.093570	-0.728990	0.337319
N188	N	1.593570	-0.228990	0.837319
C189	C	1.265404	-1.202470	0.509268
C190	C	1.765404	-0.702470	1.009268
N191	N	1.277183	-1.280512	0.521040
N192	N	1.777183	-0.780512	1.021040
C193	C	1.355818	-1.103377	0.599833
C194	C	1.855818	-0.603377	1.099833
N195	N	1.403278	-1.142322	0.647337
N196	N	1.903278	-0.642322	1.147337
H197	H	1.124538	-0.538927	1.160582
H198	H	1.624538	-0.038927	1.660582
