data_functionalizedCrystal
_audit_creation_method	'MofGen! by Chris Wilmer'
_symmetry_space_group_name_H-M	'P1'
_symmetry_Int_Tables_number	1
_symmetry_cell_setting	triclinic
loop_
_symmetry_equiv_pos_as_xyz
  x,y,z
_cell_length_a	20.016444
_cell_length_b	12.970454
_cell_length_c	12.970454
_cell_angle_alpha	59.999644
_cell_angle_beta	90.001406
_cell_angle_gamma	60.002422
loop_
_atom_site_label
_atom_site_type_symbol
_atom_site_fract_x
_atom_site_fract_y
_atom_site_fract_z
Zr1	Zr	0.643580	1.128569	-0.135307
O2	O	0.536907	1.343653	-0.299932
O3	O	0.676281	0.913480	-0.084840
O4	O	0.676280	1.128572	-0.299932
O5	O	0.536908	1.128560	0.084827
O6	O	0.786220	1.128580	-0.299932
O7	O	0.536908	1.128561	-0.084841
O8	O	0.786221	0.743820	0.084828
O9	O	0.536907	1.513320	-0.299933
O10	O	0.772274	1.001957	-0.063317
O11	O	0.690228	1.001951	0.063304
O12	O	0.690227	1.255194	-0.189939
O13	O	0.608181	1.255187	-0.063318
Zr14	Zr	0.818922	1.128581	0.135293
Zr15	Zr	0.818921	1.128582	-0.135307
Zr16	Zr	0.643581	1.128568	0.135293
Zr17	Zr	0.643580	1.399169	-0.135308
Zr18	Zr	0.818922	0.857981	0.135294
O19	O	0.786221	1.343669	0.084825
O20	O	0.786220	1.343671	-0.299933
O21	O	0.536908	1.343651	0.084826
O22	O	0.925595	0.913497	0.299918
O23	O	0.925594	0.913499	-0.084840
O24	O	0.676282	0.913478	0.299919
O25	O	0.925594	1.128590	-0.084841
O26	O	0.786222	1.128577	0.299917
O27	O	0.676282	1.128569	0.299917
O28	O	0.925594	1.128589	0.084826
O29	O	0.676280	1.513331	-0.299934
O30	O	0.786222	0.743819	0.299919
O31	O	0.925595	0.743829	0.299919
O32	O	0.925594	0.743831	0.084828
O33	O	0.536908	1.513319	-0.084843
O34	O	0.676281	1.513329	-0.084843
O35	O	0.772275	1.001956	0.189925
O36	O	0.854322	1.001963	0.063304
O37	O	0.772274	1.255199	-0.063318
O38	O	0.690228	1.255192	0.063303
C39	C	0.731251	0.790096	-0.000006
C40	C	0.731251	0.675219	-0.000005
C41	C	0.511926	1.128559	-0.000007
C42	C	0.437489	1.128553	-0.000007
C43	C	0.309049	0.996383	0.066092
C44	C	0.239104	0.996389	0.066095
C45	C	0.153454	1.260777	-0.066108
C46	C	0.223399	1.260769	-0.066103
C47	C	0.301196	1.128568	-0.000006
C48	C	0.161306	1.128582	-0.000008
C49	C	0.085468	1.128589	-0.000005
C50	C	0.377039	1.128560	-0.000007
C51	C	0.950576	1.128591	-0.000008
C52	C	1.025013	1.128597	-0.000008
C53	C	0.731250	1.128577	-0.338486
C54	C	0.731250	1.128577	-0.453363
C55	C	0.731251	1.467054	-0.000009
C56	C	0.731251	1.581931	-0.000010
C57	C	0.731252	1.128573	0.338472
C58	C	0.731252	1.128573	0.453349
C59	C	0.950576	0.790112	-0.000006
C60	C	1.025013	0.675241	-0.000006
C61	C	0.731252	0.790094	0.338474
C62	C	0.731252	0.675217	0.453351
C63	C	0.950577	0.790110	0.338473
C64	C	1.025015	0.675238	0.453350
C65	C	0.511925	1.467040	-0.338488
C66	C	0.437487	1.581911	-0.453365
C67	C	0.511926	1.467038	-0.000009
C68	C	0.437489	1.581909	-0.000009
C69	C	0.731250	1.467056	-0.338488
C70	C	0.731250	1.581933	-0.453366
C71	C	1.017142	0.621293	-0.066111
C72	C	1.087077	0.513374	-0.066136
C73	C	1.164882	0.459398	-0.000047
C74	C	1.172752	0.513356	0.066061
C75	C	1.102818	0.621280	0.066077
C76	C	1.102806	0.621297	0.441203
C77	C	1.172755	0.513378	0.549132
C78	C	1.164910	0.459394	0.669207
C79	C	1.087110	0.513347	0.681352
C80	C	1.017164	0.621271	0.573424
C81	C	0.359696	1.635866	-0.441218
C82	C	0.289748	1.743819	-0.549147
C83	C	0.297592	1.797808	-0.669222
C84	C	0.375392	1.743849	-0.681367
C85	C	0.445339	1.635905	-0.573439
C86	C	0.445360	1.635868	0.066086
C87	C	0.375425	1.743817	0.066081
C88	C	0.297620	1.797797	-0.000012
C89	C	0.289750	1.743834	-0.066115
C90	C	0.359684	1.635894	-0.066117
H91	H	0.245506	0.888751	0.119920
H92	H	0.226392	1.787801	-0.119926
O93	O	0.077822	1.389059	-0.130300
C94	C	0.017769	1.360725	-0.116111
H95	H	0.045021	1.247117	-0.091765
H96	H	-0.004112	1.366999	-0.036983
C97	C	-0.088554	1.614302	-0.270288
C98	C	-0.055085	1.474770	-0.240397
H99	H	-0.133495	1.684653	-0.346950
H100	H	-0.048096	1.633393	-0.279845
H101	H	-0.106782	1.619509	-0.204338
H102	H	-0.036848	1.469559	-0.306338
H103	H	-0.095541	1.455681	-0.230853
H104	H	0.240682	1.885688	-0.000001
O105	O	1.248396	0.460703	0.130243
C106	C	1.308424	0.353901	0.116022
H107	H	1.281148	0.306729	0.091664
H108	H	1.330304	0.405536	0.036890
C109	C	1.414785	0.289145	0.270201
C110	C	1.381286	0.231198	0.240295
H111	H	1.459732	0.213458	0.346855
H112	H	1.374344	0.361103	0.279780
H113	H	1.433012	0.332173	0.204249
H114	H	1.363051	0.188187	0.306239
H115	H	1.421726	0.159229	0.230730
H116	H	1.080653	0.469454	-0.119969
O117	O	0.941554	0.673630	0.585073
C118	C	0.898547	0.647199	0.526639
H119	H	0.925242	0.633787	0.453065
H120	H	0.904387	0.543394	0.600864
C121	C	0.774829	0.793144	0.552296
C122	C	0.807613	0.776683	0.461923
H123	H	0.718737	0.873011	0.512381
H124	H	0.803805	0.810947	0.591669
H125	H	0.779704	0.706631	0.614144
H126	H	0.802748	0.863188	0.400087
H127	H	0.778635	0.758898	0.422539
O128	O	0.351886	1.583586	-0.130332
C129	C	0.268214	1.654409	-0.188682
H130	H	0.230928	1.698894	-0.136836
H131	H	0.247606	1.748149	-0.291275
C132	C	0.300818	1.490416	-0.247545
C133	C	0.255023	1.545043	-0.183861
H134	H	0.292680	1.422957	-0.244577
H135	H	0.357189	1.442704	-0.208238
H136	H	0.283639	1.568545	-0.333033
H137	H	0.272209	1.466917	-0.098371
H138	H	0.198654	1.592739	-0.223154
H139	H	0.353293	1.591914	-0.343456
H140	H	0.226407	1.787734	-0.539233
O141	O	1.110616	0.673461	0.130420
C142	C	1.194288	0.602689	0.188719
H143	H	1.231574	0.493303	0.201775
H144	H	1.214896	0.673480	0.126782
C145	C	1.161684	0.711867	0.302397
C146	C	1.207479	0.577511	0.318442
H147	H	1.169822	0.696341	0.382414
H148	H	1.105313	0.759552	0.263117
H149	H	1.178862	0.770845	0.250779
H150	H	1.190294	0.518543	0.370046
H151	H	1.263848	0.529815	0.357734
H152	H	1.221820	0.371517	-0.000070
H153	H	0.372392	0.888737	0.119926
O154	O	0.941549	0.673583	-0.130118
C155	C	0.898518	0.647233	-0.045277
H156	H	0.943897	0.552628	0.054305
H157	H	0.857018	0.749107	-0.047592
C158	C	0.790540	0.724824	-0.206303
C159	C	0.846275	0.608621	-0.083996
H160	H	0.758311	0.701013	-0.230188
H161	H	0.819529	0.742583	-0.263464
H162	H	0.755965	0.809709	-0.208216
H163	H	0.880856	0.523744	-0.082088
H164	H	0.817291	0.590847	-0.026835
H165	H	0.216998	1.368416	-0.119925
O166	O	1.248337	0.461133	0.537371
C167	C	1.291359	0.487512	0.595843
H168	H	1.245976	0.582091	0.600843
H169	H	1.332884	0.385633	0.695395
C170	C	1.399308	0.410023	0.512340
C171	C	1.343567	0.526195	0.518472
H172	H	1.431515	0.433878	0.464619
H173	H	1.370325	0.392245	0.472950
H174	H	1.433904	0.325135	0.595305
H175	H	1.308966	0.611075	0.435510
H176	H	1.372546	0.543988	0.557846
H177	H	0.240630	1.885702	-0.757093
O178	O	0.383151	1.796027	-0.797917
C179	C	0.466810	1.725156	-0.785515
H180	H	0.504134	1.680854	-0.689290
H181	H	0.487393	1.631280	-0.794153
C182	C	0.434128	1.888808	-1.008468
C183	C	0.479970	1.834407	-0.890287
H184	H	0.442247	1.956196	-1.073098
H185	H	0.377765	1.936553	-1.016825
H186	H	0.451286	1.810566	-1.015648
H187	H	0.462806	1.912646	-0.883102
H188	H	0.536331	1.786678	-0.881931
O189	O	0.520918	1.583652	-0.585197
C190	C	0.563952	1.609996	-0.526703
H191	H	0.518577	1.704562	-0.521681
H192	H	0.605478	1.508100	-0.427159
C193	C	0.671891	1.532528	-0.610227
C194	C	0.616161	1.648684	-0.604069
H195	H	0.704099	1.556386	-0.657945
H196	H	0.642900	1.514774	-0.649632
H197	H	0.706488	1.447625	-0.527268
H198	H	0.581559	1.733579	-0.687025
H199	H	0.645148	1.666453	-0.564679
O200	O	0.520954	1.583217	0.130451
C201	C	0.563983	1.431971	0.223206
H202	H	0.518604	1.402419	0.247782
H203	H	0.605483	1.370242	0.185374
C204	C	0.671964	1.426358	0.312248
C205	C	0.616228	1.390064	0.342440
H206	H	0.704194	1.400505	0.385796
H207	H	0.642976	1.528255	0.249755
H208	H	0.706538	1.374914	0.280720
H209	H	0.581648	1.441521	0.373952
H210	H	0.645211	1.288174	0.404941
H211	H	1.109209	0.665234	0.343442
H212	H	0.381849	1.787735	0.119914
H213	H	1.221872	0.371515	0.757079
H214	H	1.080735	0.469378	0.779132
