data_functionalizedCrystal
_audit_creation_method	'MofGen! by Chris Wilmer'
_symmetry_space_group_name_H-M	'P1'
_symmetry_Int_Tables_number	1
_symmetry_cell_setting	triclinic
loop_
_symmetry_equiv_pos_as_xyz
  x,y,z
_cell_length_a	12.759401
_cell_length_b	12.759400
_cell_length_c	12.759393
_cell_angle_alpha	89.969510
_cell_angle_beta	89.979062
_cell_angle_gamma	90.016209
loop_
_atom_site_label
_atom_site_type_symbol
_atom_site_fract_x
_atom_site_fract_y
_atom_site_fract_z
Zn1	Zn	1.606266	-0.418173	-0.594020
Zn2	Zn	1.606158	-0.593888	-0.418340
Zn3	Zn	1.430565	-0.418229	-0.418355
Zn4	Zn	1.430557	-0.593815	-0.593978
O5	O	1.518387	-0.506026	-0.506173
O6	O	1.753273	-0.441489	-0.570727
O7	O	1.582823	-0.570641	-0.271321
O8	O	1.453921	-0.271200	-0.441682
O9	O	1.753193	-0.570587	-0.441656
O10	O	1.583008	-0.271159	-0.570742
O11	O	1.453816	-0.441584	-0.271332
O12	O	1.283543	-0.441513	-0.441640
O13	O	1.453908	-0.570461	-0.741004
O14	O	1.283537	-0.570516	-0.570669
O15	O	1.583000	-0.441418	-0.741036
O16	O	1.582815	-0.740900	-0.441615
O17	O	1.453802	-0.740846	-0.570655
C18	C	1.245419	-0.506013	-0.506152
C19	C	1.128643	-0.506033	-0.506168
C20	C	1.073805	-0.573307	-0.573248
C21	C	0.964081	-0.573311	-0.573269
C22	C	0.964042	-0.438764	-0.439122
C23	C	1.073764	-0.438756	-0.439107
C24	C	1.518324	-0.778994	-0.506151
C25	C	1.518394	-0.895770	-0.506177
C26	C	1.585645	-0.950625	-0.439060
C27	C	1.585710	-1.060349	-0.439093
C28	C	1.451262	-1.060353	-0.573362
C29	C	1.451204	-0.950631	-0.573334
C30	C	1.663264	-0.950624	-0.361538
C31	C	1.663329	-1.060348	-0.361570
C32	C	1.792420	-0.506040	-0.506195
C33	C	1.909197	-0.506046	-0.506204
C34	C	1.518465	-0.505925	-0.780207
C35	C	1.518499	-0.505882	-0.896984
C36	C	1.518478	-0.231993	-0.506218
C37	C	1.518517	-0.115216	-0.506238
C38	C	1.585722	-0.438679	-0.951864
C39	C	1.585740	-0.438633	-1.061588
C40	C	1.451308	-0.573004	-1.061542
C41	C	1.451285	-0.573044	-0.951820
C42	C	1.518369	-0.506051	-0.233206
C43	C	1.518539	-0.505798	-0.116430
H44	H	0.919437	-0.628090	-0.627893
C45	C	1.716138	-1.161586	-0.211965
C46	C	1.633982	-1.100666	-0.251713
H47	H	1.698021	-1.186469	-0.144144
H48	H	1.728253	-1.219434	-0.257191
H49	H	1.777852	-1.120160	-0.207587
H50	H	1.572269	-1.142094	-0.256099
H51	H	1.621854	-1.042810	-0.206475
H52	H	0.919346	-0.383991	-0.384521
H53	H	1.118414	-0.383967	-0.384482
C54	C	1.318316	-0.961661	-0.706054
C55	C	1.377280	-0.890333	-0.647112
H56	H	1.272672	-0.924433	-0.751596
H57	H	1.364096	-1.004382	-0.746289
H58	H	1.278176	-1.004530	-0.660245
H59	H	1.417425	-0.847469	-0.692920
H60	H	1.331494	-0.847594	-0.606873
H61	H	1.396587	-0.627687	-1.106203
C62	C	1.391656	-1.228552	-0.633026
C63	C	1.377403	-1.120661	-0.647172
H64	H	1.346051	-1.265779	-0.678590
H65	H	1.462240	-1.246455	-0.648471
H66	H	1.376323	-1.246594	-0.562424
H67	H	1.392743	-1.102618	-0.717772
H68	H	1.306803	-1.102750	-0.631734
H69	H	1.396536	-0.627768	-0.907136
C70	C	1.839725	-0.995595	-0.408979
C71	C	1.773068	-0.910304	-0.391047
H72	H	1.907509	-0.970700	-0.427202
H73	H	1.844203	-1.036992	-0.347253
H74	H	1.812676	-1.036926	-0.464657
H75	H	1.800114	-0.868977	-0.335363
H76	H	1.768594	-0.868889	-0.452779
H77	H	1.634138	-0.916676	-0.284211
H78	H	1.740633	-1.094291	-0.390784
C79	C	1.062819	-0.706288	-0.705859
C80	C	1.134129	-0.647245	-0.646973
H81	H	1.100061	-0.751928	-0.751381
H82	H	1.019997	-0.746426	-0.660023
H83	H	1.020050	-0.660550	-0.746125
H84	H	1.176894	-0.692983	-0.606701
H85	H	1.176969	-0.607104	-0.692816
H86	H	1.640449	-0.383989	-0.907219
H87	H	1.640479	-0.383908	-1.106266
