data_functionalizedCrystal
_audit_creation_method	'MofGen! by Chris Wilmer'
_symmetry_space_group_name_H-M	'P1'
_symmetry_Int_Tables_number	1
_symmetry_cell_setting	triclinic
loop_
_symmetry_equiv_pos_as_xyz
  x,y,z
_cell_length_a	21.295418
_cell_length_b	21.295417
_cell_length_c	21.295411
_cell_angle_alpha	89.978356
_cell_angle_beta	89.956262
_cell_angle_gamma	90.046319
loop_
_atom_site_label
_atom_site_type_symbol
_atom_site_fract_x
_atom_site_fract_y
_atom_site_fract_z
Zn1	Zn	0.962356	-0.250415	-0.356234
Zn2	Zn	0.962258	-0.355667	-0.250959
Zn3	Zn	0.857079	-0.250445	-0.250943
Zn4	Zn	0.857048	-0.355680	-0.356155
O5	O	0.909685	-0.303052	-0.303573
O6	O	1.050432	-0.264360	-0.342308
O7	O	0.948278	-0.341716	-0.162867
O8	O	0.871098	-0.162351	-0.264937
O9	O	1.050361	-0.341688	-0.264963
O10	O	0.948444	-0.162330	-0.342293
O11	O	0.871003	-0.264410	-0.162856
O12	O	0.768985	-0.264422	-0.264861
O13	O	0.871046	-0.341709	-0.444255
O14	O	0.768963	-0.341738	-0.342160
O15	O	0.948415	-0.264372	-0.444313
O16	O	0.948248	-0.443758	-0.264887
O17	O	0.870951	-0.443767	-0.342175
C18	C	0.746134	-0.303085	-0.303500
C19	C	0.676166	-0.303114	-0.303484
C20	C	0.909603	-0.466603	-0.303538
C21	C	0.909625	-0.536571	-0.303544
C22	C	0.643304	-0.343426	-0.343674
C23	C	0.577561	-0.343410	-0.343702
C24	C	0.544683	-0.303090	-0.303530
C25	C	0.577553	-0.262770	-0.263337
C26	C	0.643294	-0.262783	-0.263315
N27	N	0.441407	-0.298163	-0.248472
N28	N	0.378956	-0.298155	-0.248495
C29	C	0.346608	-0.303050	-0.303596
N30	N	0.379072	-0.307965	-0.358675
N31	N	0.441529	-0.307976	-0.358650
C32	C	0.473398	-0.303072	-0.303550
C33	C	0.242461	-0.343346	-0.343820
C34	C	0.176717	-0.343326	-0.343849
C35	C	0.176710	-0.262690	-0.263479
C36	C	0.242453	-0.262707	-0.263455
C37	C	0.275324	-0.303038	-0.303625
C38	C	0.949910	-0.569412	-0.263342
C39	C	0.949939	-0.635155	-0.263356
C40	C	0.909673	-0.668054	-0.303566
C41	C	0.869386	-0.635205	-0.343776
C42	C	0.869362	-0.569464	-0.343765
N43	N	0.854606	-0.771336	-0.308340
N44	N	0.854630	-0.833787	-0.308347
C45	C	0.909743	-0.866129	-0.303602
N46	N	0.964832	-0.833659	-0.298838
N47	N	0.964807	-0.771202	-0.298828
C48	C	0.909695	-0.739339	-0.303582
C49	C	0.950063	-0.970255	-0.263413
C50	C	0.950094	-1.035999	-0.263431
C51	C	0.869535	-1.036048	-0.343848
C52	C	0.869510	-0.970305	-0.343833
C53	C	0.909773	-0.937413	-0.303612
C54	C	1.073876	-0.303019	-0.303646
C55	C	1.143844	-0.303005	-0.303677
C56	C	0.909738	-0.303038	-0.467763
C57	C	0.909760	-0.303033	-0.537731
C58	C	0.909785	-0.138861	-0.303622
C59	C	0.909828	-0.068893	-0.303642
C60	C	0.950044	-0.262761	-0.570629
C61	C	0.950043	-0.262734	-0.636371
C62	C	0.909765	-0.302989	-0.669214
C63	C	0.869473	-0.343263	-0.636308
C64	C	0.869470	-0.343285	-0.570567
N65	N	0.904908	-0.358058	-0.772428
N66	N	0.904914	-0.358036	-0.834879
C67	C	0.909769	-0.302926	-0.867289
N68	N	0.914629	-0.247837	-0.834888
N69	N	0.914627	-0.247860	-0.772430
C70	C	0.909763	-0.302970	-0.740499
C71	C	0.950054	-0.262621	-0.971472
C72	C	0.950049	-0.262593	-1.037216
C73	C	0.869482	-0.343128	-1.037151
C74	C	0.869484	-0.343151	-0.971409
C75	C	0.909773	-0.302898	-0.938573
C76	C	0.909670	-0.303019	-0.140021
C77	C	0.909769	-0.302848	-0.070054
H78	H	0.550800	-0.376236	-0.376431
H79	H	0.982846	-0.229937	-0.663162
H80	H	0.982852	-0.229795	-1.064000
H81	H	0.836602	-0.661996	-0.376516
H82	H	0.550779	-0.229940	-0.230630
C83	C	0.994249	-0.671288	-0.219127
H84	H	1.018221	-0.642282	-0.195169
H85	H	1.021675	-0.696892	-0.243240
H86	H	0.970180	-0.696973	-0.191675
C87	C	0.825170	-0.387546	-0.672432
H88	H	0.830946	-0.381771	-0.716298
H89	H	0.782880	-0.378347	-0.661631
H90	H	0.834362	-0.429844	-0.661660
H91	H	0.982850	-0.943473	-0.230664
H92	H	0.836557	-0.542724	-0.376503
H93	H	0.982902	-1.062737	-0.230695
C94	C	0.679447	-0.218441	-0.219104
H95	H	0.723308	-0.224222	-0.224846
H96	H	0.668616	-0.227586	-0.176795
H97	H	0.668727	-0.176155	-0.228405
H98	H	0.836752	-1.062833	-0.376591
H99	H	0.269226	-0.376183	-0.376531
C100	C	0.825180	-0.387412	-1.073270
H101	H	0.830954	-0.381636	-1.117136
H102	H	0.782889	-0.378217	-1.062467
H103	H	0.834376	-0.429710	-1.062499
H104	H	0.836683	-0.375948	-0.944623
H105	H	0.982850	-0.229984	-0.543898
C106	C	0.140569	-0.387680	-0.388051
H107	H	0.169564	-0.411707	-0.411962
H108	H	0.114974	-0.363647	-0.415538
H109	H	0.114873	-0.415064	-0.363914
C110	C	0.825193	-0.934175	-0.388050
H111	H	0.830949	-0.890311	-0.382289
H112	H	0.782906	-0.945003	-0.378788
H113	H	0.834394	-0.944916	-0.430361
C114	C	0.278606	-0.218369	-0.219243
H115	H	0.322467	-0.224147	-0.224986
H116	H	0.267776	-0.227515	-0.176934
H117	H	0.267884	-0.176083	-0.228543
H118	H	0.836663	-0.376078	-0.543782
H119	H	0.982857	-0.229842	-0.944736
H120	H	0.670063	-0.376266	-0.376384
C121	C	0.994183	-0.533231	-0.219089
H122	H	0.988392	-0.489374	-0.224830
H123	H	1.036483	-0.543943	-0.228337
H124	H	0.984972	-0.544048	-0.176788
C125	C	0.140552	-0.218330	-0.219298
H126	H	0.096692	-0.224096	-0.225067
H127	H	0.151384	-0.176054	-0.228591
H128	H	0.151266	-0.227481	-0.176977
