data_functionalizedCrystal
_audit_creation_method	'MofGen! by Chris Wilmer'
_symmetry_space_group_name_H-M	'P1'
_symmetry_Int_Tables_number	1
_symmetry_cell_setting	triclinic
loop_
_symmetry_equiv_pos_as_xyz
  x,y,z
_cell_length_a	19.188930
_cell_length_b	11.792241
_cell_length_c	10.268362
_cell_angle_alpha	90.005428
_cell_angle_beta	90.018465
_cell_angle_gamma	83.669098
loop_
_atom_site_label
_atom_site_type_symbol
_atom_site_fract_x
_atom_site_fract_y
_atom_site_fract_z
O1	O	-0.926947	-0.141694	-0.108720
O2	O	-0.593614	0.191639	0.224614
O3	O	-0.260281	0.524972	0.557947
O4	O	-0.723744	-0.160769	-0.108631
O5	O	-0.390411	0.172564	0.224703
O6	O	-0.057077	0.505898	0.558036
O7	O	-0.830277	0.014013	-0.108668
O8	O	-0.496944	0.347346	0.224665
O9	O	-0.163610	0.680679	0.557998
O10	O	-0.820415	-0.316476	-0.108682
O11	O	-0.487081	0.016857	0.224651
O12	O	-0.153748	0.350191	0.557985
O13	O	-0.830268	0.014020	0.107932
O14	O	-0.496934	0.347353	0.441266
O15	O	-0.163601	0.680686	0.774599
O16	O	-0.723735	-0.160762	0.107970
O17	O	-0.390401	0.172572	0.441303
O18	O	-0.057068	0.505905	0.774637
O19	O	-0.926938	-0.141687	0.107881
O20	O	-0.593605	0.191646	0.441214
O21	O	-0.260271	0.524979	0.774548
Cu22	Cu	-0.825336	-0.151224	0.127703
Cu23	Cu	-0.492002	0.182109	0.461036
Cu24	Cu	-0.158669	0.515443	0.794369
Cu25	Cu	-0.825347	-0.151232	-0.128453
Cu26	Cu	-0.492013	0.182101	0.204881
Cu27	Cu	-0.158680	0.515434	0.538214
O28	O	-0.820405	-0.316469	0.107919
O29	O	-0.487072	0.016864	0.441252
O30	O	-0.153739	0.350198	0.774585
C31	C	-0.829653	0.056298	-0.000368
C32	C	-0.496319	0.389631	0.332965
C33	C	-0.162986	0.722965	0.666299
C34	C	-0.827799	0.182284	-0.000368
C35	C	-0.494465	0.515617	0.332965
C36	C	-0.161132	0.848951	0.666298
C37	C	-0.697725	-0.160148	-0.000319
C38	C	-0.364392	0.173186	0.333015
C39	C	-0.031058	0.506519	0.666348
C40	C	-0.620210	-0.158293	-0.000285
C41	C	-0.286877	0.175040	0.333049
C42	C	0.046457	0.508373	0.666382
C43	C	-0.952957	-0.142309	-0.000434
C44	C	-0.619624	0.191025	0.332900
C45	C	-0.286291	0.524358	0.666233
C46	C	-1.030472	-0.144163	-0.000477
C47	C	-0.697139	0.189170	0.332857
C48	C	-0.363806	0.522504	0.666190
C49	C	-0.575867	-0.260849	-0.000309
C50	C	-0.242534	0.072484	0.333024
C51	C	0.090800	0.405817	0.666357
C52	C	-0.503033	-0.259107	-0.000324
C53	C	-0.169700	0.074226	0.333010
C54	C	0.163633	0.407559	0.666343
C55	C	-0.474546	-0.154803	-0.000339
C56	C	-0.141213	0.178530	0.332994
C57	C	0.192121	0.511863	0.666328
C58	C	-0.518899	-0.052234	-0.000307
C59	C	-0.185565	0.281099	0.333026
C60	C	0.147768	0.614433	0.666360
C61	C	-0.591731	-0.053979	-0.000280
C62	C	-0.258397	0.279354	0.333054
C63	C	0.074936	0.612688	0.666387
N64	N	-0.366117	-0.075079	-0.074107
N65	N	-0.032784	0.258255	0.259226
N66	N	0.300549	0.591588	0.592560
N67	N	-0.296929	-0.073428	-0.074136
N68	N	0.036404	0.259905	0.259198
N69	N	0.369737	0.593239	0.592531
C70	C	-0.255107	-0.149540	-0.000419
C71	C	0.078226	0.183794	0.332915
C72	C	0.411559	0.517127	0.666248
N73	N	-0.285086	-0.227382	0.073312
N74	N	0.048247	0.105951	0.406645
N75	N	0.381581	0.439285	0.739979
N76	N	-0.354280	-0.229036	0.073335
N77	N	-0.020947	0.104297	0.406668
N78	N	0.312387	0.437631	0.740001
C79	C	-0.395573	-0.152900	-0.000368
C80	C	-0.062239	0.180433	0.332965
C81	C	0.271094	0.513767	0.666299
C82	C	-0.131789	-0.250214	-0.000457
C83	C	0.201544	0.083119	0.332876
C84	C	0.534877	0.416453	0.666210
C85	C	-0.058955	-0.248468	-0.000463
C86	C	0.274379	0.084866	0.332870
C87	C	0.607712	0.418199	0.666204
C88	C	-0.074822	-0.041591	-0.000460
C89	C	0.258512	0.291742	0.332874
C90	C	0.591845	0.625075	0.666207
C91	C	-0.147655	-0.043341	-0.000440
C92	C	0.185679	0.289993	0.332893
C93	C	0.519012	0.623326	0.666226
C94	C	-0.176134	-0.147655	-0.000445
C95	C	0.157199	0.185678	0.332888
C96	C	0.490533	0.519012	0.666221
C97	C	-0.821029	-0.358754	-0.000385
C98	C	-0.487696	-0.025421	0.332949
C99	C	-0.154363	0.307913	0.666282
C100	C	-0.822884	-0.484740	-0.000393
C101	C	-0.489550	-0.151407	0.332941
C102	C	-0.156217	0.181927	0.666274
N103	N	-0.825333	-0.151217	0.307869
N104	N	-0.492000	0.182116	0.641202
N105	N	-0.158666	0.515449	0.974535
C106	C	-0.824389	0.412945	-0.000389
C107	C	-0.491056	0.746278	0.332945
C108	C	-0.157722	1.079612	0.666278
C109	C	-0.826283	0.284588	-0.000378
C110	C	-0.492950	0.617921	0.332956
C111	C	-0.159617	0.951255	0.666289
N112	N	-0.825355	-0.151230	-0.308618
N113	N	-0.492021	0.182103	0.024715
N114	N	-0.158688	0.515437	0.358048
C115	C	-0.825343	-0.151230	0.573539
C116	C	-0.492010	0.182103	0.906873
C117	C	-0.158676	0.515437	1.240206
C118	C	-0.825335	-0.151226	0.425701
C119	C	-0.492002	0.182107	0.759035
C120	C	-0.158669	0.515440	1.092368
H121	H	-0.599050	-0.345790	-0.000316
H122	H	-0.265716	-0.012457	0.333018
H123	H	0.067617	0.320876	0.666351
H124	H	-0.154978	-0.335153	-0.000442
H125	H	0.178355	-0.001820	0.332892
H126	H	0.511689	0.331514	0.666225
F127	F	-0.488580	0.058774	-0.000318
F128	F	-0.155246	0.392107	0.333016
F129	F	0.178087	0.725440	0.666349
H130	H	-0.183760	0.040172	-0.000427
H131	H	0.149573	0.373505	0.332906
H132	H	0.482907	0.706839	0.666239
F133	F	-0.011761	-0.357628	-0.000483
F134	F	0.321573	-0.024295	0.332851
F135	F	0.654906	0.309038	0.666184
F136	F	-0.455831	-0.368266	-0.000346
F137	F	-0.122498	-0.034933	0.332987
F138	F	0.210835	0.298401	0.666320
H139	H	-0.627836	0.029537	-0.000260
H140	H	-0.294502	0.362871	0.333073
H141	H	0.038831	0.696204	0.666406
F142	F	-0.044508	0.069418	-0.000464
F143	F	0.288825	0.402751	0.332870
F144	F	0.622158	0.736084	0.666203
