data_functionalizedCrystal
_audit_creation_method	'MofGen! by Chris Wilmer'
_symmetry_space_group_name_H-M	'P1'
_symmetry_Int_Tables_number	1
_symmetry_cell_setting	triclinic
loop_
_symmetry_equiv_pos_as_xyz
  x,y,z
_cell_length_a	19.288813
_cell_length_b	19.288864
_cell_length_c	18.366186
_cell_angle_alpha	89.977106
_cell_angle_beta	90.016152
_cell_angle_gamma	96.874130
loop_
_atom_site_label
_atom_site_type_symbol
_atom_site_fract_x
_atom_site_fract_y
_atom_site_fract_z
O1	O	-0.086651	0.921337	-0.060799
O2	O	0.163349	1.171337	0.189201
O3	O	0.413349	1.421337	0.439201
O4	O	0.663349	1.671337	0.689201
O5	O	-0.098340	0.719074	-0.060751
O6	O	0.151660	0.969074	0.189249
O7	O	0.401660	1.219074	0.439249
O8	O	0.651660	1.469074	0.689249
O9	O	0.008638	0.826068	-0.060753
O10	O	0.258638	1.076068	0.189247
O11	O	0.508638	1.326068	0.439247
O12	O	0.758638	1.576068	0.689247
O13	O	-0.193628	0.814343	-0.060797
O14	O	0.056372	1.064343	0.189203
O15	O	0.306372	1.314343	0.439203
O16	O	0.556372	1.564343	0.689203
O17	O	0.008643	0.826050	0.060346
O18	O	0.258643	1.076050	0.310346
O19	O	0.508643	1.326050	0.560346
O20	O	0.758643	1.576050	0.810346
O21	O	-0.098335	0.719056	0.060348
O22	O	0.151665	0.969056	0.310348
O23	O	0.401665	1.219056	0.560348
O24	O	0.651665	1.469056	0.810348
O25	O	-0.086646	0.921319	0.060301
O26	O	0.163354	1.171319	0.310301
O27	O	0.413354	1.421319	0.560301
O28	O	0.663354	1.671319	0.810301
Zn29	Zn	-0.092489	0.820185	0.079552
Zn30	Zn	0.157511	1.070185	0.329552
Zn31	Zn	0.407511	1.320185	0.579552
Zn32	Zn	0.657511	1.570185	0.829552
Zn33	Zn	-0.092496	0.820208	-0.080002
Zn34	Zn	0.157504	1.070208	0.169998
Zn35	Zn	0.407504	1.320208	0.419998
Zn36	Zn	0.657504	1.570208	0.669998
O37	O	-0.193623	0.814325	0.060303
O38	O	0.056377	1.064325	0.310303
O39	O	0.306377	1.314325	0.560303
O40	O	0.556377	1.564325	0.810303
C41	C	-0.097961	0.693189	-0.000195
C42	C	0.152039	0.943189	0.249805
C43	C	0.402039	1.193189	0.499805
C44	C	0.652039	1.443189	0.749805
C45	C	-0.096832	0.616085	-0.000176
C46	C	0.153168	0.866085	0.249824
C47	C	0.403168	1.116085	0.499824
C48	C	0.653168	1.366085	0.749824
C49	C	-0.159601	0.571378	-0.000201
C50	C	0.090399	0.821378	0.249799
C51	C	0.340399	1.071378	0.499799
C52	C	0.590399	1.321378	0.749799
C53	C	-0.158541	0.498931	-0.000208
C54	C	0.091459	0.748931	0.249792
C55	C	0.341459	0.998931	0.499792
C56	C	0.591459	1.248931	0.749792
C57	C	-0.094707	0.471195	-0.000206
C58	C	0.155293	0.721195	0.249794
C59	C	0.405293	0.971195	0.499794
C60	C	0.655293	1.221195	0.749794
C61	C	-0.031929	0.515912	-0.000177
C62	C	0.218071	0.765912	0.249823
C63	C	0.468071	1.015912	0.499823
C64	C	0.718071	1.265912	0.749823
C65	C	-0.032992	0.588358	-0.000162
C66	C	0.217008	0.838358	0.249838
C67	C	0.467008	1.088358	0.499838
C68	C	0.717008	1.338358	0.749838
C69	C	-0.044528	0.362948	-0.042646
C70	C	0.205472	0.612948	0.207354
C71	C	0.455472	0.862948	0.457354
C72	C	0.705472	1.112948	0.707354
C73	C	-0.043469	0.290504	-0.042666
C74	C	0.206531	0.540504	0.207334
C75	C	0.456531	0.790504	0.457334
C76	C	0.706531	1.040504	0.707334
C77	C	-0.091427	0.247750	-0.000249
C78	C	0.158573	0.497750	0.249751
C79	C	0.408573	0.747750	0.499751
C80	C	0.658573	0.997750	0.749751
C81	C	-0.140458	0.277447	0.042177
C82	C	0.109542	0.527447	0.292177
C83	C	0.359542	0.777447	0.542177
C84	C	0.609542	1.027447	0.792177
C85	C	-0.141520	0.349893	0.042192
C86	C	0.108480	0.599893	0.292192
C87	C	0.358480	0.849893	0.542192
C88	C	0.608480	1.099893	0.792192
C89	C	-0.093548	0.392641	-0.000222
C90	C	0.156452	0.642641	0.249778
C91	C	0.406452	0.892641	0.499778
C92	C	0.656452	1.142641	0.749778
C93	C	-0.153051	0.124486	-0.000282
C94	C	0.096949	0.374486	0.249718
C95	C	0.346949	0.624486	0.499718
C96	C	0.596949	0.874486	0.749718
C97	C	-0.151988	0.052038	-0.000285
C98	C	0.098012	0.302038	0.249715
C99	C	0.348012	0.552038	0.499715
C100	C	0.598012	0.802038	0.749715
C101	C	-0.025374	0.069022	-0.000261
C102	C	0.224626	0.319022	0.249739
C103	C	0.474626	0.569022	0.499739
C104	C	0.724626	0.819022	0.749739
C105	C	-0.026440	0.141468	-0.000250
C106	C	0.223560	0.391468	0.249750
C107	C	0.473560	0.641468	0.499750
C108	C	0.723560	0.891468	0.749750
C109	C	-0.090280	0.169196	-0.000264
C110	C	0.159720	0.419196	0.249736
C111	C	0.409720	0.669196	0.499736
C112	C	0.659720	0.919196	0.749736
C113	C	-0.219503	0.814705	-0.000253
C114	C	0.030497	1.064705	0.249747
C115	C	0.280497	1.314705	0.499747
C116	C	0.530497	1.564705	0.749747
C117	C	-0.296608	0.815820	-0.000271
C118	C	-0.046608	1.065820	0.249729
C119	C	0.203392	1.315820	0.499729
C120	C	0.453392	1.565820	0.749729
C121	C	-0.332799	0.816351	0.065744
C122	C	-0.082799	1.066351	0.315744
C123	C	0.167201	1.316351	0.565744
C124	C	0.417201	1.566351	0.815744
C125	C	-0.405246	0.817418	0.065756
C126	C	-0.155246	1.067418	0.315756
C127	C	0.094754	1.317418	0.565756
C128	C	0.344754	1.567418	0.815756
C129	C	-0.441496	0.817967	-0.000250
C130	C	-0.191496	1.067967	0.249750
C131	C	0.058504	1.317967	0.499750
C132	C	0.308504	1.567967	0.749750
C133	C	-0.405296	0.817432	-0.066274
C134	C	-0.155296	1.067432	0.183726
C135	C	0.094704	1.317432	0.433726
C136	C	0.344704	1.567432	0.683726
C137	C	-0.332852	0.816358	-0.066284
C138	C	-0.082852	1.066358	0.183716
C139	C	0.167148	1.316358	0.433716
C140	C	0.417148	1.566358	0.683716
C141	C	-0.550825	0.860361	-0.050816
C142	C	-0.300825	1.110361	0.199184
C143	C	-0.050825	1.360361	0.449184
C144	C	0.199175	1.610361	0.699184
C145	C	-0.623267	0.861438	-0.050802
C146	C	-0.373267	1.111438	0.199198
C147	C	-0.123267	1.361438	0.449198
C148	C	0.126733	1.611438	0.699198
C149	C	-0.664938	0.821276	-0.000221
C150	C	-0.414938	1.071276	0.249779
C151	C	-0.164938	1.321276	0.499779
C152	C	0.085062	1.571276	0.749779
C153	C	-0.634156	0.780044	0.050359
C154	C	-0.384156	1.030044	0.300359
C155	C	-0.134156	1.280044	0.550359
C156	C	0.115844	1.530044	0.800359
C157	C	-0.561712	0.778970	0.050349
C158	C	-0.311712	1.028970	0.300349
C159	C	-0.061712	1.278970	0.550349
C160	C	0.188288	1.528970	0.800349
C161	C	-0.520049	0.819131	-0.000246
C162	C	-0.270049	1.069131	0.249754
C163	C	-0.020049	1.319131	0.499754
C164	C	0.229951	1.569131	0.749754
C165	C	-0.779684	0.822963	0.065812
C166	C	-0.529684	1.072963	0.315812
C167	C	-0.279684	1.322963	0.565812
C168	C	-0.029684	1.572963	0.815812
C169	C	-0.852132	0.824025	0.065821
C170	C	-0.602132	1.074025	0.315821
C171	C	-0.352132	1.324025	0.565821
C172	C	-0.102132	1.574025	0.815821
C173	C	-0.852180	0.824046	-0.066211
C174	C	-0.602180	1.074046	0.183789
C175	C	-0.352180	1.324046	0.433789
C176	C	-0.102180	1.574046	0.683789
C177	C	-0.779734	0.822976	-0.066218
C178	C	-0.529734	1.072976	0.183782
C179	C	-0.279734	1.322976	0.433782
C180	C	-0.029734	1.572976	0.683782
C181	C	-0.743490	0.822438	-0.000205
C182	C	-0.493490	1.072438	0.249795
C183	C	-0.243490	1.322438	0.499795
C184	C	0.006510	1.572438	0.749795
C185	C	0.034517	0.825688	-0.000199
C186	C	0.284517	1.075688	0.249801
C187	C	0.534517	1.325688	0.499801
C188	C	0.784517	1.575688	0.749801
C189	C	0.111623	0.824573	-0.000186
C190	C	0.361623	1.074573	0.249814
C191	C	0.611623	1.324573	0.499814
C192	C	0.861623	1.574573	0.749814
C193	C	-0.087024	0.947204	-0.000257
C194	C	0.162976	1.197204	0.249743
C195	C	0.412976	1.447204	0.499743
C196	C	0.662976	1.697204	0.749743
C197	C	-0.088153	1.024308	-0.000281
C198	C	0.161847	1.274308	0.249719
C199	C	0.411847	1.524308	0.499719
C200	C	0.661847	1.774308	0.749719
N201	N	-0.092484	0.820173	0.188443
N202	N	0.157516	1.070173	0.438443
N203	N	0.407516	1.320173	0.688443
N204	N	0.657516	1.570173	0.938443
N205	N	-0.092496	0.820225	-0.188893
N206	N	0.157504	1.070225	0.061107
N207	N	0.407504	1.320225	0.311107
N208	N	0.657504	1.570225	0.561107
C209	C	-0.045138	0.867566	0.226542
C210	C	0.204862	1.117566	0.476542
C211	C	0.454862	1.367566	0.726542
C212	C	0.704862	1.617566	0.976542
C213	C	-0.045135	0.867570	0.302770
C214	C	0.204865	1.117570	0.552770
C215	C	0.454865	1.367570	0.802770
C216	C	0.704865	1.617570	1.052770
C217	C	-0.092490	0.820189	0.340895
C218	C	0.157510	1.070189	0.590895
C219	C	0.407510	1.320189	0.840895
C220	C	0.657510	1.570189	1.090895
C221	C	-0.139840	0.772787	0.302787
C222	C	0.110160	1.022787	0.552787
C223	C	0.360160	1.272787	0.802787
C224	C	0.610160	1.522787	1.052787
C225	C	-0.139837	0.772780	0.226560
C226	C	0.110163	1.022780	0.476560
C227	C	0.360163	1.272780	0.726560
C228	C	0.610163	1.522780	0.976560
C229	C	-0.155779	0.810879	0.461644
C230	C	0.094221	1.060879	0.711644
C231	C	0.344221	1.310879	0.961644
C232	C	0.594221	1.560879	1.211644
C233	C	-0.155783	0.810892	0.537868
C234	C	0.094217	1.060892	0.787868
C235	C	0.344217	1.310892	1.037868
C236	C	0.594217	1.560892	1.287868
C237	C	-0.092499	0.820208	0.576003
C238	C	0.157501	1.070208	0.826003
C239	C	0.407501	1.320208	1.076003
C240	C	0.657501	1.570208	1.326003
C241	C	-0.029207	0.829528	0.537903
C242	C	0.220793	1.079528	0.787903
C243	C	0.470793	1.329528	1.037903
C244	C	0.720793	1.579528	1.287903
C245	C	-0.029205	0.829520	0.461677
C246	C	0.220795	1.079520	0.711677
C247	C	0.470795	1.329520	0.961677
C248	C	0.720795	1.579520	1.211677
C249	C	-0.092498	0.820192	0.423550
C250	C	0.157502	1.070192	0.673550
C251	C	0.407502	1.320192	0.923550
C252	C	0.657502	1.570192	1.173550
C253	C	-0.045145	0.867608	0.696757
C254	C	0.204855	1.117608	0.946757
C255	C	0.454855	1.367608	1.196757
C256	C	0.704855	1.617608	1.446757
C257	C	-0.045141	0.867608	0.772986
C258	C	0.204859	1.117608	1.022986
C259	C	0.454859	1.367608	1.272986
C260	C	0.704859	1.617608	1.522986
C261	C	-0.139852	0.772828	0.773002
C262	C	0.110148	1.022828	1.023002
C263	C	0.360148	1.272828	1.273002
C264	C	0.610148	1.522828	1.523002
C265	C	-0.139850	0.772826	0.696774
C266	C	0.110150	1.022826	0.946774
C267	C	0.360150	1.272826	1.196774
C268	C	0.610150	1.522826	1.446774
C269	C	-0.092497	0.820219	0.658656
C270	C	0.157503	1.070219	0.908656
C271	C	0.407503	1.320219	1.158656
C272	C	0.657503	1.570219	1.408656
H273	H	-0.209657	0.462523	-0.000227
H274	H	0.040343	0.712523	0.249773
H275	H	0.290343	0.962523	0.499773
H276	H	0.540343	1.212523	0.749773
H277	H	-0.178407	0.734237	0.665751
H278	H	0.071593	0.984237	0.915751
H279	H	0.321593	1.234237	1.165751
H280	H	0.571593	1.484237	1.415751
H281	H	-0.434720	0.817838	0.119515
H282	H	-0.184720	1.067838	0.369515
H283	H	0.065280	1.317838	0.619515
H284	H	0.315280	1.567838	0.869515
F285	F	-0.890759	0.824608	-0.136460
F286	F	-0.640759	1.074608	0.113540
F287	F	-0.390759	1.324608	0.363540
F288	F	-0.140759	1.574608	0.613540
F289	F	-0.678498	0.737299	0.104199
F290	F	-0.428498	0.987299	0.354199
F291	F	-0.178498	1.237299	0.604199
F292	F	0.071502	1.487299	0.854199
H293	H	0.022325	0.837114	0.568950
H294	H	0.272325	1.087114	0.818950
H295	H	0.522325	1.337114	1.068950
H296	H	0.772325	1.587114	1.318950
H297	H	-0.750266	0.822549	-0.119975
H298	H	-0.500266	1.072549	0.130025
H299	H	-0.250266	1.322549	0.380025
H300	H	-0.000266	1.572549	0.630025
F301	F	-0.294230	0.815773	0.136001
F302	F	-0.044230	1.065773	0.386001
F303	F	0.205770	1.315773	0.636001
F304	F	0.455770	1.565773	0.886001
H305	H	-0.516903	0.893063	-0.092013
H306	H	-0.266903	1.143063	0.157987
H307	H	-0.016903	1.393063	0.407987
H308	H	0.233097	1.643063	0.657987
F309	F	0.005255	0.918046	0.656189
F310	F	0.255255	1.168046	0.906189
F311	F	0.505255	1.418046	1.156189
F312	F	0.755255	1.668046	1.406189
F313	F	0.008708	0.258904	-0.087826
F314	F	0.258708	0.508904	0.162174
F315	F	0.508708	0.758904	0.412174
F316	F	0.758708	1.008904	0.662174
F317	F	-0.294334	0.815793	-0.136549
F318	F	-0.044334	1.065793	0.113451
F319	F	0.205666	1.315793	0.363451
F320	F	0.455666	1.565793	0.613451
F321	F	0.006520	0.408444	-0.087794
F322	F	0.256520	0.658444	0.162206
F323	F	0.506520	0.908444	0.412206
F324	F	0.756520	1.158444	0.662206
F325	F	0.038152	0.839432	0.421131
F326	F	0.288152	1.089432	0.671131
F327	F	0.538152	1.339432	0.921131
F328	F	0.788152	1.589432	1.171131
F329	F	-0.190236	0.722358	0.343363
F330	F	0.059764	0.972358	0.593363
F331	F	0.309764	1.222358	0.843363
F332	F	0.559764	1.472358	1.093363
H333	H	-0.178393	0.734186	0.195539
H334	H	0.071607	0.984186	0.445539
H335	H	0.321607	1.234186	0.695539
H336	H	0.571607	1.484186	0.945539
H337	H	0.018124	0.624760	-0.000142
H338	H	0.268124	0.874760	0.249858
H339	H	0.518124	1.124760	0.499858
H340	H	0.768124	1.374760	0.749858
H341	H	0.024674	0.177870	-0.000234
H342	H	0.274674	0.427870	0.249766
H343	H	0.524674	0.677870	0.499766
H344	H	0.774674	0.927870	0.749766
F345	F	-0.190247	0.722397	0.813574
F346	F	0.059753	0.972397	1.063574
F347	F	0.309753	1.222397	1.313574
F348	F	0.559753	1.472397	1.563574
F349	F	0.005260	0.918015	0.343325
F350	F	0.255260	1.168015	0.593325
F351	F	0.505260	1.418015	0.843325
F352	F	0.755260	1.668015	1.093325
F353	F	0.005258	0.918048	0.813536
F354	F	0.255258	1.168048	1.063536
F355	F	0.505258	1.418048	1.313536
F356	F	0.755258	1.668048	1.563536
H357	H	-0.207318	0.803308	0.568884
H358	H	0.042682	1.053308	0.818884
H359	H	0.292682	1.303308	1.068884
H360	H	0.542682	1.553308	1.318884
H361	H	-0.536652	0.745398	0.091534
H362	H	-0.286652	0.995398	0.341534
H363	H	-0.036652	1.245398	0.591534
H364	H	0.213348	1.495398	0.841534
H365	H	-0.207316	0.803280	0.430601
H366	H	0.042684	1.053280	0.680601
H367	H	0.292684	1.303280	0.930601
H368	H	0.542684	1.553280	1.180601
H369	H	-0.181440	0.374069	0.076740
H370	H	0.068560	0.624069	0.326740
H371	H	0.318560	0.874069	0.576740
H372	H	0.568560	1.124069	0.826740
H373	H	0.020045	0.493325	-0.000185
H374	H	0.270045	0.743325	0.249815
H375	H	0.520045	0.993325	0.499815
H376	H	0.770045	1.243325	0.749815
H377	H	0.026600	0.046440	-0.000304
H378	H	0.276600	0.296440	0.249696
H379	H	0.526600	0.546440	0.499696
H380	H	0.776600	0.796440	0.749696
F381	F	-0.227546	0.600883	-0.000213
F382	F	0.022454	0.850883	0.249787
F383	F	0.272454	1.100883	0.499787
F384	F	0.522454	1.350883	0.749787
H385	H	-0.205033	0.147063	-0.000282
H386	H	0.044967	0.397063	0.249718
H387	H	0.294967	0.647063	0.499718
H388	H	0.544967	0.897063	0.749718
F389	F	-0.191504	0.231951	0.087323
F390	F	0.058496	0.481951	0.337323
F391	F	0.308496	0.731951	0.587323
F392	F	0.558496	0.981951	0.837323
F393	F	-0.656021	0.905323	-0.104632
F394	F	-0.406021	1.155323	0.145368
F395	F	-0.156021	1.405323	0.395368
F396	F	0.093979	1.655323	0.645368
H397	H	-0.006579	0.906155	0.195509
H398	H	0.243421	1.156155	0.445509
H399	H	0.493421	1.406155	0.695509
H400	H	0.743421	1.656155	0.945509
F401	F	-0.443877	0.818019	-0.136522
F402	F	-0.193877	1.068019	0.113478
F403	F	0.056123	1.318019	0.363478
F404	F	0.306123	1.568019	0.613478
H405	H	-0.750173	0.822518	0.119563
H406	H	-0.500173	1.072518	0.369563
H407	H	-0.250173	1.322518	0.619563
H408	H	-0.000173	1.572518	0.869563
H409	H	-0.203104	0.015637	-0.000301
H410	H	0.046896	0.265637	0.249699
H411	H	0.296896	0.515637	0.499699
H412	H	0.546896	0.765637	0.749699
F413	F	-0.890651	0.824579	0.136087
F414	F	-0.640651	1.074579	0.386087
F415	F	-0.390651	1.324579	0.636087
F416	F	-0.140651	1.574579	0.886087
