data_functionalizedCrystal
_audit_creation_method	'MofGen! by Chris Wilmer'
_symmetry_space_group_name_H-M	'P1'
_symmetry_Int_Tables_number	1
_symmetry_cell_setting	triclinic
loop_
_symmetry_equiv_pos_as_xyz
  x,y,z
_cell_length_a	6.817900
_cell_length_b	11.102289
_cell_length_c	17.110486
_cell_angle_alpha	95.184084
_cell_angle_beta	99.060439
_cell_angle_gamma	108.605707
loop_
_atom_site_label
_atom_site_type_symbol
_atom_site_fract_x
_atom_site_fract_y
_atom_site_fract_z
V1	V	-4.002964	-0.175461	-0.246720
O2	O	-3.964063	0.008821	-0.242024
O3	O	-3.980483	-0.348283	-0.245032
O4	O	-3.932395	-0.172591	-0.354323
O5	O	-4.012484	-0.168088	-0.131976
V6	V	-4.486106	-0.153439	-0.232996
O7	O	-4.265058	-0.223768	-0.276825
O8	O	-4.674209	-0.105131	-0.202890
O9	O	-4.285380	0.019384	-0.234683
O10	O	-4.642403	-0.337720	-0.237692
O11	O	-4.593982	-0.160811	-0.347739
O12	O	-4.333468	-0.156308	-0.125393
C13	C	-3.832507	-0.390419	-0.241140
C14	C	-3.895266	-0.531703	-0.240478
C15	C	-4.107020	-0.604546	-0.244114
C16	C	-4.165979	-0.737298	-0.243498
C17	C	-3.801407	-0.724352	-0.235607
C18	C	-3.742453	-0.591604	-0.236228
C19	C	-4.317502	-0.612020	-0.248667
C20	C	-4.376461	-0.744773	-0.248051
C21	C	-3.771165	-0.166304	-0.380550
C22	C	-3.794922	-0.165101	-0.468517
C23	C	-3.988322	-0.170879	-0.513874
C24	C	-4.010632	-0.169748	-0.596528
C25	C	-3.839545	-0.162848	-0.633822
C26	C	-3.646128	-0.157066	-0.588458
C27	C	-3.623816	-0.158188	-0.505806
C28	C	-3.897793	-0.159135	-0.883177
C29	C	-3.920123	-0.158018	-0.965836
C30	C	-4.284625	-0.170697	-0.973900
C31	C	-4.262299	-0.171826	-0.891246
C32	C	-4.068882	-0.166037	-0.845889
C33	C	-3.862348	-0.161696	-0.718308
C34	C	-4.046078	-0.167181	-0.761404
C35	C	-4.096699	0.061513	-0.238573
C36	C	-4.013178	0.202796	-0.239241
C37	C	-4.158042	-0.162599	-0.099161
C38	C	-4.113522	-0.163796	-0.011194
H39	H	-3.677001	-0.773140	-0.232148
H40	H	-3.466317	-0.153452	-0.468873
H41	H	-4.185372	-0.172794	-0.731035
H42	H	-4.127648	-0.176506	-0.483516
H43	H	-4.168112	-0.174446	-0.633454
H44	H	-3.723054	-0.156083	-0.748683
H45	H	-3.780790	-0.152395	-0.996198
H46	H	-3.570031	-0.532302	-0.233277
H47	H	-4.401620	-0.177444	-0.860887
H48	H	-4.404045	-0.592711	-0.306215
H49	H	-4.342122	-0.558879	-0.192874
C50	C	-3.518490	-0.149731	-0.711578
C51	C	-3.458065	-0.149486	-0.629451
H52	H	-3.402386	-0.145063	-0.736883
H53	H	-3.561701	-0.077709	-0.719552
H54	H	-3.632344	-0.226602	-0.733998
H55	H	-3.344220	-0.072611	-0.607030
H56	H	-3.414824	-0.221515	-0.621472
H57	H	-3.740326	-0.154467	-0.846261
C58	C	-4.553448	-0.738618	-0.379785
C59	C	-4.519583	-0.822782	-0.327184
H60	H	-4.641809	-0.786781	-0.428635
H61	H	-4.421989	-0.686988	-0.390009
H62	H	-4.619547	-0.685019	-0.356386
H63	H	-4.453469	-0.876375	-0.350581
H64	H	-4.651066	-0.874434	-0.316961
H65	H	-4.442097	-0.175408	-1.010839
C66	C	-4.480314	-0.666344	-0.131437
C67	C	-4.477821	-0.778604	-0.175081
H68	H	-4.542874	-0.687233	-0.086388
H69	H	-4.559914	-0.627189	-0.164518
H70	H	-4.339835	-0.608485	-0.113794
H71	H	-4.618303	-0.836460	-0.192729
H72	H	-4.398223	-0.817779	-0.141994
