data_functionalizedCrystal
_audit_creation_method	'MofGen! by Chris Wilmer'
_symmetry_space_group_name_H-M	'P1'
_symmetry_Int_Tables_number	1
_symmetry_cell_setting	triclinic
loop_
_symmetry_equiv_pos_as_xyz
  x,y,z
_cell_length_a	15.625110
_cell_length_b	15.538191
_cell_length_c	15.186229
_cell_angle_alpha	89.999546
_cell_angle_beta	108.080221
_cell_angle_gamma	66.740235
loop_
_atom_site_label
_atom_site_type_symbol
_atom_site_fract_x
_atom_site_fract_y
_atom_site_fract_z
O1	O	1.155977	0.122956	0.295970
O2	O	0.888710	0.137595	0.210611
O3	O	1.074369	-0.006785	0.269902
O4	O	0.970318	0.267336	0.236679
O5	O	1.074361	-0.006787	0.416357
O6	O	0.888702	0.137593	0.357066
O7	O	1.155968	0.122954	0.442424
Zn8	Zn	1.022334	0.130273	0.422998
Zn9	Zn	1.022345	0.130276	0.230038
O10	O	0.970309	0.267334	0.383133
C11	C	0.855335	0.136930	0.273180
C12	C	0.755906	0.134939	0.241424
C13	C	1.085251	-0.041867	0.346603
C14	C	1.117679	-0.146398	0.356951
C15	C	0.615767	0.132136	0.116839
C16	C	0.709196	0.134006	0.146688
C17	C	0.709194	0.134008	0.306349
C18	C	0.615760	0.132143	0.276513
C19	C	0.569055	0.131206	0.181757
C20	C	0.569048	0.131213	0.341430
C21	C	0.475625	0.129343	0.311597
C22	C	0.428914	0.128403	0.216845
C23	C	0.475632	0.129336	0.151923
C24	C	0.615759	0.132143	0.436187
C25	C	0.569047	0.131212	0.501105
C26	C	0.475619	0.129349	0.471271
C27	C	0.428908	0.128409	0.376519
C28	C	0.428901	0.128416	0.536193
C29	C	0.335478	0.126546	0.506359
C30	C	0.335485	0.126539	0.346686
C31	C	0.795522	-0.434616	0.254080
C32	C	0.826015	-0.532841	0.263821
C33	C	0.997532	-0.555057	0.318599
C34	C	0.967053	-0.456831	0.308859
C35	C	0.866047	-0.396618	0.276600
C36	C	1.037578	-0.418833	0.331378
C37	C	1.007101	-0.320616	0.321643
C38	C	0.906099	-0.260397	0.289388
C39	C	0.835570	-0.298401	0.266865
C40	C	1.138583	-0.479048	0.363643
C41	C	1.209108	-0.441050	0.386163
C42	C	1.178632	-0.342832	0.376422
C43	C	1.077630	-0.282613	0.344167
C44	C	1.249162	-0.304828	0.398945
C45	C	1.218685	-0.206611	0.389210
C46	C	1.047154	-0.184396	0.334432
C47	C	1.189343	0.123619	0.379853
C48	C	1.288773	0.125609	0.411603
C49	C	0.959427	0.302416	0.306430
C50	C	0.927000	0.406946	0.296077
N51	N	1.022333	0.130270	0.554690
N52	N	1.022355	0.130271	0.098348
C53	C	1.104556	0.066361	0.806672
C54	C	1.104560	0.066358	0.898862
C55	C	0.940124	0.194184	0.846358
C56	C	0.940119	0.194180	0.754168
C57	C	1.022339	0.130270	0.734329
C58	C	1.022348	0.130271	0.918710
C59	C	1.022352	0.130269	1.018667
C60	C	1.022336	0.130271	0.634365
H61	H	0.297449	0.125788	0.269524
C62	C	0.872806	-0.153734	0.278797
C63	C	0.769257	-0.109138	0.245748
C64	C	0.738552	-0.010882	0.235991
H65	H	0.897488	-0.135492	0.235619
H66	H	0.897527	-0.135573	0.337784
H67	H	0.744547	-0.127291	0.186769
H68	H	0.744551	-0.127352	0.288914
H69	H	0.763273	0.007279	0.294979
H70	H	0.763240	0.007350	0.192815
H71	H	0.668292	0.019389	0.213575
H72	H	0.873163	0.246224	0.695260
C73	C	0.685888	-0.369124	0.219197
C74	C	0.663377	-0.312069	0.287345
C75	C	0.562401	-0.251719	0.255241
H76	H	0.648135	-0.405702	0.207184
H77	H	0.670417	-0.330294	0.163209
H78	H	0.678837	-0.350894	0.343316
H79	H	0.701104	-0.275470	0.299366
H80	H	0.546930	-0.212889	0.199253
H81	H	0.524657	-0.288305	0.243227
H82	H	0.547116	-0.212994	0.301470
H83	H	1.163394	-0.559022	0.371561
C84	C	0.424866	0.128177	0.049091
C85	C	0.407838	0.046172	0.038995
C86	C	0.361064	0.045079	-0.055714
H87	H	0.465984	0.128954	0.014600
H88	H	0.363554	0.182284	0.026190
H89	H	0.469140	-0.007920	0.061884
H90	H	0.366711	0.045378	0.073465
H91	H	0.299752	0.099186	-0.078615
H92	H	0.402187	0.045858	-0.090197
H93	H	0.349496	-0.010556	-0.062576
H94	H	1.171504	0.014320	0.790522
H95	H	0.768577	-0.563774	0.245493
H96	H	0.691829	0.133666	0.460474
H97	H	0.352843	0.126882	0.192556
C98	C	1.107224	-0.620325	0.353491
C99	C	1.151555	-0.603121	0.292306
C100	C	1.252606	-0.663217	0.324421
H101	H	1.115413	-0.684293	0.356063
H102	H	1.137516	-0.608777	0.414208
H103	H	1.121273	-0.614676	0.231605
H104	H	1.143394	-0.539164	0.289726
H105	H	1.282898	-0.651670	0.385138
H106	H	1.260785	-0.727182	0.326992
H107	H	1.282699	-0.651547	0.282917
H108	H	0.577731	0.131385	0.039678
H109	H	0.747223	0.134770	0.093816
H110	H	0.747236	0.134767	0.383500
C111	C	1.193821	-0.002878	0.977518
C112	C	1.232543	0.047386	1.042822
C113	C	1.314765	-0.016366	1.115298
H114	H	1.242881	-0.040965	0.952627
H115	H	1.174263	-0.042125	1.007287
H116	H	1.252104	0.086617	1.013057
H117	H	1.183510	0.085470	1.067738
H118	H	1.295206	-0.055613	1.145068
H119	H	1.363817	-0.054450	1.090399
H120	H	1.341042	0.017728	1.159620
H121	H	0.964904	-0.135366	0.308157
C122	C	1.318755	-0.506475	0.420997
C123	C	1.341266	-0.563497	0.352828
C124	C	1.442265	-0.623767	0.384876
H125	H	1.334326	-0.545338	0.476984
H126	H	1.356430	-0.469810	0.432977
H127	H	1.303604	-0.600159	0.340860
H128	H	1.325719	-0.524660	0.296836
H129	H	1.479940	-0.587102	0.396856
H130	H	1.457827	-0.662623	0.440863
H131	H	1.457554	-0.662457	0.338625
H132	H	1.331401	-0.353867	0.425219
H133	H	0.607089	0.131972	0.578256
H134	H	0.466947	0.129170	0.613345
H135	H	0.753321	-0.249372	0.240590
C136	C	1.295403	-0.165531	0.413653
C137	C	1.390382	-0.239284	0.443958
C138	C	1.461080	-0.201477	0.466472
H139	H	1.287213	-0.127688	0.462093
H140	H	1.287132	-0.127708	0.359915
H141	H	1.398650	-0.277091	0.497689
H142	H	1.398604	-0.277133	0.395531
H143	H	1.452809	-0.163654	0.412734
H144	H	1.452881	-0.163635	0.514910
H145	H	1.525531	-0.251512	0.487028
H146	H	0.873183	0.246219	0.862521
H147	H	0.297436	0.125806	0.559220
