data_functionalizedCrystal
_audit_creation_method	'MofGen! by Chris Wilmer'
_symmetry_space_group_name_H-M	'P1'
_symmetry_Int_Tables_number	1
_symmetry_cell_setting	triclinic
loop_
_symmetry_equiv_pos_as_xyz
  x,y,z
_cell_length_a	10.654554
_cell_length_b	10.654551
_cell_length_c	9.730223
_cell_angle_alpha	90.001091
_cell_angle_beta	90.001979
_cell_angle_gamma	84.486053
loop_
_atom_site_label
_atom_site_type_symbol
_atom_site_fract_x
_atom_site_fract_y
_atom_site_fract_z
O1	O	1.667830	0.176421	-0.114238
O2	O	1.302352	0.193221	-0.114249
O3	O	1.493493	0.002082	-0.114244
O4	O	1.476689	0.367560	-0.114243
O5	O	1.493494	0.002085	0.114336
O6	O	1.302353	0.193224	0.114331
O7	O	1.667831	0.176424	0.114342
Zn8	Zn	1.485092	0.184825	0.150628
Zn9	Zn	1.485091	0.184820	-0.150535
O10	O	1.476690	0.367563	0.114337
C11	C	1.255555	0.191988	0.000039
C12	C	1.116112	0.188294	0.000035
C13	C	1.492260	-0.044714	0.000043
C14	C	1.488567	-0.184158	0.000034
C15	C	0.905604	0.297367	0.000048
C16	C	1.036625	0.300839	0.000037
C17	C	1.064571	0.072269	0.000029
C18	C	0.933552	0.068799	0.000030
C19	C	0.826123	0.409919	0.000064
C20	C	0.877654	0.525944	0.000066
C21	C	1.008676	0.529416	0.000056
C22	C	1.088166	0.416863	0.000042
C23	C	1.486834	-0.249671	-0.124563
C24	C	1.483354	-0.380692	-0.124557
C25	C	1.483345	-0.380674	0.124654
C26	C	1.486816	-0.249655	0.124646
C27	C	1.488585	-0.184174	-0.249175
C28	C	1.486854	-0.249688	-0.373782
C29	C	1.483374	-0.380709	-0.373776
C30	C	1.481625	-0.446215	-0.249163
C31	C	1.714628	0.177657	0.000051
C32	C	1.854071	0.181351	0.000046
C33	C	1.477923	0.414360	0.000047
C34	C	1.481616	0.553803	0.000047
N35	N	1.485102	0.184827	0.356165
C36	C	1.561925	0.261702	0.572002
C37	C	1.561926	0.261708	0.428119
C38	C	1.408262	0.107943	0.428101
C39	C	1.408254	0.107944	0.571982
C40	C	1.650646	0.350474	0.572011
C41	C	1.650648	0.350480	0.428128
N42	N	1.485093	0.184822	0.643928
H43	H	0.812926	0.617580	0.000067
H44	H	1.619718	0.449513	0.611055
O45	O	0.883630	-0.043972	-0.000152
C46	C	0.924113	-0.112635	-0.118555
H47	H	1.015272	-0.077629	-0.158019
H48	H	0.941368	-0.217066	-0.091935
H49	H	0.848436	-0.098737	-0.201453
O50	O	1.763375	0.303376	0.625502
C51	C	1.756705	0.306192	0.770202
H52	H	1.654099	0.307483	0.803836
H53	H	1.813192	0.218936	0.813882
H54	H	1.797432	0.394430	0.809897
H55	H	1.194851	0.419699	0.000005
H56	H	0.719437	0.407105	0.000077
O57	O	1.603701	0.463390	0.374948
C58	C	1.677626	0.558341	0.419866
H59	H	1.775556	0.514038	0.449427
H60	H	1.686072	0.629398	0.333560
H61	H	1.631028	0.608365	0.512929
O62	O	1.141963	-0.036939	0.000088
C63	C	1.268654	-0.008997	0.000055
H64	H	1.274538	0.089695	0.043329
H65	H	1.327375	-0.080661	0.066420
H66	H	1.306496	-0.013431	-0.109605
O67	O	1.488585	-0.185871	-0.494701
C68	C	1.491985	-0.056176	-0.467994
H69	H	1.532171	-0.043127	-0.360918
H70	H	1.554149	-0.013823	-0.547588
H71	H	1.392387	-0.006706	-0.473881
H72	H	1.481951	-0.434045	-0.475236
O73	O	1.058944	0.642007	-0.000026
C74	C	1.191628	0.620943	-0.000009
H75	H	1.221527	0.523197	-0.043276
H76	H	1.232487	0.695243	-0.066388
H77	H	1.228163	0.627359	0.109646
H78	H	1.749702	0.319611	0.389086
H79	H	1.478773	-0.552899	-0.249168
O80	O	1.481482	-0.444419	0.245608
C81	C	1.370881	-0.506905	0.253077
H82	H	1.334164	-0.522114	0.144892
H83	H	1.392860	-0.602020	0.305820
H84	H	1.296187	-0.447111	0.314560
O85	O	1.488526	-0.186204	0.245800
C86	C	1.486200	-0.272101	0.355787
H87	H	1.523446	-0.370350	0.319287
H88	H	1.548035	-0.241661	0.442954
H89	H	1.385243	-0.273751	0.394060
O90	O	1.333579	0.033157	0.641644
C91	C	1.265738	-0.034674	0.547293
H92	H	1.317665	-0.041532	0.444733
H93	H	1.257078	-0.133503	0.588868
H94	H	1.167615	0.016160	0.531983
H95	H	1.345701	0.045354	0.369505
H96	H	1.491423	-0.077491	-0.249194
