data_functionalizedCrystal
_audit_creation_method	'MofGen! by Chris Wilmer'
_symmetry_space_group_name_H-M	'P1'
_symmetry_Int_Tables_number	1
_symmetry_cell_setting	triclinic
loop_
_symmetry_equiv_pos_as_xyz
  x,y,z
_cell_length_a	12.827892
_cell_length_b	19.805407
_cell_length_c	19.805398
_cell_angle_alpha	90.017356
_cell_angle_beta	89.979136
_cell_angle_gamma	89.985623
loop_
_atom_site_label
_atom_site_type_symbol
_atom_site_fract_x
_atom_site_fract_y
_atom_site_fract_z
Zn1	Zn	-0.416103	-1.034763	-0.382770
Zn2	Zn	-0.590853	-1.034707	-0.269592
Zn3	Zn	-0.416123	-0.921585	-0.269592
Zn4	Zn	-0.590799	-0.921563	-0.382736
O5	O	-0.503470	-0.978154	-0.326173
O6	O	-0.439297	-1.129472	-0.367771
O7	O	-0.567706	-1.019687	-0.174875
O8	O	-0.269885	-0.936631	-0.284620
O9	O	-0.567686	-1.129431	-0.284620
O10	O	-0.269869	-1.019782	-0.367771
O11	O	-0.439333	-0.936576	-0.174875
O12	O	-0.439281	-0.826865	-0.284586
O13	O	-0.567594	-0.936593	-0.477457
O14	O	-0.567614	-0.826849	-0.367713
O15	O	-0.439246	-1.019761	-0.477482
O16	O	-0.737082	-1.019665	-0.284586
O17	O	-0.737042	-0.936539	-0.367713
C18	C	-0.503445	-0.802298	-0.326146
C19	C	-0.503459	-0.727066	-0.326151
C20	C	-0.570382	-0.691731	-0.369364
C21	C	-0.570382	-0.621043	-0.369371
C22	C	-0.503464	-0.585691	-0.326162
C23	C	-0.436533	-0.621030	-0.282948
C24	C	-0.436529	-0.691718	-0.282944
C25	C	-0.436549	-0.335957	-0.282962
C26	C	-0.436560	-0.265265	-0.282968
C27	C	-0.570402	-0.265282	-0.369390
C28	C	-0.570397	-0.335970	-0.369386
C29	C	-0.503464	-0.371303	-0.326174
C30	C	-0.503463	-0.447952	-0.326168
C31	C	-0.503469	-0.509043	-0.326165
C32	C	-0.774979	-0.978112	-0.326161
C33	C	-0.891133	-0.978156	-0.326178
C34	C	-0.942902	-1.019338	-0.285090
C35	C	-1.062952	-1.019384	-0.285107
C36	C	-0.230899	-0.978215	-0.326199
C37	C	-0.114746	-0.978241	-0.326211
C38	C	-0.503412	-0.978181	-0.502715
C39	C	-0.503387	-0.978192	-0.577947
C40	C	-0.503488	-0.154697	-0.326193
C41	C	-0.503479	-0.229929	-0.326185
C42	C	-0.436371	-1.021579	-1.039753
C43	C	-0.436403	-1.021568	-0.969064
C44	C	-0.503242	-0.978261	-0.933709
C45	C	-0.570060	-0.934967	-0.969046
C46	C	-0.570033	-0.934982	-1.039734
C47	C	-0.570174	-0.934908	-0.683973
C48	C	-0.570194	-0.934896	-0.613281
C49	C	-0.436544	-1.021495	-0.613304
C50	C	-0.436516	-1.021510	-0.683991
C51	C	-0.503338	-0.978218	-0.719322
C52	C	-0.503304	-0.978231	-0.795970
C53	C	-0.503271	-0.978245	-0.857062
C54	C	-0.503452	-0.978167	-0.150317
C55	C	-0.503182	-0.978287	-0.075085
H56	H	-0.624879	-0.592276	-0.404559
C57	C	-1.125515	-0.892607	-0.411713
C58	C	-1.054662	-0.930640	-0.373704
H59	H	-1.088414	-0.863218	-0.441030
H60	H	-1.168023	-0.922072	-0.437660
H61	H	-1.168150	-0.866728	-0.382223
H62	H	-1.012032	-0.956523	-0.403195
H63	H	-1.012137	-0.901171	-0.347755
H64	H	-0.898350	-1.054565	-0.249903
H65	H	-0.382055	-0.364717	-0.247771
C66	C	-0.304269	-1.107184	-1.032668
C67	C	-0.362899	-1.069185	-1.078612
H68	H	-0.258917	-1.136579	-1.056658
H69	H	-0.264303	-1.077698	-1.005100
H70	H	-0.349827	-1.133056	-1.005095
H71	H	-0.317341	-1.043310	-1.106182
H72	H	-0.402868	-1.098675	-1.106192
H73	H	-0.382001	-1.056823	-0.940300
H74	H	-0.382043	-0.592241	-0.247769
C75	C	-0.304415	-1.107117	-0.676912
C76	C	-0.363049	-1.069116	-0.722853
H77	H	-0.259067	-1.136512	-0.700904
H78	H	-0.264446	-1.077632	-0.649344
H79	H	-0.349972	-1.132989	-0.649338
H80	H	-0.317492	-1.043241	-0.750423
H81	H	-0.403021	-1.098605	-0.750432
H82	H	-0.935687	-0.942935	-0.361370
H83	H	-0.382137	-1.056747	-0.584529
C84	C	-0.702339	-0.849308	-0.620354
C85	C	-0.643684	-0.887299	-0.574417
H86	H	-0.747711	-0.819931	-0.596360
H87	H	-0.656805	-0.823426	-0.647923
H88	H	-0.742294	-0.878806	-0.647928
H89	H	-0.603723	-0.857801	-0.546846
H90	H	-0.689224	-0.913183	-0.546837
H91	H	-0.624583	-0.899657	-0.712731
H92	H	-0.624486	-0.899709	-0.940255
C93	C	-0.304244	-0.684605	-0.197507
C94	C	-0.362974	-0.730560	-0.235437
H95	H	-0.258838	-0.708586	-0.168175
H96	H	-0.264331	-0.657053	-0.227041
H97	H	-0.349736	-0.657016	-0.171572
H98	H	-0.317483	-0.758146	-0.261376
H99	H	-0.402890	-0.758124	-0.205899
C100	C	-0.702140	-0.849373	-1.032615
C101	C	-0.643471	-0.887391	-1.078573
H102	H	-0.747476	-0.819991	-1.056594
H103	H	-0.742125	-0.878848	-1.005046
H104	H	-0.656606	-0.823488	-1.005045
H105	H	-0.689005	-0.913280	-1.106141
H106	H	-0.603483	-0.857912	-1.106154
H107	H	-0.624879	-0.720510	-0.404547
C108	C	-1.230339	-1.057854	-0.246864
C109	C	-1.123045	-1.067010	-0.237643
H110	H	-1.267436	-1.087269	-0.217570
H111	H	-1.248256	-1.012394	-0.236901
H112	H	-1.248090	-1.067703	-0.292374
H113	H	-1.105292	-1.057157	-0.192133
H114	H	-1.105120	-1.112481	-0.247601
H115	H	-0.624893	-0.364750	-0.404569
H116	H	-0.624899	-0.236505	-0.404578
H117	H	-0.382061	-0.236483	-0.247782
