data_functionalizedCrystal
_audit_creation_method	'MofGen! by Chris Wilmer'
_symmetry_space_group_name_H-M	'P1'
_symmetry_Int_Tables_number	1
_symmetry_cell_setting	triclinic
loop_
_symmetry_equiv_pos_as_xyz
  x,y,z
_cell_length_a	18.050590
_cell_length_b	18.050589
_cell_length_c	18.050582
_cell_angle_alpha	90.018205
_cell_angle_beta	89.999233
_cell_angle_gamma	90.017386
loop_
_atom_site_label
_atom_site_type_symbol
_atom_site_fract_x
_atom_site_fract_y
_atom_site_fract_z
Zn1	Zn	1.135292	-0.295921	0.419624
Zn2	Zn	1.135203	-0.420105	0.295444
Zn3	Zn	1.011112	-0.295910	0.295482
Zn4	Zn	1.011060	-0.420051	0.419626
O5	O	1.073167	-0.357997	0.357544
O6	O	1.239205	-0.312422	0.403134
O7	O	1.118727	-0.403648	0.191524
O8	O	1.027644	-0.191987	0.311965
O9	O	1.239140	-0.403659	0.311899
O10	O	1.118879	-0.191995	0.403172
O11	O	1.027557	-0.312402	0.191553
O12	O	0.907180	-0.312350	0.311967
O13	O	1.027555	-0.403567	0.523550
O14	O	0.907142	-0.403555	0.403175
O15	O	1.118828	-0.312370	0.523549
O16	O	1.118676	-0.524022	0.311901
O17	O	1.027468	-0.523982	0.403138
C18	C	0.880215	-0.357946	0.357576
C19	C	0.797669	-0.357942	0.357607
C20	C	0.598219	-0.407682	0.407088
C21	C	0.548826	-0.339967	0.425358
C22	C	0.646538	-0.357984	0.357571
C23	C	0.548850	-0.425737	0.339300
C24	C	0.500553	-0.358030	0.357537
C25	C	0.598233	-0.290233	0.375876
C26	C	0.598261	-0.376049	0.289787
C27	C	0.548890	-0.308287	0.308031
C28	C	0.730637	-0.357958	0.357592
C29	C	0.416457	-0.358047	0.357516
C30	C	1.073077	-0.550949	0.357532
C31	C	1.073107	-0.633494	0.357551
C32	C	1.023557	-0.832950	0.407148
C33	C	1.005459	-0.882381	0.339386
C34	C	1.073180	-0.784625	0.357561
C35	C	1.091314	-0.882276	0.425331
C36	C	1.073249	-0.930610	0.357576
C37	C	1.055046	-0.832968	0.289763
C38	C	1.140933	-0.832859	0.375754
C39	C	1.122861	-0.882267	0.307945
C40	C	1.073138	-0.700527	0.357553
C41	C	1.073290	-1.014706	0.357576
C42	C	1.266872	-0.358048	0.357512
C43	C	1.349418	-0.358070	0.357499
C44	C	1.073196	-0.357964	0.551250
C45	C	1.073208	-0.357950	0.633796
C46	C	1.073277	-0.164291	0.357573
C47	C	1.073324	-0.081745	0.357585
C48	C	1.073180	-0.357976	0.164592
C49	C	1.073312	-0.357781	0.082047
C50	C	1.023612	-0.407475	0.833247
C51	C	1.091367	-0.425641	0.882621
C52	C	1.073245	-0.357893	0.784926
C53	C	1.005527	-0.339706	0.882634
C54	C	1.073274	-0.357840	0.930911
C55	C	1.141036	-0.376095	0.833213
C56	C	1.055150	-0.290128	0.833221
C57	C	1.122952	-0.308269	0.882573
C58	C	1.073227	-0.357926	0.700828
C59	C	1.073300	-0.357807	1.015008
H60	H	0.527367	-0.266230	0.266142
O61	O	0.973669	-0.457659	0.807438
C62	C	0.936336	-0.585776	0.803368
C63	C	0.992954	-0.529024	0.832632
H64	H	0.951900	-0.643485	0.823738
H65	H	0.936414	-0.585022	0.740215
H66	H	0.878742	-0.570822	0.824529
H67	H	1.050576	-0.543938	0.811525
H68	H	0.992812	-0.529789	0.895784
H69	H	0.527112	-0.324702	0.482668
H70	H	1.198184	-0.811091	0.391160
O71	O	1.036934	-0.221753	0.807396
C72	C	1.067908	-0.091931	0.804220
C73	C	1.088622	-0.169320	0.833534
H74	H	1.109695	-0.049520	0.825328
H75	H	1.010134	-0.076467	0.824510
H76	H	1.068585	-0.092525	0.741069
H77	H	1.087988	-0.168784	0.896683
H78	H	1.146384	-0.184752	0.813188
O79	O	0.937148	-0.908425	0.321132
C80	C	0.832174	-0.981863	0.358701
C81	C	0.909538	-0.952438	0.379452
H82	H	0.809822	-1.017441	0.405847
H83	H	0.836228	-1.016674	0.306148
H84	H	0.793175	-0.933205	0.348760
H85	H	0.948579	-1.001051	0.389432
H86	H	0.905426	-0.917605	0.431985
O87	O	0.973471	-0.807200	0.457198
C88	C	0.935183	-0.804089	0.585048
C89	C	0.991947	-0.833316	0.528449
H90	H	0.950109	-0.825179	0.642669
H91	H	0.877459	-0.824460	0.569464
H92	H	0.935984	-0.740937	0.584915
H93	H	0.991212	-0.896466	0.528553
H94	H	1.049644	-0.812888	0.544053
O95	O	0.624031	-0.221926	0.394503
C96	C	0.696723	-0.149772	0.480163
C97	C	0.667541	-0.227164	0.459161
H98	H	0.731919	-0.153983	0.532432
H99	H	0.647997	-0.110999	0.490675
H100	H	0.731901	-0.127043	0.432892
H101	H	0.632375	-0.249959	0.506405
H102	H	0.716300	-0.265887	0.448623
H103	H	0.527154	-0.483016	0.323863
H104	H	0.619992	-0.391334	0.232494
H105	H	1.198333	-0.391520	0.811596
O106	O	0.937138	-0.321463	0.908445
C107	C	0.807528	-0.353192	0.912691
C108	C	0.884934	-0.373918	0.883399
H109	H	0.765302	-0.395599	0.892466
H110	H	0.791620	-0.295872	0.891503
H111	H	0.808368	-0.352786	0.975841
H112	H	0.884153	-0.374367	0.820251
H113	H	0.900811	-0.431226	0.904643
H114	H	1.039669	-0.811399	0.232441
O115	O	0.624033	-0.457650	0.457198
C116	C	0.628093	-0.495079	0.585262
C117	C	0.598822	-0.438434	0.528594
H118	H	0.607709	-0.479573	0.642996
H119	H	0.691247	-0.494965	0.584497
H120	H	0.606951	-0.552674	0.570232
H121	H	0.619910	-0.380812	0.543585
H122	H	0.535670	-0.438614	0.529370
O123	O	1.172876	-0.907910	0.257770
C124	C	1.210307	-0.911707	0.129685
C125	C	1.153608	-0.882630	0.186427
H126	H	1.194759	-0.891267	0.071994
H127	H	1.210315	-0.974861	0.130335
H128	H	1.267862	-0.890476	0.144733
H129	H	1.096026	-0.903806	0.171419
H130	H	1.153666	-0.819476	0.185766
O131	O	1.109715	-0.908079	0.493674
C132	C	1.201322	-0.910999	0.590731
C133	C	1.180592	-0.881744	0.513320
H134	H	1.258620	-0.889707	0.606645
H135	H	1.201765	-0.974151	0.589971
H136	H	1.158896	-0.890754	0.632910
H137	H	1.222997	-0.901934	0.471098
H138	H	1.180126	-0.818594	0.514141
H139	H	1.106690	-0.482926	0.904320
H140	H	1.164986	-0.266316	0.904094
