data_functionalizedCrystal
_audit_creation_method	'MofGen! by Chris Wilmer'
_symmetry_space_group_name_H-M	'P1'
_symmetry_Int_Tables_number	1
_symmetry_cell_setting	triclinic
loop_
_symmetry_equiv_pos_as_xyz
  x,y,z
_cell_length_a	16.992694
_cell_length_b	12.996460
_cell_length_c	16.992695
_cell_angle_alpha	89.993670
_cell_angle_beta	89.331777
_cell_angle_gamma	89.999814
loop_
_atom_site_label
_atom_site_type_symbol
_atom_site_fract_x
_atom_site_fract_y
_atom_site_fract_z
O1	O	1.050852	0.085439	-0.166918
O2	O	0.822452	0.085469	-0.165087
O3	O	0.935736	0.085446	-0.051802
O4	O	0.937567	0.085462	-0.280203
O5	O	0.935723	-0.085688	-0.051795
O6	O	0.822439	-0.085665	-0.165079
O7	O	1.050839	-0.085695	-0.166911
Cu8	Cu	0.936638	-0.101306	-0.165994
Cu9	Cu	0.936653	0.101080	-0.166003
O10	O	0.937554	-0.085672	-0.280195
C11	C	0.793085	-0.000094	-0.162727
C12	C	0.705600	-0.000083	-0.155699
N13	N	0.936632	-0.243653	-0.165988
C14	C	0.659610	-0.000079	-0.223517
C15	C	0.577409	-0.000093	-0.216908
C16	C	0.541201	-0.000105	-0.142480
C17	C	0.587198	-0.000112	-0.074657
C18	C	0.669397	-0.000104	-0.081267
C19	C	0.295886	-0.000134	-0.115086
C20	C	0.213681	-0.000138	-0.108481
C21	C	0.203898	-0.000122	-0.250732
C22	C	0.286099	-0.000108	-0.257335
C23	C	0.332089	-0.000121	-0.189512
N24	N	0.457178	-0.000116	-0.135723
N25	N	0.416110	-0.000116	-0.196270
C26	C	0.936652	-0.663467	-0.166004
C27	C	0.936644	-0.546662	-0.166002
C28	C	0.936643	-0.453564	-0.165997
C29	C	0.936634	-0.336751	-0.165993
C30	C	1.080205	-0.000130	-0.169270
C31	C	1.167690	-0.000134	-0.176299
C32	C	0.933374	-0.000121	-0.022439
C33	C	0.926345	-0.000119	0.065046
N34	N	0.936664	0.243427	-0.166004
C35	C	0.939917	-0.000103	-0.309559
C36	C	0.946945	-0.000097	-0.397044
C37	C	0.994163	-0.000129	0.111037
C38	C	0.987554	-0.000119	0.193238
C39	C	0.913127	-0.000105	0.229446
C40	C	0.845303	-0.000092	0.183449
C41	C	0.851913	-0.000096	0.101250
C42	C	0.885732	-0.000088	0.474760
C43	C	0.879127	-0.000087	0.556966
C44	C	1.021379	-0.000112	0.566749
C45	C	1.027982	-0.000121	0.484547
C46	C	0.960159	-0.000103	0.438558
N47	N	0.906369	-0.000098	0.313468
N48	N	0.966917	-0.000103	0.354537
H49	H	0.539966	-0.000089	-0.272133
H50	H	0.166444	-0.000114	-0.305950
H51	H	0.784703	-0.000075	0.212936
H52	H	0.796688	-0.000087	0.063804
H53	H	0.689084	-0.000069	-0.284124
N54	N	0.323070	-0.000084	-0.333368
N55	N	0.281996	-0.000074	-0.393916
H56	H	0.308106	-0.000050	-0.447616
N57	N	0.176683	-0.000142	-0.032456
N58	N	0.131907	0.071994	-0.012902
H59	H	0.105776	0.071996	0.040788
N60	N	0.342845	-0.000142	-0.045800
N61	N	0.310503	-0.000147	0.020646
H62	H	0.343670	-0.000150	0.069583
N63	N	0.816463	-0.000088	0.427778
N64	N	0.822367	-0.000089	0.354387
H65	H	0.773443	-0.000091	0.321202
H66	H	0.557710	-0.000135	-0.014056
H67	H	1.054770	-0.000147	0.081563
N68	N	0.716366	-0.000120	-0.011984
N69	N	0.684030	-0.000135	0.054465
H70	H	0.717201	-0.000152	0.103399
N71	N	1.056837	-0.000119	0.240204
N72	N	1.123285	-0.000132	0.207866
H73	H	1.172220	-0.000129	0.241035
H74	H	1.088589	-0.000132	0.455073
H75	H	1.076596	-0.000125	0.604202
H76	H	0.818516	-0.000093	0.586443
