data_functionalizedCrystal
_audit_creation_method	'MofGen! by Chris Wilmer'
_symmetry_space_group_name_H-M	'P1'
_symmetry_Int_Tables_number	1
_symmetry_cell_setting	triclinic
loop_
_symmetry_equiv_pos_as_xyz
  x,y,z
_cell_length_a	16.992694
_cell_length_b	14.185569
_cell_length_c	16.992695
_cell_angle_alpha	104.070102
_cell_angle_beta	90.668223
_cell_angle_gamma	75.925569
loop_
_atom_site_label
_atom_site_type_symbol
_atom_site_fract_x
_atom_site_fract_y
_atom_site_fract_z
O1	O	1.034137	0.083296	0.183621
O2	O	1.534137	0.583296	0.683621
O3	O	0.805731	0.083325	0.181795
O4	O	1.305731	0.583325	0.681795
O5	O	0.919020	0.083303	0.068506
O6	O	1.419020	0.583303	0.568506
O7	O	0.920848	0.083318	0.296910
O8	O	1.420848	0.583318	0.796910
O9	O	0.952487	-0.083539	0.035044
O10	O	1.452487	0.416461	0.535044
O11	O	0.839198	-0.083516	0.148333
O12	O	1.339198	0.416484	0.648333
O13	O	1.067604	-0.083545	0.150158
O14	O	1.567604	0.416455	0.650158
Cu15	Cu	0.956456	-0.098765	0.146190
Cu16	Cu	1.456456	0.401235	0.646190
Cu17	Cu	0.916878	0.098544	0.185763
Cu18	Cu	1.416878	0.598544	0.685763
O19	O	0.954315	-0.083523	0.263447
O20	O	1.454315	0.416477	0.763447
C21	C	0.793103	-0.000092	0.162709
C22	C	1.293103	0.499908	0.662709
C23	C	0.705617	-0.000081	0.155683
C24	C	1.205617	0.499919	0.655683
N25	N	0.984299	-0.237541	0.118356
N26	N	1.484299	0.262459	0.618356
C27	C	0.659625	-0.000077	0.223501
C28	C	1.159625	0.499923	0.723501
C29	C	0.577427	-0.000091	0.216889
C30	C	1.077427	0.499909	0.716889
C31	C	0.541221	-0.000102	0.142460
C32	C	1.041221	0.499898	0.642460
C33	C	0.587219	-0.000109	0.074635
C34	C	1.087219	0.499891	0.574635
C35	C	0.669417	-0.000102	0.081246
C36	C	1.169417	0.499898	0.581246
C37	C	0.295912	-0.000131	0.115059
C38	C	0.795912	0.499869	0.615059
C39	C	0.213708	-0.000135	0.108454
C40	C	0.713708	0.499865	0.608454
C41	C	0.203922	-0.000119	0.250709
C42	C	0.703922	0.499881	0.750709
C43	C	0.286120	-0.000106	0.257314
C44	C	0.786120	0.499894	0.757314
C45	C	0.332112	-0.000118	0.189489
C46	C	0.832112	0.499882	0.689489
N47	N	0.457201	-0.000113	0.135700
N48	N	0.957201	0.499887	0.635700
N49	N	0.416132	-0.000113	0.196248
N50	N	0.916132	0.499887	0.696248
C51	C	0.807236	-0.605156	0.295334
C52	C	1.307236	-0.105156	0.795334
C53	C	0.828333	-0.710182	0.274255
C54	C	1.328333	-0.210182	0.774255
C55	C	0.928674	-0.710163	0.173979
C56	C	1.428674	-0.210163	0.673979
C57	C	0.907583	-0.605135	0.195046
C58	C	1.407583	-0.105135	0.695046
C59	C	0.846864	-0.552640	0.255725
C60	C	1.346864	-0.052640	0.755725
C61	C	0.947212	-0.552618	0.155437
C62	C	1.447212	-0.052618	0.655437
C63	C	0.926125	-0.447600	0.176506
C64	C	1.426125	0.052400	0.676506
C65	C	0.865410	-0.395097	0.237184
C66	C	1.365410	0.104903	0.737184
C67	C	0.825778	-0.447621	0.276793
C68	C	1.325778	0.052379	0.776793
C69	C	1.007934	-0.605116	0.094763
C70	C	1.507934	-0.105116	0.594763
C71	C	1.047563	-0.552599	0.055154
C72	C	1.547563	-0.052599	0.555154
C73	C	1.026472	-0.447579	0.076219
C74	C	1.526472	0.052421	0.576219
C75	C	0.965758	-0.395076	0.136896
C76	C	1.465758	0.104924	0.636896
C77	C	1.066105	-0.395055	0.036609
C78	C	1.566105	0.104945	0.536609
C79	C	1.045018	-0.290036	0.057678
C80	C	1.545018	0.209964	0.557678
C81	C	0.944671	-0.290057	0.157965
C82	C	1.444671	0.209943	0.657965
C83	C	1.080231	-0.000126	0.169245
C84	C	1.580231	0.499874	0.669245
C85	C	1.167716	-0.000131	0.176273
C86	C	1.667716	0.499869	0.676273
C87	C	0.933397	-0.000118	0.022415
C88	C	1.433397	0.499882	0.522415
C89	C	0.926368	-0.000116	-0.065069
C90	C	1.426368	0.499884	0.434931
N91	N	0.889041	0.237321	0.213592
N92	N	1.389041	0.737321	0.713592
C93	C	0.994188	-0.000126	-0.111062
C94	C	1.494188	0.499874	0.388938
C95	C	0.987577	-0.000116	-0.193261
C96	C	1.487577	0.499884	0.306739
C97	C	0.913147	-0.000103	-0.229467
C98	C	1.413147	0.499897	0.270533
C99	C	0.845322	-0.000090	-0.183467
C100	C	1.345322	0.499910	0.316533
C101	C	0.851932	-0.000093	-0.101268
C102	C	1.351932	0.499907	0.398732
C103	C	0.885749	-0.000085	-0.474777
C104	C	1.385749	0.499915	0.025223
C105	C	0.879144	-0.000085	-0.556983
C106	C	1.379144	0.499915	-0.056983
C107	C	1.021401	-0.000109	-0.566770
C108	C	1.521401	0.499891	-0.066770
C109	C	1.028006	-0.000118	-0.484571
C110	C	1.528006	0.499882	0.015429
C111	C	0.960179	-0.000100	-0.438578
C112	C	1.460179	0.499900	0.061422
N113	N	0.906388	-0.000095	-0.313487
N114	N	1.406388	0.499905	0.186513
N115	N	0.966937	-0.000101	-0.354557
N116	N	1.466937	0.499899	0.145443
C117	C	0.939937	-0.000100	0.309539
C118	C	1.439937	0.499900	0.809539
C119	C	0.946964	-0.000095	0.397025
C120	C	1.446964	0.499905	0.897025
H121	H	0.689097	-0.000067	0.284110
H122	H	1.189097	0.499933	0.784110
H123	H	1.042804	-0.000126	-0.230705
H124	H	1.542804	0.499874	0.269295
H125	H	0.166467	-0.000111	0.305928
H126	H	0.666467	0.499889	0.805928
H127	H	1.025103	-0.690629	0.077614
H128	H	1.525103	-0.190629	0.577614
F129	F	1.073410	-0.000150	-0.072539
F130	F	1.573410	0.499850	0.427461
H131	H	1.076621	-0.000122	-0.604227
H132	H	1.576621	0.499878	-0.104227
H133	H	0.757787	-0.562412	0.344738
H134	H	1.257787	-0.062412	0.844738
F135	F	0.761146	-0.391749	0.341367
F136	F	1.261146	0.108251	0.841367
F137	F	0.813560	-0.000064	-0.425838
F138	F	1.313560	0.499936	0.074162
H139	H	1.077289	-0.247277	0.025424
H140	H	1.577289	0.252723	0.525424
H141	H	1.088615	-0.000129	-0.455099
H142	H	1.588615	0.499871	0.044901
H143	H	0.818535	-0.000091	-0.586461
H144	H	1.318535	0.499909	-0.086461
H145	H	0.796705	-0.000085	-0.063822
H146	H	1.296705	0.499915	0.436178
H147	H	0.539984	-0.000087	0.272115
H148	H	1.039984	0.499913	0.772115
F149	F	0.175180	-0.000164	0.029228
F150	F	0.675180	0.499836	0.529228
H151	H	0.978114	-0.752916	0.124576
H152	H	1.478114	-0.252916	0.624576
F153	F	0.766104	-0.000065	-0.222000
F154	F	1.266104	0.499935	0.278000
H155	H	1.097003	-0.595353	0.005751
H156	H	1.597003	-0.095353	0.505751
H157	H	0.796058	-0.752935	0.306516
H158	H	1.296058	-0.252935	0.806516
H159	H	0.333350	-0.000141	0.059830
H160	H	0.833350	0.499859	0.559830
F161	F	0.324646	-0.000089	0.336534
F162	F	0.824646	0.499911	0.836534
F163	F	0.718365	-0.000109	0.009063
F164	F	1.218365	0.499891	0.509063
F165	F	0.548685	-0.000127	-0.004580
F166	F	1.048685	0.499873	0.495420
F167	F	1.130732	-0.450935	-0.027960
F168	F	1.630732	0.049065	0.472040
F169	F	0.880039	-0.234186	0.222539
F170	F	1.380039	0.265814	0.722539
F171	F	0.842972	-0.283326	0.259610
F172	F	1.342972	0.216674	0.759610
