data_functionalizedCrystal
_audit_creation_method	'MofGen! by Chris Wilmer'
_symmetry_space_group_name_H-M	'P1'
_symmetry_Int_Tables_number	1
_symmetry_cell_setting	triclinic
loop_
_symmetry_equiv_pos_as_xyz
  x,y,z
_cell_length_a	27.732048
_cell_length_b	14.971486
_cell_length_c	13.448316
_cell_angle_alpha	90.001801
_cell_angle_beta	89.988441
_cell_angle_gamma	96.871608
loop_
_atom_site_label
_atom_site_type_symbol
_atom_site_fract_x
_atom_site_fract_y
_atom_site_fract_z
O1	O	0.062991	-1.185952	-0.082589
O2	O	0.562991	-0.685952	0.417411
O3	O	0.070534	-0.925433	-0.082617
O4	O	0.570534	-0.425433	0.417383
O5	O	-0.003597	-1.063784	-0.082583
O6	O	0.496403	-0.563784	0.417417
O7	O	0.137122	-1.047601	-0.082623
O8	O	0.637122	-0.547601	0.417377
O9	O	-0.003601	-1.063766	0.082801
O10	O	0.496399	-0.563766	0.582801
O11	O	0.070530	-0.925416	0.082767
O12	O	0.570530	-0.425416	0.582767
O13	O	0.062986	-1.185935	0.082795
O14	O	0.562986	-0.685935	0.582795
Cu15	Cu	0.066758	-1.055674	0.097882
Cu16	Cu	0.566758	-0.555674	0.597882
Cu17	Cu	0.066763	-1.055694	-0.097704
Cu18	Cu	0.566763	-0.555694	0.402296
O19	O	0.137117	-1.047584	0.082761
O20	O	0.637117	-0.547584	0.582761
C21	C	0.070195	-0.892105	0.000071
C22	C	0.570195	-0.392105	0.500071
C23	C	0.069184	-0.792824	0.000061
C24	C	0.569184	-0.292824	0.500061
C25	C	-0.021608	-1.063435	0.000111
C26	C	0.478392	-0.563435	0.500111
C27	C	-0.075267	-1.062412	0.000120
C28	C	0.424733	-0.562412	0.500120
C29	C	0.063326	-1.219263	0.000104
C30	C	0.563326	-0.719263	0.500104
C31	C	0.064337	-1.318544	0.000108
C32	C	0.564337	-0.818544	0.500108
C33	C	-0.413735	-1.137729	0.000077
C34	C	0.086265	-0.637729	0.500077
C35	C	-0.615412	-1.133934	0.000062
C36	C	-0.115412	-0.633934	0.500062
O37	O	-0.646350	-1.202806	0.000026
O38	O	-0.146350	-0.702806	0.500026
N39	N	-0.634914	-1.051898	0.000054
N40	N	-0.134914	-0.551898	0.500054
C41	C	-0.603994	-0.970804	0.000043
C42	C	-0.103994	-0.470804	0.500043
O43	O	-0.625209	-0.900940	0.000026
O44	O	-0.125209	-0.400940	0.500026
C45	C	-0.402318	-0.974601	0.000051
C46	C	0.097682	-0.474601	0.500051
C47	C	-0.382818	-1.056642	0.000069
C48	C	0.117182	-0.556642	0.500069
C49	C	-0.394235	-1.219764	0.000094
C50	C	0.105765	-0.719764	0.500094
C51	C	-0.343819	-1.220712	0.000103
C52	C	0.156181	-0.720712	0.500103
C53	C	-0.312902	-1.139625	0.000095
C54	C	0.187098	-0.639625	0.500095
C55	C	-0.332402	-1.057590	0.000078
C56	C	0.167598	-0.557590	0.500078
C57	C	-0.371398	-0.893508	0.000033
C58	C	0.128602	-0.393508	0.500033
C59	C	-0.320976	-0.894464	0.000032
C60	C	0.179024	-0.394464	0.500032
C61	C	-0.301477	-0.976506	0.000050
C62	C	0.198523	-0.476506	0.500050
C63	C	-0.251069	-0.977451	0.000079
C64	C	0.248931	-0.477451	0.500079
N65	N	-0.231567	-1.059487	0.000087
N66	N	0.268433	-0.559487	0.500087
C67	C	-0.262483	-1.140574	0.000095
C68	C	0.237517	-0.640574	0.500095
C69	C	-0.709877	-0.968817	0.000042
C70	C	-0.209877	-0.468817	0.500042
C71	C	-0.760296	-0.967868	0.000042
C72	C	-0.260296	-0.467868	0.500042
C73	C	-0.771710	-1.130998	0.000059
C74	C	-0.271710	-0.630998	0.500059
C75	C	-0.721291	-1.131946	0.000066
C76	C	-0.221291	-0.631946	0.500066
C77	C	-0.690375	-1.050854	0.000050
C78	C	-0.190375	-0.550854	0.500050
C79	C	-0.156605	-1.142559	0.000114
C80	C	0.343395	-0.642559	0.500114
C81	C	-0.106184	-1.143500	0.000128
C82	C	0.393816	-0.643500	0.500128
C83	C	-0.094773	-0.980370	0.000105
C84	C	0.405227	-0.480370	0.500105
C85	C	-0.145190	-0.979429	0.000097
C86	C	0.354810	-0.479429	0.500097
C87	C	-0.176105	-1.060530	0.000099
C88	C	0.323895	-0.560530	0.500099
O89	O	-0.220103	-0.908616	0.000104
O90	O	0.279897	-0.408616	0.500104
O91	O	-0.241258	-1.210428	0.000090
O92	O	0.258742	-0.710428	0.500090
C93	C	-0.464151	-1.136781	0.000068
C94	C	0.035849	-0.636781	0.500068
C95	C	-0.483651	-1.054746	0.000051
C96	C	0.016349	-0.554746	0.500051
C97	C	-0.452734	-0.973659	0.000043
C98	C	0.047266	-0.473659	0.500043
C99	C	-0.534070	-1.053797	0.000051
C100	C	-0.034070	-0.553797	0.500051
C101	C	-0.564986	-1.134884	0.000059
C102	C	-0.064986	-0.634884	0.500059
C103	C	-0.545484	-1.216921	0.000067
C104	C	-0.045484	-0.716921	0.500067
C105	C	-0.495067	-1.217868	0.000076
C106	C	0.004933	-0.717868	0.500076
C107	C	-0.472237	-0.891623	0.000035
C108	C	0.027763	-0.391623	0.500035
C109	C	-0.522654	-0.890682	0.000027
C110	C	-0.022654	-0.390682	0.500027
C111	C	-0.553570	-0.971769	0.000035
C112	C	-0.053570	-0.471769	0.500035
C113	C	0.155128	-1.047932	0.000064
C114	C	0.655128	-0.547932	0.500064
C115	C	0.208788	-1.048955	0.000050
C116	C	0.708788	-0.548955	0.500050
N117	N	0.066753	-1.055666	0.235446
N118	N	0.566753	-0.555666	0.735446
C119	C	0.112734	-0.734910	0.000051
C120	C	0.612734	-0.234910	0.500051
C121	C	0.111781	-0.641626	0.000066
C122	C	0.611781	-0.141626	0.500066
C123	C	0.067278	-0.606257	0.000084
C124	C	0.567278	-0.106257	0.500084
C125	C	0.023724	-0.664177	0.000098
C126	C	0.523724	-0.164177	0.500098
C127	C	0.024678	-0.757460	0.000090
C128	C	0.524678	-0.257460	0.500090
C129	C	0.021740	-0.469746	0.000113
C130	C	0.521740	0.030254	0.500113
C131	C	0.020787	-0.376457	0.000119
C132	C	0.520787	0.123543	0.500119
C133	C	0.108844	-0.353912	0.000088
C134	C	0.608844	0.146088	0.500088
C135	C	0.109797	-0.447195	0.000080
C136	C	0.609797	0.052805	0.500080
C137	C	0.066243	-0.505109	0.000092
C138	C	0.566243	-0.005109	0.500092
N139	N	0.066763	-1.055709	-0.235268
N140	N	0.566763	-0.555709	0.264732
C141	C	0.033942	-1.116946	0.287501
C142	C	0.533942	-0.616946	0.787501
C143	C	0.033941	-1.116952	0.391605
C144	C	0.533941	-0.616952	0.891605
C145	C	0.066755	-1.055681	0.443651
C146	C	0.566755	-0.555681	0.943651
C147	C	0.099569	-0.994394	0.391588
C148	C	0.599569	-0.494394	0.891588
C149	C	0.099566	-0.994385	0.287487
C150	C	0.599566	-0.494385	0.787487
C151	C	0.099572	-0.994418	0.608568
C152	C	0.599572	-0.494418	1.108568
C153	C	0.099575	-0.994428	0.712676
C154	C	0.599575	-0.494428	1.212676
C155	C	0.033947	-1.116986	0.712686
C156	C	0.533947	-0.616986	1.212686
C157	C	0.033945	-1.116977	0.608585
C158	C	0.533945	-0.616977	1.108585
C159	C	0.066759	-1.055691	0.556529
C160	C	0.566759	-0.555691	1.056529
H161	H	-0.090310	-1.210310	0.000145
H162	H	0.409690	-0.710310	0.500145
H163	H	-0.295806	-0.828427	0.000017
H164	H	0.204194	-0.328427	0.500017
F165	F	-0.676979	-0.882501	0.000024
F166	F	-0.176979	-0.382501	0.500024
H167	H	-0.181771	-1.208600	0.000112
H168	H	0.318229	-0.708600	0.500112
H169	H	0.007223	-1.166844	0.245133
H170	H	0.507223	-0.666844	0.745133
H171	H	-0.015451	-0.347663	0.000135
H172	H	0.484549	0.152337	0.500135
F173	F	-0.543400	-0.803355	0.000014
F174	F	-0.043400	-0.303355	0.500014
H175	H	-0.013726	-0.516899	0.000124
H176	H	0.486274	-0.016899	0.500124
H177	H	0.144307	-0.306753	0.000083
H178	H	0.644307	0.193247	0.500083
H179	H	0.126295	-0.944534	0.755047
H180	H	0.626295	-0.444534	1.255047
F181	F	-0.165944	-0.892112	0.000096
F182	F	0.334056	-0.392112	0.500096
H183	H	0.146035	-0.475989	0.000055
H184	H	0.646035	0.024011	0.500055
H185	H	-0.012511	-0.635373	0.000128
H186	H	0.487489	-0.135373	0.500128
F187	F	0.158133	-0.579993	0.000050
F188	F	0.658133	-0.079993	0.500050
F189	F	-0.578396	-1.303219	0.000081
F190	F	-0.078396	-0.803219	0.500081
F191	F	0.134495	-0.929187	0.553171
F192	F	0.634495	-0.429187	1.053171
F193	F	-0.021674	-0.819096	0.000105
F194	F	0.478326	-0.319096	0.500105
F195	F	-0.000981	-1.182172	0.447006
F196	F	0.499019	-0.682172	0.947006
F197	F	-0.000976	-1.182192	0.553193
F198	F	0.499024	-0.682192	1.053193
F199	F	-0.700543	-1.219265	0.000085
F200	F	-0.200543	-0.719265	0.500085
F201	F	0.160101	-0.772543	0.000024
F202	F	0.660101	-0.272543	0.500024
H203	H	-0.447069	-0.825590	0.000026
H204	H	0.052931	-0.325590	0.500026
F205	F	0.134490	-0.929179	0.446980
F206	F	0.634490	-0.429179	0.946980
H207	H	0.126284	-0.944483	0.245104
H208	H	0.626284	-0.444483	0.745104
H209	H	0.007229	-1.166887	0.755076
H210	H	0.507229	-0.666887	1.255076
H211	H	-0.419403	-1.285799	0.000097
H212	H	0.080597	-0.785799	0.500097
F213	F	-0.804623	-1.217297	0.000065
F214	F	-0.304623	-0.717297	0.500065
F215	F	-0.781043	-0.880548	0.000040
F216	F	-0.281043	-0.380548	0.500040
F217	F	-0.323073	-1.308033	0.000100
F218	F	0.176927	-0.808033	0.500100
H219	H	-0.387265	-0.826701	0.000012
H220	H	0.112735	-0.326701	0.500012
H221	H	-0.069592	-0.914351	0.000102
H222	H	0.430408	-0.414351	0.500102
F223	F	-0.474322	-1.305189	0.000089
F224	F	0.025678	-0.805189	0.500089
