data_functionalizedCrystal
_audit_creation_method	'MofGen! by Chris Wilmer'
_symmetry_space_group_name_H-M	'P1'
_symmetry_Int_Tables_number	1
_symmetry_cell_setting	triclinic
loop_
_symmetry_equiv_pos_as_xyz
  x,y,z
_cell_length_a	16.109302
_cell_length_b	16.109301
_cell_length_c	9.130313
_cell_angle_alpha	89.999196
_cell_angle_beta	90.004400
_cell_angle_gamma	96.538228
loop_
_atom_site_label
_atom_site_type_symbol
_atom_site_fract_x
_atom_site_fract_y
_atom_site_fract_z
O1	O	-0.106867	1.103131	-0.121706
O2	O	-0.120166	0.861069	-0.121730
O3	O	0.007514	0.988749	-0.121708
O4	O	-0.234547	0.975451	-0.121728
O5	O	0.007518	0.988741	0.121891
O6	O	-0.120163	0.861061	0.121869
O7	O	-0.106863	1.103123	0.121893
Cu8	Cu	-0.113513	0.982091	0.144123
Cu9	Cu	-0.113517	0.982101	-0.143960
O10	O	-0.234544	0.975443	0.121871
C11	C	-0.119626	0.830090	0.000067
C12	C	-0.118011	0.737795	0.000058
C13	C	-0.190018	0.515523	0.000069
C14	C	-0.188494	0.428802	0.000079
C15	C	-0.037006	0.448676	0.000085
C16	C	-0.038530	0.535395	0.000086
C17	C	-0.115039	0.568816	0.000071
C18	C	-0.111990	0.395376	0.000079
C19	C	-0.110337	0.301350	0.000090
C20	C	-0.116693	0.662848	0.000063
C21	C	-0.265520	0.975986	0.000069
C22	C	-0.357816	0.977601	0.000062
C23	C	-0.570159	0.981341	-0.132714
C24	C	-0.656879	0.982867	-0.132711
C25	C	-0.656864	0.982854	0.132874
C26	C	-0.570145	0.981333	0.132869
C27	C	-0.526795	0.980572	0.000071
C28	C	-0.700234	0.983619	0.000079
C29	C	-0.794260	0.985275	0.000083
C30	C	-0.432763	0.978919	0.000066
C31	C	0.038491	0.988206	0.000091
C32	C	0.130786	0.986591	0.000088
C33	C	-0.107404	1.134102	0.000093
C34	C	-0.109019	1.226397	0.000092
N35	N	-0.113509	0.982090	0.346746
N36	N	-0.113514	0.982109	-0.346583
C37	C	-0.056996	1.038645	0.423407
C38	C	-0.056996	1.038653	0.576744
C39	C	-0.170030	0.925547	0.576745
C40	C	-0.170025	0.925536	0.423411
H41	H	-0.252317	0.542731	0.000068
C42	C	0.043957	0.594021	0.000088
N43	N	0.106083	0.638178	0.000093
H44	H	-0.010976	1.084694	0.360991
C45	C	-0.270977	0.370184	0.000084
N46	N	-0.333107	0.326032	0.000093
C47	C	-0.232235	0.863355	0.339078
N48	N	-0.279103	0.816535	0.275559
C49	C	0.047150	0.411904	0.000088
N50	N	0.110537	0.384209	0.000085
C51	C	-0.522475	0.980522	-0.278796
N52	N	-0.486560	0.979912	-0.388829
C53	C	-0.704575	0.983710	-0.278785
N54	N	-0.740500	0.984345	-0.388815
C55	C	-0.704559	0.983677	0.278945
N56	N	-0.740483	0.984292	0.388968
C57	C	0.005180	1.100862	0.661065
N58	N	0.052017	1.147718	0.724574
C59	C	-0.522443	0.980485	0.278951
N60	N	-0.486513	0.979848	0.388975
C61	C	-0.232193	0.863340	0.661090
N62	N	-0.279015	0.816484	0.724618
