data_functionalizedCrystal
_audit_creation_method	'MofGen! by Chris Wilmer'
_symmetry_space_group_name_H-M	'P1'
_symmetry_Int_Tables_number	1
_symmetry_cell_setting	triclinic
loop_
_symmetry_equiv_pos_as_xyz
  x,y,z
_cell_length_a	34.408637
_cell_length_b	34.407814
_cell_length_c	34.404193
_cell_angle_alpha	60.004510
_cell_angle_beta	60.009006
_cell_angle_gamma	59.994604
loop_
_atom_site_label
_atom_site_type_symbol
_atom_site_fract_x
_atom_site_fract_y
_atom_site_fract_z
O1	O	0.053973	-0.567860	0.474801
O2	O	0.020377	-0.442124	0.382567
O3	O	0.100004	-0.521670	0.382483
O4	O	-0.025653	-0.488314	0.474886
O5	O	0.126426	-0.495253	0.408816
O6	O	0.046800	-0.415707	0.408900
O7	O	0.080396	-0.541443	0.501134
Zn8	Zn	0.067793	-0.474381	0.459198
Zn9	Zn	0.032980	-0.509186	0.424503
O10	O	0.000769	-0.461897	0.501219
N11	N	0.091552	-0.450631	0.482879
N12	N	0.009225	-0.532940	0.400823
C13	C	0.142848	-0.268847	0.534081
C14	C	0.142979	-0.399386	0.664559
C15	C	0.142862	-0.399365	0.534081
C16	C	0.273409	-0.399338	0.533986
C17	C	0.157225	-0.311914	0.548422
C18	C	0.157300	-0.385019	0.621491
C19	C	0.230339	-0.384991	0.548370
C20	C	0.157235	-0.385007	0.548422
C21	C	0.124548	-0.214028	0.515827
C22	C	0.124571	-0.417639	0.515827
C23	C	0.175526	-0.366733	0.566676
C24	C	0.353121	-0.385580	0.491988
C25	C	0.402952	-0.402180	0.475348
C26	C	0.402981	-0.482812	0.506096
C27	C	0.353151	-0.466211	0.522737
C28	C	0.136544	-0.189099	0.466839
C29	C	0.119905	-0.139265	0.450247
C30	C	0.079280	-0.139291	0.531632
C31	C	0.095918	-0.189125	0.548224
C32	C	0.075577	-0.405615	0.527900
C33	C	0.058953	-0.422228	0.511301
C34	C	0.140315	-0.462889	0.470566
C35	C	0.156941	-0.446276	0.487159
C36	C	0.075772	-0.405653	0.744326
C37	C	0.059206	-0.422280	0.794159
C38	C	0.140607	-0.462951	0.794094
C39	C	0.157172	-0.446325	0.744260
C40	C	0.124753	-0.417674	0.719377
C41	C	0.328223	-0.417595	0.515681
C42	C	-0.172390	-0.583988	0.349141
C43	C	-0.041751	-0.584138	0.218783
C44	C	-0.041941	-0.584130	0.349402
C45	C	-0.041957	-0.714607	0.349338
C46	C	-0.129326	-0.598388	0.334853
C47	C	-0.056165	-0.598473	0.261852
C48	C	-0.056282	-0.671535	0.334962
C49	C	-0.056272	-0.598469	0.334999
C50	C	-0.227205	-0.565659	0.367327
C51	C	-0.023703	-0.565882	0.367734
C52	C	-0.074511	-0.616717	0.316667
C53	C	-0.055754	-0.794298	0.391257
C54	C	-0.039181	-0.844132	0.407888
C55	C	0.041447	-0.844215	0.377269
C56	C	0.024873	-0.794381	0.360637
C57	C	-0.252183	-0.577666	0.416302
C58	C	-0.302014	-0.561001	0.432833
C59	C	-0.301886	-0.520329	0.351410
C60	C	-0.252055	-0.536994	0.334880
C61	C	-0.035709	-0.516892	0.355682
C62	C	-0.019129	-0.500308	0.372353
C63	C	0.021465	-0.581700	0.413115
C64	C	0.004884	-0.598286	0.396450
C65	C	-0.035389	-0.516907	0.139026
C66	C	-0.018707	-0.500324	0.089193
C67	C	0.021949	-0.581721	0.089240
C68	C	0.005268	-0.598303	0.139074
C69	C	-0.023402	-0.565894	0.163965
C70	C	-0.023728	-0.769425	0.367633
N71	N	0.427173	-0.450553	0.482630
O72	O	0.589997	-0.458460	0.365361
O73	O	0.590185	-0.550997	0.490963
O74	O	0.590104	-0.550786	0.411309
O75	O	0.590077	-0.458671	0.445016
O76	O	0.510940	-0.524462	0.437777
O77	O	0.511020	-0.524674	0.517432
O78	O	0.510832	-0.432136	0.391830
Zn79	Zn	0.498357	-0.474225	0.458833
Zn80	Zn	0.602660	-0.508908	0.423960
O81	O	0.510913	-0.432348	0.471484
N82	N	0.673844	-0.532580	0.400158
N83	N	0.091520	-0.115070	0.482873
O84	O	-0.025663	0.047841	0.474857
O85	O	0.099940	0.047877	0.382299
O86	O	0.020247	0.047844	0.382560
O87	O	0.054030	0.047874	0.474596
O88	O	0.046674	-0.031326	0.408942
O89	O	0.126367	-0.031293	0.408680
O90	O	0.000764	-0.031329	0.501238
Zn91	Zn	0.067761	-0.043881	0.459148
Zn92	Zn	0.032943	0.060429	0.424389
O93	O	0.080457	-0.031296	0.500977
N94	N	0.009178	0.131618	0.400665
N95	N	0.091852	-0.450680	0.818332
O96	O	0.083862	-0.567845	0.981235
O97	O	-0.008657	-0.442198	0.981276
O98	O	-0.008441	-0.521875	0.981252
O99	O	0.083646	-0.488168	0.981258
O100	O	0.017919	-0.495468	0.902085
O101	O	0.017703	-0.415791	0.902109
O102	O	0.110222	-0.541438	0.902067
Zn103	Zn	0.068148	-0.474422	0.889518
Zn104	Zn	0.033417	-0.509214	0.993825
O105	O	0.110006	-0.461761	0.902091
N106	N	0.009712	-0.532961	1.065011
C107	C	0.030439	-0.413071	0.383027
C108	C	0.129046	-0.511580	0.382922
C109	C	0.070334	-0.570496	0.500675
C110	C	-0.028274	-0.471987	0.500780
C111	C	0.550625	-0.550579	0.520021
C112	C	0.550527	-0.550317	0.421379
C113	C	0.550389	-0.432554	0.362773
C114	C	0.550491	-0.432816	0.461414
C115	C	0.128944	0.008394	0.382712
C116	C	0.030287	0.008256	0.383068
C117	C	-0.028273	0.008252	0.500793
C118	C	0.070417	0.008292	0.500470
C119	C	-0.008218	-0.413165	0.941698
C120	C	-0.007945	-0.511830	0.941653
C121	C	0.109783	-0.570471	0.941646
C122	C	0.109516	-0.471800	0.941673
H123	H	0.049370	-0.382321	0.724071
O124	O	-0.042463	-0.520338	0.941548
C125	C	-0.094340	-0.497430	0.900465
C126	C	-0.055259	-0.487736	0.900530
H127	H	-0.104690	-0.471084	0.867300
H128	H	-0.126861	-0.493152	0.933567
H129	H	-0.080375	-0.535261	0.900465
H130	H	-0.069179	-0.449908	0.900512
H131	H	-0.022745	-0.492046	0.867430
H132	H	-0.037264	-0.377079	0.941710
O133	O	0.550708	-0.585193	0.563075
C134	C	0.550765	-0.607316	0.641480
C135	C	0.550682	-0.568078	0.592741
H136	H	0.550734	-0.593490	0.665482
H137	H	0.583922	-0.639766	0.636478
H138	H	0.517662	-0.617734	0.658575
H139	H	0.583763	-0.557619	0.575619
H140	H	0.517503	-0.535654	0.597774
H141	H	0.550540	-0.579254	0.414165
H142	H	-0.064365	-0.464880	0.529794
H143	H	0.550329	-0.403500	0.326702
O144	O	0.078816	-0.613587	0.535253
C145	C	0.055867	-0.683587	0.587233
C146	C	0.046202	-0.634791	0.548084
H147	H	0.029511	-0.700749	0.597612
H148	H	0.051582	-0.678662	0.619725
H149	H	0.093690	-0.707491	0.573320
H150	H	0.008381	-0.610861	0.561952
H151	H	0.050518	-0.639752	0.515600
O152	O	0.144379	-0.613552	0.941650
C153	C	0.166525	-0.691957	0.941589
C154	C	0.127299	-0.643194	0.941598
H155	H	0.152734	-0.715933	0.941537
H156	H	0.176916	-0.709091	0.974725
H157	H	0.198981	-0.686933	0.908462
H158	H	0.094818	-0.648177	0.974702
H159	H	0.116948	-0.626077	0.908440
H160	H	0.550485	-0.403881	0.468626
O161	O	0.172133	-0.520128	0.348362
C162	C	0.250511	-0.576530	0.326325
C163	C	0.201741	-0.566909	0.365508
H164	H	0.274458	-0.614354	0.340169
H165	H	0.267668	-0.550155	0.315911
H166	H	0.245497	-0.572209	0.293868
H167	H	0.206713	-0.571236	0.397990
H168	H	0.184600	-0.593281	0.375881
O169	O	0.171905	0.008692	0.348003
C170	C	0.250201	0.009082	0.325712
C171	C	0.201565	0.008756	0.365058
H172	H	0.274198	0.009124	0.339490
H173	H	0.245015	0.042295	0.293355
H174	H	0.267406	-0.023969	0.315171
H175	H	0.184333	0.041784	0.375640
H176	H	0.206782	-0.024479	0.397389
H177	H	0.023050	0.008252	0.354152
H178	H	0.077653	0.008301	0.529384
O179	O	0.143987	-0.463112	0.941647
C180	C	0.165748	-0.406566	0.941683
C181	C	0.126672	-0.416338	0.941702
H182	H	0.151760	-0.368753	0.941737
H183	H	0.198228	-0.410786	0.908536
H184	H	0.176177	-0.432944	0.974799
H185	H	0.116203	-0.389969	0.908608
H186	H	0.094218	-0.412135	0.974870
O187	O	-0.071341	0.008332	0.535416
C188	C	-0.156026	0.049325	0.558425
C189	C	-0.107280	0.049296	0.519178
H190	H	-0.185097	0.082435	0.545307
H191	H	-0.156092	0.049364	0.591575
H192	H	-0.162976	0.016171	0.567438
H193	H	-0.100299	0.082443	0.510124
H194	H	-0.107238	0.049231	0.486053
O195	O	0.011608	-0.410532	0.818316
C196	C	-0.067380	-0.368452	0.813115
C197	C	-0.013488	-0.381709	0.785698
H198	H	-0.087685	-0.345154	0.786754
H199	H	-0.077198	-0.348141	0.836434
H200	H	-0.077152	-0.402280	0.836458
H201	H	-0.003677	-0.347906	0.762328
H202	H	-0.003699	-0.402038	0.762409
H203	H	0.197059	-0.456117	0.723950
O204	O	0.172163	-0.490791	0.818192
C205	C	0.254650	-0.529357	0.812868
C206	C	0.218966	-0.497827	0.785519
H207	H	0.292498	-0.535048	0.786464
H208	H	0.248965	-0.565228	0.836179
H209	H	0.248899	-0.511108	0.836214
H210	H	0.224695	-0.516035	0.762147
H211	H	0.224659	-0.461958	0.762238
H212	H	0.159856	-0.209371	0.440456
H213	H	0.049217	-0.382297	0.551240
H214	H	0.023260	-0.376951	0.354059
H215	H	0.019058	-0.412426	0.521121
H216	H	0.196836	-0.456064	0.477324
O217	O	0.171784	-0.490638	0.442651
C218	C	0.236229	-0.496984	0.369291
C219	C	0.200611	-0.465507	0.400853
H220	H	0.259552	-0.476682	0.335495
H221	H	0.215961	-0.506784	0.359458
H222	H	0.259566	-0.530805	0.389576
H223	H	0.177266	-0.431666	0.380598
H224	H	0.220909	-0.455745	0.410689
O225	O	0.329040	-0.497374	0.545725
C226	C	0.334336	-0.579108	0.574488
C227	C	0.361700	-0.543864	0.548438
H228	H	0.360729	-0.616704	0.576699
H229	H	0.310995	-0.569145	0.554136
H230	H	0.311019	-0.577565	0.611950
H231	H	0.385042	-0.545388	0.510976
H232	H	0.385010	-0.553838	0.568827
H233	H	0.423225	-0.376108	0.456057
O234	O	0.328978	-0.338341	0.485114
C235	C	0.334212	-0.260115	0.452833
C236	C	0.361610	-0.313601	0.460598
H237	H	0.360583	-0.240096	0.433002
H238	H	0.310918	-0.254541	0.488758
H239	H	0.310845	-0.246107	0.430960
H240	H	0.385002	-0.327645	0.482454
H241	H	0.384873	-0.319143	0.424657
H242	H	0.423275	-0.522397	0.511838
H243	H	0.055974	-0.119015	0.558014
O244	O	0.131616	-0.115120	0.402643
C245	C	0.173638	-0.120352	0.323670
C246	C	0.160423	-0.147753	0.377568
H247	H	0.196921	-0.146724	0.303380
H248	H	0.193946	-0.097023	0.313817
H249	H	0.139794	-0.097018	0.313910
H250	H	0.194241	-0.171113	0.387366
H251	H	0.140096	-0.171052	0.387391
O252	O	0.084321	-0.213305	0.595818
C253	C	0.088158	-0.228500	0.670421
C254	C	0.101334	-0.201103	0.616523
H255	H	0.101898	-0.218638	0.687179
H256	H	0.104974	-0.268405	0.676766
H257	H	0.047811	-0.218715	0.687228
H258	H	0.141674	-0.210848	0.599681
H259	H	0.084483	-0.161205	0.610212
O260	O	-0.030443	-0.452731	0.064992
C261	C	-0.093569	-0.378054	0.049665
C262	C	-0.080346	-0.431948	0.077093
H263	H	-0.133917	-0.361233	0.059447
H264	H	-0.076760	-0.371736	0.009767
H265	H	-0.079816	-0.361288	0.059502
H266	H	-0.094097	-0.448750	0.067296
H267	H	-0.097149	-0.438232	0.116985
O268	O	-0.063193	-0.485468	0.163254
C269	C	-0.072140	-0.456958	0.219528
C270	C	-0.040614	-0.492595	0.192129
H271	H	-0.053893	-0.462701	0.242873
H272	H	-0.108000	-0.462661	0.242835
H273	H	-0.077853	-0.419102	0.193131
H274	H	-0.034863	-0.530465	0.218492
H275	H	-0.004773	-0.486850	0.168815
O276	O	0.049802	-0.613268	0.065135
C277	C	0.088333	-0.695752	0.070441
C278	C	0.056793	-0.660080	0.097800
H279	H	0.093986	-0.733608	0.096839
H280	H	0.124216	-0.690093	0.047179
H281	H	0.070115	-0.689961	0.047045
H282	H	0.074968	-0.665849	0.121221
H283	H	0.020911	-0.665748	0.121031
H284	H	-0.058984	-0.490504	0.332300
O285	O	0.016884	-0.645877	0.163374
C286	C	0.009177	-0.707499	0.240162
C287	C	-0.004002	-0.653611	0.212704
H288	H	-0.007711	-0.713768	0.280051
H289	H	0.049517	-0.724358	0.230467
H290	H	-0.004544	-0.724265	0.230291
H291	H	0.009688	-0.636803	0.222560
H292	H	-0.044344	-0.636786	0.222402
O293	O	-0.030805	-0.452703	0.360576
C294	C	-0.072808	-0.373719	0.318378
C295	C	-0.059619	-0.427617	0.331677
H296	H	-0.096114	-0.353422	0.295019
H297	H	-0.038984	-0.363941	0.298119
H298	H	-0.093118	-0.363893	0.352183
H299	H	-0.039321	-0.437481	0.297896
H300	H	-0.093460	-0.437366	0.351954
H301	H	0.014660	-0.638178	0.406265
O302	O	0.049217	-0.613245	0.441018
C303	C	0.087761	-0.695728	0.479661
C304	C	0.056320	-0.660059	0.448066
H305	H	0.093522	-0.733584	0.485361
H306	H	0.069467	-0.690004	0.515521
H307	H	0.123603	-0.689996	0.461460
H308	H	0.020474	-0.665768	0.466225
H309	H	0.074652	-0.665791	0.412208
H310	H	0.050956	-0.774133	0.341399
H311	H	0.081021	-0.864532	0.371574
H312	H	-0.095331	-0.773979	0.396956
O313	O	-0.070358	-0.868224	0.430846
C314	C	-0.152076	-0.862889	0.459441
C315	C	-0.116823	-0.835545	0.433441
H316	H	-0.189648	-0.836480	0.461539
H317	H	-0.150642	-0.886199	0.496942
H318	H	-0.142026	-0.886237	0.439060
H319	H	-0.126848	-0.812171	0.453783
H320	H	-0.118262	-0.812265	0.395938
H321	H	-0.322352	-0.570775	0.472713
O322	O	-0.228100	-0.605559	0.447869
C323	C	-0.212952	-0.678905	0.512373
C324	C	-0.240266	-0.647357	0.476658
H325	H	-0.222771	-0.712711	0.535652
H326	H	-0.222785	-0.658643	0.535744
H327	H	-0.173048	-0.688731	0.492137
H328	H	-0.280176	-0.637523	0.496856
H329	H	-0.230394	-0.667638	0.453288
O330	O	-0.325973	-0.492543	0.319845
C331	C	-0.341137	-0.486183	0.255318
C332	C	-0.313823	-0.517697	0.291033
H333	H	-0.331332	-0.506511	0.232022
H334	H	-0.331291	-0.452396	0.231965
H335	H	-0.381041	-0.476320	0.275555
H336	H	-0.273913	-0.527597	0.270836
H337	H	-0.323709	-0.551462	0.314386
O338	O	-0.227741	-0.525415	0.287316
C339	C	-0.171438	-0.554094	0.221371
C340	C	-0.198935	-0.567276	0.275247
H341	H	-0.148150	-0.587930	0.211596
H342	H	-0.148068	-0.533862	0.211592
H343	H	-0.197770	-0.530725	0.201034
H344	H	-0.172638	-0.590661	0.295622
H345	H	-0.222313	-0.587484	0.284990
