data_functionalizedCrystal
_audit_creation_method	'MofGen! by Chris Wilmer'
_symmetry_space_group_name_H-M	'P1'
_symmetry_Int_Tables_number	1
_symmetry_cell_setting	triclinic
loop_
_symmetry_equiv_pos_as_xyz
  x,y,z
_cell_length_a	16.625548
_cell_length_b	19.120786
_cell_length_c	16.625539
_cell_angle_alpha	92.471374
_cell_angle_beta	90.020568
_cell_angle_gamma	92.466188
loop_
_atom_site_label
_atom_site_type_symbol
_atom_site_fract_x
_atom_site_fract_y
_atom_site_fract_z
Zn1	Zn	1.218970	-0.279609	0.442197
Zn2	Zn	1.468970	-0.029609	0.692197
Zn3	Zn	1.718970	0.220391	0.942197
Zn4	Zn	1.968970	0.470391	1.192197
Zn5	Zn	1.213114	-0.397074	0.301603
Zn6	Zn	1.463114	-0.147074	0.551603
Zn7	Zn	1.713114	0.102926	0.801603
Zn8	Zn	1.963114	0.352926	1.051603
Zn9	Zn	1.084131	-0.279636	0.307376
Zn10	Zn	1.334131	-0.029636	0.557376
Zn11	Zn	1.584131	0.220364	0.807376
Zn12	Zn	1.834131	0.470364	1.057376
Zn13	Zn	1.078345	-0.397034	0.436395
Zn14	Zn	1.328345	-0.147034	0.686395
Zn15	Zn	1.578345	0.102966	0.936395
Zn16	Zn	1.828345	0.352966	1.186395
O17	O	1.148640	-0.338338	0.371893
O18	O	1.398640	-0.088338	0.621893
O19	O	1.648640	0.161662	0.871893
O20	O	1.898640	0.411662	1.121893
O21	O	1.331025	-0.295197	0.423559
O22	O	1.581025	-0.045197	0.673559
O23	O	1.831025	0.204803	0.923559
O24	O	2.081025	0.454803	1.173559
O25	O	1.195974	-0.381524	0.189535
O26	O	1.445974	-0.131524	0.439535
O27	O	1.695974	0.118476	0.689535
O28	O	1.945974	0.368476	0.939535
O29	O	1.106890	-0.181342	0.330104
O30	O	1.356890	0.068658	0.580104
O31	O	1.606890	0.318658	0.830104
O32	O	1.856890	0.568658	1.080104
O33	O	1.326723	-0.381498	0.320265
O34	O	1.576723	-0.131498	0.570265
O35	O	1.826723	0.118502	0.820265
O36	O	2.076723	0.368502	1.070265
O37	O	1.205956	-0.181323	0.429156
O38	O	1.455956	0.068677	0.679156
O39	O	1.705956	0.318677	0.929156
O40	O	1.955956	0.568677	1.179156
O41	O	1.101211	-0.295243	0.193776
O42	O	1.351211	-0.045243	0.443776
O43	O	1.601211	0.204757	0.693776
O44	O	1.851211	0.454757	0.943776
O45	O	0.970531	-0.295204	0.324478
O46	O	1.220531	-0.045204	0.574478
O47	O	1.470531	0.204796	0.824478
O48	O	1.720531	0.454796	1.074478
O49	O	1.097028	-0.381429	0.549998
O50	O	1.347028	-0.131429	0.799998
O51	O	1.597028	0.118571	1.049998
O52	O	1.847028	0.368571	1.299998
O53	O	0.966280	-0.381455	0.419268
O54	O	1.216280	-0.131455	0.669268
O55	O	1.466280	0.118545	0.919268
O56	O	1.716280	0.368545	1.169268
O57	O	1.200345	-0.295158	0.554261
O58	O	1.450345	-0.045158	0.804261
O59	O	1.700345	0.204842	1.054261
O60	O	1.950345	0.454842	1.304261
O61	O	1.190364	-0.495359	0.314640
O62	O	1.440364	-0.245359	0.564640
O63	O	1.690364	0.004641	0.814640
O64	O	1.940364	0.254641	1.064640
O65	O	1.091350	-0.495329	0.413671
O66	O	1.341350	-0.245329	0.663671
O67	O	1.591350	0.004671	0.913671
O68	O	1.841350	0.254671	1.163671
C69	C	0.939149	-0.338328	0.371871
C70	C	1.189149	-0.088328	0.621871
C71	C	1.439149	0.161672	0.871871
C72	C	1.689149	0.411672	1.121871
C73	C	0.849528	-0.338341	0.371879
C74	C	1.099528	-0.088341	0.621879
C75	C	1.349528	0.161659	0.871879
C76	C	1.599528	0.411659	1.121879
C77	C	0.521352	-0.338345	0.371914
C78	C	0.771352	-0.088345	0.621914
C79	C	1.021352	0.161655	0.871914
C80	C	1.271352	0.411655	1.121914
C81	C	0.612660	-0.338342	0.371902
C82	C	0.862660	-0.088342	0.621902
C83	C	1.112660	0.161658	0.871902
C84	C	1.362660	0.411658	1.121902
C85	C	0.685437	-0.338344	0.371896
C86	C	0.935437	-0.088344	0.621896
C87	C	1.185437	0.161656	0.871896
C88	C	1.435437	0.411656	1.121896
C89	C	0.776751	-0.338340	0.371885
C90	C	1.026751	-0.088340	0.621885
C91	C	1.276751	0.161660	0.871885
C92	C	1.526751	0.411660	1.121885
C93	C	1.139615	-0.520830	0.362917
C94	C	1.389615	-0.270830	0.612917
C95	C	1.639615	-0.020830	0.862917
C96	C	1.889615	0.229170	1.112917
C97	C	1.135828	-0.598901	0.359104
C98	C	1.385828	-0.348901	0.609104
C99	C	1.635828	-0.098901	0.859104
C100	C	1.885828	0.151099	1.109104
C101	C	1.185589	-0.635508	0.408925
C102	C	1.435589	-0.385508	0.658925
C103	C	1.685589	-0.135508	0.908925
C104	C	1.935589	0.114492	1.158925
C105	C	1.182027	-0.708863	0.405344
C106	C	1.432027	-0.458863	0.655344
C107	C	1.682027	-0.208863	0.905344
C108	C	1.932027	0.041137	1.155344
C109	C	1.128709	-0.745611	0.351936
C110	C	1.378709	-0.495611	0.601936
C111	C	1.628709	-0.245611	0.851936
C112	C	1.878709	0.004389	1.101936
C113	C	1.078942	-0.708998	0.302113
C114	C	1.328942	-0.458998	0.552113
C115	C	1.578942	-0.208998	0.802113
C116	C	1.828942	0.041002	1.052113
C117	C	1.082500	-0.635644	0.305699
C118	C	1.332500	-0.385644	0.555699
C119	C	1.582500	-0.135644	0.805699
C120	C	1.832500	0.114356	1.055699
C121	C	1.115383	-0.967097	0.338531
C122	C	1.365383	-0.717097	0.588531
C123	C	1.615383	-0.467097	0.838531
C124	C	1.865383	-0.217097	1.088531
C125	C	1.111831	-1.040456	0.334947
C126	C	1.361831	-0.790456	0.584947
C127	C	1.611831	-0.540456	0.834947
C128	C	1.861831	-0.290456	1.084947
C129	C	1.214915	-1.040316	0.438180
C130	C	1.464915	-0.790316	0.688180
C131	C	1.714915	-0.540316	0.938180
C132	C	1.964915	-0.290316	1.188180
C133	C	1.218472	-0.966960	0.441758
C134	C	1.468472	-0.716960	0.691758
C135	C	1.718472	-0.466960	0.941758
C136	C	1.968472	-0.216960	1.191758
C137	C	1.168703	-0.930355	0.391937
C138	C	1.418703	-0.680355	0.641937
C139	C	1.668703	-0.430355	0.891937
C140	C	1.918703	-0.180355	1.141937
C141	C	1.125069	-0.820592	0.348273
C142	C	1.375069	-0.570592	0.598273
C143	C	1.625069	-0.320592	0.848273
C144	C	1.875069	-0.070592	1.098273
C145	C	1.172339	-0.855375	0.395605
C146	C	1.422339	-0.605375	0.645605
C147	C	1.672339	-0.355375	0.895605
C148	C	1.922339	-0.105375	1.145605
C149	C	1.358948	-0.338349	0.371915
C150	C	1.608948	-0.088349	0.621915
C151	C	1.858948	0.161651	0.871915
C152	C	2.108948	0.411651	1.121915
C153	C	1.448569	-0.338353	0.371925
C154	C	1.698569	-0.088353	0.621925
C155	C	1.948569	0.161647	0.871925
C156	C	2.198569	0.411647	1.121925
C157	C	1.148695	-0.338286	0.582204
C158	C	1.398695	-0.088286	0.832204
C159	C	1.648695	0.161714	1.082204
C160	C	1.898695	0.411714	1.332204
C161	C	1.148718	-0.338264	0.671826
C162	C	1.398718	-0.088264	0.921826
C163	C	1.648718	0.161736	1.171826
C164	C	1.898718	0.411736	1.421826
C165	C	1.157722	-0.155134	0.380921
C166	C	1.407722	0.094866	0.630921
C167	C	1.657722	0.344866	0.880921
C168	C	1.907722	0.594866	1.130921
C169	C	1.161592	-0.077063	0.384769
C170	C	1.411592	0.172937	0.634769
C171	C	1.661592	0.422937	0.884769
C172	C	1.911592	0.672937	1.134769
C173	C	1.148634	-0.338340	0.162402
C174	C	1.398634	-0.088340	0.412402
C175	C	1.648634	0.161660	0.662402
C176	C	1.898634	0.411660	0.912402
C177	C	1.148776	-0.338164	0.072790
C178	C	1.398776	-0.088164	0.322790
C179	C	1.648776	0.161836	0.572790
C180	C	1.898776	0.411836	0.822790
C181	C	1.148759	-0.338185	1.000006
C182	C	1.398759	-0.088185	1.250006
C183	C	1.648759	0.161815	1.500006
C184	C	1.898759	0.411815	1.750006
C185	C	1.148745	-0.338209	0.908696
C186	C	1.398745	-0.088209	1.158696
C187	C	1.648745	0.161791	1.408696
C188	C	1.898745	0.411791	1.658696
C189	C	1.148739	-0.338225	0.835919
C190	C	1.398739	-0.088225	1.085919
C191	C	1.648739	0.161775	1.335919
C192	C	1.898739	0.411775	1.585919
C193	C	1.148724	-0.338248	0.744604
C194	C	1.398724	-0.088248	0.994604
C195	C	1.648724	0.161752	1.244604
C196	C	1.898724	0.411752	1.494604
H197	H	1.229010	-0.605593	0.452412
H198	H	1.479010	-0.355593	0.702412
H199	H	1.729010	-0.105593	0.952412
H200	H	1.979010	0.144407	1.202412
H201	H	1.074861	-0.937298	0.297963
H202	H	1.324861	-0.687298	0.547963
H203	H	1.574861	-0.437298	0.797963
H204	H	1.824861	-0.187298	1.047963
F205	F	1.022189	-0.748109	0.245279
F206	F	1.272189	-0.498109	0.495279
F207	F	1.522189	-0.248109	0.745279
F208	F	1.772189	0.001891	0.995279
H209	H	1.068408	-1.070374	0.291455
H210	H	1.318408	-0.820374	0.541455
H211	H	1.568408	-0.570374	0.791455
H212	H	1.818408	-0.320374	1.041455
H213	H	1.222554	-0.738666	0.445908
H214	H	1.472554	-0.488666	0.695908
H215	H	1.722554	-0.238666	0.945908
H216	H	1.972554	0.011334	1.195908
F217	F	1.275220	-0.927857	0.498602
F218	F	1.525220	-0.677857	0.748602
F219	F	1.775220	-0.427857	0.998602
F220	F	2.025220	-0.177857	1.248602
F221	F	1.029537	-0.596684	0.252672
F222	F	1.279537	-0.346684	0.502672
F223	F	1.529537	-0.096684	0.752672
F224	F	1.779537	0.153316	1.002672
H225	H	1.255434	-1.070129	0.478742
H226	H	1.505434	-0.820129	0.728742
H227	H	1.755434	-0.570129	0.978742
H228	H	2.005434	-0.320129	1.228742
F229	F	1.229079	-0.816264	0.452448
F230	F	1.479079	-0.566264	0.702448
F231	F	1.729079	-0.316264	0.952448
F232	F	1.979079	-0.066264	1.202448
H233	H	1.081659	-0.850520	0.304786
H234	H	1.331659	-0.600520	0.554786
H235	H	1.581659	-0.350520	0.804786
H236	H	1.831659	-0.100520	1.054786
