data_functionalizedCrystal
_audit_creation_method	'MofGen! by Chris Wilmer'
_symmetry_space_group_name_H-M	'P1'
_symmetry_Int_Tables_number	1
_symmetry_cell_setting	triclinic
loop_
_symmetry_equiv_pos_as_xyz
  x,y,z
_cell_length_a	17.699077
_cell_length_b	12.837942
_cell_length_c	16.776229
_cell_angle_alpha	89.994225
_cell_angle_beta	89.993415
_cell_angle_gamma	89.054758
loop_
_atom_site_label
_atom_site_type_symbol
_atom_site_fract_x
_atom_site_fract_y
_atom_site_fract_z
O1	O	1.013708	0.131037	-0.066277
O2	O	1.513708	0.631037	0.433723
O3	O	0.794582	0.148096	-0.066281
O4	O	1.294582	0.648096	0.433719
O5	O	0.899286	-0.011324	-0.066274
O6	O	1.399286	0.488676	0.433726
O7	O	0.909004	0.290457	-0.066284
O8	O	1.409004	0.790457	0.433716
O9	O	0.899270	-0.011333	0.066302
O10	O	1.399270	0.488667	0.566302
O11	O	0.794566	0.148086	0.066295
O12	O	1.294566	0.648086	0.566295
O13	O	1.013692	0.131028	0.066299
O14	O	1.513692	0.631028	0.566299
Zn15	Zn	0.904126	0.139555	0.087347
Zn16	Zn	1.404126	0.639555	0.587347
Zn17	Zn	0.904148	0.139568	-0.087328
Zn18	Zn	1.404148	0.639568	0.412672
O19	O	0.908988	0.290447	0.066293
O20	O	1.408988	0.790447	0.566293
C21	C	0.766332	0.147481	0.000007
C22	C	1.266332	0.647481	0.500007
C23	C	0.682179	0.145650	0.000005
C24	C	1.182179	0.645650	0.500005
C25	C	0.642640	0.144782	0.072274
C26	C	1.142640	0.644782	0.572274
C27	C	0.563570	0.143046	0.072275
C28	C	1.063570	0.643046	0.572275
C29	C	0.524040	0.142185	0.000006
C30	C	1.024040	0.642185	0.500006
C31	C	0.563586	0.143049	-0.072268
C32	C	1.063586	0.643049	0.427732
C33	C	0.642654	0.144779	-0.072268
C34	C	1.142654	0.644779	0.427732
C35	C	0.244710	0.136075	-0.072269
C36	C	0.744710	0.636075	0.427731
C37	C	0.165635	0.134349	-0.072263
C38	C	0.665635	0.634349	0.427737
C39	C	0.165625	0.134342	0.072273
C40	C	0.665625	0.634342	0.572273
C41	C	0.244694	0.136071	0.072273
C42	C	0.744694	0.636071	0.572273
C43	C	0.284232	0.136930	-0.000000
C44	C	0.784232	0.636930	0.500000
C45	C	0.369969	0.138811	-0.000000
C46	C	0.869969	0.638811	0.500000
C47	C	0.438305	0.140311	0.000006
C48	C	0.938305	0.640311	0.500006
C49	C	0.895995	-0.049941	0.000013
C50	C	1.395995	0.450059	0.500013
C51	C	0.886204	-0.164993	0.000012
C52	C	1.386204	0.335007	0.500012
C53	C	1.003909	-0.406251	-0.000003
C54	C	1.503909	0.093749	0.499997
C55	C	0.994713	-0.514354	-0.000004
C56	C	1.494713	-0.014354	0.499996
C57	C	0.858617	-0.489302	0.000002
C58	C	1.358617	0.010698	0.500002
C59	C	0.867813	-0.381200	0.000003
C60	C	1.367813	0.118800	0.500003
C61	C	0.940461	-0.339679	0.000002
C62	C	1.440461	0.160321	0.500002
C63	C	0.949656	-0.231574	0.000010
C64	C	1.449656	0.268426	0.500010
C65	C	0.813562	-0.206525	0.000010
C66	C	1.313562	0.293475	0.500010
C67	C	0.804366	-0.314627	0.000008
C68	C	1.304366	0.185373	0.500008
C69	C	1.041942	0.131643	0.000010
C70	C	1.541942	0.631643	0.500010
C71	C	1.126095	0.133473	0.000006
C72	C	1.626095	0.633473	0.500006
C73	C	0.912279	0.329064	0.000003
C74	C	1.412279	0.829064	0.500003
C75	C	0.922070	0.444117	-0.000001
C76	C	1.422070	0.944117	0.499999
N77	N	0.904117	0.139546	0.206558
N78	N	1.404117	0.639546	0.706558
N79	N	0.904162	0.139569	-0.206540
N80	N	1.404162	0.639569	0.293460
C81	C	0.950498	0.068984	0.248278
C82	C	1.450498	0.568984	0.748278
C83	C	0.950502	0.068983	0.331730
C84	C	1.450502	0.568983	0.831730
C85	C	0.904129	0.139550	0.373461
C86	C	1.404129	0.639550	0.873461
C87	C	0.857743	0.210115	0.331735
C88	C	1.357743	0.710115	0.831735
C89	C	0.857736	0.210111	0.248284
C90	C	1.357736	0.710111	0.748284
C91	C	0.857772	0.210136	0.668282
C92	C	1.357772	0.710136	1.168282
C93	C	0.857785	0.210137	0.751739
C94	C	1.357785	0.710137	1.251739
C95	C	0.950539	0.069008	0.751728
C96	C	1.450539	0.569008	1.251728
C97	C	0.950531	0.069003	0.668277
C98	C	1.450531	0.569003	1.168277
C99	C	0.904142	0.139565	0.626559
C100	C	1.404142	0.639565	1.126559
C101	C	0.904137	0.139563	0.536071
C102	C	1.404137	0.639563	1.036071
C103	C	0.904137	0.139557	0.463948
C104	C	1.404137	0.639557	0.963948
H105	H	0.276875	0.136778	0.131122
H106	H	0.776875	0.636778	0.631122
N107	N	1.028008	-0.186785	0.000013
N108	N	1.528008	0.313215	0.500013
H109	H	1.066805	-0.245367	0.000008
H110	H	1.566805	0.254633	0.500008
H111	H	1.034791	-0.142469	-0.049133
H112	H	1.534791	0.357531	0.450867
H113	H	0.133453	0.133646	-0.131116
H114	H	0.633453	0.633646	0.368884
N115	N	0.685307	0.145722	-0.150212
N116	N	1.185307	0.645722	0.349788
H117	H	0.719618	0.082214	-0.153429
H118	H	1.219618	0.582214	0.346571
H119	H	0.648222	0.144954	-0.195950
H120	H	1.148222	0.644954	0.304050
H121	H	0.988308	0.011550	0.785704
H122	H	1.488308	0.511550	1.285704
N123	N	0.685266	0.145712	0.150225
N124	N	1.185266	0.645712	0.650225
H125	H	0.719579	0.082207	0.153450
H126	H	1.219579	0.582207	0.653450
H127	H	0.716518	0.210695	0.153400
H128	H	1.216518	0.710695	0.653400
H129	H	0.819981	0.267569	0.365717
H130	H	1.319981	0.767569	0.865717
N131	N	0.807707	0.286211	0.203282
N132	N	1.307707	0.786211	0.703282
H133	H	0.778330	0.330917	0.242379
H134	H	1.278330	0.830917	0.742379
H135	H	0.839973	0.331980	0.168643
H136	H	1.339973	0.831980	0.668643
N137	N	0.780269	-0.534101	-0.000004
N138	N	1.280269	-0.034101	0.499996
H139	H	0.752112	-0.509827	0.049143
H140	H	1.252112	-0.009827	0.549143
H141	H	0.752189	-0.509789	-0.049182
H142	H	1.252189	-0.009789	0.450818
N143	N	0.745123	-0.134722	0.000019
N144	N	1.245123	0.365278	0.500019
H145	H	0.761969	-0.059938	0.000022
H146	H	1.261969	0.440062	0.500022
H147	H	0.713803	-0.148137	-0.049127
H148	H	1.213803	0.351863	0.450873
H149	H	0.531381	0.142322	0.131123
H150	H	1.031381	0.642322	0.631123
H151	H	0.531395	0.142341	-0.131110
H152	H	1.031395	0.642341	0.368890
H153	H	0.133424	0.133638	0.131122
H154	H	0.633424	0.633638	0.631122
H155	H	0.276893	0.136771	-0.131118
H156	H	0.776893	0.636771	0.368882
N157	N	1.082259	-0.361458	0.000009
N158	N	1.582259	0.138542	0.500009
H159	H	1.121059	-0.420037	0.000010
H160	H	1.621059	0.079963	0.500010
H161	H	1.089047	-0.317143	-0.049137
H162	H	1.589047	0.182857	0.450863
N163	N	1.063144	-0.586159	-0.000011
N164	N	1.563144	-0.086159	0.499989
H165	H	1.110559	-0.543448	-0.000011
H166	H	1.610559	-0.043448	0.499989
H167	H	1.062290	-0.631564	0.049137
H168	H	1.562290	-0.131564	0.549137
N169	N	0.726014	-0.359414	0.000007
N170	N	1.226014	0.140586	0.500007
H171	H	0.729814	-0.437998	0.000004
H172	H	1.229814	0.062002	0.500004
H173	H	0.697906	-0.335057	0.049158
H174	H	1.197906	0.164943	0.549158
H175	H	0.988264	0.011524	0.214306
H176	H	1.488264	0.511524	0.714306
H177	H	0.988268	0.011525	0.365698
H178	H	1.488268	0.511525	0.865698
N179	N	1.000551	-0.007103	0.623268
N180	N	1.500551	0.492897	1.123268
H181	H	1.029933	-0.051807	0.662361
H182	H	1.529933	0.448193	1.162361
H183	H	0.968273	-0.052873	0.588656
H184	H	1.468273	0.447127	1.088656
H185	H	0.820019	0.267604	0.785714
H186	H	1.320019	0.767604	1.285714
H187	H	0.820002	0.267591	0.634321
H188	H	1.320002	0.767591	1.134321
