data_functionalizedCrystal
_audit_creation_method	'MofGen! by Chris Wilmer'
_symmetry_space_group_name_H-M	'P1'
_symmetry_Int_Tables_number	1
_symmetry_cell_setting	triclinic
loop_
_symmetry_equiv_pos_as_xyz
  x,y,z
_cell_length_a	13.033293
_cell_length_b	12.759394
_cell_length_c	13.032268
_cell_angle_alpha	97.149444
_cell_angle_beta	89.079182
_cell_angle_gamma	97.184672
loop_
_atom_site_label
_atom_site_type_symbol
_atom_site_fract_x
_atom_site_fract_y
_atom_site_fract_z
Zn1	Zn	1.498477	-0.326863	-0.781488
Zn2	Zn	1.520227	-0.477844	-0.609518
Zn3	Zn	1.348337	-0.321315	-0.587664
Zn4	Zn	1.326480	-0.521641	-0.759559
O5	O	1.423380	-0.411916	-0.684557
O6	O	1.645280	-0.330884	-0.777000
O7	O	1.515675	-0.436429	-0.462710
O8	O	1.368299	-0.175028	-0.613407
O9	O	1.661260	-0.441809	-0.650654
O10	O	1.478606	-0.179104	-0.755809
O11	O	1.389389	-0.321428	-0.446654
O12	O	1.201520	-0.363896	-0.592142
O13	O	1.331046	-0.516454	-0.906376
O14	O	1.185461	-0.511074	-0.718433
O15	O	1.457412	-0.373352	-0.922488
O16	O	1.494481	-0.630676	-0.629389
O17	O	1.352136	-0.662854	-0.739624
C18	C	1.156174	-0.441637	-0.650537
C19	C	1.041859	-0.454380	-0.636007
C20	C	0.982975	-0.405291	-0.692140
C21	C	0.864824	-0.418461	-0.677124
C22	C	1.423322	-0.684887	-0.684524
C23	C	1.423386	-0.801659	-0.684557
C24	C	1.571697	-0.768103	-0.569881
C25	C	1.645877	-0.806184	-0.512558
C26	C	1.645934	-0.915903	-0.512594
C27	C	1.571804	-0.987545	-0.569961
C28	C	1.497624	-0.949463	-0.627283
C29	C	1.497573	-0.839740	-0.627239
C30	C	1.349320	-0.983020	-0.741963
C31	C	1.349257	-0.873301	-0.741923
C32	C	1.275190	-1.054662	-0.799330
C33	C	1.201003	-1.016581	-0.856648
C34	C	1.200949	-0.906854	-0.856609
C35	C	1.275076	-0.835220	-0.799246
C36	C	1.691630	-0.382080	-0.718711
C37	C	1.805942	-0.369365	-0.733265
C38	C	1.389364	-0.450407	-0.952789
C39	C	1.374869	-0.466810	-1.067094
C40	C	1.423464	-0.137879	-0.684616
C41	C	1.423500	-0.021101	-0.684641
C42	C	1.430930	-0.403319	-1.126026
C43	C	1.415949	-0.420271	-1.244166
C44	C	1.457323	-0.373491	-0.417376
C45	C	1.472018	-0.356771	-0.303097
H46	H	0.842994	-0.317579	-0.792438
C47	C	0.992259	-0.523420	-0.557193
C48	C	0.884928	-0.522787	-0.557994
C49	C	0.839205	-0.586388	-0.485413
H50	H	1.018441	-0.496160	-0.490278
H51	H	1.007855	-0.594266	-0.574344
H52	H	0.869341	-0.451955	-0.540837
H53	H	0.858717	-0.550056	-0.624892
H54	H	0.854800	-0.657234	-0.502564
H55	H	0.865395	-0.559121	-0.418503
H56	H	0.766376	-0.585974	-0.485954
C57	C	1.726525	-0.957045	-0.450252
C58	C	1.791419	-0.870828	-0.399987
C59	C	1.865661	-0.908686	-0.342539
H60	H	1.766437	-1.000437	-0.495238
H61	H	1.692948	-0.997808	-0.400375
H62	H	1.824993	-0.830082	-0.449858
H63	H	1.751536	-0.827427	-0.354984
H64	H	1.832085	-0.949449	-0.292662
H65	H	1.905566	-0.952078	-0.387532
H66	H	1.909695	-0.850194	-0.308420
C67	C	1.572009	-1.106629	-0.569835
C68	C	1.652828	-1.124645	-0.507343
C69	C	1.653039	-1.234333	-0.507193
H70	H	1.581384	-1.139069	-0.638423
H71	H	1.507954	-1.136373	-0.543514
H72	H	1.716868	-1.094915	-0.533668
H73	H	1.643471	-1.092231	-0.438746
H74	H	1.588984	-1.264076	-0.480873
H75	H	1.662412	-1.266763	-0.575785
H76	H	1.707867	-1.246571	-0.464786
C77	C	1.509570	-0.314045	-1.076537
C78	C	1.459130	-0.244410	-1.007444
C79	C	1.531544	-0.162166	-0.961828
H80	H	1.542842	-0.276289	-1.128713
H81	H	1.559632	-0.343252	-1.040266
H82	H	1.409087	-0.215204	-1.043714
H83	H	1.425863	-0.282134	-0.955249
H84	H	1.581606	-0.191373	-0.925557
H85	H	1.564812	-0.124419	-1.014011
H86	H	1.497332	-0.114915	-0.914937
C87	C	1.120449	-0.865662	-0.919025
C88	C	1.129871	-0.904425	-1.023637
C89	C	1.055724	-0.866517	-1.081165
H90	H	1.130946	-0.790069	-0.910920
H91	H	1.053257	-0.889267	-0.895199
H92	H	1.197048	-0.880815	-1.047455
H93	H	1.119363	-0.980015	-1.031774
H94	H	0.988531	-0.890121	-1.057340
H95	H	1.066228	-0.790924	-1.073052
H96	H	1.062100	-0.892820	-1.152149
H97	H	1.531103	-0.289853	-1.266094
H98	H	0.827771	-0.470239	-0.617945
H99	H	1.571646	-0.678762	-0.569831
H100	H	1.706235	-0.747844	-0.465853
H101	H	1.275245	-1.144000	-0.799360
C102	C	1.274815	-0.716132	-0.799292
C103	C	1.193973	-0.698109	-0.861750
C104	C	1.193696	-0.588418	-0.861805
H105	H	1.338832	-0.686304	-0.825588
H106	H	1.265428	-0.683779	-0.730659
H107	H	1.203367	-0.730449	-0.930369
H108	H	1.129943	-0.727913	-0.835469
H109	H	1.184309	-0.556065	-0.793172
H110	H	1.257717	-0.558599	-0.888099
H111	H	1.138840	-0.576175	-0.904174
C112	C	1.337250	-0.509470	-1.293697
C113	C	1.338065	-0.508576	-1.401030
C114	C	1.265595	-0.590739	-1.446694
H115	H	1.270304	-0.499375	-1.267469
H116	H	1.354499	-0.575915	-1.278104
H117	H	1.320810	-0.442147	-1.416615
H118	H	1.404993	-0.518684	-1.427287
H119	H	1.282844	-0.657184	-1.431101
H120	H	1.198655	-0.580637	-1.420458
H121	H	1.266145	-0.590149	-1.519524
C122	C	1.120582	-1.094529	-0.918820
C123	C	1.136500	-1.198766	-0.906570
C124	C	1.062426	-1.270604	-0.963815
H125	H	1.126736	-1.084887	-0.989864
H126	H	1.053376	-1.082204	-0.894901
H127	H	1.203689	-1.211086	-0.930494
H128	H	1.130337	-1.208442	-0.835539
H129	H	0.995219	-1.258279	-0.939896
H130	H	1.068586	-1.260952	-1.034856
H131	H	1.073210	-1.341336	-0.955504
C132	C	1.296157	-0.556174	-1.116303
C133	C	1.321788	-0.653919	-1.093054
C134	C	1.249293	-0.736266	-1.138352
H135	H	1.296491	-0.555864	-1.189157
H136	H	1.229257	-0.546046	-1.089928
H137	H	1.388671	-0.664045	-1.119433
H138	H	1.321447	-0.654264	-1.020209
H139	H	1.182393	-0.726138	-1.111977
H140	H	1.249632	-0.735946	-1.211203
H141	H	1.266668	-0.802594	-1.122576
H142	H	1.020033	-0.353510	-0.751310
