data_functionalizedCrystal
_audit_creation_method	'MofGen! by Chris Wilmer'
_symmetry_space_group_name_H-M	'P1'
_symmetry_Int_Tables_number	1
_symmetry_cell_setting	triclinic
loop_
_symmetry_equiv_pos_as_xyz
  x,y,z
_cell_length_a	16.959455
_cell_length_b	16.959454
_cell_length_c	16.959447
_cell_angle_alpha	89.973182
_cell_angle_beta	89.983056
_cell_angle_gamma	90.017022
loop_
_atom_site_label
_atom_site_type_symbol
_atom_site_fract_x
_atom_site_fract_y
_atom_site_fract_z
Zn1	Zn	1.208404	-0.314730	-0.446928
Zn2	Zn	1.208321	-0.446922	-0.314758
Zn3	Zn	1.076227	-0.314755	-0.314766
Zn4	Zn	1.076197	-0.446863	-0.446897
O5	O	1.142287	-0.380817	-0.380837
O6	O	1.319004	-0.332280	-0.429406
O7	O	1.190775	-0.429425	-0.204148
O8	O	1.093807	-0.204140	-0.332314
O9	O	1.318943	-0.429401	-0.332301
O10	O	1.190918	-0.204122	-0.429413
O11	O	1.093726	-0.332322	-0.204154
O12	O	0.965612	-0.332265	-0.332283
O13	O	1.093758	-0.429300	-0.557512
O14	O	0.965590	-0.429324	-0.429359
O15	O	1.190889	-0.332222	-0.557535
O16	O	1.190747	-0.557525	-0.332270
O17	O	1.093677	-0.557482	-0.429352
C18	C	0.936921	-0.380791	-0.380819
C19	C	0.849064	-0.380799	-0.380830
C20	C	0.477576	-0.330237	-0.330395
C21	C	0.477602	-0.431463	-0.431324
C22	C	0.560148	-0.431451	-0.431320
C23	C	0.601411	-0.380833	-0.380851
C24	C	0.560129	-0.330226	-0.330387
C25	C	0.601436	-0.482063	-0.481777
C26	C	0.683987	-0.482055	-0.481773
C27	C	0.725252	-0.431432	-0.431308
C28	C	0.683965	-0.380822	-0.380843
C29	C	0.725228	-0.330203	-0.330374
C30	C	0.683943	-0.279589	-0.279913
C31	C	0.601394	-0.279603	-0.279922
C32	C	0.807801	-0.431418	-0.431299
C33	C	0.807782	-0.330192	-0.330366
C34	C	1.142221	-0.586184	-0.380824
C35	C	1.142265	-0.674040	-0.380844
C36	C	1.091816	-1.045523	-0.431382
C37	C	1.192979	-1.045509	-0.330373
C38	C	1.192951	-0.962963	-0.330365
C39	C	1.142354	-0.921693	-0.380867
C40	C	1.091785	-0.962970	-0.431375
C41	C	1.243514	-0.921680	-0.279852
C42	C	1.243487	-0.839129	-0.279842
C43	C	1.192894	-0.797858	-0.330348
C44	C	1.142323	-0.839140	-0.380859
C45	C	1.091727	-0.797870	-0.431360
C46	C	1.041160	-0.839150	-0.481876
C47	C	1.041192	-0.921699	-0.481881
C48	C	1.192862	-0.715310	-0.330343
C49	C	1.091696	-0.715317	-0.431353
C50	C	1.348455	-0.380844	-0.380856
C51	C	1.436312	-0.380856	-0.380864
C52	C	1.142330	-0.380752	-0.587006
C53	C	1.142348	-0.380724	-0.674862
C54	C	1.142375	-0.174649	-0.380868
C55	C	1.142413	-0.086793	-0.380881
C56	C	1.091888	-0.330083	-1.046347
C57	C	1.192946	-0.431198	-1.046329
C58	C	1.192932	-0.431216	-0.963783
C59	C	1.142395	-0.380668	-0.922515
C60	C	1.091871	-0.330102	-0.963794
C61	C	1.243449	-0.481787	-0.922498
C62	C	1.243437	-0.481808	-0.839947
C63	C	1.192903	-0.431256	-0.798678
C64	C	1.142378	-0.380687	-0.839962
C65	C	1.091841	-0.330139	-0.798694
C66	C	1.041319	-0.279565	-0.839976
C67	C	1.041337	-0.279549	-0.922525
C68	C	1.192885	-0.431272	-0.716130
C69	C	1.091824	-0.330157	-0.716141
C70	C	1.142291	-0.380826	-0.175471
C71	C	1.142426	-0.380631	-0.087615
H72	H	0.567834	-0.523280	-0.522860
C73	C	0.985769	-0.223927	-0.967935
H74	H	0.993012	-0.231163	-1.023008
H75	H	0.997356	-0.170823	-0.954424
H76	H	0.932649	-0.235495	-0.954400
C77	C	0.985732	-0.223966	-0.794577
H78	H	0.992963	-0.231222	-0.739502
H79	H	0.932620	-0.235518	-0.808097
H80	H	0.997333	-0.170852	-0.808112
C81	C	0.853216	-0.487085	-0.486796
H82	H	0.908288	-0.479832	-0.479562
H83	H	0.839708	-0.475592	-0.539926
H84	H	0.839675	-0.540184	-0.475128
C85	C	1.248629	-1.090899	-0.274822
H86	H	1.278737	-1.054492	-0.244737
H87	H	1.283060	-1.123066	-0.305090
H88	H	1.218417	-1.123136	-0.240353
C89	C	1.248475	-0.669902	-0.274784
H90	H	1.241209	-0.614828	-0.282009
H91	H	1.301583	-0.683389	-0.286395
H92	H	1.236934	-0.683466	-0.221664
H93	H	0.717595	-0.523267	-0.522863
C94	C	1.036316	-0.274459	-1.091752
H95	H	1.043559	-0.281687	-1.146826
H96	H	1.047902	-0.221356	-1.078234
H97	H	0.983198	-0.286031	-1.078216
C98	C	1.299162	-0.967072	-0.224302
H99	H	1.329267	-0.930667	-0.194211
H100	H	1.333597	-0.999234	-0.254571
H101	H	1.268950	-0.999314	-0.189839
C102	C	1.036234	-0.274554	-0.670749
H103	H	1.043460	-0.281804	-0.615673
H104	H	0.983123	-0.286107	-0.684272
H105	H	1.047837	-0.221441	-0.684290
C106	C	1.036196	-1.090922	-0.486948
H107	H	1.006064	-1.054518	-0.517026
H108	H	1.001786	-1.123169	-0.456689
H109	H	1.066432	-1.123079	-0.521423
H110	H	1.284662	-0.805524	-0.238711
H111	H	0.717550	-0.238379	-0.238818
C112	C	1.248532	-0.486795	-1.091721
H113	H	1.241309	-0.479539	-1.146796
H114	H	1.236943	-0.539906	-1.078177
H115	H	1.301646	-0.475229	-1.078202
C116	C	0.985570	-0.967104	-0.537440
H117	H	0.955437	-0.930705	-0.567522
H118	H	0.951161	-0.999345	-0.507174
H119	H	1.015804	-0.999267	-0.571911
H120	H	1.284585	-0.522949	-0.956104
H121	H	1.234024	-0.472442	-0.682522
C122	C	0.853166	-0.274510	-0.274851
H123	H	0.816753	-0.244374	-0.244799
H124	H	0.885389	-0.240105	-0.305142
H125	H	0.885346	-0.304703	-0.240350
C126	C	0.555983	-0.223936	-0.224416
H127	H	0.592378	-0.193782	-0.194362
H128	H	0.523763	-0.254137	-0.189928
H129	H	0.523797	-0.189537	-0.254719
C130	C	0.432166	-0.274568	-0.274889
H131	H	0.377093	-0.281824	-0.282117
H132	H	0.445711	-0.221473	-0.286544
H133	H	0.445672	-0.286077	-0.221757
C134	C	0.432215	-0.487138	-0.486835
H135	H	0.377139	-0.479893	-0.479615
H136	H	0.445731	-0.540231	-0.475181
H137	H	0.445763	-0.475625	-0.539965
H138	H	1.050497	-0.681720	-0.472480
C139	C	0.985507	-0.793748	-0.537424
H140	H	0.992737	-0.738674	-0.530183
H141	H	0.932409	-0.807318	-0.525816
H142	H	0.997056	-0.807233	-0.590548
H143	H	1.284574	-0.522989	-0.806343
