data_functionalizedCrystal
_audit_creation_method	'MofGen! by Chris Wilmer'
_symmetry_space_group_name_H-M	'P1'
_symmetry_Int_Tables_number	1
_symmetry_cell_setting	triclinic
loop_
_symmetry_equiv_pos_as_xyz
  x,y,z
_cell_length_a	18.050590
_cell_length_b	18.050589
_cell_length_c	18.050582
_cell_angle_alpha	90.018205
_cell_angle_beta	89.999233
_cell_angle_gamma	90.017386
loop_
_atom_site_label
_atom_site_type_symbol
_atom_site_fract_x
_atom_site_fract_y
_atom_site_fract_z
Zn1	Zn	1.135292	-0.295921	0.419624
Zn2	Zn	1.385292	-0.045921	0.669624
Zn3	Zn	1.635292	0.204079	0.919624
Zn4	Zn	1.885292	0.454079	1.169624
Zn5	Zn	1.135203	-0.420105	0.295444
Zn6	Zn	1.385203	-0.170105	0.545444
Zn7	Zn	1.635203	0.079895	0.795444
Zn8	Zn	1.885203	0.329895	1.045444
Zn9	Zn	1.011112	-0.295910	0.295482
Zn10	Zn	1.261112	-0.045910	0.545482
Zn11	Zn	1.511112	0.204090	0.795482
Zn12	Zn	1.761112	0.454090	1.045482
Zn13	Zn	1.011060	-0.420051	0.419626
Zn14	Zn	1.261060	-0.170051	0.669626
Zn15	Zn	1.511060	0.079949	0.919626
Zn16	Zn	1.761060	0.329949	1.169626
O17	O	1.073167	-0.357997	0.357544
O18	O	1.323167	-0.107997	0.607544
O19	O	1.573167	0.142003	0.857544
O20	O	1.823167	0.392003	1.107544
O21	O	1.239205	-0.312422	0.403134
O22	O	1.489205	-0.062422	0.653134
O23	O	1.739205	0.187578	0.903134
O24	O	1.989205	0.437578	1.153134
O25	O	1.118727	-0.403648	0.191524
O26	O	1.368727	-0.153648	0.441524
O27	O	1.618727	0.096352	0.691524
O28	O	1.868727	0.346352	0.941524
O29	O	1.027644	-0.191987	0.311965
O30	O	1.277644	0.058013	0.561965
O31	O	1.527644	0.308013	0.811965
O32	O	1.777644	0.558013	1.061965
O33	O	1.239140	-0.403659	0.311899
O34	O	1.489140	-0.153659	0.561899
O35	O	1.739140	0.096341	0.811899
O36	O	1.989140	0.346341	1.061899
O37	O	1.118879	-0.191995	0.403172
O38	O	1.368879	0.058005	0.653172
O39	O	1.618879	0.308005	0.903172
O40	O	1.868879	0.558005	1.153172
O41	O	1.027557	-0.312402	0.191553
O42	O	1.277557	-0.062402	0.441553
O43	O	1.527557	0.187598	0.691553
O44	O	1.777557	0.437598	0.941553
O45	O	0.907180	-0.312350	0.311967
O46	O	1.157180	-0.062350	0.561967
O47	O	1.407180	0.187650	0.811967
O48	O	1.657180	0.437650	1.061967
O49	O	1.027555	-0.403567	0.523550
O50	O	1.277555	-0.153567	0.773550
O51	O	1.527555	0.096433	1.023550
O52	O	1.777555	0.346433	1.273550
O53	O	0.907142	-0.403555	0.403175
O54	O	1.157142	-0.153555	0.653175
O55	O	1.407142	0.096445	0.903175
O56	O	1.657142	0.346445	1.153175
O57	O	1.118828	-0.312370	0.523549
O58	O	1.368828	-0.062370	0.773549
O59	O	1.618828	0.187630	1.023549
O60	O	1.868828	0.437630	1.273549
O61	O	1.118676	-0.524022	0.311901
O62	O	1.368676	-0.274022	0.561901
O63	O	1.618676	-0.024022	0.811901
O64	O	1.868676	0.225978	1.061901
O65	O	1.027468	-0.523982	0.403138
O66	O	1.277468	-0.273982	0.653138
O67	O	1.527468	-0.023982	0.903138
O68	O	1.777468	0.226018	1.153138
C69	C	0.880215	-0.357946	0.357576
C70	C	1.130215	-0.107946	0.607576
C71	C	1.380215	0.142054	0.857576
C72	C	1.630215	0.392054	1.107576
C73	C	0.797669	-0.357942	0.357607
C74	C	1.047669	-0.107942	0.607607
C75	C	1.297669	0.142058	0.857607
C76	C	1.547669	0.392058	1.107607
C77	C	1.073077	-0.550949	0.357532
C78	C	1.323077	-0.300949	0.607532
C79	C	1.573077	-0.050949	0.857532
C80	C	1.823077	0.199051	1.107532
C81	C	1.073107	-0.633494	0.357551
C82	C	1.323107	-0.383494	0.607551
C83	C	1.573107	-0.133494	0.857551
C84	C	1.823107	0.116506	1.107551
C85	C	1.023557	-0.832950	0.407148
C86	C	1.273557	-0.582950	0.657148
C87	C	1.523557	-0.332950	0.907148
C88	C	1.773557	-0.082950	1.157148
C89	C	1.005459	-0.882381	0.339386
C90	C	1.255459	-0.632381	0.589386
C91	C	1.505459	-0.382381	0.839386
C92	C	1.755459	-0.132381	1.089386
C93	C	1.073180	-0.784625	0.357561
C94	C	1.323180	-0.534625	0.607561
C95	C	1.573180	-0.284625	0.857561
C96	C	1.823180	-0.034625	1.107561
C97	C	1.091314	-0.882276	0.425331
C98	C	1.341314	-0.632276	0.675331
C99	C	1.591314	-0.382276	0.925331
C100	C	1.841314	-0.132276	1.175331
C101	C	1.073249	-0.930610	0.357576
C102	C	1.323249	-0.680610	0.607576
C103	C	1.573249	-0.430610	0.857576
C104	C	1.823249	-0.180610	1.107576
C105	C	1.055046	-0.832968	0.289763
C106	C	1.305046	-0.582968	0.539763
C107	C	1.555046	-0.332968	0.789763
C108	C	1.805046	-0.082968	1.039763
C109	C	1.140933	-0.832859	0.375754
C110	C	1.390933	-0.582859	0.625754
C111	C	1.640933	-0.332859	0.875754
C112	C	1.890933	-0.082859	1.125754
C113	C	1.122861	-0.882267	0.307945
C114	C	1.372861	-0.632267	0.557945
C115	C	1.622861	-0.382267	0.807945
C116	C	1.872861	-0.132267	1.057945
C117	C	1.073138	-0.700527	0.357553
C118	C	1.323138	-0.450527	0.607553
C119	C	1.573138	-0.200527	0.857553
C120	C	1.823138	0.049473	1.107553
C121	C	1.073290	-1.014706	0.357576
C122	C	1.323290	-0.764706	0.607576
C123	C	1.573290	-0.514706	0.857576
C124	C	1.823290	-0.264706	1.107576
C125	C	0.598219	-0.407682	0.407088
C126	C	0.848219	-0.157682	0.657088
C127	C	1.098219	0.092318	0.907088
C128	C	1.348219	0.342318	1.157088
C129	C	0.548826	-0.339967	0.425358
C130	C	0.798826	-0.089967	0.675358
C131	C	1.048826	0.160033	0.925358
C132	C	1.298826	0.410033	1.175358
C133	C	0.646538	-0.357984	0.357571
C134	C	0.896538	-0.107984	0.607571
C135	C	1.146538	0.142016	0.857571
C136	C	1.396538	0.392016	1.107571
C137	C	0.548850	-0.425737	0.339300
C138	C	0.798850	-0.175737	0.589300
C139	C	1.048850	0.074263	0.839300
C140	C	1.298850	0.324263	1.089300
C141	C	0.500553	-0.358030	0.357537
C142	C	0.750553	-0.108030	0.607537
C143	C	1.000553	0.141970	0.857537
C144	C	1.250553	0.391970	1.107537
C145	C	0.598233	-0.290233	0.375876
C146	C	0.848233	-0.040233	0.625876
C147	C	1.098233	0.209767	0.875876
C148	C	1.348233	0.459767	1.125876
C149	C	0.598261	-0.376049	0.289787
C150	C	0.848261	-0.126049	0.539787
C151	C	1.098261	0.123951	0.789787
C152	C	1.348261	0.373951	1.039787
C153	C	0.548890	-0.308287	0.308031
C154	C	0.798890	-0.058287	0.558031
C155	C	1.048890	0.191713	0.808031
C156	C	1.298890	0.441713	1.058031
C157	C	0.730637	-0.357958	0.357592
C158	C	0.980637	-0.107958	0.607592
C159	C	1.230637	0.142042	0.857592
C160	C	1.480637	0.392042	1.107592
C161	C	0.416457	-0.358047	0.357516
C162	C	0.666457	-0.108047	0.607516
C163	C	0.916457	0.141953	0.857516
C164	C	1.166457	0.391953	1.107516
C165	C	1.266872	-0.358048	0.357512
C166	C	1.516872	-0.108048	0.607512
C167	C	1.766872	0.141952	0.857512
C168	C	2.016872	0.391952	1.107512
C169	C	1.349418	-0.358070	0.357499
C170	C	1.599418	-0.108070	0.607499
C171	C	1.849418	0.141930	0.857499
C172	C	2.099418	0.391930	1.107499
C173	C	1.073196	-0.357964	0.551250
C174	C	1.323196	-0.107964	0.801250
C175	C	1.573196	0.142036	1.051250
C176	C	1.823196	0.392036	1.301250
C177	C	1.073208	-0.357950	0.633796
C178	C	1.323208	-0.107950	0.883796
C179	C	1.573208	0.142050	1.133796
C180	C	1.823208	0.392050	1.383796
C181	C	1.073277	-0.164291	0.357573
C182	C	1.323277	0.085709	0.607573
C183	C	1.573277	0.335709	0.857573
C184	C	1.823277	0.585709	1.107573
C185	C	1.073324	-0.081745	0.357585
C186	C	1.323324	0.168255	0.607585
C187	C	1.573324	0.418255	0.857585
C188	C	1.823324	0.668255	1.107585
C189	C	1.073180	-0.357976	0.164592
C190	C	1.323180	-0.107976	0.414592
C191	C	1.573180	0.142024	0.664592
C192	C	1.823180	0.392024	0.914592
C193	C	1.073312	-0.357781	0.082047
C194	C	1.323312	-0.107781	0.332047
C195	C	1.573312	0.142219	0.582047
C196	C	1.823312	0.392219	0.832047
C197	C	1.023612	-0.407475	0.833247
C198	C	1.273612	-0.157475	1.083247
C199	C	1.523612	0.092525	1.333247
C200	C	1.773612	0.342525	1.583247
C201	C	1.091367	-0.425641	0.882621
C202	C	1.341367	-0.175641	1.132621
C203	C	1.591367	0.074359	1.382621
C204	C	1.841367	0.324359	1.632621
C205	C	1.073245	-0.357893	0.784926
C206	C	1.323245	-0.107893	1.034926
C207	C	1.573245	0.142107	1.284926
C208	C	1.823245	0.392107	1.534926
C209	C	1.005527	-0.339706	0.882634
C210	C	1.255527	-0.089706	1.132634
C211	C	1.505527	0.160294	1.382634
C212	C	1.755527	0.410294	1.632634
C213	C	1.073274	-0.357840	0.930911
C214	C	1.323274	-0.107840	1.180911
C215	C	1.573274	0.142160	1.430911
C216	C	1.823274	0.392160	1.680911
C217	C	1.141036	-0.376095	0.833213
C218	C	1.391036	-0.126095	1.083213
C219	C	1.641036	0.123905	1.333213
C220	C	1.891036	0.373905	1.583213
C221	C	1.055150	-0.290128	0.833221
C222	C	1.305150	-0.040128	1.083221
C223	C	1.555150	0.209872	1.333221
C224	C	1.805150	0.459872	1.583221
C225	C	1.122952	-0.308269	0.882573
C226	C	1.372952	-0.058269	1.132573
C227	C	1.622952	0.191731	1.382573
C228	C	1.872952	0.441731	1.632573
C229	C	1.073227	-0.357926	0.700828
C230	C	1.323227	-0.107926	0.950828
C231	C	1.573227	0.142074	1.200828
C232	C	1.823227	0.392074	1.450828
C233	C	1.073300	-0.357807	1.015008
C234	C	1.323300	-0.107807	1.265008
C235	C	1.573300	0.142193	1.515008
C236	C	1.823300	0.392193	1.765008
H237	H	0.981530	-0.811296	0.449023
H238	H	1.231530	-0.561296	0.699023
H239	H	1.481530	-0.311296	0.949023
H240	H	1.731530	-0.061296	1.199023
Cl241	Cl	1.187699	-0.915491	0.243140
Cl242	Cl	1.437699	-0.665491	0.493140
Cl243	Cl	1.687699	-0.415491	0.743140
Cl244	Cl	1.937699	-0.165491	0.993140
Cl245	Cl	1.229497	-0.399919	0.799843
Cl246	Cl	1.479497	-0.149919	1.049843
Cl247	Cl	1.729497	0.100081	1.299843
Cl248	Cl	1.979497	0.350081	1.549843
Cl249	Cl	1.229325	-0.799248	0.399539
Cl250	Cl	1.479325	-0.549248	0.649539
Cl251	Cl	1.729325	-0.299248	0.899539
Cl252	Cl	1.979325	-0.049248	1.149539
H253	H	1.106625	-0.903935	0.482637
H254	H	1.356625	-0.653935	0.732637
H255	H	1.606625	-0.403935	0.982637
H256	H	1.856625	-0.153935	1.232637
H257	H	0.948195	-0.904150	0.324012
H258	H	1.198195	-0.654150	0.574012
H259	H	1.448195	-0.404150	0.824012
H260	H	1.698195	-0.154150	1.074012
Cl261	Cl	0.917091	-0.315989	0.916150
Cl262	Cl	1.167091	-0.065989	1.166150
Cl263	Cl	1.417091	0.184011	1.416150
Cl264	Cl	1.667091	0.434011	1.666150
H265	H	0.527367	-0.266230	0.266142
H266	H	0.777367	-0.016230	0.516142
H267	H	1.027367	0.233770	0.766142
H268	H	1.277367	0.483770	1.016142
Cl269	Cl	0.631787	-0.399634	0.201316
Cl270	Cl	0.881787	-0.149634	0.451316
Cl271	Cl	1.131787	0.100366	0.701316
Cl272	Cl	1.381787	0.350366	0.951316
H273	H	0.527154	-0.483016	0.323863
H274	H	0.777154	-0.233016	0.573863
H275	H	1.027154	0.016984	0.823863
H276	H	1.277154	0.266984	1.073863
Cl277	Cl	0.515299	-0.316398	0.513838
Cl278	Cl	0.765299	-0.066398	0.763838
Cl279	Cl	1.015299	0.183602	1.013838
Cl280	Cl	1.265299	0.433602	1.263838
Cl281	Cl	0.958870	-0.472292	0.799804
Cl282	Cl	1.208870	-0.222292	1.049804
Cl283	Cl	1.458870	0.027708	1.299804
Cl284	Cl	1.708870	0.277708	1.549804
Cl285	Cl	0.631664	-0.472459	0.471809
Cl286	Cl	0.881664	-0.222459	0.721809
Cl287	Cl	1.131664	0.027541	0.971809
Cl288	Cl	1.381664	0.277541	1.221809
H289	H	0.619834	-0.232937	0.391380
H290	H	0.869834	0.017063	0.641380
H291	H	1.119834	0.267063	0.891380
H292	H	1.369834	0.517063	1.141380
Cl293	Cl	1.187846	-0.243498	0.915807
Cl294	Cl	1.437846	0.006502	1.165807
Cl295	Cl	1.687846	0.256502	1.415807
Cl296	Cl	1.937846	0.506502	1.665807
H297	H	1.106690	-0.482926	0.904320
H298	H	1.356690	-0.232926	1.154320
H299	H	1.606690	0.017074	1.404320
H300	H	1.856690	0.267074	1.654320
H301	H	1.039807	-0.232860	0.811505
H302	H	1.289807	0.017140	1.061505
H303	H	1.539807	0.267140	1.311505
H304	H	1.789807	0.517140	1.561505
H305	H	1.039669	-0.811399	0.232441
H306	H	1.289669	-0.561399	0.482441
H307	H	1.539669	-0.311399	0.732441
H308	H	1.789669	-0.061399	0.982441
