data_functionalizedCrystal
_audit_creation_method	'MofGen! by Chris Wilmer'
_symmetry_space_group_name_H-M	'P1'
_symmetry_Int_Tables_number	1
_symmetry_cell_setting	triclinic
loop_
_symmetry_equiv_pos_as_xyz
  x,y,z
_cell_length_a	13.185407
_cell_length_b	12.837943
_cell_length_c	11.295675
_cell_angle_alpha	85.469454
_cell_angle_beta	87.301437
_cell_angle_gamma	106.598788
loop_
_atom_site_label
_atom_site_type_symbol
_atom_site_fract_x
_atom_site_fract_y
_atom_site_fract_z
O1	O	0.281935	-1.289822	-0.098997
O2	O	0.268326	-0.991812	-0.099004
O3	O	0.121687	-1.191875	-0.098995
O4	O	0.428574	-1.089759	-0.099006
O5	O	0.108826	-1.209409	0.099050
O6	O	0.255465	-1.009346	0.099041
O7	O	0.269074	-1.307356	0.099048
Cu8	Cu	0.261095	-1.159952	0.117128
Cu9	Cu	0.276305	-1.139216	-0.117084
O10	O	0.415713	-1.107293	0.099039
C11	C	0.257298	-0.963241	0.000017
C12	C	0.243586	-0.851989	0.000015
C13	C	0.075704	-1.210994	0.000026
C14	C	-0.042152	-1.241828	0.000023
C15	C	0.280102	-1.335926	0.000024
C16	C	0.293814	-1.447178	0.000019
C17	C	-0.361986	-0.947552	0.000005
C18	C	-0.251253	-0.918577	-0.000004
C19	C	-0.198973	-0.999387	0.000003
C20	C	-0.257435	-1.109177	0.000018
C21	C	-0.368178	-1.138154	0.000017
C22	C	-0.205165	-1.189990	0.000016
C23	C	-0.263627	-1.299780	0.000030
C24	C	-0.374359	-1.328751	0.000030
C25	C	-0.426640	-1.247941	0.000023
C26	C	-0.094422	-1.161013	0.000016
C27	C	-0.100614	-1.351615	0.000029
C28	C	-0.211346	-1.380590	0.000037
C29	C	0.461696	-1.088173	0.000015
C30	C	0.579552	-1.057339	0.000011
N31	N	0.250397	-1.174544	0.281860
C32	C	0.408430	-0.565043	0.000026
C33	C	0.395551	-0.460510	0.000024
C34	C	0.204950	-0.538389	0.000018
C35	C	0.217829	-0.642922	0.000020
C36	C	0.319572	-0.656244	0.000022
C37	C	0.332450	-0.760778	0.000015
C38	C	0.141849	-0.838655	0.000018
C39	C	0.128971	-0.734122	0.000016
N40	N	0.286994	-1.124634	-0.281816
C41	C	0.364041	-1.019463	0.531196
C42	C	0.355950	-1.030516	0.655856
C43	C	0.226129	-1.207707	0.655843
C44	C	0.234220	-1.196653	0.531183
C45	C	0.303178	-1.102527	0.468863
C46	C	0.311263	-1.091472	0.344201
C47	C	0.181448	-1.268665	0.344190
C48	C	0.173357	-1.279718	0.468850
H49	H	-0.046833	-1.071621	0.000005
H50	H	-0.258962	-1.469982	0.000049
H51	H	0.131886	-1.336300	0.293425
C52	C	0.017063	-0.719458	0.000008
H53	H	0.022118	-0.644139	-0.000001
H54	H	-0.024478	-0.758707	0.069064
H55	H	-0.015486	-0.746467	-0.069070
C56	C	0.444361	-0.775435	0.000020
H57	H	0.495435	-0.706145	0.000035
H58	H	0.457841	-0.808477	-0.069041
H59	H	0.448855	-0.820711	0.069094
H60	H	-0.421956	-1.418149	0.000031
C61	C	0.520340	-0.579703	0.000018
H62	H	0.571418	-0.510415	0.000022
H63	H	0.533807	-0.612750	-0.069045
H64	H	0.524841	-0.624977	0.069090
H65	H	0.405512	-0.962877	0.706604
C66	C	0.097503	-1.383246	0.537402
H67	H	0.062416	-1.431135	0.482422
H68	H	0.046447	-1.363629	0.586043
H69	H	0.136854	-1.418857	0.586020
C70	C	0.150290	-1.311237	0.724408
H71	H	0.154189	-1.305917	0.807577
H72	H	0.170149	-1.373433	0.703963
H73	H	0.079733	-1.318218	0.703995
H74	H	0.467909	-0.386256	0.000031
H75	H	0.122108	-0.527530	0.000115
H76	H	0.367408	-1.014828	0.293461
C77	C	0.044102	-0.938978	0.000012
H78	H	0.066340	-1.003145	0.000018
H79	H	0.007324	-0.931725	-0.069052
H80	H	-0.001655	-0.943967	0.069082
H81	H	-0.108809	-0.975789	-0.000002
H82	H	-0.404563	-0.881767	-0.000011
C83	C	-0.186948	-0.797820	-0.000026
H84	H	-0.113509	-0.792135	-0.000039
H85	H	-0.208305	-0.769515	0.069031
H86	H	-0.199342	-0.757309	-0.069104
C87	C	-0.548446	-1.279811	0.000033
H88	H	-0.571204	-1.215957	0.000026
H89	H	-0.579124	-1.327677	0.069097
H90	H	-0.570156	-1.315443	-0.069037
C91	C	-0.043118	-1.440512	0.000046
H92	H	0.031204	-1.407533	0.000059
H93	H	-0.058045	-1.478309	-0.069012
H94	H	-0.067026	-1.490527	0.069122
H95	H	0.420181	-0.942817	0.480454
