data_functionalizedCrystal
_audit_creation_method	'MofGen! by Chris Wilmer'
_symmetry_space_group_name_H-M	'P1'
_symmetry_Int_Tables_number	1
_symmetry_cell_setting	triclinic
loop_
_symmetry_equiv_pos_as_xyz
  x,y,z
_cell_length_a	19.377372
_cell_length_b	19.379189
_cell_length_c	12.970454
_cell_angle_alpha	52.484326
_cell_angle_beta	89.999359
_cell_angle_gamma	62.432560
loop_
_atom_site_label
_atom_site_type_symbol
_atom_site_fract_x
_atom_site_fract_y
_atom_site_fract_z
Zr1	Zr	0.316732	1.207663	-0.669866
O2	O	0.190325	1.345815	-0.852645
O3	O	0.382897	1.039830	-0.574238
O4	O	0.343365	1.220784	-0.846429
O5	O	0.229855	1.164861	-0.410788
O6	O	0.432903	1.264899	-0.886569
O7	O	0.229856	1.164861	-0.580454
O8	O	0.503617	0.941203	-0.399668
O9	O	0.159141	1.488556	-0.897688
O10	O	0.444816	1.152777	-0.611249
O11	O	0.377994	1.119856	-0.454673
O12	O	0.331451	1.332907	-0.775143
O13	O	0.264630	1.299985	-0.618568
Zr14	Zr	0.459533	1.278021	-0.463285
Zr15	Zr	0.459534	1.278021	-0.733884
Zr16	Zr	0.316731	1.207664	-0.399268
Zr17	Zr	0.266998	1.435319	-0.741704
Zr18	Zr	0.509268	1.050366	-0.391448
O19	O	0.393369	1.445855	-0.558914
O20	O	0.393371	1.445854	-0.943670
O21	O	0.190323	1.345816	-0.467889
O22	O	0.585941	1.139869	-0.280506
O23	O	0.585943	1.139868	-0.665263
O24	O	0.382895	1.039831	-0.189482
O25	O	0.546411	1.320824	-0.722364
O26	O	0.432900	1.264900	-0.286722
O27	O	0.343363	1.220786	-0.246583
O28	O	0.546410	1.320824	-0.552698
O29	O	0.272650	1.544481	-0.948573
O30	O	0.503616	0.941204	-0.184578
O31	O	0.617125	0.997129	-0.235464
O32	O	0.617126	0.997128	-0.450554
O33	O	0.159140	1.488557	-0.682598
O34	O	0.272649	1.544481	-0.733483
O35	O	0.444814	1.152778	-0.358008
O36	O	0.511636	1.185700	-0.514584
O37	O	0.398272	1.365829	-0.678478
O38	O	0.331450	1.332907	-0.521903
C39	C	0.450343	0.958081	-0.476718
C40	C	0.471457	0.861435	-0.446221
C41	C	0.208511	0.814828	-0.826270
C42	C	0.228391	0.723950	-0.797462
C43	C	0.361376	0.615393	-0.605157
C44	C	0.341505	0.706263	-0.633944
C45	C	0.265071	0.805976	-0.744503
C46	C	0.398066	0.697411	-0.552178
C47	C	0.378198	0.788274	-0.580967
C48	C	0.301769	0.887989	-0.691523
C49	C	0.245204	0.896839	-0.773293
C50	C	0.474501	0.597698	-0.441626
C51	C	0.531062	0.588846	-0.359859
C52	C	0.511192	0.679709	-0.388642
C53	C	0.434763	0.779424	-0.499198
C54	C	0.567758	0.670859	-0.306872
C55	C	0.547890	0.761722	-0.335662
C56	C	0.414896	0.870287	-0.527987
C57	C	0.209509	1.154836	-0.486500
C58	C	0.148886	1.124968	-0.459323
C59	C	-0.346364	1.496852	-0.797694
C60	C	-0.403313	1.468761	-0.772134
C61	C	-0.284960	1.280720	-0.601041
C62	C	-0.227999	1.308795	-0.626582
C63	C	-0.258708	1.416863	-0.724912
C64	C	-0.140344	1.228806	-0.553799
C65	C	-0.083389	1.256879	-0.579345
C66	C	-0.114089	1.364941	-0.677673
C67	C	-0.201753	1.444936	-0.750457
C68	C	-0.109637	1.120738	-0.455477
C69	C	-0.021981	1.040749	-0.382695
C70	C	0.034976	1.068822	-0.408232
C71	C	0.004275	1.176884	-0.506560
C72	C	0.122640	0.988827	-0.335448
C73	C	0.179595	1.016900	-0.360993
C74	C	0.061231	1.204957	-0.532105
C75	C	0.566756	1.330848	-0.646652
C76	C	0.627380	1.360717	-0.673829
C77	C	0.388134	1.242841	-0.905053
C78	C	0.388135	1.242841	-1.019930
C79	C	0.325923	1.527604	-0.656434
C80	C	0.304809	1.624250	-0.686931
C81	C	0.388131	1.242843	-0.228098
C82	C	0.388131	1.242844	-0.113222
C83	C	0.628967	1.046087	-0.556794
C84	C	0.710703	0.979309	-0.553474
C85	C	0.450341	0.958081	-0.138240
C86	C	0.471454	0.861436	0.007133
C87	C	0.628965	1.046087	-0.218316
C88	C	0.710701	0.979311	-0.100120
C89	C	0.147301	1.439597	-0.914835
C90	C	0.065565	1.506374	-1.033031
C91	C	0.147299	1.439598	-0.576358
C92	C	0.065562	1.506375	-0.579678
C93	C	0.325924	1.527603	-0.994911
C94	C	0.304811	1.624249	-1.140285
C95	C	0.714208	0.930765	-0.602384
C96	C	0.791000	0.868031	-0.599292
C97	C	0.864288	0.853836	-0.547279
C98	C	0.860780	0.902389	-0.498369
C99	C	0.783987	0.965128	-0.501472
C100	C	0.516249	0.833236	0.125871
C101	C	0.536081	0.742439	0.262472
C102	C	0.511124	0.679839	0.280332
C103	C	0.466324	0.708047	0.161580
C104	C	0.446486	0.798846	0.024982
C105	C	0.783971	0.965139	-0.126348
C106	C	0.860774	0.902411	-0.015307
C107	C	0.864306	0.853848	0.121962
C108	C	0.791027	0.868025	0.148188
C109	C	0.714225	0.930759	0.037146
C110	C	-0.007708	1.520557	-1.006807
C111	C	-0.084517	1.583313	-1.117857
C112	C	-0.088050	1.631881	-1.255128
C113	C	-0.014770	1.617698	-1.281351
C114	C	0.062036	1.554948	-1.170305
C115	C	0.062055	1.554929	-0.530782
C116	C	-0.014742	1.617689	-0.533912
C117	C	-0.088031	1.631887	-0.585929
C118	C	-0.084521	1.583330	-0.634833
C119	C	-0.007726	1.520578	-0.631712
C120	C	0.329782	1.686822	-1.158098
C121	C	0.309959	1.777625	-1.294683
C122	C	0.265161	1.805857	-1.413453
C123	C	0.240192	1.743273	-1.395634
C124	C	0.260020	1.652468	-1.259051
H125	H	0.146257	0.896016	-0.916265
H126	H	0.793915	0.828477	0.259967
H127	H	0.926849	0.802769	0.212367
H128	H	0.410016	0.821795	-0.071691
F129	F	0.140045	1.539835	-0.475418
F130	F	-0.252287	1.165710	-0.496397
F131	F	0.649104	0.564733	-0.189223
F132	F	-0.170256	1.090863	-0.428302
H133	H	0.781145	1.004646	-0.461634
F134	F	0.532243	0.583203	0.425722
F135	F	0.542822	0.899842	0.106895
H136	H	-0.004881	1.481043	-0.671524
F137	F	0.168188	0.733383	-0.884505
H138	H	0.330295	1.828573	-1.309165
F139	F	-0.169758	1.698675	-0.589241
F140	F	0.163851	1.002966	-0.890954
H141	H	0.654540	0.942323	-0.644757
F142	F	0.636250	0.945827	0.065083
H143	H	0.793841	0.828504	-0.639120
H144	H	-0.144203	1.594900	-0.677185
F145	F	0.377460	1.656795	-1.031711
H146	H	0.446007	0.657065	0.176144
H147	H	0.920433	0.890876	-0.036684
H148	H	0.423609	0.534198	-0.515145
F149	F	0.583764	0.712434	0.388837
F150	F	0.495648	0.500996	-0.410996
F151	F	-0.162496	1.598392	-1.089919
F152	F	-0.234435	1.559954	-0.855098
F153	F	-0.053472	1.394820	-0.704865
F154	F	-0.003966	1.468874	-0.860721
F155	F	0.780230	1.016820	-0.272434
F156	F	-0.169800	1.698661	-1.373302
H157	H	0.121696	1.543402	-1.191672
F158	F	-0.018542	1.669392	-1.427454
H159	H	-0.017583	1.657215	-0.494083
F160	F	0.946013	0.787058	-0.543984
F161	F	0.244063	1.902506	-1.558811
H162	H	0.203715	1.766274	-1.492356
H163	H	0.920461	0.890822	-0.456022
F164	F	0.233430	1.585886	-1.240113
H165	H	0.285596	0.961974	-0.714964
F166	F	0.333543	0.976414	-0.645648
H167	H	0.593946	0.754510	-0.269077
F168	F	0.028549	1.319976	-0.636746
F169	F	-0.379046	1.611871	-0.902335
F170	F	-0.496609	1.553906	-0.849617
F171	F	0.010691	0.925740	-0.278051
F172	F	0.612405	0.482720	-0.242200
H173	H	0.147631	0.900839	-0.255398
H174	H	0.250970	0.951765	-0.301705
