data_functionalizedCrystal
_audit_creation_method	'MofGen! by Chris Wilmer'
_symmetry_space_group_name_H-M	'P1'
_symmetry_Int_Tables_number	1
_symmetry_cell_setting	triclinic
loop_
_symmetry_equiv_pos_as_xyz
  x,y,z
_cell_length_a	21.295418
_cell_length_b	21.295417
_cell_length_c	21.295420
_cell_angle_alpha	90.005898
_cell_angle_beta	90.036164
_cell_angle_gamma	90.045515
loop_
_atom_site_label
_atom_site_type_symbol
_atom_site_fract_x
_atom_site_fract_y
_atom_site_fract_z
Zn1	Zn	0.962312	-0.250507	0.356238
Zn2	Zn	0.962230	-0.355731	0.250965
Zn3	Zn	0.857049	-0.250509	0.250948
Zn4	Zn	0.857006	-0.355771	0.356162
O5	O	0.909649	-0.303130	0.303578
O6	O	1.050391	-0.264447	0.342313
O7	O	0.948261	-0.341758	0.162874
O8	O	0.871065	-0.162419	0.264939
O9	O	1.050330	-0.341756	0.264969
O10	O	0.948401	-0.162418	0.342296
O11	O	0.870985	-0.264452	0.162861
O12	O	0.768954	-0.264490	0.264865
O13	O	0.870992	-0.341823	0.444261
O14	O	0.768923	-0.341825	0.342166
O15	O	0.948359	-0.264486	0.444317
O16	O	0.948219	-0.443826	0.264895
O17	O	0.870912	-0.443855	0.342183
C18	C	0.746098	-0.303163	0.303506
C19	C	0.676130	-0.303192	0.303490
C20	C	0.643263	-0.343514	0.343680
C21	C	0.577520	-0.343498	0.343708
C22	C	0.544647	-0.303168	0.303535
C23	C	0.577522	-0.262838	0.263342
C24	C	0.643263	-0.262850	0.263319
N25	N	0.441378	-0.298226	0.248477
N26	N	0.378927	-0.298218	0.248501
C27	C	0.346572	-0.303127	0.303602
N28	N	0.379029	-0.308057	0.358680
N29	N	0.441486	-0.308068	0.358656
C30	C	0.473362	-0.303150	0.303555
C31	C	0.242420	-0.343435	0.343826
C32	C	0.176677	-0.343415	0.343855
C33	C	0.176679	-0.262758	0.263484
C34	C	0.242422	-0.262774	0.263460
C35	C	0.275288	-0.303116	0.303630
C36	C	0.909569	-0.466681	0.303546
C37	C	0.909592	-0.536649	0.303554
C38	C	0.949838	-0.569458	0.343862
C39	C	0.949861	-0.635200	0.343877
C40	C	0.909643	-0.668132	0.303574
C41	C	0.869390	-0.635315	0.263263
C42	C	0.869364	-0.569574	0.263253
N43	N	0.904891	-0.771371	0.248481
N44	N	0.904919	-0.833823	0.248492
C45	C	0.909717	-0.866206	0.303602
N46	N	0.914498	-0.833780	0.358701
N47	N	0.914473	-0.771322	0.358690
C48	C	0.909666	-0.739417	0.303580
C49	C	0.949989	-0.970301	0.343930
C50	C	0.950007	-1.036044	0.343947
C51	C	0.869539	-1.036158	0.263327
C52	C	0.869518	-0.970415	0.263316
C53	C	0.909747	-0.937491	0.303617
C54	C	1.073840	-0.303097	0.303651
C55	C	1.143808	-0.303083	0.303683
C56	C	0.909680	-0.303158	0.467768
C57	C	0.909693	-0.303171	0.537737
C58	C	0.909747	-0.138939	0.303624
C59	C	0.909789	-0.068971	0.303644
C60	C	0.949972	-0.262908	0.570633
C61	C	0.949963	-0.262897	0.636376
C62	C	0.909680	-0.303161	0.669219
C63	C	0.869393	-0.343427	0.636314
C64	C	0.869399	-0.343432	0.570573
N65	N	0.904811	-0.358257	0.772434
N66	N	0.904809	-0.358250	0.834885
C67	C	0.909658	-0.303148	0.867294
N68	N	0.914522	-0.248051	0.834892
N69	N	0.914528	-0.248058	0.772435
C70	C	0.909669	-0.303160	0.740504
C71	C	0.949929	-0.262871	0.971476
C72	C	0.949915	-0.262859	1.037220
C73	C	0.869349	-0.343394	1.037157
C74	C	0.869360	-0.343400	0.971415
C75	C	0.909653	-0.303139	0.938578
C76	C	0.909622	-0.303120	1.140027
C77	C	0.909632	-0.303122	1.070059
H78	H	0.670023	-0.230013	0.230592
H79	H	0.550755	-0.376333	0.376438
H80	H	0.670019	-0.376362	0.376390
H81	H	0.269182	-0.376280	0.376538
H82	H	0.836596	-0.376218	0.543789
H83	H	0.836564	-0.376190	0.944630
H84	H	0.550752	-0.229999	0.230634
H85	H	0.982593	-0.542652	0.376679
H86	H	0.982782	-0.230123	0.543902
H87	H	0.836590	-0.542861	0.230428
H88	H	0.982735	-0.230084	0.944739
H89	H	0.982715	-0.230069	1.064003
C90	C	0.140523	-0.387780	0.388065
N91	N	0.113292	-0.421199	0.421361
H92	H	0.836544	-0.376171	1.063897
C93	C	0.278576	-0.218422	0.219241
N94	N	0.305808	-0.185013	0.185934
C95	C	0.994279	-0.218607	0.672570
N96	N	1.027659	-0.185249	0.699829
H97	H	0.836593	-0.376208	0.663059
H98	H	0.149914	-0.229917	0.230777
H99	H	0.982628	-0.661918	0.376709
H100	H	0.982743	-0.943492	0.376748
C101	C	0.825175	-0.671541	0.218904
N102	N	0.791879	-0.698826	0.185484
H103	H	0.982780	-1.062756	0.376774
H104	H	0.836790	-1.062970	0.230514
H105	H	0.836749	-0.943701	0.230490
