data_functionalizedCrystal
_audit_creation_method	'MofGen! by Chris Wilmer'
_symmetry_space_group_name_H-M	'P1'
_symmetry_Int_Tables_number	1
_symmetry_cell_setting	triclinic
loop_
_symmetry_equiv_pos_as_xyz
  x,y,z
_cell_length_a	8.597340
_cell_length_b	14.044190
_cell_length_c	7.681481
_cell_angle_alpha	83.728840
_cell_angle_beta	103.474906
_cell_angle_gamma	89.225172
loop_
_atom_site_label
_atom_site_type_symbol
_atom_site_fract_x
_atom_site_fract_y
_atom_site_fract_z
O1	O	2.118487	0.131086	0.174962
O2	O	1.656574	0.146189	0.104875
O3	O	1.880595	0.000651	0.138901
O4	O	1.894467	0.276624	0.140936
O5	O	1.908163	-0.017303	0.435946
O6	O	1.684142	0.128235	0.401920
O7	O	2.146055	0.113132	0.472007
Zn8	Zn	1.919475	0.117833	0.484126
Zn9	Zn	1.883154	0.141488	0.092756
O10	O	1.922034	0.258670	0.437981
C11	C	1.610886	0.136590	0.244374
C12	C	1.433677	0.134726	0.217488
C13	C	1.888308	-0.043641	0.286507
C14	C	1.870199	-0.148867	0.283775
C15	C	1.965524	-0.399152	0.298170
C16	C	1.837111	-0.341520	0.278698
C17	C	1.855526	-0.234318	0.281523
C18	C	1.947112	-0.506364	0.295344
C19	C	2.191743	0.122731	0.332504
C20	C	2.368951	0.124596	0.359378
C21	C	1.914321	0.302962	0.290371
C22	C	1.932428	0.408189	0.293091
N23	N	1.944275	0.101689	0.751227
N24	N	1.858366	0.157625	-0.174343
H25	H	1.353511	0.141974	0.075423
C26	C	2.132724	-0.357054	0.323580
C27	C	2.234621	-0.370506	0.186980
C28	C	2.401820	-0.328395	0.212400
C29	C	2.467121	-0.272834	0.374421
C30	C	2.365222	-0.259380	0.511032
C31	C	2.198023	-0.301490	0.485611
H32	H	2.186283	-0.411638	0.067032
H33	H	2.477252	-0.338355	0.111271
H34	H	2.590892	-0.241661	0.393239
H35	H	2.413560	-0.218248	0.630979
H36	H	2.122591	-0.291530	0.586741
H37	H	2.031991	0.044597	0.839755
H38	H	1.713343	-0.372690	0.259908
C39	C	1.477227	0.114801	0.551295
C40	C	1.460482	0.188745	0.680470
C41	C	1.568770	0.178950	0.872390
C42	C	1.693802	0.095212	0.935134
C43	C	1.710552	0.021263	0.805956
C44	C	1.602264	0.031057	0.614036
H45	H	1.367921	0.250738	0.634025
H46	H	1.556370	0.233693	0.968015
H47	H	1.773963	0.087962	1.077204
H48	H	1.803113	-0.040731	0.852400
H49	H	1.614665	-0.023686	0.518410
C50	C	1.739879	0.234754	0.706085
C51	C	1.721324	0.247309	0.500501
C52	C	1.602836	0.324439	0.380916
C53	C	1.502902	0.389016	0.466916
C54	C	1.521454	0.376463	0.672511
C55	C	1.639943	0.299333	0.792096
H56	H	1.795304	0.199503	0.436829
H57	H	1.589103	0.333731	0.228720
H58	H	1.415190	0.446112	0.378392
H59	H	1.447475	0.424268	0.736183
H60	H	1.653676	0.290041	0.944291
