data_functionalizedCrystal
_audit_creation_method	'MofGen! by Chris Wilmer'
_symmetry_space_group_name_H-M	'P1'
_symmetry_Int_Tables_number	1
_symmetry_cell_setting	triclinic
loop_
_symmetry_equiv_pos_as_xyz
  x,y,z
_cell_length_a	14.908571
_cell_length_b	12.759394
_cell_length_c	14.908308
_cell_angle_alpha	86.731597
_cell_angle_beta	89.824947
_cell_angle_gamma	86.711101
loop_
_atom_site_label
_atom_site_type_symbol
_atom_site_fract_x
_atom_site_fract_y
_atom_site_fract_z
Zn1	Zn	1.345341	-0.548282	0.587592
Zn2	Zn	1.353935	-0.714462	0.437236
Zn3	Zn	1.203654	-0.528102	0.428590
Zn4	Zn	1.194963	-0.713213	0.578887
O5	O	1.274473	-0.626015	0.508076
O6	O	1.472308	-0.579294	0.574908
O7	O	1.341234	-0.681818	0.310264
O8	O	1.222490	-0.383762	0.449706
O9	O	1.478622	-0.701385	0.464442
O10	O	1.326587	-0.398588	0.566525
O11	O	1.230824	-0.544900	0.303912
O12	O	1.076675	-0.543690	0.441266
O13	O	1.207676	-0.699258	0.705867
O14	O	1.070289	-0.679690	0.551688
O15	O	1.318159	-0.578083	0.712262
O16	O	1.332806	-0.861313	0.456001
O17	O	1.216010	-0.860396	0.560072
C18	C	1.040856	-0.609365	0.494595
C19	C	0.940913	-0.602270	0.488849
C20	C	0.746516	-0.730752	0.592880
C21	C	0.652610	-0.724088	0.587484
C22	C	0.659192	-0.582274	0.472666
C23	C	0.753098	-0.588938	0.478062
C24	C	0.796757	-0.663180	0.538170
C25	C	0.890665	-0.669848	0.543561
C26	C	0.897246	-0.528030	0.428748
C27	C	0.803340	-0.521366	0.423352
C28	C	1.274420	-0.898977	0.508051
C29	C	1.274478	-1.015759	0.508075
C30	C	1.396180	-1.016672	0.399798
C31	C	1.457053	-1.071992	0.345671
C32	C	1.457105	-1.181719	0.345698
C33	C	1.396278	-1.236129	0.399860
C34	C	1.335404	-1.180809	0.453987
C35	C	1.335358	-1.071079	0.453952
C36	C	1.213709	-1.179897	0.562269
C37	C	1.213651	-1.070169	0.562238
C38	C	1.152882	-1.234306	0.616431
C39	C	1.092002	-1.178986	0.670555
C40	C	1.091953	-1.069252	0.670524
C41	C	1.152778	-1.014849	0.616365
C42	C	1.509002	-0.642730	0.521611
C43	C	1.608945	-0.649853	0.527378
C44	C	1.260989	-0.640782	0.742602
C45	C	1.255243	-0.647075	0.842543
C46	C	1.274549	-0.351989	0.508122
C47	C	1.274582	-0.235216	0.508142
C48	C	1.287956	-0.611232	0.274466
C49	C	1.293877	-0.604656	0.174536
C50	C	1.359488	-0.532697	1.037003
C51	C	1.354092	-0.538606	1.130907
C52	C	1.239051	-0.664798	1.124254
C53	C	1.244447	-0.658888	1.030351
C54	C	1.304669	-0.592837	0.986729
C55	C	1.310069	-0.586934	0.892824
C56	C	1.195024	-0.713118	0.886173
C57	C	1.189627	-0.719028	0.980077
H58	H	1.396133	-0.927325	0.399758
O59	O	0.603942	-0.789837	0.640666
C60	C	0.662617	-0.856769	0.694891
H61	H	0.731664	-0.862776	0.661902
H62	H	0.668696	-0.823423	0.763808
C63	C	0.540420	-0.959435	0.746111
C64	C	0.625223	-0.966820	0.705588
H65	H	0.517354	-1.027318	0.752713
H66	H	0.500889	-0.914339	0.709581
H67	H	0.545498	-0.931642	0.803537
H68	H	0.620143	-0.994599	0.648159
H69	H	0.664753	-1.011923	0.742109
O70	O	0.946150	-0.462534	0.375559
C71	C	1.003773	-0.522441	0.320501
H72	H	1.016028	-0.605103	0.352909
H73	H	0.971391	-0.527104	0.251773
C74	C	1.078854	-0.368392	0.269615
C75	C	1.093912	-0.469916	0.309423
H76	H	1.134454	-0.335991	0.262778
H77	H	1.040030	-0.328030	0.306706
H78	H	1.051866	-0.372292	0.212346
H79	H	1.120888	-0.466014	0.366695
H80	H	1.132742	-0.510276	0.272342
H81	H	1.398730	-0.489631	1.171837
H82	H	0.782063	-0.791208	0.641817
O83	O	1.180603	-0.729088	1.166547
C84	C	1.201553	-0.833765	1.144756
H85	H	1.240031	-0.834133	1.078567
H86	H	1.244737	-0.875758	1.200271
C87	C	1.066865	-0.890430	1.216664
C88	C	1.114118	-0.890883	1.135366
H89	H	1.012932	-0.925666	1.210876
H90	H	1.052751	-0.819909	1.231348
H91	H	1.102861	-0.925423	1.262919
H92	H	1.078126	-0.855879	1.089116
H93	H	1.128223	-0.961400	1.120674
H94	H	0.623629	-0.521823	0.423735
H95	H	0.767780	-0.460918	0.374416
O96	O	1.516051	-1.018971	0.293082
C97	C	1.502971	-0.910263	0.304676
H98	H	1.431862	-0.892234	0.330066
H99	H	1.553503	-0.885859	0.355663
C100	C	1.603817	-0.870976	0.182985
C101	C	1.516477	-0.848832	0.214161
H102	H	1.612152	-0.833081	0.127153
H103	H	1.612632	-0.944215	0.175175
H104	H	1.645917	-0.850639	0.225482
H105	H	1.474379	-0.869181	0.171670
H106	H	1.507655	-0.775595	0.221962
H107	H	1.506677	-1.226761	0.301628
H108	H	1.396332	-1.325475	0.399886
O109	O	1.131183	-0.783331	1.022360
C110	C	1.152148	-0.887999	1.000554
H111	H	1.190632	-0.888346	0.934367
H112	H	1.195334	-0.929996	1.056066
C113	C	1.017463	-0.944703	1.072443
C114	C	1.064722	-0.945130	0.991147
H115	H	0.963536	-0.979947	1.066645
H116	H	1.003340	-0.874187	1.087138
H117	H	1.053460	-0.979699	1.118695
H118	H	1.028730	-0.910123	0.944899
H119	H	1.078838	-1.015641	0.976445
O120	O	1.153005	-1.340909	0.616611
C121	C	1.171077	-1.384564	0.704146
H122	H	1.208083	-1.326402	0.743587
H123	H	1.105164	-1.401990	0.739387
C124	C	1.184415	-1.558712	0.650441
C125	C	1.229873	-1.487280	0.698881
H126	H	1.220680	-1.622074	0.647194
H127	H	1.172236	-1.529302	0.591467
H128	H	1.129489	-1.573221	0.679814
H129	H	1.284792	-1.472762	0.669501
H130	H	1.242062	-1.516690	0.757850
H131	H	1.042486	-1.223296	0.714653
H132	H	1.042386	-1.024217	0.714605
O133	O	1.368465	-0.522616	0.850483
C134	C	1.347526	-0.417958	0.872331
H135	H	1.274210	-0.409171	0.894000
H136	H	1.392604	-0.397357	0.929625
C137	C	1.452845	-0.354124	0.762916
C138	C	1.362795	-0.343330	0.789523
H139	H	1.462268	-0.308089	0.711838
H140	H	1.466956	-0.424635	0.748198
H141	H	1.490400	-0.336959	0.810668
H142	H	1.325244	-0.360508	0.741775
H143	H	1.348679	-0.272820	0.804230
O144	O	0.933030	-0.741854	0.602075
C145	C	0.904934	-0.723076	0.690402
H146	H	0.878860	-0.637613	0.693574
H147	H	0.849080	-0.777049	0.710696
C148	C	1.016942	-0.850068	0.751295
C149	C	0.984924	-0.745098	0.755191
H150	H	1.066282	-0.863657	0.791261
H151	H	1.035869	-0.862723	0.691787
H152	H	0.970389	-0.895033	0.768204
H153	H	1.031474	-0.700136	0.738272
H154	H	0.966007	-0.732437	0.814698
O155	O	1.418008	-0.468455	0.994764
C156	C	1.465259	-0.416666	1.059276
H157	H	1.424586	-0.414613	1.124091
H158	H	1.532964	-0.460636	1.073196
C159	C	1.530314	-0.305992	0.943782
C160	C	1.480355	-0.303462	1.023386
H161	H	1.539630	-0.236164	0.921643
H162	H	1.498483	-0.340885	0.900318
H163	H	1.586729	-0.342639	0.955392
H164	H	1.423937	-0.266828	1.011773
H165	H	1.512177	-0.268560	1.066848
H166	H	1.152738	-0.925503	0.616329
H167	H	1.150388	-0.762092	0.845230
