data_functionalizedCrystal
_audit_creation_method	'MofGen! by Chris Wilmer'
_symmetry_space_group_name_H-M	'P1'
_symmetry_Int_Tables_number	1
_symmetry_cell_setting	triclinic
loop_
_symmetry_equiv_pos_as_xyz
  x,y,z
_cell_length_a	21.295420
_cell_length_b	21.295417
_cell_length_c	10.686551
_cell_angle_alpha	85.587790
_cell_angle_beta	85.602637
_cell_angle_gamma	90.028757
loop_
_atom_site_label
_atom_site_type_symbol
_atom_site_fract_x
_atom_site_fract_y
_atom_site_fract_z
Zn1	Zn	0.989667	-0.223287	-0.713463
Zn2	Zn	0.981491	-0.336650	-0.502430
Zn3	Zn	0.876313	-0.231394	-0.502469
Zn4	Zn	0.884356	-0.328522	-0.713376
O5	O	0.932957	-0.279964	-0.607934
O6	O	1.076673	-0.238334	-0.685489
O7	O	0.960751	-0.329482	-0.325851
O8	O	0.891406	-0.142227	-0.530510
O9	O	1.070666	-0.321621	-0.530444
O10	O	0.974686	-0.136271	-0.685526
O11	O	0.883478	-0.252151	-0.325880
O12	O	0.789290	-0.244270	-0.530426
O13	O	0.905114	-0.307768	-0.889971
O14	O	0.795199	-0.315630	-0.685379
O15	O	0.982485	-0.230452	-0.890035
O16	O	0.968550	-0.423664	-0.530360
O17	O	0.897186	-0.417692	-0.685341
C18	C	0.769404	-0.279948	-0.607898
C19	C	0.699437	-0.279955	-0.607912
C20	C	0.203070	-0.317198	-0.688540
C21	C	0.268812	-0.317198	-0.688527
C22	C	0.298599	-0.279976	-0.607974
C23	C	0.262638	-0.242763	-0.527406
C24	C	0.196897	-0.242768	-0.527412
N25	N	0.401477	-0.225223	-0.598487
N26	N	0.463928	-0.225220	-0.598488
C27	C	0.496673	-0.279960	-0.607947
N28	N	0.464608	-0.334703	-0.617430
N29	N	0.402151	-0.334705	-0.617435
C30	C	0.369884	-0.279967	-0.607957
C31	C	0.603911	-0.317175	-0.688490
C32	C	0.669654	-0.317177	-0.688468
C33	C	0.663479	-0.242736	-0.527353
C34	C	0.597737	-0.242739	-0.527369
C35	C	0.567957	-0.279958	-0.607944
C36	C	0.932872	-0.443518	-0.607864
C37	C	0.932895	-0.513485	-0.607877
C38	C	0.970093	-0.549437	-0.527261
C39	C	0.970124	-0.615179	-0.527289
C40	C	0.932944	-0.644966	-0.607920
C41	C	0.895743	-0.609006	-0.688552
C42	C	0.895719	-0.543265	-0.688530
N43	N	0.878245	-0.747862	-0.617528
N44	N	0.878270	-0.810313	-0.617541
C45	C	0.933017	-0.843038	-0.607993
N46	N	0.987739	-0.810954	-0.598405
N47	N	0.987713	-0.748498	-0.598386
C48	C	0.932967	-0.716250	-0.607953
C49	C	0.970252	-0.950275	-0.527403
C50	C	0.970284	-1.016017	-0.527440
C51	C	0.895898	-1.009843	-0.688697
C52	C	0.895872	-0.944102	-0.688666
C53	C	0.933048	-0.914322	-0.608012
C54	C	1.097149	-0.279980	-0.607971
C55	C	1.167117	-0.279987	-0.607987
C56	C	0.945609	-0.267299	-0.937069
C57	C	0.951000	-0.261903	-1.077327
C58	C	0.933061	-0.115769	-0.608032
C59	C	0.933105	-0.045800	-0.608074
C60	C	0.920391	-0.292533	-0.280080
C61	C	0.915121	-0.297752	-0.139823
H62	H	0.698925	-0.347483	-0.754060
H63	H	0.687731	-0.212431	-0.461761
C64	C	0.170312	-0.358141	-0.777162
C65	C	0.209865	-0.399076	-0.865767
C66	C	0.177105	-0.440021	-0.954387
C67	C	0.104793	-0.440030	-0.954403
C68	C	0.065236	-0.399094	-0.865795
C69	C	0.097996	-0.358149	-0.777174
H70	H	0.263398	-0.399071	-0.865758
H71	H	0.206388	-0.470325	-1.019981
H72	H	0.080543	-0.470340	-1.020005
H73	H	0.011703	-0.399099	-0.865803
H74	H	0.068713	-0.327845	-0.711581
C75	C	0.308371	-0.358129	-0.777145
C76	C	0.298903	-0.430090	-0.766612
C77	C	0.338461	-0.471020	-0.855230
C78	C	0.387488	-0.439987	-0.954381
C79	C	0.396958	-0.368022	-0.964918
C80	C	0.357400	-0.327093	-0.876300
H81	H	0.262609	-0.453066	-0.693210
H82	H	0.331450	-0.524293	-0.847429
H83	H	0.416771	-0.470286	-1.019982
H84	H	0.433253	-0.345047	-1.038320
H85	H	0.364411	-0.273819	-0.884101
C86	C	0.558185	-0.201805	-0.438760
C87	C	0.590946	-0.160864	-0.350143
C88	C	0.551393	-0.119932	-0.261522
C89	C	0.479080	-0.119940	-0.261517
C90	C	0.446316	-0.160882	-0.350137
C91	C	0.485868	-0.201814	-0.438759
H92	H	0.644480	-0.160857	-0.350143
H93	H	0.575648	-0.089624	-0.195919
H94	H	0.449801	-0.089640	-0.195915
H95	H	0.392782	-0.160890	-0.350137
H96	H	0.461614	-0.232122	-0.504361
H97	H	0.865629	-1.034095	-0.754354
C98	C	0.868049	-0.344795	-1.067157
C99	C	0.815200	-0.320960	-0.976525
C100	C	0.768127	-0.368003	-0.903850
C101	C	0.773902	-0.438883	-0.921807
C102	C	0.826753	-0.462722	-1.012443
C103	C	0.873826	-0.415678	-1.085118
H104	H	0.810923	-0.268487	-0.963228
H105	H	0.729003	-0.350356	-0.836755
H106	H	0.739056	-0.473707	-0.868009
H107	H	0.831030	-0.515194	-1.025739
H108	H	0.912950	-0.433326	-1.152213
C109	C	0.998075	-0.214857	-1.149998
C110	C	0.992300	-0.143978	-1.132038
C111	C	1.039374	-0.096934	-1.204709
C112	C	1.092223	-0.120769	-1.295340
C113	C	1.098001	-0.191651	-1.313304
C114	C	1.050927	-0.238695	-1.240633
H115	H	0.953175	-0.126331	-1.064944
H116	H	1.035096	-0.044462	-1.191411
H117	H	1.127070	-0.085943	-1.349136
H118	H	1.137126	-0.209298	-1.380398
H119	H	1.055205	-0.291168	-1.253932
H120	H	0.286896	-0.212458	-0.461817
H121	H	1.000365	-0.525193	-0.461591
H122	H	1.000579	-1.045288	-0.461795
C123	C	1.011037	-0.654737	-0.438594
C124	C	1.051926	-0.621981	-0.349875
C125	C	1.092837	-0.661537	-0.261176
C126	C	1.092859	-0.733849	-0.261195
C127	C	1.051968	-0.766609	-0.349916
C128	C	1.011058	-0.727053	-0.438616
H129	H	1.051911	-0.568448	-0.349858
H130	H	1.123106	-0.637286	-0.195498
H131	H	1.123143	-0.763131	-0.195534
H132	H	1.051983	-0.820142	-0.349933
H133	H	0.980788	-0.751304	-0.504293
H134	H	0.167625	-0.212465	-0.461816
H135	H	0.865427	-0.513992	-0.754179
H136	H	0.579662	-0.347481	-0.754097
H137	H	1.000525	-0.926027	-0.461734
C138	C	0.854845	-0.641769	-0.777248
C139	C	0.854868	-0.714081	-0.777272
C140	C	0.813971	-0.746842	-0.865977
C141	C	0.773052	-0.707292	-0.954658
C142	C	0.773028	-0.634976	-0.954638
C143	C	0.813924	-0.602214	-0.865933
H144	H	0.885160	-0.743362	-0.711621
H145	H	0.813989	-0.800376	-0.865991
H146	H	0.742778	-0.731544	-1.020323
H147	H	0.742735	-0.605695	-1.020288
H148	H	0.813906	-0.548681	-0.865918
C149	C	0.854947	-0.904552	-0.777339
C150	C	0.782992	-0.914056	-0.766913
C151	C	0.742068	-0.874507	-0.855596
C152	C	0.773098	-0.825453	-0.954705
C153	C	0.845057	-0.815947	-0.965135
C154	C	0.885981	-0.855496	-0.876452
H155	H	0.760018	-0.950370	-0.693543
H156	H	0.688799	-0.881544	-0.847875
H157	H	0.742803	-0.796177	-1.020354
H158	H	0.868031	-0.779633	-1.038505
H159	H	0.939250	-0.848459	-0.884174
