data_functionalizedCrystal
_audit_creation_method	'MofGen! by Chris Wilmer'
_symmetry_space_group_name_H-M	'P1'
_symmetry_Int_Tables_number	1
_symmetry_cell_setting	triclinic
loop_
_symmetry_equiv_pos_as_xyz
  x,y,z
_cell_length_a	16.625545
_cell_length_b	21.295419
_cell_length_c	21.295411
_cell_angle_alpha	90.025287
_cell_angle_beta	89.983621
_cell_angle_gamma	89.957883
loop_
_atom_site_label
_atom_site_type_symbol
_atom_site_fract_x
_atom_site_fract_y
_atom_site_fract_z
Zn1	Zn	-0.320737	-0.962377	-0.355947
Zn2	Zn	0.012596	-0.629044	-0.022613
Zn3	Zn	0.345929	-0.295711	0.310720
Zn4	Zn	-0.455553	-0.962289	-0.250682
Zn5	Zn	-0.122219	-0.628955	0.082652
Zn6	Zn	0.211114	-0.295622	0.415985
Zn7	Zn	-0.320777	-0.857100	-0.250690
Zn8	Zn	0.012557	-0.523767	0.082643
Zn9	Zn	0.345890	-0.190434	0.415976
Zn10	Zn	-0.455571	-0.857079	-0.355912
Zn11	Zn	-0.122237	-0.523746	-0.022579
Zn12	Zn	0.211096	-0.190412	0.310754
O13	O	-0.388159	-0.909711	-0.303308
O14	O	-0.054826	-0.576378	0.030026
O15	O	0.278507	-0.243045	0.363359
O16	O	-0.338597	-1.050455	-0.341994
O17	O	-0.005263	-0.717121	-0.008661
O18	O	0.328070	-0.383788	0.324673
O19	O	-0.437684	-0.948307	-0.162594
O20	O	-0.104350	-0.614974	0.170740
O21	O	0.228983	-0.281641	0.504073
O22	O	-0.207939	-0.871112	-0.264671
O23	O	0.125394	-0.537778	0.068662
O24	O	0.458728	-0.204445	0.401996
O25	O	-0.437645	-1.050390	-0.264656
O26	O	-0.104312	-0.717056	0.068677
O27	O	0.229021	-0.383723	0.402010
O28	O	-0.207910	-0.948458	-0.342002
O29	O	0.125423	-0.615125	-0.008669
O30	O	0.458757	-0.281791	0.324664
O31	O	-0.338664	-0.871026	-0.162600
O32	O	-0.005331	-0.537692	0.170733
O33	O	0.328002	-0.204359	0.504067
O34	O	-0.338681	-0.769008	-0.264637
O35	O	-0.005348	-0.435675	0.068696
O36	O	0.327985	-0.102341	0.402029
O37	O	-0.437675	-0.871075	-0.444006
O38	O	-0.104342	-0.537742	-0.110673
O39	O	0.228991	-0.204408	0.222660
O40	O	-0.437714	-0.768992	-0.341943
O41	O	-0.104380	-0.435659	-0.008610
O42	O	0.228953	-0.102326	0.324723
O43	O	-0.338614	-0.948437	-0.444032
O44	O	-0.005281	-0.615104	-0.110698
O45	O	0.328053	-0.281770	0.222635
O46	O	-0.568388	-0.948286	-0.264623
O47	O	-0.235054	-0.614953	0.068711
O48	O	0.098279	-0.281620	0.402044
O49	O	-0.568401	-0.870989	-0.341935
O50	O	-0.235067	-0.537656	-0.008602
O51	O	0.098266	-0.204322	0.324732
C52	C	-0.388204	-0.746160	-0.303288
C53	C	-0.054871	-0.412826	0.030045
C54	C	0.278462	-0.079493	0.363379
C55	C	-0.388243	-0.676192	-0.303294
C56	C	-0.054910	-0.342858	0.030039
C57	C	0.278423	-0.009525	0.363372
C58	C	-0.336754	-0.643381	-0.343626
C59	C	-0.003421	-0.310048	-0.010293
C60	C	0.329912	0.023285	0.323041
C61	C	-0.336735	-0.577639	-0.343628
C62	C	-0.003402	-0.244305	-0.010294
C63	C	0.329931	0.089028	0.323039
C64	C	-0.388219	-0.544709	-0.303304
C65	C	-0.054886	-0.211376	0.030029
C66	C	0.278447	0.121958	0.363362
C67	C	-0.439712	-0.577527	-0.262965
C68	C	-0.106379	-0.244194	0.070369
C69	C	0.226955	0.089139	0.403702
C70	C	-0.439724	-0.643269	-0.262960
C71	C	-0.106390	-0.309935	0.070373
C72	C	0.226943	0.023398	0.403707
N73	N	-0.458771	-0.441438	-0.298388
N74	N	-0.125438	-0.108105	0.034945
N75	N	0.207896	0.225228	0.368278
N76	N	-0.458758	-0.378987	-0.298397
N77	N	-0.125424	-0.045654	0.034937
N78	N	0.207909	0.287680	0.368270
C79	C	-0.388185	-0.346634	-0.303316
C80	C	-0.054852	-0.013301	0.030018
C81	C	0.278481	0.320032	0.363351
N82	N	-0.317626	-0.379092	-0.308238
N83	N	0.015707	-0.045759	0.025095
N84	N	0.349041	0.287574	0.358428
N85	N	-0.317640	-0.441550	-0.308233
N86	N	0.015693	-0.108216	0.025100
N87	N	0.349026	0.225117	0.358434
C88	C	-0.388212	-0.473424	-0.303305
C89	C	-0.054879	-0.140090	0.030029
C90	C	0.278455	0.193243	0.363362
C91	C	-0.336672	-0.242538	-0.343651
C92	C	-0.003338	0.090795	-0.010318
C93	C	0.329995	0.424128	0.323016
C94	C	-0.336651	-0.176795	-0.343648
C95	C	-0.003318	0.156539	-0.010315
C96	C	0.330016	0.489872	0.323019
C97	C	-0.439635	-0.176685	-0.262989
C98	C	-0.106302	0.156649	0.070345
C99	C	0.227032	0.489982	0.403678
C100	C	-0.439648	-0.242427	-0.262988
C101	C	-0.106315	0.090906	0.070345
C102	C	0.227018	0.424240	0.403678
C103	C	-0.388168	-0.275350	-0.303323
C104	C	-0.054834	0.057983	0.030011
C105	C	0.278499	0.391317	0.363344
C106	C	-0.597650	-0.909643	-0.303288
C107	C	-0.264317	-0.576310	0.030045
C108	C	0.069016	-0.242976	0.363379
C109	C	-0.687271	-0.909671	-0.303301
C110	C	-0.353938	-0.576338	0.030033
C111	C	-0.020605	-0.243005	0.363366
C112	C	-0.760054	-0.909696	-0.303313
C113	C	-0.426720	-0.576362	0.030020
C114	C	-0.093387	-0.243029	0.363354
C115	C	-0.851362	-0.909732	-0.303327
C116	C	-0.518029	-0.576399	0.030006
C117	C	-0.184695	-0.243066	0.363340
C118	C	-0.924139	-0.909765	-0.303335
C119	C	-0.590805	-0.576432	0.029998
C120	C	-0.257472	-0.243098	0.363332
C121	C	-1.015453	-0.909801	-0.303348
C122	C	-0.682119	-0.576468	0.029985
C123	C	-0.348786	-0.243134	0.363319
C124	C	-0.177850	-0.909797	-0.303341
C125	C	0.155483	-0.576464	0.029992
C126	C	0.488816	-0.243130	0.363325
C127	C	-0.088229	-0.909834	-0.303356
C128	C	0.245104	-0.576500	0.029978
C129	C	0.578437	-0.243167	0.363311
C130	C	-0.388142	-0.909764	-0.467498
C131	C	-0.054809	-0.576430	-0.134165
C132	C	0.278524	-0.243097	0.199169
C133	C	-0.388135	-0.909786	-0.537466
C134	C	-0.054802	-0.576452	-0.204133
C135	C	0.278532	-0.243119	0.129200
C136	C	-0.388125	-0.073902	-0.303325
C137	C	-0.054791	0.259432	0.030009
C138	C	0.278542	0.592765	0.363342
C139	C	-0.388135	-0.143870	-0.303324
C140	C	-0.054802	0.189464	0.030010
C141	C	0.278532	0.522797	0.363343
C142	C	-0.336551	-0.950067	-0.570347
C143	C	-0.003218	-0.616733	-0.237014
C144	C	0.330115	-0.283400	0.096320
C145	C	-0.336516	-0.950066	-0.636090
C146	C	-0.003183	-0.616732	-0.302756
C147	C	0.330150	-0.283399	0.030577
C148	C	-0.388080	-0.909791	-0.668949
C149	C	-0.054746	-0.576457	-0.335615
C150	C	0.278587	-0.243124	-0.002282
C151	C	-0.439667	-0.869502	-0.636060
C152	C	-0.106333	-0.536169	-0.302727
C153	C	0.227000	-0.202835	0.030607
C154	C	-0.439694	-0.869500	-0.570319
C155	C	-0.106361	-0.536166	-0.236985
C156	C	0.226972	-0.202833	0.096348
N157	N	-0.458617	-0.904939	-0.772169
N158	N	-0.125283	-0.571605	-0.438836
N159	N	0.208050	-0.238272	-0.105503
N160	N	-0.458588	-0.904945	-0.834621
N161	N	-0.125255	-0.571611	-0.501287
N162	N	0.208079	-0.238278	-0.167954
C163	C	-0.387998	-0.909795	-0.867024
C164	C	-0.054664	-0.576461	-0.533690
C165	C	0.278669	-0.243128	-0.200357
N166	N	-0.317436	-0.914651	-0.834616
N167	N	0.015898	-0.581317	-0.501283
N168	N	0.349231	-0.247984	-0.167949
N169	N	-0.317465	-0.914648	-0.772159
N170	N	0.015868	-0.581315	-0.438825
N171	N	0.349202	-0.247981	-0.105492
C172	C	-0.388055	-0.909789	-0.740234
C173	C	-0.054721	-0.576455	-0.406901
C174	C	0.278612	-0.243122	-0.073568
C175	C	-0.336372	-0.950077	-0.971190
C176	C	-0.003039	-0.616743	-0.637857
C177	C	0.330295	-0.283410	-0.304523
C178	C	-0.336336	-0.950071	-1.036934
C179	C	-0.003002	-0.616738	-0.703601
C180	C	0.330331	-0.283405	-0.370267
C181	C	-0.439493	-0.869511	-1.036903
C182	C	-0.106160	-0.536178	-0.703570
C183	C	0.227174	-0.202844	-0.370236
C184	C	-0.439522	-0.869513	-0.971160
C185	C	-0.106189	-0.536180	-0.637827
C186	C	0.227145	-0.202846	-0.304494
C187	C	-0.387963	-0.909799	-0.938308
C188	C	-0.054629	-0.576466	-0.604975
C189	C	0.278704	-0.243132	-0.271641
C190	C	-0.388118	-0.909695	-0.139756
C191	C	-0.054785	-0.576362	0.193577
C192	C	0.278549	-0.243029	0.526910
C193	C	-0.387898	-0.909795	-0.069788
C194	C	-0.054565	-0.576462	0.263545
C195	C	0.278768	-0.243129	0.596878
H196	H	-0.294803	-0.550919	-0.376469
H197	H	0.038531	-0.217586	-0.043136
H198	H	0.371864	0.115747	0.290197
Cl199	Cl	-0.271647	-1.000696	-0.677434
Cl200	Cl	0.061686	-0.667362	-0.344101
Cl201	Cl	0.395019	-0.334029	-0.010768
H202	H	-0.294567	-0.982870	-0.543603
H203	H	0.038767	-0.649537	-0.210269
H204	H	0.372100	-0.316203	0.123064
Cl205	Cl	-0.272034	-0.684767	-0.394331
Cl206	Cl	0.061299	-0.351433	-0.060997
Cl207	Cl	0.394633	-0.018100	0.272336
Cl208	Cl	-0.504431	-0.536131	-0.212270
Cl209	Cl	-0.171098	-0.202798	0.121064
Cl210	Cl	0.162235	0.130536	0.454397
Cl211	Cl	-0.504549	-0.818857	-0.528981
Cl212	Cl	-0.171215	-0.485524	-0.195647
Cl213	Cl	0.162118	-0.152190	0.137686
Cl214	Cl	-0.504456	-0.684518	-0.212252
Cl215	Cl	-0.171123	-0.351185	0.121082
Cl216	Cl	0.162210	-0.017851	0.454415
Cl217	Cl	-0.271912	-0.135547	-0.394353
Cl218	Cl	0.061421	0.197787	-0.061020
Cl219	Cl	0.394754	0.531120	0.272314
H220	H	-0.294748	-0.269346	-0.376490
H221	H	0.038586	0.063988	-0.043156
H222	H	0.371919	0.397321	0.290177
H223	H	-0.481554	-0.149874	-0.230156
H224	H	-0.148221	0.183459	0.103177
H225	H	0.185112	0.516793	0.436510
H226	H	-0.481579	-0.269142	-0.230148
H227	H	-0.148246	0.064192	0.103185
H228	H	0.185087	0.397525	0.436518
H229	H	-0.481647	-0.836708	-0.662818
H230	H	-0.148314	-0.503375	-0.329485
H231	H	0.185019	-0.170041	0.003849
Cl232	Cl	-0.271552	-1.000718	-0.929887
Cl233	Cl	0.061782	-0.667384	-0.596554
Cl234	Cl	0.395115	-0.334051	-0.263220
H235	H	-0.294325	-0.982872	-1.063704
H236	H	0.039008	-0.649538	-0.730371
H237	H	0.372341	-0.316205	-0.397038
Cl238	Cl	-0.504309	-0.818873	-1.078205
Cl239	Cl	-0.170975	-0.485540	-0.744872
Cl240	Cl	0.162358	-0.152206	-0.411539
Cl241	Cl	-0.504377	-0.818874	-0.929822
Cl242	Cl	-0.171044	-0.485541	-0.596489
Cl243	Cl	0.162289	-0.152207	-0.263155
