data_functionalizedCrystal
_audit_creation_method	'MofGen! by Chris Wilmer'
_symmetry_space_group_name_H-M	'P1'
_symmetry_Int_Tables_number	1
_symmetry_cell_setting	triclinic
loop_
_symmetry_equiv_pos_as_xyz
  x,y,z
_cell_length_a	19.288840
_cell_length_b	14.519709
_cell_length_c	18.366186
_cell_angle_alpha	89.992822
_cell_angle_beta	89.983729
_cell_angle_gamma	83.403080
loop_
_atom_site_label
_atom_site_type_symbol
_atom_site_fract_x
_atom_site_fract_y
_atom_site_fract_z
O1	O	0.921777	0.114935	-0.060673
O2	O	1.421777	0.614935	0.439327
O3	O	0.719570	0.130478	-0.060648
O4	O	1.219570	0.630478	0.439352
O5	O	0.826035	-0.011567	-0.060654
O6	O	1.326035	0.488433	0.439346
O7	O	0.815313	0.256980	-0.060666
O8	O	1.315313	0.756980	0.439334
O9	O	0.826017	-0.011573	0.060445
O10	O	1.326017	0.488427	0.560445
O11	O	0.719552	0.130471	0.060452
O12	O	1.219552	0.630471	0.560452
O13	O	0.921759	0.114928	0.060427
O14	O	1.421759	0.614928	0.560427
Zn15	Zn	0.820653	0.122699	0.079666
Zn16	Zn	1.320653	0.622699	0.579666
Zn17	Zn	0.820677	0.122708	-0.079887
Zn18	Zn	1.320677	0.622708	0.420113
O19	O	0.815294	0.256973	0.060433
O20	O	1.315294	0.756973	0.560433
C21	C	0.693683	0.129979	-0.000095
C22	C	1.193683	0.629979	0.499905
C23	C	0.616573	0.128489	-0.000085
C24	C	1.116573	0.628489	0.499915
C25	C	0.825526	-0.045927	-0.000105
C26	C	1.325526	0.454073	0.499895
C27	C	0.824029	-0.148298	-0.000104
C28	C	1.324029	0.351702	0.499896
C29	C	0.580377	0.127777	-0.066098
C30	C	1.080377	0.627777	0.433902
C31	C	0.507925	0.126367	-0.066107
C32	C	1.007925	0.626367	0.433893
C33	C	0.471673	0.125650	-0.000099
C34	C	0.971673	0.625650	0.499901
C35	C	0.507878	0.126367	0.065923
C36	C	1.007878	0.626367	0.565923
C37	C	0.580328	0.127787	0.065930
C38	C	1.080328	0.627787	0.565930
C39	C	0.362136	0.069381	0.050465
C40	C	0.862136	0.569381	0.550465
C41	C	0.289688	0.067956	0.050455
C42	C	0.789688	0.567956	0.550455
C43	C	0.248214	0.121276	-0.000118
C44	C	0.748214	0.621276	0.499882
C45	C	0.279198	0.176010	-0.050693
C46	C	0.779198	0.676010	0.449307
C47	C	0.351648	0.177429	-0.050686
C48	C	0.851648	0.677429	0.449314
C49	C	0.393114	0.124112	-0.000099
C50	C	0.893114	0.624112	0.499901
C51	C	0.133457	0.119037	-0.066145
C52	C	0.633457	0.619037	0.433855
C53	C	0.061003	0.117633	-0.066151
C54	C	0.561003	0.617633	0.433849
C55	C	0.060959	0.117624	0.065880
C56	C	0.560959	0.617624	0.565880
C57	C	0.133410	0.119037	0.065885
C58	C	0.633410	0.619037	0.565885
C59	C	0.169655	0.119740	-0.000130
C60	C	0.669655	0.619740	0.499870
C61	C	0.818516	-0.523158	-0.000122
C62	C	1.318516	-0.023158	0.499878
C63	C	0.820047	-0.418860	-0.000117
C64	C	1.320047	0.081140	0.499883
C65	C	0.821272	-0.335731	-0.000112
C66	C	1.321272	0.164269	0.499888
C67	C	0.822804	-0.231427	-0.000108
C68	C	1.322804	0.268573	0.499892
C69	C	0.947647	0.115428	-0.000128
C70	C	1.447647	0.615428	0.499872
C71	C	1.024757	0.116917	-0.000143
C72	C	1.524757	0.616917	0.499857
C73	C	0.815803	0.291333	-0.000118
C74	C	1.315803	0.791333	0.499882
C75	C	0.817301	0.393704	-0.000124
C76	C	1.317301	0.893704	0.499876
N77	N	0.820642	0.122692	0.188557
N78	N	1.320642	0.622692	0.688557
N79	N	0.820693	0.122707	-0.188779
N80	N	1.320693	0.622707	0.311221
C81	C	0.867800	0.059825	0.226655
C82	C	1.367800	0.559825	0.726655
C83	C	0.867804	0.059821	0.302883
C84	C	1.367804	0.559821	0.802883
C85	C	0.820657	0.122699	0.341010
C86	C	1.320657	0.622699	0.841010
C87	C	0.773490	0.185571	0.302903
C88	C	1.273490	0.685571	0.802903
C89	C	0.773482	0.185567	0.226677
C90	C	1.273482	0.685567	0.726677
C91	C	0.811661	0.206729	0.461767
C92	C	1.311661	0.706729	0.961767
C93	C	0.811674	0.206734	0.537992
C94	C	1.311674	0.706734	1.037992
C95	C	0.820677	0.122711	0.576118
C96	C	1.320677	0.622711	1.076118
C97	C	0.829682	0.038679	0.538008
C98	C	1.329682	0.538679	1.038008
C99	C	0.829674	0.038675	0.461782
C100	C	1.329674	0.538675	0.961782
C101	C	0.820660	0.122710	0.423665
C102	C	1.320660	0.622710	0.923665
C103	C	0.867842	0.059835	0.696870
C104	C	1.367842	0.559835	1.196870
C105	C	0.867842	0.059829	0.773099
C106	C	1.367842	0.559829	1.273099
C107	C	0.773531	0.185587	0.773119
C108	C	1.273531	0.685587	1.273119
C109	C	0.773528	0.185584	0.696891
C110	C	1.273528	0.685584	1.196891
C111	C	0.820687	0.122709	0.658771
C112	C	1.320687	0.622709	1.158771
H113	H	0.609883	0.128349	-0.119853
H114	H	1.109883	0.628349	0.380147
Cl115	Cl	0.927081	-0.019221	0.178733
Cl116	Cl	1.427081	0.480779	0.678733
Cl117	Cl	0.462411	0.125471	-0.149101
Cl118	Cl	0.962411	0.625471	0.350899
H119	H	0.735101	0.236766	0.333951
H120	H	1.235101	0.736766	0.833951
H121	H	0.376872	0.221997	-0.091865
H122	H	0.876872	0.721997	0.408135
H123	H	0.245431	0.219432	-0.091872
H124	H	0.745431	0.719432	0.408128
H125	H	0.906207	0.008625	0.333907
H126	H	1.406207	0.508625	0.833907
Cl127	Cl	0.800358	0.312372	0.585893
Cl128	Cl	1.300358	0.812372	1.085893
H129	H	0.837005	-0.029746	0.430757
H130	H	1.337005	0.470254	0.930757
H131	H	0.478357	0.125786	0.119667
H132	H	0.978357	0.625786	0.619667
H133	H	0.837013	-0.029740	0.569048
H134	H	1.337013	0.470260	1.069048
H135	H	0.162882	0.119611	0.119640
H136	H	0.662882	0.619611	0.619640
H137	H	0.264467	0.023385	0.091633
H138	H	0.764467	0.523385	0.591633
H139	H	0.735140	0.236780	0.804161
H140	H	1.235140	0.736780	1.304161
H141	H	0.162968	0.119618	-0.119898
H142	H	0.662968	0.619618	0.380102
Cl143	Cl	0.015498	0.116745	-0.149147
Cl144	Cl	0.515498	0.616745	0.350853
H145	H	0.735080	0.236761	0.195657
H146	H	1.235080	0.736761	0.695657
Cl147	Cl	0.625834	0.128681	0.148925
Cl148	Cl	1.125834	0.628681	0.648925
H149	H	0.031443	0.117046	0.119626
H150	H	0.531443	0.617046	0.619626
Cl151	Cl	0.414267	0.002345	0.114049
Cl152	Cl	0.914267	0.502345	0.614049
H153	H	0.906240	0.008635	0.665832
H154	H	1.406240	0.508635	1.165832
H155	H	0.906242	0.008631	0.804119
H156	H	1.406242	0.508631	1.304119
H157	H	0.735130	0.236780	0.665870
H158	H	1.235130	0.736780	1.165870
H159	H	0.804318	0.275155	0.430732
H160	H	1.304318	0.775155	0.930732
