data_functionalizedCrystal
_audit_creation_method	'MofGen! by Chris Wilmer'
_symmetry_space_group_name_H-M	'P1'
_symmetry_Int_Tables_number	1
_symmetry_cell_setting	triclinic
loop_
_symmetry_equiv_pos_as_xyz
  x,y,z
_cell_length_a	19.288864
_cell_length_b	15.186229
_cell_length_c	19.288865
_cell_angle_alpha	89.991032
_cell_angle_beta	96.863755
_cell_angle_gamma	90.017200
loop_
_atom_site_label
_atom_site_type_symbol
_atom_site_fract_x
_atom_site_fract_y
_atom_site_fract_z
O1	O	0.921347	0.073521	-0.086647
O2	O	1.254681	0.406854	0.246687
O3	O	1.588014	0.740188	0.580020
O4	O	0.719087	0.073462	-0.098336
O5	O	1.052420	0.406795	0.234998
O6	O	1.385753	0.740129	0.568331
O7	O	0.826061	0.073476	0.008639
O8	O	1.159395	0.406809	0.341973
O9	O	1.492728	0.740142	0.675306
O10	O	0.814373	0.073507	-0.193621
O11	O	1.147706	0.406841	0.139712
O12	O	1.481039	0.740174	0.473045
O13	O	0.826054	-0.072981	0.008641
O14	O	1.159388	0.260352	0.341974
O15	O	1.492721	0.593685	0.675307
O16	O	0.719079	-0.072995	-0.098334
O17	O	1.052413	0.260338	0.234999
O18	O	1.385746	0.593672	0.568333
O19	O	0.921340	-0.072936	-0.086645
O20	O	1.254673	0.260397	0.246688
O21	O	1.588007	0.593730	0.580021
Zn22	Zn	0.820209	-0.096219	-0.092489
Zn23	Zn	1.153542	0.237114	0.240844
Zn24	Zn	1.486875	0.570448	0.574177
Zn25	Zn	0.820218	0.096745	-0.092491
Zn26	Zn	1.153551	0.430078	0.240842
Zn27	Zn	1.486885	0.763411	0.574175
O28	O	0.814365	-0.072950	-0.193620
O29	O	1.147699	0.260383	0.139713
O30	O	1.481032	0.593717	0.473047
C31	C	0.693207	0.000226	-0.097959
C32	C	1.026540	0.333559	0.235375
C33	C	1.359873	0.666892	0.568708
C34	C	0.616103	0.000202	-0.096830
C35	C	0.949436	0.333536	0.236504
C36	C	1.282770	0.666869	0.569837
N37	N	0.820207	-0.227912	-0.092488
N38	N	1.153541	0.105422	0.240846
N39	N	1.486874	0.438755	0.574179
C40	C	0.571407	0.000226	-0.159598
C41	C	0.904740	0.333559	0.173736
C42	C	1.238073	0.666893	0.507069
C43	C	0.498960	0.000236	-0.158537
C44	C	0.832293	0.333569	0.174796
C45	C	1.165626	0.666902	0.508130
C46	C	0.471212	0.000239	-0.094705
C47	C	0.804545	0.333573	0.238629
C48	C	1.137879	0.666906	0.571962
C49	C	0.515918	0.000211	-0.031929
C50	C	0.849252	0.333544	0.301405
C51	C	1.182585	0.666877	0.634738
C52	C	0.588364	0.000192	-0.032991
C53	C	0.921697	0.333526	0.300342
C54	C	1.255030	0.666859	0.633676
C55	C	0.362953	0.051572	-0.044526
C56	C	0.696286	0.384905	0.288807
C57	C	1.029619	0.718238	0.622141
C58	C	0.290508	0.051595	-0.043466
C59	C	0.623841	0.384929	0.289867
C60	C	0.957175	0.718262	0.623200
C61	C	0.247767	0.000292	-0.091425
C62	C	0.581100	0.333625	0.241908
C63	C	0.914433	0.666959	0.575242
C64	C	0.277477	-0.051024	-0.140456
C65	C	0.610810	0.282310	0.192878
C66	C	0.944143	0.615643	0.526211
C67	C	0.349922	-0.051042	-0.141518
C68	C	0.683256	0.282291	0.191815
C69	C	1.016589	0.615625	0.525149
C70	C	0.392658	0.000259	-0.093546
C71	C	0.725991	0.333592	0.239788
C72	C	1.059325	0.666925	0.573121
C73	C	0.124514	0.000325	-0.153047
C74	C	0.457848	0.333658	0.180286
C75	C	0.791181	0.666991	0.513619
C76	C	0.052066	0.000329	-0.151984
C77	C	0.385400	0.333662	0.181349
C78	C	0.718733	0.666996	0.514683
C79	C	0.069026	0.000313	-0.025374
C80	C	0.402360	0.333646	0.307960
C81	C	0.735693	0.666979	0.641293
C82	C	0.141473	0.000300	-0.026439
C83	C	0.474806	0.333633	0.306894
C84	C	0.808140	0.666967	0.640228
C85	C	0.169212	0.000310	-0.090278
C86	C	0.502545	0.333643	0.243056
C87	C	0.835879	0.666977	0.576389
C88	C	0.867592	-0.453628	-0.045135
C89	C	1.200925	-0.120295	0.288198
C90	C	1.534258	0.213038	0.621532
C91	C	0.867594	-0.545818	-0.045133
C92	C	1.200927	-0.212485	0.288200
C93	C	1.534261	0.120849	0.621533
C94	C	0.772835	-0.545839	-0.139842
C95	C	1.106169	-0.212506	0.193491
C96	C	1.439502	0.120827	0.526824
C97	C	0.772830	-0.453651	-0.139840
C98	C	1.106164	-0.120318	0.193493
C99	C	1.439497	0.213015	0.526826
C100	C	0.820213	-0.407548	-0.092487
C101	C	1.153546	-0.074215	0.240846
C102	C	1.486879	0.259118	0.574179
C103	C	0.820220	-0.591926	-0.092488
C104	C	1.153553	-0.258593	0.240845
C105	C	1.486886	0.074741	0.574179
C106	C	0.820222	-0.691882	-0.092486
C107	C	1.153555	-0.358549	0.240847
C108	C	1.486888	-0.025215	0.574180
C109	C	0.820210	-0.307586	-0.092488
C110	C	1.153543	0.025748	0.240846
C111	C	1.486877	0.359081	0.574179
C112	C	0.947220	0.000302	-0.087022
C113	C	1.280553	0.333635	0.246311
C114	C	1.613887	0.666969	0.579645
C115	C	1.024324	0.000331	-0.088151
C116	C	1.357657	0.333664	0.245182
C117	C	1.690990	0.666998	0.578516
C118	C	0.825682	0.000244	0.034516
C119	C	1.159015	0.333578	0.367850
C120	C	1.492348	0.666911	0.701183
C121	C	0.824553	0.000236	0.111620
C122	C	1.157886	0.333570	0.444953
C123	C	1.491219	0.666903	0.778287
N124	N	0.820225	0.228437	-0.092488
N125	N	1.153558	0.561771	0.240846
N126	N	1.486892	0.895104	0.574179
C127	C	0.814745	0.000283	-0.219497
C128	C	1.148078	0.333617	0.113836
C129	C	1.481412	0.666950	0.447169
C130	C	0.815874	0.000297	-0.296601
C131	C	1.149207	0.333631	0.036733
C132	C	1.482541	0.666964	0.370066
C133	C	0.887321	0.000250	0.156316
C134	C	1.220654	0.333584	0.489650
C135	C	1.553987	0.666917	0.822983
C136	C	0.886260	0.000264	0.228763
C137	C	1.219593	0.333597	0.562097
C138	C	1.552927	0.666931	0.895430
C139	C	0.822428	0.000246	0.256511
C140	C	1.155761	0.333579	0.589844
C141	C	1.489094	0.666913	0.923178
C142	C	0.759652	0.000237	0.211805
C143	C	1.092985	0.333570	0.545138
C144	C	1.426318	0.666904	0.878471
C145	C	0.760714	0.000232	0.139359
C146	C	1.094047	0.333565	0.472693
C147	C	1.427381	0.666899	0.806026
C148	C	0.772246	-0.051069	0.364799
C149	C	1.105579	0.282264	0.698132
C150	C	1.438912	0.615597	1.031465
C151	C	0.771186	-0.051070	0.437243
C152	C	1.104519	0.282263	0.770577
C153	C	1.437853	0.615597	1.103910
C154	C	0.819148	0.000265	0.479956
C155	C	1.152481	0.333598	0.813290
C156	C	1.485815	0.666931	1.146623
C157	C	0.868182	0.051589	0.450218
C158	C	1.201515	0.384922	0.783551
C159	C	1.534849	0.718255	1.116884
C160	C	0.869244	0.051584	0.377772
C161	C	1.202578	0.384917	0.711106
C162	C	1.535911	0.718251	1.044439
C163	C	0.821269	0.000252	0.335065
C164	C	1.154602	0.333585	0.668398
C165	C	1.487935	0.666918	1.001732
C166	C	0.880770	0.000295	0.603209
C167	C	1.214104	0.333628	0.936542
C168	C	1.547437	0.666961	1.269875
C169	C	0.879707	0.000314	0.675657
C170	C	1.213040	0.333647	1.008990
C171	C	1.546374	0.666980	1.342323
C172	C	0.753097	0.000278	0.658697
C173	C	1.086430	0.333611	0.992030
C174	C	1.419763	0.666945	1.325363
C175	C	0.754162	0.000268	0.586250
C176	C	1.087495	0.333601	0.919583
C177	C	1.420829	0.666934	1.252917
C178	C	0.818000	0.000272	0.558511
C179	C	1.151334	0.333605	0.891844
C180	C	1.484667	0.666939	1.225177
H181	H	0.593987	0.000236	-0.211580
H182	H	0.927320	0.333569	0.121753
H183	H	1.260654	0.666903	0.455087
Cl184	Cl	0.713260	-0.395716	-0.199370
Cl185	Cl	1.046593	-0.062383	0.133963
Cl186	Cl	1.379927	0.270950	0.467297
H187	H	0.907237	0.093391	0.484994
H188	H	1.240571	0.426724	0.818327
H189	H	1.573904	0.760058	1.151661
H190	H	0.731257	-0.092856	0.461450
H191	H	1.064590	0.240477	0.794783
H192	H	1.397923	0.573811	1.128117
Cl193	Cl	0.961023	0.000295	0.568333
Cl194	Cl	1.294356	0.333628	0.901666
Cl195	Cl	1.627689	0.666962	1.235000
Cl196	Cl	0.927157	-0.603745	0.014399
Cl197	Cl	1.260491	-0.270412	0.347732
Cl198	Cl	1.593824	0.062922	0.681066
H199	H	0.930822	0.000330	0.712049
H200	H	1.264156	0.333663	1.045382
H201	H	1.597489	0.666997	1.378715
Cl202	Cl	0.927155	-0.395674	0.014397
Cl203	Cl	1.260488	-0.062341	0.347730
Cl204	Cl	1.593822	0.270993	0.681064
Cl205	Cl	0.967575	0.000281	0.121448
Cl206	Cl	1.300908	0.333614	0.454781
Cl207	Cl	1.634241	0.666947	0.788114
H208	H	0.909168	0.093375	0.353562
H209	H	1.242501	0.426709	0.686895
H210	H	1.575835	0.760042	1.020229
H211	H	0.734259	-0.583386	-0.178397
H212	H	1.067592	-0.250052	0.154936
H213	H	1.400926	0.083281	0.488270
Cl214	Cl	-0.004125	0.000354	-0.230900
Cl215	Cl	0.329208	0.333687	0.102434
Cl216	Cl	0.662541	0.667021	0.435767
H217	H	0.937375	0.000279	0.265162
H218	H	1.270708	0.333612	0.598495
H219	H	1.604041	0.666946	0.931829
H220	H	0.266324	0.093383	-0.003545
H221	H	0.599657	0.426717	0.329788
H222	H	0.932990	0.760050	0.663121
H223	H	0.701123	0.000268	0.681288
H224	H	1.034457	0.333601	1.014621
H225	H	1.367790	0.666934	1.347954
H226	H	0.703049	0.000251	0.549857
H227	H	1.036383	0.333585	0.883190
H228	H	1.369716	0.666918	1.216524
Cl229	Cl	0.644557	0.000164	0.045924
Cl230	Cl	0.977890	0.333497	0.379257
Cl231	Cl	1.311223	0.666830	0.712591
Cl232	Cl	0.711946	-0.115614	0.311109
Cl233	Cl	1.045279	0.217720	0.644443
Cl234	Cl	1.378612	0.551053	0.977776
H235	H	0.707679	0.000224	0.234401
H236	H	1.041012	0.333558	0.567735
H237	H	1.374346	0.666891	0.901068
H238	H	0.462561	0.000252	-0.209652
H239	H	0.795894	0.333586	0.123682
H240	H	1.129228	0.666919	0.457015
H241	H	0.374109	-0.092828	-0.181438
H242	H	0.707443	0.240505	0.151895
H243	H	1.040776	0.573839	0.485228
H244	H	0.242678	-0.092800	-0.179508
H245	H	0.576011	0.240533	0.153825
H246	H	0.909344	0.573866	0.487159
H247	H	0.709599	0.000220	0.102967
H248	H	1.042932	0.333554	0.436300
H249	H	1.376266	0.666887	0.769633
H250	H	0.397748	0.093354	-0.005471
H251	H	0.731081	0.426687	0.327863
H252	H	1.064414	0.760021	0.661196
Cl253	Cl	0.197666	0.000275	0.052474
Cl254	Cl	0.530999	0.333609	0.385807
Cl255	Cl	0.864332	0.666942	0.719141
Cl256	Cl	0.034151	0.000307	0.054873
Cl257	Cl	0.367484	0.333640	0.388207
Cl258	Cl	0.700817	0.666974	0.721540
Cl259	Cl	0.159390	0.000329	-0.233300
Cl260	Cl	0.492723	0.333662	0.100034
Cl261	Cl	0.826057	0.666996	0.433367
H262	H	0.493322	0.000226	0.020044
H263	H	0.826655	0.333559	0.353377
H264	H	1.159988	0.666892	0.686711
