data_functionalizedCrystal
_audit_creation_method	'MofGen! by Chris Wilmer'
_symmetry_space_group_name_H-M	'P1'
_symmetry_Int_Tables_number	1
_symmetry_cell_setting	triclinic
loop_
_symmetry_equiv_pos_as_xyz
  x,y,z
_cell_length_a	13.339070
_cell_length_b	15.995350
_cell_length_c	12.376457
_cell_angle_alpha	101.278656
_cell_angle_beta	75.589755
_cell_angle_gamma	99.560835
loop_
_atom_site_label
_atom_site_type_symbol
_atom_site_fract_x
_atom_site_fract_y
_atom_site_fract_z
O1	O	1.361687	0.408219	-0.094025
O2	O	1.067160	0.353123	-0.094021
O3	O	1.222474	0.260654	-0.094022
O4	O	1.206373	0.500688	-0.094024
O5	O	1.183660	0.283730	0.093990
O6	O	1.028345	0.376200	0.093991
O7	O	1.322873	0.431295	0.093987
Zn8	Zn	1.169446	0.407411	0.123840
Zn9	Zn	1.220586	0.377007	-0.123874
O10	O	1.167558	0.523765	0.093988
C11	C	1.010063	0.355354	-0.000015
C12	C	0.897761	0.327613	-0.000013
C13	C	0.532972	0.543314	-0.000033
C14	C	0.638486	0.569381	-0.000038
C15	C	0.703309	0.508941	-0.000031
C16	C	0.662609	0.422430	-0.000021
C17	C	0.557087	0.396360	-0.000025
C18	C	0.727425	0.361987	-0.000023
C19	C	0.686725	0.275476	-0.000013
C20	C	0.581212	0.249410	-0.000016
C21	C	0.516389	0.309850	-0.000023
C22	C	0.832947	0.388057	-0.000019
C23	C	0.857062	0.241103	-0.000011
C24	C	0.751549	0.215036	-0.000006
C25	C	1.202402	0.240842	-0.000018
C26	C	1.200407	0.147428	-0.000025
C27	C	1.193239	-0.191985	-0.000021
C28	C	1.082714	-0.170299	-0.000441
C29	C	1.084622	-0.073093	-0.000017
C30	C	1.196795	-0.023598	-0.000023
C31	C	1.229188	-0.038823	0.107338
C32	C	1.226391	-0.136094	0.107428
C33	C	1.272816	-0.162164	-0.106377
C34	C	1.273082	-0.065398	-0.107796
C35	C	1.198810	0.071568	-0.000021
C36	C	1.191226	-0.287149	-0.000015
C37	C	1.379970	0.429064	-0.000022
C38	C	1.492273	0.456804	-0.000031
C39	C	1.187631	0.543576	-0.000018
C40	C	1.189627	0.636990	-0.000019
N41	N	1.134551	0.428163	0.292899
N42	N	1.255489	0.356251	-0.292933
C43	C	1.336490	0.308063	0.647882
C44	C	1.360907	0.293538	0.529542
C45	C	1.304320	0.327193	0.470376
C46	C	1.223312	0.375376	0.529561
C47	C	1.198898	0.389908	0.647912
C48	C	1.166728	0.409038	0.470405
C49	C	1.085720	0.457221	0.529590
C50	C	1.061310	0.471751	0.647930
C51	C	1.117897	0.438096	0.707097
C52	C	1.191142	0.394505	0.352054
C53	C	1.053550	0.476350	0.352084
C54	C	1.029133	0.490876	0.470424
H55	H	0.718397	0.144597	-0.000007
H56	H	1.356221	-0.031829	-0.114283
H57	H	0.480186	0.592513	-0.000048
H58	H	1.382561	0.280671	0.696064
H59	H	1.022893	-0.190721	0.076122
H60	H	1.170038	-0.153787	0.187687
H61	H	0.963175	0.530108	0.518627
H62	H	0.909843	0.191887	-0.000011
C63	C	1.155711	0.000863	0.215282
C64	C	1.147447	0.097903	0.237854
C65	C	1.073963	0.137586	0.345794
C66	C	1.008745	0.080230	0.431163
C67	C	1.017008	-0.016816	0.408594
C68	C	1.090491	-0.056499	0.300653
H69	H	1.195727	0.140368	0.174657
H70	H	1.067847	0.209426	0.362501
H71	H	0.954349	0.109605	0.511067
H72	H	0.968727	-0.059281	0.471791
H73	H	1.096607	-0.128339	0.283946
C74	C	1.048127	-0.060911	-0.103970
C75	C	1.017041	-0.139772	-0.187952
C76	C	0.980531	-0.127596	-0.291901
C77	C	0.975108	-0.036559	-0.311867
C78	C	1.006196	0.042309	-0.227882
C79	C	1.042705	0.030133	-0.123933
H80	H	1.021054	-0.207169	-0.173174
H81	H	0.957518	-0.185980	-0.354072
H82	H	0.948082	-0.027545	-0.388817
H83	H	1.002182	0.109706	-0.242660
H84	H	1.065718	0.088517	-0.061762
H85	H	0.995356	0.510992	0.696119
H86	H	1.007473	0.503757	0.303911
C87	C	1.246660	-0.214748	-0.216313
C88	C	1.246283	-0.312949	-0.239672
C89	C	1.220114	-0.365535	-0.349601
C90	C	1.194321	-0.319918	-0.436172
C91	C	1.194697	-0.221711	-0.412815
C92	C	1.220866	-0.169126	-0.302886
H93	H	1.265377	-0.346722	-0.175586
H94	H	1.219836	-0.438234	-0.366891
H95	H	1.174949	-0.358845	-0.517548
H96	H	1.175603	-0.187939	-0.476902
H97	H	1.221144	-0.096427	-0.285596
C98	C	1.383195	-0.179589	-0.107362
C99	C	1.401093	-0.220671	-0.012181
C100	C	1.511465	-0.238097	-0.013153
C101	C	1.603939	-0.214442	-0.109306
C102	C	1.586044	-0.173358	-0.204495
C103	C	1.475672	-0.155932	-0.203523
H104	H	1.332635	-0.238184	0.059004
H105	H	1.524712	-0.268510	0.057313
H106	H	1.685644	-0.227341	-0.110025
H107	H	1.654502	-0.155845	-0.275680
H108	H	1.462425	-0.125519	-0.273988
H109	H	1.249590	-0.057165	-0.187219
H110	H	0.430470	0.288631	-0.000018
C111	C	1.450005	0.240536	0.464438
C112	C	1.512252	0.203510	0.529504
C113	C	1.601353	0.150504	0.464395
C114	C	1.628207	0.134524	0.334220
C115	C	1.565958	0.171550	0.269147
C116	C	1.476857	0.224557	0.334256
H117	H	1.492375	0.215339	0.625873
H118	H	1.647434	0.123094	0.512567
H119	H	1.694165	0.095285	0.286023
H120	H	1.585836	0.159722	0.172777
H121	H	1.430777	0.251966	0.286083
C122	C	1.280240	0.341501	0.286959
C123	C	1.275193	0.247758	0.303241
C124	C	1.364295	0.194749	0.238147
C125	C	1.458445	0.235482	0.156771
C126	C	1.463497	0.329230	0.140485
C127	C	1.374394	0.382240	0.205579
H128	H	1.205494	0.217601	0.363484
H129	H	1.360555	0.125350	0.250203
H130	H	1.524404	0.196242	0.108585
H131	H	1.533195	0.359388	0.080243
H132	H	1.378134	0.451638	0.193523
C133	C	1.004806	-0.036206	0.104136
C134	C	0.939133	-0.095211	0.187188
C135	C	0.859315	-0.058323	0.291349
C136	C	0.845170	0.037570	0.312457
C137	C	0.910845	0.096581	0.229403
C138	C	0.990663	0.059693	0.125243
H139	H	0.949602	-0.166202	0.171564
H140	H	0.810698	-0.102008	0.352831
H141	H	0.786084	0.064876	0.389563
H142	H	0.900376	0.167572	0.245027
H143	H	1.039280	0.103378	0.063761
H144	H	0.789223	0.530169	-0.000038
H145	H	0.548081	0.178966	-0.000020
C146	C	0.877709	0.483214	-0.000022
C147	C	0.833088	0.552229	0.097606
C148	C	0.877848	0.647392	0.097605
C149	C	0.967228	0.673542	-0.000023
C150	C	1.011853	0.604526	-0.097658
C151	C	0.967094	0.509363	-0.097658
H152	H	0.766919	0.532872	0.169882
H153	H	0.844812	0.698482	0.169882
H154	H	1.000362	0.743988	-0.000023
H155	H	1.078022	0.623883	-0.169934
H156	H	1.000129	0.458273	-0.169934
H157	H	0.671618	0.639816	-0.000055
H158	H	1.310774	-0.005063	0.111327
C159	C	1.334731	-0.153375	0.114022
C160	C	1.346778	-0.192212	0.213878
C161	C	1.455113	-0.209490	0.220480
C162	C	1.551401	-0.187931	0.127226
C163	C	1.539358	-0.149091	0.027363
C164	C	1.431023	-0.131813	0.020761
H165	H	1.275496	-0.208174	0.282916
H166	H	1.464027	-0.238242	0.294405
H167	H	1.631597	-0.200721	0.132113
H168	H	1.610639	-0.133129	-0.041675
H169	H	1.422108	-0.103061	-0.053164
H170	H	1.054398	-0.208552	-0.077432
H171	H	1.324204	0.315364	0.374018
H172	H	1.098014	0.449919	0.803459
