data_functionalizedCrystal
_audit_creation_method	'MofGen! by Chris Wilmer'
_symmetry_space_group_name_H-M	'P1'
_symmetry_Int_Tables_number	1
_symmetry_cell_setting	triclinic
loop_
_symmetry_equiv_pos_as_xyz
  x,y,z
_cell_length_a	16.625546
_cell_length_b	19.805407
_cell_length_c	19.805399
_cell_angle_alpha	89.982197
_cell_angle_beta	89.972133
_cell_angle_gamma	90.019784
loop_
_atom_site_label
_atom_site_type_symbol
_atom_site_fract_x
_atom_site_fract_y
_atom_site_fract_z
Zn1	Zn	-0.321078	1.034754	-0.382686
Zn2	Zn	-0.455915	1.034677	-0.269498
Zn3	Zn	-0.321094	0.921569	-0.269514
Zn4	Zn	-0.455866	0.921540	-0.382648
O5	O	-0.388488	0.978135	-0.326086
O6	O	-0.338978	1.129460	-0.367681
O7	O	-0.438058	1.019652	-0.174783
O8	O	-0.208259	0.936628	-0.284550
O9	O	-0.438043	1.129404	-0.284521
O10	O	-0.208248	1.019784	-0.367697
O11	O	-0.339006	0.936552	-0.174796
O12	O	-0.338958	0.826848	-0.284513
O13	O	-0.437959	0.936579	-0.477369
O14	O	-0.437974	0.826827	-0.367631
O15	O	-0.338931	1.019756	-0.477398
O16	O	-0.568741	1.019625	-0.284484
O17	O	-0.568705	0.936504	-0.367615
C18	C	-0.388463	0.802279	-0.326070
C19	C	-0.388472	0.727047	-0.326079
C20	C	-0.336980	0.691733	-0.369446
C21	C	-0.336984	0.621045	-0.369449
C22	C	-0.388485	0.585671	-0.326087
C23	C	-0.439979	0.620990	-0.282716
C24	C	-0.439970	0.691677	-0.282710
C25	C	-0.440015	0.335917	-0.282736
C26	C	-0.440022	0.265225	-0.282747
C27	C	-0.337030	0.265284	-0.369475
C28	C	-0.337021	0.335971	-0.369469
C29	C	-0.388511	0.371284	-0.326095
C30	C	-0.388505	0.447932	-0.326092
C31	C	-0.388496	0.509024	-0.326093
C32	C	-0.597979	0.978071	-0.326058
C33	C	-0.687600	0.978105	-0.326069
C34	C	-1.015776	0.978224	-0.326139
C35	C	-0.924467	0.978189	-0.326121
C36	C	-0.851691	0.978164	-0.326104
C37	C	-0.760377	0.978130	-0.326087
C38	C	-0.178179	0.978218	-0.326130
C39	C	-0.088558	0.978253	-0.326148
C40	C	-0.388438	0.978173	-0.502629
C41	C	-0.388416	0.978189	-0.577861
C42	C	-0.388514	1.154678	-0.326103
C43	C	-0.388525	1.229910	-0.326111
C44	C	-0.336849	1.021501	-0.613221
C45	C	-0.336826	1.021508	-0.683910
C46	C	-0.388374	0.978206	-0.719237
C47	C	-0.439943	0.934889	-0.683872
C48	C	-0.439961	0.934880	-0.613185
C49	C	-0.439867	0.934928	-0.968945
C50	C	-0.439846	0.934942	-1.039638
C51	C	-0.336732	1.021556	-1.039670
C52	C	-0.336751	1.021546	-0.968983
C53	C	-0.388316	0.978227	-0.933624
C54	C	-0.388340	0.978219	-0.856976
C55	C	-0.388355	0.978217	-0.795884
C56	C	-0.388481	0.978136	-0.150231
C57	C	-0.388275	0.978251	-0.074999
H58	H	-0.295056	0.592295	-0.404764
Cl59	Cl	-0.272295	0.220887	-0.424001
Cl60	Cl	-0.271948	1.075987	-0.924576
Cl61	Cl	-0.272032	1.075989	-0.728359
H62	H	-0.294742	1.056826	-1.068468
H63	H	-0.481961	0.236426	-0.247434
H64	H	-0.481899	0.720429	-0.247396
H65	H	-0.481824	0.899678	-1.068399
H66	H	-0.295086	0.364769	-0.404781
H67	H	-0.481942	0.364660	-0.247419
H68	H	-0.481907	0.592184	-0.247407
H69	H	-0.481911	0.899630	-0.712641
H70	H	-0.481944	0.899604	-0.584396
H71	H	-0.481867	0.899665	-0.940165
H72	H	-0.295045	0.720529	-0.404758
H73	H	-0.294876	1.056764	-0.584463
