data_functionalizedCrystal
_audit_creation_method	'MofGen! by Chris Wilmer'
_symmetry_space_group_name_H-M	'P1'
_symmetry_Int_Tables_number	1
_symmetry_cell_setting	triclinic
loop_
_symmetry_equiv_pos_as_xyz
  x,y,z
_cell_length_a	29.839134
_cell_length_b	29.839131
_cell_length_c	25.639234
_cell_angle_alpha	89.974256
_cell_angle_beta	89.979476
_cell_angle_gamma	90.021992
loop_
_atom_site_label
_atom_site_type_symbol
_atom_site_fract_x
_atom_site_fract_y
_atom_site_fract_z
Zn1	Zn	0.686756	-0.179114	-0.295616
Zn2	Zn	1.186756	0.320886	0.204384
Zn3	Zn	0.686678	-0.254236	-0.208179
Zn4	Zn	1.186678	0.245764	0.291821
Zn5	Zn	0.611628	-0.179095	-0.208194
Zn6	Zn	1.111628	0.320905	0.291806
Zn7	Zn	0.611587	-0.254192	-0.295582
Zn8	Zn	1.111587	0.245808	0.204418
O9	O	0.649162	-0.216659	-0.251893
O10	O	1.149162	0.283341	0.248107
O11	O	0.749613	-0.189105	-0.284025
O12	O	1.249613	0.310895	0.215975
O13	O	0.676707	-0.244280	-0.135016
O14	O	1.176707	0.255720	0.364984
O15	O	0.621644	-0.116231	-0.219810
O16	O	1.121644	0.383769	0.280190
O17	O	0.749555	-0.244297	-0.219786
O18	O	1.249555	0.255703	0.280214
O19	O	0.676841	-0.116244	-0.284039
O20	O	1.176841	0.383756	0.215961
O21	O	0.621568	-0.189074	-0.135026
O22	O	1.121568	0.310926	0.364974
O23	O	0.548756	-0.189031	-0.219778
O24	O	1.048756	0.310969	0.280222
O25	O	0.621574	-0.244222	-0.368752
O26	O	1.121574	0.255778	0.131248
O27	O	0.548725	-0.244204	-0.283982
O28	O	1.048725	0.255796	0.216018
O29	O	0.676801	-0.189062	-0.368777
O30	O	1.176801	0.310938	0.131223
O31	O	0.676666	-0.317097	-0.219753
O32	O	1.176666	0.182903	0.280247
O33	O	0.621498	-0.317065	-0.283968
O34	O	1.121498	0.182935	0.216032
C35	C	0.532440	-0.216611	-0.251878
C36	C	1.032440	0.283389	0.248122
C37	C	0.482505	-0.216601	-0.251884
C38	C	0.982505	0.283399	0.248116
C39	C	0.125944	-0.187981	-0.285408
C40	C	0.625944	0.312019	0.214592
C41	C	0.313617	-0.187944	-0.285396
C42	C	0.813617	0.312056	0.214604
O43	O	0.337904	-0.163553	-0.313897
O44	O	0.837904	0.336447	0.186103
N45	N	0.337060	-0.216631	-0.251897
N46	N	0.837060	0.283369	0.248103
C47	C	0.313582	-0.245330	-0.218400
C48	C	0.813582	0.254670	0.281600
O49	O	0.337828	-0.269732	-0.189911
O50	O	0.837828	0.230268	0.310089
C51	C	0.125910	-0.245368	-0.218416
C52	C	0.625910	0.254632	0.281584
C53	C	0.102469	-0.216677	-0.251913
C54	C	0.602469	0.283323	0.248087
C55	C	0.102504	-0.159292	-0.318903
C56	C	0.602504	0.340708	0.181097
C57	C	0.055588	-0.159299	-0.318904
C58	C	0.555588	0.340701	0.181096
C59	C	0.032113	-0.187996	-0.285409
C60	C	0.532113	0.312004	0.214591
C61	C	0.055554	-0.216684	-0.251914
C62	C	0.555554	0.283316	0.248086
C63	C	0.102432	-0.274070	-0.184922
C64	C	0.602432	0.225930	0.315078
C65	C	0.055511	-0.274077	-0.184930
C66	C	0.555511	0.225923	0.315070
C67	C	0.032071	-0.245386	-0.218428
C68	C	0.532071	0.254614	0.281572
C69	C	-0.014837	-0.245388	-0.218420
C70	C	0.485163	0.254612	0.281580
N71	N	-0.038279	-0.216702	-0.251919
N72	N	0.461721	0.283298	0.248081
C73	C	-0.014805	-0.188006	-0.285414
C74	C	0.485195	0.311994	0.214586
C75	C	0.412113	-0.245308	-0.218394
C76	C	0.912113	0.254692	0.281606
C77	C	0.459031	-0.245298	-0.218390
C78	C	0.959031	0.254702	0.281610
C79	C	0.459063	-0.187912	-0.285386
C80	C	0.959063	0.312088	0.214614
C81	C	0.412144	-0.187920	-0.285388
C82	C	0.912144	0.312080	0.214612
C83	C	0.388670	-0.216621	-0.251893
C84	C	0.888670	0.283379	0.248107
C85	C	-0.113330	-0.188024	-0.285412
C86	C	0.386670	0.311976	0.214588
C87	C	-0.160250	-0.188032	-0.285409
C88	C	0.339750	0.311968	0.214591
C89	C	-0.160278	-0.245419	-0.218414
C90	C	0.339722	0.254581	0.281586
C91	C	-0.113362	-0.245409	-0.218416
C92	C	0.386638	0.254591	0.281584
C93	C	-0.089890	-0.216710	-0.251919
C94	C	0.410110	0.283290	0.248081
O95	O	-0.039152	-0.269771	-0.189938
O96	O	0.460848	0.230229	0.310062
O97	O	-0.039059	-0.163615	-0.313908
O98	O	0.460941	0.336385	0.186092
C99	C	0.172860	-0.187973	-0.285407
C100	C	0.672860	0.312027	0.214593
C101	C	0.196300	-0.216662	-0.251912
C102	C	0.696300	0.283338	0.248088
C103	C	0.172825	-0.245358	-0.218417
C104	C	0.672825	0.254642	0.281583
C105	C	0.243218	-0.216652	-0.251907
C106	C	0.743218	0.283348	0.248093
C107	C	0.266693	-0.187955	-0.285402
C108	C	0.766693	0.312045	0.214598
C109	C	0.243250	-0.159269	-0.318901
C110	C	0.743250	0.340731	0.181099
C111	C	0.196335	-0.159277	-0.318902
C112	C	0.696335	0.340723	0.181098
C113	C	0.196268	-0.274044	-0.184918
C114	C	0.696268	0.225956	0.315082
C115	C	0.243184	-0.274034	-0.184920
C116	C	0.743184	0.225966	0.315080
C117	C	0.266659	-0.245338	-0.218414
C118	C	0.766659	0.254662	0.281586
C119	C	0.649081	-0.333382	-0.251867
C120	C	1.149081	0.166618	0.248133
C121	C	0.649088	-0.383316	-0.251873
C122	C	1.149088	0.116684	0.248127
C123	C	0.677941	-0.692964	-0.218505
C124	C	1.177941	-0.192964	0.281495
C125	C	0.677996	-0.880637	-0.218525
C126	C	1.177996	-0.380637	0.281475
O127	O	0.702464	-0.904905	-0.190134
O128	O	1.202464	-0.404905	0.309866
N129	N	0.649256	-0.904101	-0.251932
N130	N	1.149256	-0.404101	0.248068
C131	C	0.620501	-0.880644	-0.285339
C132	C	1.120501	-0.380644	0.214661
O133	O	0.596059	-0.904909	-0.313758
O134	O	1.096059	-0.404909	0.186242
C135	C	0.620448	-0.692972	-0.285321
C136	C	1.120448	-0.192972	0.214679
C137	C	0.649187	-0.669510	-0.251908
C138	C	1.149187	-0.169510	0.248092
C139	C	0.706679	-0.669502	-0.185095
C140	C	1.206679	-0.169502	0.314905
C141	C	0.706663	-0.622587	-0.185088
C142	C	1.206663	-0.122587	0.314912
C143	C	0.677909	-0.599133	-0.218491
C144	C	1.177909	-0.099133	0.281509
C145	C	0.649172	-0.622595	-0.251901
C146	C	1.149172	-0.122595	0.248099
C147	C	0.591696	-0.669516	-0.318730
C148	C	1.091696	-0.169516	0.181270
C149	C	0.591686	-0.622595	-0.318723
C150	C	1.091686	-0.122595	0.181277
C151	C	0.620425	-0.599133	-0.285310
C152	C	1.120425	-0.099133	0.214690
C153	C	0.620402	-0.552226	-0.285297
C154	C	1.120402	-0.052226	0.214703
N155	N	0.649143	-0.528762	-0.251890
N156	N	1.149143	-0.028762	0.248110
C157	C	0.677897	-0.552215	-0.218487
C158	C	1.177897	-0.052215	0.281513
C159	C	0.620530	-0.979175	-0.285345
C160	C	1.120530	-0.479175	0.214655
C161	C	0.620542	-1.026093	-0.285349
C162	C	1.120542	-0.526093	0.214651
C163	C	0.678039	-1.026082	-0.218536
C164	C	1.178039	-0.526082	0.281464
C165	C	0.678024	-0.979163	-0.218530
C166	C	1.178024	-0.479163	0.281470
C167	C	0.649271	-0.955711	-0.251938
C168	C	1.149271	-0.455711	0.248062
C169	C	0.677861	-0.453689	-0.218475
C170	C	1.177861	0.046311	0.281525
C171	C	0.677841	-0.406770	-0.218470
C172	C	1.177841	0.093230	0.281530
C173	C	0.620347	-0.406785	-0.285285
C174	C	1.120347	0.093215	0.214715
C175	C	0.620364	-0.453700	-0.285289
C176	C	1.120364	0.046300	0.214711
C177	C	0.649125	-0.477151	-0.251882
C178	C	1.149125	0.022849	0.248118
O179	O	0.595951	-0.527929	-0.313678
O180	O	1.095951	-0.027929	0.186322
O181	O	0.702341	-0.527943	-0.190081
O182	O	1.202341	-0.027943	0.309919
C183	C	0.677957	-0.739879	-0.218512
C184	C	1.177957	-0.239879	0.281488
C185	C	0.649219	-0.763341	-0.251921
C186	C	1.149219	-0.263341	0.248079
C187	C	0.620466	-0.739888	-0.285324
C188	C	1.120466	-0.239888	0.214676
C189	C	0.649232	-0.810259	-0.251925
C190	C	1.149232	-0.310259	0.248075
C191	C	0.677985	-0.833713	-0.218522
C192	C	1.177985	-0.333713	0.281478
C193	C	0.706726	-0.810248	-0.185115
C194	C	1.206726	-0.310248	0.314885
C195	C	0.706710	-0.763333	-0.185109
C196	C	1.206710	-0.263333	0.314891
C197	C	0.591725	-0.763352	-0.318731
C198	C	1.091725	-0.263352	0.181269
C199	C	0.591743	-0.810268	-0.318735
C200	C	1.091743	-0.310268	0.181265
C201	C	0.620496	-0.833721	-0.285332
C202	C	1.120496	-0.333721	0.214668
C203	C	0.766341	-0.216708	-0.251908
C204	C	1.266341	0.283292	0.248092
C205	C	0.816275	-0.216729	-0.251914
C206	C	1.316275	0.283271	0.248086
C207	C	0.649192	-0.216639	-0.388266
C208	C	1.149192	0.283361	0.111734
C209	C	0.649204	-0.216630	-0.446380
C210	C	1.149204	0.283370	0.053620
C211	C	0.649256	-0.099481	-0.251930
C212	C	1.149256	0.400519	0.248070
C213	C	0.649296	-0.049546	-0.251946
C214	C	1.149296	0.450454	0.248054
C215	C	0.620506	-0.187831	-0.806754
C216	C	1.120506	0.312169	-0.306754
C217	C	0.620508	-0.187823	-0.861358
C218	C	1.120508	0.312177	-0.361358
O219	O	0.596086	-0.163386	-0.889605
O220	O	1.096086	0.336614	-0.389605
N221	N	0.649219	-0.216560	-0.888663
N222	N	1.149219	0.283440	-0.388663
C223	C	0.677926	-0.245309	-0.861359
C224	C	1.177926	0.254691	-0.361359
O225	O	0.702346	-0.269752	-0.889598
O226	O	1.202346	0.230248	-0.389598
C227	C	0.677921	-0.245320	-0.806756
C228	C	1.177921	0.254680	-0.306756
C229	C	0.649211	-0.216578	-0.779455
C230	C	1.149211	0.283422	-0.279455
C231	C	0.591799	-0.159092	-0.779453
C232	C	1.091799	0.340908	-0.279453
C233	C	0.591797	-0.159100	-0.724852
C234	C	1.091797	0.340900	-0.224852
C235	C	0.620503	-0.187846	-0.697553
C236	C	1.120503	0.312154	-0.197553
C237	C	0.649210	-0.216585	-0.724854
C238	C	1.149210	0.283415	-0.224854
C239	C	0.706625	-0.274071	-0.779454
C240	C	1.206625	0.225929	-0.279454
C241	C	0.706617	-0.274079	-0.724847
C242	C	1.206617	0.225921	-0.224847
C243	C	0.677908	-0.245337	-0.697546
C244	C	1.177908	0.254663	-0.197546
C245	C	0.677913	-0.245340	-0.642954
C246	C	1.177913	0.254660	-0.142954
N247	N	0.649203	-0.216603	-0.615650
N248	N	1.149203	0.283397	-0.115650
C249	C	0.620498	-0.187856	-0.642950
C250	C	1.120498	0.312144	-0.142950
C251	C	0.677933	-0.245287	-0.976030
C252	C	1.177933	0.254713	-0.476030
C253	C	0.677941	-0.245275	-1.030632
C254	C	1.177941	0.254725	-0.530632
C255	C	0.620523	-0.187789	-1.030628
C256	C	1.120523	0.312211	-0.530628
C257	C	0.620518	-0.187799	-0.976024
C258	C	1.120518	0.312201	-0.476024
C259	C	0.649223	-0.216550	-0.948726
C260	C	1.149223	0.283450	-0.448726
C261	C	0.620496	-0.187874	-0.528284
C262	C	1.120496	0.312126	-0.028284
C263	C	0.620499	-0.187883	-0.473679
C264	C	1.120499	0.312117	0.026321
C265	C	0.677915	-0.245371	-0.473689
C266	C	1.177915	0.254629	0.026311
C267	C	0.677914	-0.245361	-0.528289
C268	C	1.177914	0.254639	-0.028289
C269	C	0.649202	-0.216611	-0.555586
C270	C	1.149202	0.283389	-0.055586
O271	O	0.702322	-0.269765	-0.614674
O272	O	1.202322	0.230235	-0.114674
O273	O	0.596077	-0.163422	-0.614705
O274	O	1.096077	0.336578	-0.114705
C275	C	0.649159	-0.216647	-0.116050
C276	C	1.149159	0.283353	0.383950
C277	C	0.649234	-0.216529	-0.057936
C278	C	1.149234	0.283471	0.442064
H279	H	0.121612	-0.135924	-0.346182
H280	H	0.621612	0.364076	0.153818
H281	H	0.597116	-0.164463	-0.550503
H282	H	1.097116	0.335537	-0.050503
O283	O	0.268462	-0.304982	-0.148785
O284	O	0.768462	0.195018	0.351215
H285	H	0.289831	-0.284844	-0.122220
H286	H	0.789831	0.215156	0.377780
H287	H	0.701287	-0.268774	-0.451452
H288	H	1.201287	0.231226	0.048548
O289	O	0.560841	-0.128077	-0.808891
O290	O	1.060841	0.371923	-0.308891
H291	H	0.537962	-0.148161	-0.833756
H292	H	1.037962	0.351839	-0.333756
O293	O	0.737580	-0.305091	-0.695407
O294	O	1.237580	0.194909	-0.195407
H295	H	0.732755	-0.300274	-0.652850
H296	H	1.232755	0.199726	-0.152850
H297	H	0.597141	-0.164394	-0.953799
H298	H	1.097141	0.335606	-0.453799
H299	H	0.701324	-0.268674	-1.052857
H300	H	1.201324	0.231326	-0.552857
O301	O	0.560701	-0.738058	-0.354749
O302	O	1.060701	-0.238058	0.145251
H303	H	0.540716	-0.762261	-0.377971
H304	H	1.040716	-0.262261	0.122029
H305	H	0.730137	-0.829352	-0.157916
H306	H	1.230137	-0.329352	0.342084
H307	H	0.596934	-0.387681	-0.312480
H308	H	1.096934	0.112319	0.187520
O309	O	0.708882	-0.276356	-0.557739
O310	O	1.208882	0.223644	-0.057739
H311	H	0.688756	-0.299200	-0.582601
H312	H	1.188756	0.200800	-0.082601
O313	O	0.708900	-0.276294	-0.946587
O314	O	1.208900	0.223706	-0.446587
H315	H	0.731768	-0.256200	-0.921720
H316	H	1.231768	0.243800	-0.421720
H317	H	-0.094225	-0.164654	-0.312694
H318	H	0.405775	0.335346	0.187306
O319	O	0.589560	-0.156782	-1.060076
O320	O	1.089560	0.343218	-0.560076
H321	H	0.594387	-0.161608	-1.102631
H322	H	1.094387	0.338392	-0.602631
H323	H	0.730002	-0.297476	-0.801673
H324	H	1.230002	0.202524	-0.301673
H325	H	-0.179333	-0.164666	-0.312686
H326	H	0.320667	0.335334	0.187314
H327	H	0.177160	-0.297413	-0.157642
H328	H	0.677160	0.202587	0.342358
O329	O	0.708847	-0.381467	-0.182435
O330	O	1.208847	0.118533	0.317565
H331	H	0.704006	-0.344901	-0.188038
H332	H	1.204006	0.155099	0.311962
H333	H	0.262371	-0.135902	-0.346172
H334	H	0.762371	0.364098	0.153828
H335	H	0.036507	-0.135938	-0.346184
H336	H	0.536507	0.364062	0.153816
O337	O	0.709059	-1.051387	-0.182518
O338	O	1.209059	-0.551387	0.317482
H339	H	0.688975	-1.072795	-0.155900
H340	H	1.188975	-0.572795	0.344100
H341	H	0.036401	-0.297451	-0.157656
H342	H	0.536401	0.202549	0.342344
H343	H	0.701282	-0.472778	-0.191274
H344	H	1.201282	0.027222	0.308726
H345	H	0.393062	-0.164557	-0.312664
H346	H	0.893062	0.335443	0.187336
H347	H	0.568417	-0.135697	-0.702628
H348	H	1.068417	0.364303	-0.202628
O349	O	0.589535	-0.156880	-0.444231
O350	O	1.089535	0.343120	0.055769
H351	H	0.569573	-0.136892	-0.472391
H352	H	1.069573	0.363108	0.027609
H353	H	0.730096	-0.688593	-0.157894
H354	H	1.230096	-0.188593	0.342106
H355	H	0.730066	-0.603487	-0.157882
H356	H	1.230066	-0.103487	0.342118
H357	H	0.568336	-0.829366	-0.345943
H358	H	1.068336	-0.329366	0.154057
O359	O	0.484384	-0.156960	-0.321515
O360	O	0.984384	0.343040	0.178485
H361	H	0.505763	-0.177098	-0.348071
H362	H	1.005763	0.322902	0.151929
O363	O	0.484312	-0.276237	-0.182254
O364	O	0.984312	0.223763	0.317746
H365	H	0.460101	-0.296194	-0.158969
H366	H	0.960101	0.203806	0.341031
H367	H	0.393004	-0.268680	-0.191117
H368	H	0.893004	0.231320	0.308883
H369	H	0.597136	-1.045192	-0.312552
H370	H	1.097136	-0.545192	0.187448
O371	O	0.737713	-0.738030	-0.149076
O372	O	1.237713	-0.238030	0.350924
H373	H	0.757710	-0.762227	-0.125857
H374	H	1.257710	-0.262227	0.374143
H375	H	0.121510	-0.297433	-0.157645
H376	H	0.621510	0.202567	0.342355
O377	O	0.560701	-0.694815	-0.354772
O378	O	1.060701	-0.194815	0.145228
H379	H	0.540712	-0.670617	-0.378000
H380	H	1.040712	-0.170617	0.122000
H381	H	-0.179400	-0.268781	-0.191142
H382	H	0.320600	0.231219	0.308858
O383	O	-0.088074	-0.276349	-0.182285
O384	O	0.411926	0.223651	0.317715
H385	H	-0.097083	-0.311620	-0.191182
H386	H	0.402917	0.188380	0.308818
O387	O	0.171054	-0.128333	-0.355034
O388	O	0.671054	0.371667	0.144966
H389	H	0.195267	-0.108383	-0.378325
H390	H	0.695267	0.391617	0.121675
H391	H	0.701426	-0.960064	-0.191323
H392	H	1.201426	-0.460064	0.308677
O393	O	0.589505	-0.953881	-0.321368
O394	O	1.089505	-0.453881	0.178632
H395	H	0.569519	-0.978084	-0.344588
H396	H	1.069519	-0.478084	0.155412
H397	H	0.568272	-0.603502	-0.345930
H398	H	1.068272	-0.103502	0.154070
H399	H	0.596964	-0.472804	-0.312498
H400	H	1.096964	0.027196	0.187502
