data_functionalizedCrystal
_audit_creation_method	'MofGen! by Chris Wilmer'
_symmetry_space_group_name_H-M	'P1'
_symmetry_Int_Tables_number	1
_symmetry_cell_setting	triclinic
loop_
_symmetry_equiv_pos_as_xyz
  x,y,z
_cell_length_a	12.594517
_cell_length_b	25.639239
_cell_length_c	12.594509
_cell_angle_alpha	89.965872
_cell_angle_beta	89.978673
_cell_angle_gamma	90.038486
loop_
_atom_site_label
_atom_site_type_symbol
_atom_site_fract_x
_atom_site_fract_y
_atom_site_fract_z
Zn1	Zn	1.627100	-0.208138	-0.601816
Zn2	Zn	1.626920	-0.295580	-0.423819
Zn3	Zn	1.449103	-0.208160	-0.423845
Zn4	Zn	1.449015	-0.295544	-0.601750
O5	O	1.538035	-0.251855	-0.512808
O6	O	1.776022	-0.219743	-0.578222
O7	O	1.603294	-0.284008	-0.274877
O8	O	1.472827	-0.134992	-0.447492
O9	O	1.775890	-0.283987	-0.447448
O10	O	1.603600	-0.134976	-0.578247
O11	O	1.472653	-0.219781	-0.274896
O12	O	1.300146	-0.219746	-0.447427
O13	O	1.472677	-0.283925	-0.750704
O14	O	1.300081	-0.283946	-0.578133
O15	O	1.603515	-0.219708	-0.750753
O16	O	1.603209	-0.368740	-0.447384
O17	O	1.472503	-0.368714	-0.578108
C18	C	1.261494	-0.251845	-0.512776
C19	C	1.143188	-0.251853	-0.512788
C20	C	1.073939	-0.216887	-0.441833
C21	C	1.003090	-0.264579	-0.415643
C22	C	1.003239	-0.204184	-0.538996
C23	C	1.073897	-0.299570	-0.486547
C24	C	1.074052	-0.239144	-0.609946
C25	C	1.003234	-0.286869	-0.583793
C26	C	1.537856	-0.387698	-0.512759
C27	C	1.537876	-0.445812	-0.512774
C28	C	1.606271	-0.806176	-0.444855
C29	C	1.606312	-0.860781	-0.444870
O30	O	1.664278	-0.889019	-0.387070
N31	N	1.538222	-0.888094	-0.512878
C32	C	1.470093	-0.860801	-0.580885
O33	O	1.412182	-0.889048	-0.638733
C34	C	1.470058	-0.806198	-0.580875
C35	C	1.538145	-0.778887	-0.512854
C36	C	1.674353	-0.778865	-0.376841
C37	C	1.674310	-0.724265	-0.376826
C38	C	1.606185	-0.696975	-0.444825
C39	C	1.538102	-0.724286	-0.512839
C40	C	1.401936	-0.778905	-0.648886
C41	C	1.401907	-0.724298	-0.648871
C42	C	1.469994	-0.696987	-0.580850
C43	C	1.469934	-0.642396	-0.580822
N44	N	1.538024	-0.615083	-0.512814
C45	C	1.606150	-0.642372	-0.444815
C46	C	1.470174	-0.975472	-0.580901
C47	C	1.470202	-1.030074	-0.580906
C48	C	1.606423	-1.030050	-0.444892
C49	C	1.606388	-0.975447	-0.444883
C50	C	1.538264	-0.948158	-0.512892
C51	C	1.606054	-0.527707	-0.444787
C52	C	1.606002	-0.473102	-0.444775
C53	C	1.469786	-0.473131	-0.580792
C54	C	1.469833	-0.527731	-0.580801
C55	C	1.537976	-0.555018	-0.512795
O56	O	1.412001	-0.614124	-0.638596
O57	O	1.664062	-0.614119	-0.386986
C58	C	1.815655	-0.251866	-0.512840
C59	C	1.933961	-0.251871	-0.512853
C60	C	1.538106	-0.251810	-0.790429
C61	C	1.538136	-0.251790	-0.908734
C62	C	1.538243	-0.115482	-0.512880
C63	C	1.538332	-0.057368	-0.512911
C64	C	1.466996	-0.286698	-0.977961
C65	C	1.564106	-0.299473	-1.048748
C66	C	1.441102	-0.238984	-1.048746
C67	C	1.635297	-0.264590	-0.977964
C68	C	1.512227	-0.204079	-0.977955
C69	C	1.609405	-0.216836	-1.048711
C70	C	1.538025	-0.251863	-0.236267
C71	C	1.538201	-0.251736	-0.117962
H72	H	1.661446	-0.450867	-0.389381
H73	H	1.105245	-0.228368	-0.692058
C74	C	0.961312	-0.149717	-0.568914
H75	H	0.985535	-0.124912	-0.518406
H76	H	0.885895	-0.150189	-0.569361
H77	H	0.986664	-0.140443	-0.637427
C78	C	1.115638	-0.354055	-0.456505
H79	H	1.057376	-0.376804	-0.444026
H80	H	1.157586	-0.351604	-0.394037
H81	H	1.157694	-0.367374	-0.512933
H82	H	1.729835	-0.801079	-0.321468
H83	H	1.104984	-0.187346	-0.381755
H84	H	1.414316	-0.450903	-0.636153
H85	H	1.669663	-0.187292	-1.079579
H86	H	0.971923	-0.275340	-0.333507
C87	C	1.385790	-0.326636	-0.935986
H88	H	1.404400	-0.360500	-0.960228
H89	H	1.317012	-0.317890	-0.961262
H90	H	1.385881	-0.326162	-0.860563
C91	C	1.395302	-1.060113	-0.655720
H92	H	1.405071	-1.096542	-0.645992
H93	H	1.410833	-1.051127	-0.727244
H94	H	1.323786	-1.051205	-0.640066
H95	H	1.717409	-0.275445	-0.947002
H96	H	1.586055	-0.339798	-1.079845
H97	H	1.661831	-0.953213	-0.389495
C98	C	1.482545	-0.149620	-0.935903
H99	H	1.539357	-0.136254	-0.894418
H100	H	1.420474	-0.152122	-0.893327
H101	H	1.469501	-0.126883	-0.994031
H102	H	1.346434	-0.702083	-0.704256
H103	H	1.661898	-1.052279	-0.389527
H104	H	1.359014	-0.228175	-1.079838
C105	C	1.681001	-0.557715	-0.369975
H106	H	1.721529	-0.533623	-0.329464
H107	H	1.727378	-0.578979	-0.410725
H108	H	1.640318	-0.579050	-0.323560
C109	C	0.961546	-0.326868	-0.664887
H110	H	0.985870	-0.360706	-0.646118
H111	H	0.986917	-0.318123	-0.733673
H112	H	0.886121	-0.326460	-0.664878
H113	H	1.729756	-0.702031	-0.321441
H114	H	1.346487	-0.801133	-0.704271
C115	C	1.395220	-0.945459	-0.655704
H116	H	1.354671	-0.969550	-0.696197
H117	H	1.435886	-0.924121	-0.702120
H118	H	1.348845	-0.924197	-0.614935
H119	H	1.414395	-0.549969	-0.636192
