data_functionalizedCrystal
_audit_creation_method	'MofGen! by Chris Wilmer'
_symmetry_space_group_name_H-M	'P1'
_symmetry_Int_Tables_number	1
_symmetry_cell_setting	triclinic
loop_
_symmetry_equiv_pos_as_xyz
  x,y,z
_cell_length_a	12.759401
_cell_length_b	21.395361
_cell_length_c	21.395356
_cell_angle_alpha	90.031183
_cell_angle_beta	89.986703
_cell_angle_gamma	89.969131
loop_
_atom_site_label
_atom_site_type_symbol
_atom_site_fract_x
_atom_site_fract_y
_atom_site_fract_z
Zn1	Zn	1.606085	0.249449	-0.354195
Zn2	Zn	1.605946	0.354226	-0.249412
Zn3	Zn	1.430402	0.249467	-0.249437
Zn4	Zn	1.430326	0.354193	-0.354158
O5	O	1.518190	0.301834	-0.301801
O6	O	1.753087	0.263354	-0.340300
O7	O	1.582633	0.340351	-0.161737
O8	O	1.453797	0.161786	-0.263360
O9	O	1.752985	0.340334	-0.263316
O10	O	1.582870	0.161773	-0.340325
O11	O	1.453663	0.263385	-0.161756
O12	O	1.283371	0.263352	-0.263324
O13	O	1.453667	0.340277	-0.441841
O14	O	1.283315	0.340294	-0.340262
O15	O	1.582796	0.263322	-0.441868
O16	O	1.582559	0.441900	-0.263281
O17	O	1.453532	0.441875	-0.340237
C18	C	1.245222	0.301822	-0.301792
C19	C	1.128446	0.301832	-0.301803
C20	C	1.518051	0.464621	-0.301766
C21	C	1.518088	0.534262	-0.301772
C22	C	1.518238	0.301793	-0.465224
C23	C	1.518259	0.301776	-0.534865
C24	C	1.073582	0.341960	-0.341798
C25	C	0.963858	0.341968	-0.341805
C26	C	0.963871	0.261719	-0.261816
C27	C	1.073593	0.261708	-0.261813
C28	C	1.073573	0.388293	-0.387978
C29	C	0.963849	0.388301	-0.387984
C30	C	1.792223	0.301846	-0.301809
C31	C	1.909000	0.301851	-0.301813
C32	C	1.518358	0.138410	-0.301849
C33	C	1.518429	0.068769	-0.301870
C34	C	1.585332	0.566968	-0.261742
C35	C	1.585381	0.632403	-0.261756
C36	C	1.518167	0.665131	-0.301793
C37	C	1.450918	0.632418	-0.341831
C38	C	1.450879	0.566984	-0.341820
C39	C	1.423568	0.768845	-0.306706
C40	C	1.423605	0.834278	-0.306713
C41	C	1.518289	0.866951	-0.301830
C42	C	1.612938	0.834184	-0.296928
C43	C	1.612899	0.768750	-0.296917
C44	C	1.518203	0.736083	-0.301810
C45	C	1.585592	0.970609	-0.261813
C46	C	1.585642	1.036046	-0.261831
C47	C	1.451171	1.036059	-0.341904
C48	C	1.451129	0.970624	-0.341888
C49	C	1.518338	0.937903	-0.301840
C50	C	1.585595	0.261606	-1.036677
C51	C	1.585587	0.261621	-0.971241
C52	C	1.518349	0.301693	-0.938504
C53	C	1.451134	0.341764	-0.971207
C54	C	1.451151	0.341752	-1.036641
C55	C	1.423660	0.306655	-0.834831
C56	C	1.423641	0.306662	-0.769398
C57	C	1.518295	0.301733	-0.736683
C58	C	1.612972	0.296783	-0.769409
C59	C	1.612990	0.296771	-0.834843
C60	C	1.518323	0.301710	-0.867551
C61	C	1.585503	0.261684	-0.633035
C62	C	1.585497	0.261703	-0.567598
C63	C	1.451034	0.341843	-0.567565
C64	C	1.451050	0.341827	-0.633001
C65	C	1.518283	0.301744	-0.665732
C66	C	1.518202	0.301828	-0.139013
C67	C	1.518385	0.301669	-0.069372
H68	H	1.118259	0.229028	-0.229249
H69	H	0.919197	0.229050	-0.229258
H70	H	1.690039	0.860785	-0.292952
C71	C	1.659436	0.217627	-0.531633
N72	N	1.715125	0.184426	-0.504544
H73	H	1.640407	1.062673	-0.229235
C74	C	1.717010	0.732708	-0.291525
N75	N	1.795428	0.705561	-0.287464
H76	H	1.396369	0.943994	-0.374482
H77	H	1.103380	0.375359	-0.436527
C78	C	1.376915	0.531007	-0.385867
N79	N	1.321209	0.503908	-0.419045
C80	C	1.119505	0.450529	-0.364378
N81	N	1.154101	0.497404	-0.346602
H82	H	1.396448	1.062705	-0.374506
C83	C	0.917916	0.364902	-0.450302
N84	N	0.883317	0.347274	-0.497237
H85	H	0.934033	0.436813	-0.374898
C86	C	1.659253	0.530978	-0.217680
N87	N	1.714926	0.503870	-0.184490
C88	C	1.659351	0.668386	-0.217714
N89	N	1.715064	0.695486	-0.184541
C90	C	1.659538	0.934614	-0.217768
N91	N	1.715238	0.907504	-0.184596
H92	H	1.346536	0.860953	-0.310698
H93	H	1.346459	0.742249	-0.310685
H94	H	1.640318	0.228994	-0.944616
C95	C	1.376979	0.668420	-0.385871
N96	N	1.321287	0.695536	-0.419043
C97	C	1.659562	0.217518	-1.072677
N98	N	1.715277	0.184312	-1.099793
H99	H	1.690079	0.292742	-0.861486
C100	C	1.717102	0.291363	-0.733428
N101	N	1.795529	0.287282	-0.706324
C102	C	1.659471	0.217599	-0.669041
N103	N	1.715187	0.184395	-0.696159
C104	C	1.377072	0.385923	-0.531558
N105	N	1.321364	0.419127	-0.504434
C106	C	1.377100	0.385893	-0.668967
N107	N	1.321397	0.419086	-0.696057
H108	H	1.346550	0.310692	-0.742757
C109	C	1.319526	0.312077	-0.870810
N110	N	1.241094	0.316161	-0.897909
H111	H	1.396390	0.374391	-0.944548
C112	C	1.377204	0.385823	-1.072607
N113	N	1.321503	0.419015	-1.099698
