data_functionalizedCrystal
_audit_creation_method	'MofGen! by Chris Wilmer'
_symmetry_space_group_name_H-M	'P1'
_symmetry_Int_Tables_number	1
_symmetry_cell_setting	triclinic
loop_
_symmetry_equiv_pos_as_xyz
  x,y,z
_cell_length_a	9.065215
_cell_length_b	15.455313
_cell_length_c	9.065218
_cell_angle_alpha	87.293389
_cell_angle_beta	85.015291
_cell_angle_gamma	92.720304
loop_
_atom_site_label
_atom_site_type_symbol
_atom_site_fract_x
_atom_site_fract_y
_atom_site_fract_z
O1	O	1.966784	0.072117	0.209970
O2	O	1.537499	0.072121	0.227720
O3	O	1.761015	0.072117	0.004203
O4	O	1.743268	0.072121	0.433488
O5	O	1.748232	-0.072145	0.016931
O6	O	1.524717	-0.072141	0.240449
O7	O	1.954002	-0.072145	0.222698
Cu8	Cu	1.738192	-0.085315	0.232736
Cu9	Cu	1.753309	0.085291	0.217683
O10	O	1.730486	-0.072141	0.446216
C11	C	1.476121	-0.000010	0.232380
C12	C	1.312278	-0.000008	0.227282
N13	N	1.727571	-0.205311	0.243322
C14	C	1.822562	-0.250706	0.148400
C15	C	1.814543	-0.341514	0.156420
C16	C	1.711539	-0.386925	0.259370
C17	C	1.616538	-0.341523	0.354297
C18	C	1.624551	-0.250717	0.346269
C19	C	1.676953	-0.658506	0.293983
C20	C	1.668950	-0.749318	0.302007
C21	C	1.866955	-0.749303	0.104127
C22	C	1.874964	-0.658495	0.096114
C23	C	1.779958	-0.613101	0.191036
N24	N	1.703343	-0.479745	0.267574
N25	N	1.788147	-0.520283	0.182824
C26	C	2.015380	-0.000013	0.218039
C27	C	2.179223	-0.000008	0.223136
C28	C	1.752918	-0.000013	-0.044420
C29	C	1.747819	-0.000008	-0.208263
N30	N	1.763942	0.205286	0.207085
C31	C	1.738583	-0.000010	0.494838
C32	C	1.743683	-0.000008	0.658681
H33	H	1.906445	-0.213739	0.064573
H34	H	1.585068	-0.786287	0.385848
H35	H	1.547197	-0.213756	0.423563
H36	H	1.958838	-0.621524	0.012284
N37	N	1.917048	-0.390478	0.054091
H38	H	1.983540	-0.347931	-0.012321
H39	H	1.979679	-0.428124	0.114882
N40	N	1.969420	-0.798263	0.001752
H41	H	1.948719	-0.862679	0.022455
H42	H	1.952381	-0.782400	-0.104566
N43	N	1.574479	-0.609551	0.396350
H44	H	1.508015	-0.652100	0.462785
H45	H	1.635145	-0.571857	0.459044
N46	N	1.505428	-0.390496	0.465328
H47	H	1.514766	-0.454910	0.456015
H48	H	1.525262	-0.374612	0.568841
