data_functionalizedCrystal
_audit_creation_method	'MofGen! by Chris Wilmer'
_symmetry_space_group_name_H-M	'P1'
_symmetry_Int_Tables_number	1
_symmetry_cell_setting	triclinic
loop_
_symmetry_equiv_pos_as_xyz
  x,y,z
_cell_length_a	8.559649
_cell_length_b	15.072220
_cell_length_c	8.559649
_cell_angle_alpha	90.001013
_cell_angle_beta	69.778664
_cell_angle_gamma	90.011665
loop_
_atom_site_label
_atom_site_type_symbol
_atom_site_fract_x
_atom_site_fract_y
_atom_site_fract_z
O1	O	2.126903	0.073768	-0.055048
O2	O	1.651418	0.073772	0.028733
O3	O	1.931051	0.073768	-0.250900
O4	O	1.847270	0.073773	0.224585
O5	O	1.930988	-0.073797	-0.250879
O6	O	1.651355	-0.073793	0.028754
O7	O	2.126840	-0.073797	-0.055027
Zn8	Zn	1.889087	-0.097224	-0.013133
Zn9	Zn	1.889170	0.097199	-0.013161
O10	O	1.847207	-0.073792	0.224606
C11	C	1.591077	-0.000010	0.035093
C12	C	1.411378	-0.000008	0.053992
N13	N	1.889042	-0.229913	-0.013116
C14	C	1.889168	-0.589114	-0.013167
C15	C	1.739149	-0.551505	0.136067
C16	C	1.739396	-0.448679	0.136514
C17	C	1.889104	-0.410910	-0.013141
C18	C	2.053837	-0.448203	0.003058
C19	C	2.052972	-0.551060	0.004094
C20	C	1.876011	-0.551216	-0.179179
C21	C	1.871988	-0.448353	-0.177568
C22	C	1.889079	-0.310197	-0.013132
C23	C	1.889204	-0.689828	-0.013175
C24	C	2.187180	-0.000013	-0.061387
C25	C	2.366879	-0.000008	-0.080286
C26	C	1.937369	-0.000013	-0.311198
C27	C	1.956268	-0.000010	-0.490898
N28	N	1.889230	0.229888	-0.013192
C29	C	1.840889	-0.000009	0.284904
C30	C	1.821990	-0.000007	0.464604
H31	H	1.615579	-0.576266	0.129892
H32	H	1.692562	-0.000013	-0.436008
H33	H	2.067738	-0.575041	0.124531
H34	H	1.311990	-0.000002	0.183420
H35	H	1.466258	-0.000005	-0.209705
O36	O	1.592393	-0.418744	0.128746
C37	C	1.324733	-0.457533	0.113974
C38	C	1.491135	-0.491548	0.122794
H39	H	1.242834	-0.516377	0.109124
H40	H	1.258605	-0.415694	0.228804
H41	H	1.349626	-0.415335	-0.002667
H42	H	1.466389	-0.533783	0.239363
H43	H	1.557212	-0.533339	0.007883
O44	O	1.746391	-0.582471	0.282637
C45	C	1.746390	-0.710864	0.450380
C46	C	1.738200	-0.675916	0.284311
H47	H	1.739735	-0.786417	0.451802
H48	H	1.868226	-0.688860	0.464562
H49	H	1.637141	-0.683173	0.557781
H50	H	1.847363	-0.703590	0.176812
H51	H	1.616296	-0.697911	0.270274
H52	H	2.085687	-0.000014	-0.590276
H53	H	2.166988	-0.575937	-0.101427
O54	O	1.746929	-0.419456	0.284053
C55	C	1.760169	-0.459529	0.551720
C56	C	1.751669	-0.492744	0.384687
H57	H	1.763969	-0.518765	0.633143
H58	H	1.877115	-0.417703	0.527905
H59	H	1.645585	-0.417517	0.617814
H60	H	1.866169	-0.534792	0.318507
H61	H	1.634650	-0.534522	0.408614
H62	H	2.069494	-0.422432	0.121992
O63	O	2.189142	-0.418864	-0.124061
C64	C	2.347529	-0.292283	-0.265378
C65	C	2.194264	-0.325390	-0.121326
H66	H	2.351702	-0.216705	-0.263237
H67	H	2.465472	-0.320205	-0.250733
H68	H	2.338813	-0.315436	-0.388895
H69	H	2.202818	-0.302249	0.002257
H70	H	2.076384	-0.297474	-0.136119
O71	O	1.995818	-0.417843	-0.314471
C72	C	2.228701	-0.455420	-0.559624
C73	C	2.088499	-0.490089	-0.404666
H74	H	2.303694	-0.513812	-0.632572
H75	H	2.172297	-0.416923	-0.641819
H76	H	2.313982	-0.409842	-0.519127
H77	H	2.003169	-0.535702	-0.445013
H78	H	2.145016	-0.528535	-0.322508
H79	H	1.759623	-0.577206	-0.199912
H80	H	1.750914	-0.423980	-0.190345
H81	H	1.985656	-0.575536	-0.289990
