data_functionalizedCrystal
_audit_creation_method	'MofGen! by Chris Wilmer'
_symmetry_space_group_name_H-M	'P1'
_symmetry_Int_Tables_number	1
_symmetry_cell_setting	triclinic
loop_
_symmetry_equiv_pos_as_xyz
  x,y,z
_cell_length_a	21.395362
_cell_length_b	14.908520
_cell_length_c	21.395355
_cell_angle_alpha	93.280325
_cell_angle_beta	89.956060
_cell_angle_gamma	93.337688
loop_
_atom_site_label
_atom_site_type_symbol
_atom_site_fract_x
_atom_site_fract_y
_atom_site_fract_z
Zn1	Zn	0.943513	-0.358891	-0.368965
Zn2	Zn	1.443513	0.141109	0.131035
Zn3	Zn	0.937386	-0.509736	-0.270231
Zn4	Zn	1.437386	-0.009736	0.229769
Zn5	Zn	0.838727	-0.358933	-0.264168
Zn6	Zn	1.338727	0.141067	0.235832
Zn7	Zn	0.832667	-0.509755	-0.374937
Zn8	Zn	1.332667	-0.009755	0.125063
O9	O	0.888073	-0.434329	-0.319575
O10	O	1.388073	0.065671	0.180425
O11	O	1.030380	-0.378876	-0.355906
O12	O	1.530380	0.121124	0.144094
O13	O	0.924270	-0.489742	-0.181749
O14	O	1.424270	0.010258	0.318251
O15	O	0.857727	-0.232679	-0.273033
O16	O	1.357727	0.267321	0.226967
O17	O	1.025878	-0.489701	-0.283367
O18	O	1.525878	0.010299	0.216633
O19	O	0.934713	-0.232649	-0.350027
O20	O	1.434713	0.267351	0.149973
O21	O	0.851786	-0.378948	-0.177295
O22	O	1.351786	0.121052	0.322705
O23	O	0.750244	-0.378966	-0.278823
O24	O	1.250244	0.121034	0.221177
O25	O	0.847399	-0.489733	-0.461822
O26	O	1.347399	0.010267	0.038178
O27	O	0.745792	-0.489773	-0.360205
O28	O	1.245792	0.010227	0.139795
O29	O	0.928838	-0.378894	-0.457435
O30	O	1.428838	0.121106	0.042565
O31	O	0.918395	-0.635987	-0.289157
O32	O	1.418395	-0.135987	0.210843
O33	O	0.841458	-0.636001	-0.366084
O34	O	1.341458	-0.136001	0.133916
C35	C	0.725284	-0.434377	-0.319504
C36	C	1.225284	0.065623	0.180496
C37	C	0.655641	-0.434419	-0.319490
C38	C	1.155641	0.065581	0.180510
C39	C	0.620623	-0.492193	-0.361808
C40	C	1.120623	0.007807	0.138192
C41	C	0.555188	-0.492171	-0.361835
C42	C	1.055188	0.007829	0.138165
C43	C	0.524774	-0.434384	-0.319533
C44	C	1.024774	0.065616	0.180467
C45	C	0.559800	-0.376599	-0.277212
C46	C	1.059800	0.123401	0.222788
C47	C	0.625234	-0.376616	-0.277190
C48	C	1.125234	0.123384	0.222810
C49	C	0.421340	-0.427116	-0.262837
C50	C	0.921340	0.072884	0.237163
C51	C	0.355907	-0.427105	-0.262858
C52	C	0.855907	0.072895	0.237142
C53	C	0.322956	-0.434325	-0.319600
C54	C	0.822956	0.065675	0.180400
C55	C	0.355444	-0.441575	-0.376324
C56	C	0.855444	0.058425	0.123676
C57	C	0.420877	-0.441593	-0.376302
C58	C	0.920877	0.058407	0.123698
C59	C	0.453823	-0.434358	-0.319552
C60	C	0.953823	0.065642	0.180448
C61	C	0.216986	-0.492079	-0.361951
C62	C	0.716986	0.007921	0.138049
C63	C	0.151550	-0.492050	-0.361979
C64	C	0.651550	0.007950	0.138021
C65	C	0.156163	-0.376483	-0.277350
C66	C	0.656163	0.123517	0.222650
C67	C	0.221598	-0.376506	-0.277327
C68	C	0.721598	0.123494	0.222673
C69	C	0.252005	-0.434309	-0.319627
C70	C	0.752005	0.065691	0.180373
C71	C	0.878621	-0.668729	-0.328940
C72	C	1.378621	-0.168729	0.171060
C73	C	0.874634	-0.769006	-0.332968
C74	C	1.374634	-0.269006	0.167032
C75	C	0.947340	-0.957362	-0.260497
C76	C	1.447340	-0.457362	0.239503
C77	C	0.943596	-1.051582	-0.264279
C78	C	1.443596	-0.551582	0.235721
C79	C	0.863407	-1.051666	-0.344317
C80	C	1.363407	-0.551666	0.155683
C81	C	0.867151	-0.957446	-0.340535
C82	C	1.367151	-0.457446	0.159465
C83	C	0.909118	-0.910298	-0.298623
C84	C	1.409118	-0.410298	0.201377
C85	C	0.912858	-0.816077	-0.294838
C86	C	1.412858	-0.316077	0.205162
C87	C	0.832672	-0.816163	-0.374879
C88	C	1.332672	-0.316163	0.125121
C89	C	0.828929	-0.910382	-0.378661
C90	C	1.328929	-0.410382	0.121339
C91	C	1.051498	-0.434282	-0.319647
C92	C	1.551498	0.065718	0.180353
C93	C	1.121141	-0.434262	-0.319677
C94	C	1.621141	0.065738	0.180323
C95	C	0.888126	-0.434311	-0.482998
C96	C	1.388126	0.065689	0.017002
C97	C	0.888148	-0.434303	-0.552639
C98	C	1.388148	0.065697	-0.052639
C99	C	0.897580	-0.199014	-0.310187
C100	C	1.397580	0.300986	0.189813
C101	C	0.901631	-0.098737	-0.306187
C102	C	1.401631	0.401263	0.193813
C103	C	0.930552	-0.376587	-0.583068
C104	C	1.430552	0.123413	-0.083068
C105	C	0.930553	-0.376548	-0.648502
C106	C	1.430553	0.123452	-0.148502
C107	C	0.888156	-0.434242	-0.683505
C108	C	1.388156	0.065758	-0.183505
C109	C	0.845745	-0.491962	-0.653068
C110	C	1.345745	0.008038	-0.153068
C111	C	0.845741	-0.491992	-0.587635
C112	C	1.345741	0.008008	-0.087635
C113	C	0.879933	-0.515477	-0.790423
C114	C	1.379933	-0.015477	-0.290423
C115	C	0.879941	-0.515447	-0.855855
C116	C	1.379941	-0.015447	-0.355855
C117	C	0.888164	-0.434146	-0.885322
C118	C	1.388164	0.065854	-0.385322
C119	C	0.896392	-0.352872	-0.849348
C120	C	1.396392	0.147128	-0.349348
C121	C	0.896388	-0.352902	-0.783915
C122	C	1.396388	0.147098	-0.283915
C123	C	0.888155	-0.434214	-0.754456
C124	C	1.388155	0.065786	-0.254456
C125	C	0.930570	-0.376383	-0.986702
C126	C	1.430570	0.123617	-0.486702
C127	C	0.930566	-0.376343	-1.052137
C128	C	1.430566	0.123657	-0.552137
C129	C	0.845761	-0.491764	-1.056701
C130	C	1.345761	0.008236	-0.556701
C131	C	0.845762	-0.491797	-0.991267
C132	C	1.345762	0.008203	-0.491267
C133	C	0.888170	-0.434107	-0.956272
C134	C	1.388170	0.065893	-0.456272
C135	C	0.888059	-0.434282	-0.156786
C136	C	1.388059	0.065718	0.343214
C137	C	0.888169	-0.434036	-0.087135
C138	C	1.388169	0.065964	0.412865
H139	H	0.447326	-0.447493	-0.422489
H140	H	0.947326	0.052507	0.077511
C141	C	0.977191	-0.313123	-0.544573
C142	C	1.477191	0.186877	-0.044573
H143	H	0.971119	-0.321409	-0.501245
H144	H	1.471119	0.178591	-0.001245
H145	H	0.970471	-0.252505	-0.552864
H146	H	1.470471	0.247495	-0.052864
H147	H	1.018758	-0.326316	-0.555855
H148	H	1.518758	0.173684	-0.055855
H149	H	0.328616	-0.447453	-0.422529
H150	H	0.828616	0.052547	0.077471
H151	H	0.974722	-1.089898	-0.233234
H152	H	1.474722	-0.589898	0.266766
H153	H	0.965095	-0.329338	-1.076911
H154	H	1.465095	0.170662	-0.576911
H155	H	0.811235	-0.538731	-1.085199
H156	H	1.311235	-0.038731	-0.585199
C157	C	0.817248	-1.103539	-0.390413
C158	C	1.317248	-0.603539	0.109587
H159	H	0.820492	-1.166393	-0.387201
H160	H	1.320492	-0.666393	0.112799
H161	H	0.827004	-1.088058	-0.431903
H162	H	1.327004	-0.588058	0.068097
H163	H	0.775763	-1.088179	-0.380564
H164	H	1.275763	-0.588179	0.119436
C165	C	0.654070	-0.555789	-0.408323
C166	C	1.154070	-0.055789	0.091677
H167	H	0.698055	-0.547539	-0.402243
H168	H	1.198055	-0.047539	0.097757
H169	H	0.643932	-0.542699	-0.449922
H170	H	1.143932	-0.042699	0.050078
H171	H	0.640863	-0.616378	-0.401487
H172	H	1.140863	-0.116378	0.098513
C173	C	0.250437	-0.555648	-0.408484
C174	C	0.750437	-0.055648	0.091516
H175	H	0.220207	-0.590044	-0.433699
H176	H	0.720207	-0.090044	0.066301
H177	H	0.274338	-0.594915	-0.386034
H178	H	0.774338	-0.094915	0.113966
H179	H	0.277395	-0.521194	-0.434438
H180	H	0.777395	-0.021194	0.065562
H181	H	0.903089	-0.286669	-0.873338
H182	H	1.403089	0.213331	-0.373338
C183	C	0.959015	-0.764210	-0.248735
C184	C	1.459015	-0.264210	0.251265
H185	H	0.955767	-0.701355	-0.251937
H186	H	1.455767	-0.201355	0.248063
H187	H	1.000498	-0.779573	-0.258575
H188	H	1.500498	-0.279573	0.241425
H189	H	0.949247	-0.779697	-0.207246
H190	H	1.449247	-0.279697	0.292754
C191	C	0.663755	-0.313067	-0.230635
C192	C	1.163755	0.186933	0.269365
H193	H	0.636272	-0.278649	-0.205442
H194	H	1.136272	0.221351	0.294558
H195	H	0.690906	-0.273819	-0.253069
H196	H	1.190906	0.226181	0.246931
H197	H	0.687845	-0.347535	-0.204661
H198	H	1.187845	0.152465	0.295339
C199	C	0.977205	-0.312914	-0.948204
C200	C	1.477205	0.187086	-0.448204
H201	H	1.002453	-0.278521	-0.975700
H202	H	1.502453	0.221479	-0.475700
H203	H	1.003113	-0.347422	-0.924079
H204	H	1.503113	0.152578	-0.424079
H205	H	0.954815	-0.273625	-0.921088
H206	H	1.454815	0.226375	-0.421088
H207	H	0.981507	-0.918973	-0.226366
H208	H	1.481507	-0.418973	0.273634
C209	C	0.122716	-0.312907	-0.230826
C210	C	0.622716	0.187093	0.269174
H211	H	0.078730	-0.321170	-0.236899
H212	H	0.578730	0.178830	0.263101
H213	H	0.135919	-0.252317	-0.237645
H214	H	0.635919	0.247683	0.262355
H215	H	0.132855	-0.326021	-0.189228
H216	H	0.632855	0.173979	0.310772
H217	H	0.123040	-0.539095	-0.396443
H218	H	0.623040	-0.039095	0.103557
H219	H	0.526671	-0.539217	-0.396298
H220	H	1.026671	-0.039217	0.103702
C221	C	0.977202	-0.313065	-0.681983
C222	C	1.477202	0.186935	-0.181983
H223	H	1.002461	-0.278717	-0.651769
H224	H	1.502461	0.221283	-0.151769
H225	H	0.954830	-0.273749	-0.705919
H226	H	1.454830	0.226251	-0.205919
H227	H	1.003107	-0.347573	-0.708907
H228	H	1.503107	0.152427	-0.208907
C229	C	0.799122	-0.555292	-0.957793
C230	C	1.299122	-0.055292	-0.457793
H231	H	0.773874	-0.589652	-0.988009
H232	H	1.273874	-0.089652	-0.488009
H233	H	0.773216	-0.520801	-0.930865
H234	H	1.273216	-0.020801	-0.430865
H235	H	0.821504	-0.594610	-0.933862
H236	H	1.321504	-0.094610	-0.433862
H237	H	0.250110	-0.329465	-0.242864
H238	H	0.750110	0.170535	0.257136
C239	C	0.870887	-0.604911	-0.758014
C240	C	1.370887	-0.104911	-0.258014
H241	H	0.872057	-0.593290	-0.713893
H242	H	1.372057	-0.093290	-0.213893
H243	H	0.903438	-0.642845	-0.770282
H244	H	1.403438	-0.142845	-0.270282
H245	H	0.831575	-0.633764	-0.769865
H246	H	1.331575	-0.133764	-0.269865
H247	H	0.535033	-0.329547	-0.242770
H248	H	1.035033	0.170453	0.257230
C249	C	0.320176	-0.419129	-0.200465
C250	C	0.820176	0.080871	0.299535
H251	H	0.349172	-0.414814	-0.166669
H252	H	0.849172	0.085186	0.333331
H253	H	0.292542	-0.470813	-0.196967
H254	H	0.792542	0.029187	0.303033
H255	H	0.296779	-0.366822	-0.199263
H256	H	0.796779	0.133178	0.300737
H257	H	0.448164	-0.421233	-0.216627
H258	H	0.948164	0.078767	0.283373
H259	H	0.794762	-0.948783	-0.412786
H260	H	1.294762	-0.448783	0.087214
C261	C	0.790628	-0.764391	-0.416821
C262	C	1.290628	-0.264391	0.083179
H263	H	0.798869	-0.701524	-0.408569
H264	H	1.298869	-0.201524	0.091431
H265	H	0.747919	-0.779910	-0.408220
H266	H	1.247919	-0.279910	0.091780
H267	H	0.799168	-0.779789	-0.459551
H268	H	1.299168	-0.279789	0.040449
H269	H	0.903086	-0.286726	-0.754629
H270	H	1.403086	0.213274	-0.254629
H271	H	0.811223	-0.538933	-0.681571
H272	H	1.311223	-0.038933	-0.181571
C273	C	0.870898	-0.604842	-0.895423
C274	C	1.370898	-0.104842	-0.395423
H275	H	0.872088	-0.593183	-0.938612
H276	H	1.372088	-0.093183	-0.438612
H277	H	0.831588	-0.633708	-0.885832
H278	H	1.331588	-0.133708	-0.385832
H279	H	0.903453	-0.642784	-0.886240
H280	H	1.403453	-0.142784	-0.386240
H281	H	0.811208	-0.538991	-0.562859
H282	H	1.311208	-0.038991	-0.062859
