data_functionalizedCrystal
_audit_creation_method	'MofGen! by Chris Wilmer'
_symmetry_space_group_name_H-M	'P1'
_symmetry_Int_Tables_number	1
_symmetry_cell_setting	triclinic
loop_
_symmetry_equiv_pos_as_xyz
  x,y,z
_cell_length_a	12.759401
_cell_length_b	12.759394
_cell_length_c	12.759393
_cell_angle_alpha	90.031220
_cell_angle_beta	90.019676
_cell_angle_gamma	90.015263
loop_
_atom_site_label
_atom_site_type_symbol
_atom_site_fract_x
_atom_site_fract_y
_atom_site_fract_z
Zn1	Zn	1.606265	-0.418204	0.593979
Zn2	Zn	1.606156	-0.593919	0.418297
Zn3	Zn	1.430564	-0.418256	0.418318
Zn4	Zn	1.430556	-0.593843	0.593938
O5	O	1.518385	-0.506055	0.506133
O6	O	1.753272	-0.441523	0.570683
O7	O	1.582821	-0.570671	0.271279
O8	O	1.453921	-0.271228	0.441646
O9	O	1.753192	-0.570620	0.441610
O10	O	1.583008	-0.271190	0.570704
O11	O	1.453815	-0.441612	0.271295
O12	O	1.283542	-0.441538	0.441607
O13	O	1.453906	-0.570490	0.740965
O14	O	1.283536	-0.570541	0.570634
O15	O	1.582999	-0.441448	0.740995
O16	O	1.582813	-0.740930	0.441570
O17	O	1.453800	-0.740874	0.570613
C18	C	1.245418	-0.506037	0.506119
C19	C	1.128641	-0.506055	0.506137
C20	C	1.073822	-0.438955	0.573449
C21	C	0.964098	-0.438966	0.573456
C22	C	0.964022	-0.573185	0.438836
C23	C	1.073744	-0.573168	0.438825
C24	C	1.518322	-0.779023	0.506108
C25	C	1.518391	-0.895800	0.506132
C26	C	1.652833	-0.895805	0.371861
C27	C	1.720082	-0.950669	0.304737
C28	C	1.720143	-1.060390	0.304766
C29	C	1.652951	-1.115251	0.371927
C30	C	1.585703	-1.060387	0.439051
C31	C	1.585647	-0.950663	0.439013
C32	C	1.451268	-1.060382	0.573326
C33	C	1.451199	-0.950660	0.573294
C34	C	1.384076	-1.115242	0.640487
C35	C	1.316821	-1.060379	0.707607
C36	C	1.316761	-0.950651	0.707575
C37	C	1.383951	-0.895797	0.640417
C38	C	1.792418	-0.506074	0.506149
C39	C	1.909195	-0.506082	0.506156
C40	C	1.518464	-0.505955	0.780167
C41	C	1.518497	-0.505912	0.896944
C42	C	1.518477	-0.232022	0.506182
C43	C	1.518516	-0.115245	0.506203
C44	C	1.518367	-0.506080	0.233166
C45	C	1.518537	-0.505827	0.116390
C46	C	1.585721	-0.438709	0.951823
C47	C	1.585739	-0.438664	1.061547
C48	C	1.451306	-0.573033	1.061503
C49	C	1.451284	-0.573072	0.951781
H50	H	1.652776	-0.806464	0.371817
C51	C	0.930203	-0.751031	0.387352
C52	C	0.903677	-0.646964	0.364858
H53	H	0.892954	-0.796580	0.341676
H54	H	0.912248	-0.766485	0.457909
H55	H	1.003397	-0.760608	0.377706
H56	H	0.830484	-0.637384	0.374510
H57	H	0.921625	-0.631505	0.294283
H58	H	1.774908	-1.105060	0.250113
H59	H	1.640448	-0.384020	0.907178
H60	H	1.383902	-0.806456	0.640378
H61	H	1.396535	-0.627795	0.907097
C62	C	1.062871	-0.306283	0.706509
C63	C	1.134165	-0.365178	0.647430
H64	H	1.100125	-0.260730	0.752177
H65	H	1.020090	-0.352112	0.746619
H66	H	1.020059	-0.266050	0.660796
H67	H	1.176973	-0.405417	0.693144
H68	H	1.176964	-0.319343	0.607317
C69	C	0.840768	-0.424564	0.714813
C70	C	0.903838	-0.365213	0.647451
H71	H	0.803563	-0.379027	0.760490
H72	H	0.883583	-0.470375	0.754910
H73	H	0.792372	-0.464529	0.674718
H74	H	0.952240	-0.325254	0.687546
H75	H	0.861019	-0.319384	0.607350
C76	C	1.197124	-0.714452	0.423968
C77	C	1.134013	-0.646931	0.364832
H78	H	1.234335	-0.759980	0.378286
H79	H	1.154336	-0.754702	0.469664
H80	H	1.245515	-0.674463	0.464046
H81	H	1.085617	-0.686920	0.324760
H82	H	1.176805	-0.606677	0.319118
C83	C	1.779679	-0.782472	0.245052
C84	C	1.793933	-0.890364	0.230912
H85	H	1.825269	-0.745247	0.199471
H86	H	1.795020	-0.764423	0.315640
H87	H	1.709081	-0.764572	0.229617
H88	H	1.864530	-0.908265	0.246355
H89	H	1.778600	-0.908420	0.160308
H90	H	1.640478	-0.383939	1.106225
C91	C	1.726242	-1.272428	0.298870
C92	C	1.653024	-1.235858	0.371964
H93	H	1.726279	-1.346887	0.298891
H94	H	1.794007	-1.247536	0.317090
H95	H	1.708083	-1.247675	0.231053
H96	H	1.671188	-1.260605	0.439783
H97	H	1.585244	-1.260761	0.353750
H98	H	1.384136	-1.204584	0.640510
C99	C	1.257231	-1.228573	0.767278
C100	C	1.242970	-1.120682	0.781423
H101	H	1.211631	-1.265802	0.812845
H102	H	1.327817	-1.246471	0.782720
H103	H	1.241898	-1.246618	0.696677
H104	H	1.258310	-1.102636	0.852022
H105	H	1.172367	-1.102777	0.765989
H106	H	1.262004	-0.905987	0.762239
H107	H	1.396586	-0.627714	1.106165
