data_functionalizedCrystal
_audit_creation_method	'MofGen! by Chris Wilmer'
_symmetry_space_group_name_H-M	'P1'
_symmetry_Int_Tables_number	1
_symmetry_cell_setting	triclinic
loop_
_symmetry_equiv_pos_as_xyz
  x,y,z
_cell_length_a	29.839134
_cell_length_b	29.839131
_cell_length_c	29.839125
_cell_angle_alpha	89.982291
_cell_angle_beta	90.021980
_cell_angle_gamma	89.963719
loop_
_atom_site_label
_atom_site_type_symbol
_atom_site_fract_x
_atom_site_fract_y
_atom_site_fract_z
Zn1	Zn	0.686720	0.178978	0.254125
Zn2	Zn	1.020053	0.512311	0.587458
Zn3	Zn	1.353386	0.845645	0.920792
Zn4	Zn	0.686652	0.254090	0.178995
Zn5	Zn	1.019985	0.587423	0.512328
Zn6	Zn	1.353318	0.920757	0.845662
Zn7	Zn	0.611602	0.178968	0.178995
Zn8	Zn	0.944936	0.512301	0.512328
Zn9	Zn	1.278269	0.845635	0.845661
Zn10	Zn	0.611550	0.254075	0.254083
Zn11	Zn	0.944883	0.587408	0.587417
Zn12	Zn	1.278217	0.920742	0.920750
O13	O	0.649131	0.216528	0.216549
O14	O	0.982464	0.549861	0.549883
O15	O	1.315798	0.883194	0.883216
O16	O	0.749578	0.188952	0.244176
O17	O	1.082911	0.522285	0.577510
O18	O	1.416244	0.855619	0.910843
O19	O	0.676690	0.244127	0.116128
O20	O	1.010023	0.577460	0.449461
O21	O	1.343356	0.910794	0.782794
O22	O	0.621617	0.116102	0.188978
O23	O	0.954950	0.449436	0.522311
O24	O	1.288284	0.782769	0.855645
O25	O	0.749528	0.244137	0.188979
O26	O	1.082861	0.577470	0.522312
O27	O	1.416195	0.910803	0.855645
O28	O	0.676805	0.116109	0.244176
O29	O	1.010139	0.449443	0.577509
O30	O	1.343472	0.782776	0.910843
O31	O	0.621551	0.188935	0.116127
O32	O	0.954885	0.522269	0.449461
O33	O	1.288218	0.855602	0.782794
O34	O	0.548728	0.188921	0.188938
O35	O	0.882062	0.522254	0.522271
O36	O	1.215395	0.855587	0.855604
O37	O	0.621528	0.244111	0.316956
O38	O	0.954861	0.577444	0.650289
O39	O	1.288195	0.910778	0.983623
O40	O	0.548690	0.244101	0.244105
O41	O	0.882023	0.577435	0.577438
O42	O	1.215357	0.910768	0.910772
O43	O	0.676755	0.188937	0.316987
O44	O	1.010088	0.522271	0.650320
O45	O	1.343421	0.855604	0.983653
O46	O	0.676639	0.316955	0.188938
O47	O	1.009972	0.650288	0.522272
O48	O	1.343306	0.983622	0.855605
O49	O	0.621462	0.316944	0.244105
O50	O	0.954796	0.650277	0.577439
O51	O	1.288129	0.983611	0.910772
C52	C	0.532408	0.216509	0.216517
C53	C	0.865742	0.549842	0.549850
C54	C	1.199075	0.883175	0.883184
C55	C	0.482474	0.216511	0.216514
C56	C	0.815807	0.549845	0.549847
C57	C	1.149141	0.883178	0.883181
C58	C	0.649050	0.333250	0.216527
C59	C	0.982383	0.666584	0.549861
C60	C	1.315717	0.999917	0.883194
C61	C	0.649056	0.383185	0.216533
C62	C	0.982390	0.716518	0.549866
C63	C	1.315723	1.049851	0.883199
C64	C	0.172820	0.245303	0.245240
C65	C	0.506153	0.578636	0.578573
C66	C	0.839487	0.911969	0.911907
C67	C	-0.014853	0.245315	0.245260
C68	C	0.318480	0.578649	0.578593
C69	C	0.651814	0.911982	0.911927
O70	O	-0.039127	0.269774	0.269665
O71	O	0.294207	0.603107	0.602998
O72	O	0.627540	0.936440	0.936331
N73	N	-0.038311	0.216544	0.216583
N74	N	0.295022	0.549877	0.549917
N75	N	0.628356	0.883211	0.883250
C76	C	-0.014848	0.187766	0.187902
C77	C	0.318485	0.521099	0.521235
C78	C	0.651819	0.854432	0.854568
O79	O	-0.039107	0.163291	0.163514
O80	O	0.294226	0.496624	0.496848
O81	O	0.627560	0.829958	0.830181
C82	C	0.172824	0.187751	0.187884
C83	C	0.506157	0.521084	0.521218
C84	C	0.839491	0.854418	0.854551
C85	C	0.196280	0.216527	0.216560
C86	C	0.529613	0.549861	0.549893
C87	C	0.862946	0.883194	0.883226
C88	C	0.196276	0.274076	0.273913
C89	C	0.529609	0.607410	0.607247
C90	C	0.862942	0.940743	0.940580
C91	C	0.243191	0.274075	0.273906
C92	C	0.576525	0.607408	0.607240
C93	C	0.909858	0.940741	0.940573
C94	C	0.266651	0.245299	0.245226
C95	C	0.599984	0.578633	0.578559
C96	C	0.933318	0.911966	0.911893
C97	C	0.243195	0.216526	0.216553
C98	C	0.576529	0.549859	0.549886
C99	C	0.909862	0.883192	0.883219
C100	C	0.196286	0.158971	0.159205
C101	C	0.529620	0.492304	0.492539
C102	C	0.862953	0.825637	0.825872
C103	C	0.243207	0.158969	0.159204
C104	C	0.576541	0.492302	0.492538
C105	C	0.909874	0.825635	0.825871
C106	C	0.266663	0.187745	0.187880
C107	C	0.599996	0.521078	0.521213
C108	C	0.933330	0.854412	0.854546
C109	C	0.313570	0.187749	0.187865
C110	C	0.646904	0.521082	0.521199
C111	C	0.980237	0.854415	0.854532
N112	N	0.337029	0.216520	0.216542
N113	N	0.670362	0.549853	0.549875
N114	N	1.003695	0.883186	0.883209
C115	C	0.313569	0.245295	0.245222
C116	C	0.646902	0.578628	0.578556
C117	C	0.980235	0.911962	0.911889
C118	C	-0.113379	0.187776	0.187912
C119	C	0.219955	0.521109	0.521246
C120	C	0.553288	0.854443	0.854579
C121	C	-0.160297	0.187780	0.187916
C122	C	0.173037	0.521113	0.521249
C123	C	0.506370	0.854447	0.854583
C124	C	-0.160298	0.245329	0.245275
C125	C	0.173035	0.578663	0.578608
C126	C	0.506368	0.911996	0.911942
C127	C	-0.113380	0.245327	0.245269
C128	C	0.219954	0.578661	0.578602
C129	C	0.553287	0.911994	0.911935
C130	C	-0.089921	0.216547	0.216589
C131	C	0.243413	0.549881	0.549922
C132	C	0.576746	0.883214	0.883256
C133	C	0.412095	0.245290	0.245205
C134	C	0.745428	0.578623	0.578538
C135	C	1.078761	0.911956	0.911872
C136	C	0.459014	0.245287	0.245194
C137	C	0.792348	0.578620	0.578528
C138	C	1.125681	0.911953	0.911861
C139	C	0.459012	0.187736	0.187837
C140	C	0.792345	0.521069	0.521170
C141	C	1.125678	0.854403	0.854504
C142	C	0.412096	0.187740	0.187846
C143	C	0.745430	0.521074	0.521179
C144	C	1.078763	0.854407	0.854513
C145	C	0.388639	0.216519	0.216534
C146	C	0.721972	0.549852	0.549867
C147	C	1.055306	0.883185	0.883200
O148	O	0.337873	0.163299	0.163477
O149	O	0.671206	0.496633	0.496810
O150	O	1.004540	0.829966	0.830144
O151	O	0.337836	0.269759	0.269613
O152	O	0.671169	0.603092	0.602946
O153	O	1.004502	0.936426	0.936280
C154	C	0.125905	0.245304	0.245247
C155	C	0.459238	0.578638	0.578580
C156	C	0.792571	0.911971	0.911914
C157	C	0.102449	0.216531	0.216574
C158	C	0.435782	0.549864	0.549907
C159	C	0.769116	0.883197	0.883240
C160	C	0.125909	0.187755	0.187893
C161	C	0.459242	0.521089	0.521227
C162	C	0.792575	0.854422	0.854560
C163	C	0.055531	0.216535	0.216577
C164	C	0.388864	0.549868	0.549911
C165	C	0.722198	0.883202	0.883244
C166	C	0.032071	0.245310	0.245258
C167	C	0.365405	0.578644	0.578591
C168	C	0.698738	0.911977	0.911924
C169	C	0.055529	0.274082	0.273934
C170	C	0.388863	0.607415	0.607268
C171	C	0.722196	0.940748	0.940601
C172	C	0.102445	0.274080	0.273927
C173	C	0.435778	0.607413	0.607261
C174	C	0.769112	0.940747	0.940594
C175	C	0.102451	0.158984	0.159217
C176	C	0.435784	0.492318	0.492550
C177	C	0.769117	0.825651	0.825883
C178	C	0.055535	0.158989	0.159226
C179	C	0.388868	0.492322	0.492559
C180	C	0.722202	0.825655	0.825892
C181	C	0.032075	0.187764	0.187906
C182	C	0.365409	0.521097	0.521239
C183	C	0.698742	0.854431	0.854573
C184	C	0.649143	0.216524	0.333728
C185	C	0.982476	0.549857	0.667061
C186	C	1.315810	0.883190	1.000395
C187	C	0.649148	0.216522	0.383662
C188	C	0.982482	0.549855	0.716996
C189	C	1.315815	0.883189	1.050329
C190	C	0.766309	0.216547	0.216582
C191	C	1.099643	0.549880	0.549916
C192	C	1.432976	0.883214	0.883249
C193	C	0.816244	0.216555	0.216596
C194	C	1.149577	0.549889	0.549930
C195	C	1.482910	0.883222	0.883263
C196	C	0.649225	0.099349	0.216582
C197	C	0.982558	0.432683	0.549915
C198	C	1.315891	0.766016	0.883248
C199	C	0.649265	0.049415	0.216595
C200	C	0.982598	0.382748	0.549929
C201	C	1.315931	0.716082	0.883262
C202	C	0.677914	0.692821	0.187866
C203	C	1.011247	1.026155	0.521199
C204	C	1.344580	1.359488	0.854533
C205	C	0.677969	0.880494	0.187883
C206	C	1.011303	1.213828	0.521217
C207	C	1.344636	1.547161	0.854550
O208	O	0.702441	0.904753	0.163493
O209	O	1.035774	1.238087	0.496826
O210	O	1.369107	1.571420	0.830159
N211	N	0.649224	0.903970	0.216583
N212	N	0.982557	1.237303	0.549917
N213	N	1.315891	1.570636	0.883250
C214	C	0.620465	0.880524	0.245283
C215	C	0.953799	1.213857	0.578616
C216	C	1.287132	1.547191	0.911950
O217	O	0.596020	0.904798	0.269698
O218	O	0.929354	1.238131	0.603031
O219	O	1.262687	1.571464	0.936365
C220	C	0.620412	0.692852	0.245268
C221	C	0.953746	1.026185	0.578601
C222	C	1.287079	1.359519	0.911934
C223	C	0.649156	0.669379	0.216563
C224	C	0.982489	1.002712	0.549896
C225	C	1.315823	1.336045	0.883229
C226	C	0.706656	0.669348	0.159164
C227	C	1.039989	1.002681	0.492497
C228	C	1.373322	1.336015	0.825830
C229	C	0.706640	0.622433	0.159158
C230	C	1.039973	0.955766	0.492491
C231	C	1.373306	1.289099	0.825824
C232	C	0.677882	0.598990	0.187854
C233	C	1.011215	0.932324	0.521188
C234	C	1.344549	1.265657	0.854521
C235	C	0.649140	0.622463	0.216557
C236	C	0.982474	0.955797	0.549890
C237	C	1.315807	1.289130	0.883223
C238	C	0.591656	0.669407	0.273969
C239	C	0.924989	1.002740	0.607303
C240	C	1.258323	1.336074	0.940636
C241	C	0.591646	0.622486	0.273964
C242	C	0.924979	0.955819	0.607297
C243	C	1.258313	1.289153	0.940630
C244	C	0.620390	0.599013	0.245259
C245	C	0.953723	0.932346	0.578592
C246	C	1.287057	1.265680	0.911925
C247	C	0.620367	0.552106	0.245248
C248	C	0.953700	0.885439	0.578581
C249	C	1.287033	1.218772	0.911914
N250	N	0.649112	0.528630	0.216548
N251	N	0.982445	0.861963	0.549881
N252	N	1.315778	1.195297	0.883214
C253	C	0.677869	0.552072	0.187851
C254	C	1.011203	0.885406	0.521184
C255	C	1.344536	1.218739	0.854518
C256	C	0.620494	0.979055	0.245289
C257	C	0.953828	1.312388	0.578622
C258	C	1.287161	1.645721	0.911955
C259	C	0.620507	1.025973	0.245292
C260	C	0.953840	1.359306	0.578625
C261	C	1.287174	1.692639	0.911959
C262	C	0.678012	1.025939	0.187893
C263	C	1.011345	1.359273	0.521226
C264	C	1.344678	1.692606	0.854559
C265	C	0.677996	0.979021	0.187887
C266	C	1.011330	1.312354	0.521221
C267	C	1.344663	1.645687	0.854554
C268	C	0.649239	0.955579	0.216589
C269	C	0.982573	1.288913	0.549922
C270	C	1.315906	1.622246	0.883255
C271	C	0.677834	0.453547	0.187841
C272	C	1.011167	0.786880	0.521174
C273	C	1.344500	1.120213	0.854507
C274	C	0.677814	0.406627	0.187836
C275	C	1.011147	0.739960	0.521169
C276	C	1.344481	1.073294	0.854503
C277	C	0.620311	0.406664	0.245237
C278	C	0.953644	0.739998	0.578570
C279	C	1.286978	1.073331	0.911903
C280	C	0.620329	0.453580	0.245240
C281	C	0.953662	0.786913	0.578573
C282	C	1.286996	1.120246	0.911907
C283	C	0.649094	0.477020	0.216540
C284	C	0.982427	0.810353	0.549874
C285	C	1.315761	1.143686	0.883207
O286	O	0.595912	0.527818	0.269629
O287	O	0.929245	0.861151	0.602962
O288	O	1.262578	1.194484	0.936296
O289	O	0.702318	0.527791	0.163447
O290	O	1.035651	0.861124	0.496780
O291	O	1.368984	1.194457	0.830114
C292	C	0.677930	0.739737	0.187872
C293	C	1.011263	1.073070	0.521205
C294	C	1.344596	1.406403	0.854538
C295	C	0.649188	0.763210	0.216574
C296	C	0.982521	1.096543	0.549907
C297	C	1.315855	1.429876	0.883241
C298	C	0.620430	0.739767	0.245271
C299	C	0.953764	1.073101	0.578604
C300	C	1.287097	1.406434	0.911937
C301	C	0.649200	0.810128	0.216578
C302	C	0.982534	1.143461	0.549911
C303	C	1.315867	1.476794	0.883244
C304	C	0.677958	0.833570	0.187881
C305	C	1.011291	1.166903	0.521214
C306	C	1.344625	1.500237	0.854548
C307	C	0.706703	0.810094	0.159181
C308	C	1.040037	1.143428	0.492514
C309	C	1.373370	1.476761	0.825848
C310	C	0.706687	0.763179	0.159175
C311	C	1.040021	1.096512	0.492508
C312	C	1.373354	1.429846	0.825842
C313	C	0.591685	0.763243	0.273971
C314	C	0.925018	1.096576	0.607304
C315	C	1.258352	1.429910	0.940637
C316	C	0.591703	0.810158	0.273974
C317	C	0.925036	1.143492	0.607307
C318	C	1.258370	1.476825	0.940640
C319	C	0.620461	0.833601	0.245277
C320	C	0.953794	1.166934	0.578611
C321	C	1.287127	1.500267	0.911944
C322	C	0.649145	0.216499	0.099827
C323	C	0.982478	0.549833	0.433160
C324	C	1.315811	0.883166	0.766494
C325	C	0.649227	0.216374	0.049893
C326	C	0.982560	0.549708	0.383226
C327	C	1.315893	0.883041	0.716560
C328	C	0.677935	0.187718	0.693325
C329	C	1.011268	0.521051	1.026658
C330	C	1.344602	0.854385	1.359991
C331	C	0.677957	0.187680	0.880998
C332	C	1.011291	0.521013	1.214331
C333	C	1.344624	0.854346	1.547665
O334	O	0.702399	0.163232	0.905279
O335	O	1.035733	0.496565	1.238612
O336	O	1.369066	0.829899	1.571946
N337	N	0.649208	0.216402	0.904448
N338	N	0.982541	0.549735	1.237781
N339	N	1.315875	0.883068	1.571114
C340	C	0.620449	0.245133	0.880976
C341	C	0.953782	0.578467	1.214310
C342	C	1.287115	0.911800	1.547643
O343	O	0.595993	0.269559	0.905228
O344	O	0.929326	0.602892	1.238561
O345	O	1.262659	0.936226	1.571895
C346	C	0.620424	0.245169	0.693304
C347	C	0.953758	0.578502	1.026637
C348	C	1.287091	0.911836	1.359971
C349	C	0.649179	0.216448	0.669857
C350	C	0.982512	0.549782	1.003190
C351	C	1.315846	0.883115	1.336523
C352	C	0.706687	0.158999	0.669877
C353	C	1.040020	0.492333	1.003211
C354	C	1.373354	0.825666	1.336544
C355	C	0.706683	0.159011	0.622962
C356	C	1.040016	0.492344	0.956295
C357	C	1.373349	0.825677	1.289629
C358	C	0.677927	0.187741	0.599494
C359	C	1.011260	0.521074	0.932827
C360	C	1.344593	0.854408	1.266160
C361	C	0.649175	0.216460	0.622941
C362	C	0.982508	0.549793	0.956274
C363	C	1.315842	0.883126	1.289608
C364	C	0.591663	0.273898	0.669833
C365	C	0.924997	0.607231	1.003167
C366	C	1.258330	0.940565	1.336500
C367	C	0.591659	0.273903	0.622912
C368	C	0.924992	0.607237	0.956246
C369	C	1.258326	0.940570	1.289579
C370	C	0.620414	0.245183	0.599465
C371	C	0.953747	0.578516	0.932798
C372	C	1.287080	0.911849	1.266132
C373	C	0.620415	0.245202	0.552558
C374	C	0.953748	0.578535	0.885891
C375	C	1.287081	0.911868	1.219224
N376	N	0.649164	0.216480	0.529108
N377	N	0.982498	0.549813	0.862441
N378	N	1.315831	0.883146	1.195774
C379	C	0.677920	0.187749	0.552576
C380	C	1.011254	0.521083	0.885909
C381	C	1.344587	0.854416	1.219243
C382	C	0.620464	0.245113	0.979507
C383	C	0.953797	0.578446	1.312840
C384	C	1.287131	0.911780	1.646173
C385	C	0.620471	0.245105	1.026425
C386	C	0.953804	0.578438	1.359758
C387	C	1.287137	0.911771	1.693091
C388	C	0.677979	0.187650	1.026443
C389	C	1.011312	0.520984	1.359777
C390	C	1.344645	0.854317	1.693110
C391	C	0.677974	0.187661	0.979524
C392	C	1.011308	0.520995	1.312858
C393	C	1.344641	0.854328	1.646191
C394	C	0.649214	0.216391	0.956057
C395	C	0.982547	0.549724	1.289390
C396	C	1.315880	0.883058	1.622724
C397	C	0.677910	0.187776	0.454050
C398	C	1.011243	0.521109	0.787383
C399	C	1.344576	0.854443	1.120717
C400	C	0.677904	0.187792	0.407130
C401	C	1.011238	0.521125	0.740464
C402	C	1.344571	0.854458	1.073797
C403	C	0.620395	0.245244	0.407116
C404	C	0.953728	0.578577	0.740449
C405	C	1.287061	0.911911	1.073783
C406	C	0.620401	0.245230	0.454032
C407	C	0.953735	0.578564	0.787365
C408	C	1.287068	0.911897	1.120698
C409	C	0.649161	0.216493	0.477497
C410	C	0.982494	0.549826	0.810831
C411	C	1.315827	0.883160	1.144164
O412	O	0.595982	0.269633	0.528248
O413	O	0.929315	0.602966	0.861581
O414	O	1.262649	0.936300	1.194914
O415	O	0.702366	0.163320	0.528316
O416	O	1.035699	0.496654	0.861650
O417	O	1.369032	0.829987	1.194983
C418	C	0.677939	0.187706	0.740240
C419	C	1.011273	0.521040	1.073574
C420	C	1.344606	0.854373	1.406907
C421	C	0.649187	0.216425	0.763688
C422	C	0.982521	0.549758	1.097021
C423	C	1.315854	0.883092	1.430354
C424	C	0.620431	0.245155	0.740219
C425	C	0.953765	0.578489	1.073553
C426	C	1.287098	0.911822	1.406886
C427	C	0.649194	0.216417	0.810605
C428	C	0.982527	0.549750	1.143939
C429	C	1.315861	0.883083	1.477272
C430	C	0.677950	0.187686	0.834074
C431	C	1.011283	0.521020	1.167407
C432	C	1.344617	0.854353	1.500740
C433	C	0.706699	0.158964	0.810624
C434	C	1.040033	0.492298	1.143957
C435	C	1.373366	0.825631	1.477291
C436	C	0.706695	0.158976	0.763708
C437	C	1.040029	0.492309	1.097042
C438	C	1.373362	0.825643	1.430375
C439	C	0.591682	0.273877	0.763669
C440	C	0.925015	0.607211	1.097002
C441	C	1.258349	0.940544	1.430336
C442	C	0.591689	0.273864	0.810585
C443	C	0.925022	0.607197	1.143918
C444	C	1.258355	0.940530	1.477251
C445	C	0.620445	0.245133	0.834053
C446	C	0.953778	0.578467	1.167386
C447	C	1.287111	0.911800	1.500719
H448	H	0.478110	0.268721	0.268545
H449	H	0.811443	0.602055	0.601879
H450	H	1.144776	0.935388	0.935212
H451	H	0.701393	0.164257	1.045559
H452	H	1.034727	0.497591	1.378892
H453	H	1.368060	0.830924	1.712226
H454	H	0.597061	0.268497	1.045512
H455	H	0.930394	0.601830	1.378845
H456	H	1.263727	0.935164	1.712178
H457	H	0.393001	0.268723	0.268566
H458	H	0.726334	0.602056	0.601900
H459	H	1.059668	0.935389	0.935233
H460	H	0.701321	0.164403	0.388042
H461	H	1.034655	0.497737	0.721375
H462	H	1.367988	0.831070	1.054708
O463	O	0.030223	0.305117	0.304872
O464	O	0.363556	0.638450	0.638205
O465	O	0.696889	0.971783	0.971538
H466	H	-0.006342	0.300277	0.300058
H467	H	0.326992	0.633611	0.633391
H468	H	0.660325	0.966944	0.966725
H469	H	0.730047	0.603324	0.135785
H470	H	1.063380	0.936657	0.469118
H471	H	1.396713	1.269990	0.802452
O472	O	-0.185595	0.156753	0.156979
O473	O	0.147738	0.490086	0.490312
O474	O	0.481071	0.823420	0.823646
H475	H	-0.206954	0.133929	0.177126
H476	H	0.126379	0.467263	0.510459
H477	H	0.459713	0.800596	0.843792
O478	O	0.708864	0.478817	0.156887
O479	O	1.042197	0.812151	0.490220
O480	O	1.375530	1.145484	0.823553
H481	H	0.731720	0.500156	0.177021
H482	H	1.065053	0.833490	0.510354
H483	H	1.398386	1.166823	0.843687
H484	H	0.597097	1.045080	0.268662
H485	H	0.930430	1.378414	0.601996
H486	H	1.263763	1.711747	0.935329
H487	H	0.177197	0.135539	0.135854
H488	H	0.510530	0.468872	0.469187
H489	H	0.843863	0.802206	0.802520
O490	O	0.589376	0.276228	0.381800
O491	O	0.922710	0.609561	0.715134
O492	O	1.256043	0.942895	1.048467
H493	H	0.594202	0.271403	0.345237
H494	H	0.927536	0.604737	0.678570
H495	H	1.260869	0.938070	1.011904
H496	H	0.701327	0.164374	0.473150
H497	H	1.034660	0.497707	0.806484
H498	H	1.367993	0.831040	1.139817
O499	O	0.708988	0.156685	0.954237
O500	O	1.042322	0.490018	1.287570
O501	O	1.375655	0.823351	1.620903
H502	H	0.688899	0.133828	0.932857
H503	H	1.022233	0.467161	1.266190
H504	H	1.355566	0.800495	1.599523
O505	O	0.709007	0.953709	0.156932
O506	O	1.042340	1.287042	0.490266
O507	O	1.375673	1.620375	0.823599
H508	H	0.731843	0.932307	0.177066
H509	H	1.065176	1.265640	0.510400
H510	H	1.398509	1.598974	0.843733
H511	H	0.730076	0.688430	0.135795
H512	H	1.063409	1.021763	0.469129
H513	H	1.396743	1.355097	0.802462
O514	O	0.589465	0.953773	0.276236
O515	O	0.922799	1.287107	0.609569
O516	O	1.256132	1.620440	0.942903
H517	H	0.569476	0.977984	0.296184
H518	H	0.902809	1.311317	0.629518
H519	H	1.236143	1.644651	0.962851
O520	O	0.560696	0.835470	0.304937
O521	O	0.894029	1.168803	0.638271
O522	O	1.227363	1.502136	0.971604
H523	H	0.537855	0.856874	0.284812
H524	H	0.871188	1.190207	0.618145
H525	H	1.204521	1.523541	0.951478
O526	O	0.560642	0.304871	0.695113
O527	O	0.893975	0.638204	1.028447
O528	O	1.227309	0.971537	1.361780
H529	H	0.568309	0.340133	0.686101
H530	H	0.901643	0.673467	1.019435
H531	H	1.234976	1.006800	1.352768
O532	O	-0.185608	0.276412	0.276162
O533	O	0.147725	0.609745	0.609496
O534	O	0.481058	0.943078	0.942829
H535	H	-0.161419	0.296438	0.296087
H536	H	0.171914	0.629772	0.629420
H537	H	0.505247	0.963105	0.962753
H538	H	0.730097	0.135623	0.603875
H539	H	1.063430	0.468956	0.937209
H540	H	1.396764	0.802289	1.270542
H541	H	0.478121	0.164309	0.164485
H542	H	0.811455	0.497642	0.497818
H543	H	1.144788	0.830976	0.831152
H544	H	0.597044	0.268511	0.960404
H545	H	0.930377	0.601844	1.293737
H546	H	1.263711	0.935178	1.627071
O547	O	0.268510	0.127932	0.128265
O548	O	0.601844	0.461266	0.461598
O549	O	0.935177	0.794599	0.794932
H550	H	0.244315	0.107930	0.108325
H551	H	0.577648	0.441263	0.441658
H552	H	0.910981	0.774596	0.774991
O553	O	-0.088078	0.156744	0.156967
O554	O	0.245255	0.490077	0.490300
O555	O	0.578588	0.823410	0.823633
H556	H	-0.112277	0.136747	0.137023
H557	H	0.221056	0.470080	0.470357
H558	H	0.554390	0.803414	0.803690
O559	O	0.386786	0.156714	0.156916
O560	O	0.720119	0.490047	0.490249
O561	O	1.053452	0.823380	0.823583
H562	H	0.395809	0.121464	0.164682
H563	H	0.729142	0.454797	0.498015
H564	H	1.062476	0.788131	0.831349
O565	O	0.030238	0.127948	0.128297
O566	O	0.363571	0.461281	0.461630
O567	O	0.696904	0.794615	0.794963
H568	H	0.054438	0.107937	0.108358
H569	H	0.387771	0.441270	0.441691
H570	H	0.721104	0.774603	0.775025
O571	O	0.708822	0.381312	0.156877
O572	O	1.042155	0.714646	0.490210
O573	O	1.375489	1.047979	0.823543
H574	H	0.731655	0.359905	0.177009
H575	H	1.064988	0.693239	0.510342
H576	H	1.398322	1.026572	0.843675
O577	O	0.709032	1.051226	0.156941
O578	O	1.042366	1.384559	0.490274
O579	O	1.375699	1.717893	0.823608
H580	H	0.744282	1.042182	0.164687
H581	H	1.077615	1.375516	0.498021
H582	H	1.410948	1.708849	0.831354
O583	O	0.589388	0.276209	0.479322
O584	O	0.922721	0.609542	0.812655
O585	O	1.256055	0.942875	1.145988
H586	H	0.566550	0.256088	0.500690
H587	H	0.899884	0.589421	0.834023
H588	H	1.233217	0.922755	1.167356
O589	O	0.560656	0.694718	0.304933
O590	O	0.893990	1.028052	0.638266
O591	O	1.227323	1.361385	0.971600
H592	H	0.540665	0.670528	0.324888
H593	H	0.873999	1.003861	0.658221
H594	H	1.207332	1.337194	0.991555
O595	O	0.268488	0.305105	0.304841
O596	O	0.601821	0.638439	0.638174
O597	O	0.935155	0.971772	0.971508
H598	H	0.244286	0.325108	0.324787
H599	H	0.577620	0.658441	0.658120
H600	H	0.910953	0.991775	0.991454
O601	O	0.560632	0.304885	0.597600
O602	O	0.893966	0.638218	0.930933
O603	O	1.227299	0.971552	1.264267
H604	H	0.540641	0.324852	0.621790
H605	H	0.873974	0.658185	0.955123
H606	H	1.207307	0.991519	1.288457
O607	O	0.737727	0.835388	0.128239
O608	O	1.071061	1.168722	0.461572
O609	O	1.404394	1.502055	0.794906
H610	H	0.717647	0.856801	0.105366
H611	H	1.050980	1.190134	0.438700
H612	H	1.384313	1.523467	0.772033
O613	O	0.737707	0.127997	0.738421
O614	O	1.071041	0.461330	1.071754
O615	O	1.404374	0.794664	1.405088
H616	H	0.757699	0.108018	0.762628
H617	H	1.091032	0.441351	1.095962
H618	H	1.424365	0.774684	1.429295
H619	H	0.730115	0.135573	0.829740
H620	H	1.063448	0.468906	1.163073
H621	H	1.396782	0.802239	1.496407
H622	H	0.568274	0.297256	0.829671
H623	H	0.901607	0.630589	1.163005
H624	H	1.234941	0.963923	1.496338
O625	O	0.560650	0.304852	0.738359
O626	O	0.893984	0.638185	1.071693
O627	O	1.227317	0.971518	1.405026
H628	H	0.540658	0.324815	0.762552
H629	H	0.873992	0.658149	1.095885
H630	H	1.207325	0.991482	1.429218
H631	H	0.730104	0.135601	0.688980
H632	H	1.063437	0.468934	1.022314
H633	H	1.396770	0.802268	1.355647
H634	H	0.177180	0.297509	0.297271
H635	H	0.510513	0.630842	0.630604
H636	H	0.843847	0.964176	0.963937
O637	O	0.560655	0.737967	0.304917
O638	O	0.893989	1.071300	0.638250
O639	O	1.227322	1.404633	0.971584
H640	H	0.568329	0.746953	0.340187
H641	H	0.901662	1.080286	0.673520
H642	H	1.234996	1.413620	1.006853
O643	O	-0.088081	0.276359	0.276201
O644	O	0.245252	0.609692	0.609534
O645	O	0.578585	0.943026	0.942867
H646	H	-0.112281	0.296365	0.296145
H647	H	0.221052	0.629699	0.629478
H648	H	0.554385	0.963032	0.962812
H649	H	0.596925	0.472692	0.268615
H650	H	0.930258	0.806026	0.601949
H651	H	1.263591	1.139359	0.935282
O652	O	0.127741	0.305113	0.304860
O653	O	0.461075	0.638446	0.638193
O654	O	0.794408	0.971779	0.971527
H655	H	0.103540	0.325116	0.324805
H656	H	0.436873	0.658449	0.658138
H657	H	0.770206	0.991783	0.991472
O658	O	0.127751	0.127956	0.128272
O659	O	0.461084	0.461290	0.461605
O660	O	0.794418	0.794623	0.794938
H661	H	0.103553	0.107958	0.108330
H662	H	0.436886	0.441291	0.441663
H663	H	0.770220	0.774625	0.774996
H664	H	0.568229	0.603402	0.297337
H665	H	0.901562	0.936736	0.630670
H666	H	1.234896	1.270069	0.964004
O667	O	0.589296	0.381376	0.276190
O668	O	0.922630	0.714710	0.609523
O669	O	1.255963	1.048043	0.942857
H670	H	0.594122	0.344809	0.271365
H671	H	0.927455	0.678142	0.604698
H672	H	1.260788	1.011475	0.938032
O673	O	0.737694	0.737864	0.128219
O674	O	1.071027	1.071197	0.461553
O675	O	1.404361	1.404530	0.794886
H676	H	0.757694	0.762053	0.108272
H677	H	1.091028	1.095387	0.441605
H678	H	1.424361	1.428720	0.774939
