data_functionalizedCrystal
_audit_creation_method	'MofGen! by Chris Wilmer'
_symmetry_space_group_name_H-M	'P1'
_symmetry_Int_Tables_number	1
_symmetry_cell_setting	triclinic
loop_
_symmetry_equiv_pos_as_xyz
  x,y,z
_cell_length_a	19.288864
_cell_length_b	18.366186
_cell_length_c	19.288857
_cell_angle_alpha	89.991598
_cell_angle_beta	96.865323
_cell_angle_gamma	90.022894
loop_
_atom_site_label
_atom_site_type_symbol
_atom_site_fract_x
_atom_site_fract_y
_atom_site_fract_z
O1	O	-0.921350	-0.060787	0.086649
O2	O	-0.421350	0.439213	0.586649
O3	O	-0.719089	-0.060737	0.098338
O4	O	-0.219089	0.439263	0.598338
O5	O	-0.826067	-0.060755	-0.008637
O6	O	-0.326067	0.439245	0.491363
O7	O	-0.814373	-0.060769	0.193624
O8	O	-0.314373	0.439231	0.693624
O9	O	-0.826049	0.060345	-0.008643
O10	O	-0.326049	0.560345	0.491357
O11	O	-0.719071	0.060362	0.098333
O12	O	-0.219071	0.560362	0.598333
O13	O	-0.921332	0.060313	0.086644
O14	O	-0.421332	0.560313	0.586644
Zn15	Zn	-0.820199	0.079565	0.092487
Zn16	Zn	-0.320199	0.579565	0.592487
Zn17	Zn	-0.820223	-0.079989	0.092494
Zn18	Zn	-0.320223	0.420011	0.592494
O19	O	-0.814355	0.060330	0.193619
O20	O	-0.314355	0.560330	0.693619
C21	C	-0.693204	-0.000181	0.097959
C22	C	-0.193204	0.499819	0.597959
C23	C	-0.616100	-0.000162	0.096830
C24	C	-0.116100	0.499838	0.596830
C25	C	-0.825683	-0.000204	-0.034516
C26	C	-0.325683	0.499796	0.465484
C27	C	-0.824556	-0.000202	-0.111620
C28	C	-0.324556	0.499798	0.388380
C29	C	-0.947218	-0.000245	0.087022
C30	C	-0.447218	0.499755	0.587022
C31	C	-1.024321	-0.000269	0.088151
C32	C	-0.524321	0.499731	0.588151
N33	N	-0.820188	0.188456	0.092482
N34	N	-0.320188	0.688456	0.592482
C35	C	-0.571402	-0.000178	0.159598
C36	C	-0.071402	0.499822	0.659598
C37	C	-0.498955	-0.000186	0.158537
C38	C	0.001045	0.499814	0.658537
C39	C	-0.471210	-0.000193	0.094705
C40	C	0.028790	0.499807	0.594705
C41	C	-0.515917	-0.000172	0.031929
C42	C	-0.015917	0.499828	0.531929
C43	C	-0.588363	-0.000157	0.032991
C44	C	-0.088363	0.499843	0.532991
C45	C	-0.362955	-0.042640	0.044528
C46	C	0.137045	0.457360	0.544528
C47	C	-0.290511	-0.042660	0.043468
C48	C	0.209489	0.457340	0.543468
C49	C	-0.247764	-0.000236	0.091425
C50	C	0.252236	0.499764	0.591425
C51	C	-0.277469	0.042197	0.140455
C52	C	0.222531	0.542197	0.640455
C53	C	-0.349914	0.042213	0.141517
C54	C	0.150086	0.542213	0.641517
C55	C	-0.392656	-0.000209	0.093546
C56	C	0.107344	0.499791	0.593546
C57	C	-0.124510	-0.000260	0.153048
C58	C	0.375490	0.499740	0.653048
C59	C	-0.052062	-0.000263	0.151984
C60	C	0.447938	0.499737	0.651984
C61	C	-0.069026	-0.000257	0.025374
C62	C	0.430974	0.499743	0.525374
C63	C	-0.141472	-0.000246	0.026439
C64	C	0.358528	0.499754	0.526439
C65	C	-0.169210	-0.000251	0.090278
C66	C	0.330790	0.499749	0.590278
N67	N	-0.820240	-0.188880	0.092494
N68	N	-0.320240	0.311120	0.592494
C69	C	-0.867573	0.226548	0.045137
C70	C	-0.367573	0.726548	0.545137
C71	C	-0.867577	0.302776	0.045134
C72	C	-0.367577	0.802776	0.545134
C73	C	-0.820203	0.340909	0.092488
C74	C	-0.320203	0.840909	0.592488
C75	C	-0.772809	0.302807	0.139837
C76	C	-0.272809	0.802807	0.639837
C77	C	-0.772801	0.226580	0.139834
C78	C	-0.272801	0.726580	0.639834
C79	C	-0.810903	0.461666	0.155776
C80	C	-0.310903	0.961666	0.655776
C81	C	-0.810916	0.537891	0.155780
C82	C	-0.310916	1.037891	0.655780
C83	C	-0.820223	0.576016	0.092497
C84	C	-0.320223	1.076016	0.592497
C85	C	-0.829532	0.537907	0.029207
C86	C	-0.329532	1.037907	0.529207
C87	C	-0.829524	0.461681	0.029204
C88	C	-0.329524	0.961681	0.529204
C89	C	-0.820206	0.423563	0.092496
C90	C	-0.320206	0.923563	0.592496
C91	C	-0.867615	0.696764	0.045144
C92	C	-0.367615	1.196764	0.545144
C93	C	-0.867615	0.772993	0.045140
C94	C	-0.367615	1.272993	0.545140
C95	C	-0.772850	0.773022	0.139849
C96	C	-0.272850	1.273022	0.639849
C97	C	-0.772847	0.696794	0.139847
C98	C	-0.272847	1.196794	0.639847
C99	C	-0.820233	0.658670	0.092495
C100	C	-0.320233	1.158670	0.592495
C101	C	-0.824040	-0.066213	-0.147828
C102	C	-0.324040	0.433787	0.352172
C103	C	-0.822971	-0.066218	-0.220274
C104	C	-0.322971	0.433782	0.279726
C105	C	-0.822432	-0.000208	-0.256511
C106	C	-0.322432	0.499792	0.243489
C107	C	-0.822945	0.065812	-0.220294
C108	C	-0.322945	0.565812	0.279706
C109	C	-0.824006	0.065815	-0.147849
C110	C	-0.324006	0.565815	0.352151
C111	C	-0.861426	0.050350	-0.376745
C112	C	-0.361426	0.550350	0.123255
C113	C	-0.860369	0.050344	-0.449190
C114	C	-0.360369	0.550344	0.050810
C115	C	-0.819155	-0.000216	-0.479957
C116	C	-0.319155	0.499784	0.020043
C117	C	-0.779007	-0.050781	-0.438272
C118	C	-0.279007	0.449219	0.061728
C119	C	-0.780068	-0.050778	-0.365827
C120	C	-0.280068	0.449222	0.134173
C121	C	-0.821281	-0.000205	-0.335066
C122	C	-0.321281	0.499795	0.164934
C123	C	-0.817479	-0.066237	-0.594719
C124	C	-0.317479	0.433763	-0.094719
C125	C	-0.816406	-0.066240	-0.667166
C126	C	-0.316406	0.433760	-0.167166
C127	C	-0.816386	0.065792	-0.667186
C128	C	-0.316386	0.565792	-0.167186
C129	C	-0.817452	0.065793	-0.594740
C130	C	-0.317452	0.565793	-0.094740
C131	C	-0.818002	-0.000224	-0.558511
C132	C	-0.318002	0.499776	-0.058511
C133	C	-0.814739	-0.000222	0.219498
C134	C	-0.314739	0.499778	0.719498
C135	C	-0.815866	-0.000229	0.296602
C136	C	-0.315866	0.499771	0.796602
H137	H	-0.593981	-0.000183	0.211581
H138	H	-0.093981	0.499817	0.711581
O139	O	-0.839566	0.579014	-0.039057
O140	O	-0.339566	1.079014	0.460943
H141	H	-0.837997	0.638421	-0.028426
H142	H	-0.337997	1.138421	0.471574
H143	H	-0.906165	0.333797	0.006578
H144	H	-0.406165	0.833797	0.506578
H145	H	-0.242666	0.076743	0.179506
H146	H	0.257334	0.576743	0.679506
H147	H	-0.803340	0.568913	0.207314
H148	H	-0.303340	1.068913	0.707314
O149	O	-0.822363	0.137007	-0.259378
O150	O	-0.322363	0.637007	0.240622
H151	H	-0.822894	0.182912	-0.222025
H152	H	-0.322894	0.682912	0.277975
H153	H	-0.824424	0.119571	-0.118369
H154	H	-0.324424	0.619571	0.381631
O155	O	-0.721744	0.655698	0.190916
O156	O	-0.221744	1.155698	0.690916
H157	H	-0.730425	0.670305	0.245043
H158	H	-0.230425	1.170305	0.745043
H159	H	-0.815982	-0.119996	-0.696645
H160	H	-0.315982	0.380004	-0.196645
H161	H	-0.824485	-0.119969	-0.118335
H162	H	-0.324485	0.380031	0.381665
H163	H	-0.837103	0.430656	-0.022329
H164	H	-0.337103	0.930656	0.477671
H165	H	-0.734275	0.804068	0.178403
H166	H	-0.234275	1.304068	0.678403
H167	H	-0.906198	0.665721	0.006585
H168	H	-0.406198	1.165721	0.506585
H169	H	-0.374097	0.076766	0.181437
H170	H	0.125903	0.576766	0.681437
O171	O	-0.450731	-0.000211	0.226239
O172	O	0.049269	0.499789	0.726239
H173	H	-0.482190	-0.000217	0.270808
H174	H	0.017810	0.499783	0.770808
O175	O	-0.918733	0.814085	-0.005920
O176	O	-0.418733	1.314085	0.494080
H177	H	-0.951686	0.774765	-0.038838
H178	H	-0.451686	1.274765	0.461162
H179	H	-0.803312	0.430630	0.207312
H180	H	-0.303312	0.930630	0.707312
O181	O	-0.154436	-0.000250	0.221897
O182	O	0.345564	0.499750	0.721897
H183	H	-0.111180	-0.000249	0.265368
H184	H	0.388820	0.499751	0.765368
H185	H	-0.734235	0.333858	0.178392
H186	H	-0.234235	0.833858	0.678392
O187	O	-0.003846	-0.000274	0.219688
O188	O	0.496154	0.499726	0.719688
H189	H	-0.013704	-0.049637	0.250244
H190	H	0.486296	0.450363	0.750244
O191	O	-0.039112	-0.000265	-0.043477
O192	O	0.460888	0.499735	0.456523
H193	H	0.018773	-0.000281	-0.033672
H194	H	0.518773	0.499719	0.466328
H195	H	-0.493322	-0.000188	-0.020044
H196	H	0.006678	0.499812	0.479956
H197	H	-0.177867	-0.000237	-0.024674
H198	H	0.322133	0.499763	0.475326
H199	H	-0.397755	-0.077190	0.005473
H200	H	0.102245	0.422810	0.505473
O201	O	-0.736765	-0.105307	-0.320864
O202	O	-0.236765	0.394693	0.179136
H203	H	-0.699047	-0.075982	-0.282743
H204	H	-0.199047	0.424018	0.217257
O205	O	-0.721697	0.185487	0.190906
O206	O	-0.221697	0.685487	0.690906
H207	H	-0.688756	0.224806	0.223838
H208	H	-0.188756	0.724806	0.723838
H209	H	-0.822546	-0.119974	-0.249760
H210	H	-0.322546	0.380026	0.250240
H211	H	-0.266331	-0.077215	0.003548
H212	H	0.233669	0.422785	0.503548
O213	O	-0.636580	-0.000143	-0.034711
O214	O	-0.136580	0.499857	0.465289
H215	H	-0.605119	-0.000151	-0.079278
H216	H	-0.105119	0.499849	0.420722
O217	O	-0.818026	0.136991	-0.555682
O218	O	-0.318026	0.636991	-0.055682
H219	H	-0.817481	0.182892	-0.593049
H220	H	-0.317481	0.682892	-0.093049
O221	O	-0.734544	-0.105316	-0.471442
O222	O	-0.234544	0.394684	0.028558
H223	H	-0.740541	-0.096819	-0.528820
H224	H	-0.240541	0.403181	-0.028820
O225	O	-0.818058	-0.137435	-0.555634
O226	O	-0.318058	0.362565	-0.055634
H227	H	-0.817506	-0.183340	-0.592984
H228	H	-0.317506	0.316660	-0.092984
H229	H	-0.815942	0.119539	-0.696689
H230	H	-0.315942	0.619539	-0.196689
O231	O	-0.903667	0.104880	-0.494149
O232	O	-0.403667	0.604880	0.005851
H233	H	-0.932492	0.140048	-0.460584
H234	H	-0.432492	0.640048	0.039416
H235	H	-0.894987	0.091527	-0.351701
H236	H	-0.394987	0.591527	0.148299
H237	H	-0.906156	0.195510	0.006579
H238	H	-0.406156	0.695510	0.506579
