data_functionalizedCrystal
_audit_creation_method	'MofGen! by Chris Wilmer'
_symmetry_space_group_name_H-M	'P1'
_symmetry_Int_Tables_number	1
_symmetry_cell_setting	triclinic
loop_
_symmetry_equiv_pos_as_xyz
  x,y,z
_cell_length_a	15.538191
_cell_length_b	14.971486
_cell_length_c	13.448316
_cell_angle_alpha	90.001801
_cell_angle_beta	89.995865
_cell_angle_gamma	114.556889
loop_
_atom_site_label
_atom_site_type_symbol
_atom_site_fract_x
_atom_site_fract_y
_atom_site_fract_z
O1	O	0.122716	-1.146981	-0.082571
O2	O	0.137412	-0.881795	-0.082598
O3	O	-0.007007	-1.066009	-0.082584
O4	O	0.267135	-0.962767	-0.082585
O5	O	-0.007016	-1.065994	0.082800
O6	O	0.137403	-0.881781	0.082786
O7	O	0.122707	-1.146967	0.082812
Cu8	Cu	0.130054	-1.014372	0.097900
Cu9	Cu	0.130065	-1.014389	-0.097685
O10	O	0.267127	-0.962753	0.082799
C11	C	0.136750	-0.848677	0.000091
C12	C	0.134781	-0.750021	0.000080
C13	C	-0.042095	-1.076803	0.000106
C14	C	-0.146632	-1.108978	0.000099
C15	C	0.123369	-1.180085	0.000122
C16	C	0.125339	-1.278740	0.000126
C17	C	-0.434783	-0.789329	0.000088
C18	C	-0.533015	-0.819585	0.000094
C19	C	-0.555266	-0.989766	0.000110
C20	C	-0.457034	-0.959525	0.000100
C21	C	-0.396800	-0.859305	0.000090
C22	C	-0.419051	-1.029501	0.000102
C23	C	-0.320828	-0.999261	0.000097
C24	C	-0.260588	-0.899046	0.000090
C25	C	-0.298577	-0.829066	0.000085
C26	C	-0.479287	-1.129720	0.000119
C27	C	-0.441304	-1.199696	0.000121
C28	C	-0.343079	-1.169457	0.000109
C29	C	-0.282839	-1.069242	0.000102
C30	C	-0.305090	-1.239438	0.000113
C31	C	-0.206867	-1.209198	0.000109
C32	C	-0.184615	-1.039002	0.000097
C33	C	0.302214	-0.951958	0.000107
C34	C	0.406752	-0.919784	0.000107
N35	N	0.130046	-1.014367	0.235464
C36	C	0.219623	-0.665165	0.000082
C37	C	0.217767	-0.572470	0.000096
C38	C	0.131067	-0.564634	0.000103
C39	C	0.046219	-0.649500	0.000105
C40	C	0.048076	-0.742193	0.000097
C41	C	0.042354	-0.456296	0.000119
C42	C	0.040496	-0.363597	0.000124
C43	C	0.212045	-0.286573	0.000118
C44	C	0.213902	-0.379266	0.000110
C45	C	0.129053	-0.464126	0.000110
N46	N	0.130065	-1.014404	-0.235250
C47	C	0.066124	-1.095947	0.287511
C48	C	0.066123	-1.095953	0.391614
C49	C	0.130050	-1.014381	0.443669
C50	C	0.193976	-0.932793	0.391615
C51	C	0.193971	-0.932785	0.287514
C52	C	0.193982	-0.932816	0.608595
C53	C	0.193988	-0.932824	0.712704
C54	C	0.066134	-1.095984	0.712695
C55	C	0.066130	-1.095976	0.608594
C56	C	0.130057	-1.014389	0.556548
H57	H	-0.135569	-0.957393	0.000082
H58	H	-0.030102	-0.357223	0.000131
H59	H	-0.604322	-1.071366	0.000122
H60	H	0.014071	-1.162375	0.245134
O61	O	-0.585231	-1.162348	0.000127
H62	H	-0.606332	-1.133608	-0.067290
H63	H	0.246043	-0.866399	0.755082
O64	O	-0.002804	-1.183953	0.447754
H65	H	-0.047243	-1.240682	0.394068
O66	O	-0.049159	-0.547828	0.000114
H67	H	-0.109760	-0.526809	0.000108
O68	O	-0.047296	-0.641056	0.000120
H69	H	-0.052251	-0.600673	-0.067288
O70	O	-0.573986	-0.744107	0.000083
H71	H	-0.515597	-0.669341	0.000067
H72	H	-0.490360	-1.281296	0.000132
O73	O	-0.369805	-0.681234	0.000081
H74	H	-0.383320	-0.646233	-0.067327
O75	O	-0.370059	-1.347529	0.000136
H76	H	-0.444741	-1.356799	0.000140
H77	H	-0.021012	-0.811286	0.000096
H78	H	0.246035	-0.866377	0.566223
O79	O	-0.154644	-0.866421	0.000096
H80	H	-0.123940	-0.821709	-0.067310
O81	O	0.262901	-0.844791	0.231365
H82	H	0.308728	-0.867546	0.183908
H83	H	0.246023	-0.866372	0.434004
H84	H	0.014083	-1.162414	0.755078
O85	O	-0.233597	-0.720971	0.000074
H86	H	-0.276507	-0.677386	0.000076
O87	O	0.309277	-0.480946	0.000092
H88	H	0.312539	-0.436883	0.067510
O89	O	-0.165888	-1.284666	0.000100
H90	H	-0.224273	-1.359434	0.000095
O91	O	0.313135	-0.673616	0.000084
H92	H	0.371818	-0.599033	0.000101
O93	O	0.307410	-0.387725	0.000116
H94	H	0.366100	-0.313146	0.000132
O95	O	0.303566	-0.195052	0.000129
H96	H	0.287712	-0.129279	0.000150
O97	O	-0.002821	-1.183953	0.552442
H98	H	-0.047280	-1.240682	0.606121
