data_functionalizedCrystal
_audit_creation_method	'MofGen! by Chris Wilmer'
_symmetry_space_group_name_H-M	'P1'
_symmetry_Int_Tables_number	1
_symmetry_cell_setting	triclinic
loop_
_symmetry_equiv_pos_as_xyz
  x,y,z
_cell_length_a	6.817900
_cell_length_b	12.200863
_cell_length_c	10.943624
_cell_angle_alpha	92.412930
_cell_angle_beta	108.838799
_cell_angle_gamma	107.143441
loop_
_atom_site_label
_atom_site_type_symbol
_atom_site_fract_x
_atom_site_fract_y
_atom_site_fract_z
V1	V	-4.106715	-0.158682	-0.402682
V2	V	-3.606715	0.341318	0.097318
O3	O	-4.073628	0.007656	-0.394882
O4	O	-3.573628	0.507656	0.105118
O5	O	-4.076034	-0.314670	-0.400058
O6	O	-3.576034	0.185330	0.099942
O7	O	-4.084813	-0.156228	-0.578247
O8	O	-3.584813	0.343772	-0.078247
O9	O	-4.064787	-0.151883	-0.215460
O10	O	-3.564787	0.348117	0.284540
V11	V	-4.584613	-0.138788	-0.380273
V12	V	-4.084613	0.361212	0.119727
O13	O	-4.380311	-0.202322	-0.451839
O14	O	-3.880311	0.297678	0.048161
O15	O	-4.761214	-0.095148	-0.331117
O16	O	-4.261214	0.404852	0.168883
O17	O	-4.392088	0.017200	-0.382897
O18	O	-3.892088	0.517200	0.117103
O19	O	-4.735097	-0.305127	-0.388074
O20	O	-4.235097	0.194873	0.111926
O21	O	-4.743937	-0.145587	-0.567496
O22	O	-4.243937	0.354413	-0.067496
O23	O	-4.383308	-0.141242	-0.204709
O24	O	-3.883308	0.358758	0.295291
C25	C	-3.924487	-0.352697	-0.393739
C26	C	-3.424487	0.147303	0.106261
C27	C	-3.980865	-0.480219	-0.392764
C28	C	-3.480865	0.019781	0.107236
C29	C	-3.935685	-0.150587	-0.621035
C30	C	-3.435685	0.349413	-0.121035
C31	C	-3.999179	-0.149612	-0.764560
C32	C	-3.499179	0.350388	-0.264560
C33	C	-4.084050	-0.713696	-0.390988
C34	C	-3.584050	-0.213696	0.109012
C35	C	-4.026623	-0.583773	-0.391976
C36	C	-3.526623	-0.083773	0.108024
C37	C	-3.844372	-0.143049	-0.841703
C38	C	-3.344372	0.356951	-0.341703
C39	C	-4.028340	-0.240467	-0.947773
C40	C	-3.528340	0.259533	-0.447773
C41	C	-3.928372	-0.050468	-0.914229
C42	C	-3.428372	0.449532	-0.414229
C43	C	-4.182352	-0.247122	-0.868755
C44	C	-3.682352	0.252878	-0.368755
C45	C	-4.082309	-0.057036	-0.835187
C46	C	-3.582309	0.442964	-0.335187
C47	C	-4.266412	-0.154483	-0.941228
C48	C	-3.766412	0.345517	-0.441228
C49	C	-4.206976	0.055221	-0.389213
C50	C	-3.706976	0.555221	0.110787
C51	C	-4.129837	0.182742	-0.390197
C52	C	-3.629837	0.682742	0.109803
C53	C	-4.195777	-0.146887	-0.161914
C54	C	-3.695777	0.353113	0.338086
C55	C	-4.111521	-0.147856	-0.018387
C56	C	-3.611521	0.352144	0.481613
H57	H	-3.665432	-0.138345	-0.798250
H58	H	-3.165432	0.361655	-0.298250
O59	O	-4.323723	-0.357350	-0.841619
O60	O	-3.823723	0.142650	-0.341619
H61	H	-4.301474	-0.433316	-0.887936
H62	H	-3.801474	0.066684	-0.387936
H63	H	-4.445457	-0.159340	-0.984476
H64	H	-3.945457	0.340660	-0.484476
H65	H	-4.006187	-0.318015	-0.996786
H66	H	-3.506187	0.181985	-0.496786
H67	H	-4.104378	0.020515	-0.786139
H68	H	-3.604378	0.520515	-0.286139
H69	H	-3.821621	0.032624	-0.934923
H70	H	-3.321621	0.532624	-0.434923
