data_functionalizedCrystal
_audit_creation_method	'MofGen! by Chris Wilmer'
_symmetry_space_group_name_H-M	'P1'
_symmetry_Int_Tables_number	1
_symmetry_cell_setting	triclinic
loop_
_symmetry_equiv_pos_as_xyz
  x,y,z
_cell_length_a	18.215407
_cell_length_b	12.594516
_cell_length_c	18.215399
_cell_angle_alpha	89.977894
_cell_angle_beta	89.982632
_cell_angle_gamma	90.013496
loop_
_atom_site_label
_atom_site_type_symbol
_atom_site_fract_x
_atom_site_fract_y
_atom_site_fract_z
Zn1	Zn	1.125117	-0.423826	-0.416097
Zn2	Zn	1.125044	-0.601823	-0.293044
Zn3	Zn	1.002050	-0.423851	-0.293050
Zn4	Zn	1.002035	-0.601755	-0.416074
O5	O	1.063561	-0.512814	-0.354566
O6	O	1.228092	-0.447455	-0.399781
O7	O	1.108705	-0.578254	-0.190060
O8	O	1.018412	-0.274902	-0.309385
O9	O	1.228038	-0.578229	-0.309374
O10	O	1.108829	-0.274883	-0.399787
O11	O	1.018341	-0.447499	-0.190065
O12	O	0.899063	-0.447432	-0.309362
O13	O	1.018386	-0.578113	-0.519061
O14	O	0.899052	-0.578137	-0.399747
O15	O	1.108814	-0.447389	-0.519079
O16	O	1.108690	-0.750760	-0.309351
O17	O	1.018315	-0.750709	-0.399741
C18	C	0.872355	-0.512781	-0.354553
C19	C	0.790556	-0.512793	-0.354565
C20	C	0.602389	-0.444839	-0.401715
C21	C	0.525530	-0.444848	-0.401717
C22	C	0.525486	-0.580818	-0.307431
C23	C	0.602343	-0.580803	-0.307425
C24	C	0.640793	-0.512815	-0.354571
C25	C	0.487077	-0.512839	-0.354579
C26	C	0.403743	-0.512850	-0.354582
C27	C	0.724132	-0.512803	-0.354568
C28	C	1.063513	-0.789355	-0.354559
C29	C	1.063560	-0.907660	-0.354581
C30	C	1.014400	-0.976924	-0.403709
C31	C	0.996471	-1.047782	-0.336557
C32	C	1.081556	-1.047602	-0.421744
C33	C	1.045595	-0.976959	-0.287393
C34	C	1.130712	-0.976773	-0.372625
C35	C	1.112808	-1.047598	-0.305427
C36	C	1.255514	-0.512847	-0.354580
C37	C	1.337313	-0.512862	-0.354585
C38	C	1.063606	-0.512740	-0.546519
C39	C	1.063625	-0.512709	-0.628318
C40	C	1.063630	-0.235193	-0.354590
C41	C	1.063659	-0.116887	-0.354599
C42	C	1.110728	-0.444578	-0.816522
C43	C	1.110737	-0.444547	-0.893381
C44	C	1.016574	-0.580676	-0.893352
C45	C	1.016563	-0.580701	-0.816494
C46	C	1.063644	-0.512653	-0.778082
C47	C	1.063664	-0.512597	-0.931798
C48	C	1.063674	-0.512564	-1.015132
C49	C	1.063634	-0.512685	-0.694743
C50	C	1.063559	-0.512810	-0.163360
C51	C	1.063683	-0.512541	-0.081561
H52	H	0.633693	-0.389475	-0.440102
H53	H	1.030348	-0.946057	-0.230585
H54	H	1.187442	-0.945562	-0.387905
F55	F	0.643218	-0.653148	-0.257240
F56	F	0.959967	-0.936360	-0.457935
F57	F	0.966473	-0.653097	-0.934240
H58	H	1.096738	-1.078632	-0.478536
H59	H	1.149077	-0.389111	-0.924676
F60	F	0.922300	-1.088547	-0.316610
H61	H	1.149063	-0.389166	-0.785249
H62	H	0.978215	-0.636135	-0.785195
H63	H	0.494266	-0.389493	-0.440105
H64	H	0.494171	-0.636173	-0.269047
H65	H	1.154423	-1.078434	-0.263841
