data_functionalizedCrystal
_audit_creation_method	'MofGen! by Chris Wilmer'
_symmetry_space_group_name_H-M	'P1'
_symmetry_Int_Tables_number	1
_symmetry_cell_setting	triclinic
loop_
_symmetry_equiv_pos_as_xyz
  x,y,z
_cell_length_a	16.959455
_cell_length_b	17.640280
_cell_length_c	16.959447
_cell_angle_alpha	78.773258
_cell_angle_beta	89.985678
_cell_angle_gamma	78.797529
loop_
_atom_site_label
_atom_site_type_symbol
_atom_site_fract_x
_atom_site_fract_y
_atom_site_fract_z
Zn1	Zn	1.272058	-0.314718	-0.383358
Zn2	Zn	1.298725	-0.446906	-0.224487
Zn3	Zn	1.139892	-0.314743	-0.251191
Zn4	Zn	1.166584	-0.446847	-0.356638
O5	O	1.219315	-0.380803	-0.303918
O6	O	1.386210	-0.332268	-0.362291
O7	O	1.277645	-0.429409	-0.117412
O8	O	1.135093	-0.204133	-0.291081
O9	O	1.405802	-0.429385	-0.245569
O10	O	1.232195	-0.204115	-0.388184
O11	O	1.160951	-0.332310	-0.137030
O12	O	1.032819	-0.332252	-0.265171
O13	O	1.180586	-0.429284	-0.470800
O14	O	1.052429	-0.429308	-0.342643
O15	O	1.258077	-0.332210	-0.490432
O16	O	1.303527	-0.557504	-0.219659
O17	O	1.206444	-0.557461	-0.316750
C18	C	1.013943	-0.380777	-0.303906
C19	C	0.926088	-0.380785	-0.303915
C20	C	0.544372	-0.330225	-0.263693
C21	C	0.564874	-0.431447	-0.344176
C22	C	0.647417	-0.431435	-0.344174
C23	C	0.678442	-0.380819	-0.303929
C24	C	0.626924	-0.330214	-0.263687
C25	C	0.698943	-0.482045	-0.384408
C26	C	0.781492	-0.482037	-0.384406
C27	C	0.812518	-0.431416	-0.344166
C28	C	0.760993	-0.380808	-0.303923
C29	C	0.792018	-0.330191	-0.263679
C30	C	0.740495	-0.279579	-0.223440
C31	C	0.657949	-0.279593	-0.223447
C32	C	0.895063	-0.431402	-0.344159
C33	C	0.874570	-0.330180	-0.263673
C34	C	1.260797	-0.586162	-0.262425
C35	C	1.278616	-0.674015	-0.244700
C36	C	1.084273	-0.962977	-0.438860
C37	C	1.101018	-1.045529	-0.422179
C38	C	1.202174	-1.045509	-0.321181
C39	C	1.185440	-0.962956	-0.337856
C40	C	1.126488	-0.921696	-0.396695
C41	C	1.227655	-0.921675	-0.295692
C42	C	1.210920	-0.839129	-0.312362
C43	C	1.151969	-0.797864	-0.371197
C44	C	1.109753	-0.839151	-0.413366
C45	C	1.286603	-0.962935	-0.236849
C46	C	1.328818	-0.921654	-0.194684
C47	C	1.312087	-0.839107	-0.211358
C48	C	1.253136	-0.797842	-0.270193
C49	C	1.354303	-0.797820	-0.169190
C50	C	1.337568	-0.715274	-0.185860
C51	C	1.236401	-0.715296	-0.286864
C52	C	1.425488	-0.380830	-0.303932
C53	C	1.513347	-0.380841	-0.303937
C54	C	1.219334	-0.380738	-0.510100
C55	C	1.219343	-0.380710	-0.597962
C56	C	1.177692	-0.174643	-0.345592
C57	C	1.159955	-0.086790	-0.363350
C58	C	1.179074	-0.431169	-0.959236
C59	C	1.259767	-0.330085	-0.979674
C60	C	1.259749	-0.330101	-0.897124
C61	C	1.219394	-0.380653	-0.845627
C62	C	1.179057	-0.431189	-0.876679
C63	C	1.300092	-0.279573	-0.866065
C64	C	1.300077	-0.279588	-0.783511
C65	C	1.259717	-0.330137	-0.732013
C66	C	1.219377	-0.380673	-0.763069
C67	C	1.179023	-0.431225	-0.711572
C68	C	1.138678	-0.481759	-0.742628
C69	C	1.138697	-0.481737	-0.825180
C70	C	1.259698	-0.330158	-0.649460
C71	C	1.179006	-0.431245	-0.629014
C72	C	1.219329	-0.380811	-0.098551
C73	C	1.219429	-0.380617	-0.010734
H74	H	0.539609	-0.472661	-0.376936
H75	H	0.673677	-0.523260	-0.417166
C76	C	1.079886	-0.746269	-0.538436
C77	C	1.044959	-0.793786	-0.478050
H78	H	1.039887	-0.718266	-0.578369
H79	H	1.102627	-0.709879	-0.515700
H80	H	1.120824	-0.778441	-0.562202
H81	H	1.004025	-0.761613	-0.454280
H82	H	1.022205	-0.830180	-0.500789
H83	H	1.066646	-1.079137	-0.456529
H84	H	0.765767	-0.238370	-0.190669
C85	C	0.876596	-0.493129	-0.488467
C86	C	0.838122	-0.537660	-0.428644
H87	H	0.911559	-0.527468	-0.515775
H88	H	0.837446	-0.458740	-0.525702
H89	H	0.906886	-0.462987	-0.464490
H90	H	0.807826	-0.567798	-0.452622
H91	H	0.877277	-0.572062	-0.391403
C92	C	0.990180	-0.442505	-0.448207
C93	C	0.951700	-0.487028	-0.388383
H94	H	1.025149	-0.476850	-0.475506
H95	H	0.951034	-0.408122	-0.485449
H96	H	1.020466	-0.412358	-0.424232
H97	H	0.921409	-0.517171	-0.412358
H98	H	0.990852	-0.521426	-0.351134
H99	H	1.292548	-0.289017	-0.624177
H100	H	1.146224	-0.472309	-0.984526
C101	C	1.058932	-0.581694	-0.730698
C102	C	1.094335	-0.537338	-0.686014
H103	H	1.031567	-0.616011	-0.695742
H104	H	1.021738	-0.547249	-0.769849
H105	H	1.099487	-0.611914	-0.756796
H106	H	1.053780	-0.507113	-0.659921
H107	H	1.131533	-0.571787	-0.646849
C108	C	1.379860	-0.179664	-0.877979
C109	C	1.344450	-0.224010	-0.922669
H110	H	1.407248	-0.145363	-0.912928
H111	H	1.339314	-0.149434	-0.851894
H112	H	1.417044	-0.214122	-0.838815
H113	H	1.307261	-0.189551	-0.961830
H114	H	1.385001	-0.254242	-0.948767
C115	C	1.272733	-1.172037	-0.250762
C116	C	1.266962	-1.090865	-0.256497
H117	H	1.312732	-1.200035	-0.210828
H118	H	1.222384	-1.185597	-0.236412
H119	H	1.287010	-1.185529	-0.301155
H120	H	1.252679	-1.077372	-0.206105
H121	H	1.317322	-1.077300	-0.270842
H122	H	1.146135	-0.472404	-0.587091
H123	H	1.036274	-0.929383	-0.486779
H124	H	1.188402	-0.681701	-0.334783
H125	H	1.402296	-0.831426	-0.121277
C126	C	1.107908	-0.679665	-0.319861
C127	C	1.133571	-0.707127	-0.389525
H128	H	1.096555	-0.623649	-0.331176
H129	H	1.060708	-0.698380	-0.302373
H130	H	1.149063	-0.698333	-0.278790
H131	H	1.092413	-0.688464	-0.430594
H132	H	1.180777	-0.688404	-0.407023
C133	C	1.399377	-1.048182	-0.124265
C134	C	1.393607	-0.967011	-0.130000
H135	H	1.439377	-1.076181	-0.084331
H136	H	1.349029	-1.061742	-0.109915
H137	H	1.413654	-1.061675	-0.174658
H138	H	1.379324	-0.953518	-0.079608
H139	H	1.443966	-0.953446	-0.144345
C140	C	1.439249	-0.723537	-0.084351
C141	C	1.383969	-0.669892	-0.139513
H142	H	1.467895	-0.695518	-0.055739
H143	H	1.411368	-0.755773	-0.047576
H144	H	1.475983	-0.755694	-0.112330
H145	H	1.347232	-0.637739	-0.111533
H146	H	1.411852	-0.637642	-0.176293
H147	H	1.300229	-1.030149	-0.223279
C148	C	0.645975	-0.179533	-0.143891
C149	C	0.601316	-0.223968	-0.179214
H150	H	0.611008	-0.145192	-0.116587
H151	H	0.685116	-0.213927	-0.106650
H152	H	0.672078	-0.149335	-0.184485
H153	H	0.575217	-0.254170	-0.138619
H154	H	0.562161	-0.189569	-0.216458
H155	H	1.105854	-0.522881	-0.850473
C156	C	1.404148	-0.268612	-0.692880
C157	C	1.344399	-0.224030	-0.749373
H158	H	1.431506	-0.234307	-0.671807
H159	H	1.380111	-0.298719	-0.650405
H160	H	1.441357	-0.303036	-0.718121
H161	H	1.307187	-0.189610	-0.724130
H162	H	1.368437	-0.193909	-0.791854
H163	H	1.292627	-0.288932	-1.021606
H164	H	0.899822	-0.288956	-0.230907
C165	C	0.408735	-0.285287	-0.227965
C166	C	0.487743	-0.274594	-0.219463
H167	H	0.373776	-0.250945	-0.200654
H168	H	0.392906	-0.273785	-0.283411
H169	H	0.405940	-0.338382	-0.205580
H170	H	0.490539	-0.221500	-0.241852
H171	H	0.503577	-0.286091	-0.164005
