data_functionalizedCrystal
_audit_creation_method	'MofGen! by Chris Wilmer'
_symmetry_space_group_name_H-M	'P1'
_symmetry_Int_Tables_number	1
_symmetry_cell_setting	triclinic
loop_
_symmetry_equiv_pos_as_xyz
  x,y,z
_cell_length_a	14.971491
_cell_length_b	14.971486
_cell_length_c	13.448316
_cell_angle_alpha	89.993189
_cell_angle_beta	89.991393
_cell_angle_gamma	83.615182
loop_
_atom_site_label
_atom_site_type_symbol
_atom_site_fract_x
_atom_site_fract_y
_atom_site_fract_z
O1	O	1.186945	0.116587	-0.082735
O2	O	0.926545	0.130541	-0.082728
O3	O	1.063724	-0.006636	-0.082724
O4	O	1.049765	0.253764	-0.082738
O5	O	1.063707	-0.006645	0.082659
O6	O	0.926528	0.130532	0.082656
O7	O	1.186927	0.116578	0.082649
Cu8	Cu	1.056726	0.123555	0.097753
Cu9	Cu	1.056746	0.123565	-0.097832
O10	O	1.049748	0.253755	0.082646
C11	C	0.893212	0.129912	-0.000035
C12	C	0.793915	0.128039	-0.000032
C13	C	0.366219	0.119963	-0.090205
C14	C	0.459519	0.121720	-0.090201
C15	C	0.506155	0.122600	-0.000047
C16	C	0.459488	0.121713	0.090109
C17	C	0.366190	0.119950	0.090104
C18	C	0.653950	0.125391	0.090113
C19	C	0.747254	0.127156	0.090118
C20	C	0.747279	0.127160	-0.090193
C21	C	0.653981	0.125397	-0.090198
C22	C	0.607319	0.124513	-0.000041
C23	C	1.063091	-0.039965	-0.000033
C24	C	1.061221	-0.139262	-0.000034
C25	C	1.141810	-0.196486	-0.000035
C26	C	1.140046	-0.289786	-0.000045
C27	C	1.057693	-0.325859	-0.000046
C28	C	0.977098	-0.268628	-0.000048
C29	C	0.978862	-0.175331	-0.000045
C30	C	0.973427	-0.463091	-0.000051
C31	C	0.971663	-0.556395	-0.000052
C32	C	1.134611	-0.577546	-0.000051
C33	C	1.136375	-0.484248	-0.000049
C34	C	1.055780	-0.427023	-0.000048
C35	C	1.220261	0.117207	-0.000046
C36	C	1.319557	0.119080	-0.000056
C37	C	1.050381	0.287084	-0.000048
C38	C	1.052252	0.386381	-0.000054
N39	N	1.056718	0.123547	0.235318
N40	N	1.056761	0.123565	-0.235396
C41	C	1.117480	0.062830	0.287359
C42	C	1.117486	0.062829	0.391463
C43	C	1.056733	0.123550	0.443522
C44	C	0.995965	0.184270	0.391473
C45	C	0.995955	0.184266	0.287372
C46	C	0.995989	0.184276	0.608453
C47	C	0.995999	0.184282	0.712562
C48	C	1.117520	0.062840	0.712544
C49	C	1.117510	0.062835	0.608443
C50	C	1.056743	0.123556	0.556401
H51	H	0.785222	0.127877	0.163529
H52	H	0.946527	0.233727	0.754943
H53	H	0.615959	0.124681	0.163528
N54	N	0.509780	0.122664	0.187351
H55	H	0.555685	0.067994	0.191380
H56	H	0.541235	0.178838	0.191306
N57	N	1.183073	-0.002651	0.768659
H58	H	1.148875	-0.042325	0.811868
H59	H	1.221542	-0.041044	0.719810
H60	H	1.205670	-0.336374	-0.000044
H61	H	0.328253	0.119254	-0.163619
N62	N	0.882840	-0.595304	-0.000061
H63	H	0.847543	-0.574442	-0.061375
H64	H	0.894032	-0.663084	-0.000022
H65	H	0.328198	0.119240	0.163513
N66	N	1.225202	-0.445347	-0.000050
H67	H	1.229569	-0.407101	-0.061357
H68	H	1.229506	-0.407160	0.061299
H69	H	0.946476	0.233707	0.245000
N70	N	0.509849	0.122661	-0.187433
H71	H	0.466148	0.121839	-0.244546
H72	H	0.541373	0.178795	-0.191369
H73	H	1.208871	-0.167123	-0.000028
H74	H	0.785274	0.127882	-0.163602
H75	H	1.200235	-0.624143	-0.000055
N76	N	0.930442	0.249762	0.447627
H77	H	0.940804	0.313262	0.429493
H78	H	0.866979	0.239275	0.429514
H79	H	0.907797	-0.416500	-0.000054
H80	H	0.910045	-0.298007	-0.000055
N81	N	1.183012	-0.002658	0.231213
H82	H	1.221503	-0.041122	0.279982
H83	H	1.148728	-0.042261	0.188037
H84	H	0.913238	-0.128739	-0.000044
N85	N	1.183052	-0.002627	0.447595
H86	H	1.221551	-0.041080	0.398819
H87	H	1.222613	0.031722	0.490750
H88	H	0.946503	0.233719	0.566084
N89	N	0.603676	0.124451	-0.187432
H90	H	0.647392	0.125275	-0.244546
H91	H	0.572162	0.068312	-0.191349
N92	N	1.183040	-0.002649	0.552289
H93	H	1.221536	-0.041116	0.601052
H94	H	1.148753	-0.042250	0.509113
