data_functionalizedCrystal
_audit_creation_method	'MofGen! by Chris Wilmer'
_symmetry_space_group_name_H-M	'P1'
_symmetry_Int_Tables_number	1
_symmetry_cell_setting	triclinic
loop_
_symmetry_equiv_pos_as_xyz
  x,y,z
_cell_length_a	21.295417
_cell_length_b	21.295418
_cell_length_c	15.296720
_cell_angle_alpha	80.364800
_cell_angle_beta	99.638166
_cell_angle_gamma	89.951286
loop_
_atom_site_label
_atom_site_type_symbol
_atom_site_fract_x
_atom_site_fract_y
_atom_site_fract_z
Zn1	Zn	-0.311963	-0.900624	-0.510555
Zn2	Zn	0.188037	-0.400624	-0.010555
Zn3	Zn	-0.399018	-0.918766	-0.359704
Zn4	Zn	0.100982	-0.418766	0.140296
Zn5	Zn	-0.293796	-0.813590	-0.359671
Zn6	Zn	0.206204	-0.313590	0.140329
Zn7	Zn	-0.417217	-0.795331	-0.510432
Zn8	Zn	0.082783	-0.295331	-0.010432
O9	O	-0.355499	-0.857078	-0.435090
O10	O	0.144501	-0.357078	0.064910
O11	O	-0.323498	-0.991112	-0.490609
O12	O	0.176502	-0.491112	0.009391
O13	O	-0.369841	-0.920048	-0.233474
O14	O	0.130159	-0.420048	0.266526
O15	O	-0.208121	-0.825185	-0.379724
O16	O	0.291879	-0.325185	0.120276
O17	O	-0.387457	-1.004441	-0.379780
O18	O	0.112543	-0.504441	0.120220
O19	O	-0.221468	-0.889128	-0.490577
O20	O	0.278532	-0.389128	0.009423
O21	O	-0.292534	-0.842776	-0.233450
O22	O	0.207466	-0.342776	0.266550
O23	O	-0.310181	-0.723087	-0.379604
O24	O	0.189819	-0.223087	0.120396
O25	O	-0.418474	-0.794064	-0.636673
O26	O	0.081526	-0.294064	-0.136673
O27	O	-0.400858	-0.709672	-0.490368
O28	O	0.099142	-0.209672	0.009632
O29	O	-0.341145	-0.871422	-0.636764
O30	O	0.158855	-0.371422	-0.136764
O31	O	-0.489517	-0.902343	-0.379661
O32	O	0.010483	-0.402343	0.120339
O33	O	-0.502888	-0.811656	-0.490400
O34	O	-0.002888	-0.311656	0.009600
C35	C	-0.355524	-0.693541	-0.434970
C36	C	0.144476	-0.193541	0.065030
C37	C	-0.355553	-0.623576	-0.434939
C38	C	0.144447	-0.123576	0.065061
C39	C	-0.402812	-0.583751	-0.492524
C40	C	0.097188	-0.083751	0.007476
C41	C	-0.402803	-0.518005	-0.492558
C42	C	0.097197	-0.018005	0.007442
C43	C	-0.355540	-0.492087	-0.434991
C44	C	0.144460	0.007913	0.065009
C45	C	-0.308272	-0.531920	-0.377402
C46	C	0.191728	-0.031920	0.122598
C47	C	-0.308279	-0.597665	-0.377376
C48	C	0.191721	-0.097665	0.122624
N49	N	-0.341099	-0.398352	-0.356087
N50	N	0.158901	0.101648	0.143913
N51	N	-0.341097	-0.335897	-0.356114
N52	N	0.158903	0.164103	0.143886
C53	C	-0.355517	-0.294004	-0.435066
C54	C	0.144483	0.205996	0.064934
N55	N	-0.369952	-0.316924	-0.513992
N56	N	0.130048	0.183076	-0.013992
N57	N	-0.369957	-0.379384	-0.513964
N58	N	0.130043	0.120616	-0.013964
C59	C	-0.355527	-0.420799	-0.435013
C60	C	0.144473	0.079201	0.064987
C61	C	-0.402770	-0.182888	-0.492692
C62	C	0.097230	0.317112	0.007308
C63	C	-0.402757	-0.117141	-0.492728
C64	C	0.097243	0.382859	0.007272
C65	C	-0.308228	-0.131058	-0.377563
C66	C	0.191772	0.368942	0.122437
C67	C	-0.308239	-0.196804	-0.377536
C68	C	0.191761	0.303196	0.122464
C69	C	-0.355513	-0.222715	-0.435099
C70	C	0.144487	0.277285	0.064901
C71	C	-0.519044	-0.857001	-0.435040
C72	C	-0.019044	-0.357001	0.064960
C73	C	-0.589013	-0.857022	-0.435049
C74	C	-0.089013	-0.357022	0.064951
C75	C	-0.614904	-0.904272	-0.377447
C76	C	-0.114904	-0.404272	0.122553
C77	C	-0.680649	-0.904299	-0.377467
C78	C	-0.180649	-0.404299	0.122533
C79	C	-0.720500	-0.857066	-0.435080
C80	C	-0.220500	-0.357066	0.064920
C81	C	-0.694602	-0.809813	-0.492694
C82	C	-0.194602	-0.309813	0.007306
C83	C	-0.628859	-0.809791	-0.492679
C84	C	-0.128859	-0.309791	0.007321
N85	N	-0.824608	-0.801173	-0.441916
N86	N	-0.324608	-0.301173	0.058084
N87	N	-0.887061	-0.801196	-0.441926
N88	N	-0.387061	-0.301196	0.058074
C89	C	-0.918580	-0.857131	-0.435132
C90	C	-0.418580	-0.357131	0.064868
N91	N	-0.885286	-0.913044	-0.428311
N92	N	-0.385286	-0.413044	0.071689
N93	N	-0.822827	-0.913021	-0.428297
N94	N	-0.322827	-0.413021	0.071703
C95	C	-0.791788	-0.857085	-0.435104
C96	C	-0.291788	-0.357085	0.064896
C97	C	-1.015759	-0.904413	-0.377548
C98	C	-0.515759	-0.404413	0.122452
C99	C	-1.081506	-0.904440	-0.377575
C100	C	-0.581506	-0.404440	0.122425
C101	C	-1.095457	-0.809950	-0.492798
C102	C	-0.595457	-0.309950	0.007202
C103	C	-1.029712	-0.809927	-0.492776
C104	C	-0.529712	-0.309927	0.007224
C105	C	-0.989866	-0.857159	-0.435146
C106	C	-0.489866	-0.357159	0.064854
C107	C	-0.191317	-0.857169	-0.435160
C108	C	0.308683	-0.357169	0.064840
C109	C	-0.121352	-0.857208	-0.435190
C110	C	0.378648	-0.357208	0.064810
C111	C	-0.383866	-0.828683	-0.670363
C112	C	0.116134	-0.328683	-0.170363
C113	C	-0.395955	-0.816582	-0.770622
C114	C	0.104045	-0.316582	-0.270622
C115	C	-0.355481	-0.021256	-0.435186
C116	C	0.144519	0.478744	0.064814
C117	C	-0.355492	-0.091227	-0.435161
C118	C	0.144508	0.408773	0.064839
C119	C	-0.268989	-0.943584	-1.053423
C120	C	0.231011	-0.443584	-0.553423
C121	C	-0.257633	-0.954956	-0.959225
C122	C	0.242367	-0.454956	-0.459225
C123	C	-0.292212	-0.920364	-0.912069
C124	C	0.207788	-0.420364	-0.412069
C125	C	-0.338150	-0.874397	-0.959121
C126	C	0.161850	-0.374397	-0.459121
C127	C	-0.349512	-0.863026	-1.053329
C128	C	0.150488	-0.363026	-0.553329
C129	C	-0.372734	-0.839806	-0.911975
C130	C	0.127266	-0.339806	-0.411975
C131	C	-0.418673	-0.793839	-0.959027
C132	C	0.081327	-0.293839	-0.459027
C133	C	-0.430032	-0.782471	-1.053226
C134	C	0.069968	-0.282471	-0.553226
C135	C	-0.395452	-0.817063	-1.100381
C136	C	0.104548	-0.317063	-0.600381
C137	C	-0.361373	-0.851177	-0.817768
C138	C	0.138627	-0.351177	-0.317768
C139	C	-0.441895	-0.770619	-0.817674
C140	C	0.058105	-0.270619	-0.317674
C141	C	-0.453252	-0.759247	-0.911872
C142	C	0.046748	-0.259247	-0.411872
C143	C	-0.327196	-0.885398	-0.200734
C144	C	0.172804	-0.385398	0.299266
C145	C	-0.314930	-0.897621	-0.100475
C146	C	0.185070	-0.397621	0.399525
H147	H	-0.441305	-0.604844	-0.539398
H148	H	0.058695	-0.104844	-0.039398
F149	F	-0.453057	-0.074755	-0.554026
F150	F	0.046943	0.425245	-0.054026
F151	F	-0.453105	-0.475613	-0.553850
F152	F	0.046895	0.024387	-0.053850
F153	F	-0.601304	-0.759499	-0.553990
F154	F	-0.101304	-0.259499	-0.053990
H155	H	-0.983315	-0.942874	-0.330626
H156	H	-0.483315	-0.442874	0.169374
H157	H	-0.269743	-0.109957	-0.330695
H158	H	0.230257	0.390043	0.169305
F159	F	-0.453080	-0.210467	-0.553959
F160	F	0.046920	0.289533	-0.053959
H161	H	-1.102584	-0.942920	-0.330670
H162	H	-0.602584	-0.442920	0.169330
H163	H	-0.240844	-0.971748	-1.091826
H164	H	0.259156	-0.471748	-0.591826
F165	F	-1.137866	-0.759684	-0.554120
F166	F	-0.637866	-0.259684	-0.054120
F167	F	-0.407539	-0.804964	-1.200639
F168	F	0.092461	-0.304964	-0.700639
F169	F	-0.257939	-0.239191	-0.316243
F170	F	0.242061	0.260809	0.183757
H171	H	-0.269789	-0.510814	-0.330532
H172	H	0.230211	-0.010814	0.169468
H173	H	-0.269792	-0.630090	-0.330484
H174	H	0.230208	-0.130090	0.169516
F175	F	-0.478933	-0.733557	-1.103300
F176	F	0.021067	-0.233557	-0.603300
F177	F	-0.502142	-0.710327	-0.961959
F178	F	-0.002142	-0.210327	-0.461959
H179	H	-0.582463	-0.942732	-0.330524
H180	H	-0.082463	-0.442732	0.169476
F181	F	-0.280123	-0.932468	-0.811815
F182	F	0.219877	-0.432468	-0.311815
H183	H	-0.701734	-0.942777	-0.330560
H184	H	-0.201734	-0.442777	0.169440
F185	F	-0.208744	-1.003876	-0.909155
F186	F	0.291256	-0.503876	-0.409155
H187	H	-0.727053	-0.771357	-0.539605
H188	H	-0.227053	-0.271357	-0.039605
F189	F	-1.002156	-0.759635	-0.554082
F190	F	-0.502156	-0.259635	-0.054082
H191	H	-0.323969	-0.888603	-0.779467
H192	H	0.176031	-0.388603	-0.279467
H193	H	-0.470054	-0.742452	-0.779280
H194	H	0.029946	-0.242452	-0.279280
