data_functionalizedCrystal
_audit_creation_method	'MofGen! by Chris Wilmer'
_symmetry_space_group_name_H-M	'P1'
_symmetry_Int_Tables_number	1
_symmetry_cell_setting	triclinic
loop_
_symmetry_equiv_pos_as_xyz
  x,y,z
_cell_length_a	17.699077
_cell_length_b	27.732064
_cell_length_c	16.776229
_cell_angle_alpha	89.997427
_cell_angle_beta	89.993415
_cell_angle_gamma	82.965000
loop_
_atom_site_label
_atom_site_type_symbol
_atom_site_fract_x
_atom_site_fract_y
_atom_site_fract_z
O1	O	1.003548	0.061113	-0.066270
O2	O	0.783100	0.069068	-0.066273
O3	O	0.900164	-0.005281	-0.066275
O4	O	0.886484	0.135462	-0.066269
O5	O	0.900149	-0.005286	0.066302
O6	O	0.783084	0.069064	0.066303
O7	O	1.003533	0.061108	0.066306
Zn8	Zn	0.893306	0.065085	0.087354
Zn9	Zn	0.893326	0.065091	-0.087321
O10	O	0.886469	0.135458	0.066308
C11	C	0.754898	0.068782	0.000014
C12	C	0.670887	0.067928	0.000013
C13	C	0.631414	0.067523	0.072281
C14	C	0.552479	0.066713	0.072282
C15	C	0.513016	0.066311	0.000014
C16	C	0.552495	0.066715	-0.072260
C17	C	0.631429	0.067521	-0.072260
C18	C	0.234160	0.063462	-0.072262
C19	C	0.155219	0.062657	-0.072256
C20	C	0.155209	0.062654	0.072280
C21	C	0.234144	0.063460	0.072280
C22	C	0.273616	0.063861	0.000007
C23	C	0.359207	0.064738	0.000007
C24	C	0.427426	0.065438	0.000013
C25	C	0.899867	-0.023291	0.000011
C26	C	0.898997	-0.076949	0.000003
C27	C	0.823892	-0.454291	-0.000001
C28	C	0.827096	-0.252619	-0.000002
O29	O	0.768816	-0.221575	-0.000034
N30	N	0.896513	-0.233243	-0.000001
C31	C	0.965133	-0.264288	-0.000005
O32	O	1.024250	-0.243180	-0.000012
C33	C	0.961929	-0.465959	-0.000010
C34	C	0.892507	-0.485332	-0.000002
C35	C	0.754476	-0.473664	0.000006
C36	C	0.753676	-0.524079	0.000010
C37	C	0.822291	-0.555121	0.000008
C38	C	0.891707	-0.535747	0.000002
C39	C	1.030549	-0.497003	-0.000020
C40	C	1.029741	-0.547423	-0.000023
C41	C	0.960320	-0.566797	-0.000015
C42	C	0.959522	-0.617203	0.000005
N43	N	0.890105	-0.636579	0.000004
C44	C	0.821490	-0.605538	0.000006
C45	C	0.966811	-0.158407	-0.000001
C46	C	0.967612	-0.107990	0.000002
C47	C	0.829574	-0.096324	0.000003
C48	C	0.828774	-0.146743	0.000007
C49	C	0.897394	-0.177784	-0.000002
C50	C	0.819814	-0.711413	0.000016
C51	C	0.819020	-0.761833	0.000024
C52	C	0.957058	-0.773495	0.000018
C53	C	0.957853	-0.723079	0.000014
C54	C	0.889225	-0.692039	0.000011
O55	O	1.017770	-0.648275	0.000029
O56	O	0.762381	-0.626655	-0.000004
C57	C	0.824692	-0.403876	-0.000005
C58	C	0.894108	-0.384502	-0.000012
C59	C	0.962723	-0.415543	-0.000013
C60	C	0.894909	-0.334084	-0.000009
C61	C	0.826293	-0.303043	-0.000007
C62	C	0.756876	-0.322419	-0.000008
C63	C	0.756076	-0.372834	-0.000004
C64	C	1.032140	-0.396167	-0.000013
C65	C	1.032935	-0.345752	-0.000016
C66	C	0.964319	-0.314710	-0.000014
C67	C	1.031735	0.061395	0.000017
C68	C	1.115746	0.062249	0.000013
C69	C	0.886765	0.153468	0.000020
C70	C	0.887636	0.207125	0.000022
N71	N	0.893298	0.065081	0.206565
N72	N	0.893341	0.065092	-0.206532
C73	C	0.945150	0.032172	0.248282
C74	C	0.945154	0.032172	0.331734
C75	C	0.893309	0.065083	0.373468
C76	C	0.841452	0.097993	0.331746
C77	C	0.841445	0.097991	0.248295
C78	C	0.841479	0.098002	0.668293
C79	C	0.841492	0.098003	0.751750
C80	C	0.945188	0.032184	0.751732
C81	C	0.945181	0.032181	0.668281
C82	C	0.893322	0.065090	0.626566
C83	C	0.893317	0.065089	0.536078
C84	C	0.893317	0.065086	0.463955
H85	H	0.123062	0.062325	0.131129
H86	H	0.697145	-0.539848	0.000009
O87	O	0.117006	0.062244	-0.142533
C88	C	0.168767	0.062782	-0.206325
H89	H	0.228346	0.048058	-0.185142
H90	H	0.151040	0.039091	-0.256866
H91	H	0.168771	0.101631	-0.228550
O92	O	0.753081	-0.681335	0.000051
C93	C	0.691649	-0.709255	0.000037
H94	H	0.711321	-0.746904	0.025137
H95	H	0.643604	-0.690613	0.038531
H96	H	0.670346	-0.712825	-0.063564
O97	O	1.033543	-0.188489	0.000033
C98	C	1.094975	-0.160569	0.000017
H99	H	1.075299	-0.122921	0.025116
H100	H	1.143013	-0.179212	0.038510
H101	H	1.116291	-0.156997	-0.063585
O102	O	0.688659	-0.391673	0.000137
C103	C	0.684057	-0.420499	0.068788
H104	H	0.723461	-0.408622	0.116782
H105	H	0.623002	-0.415905	0.091834
H106	H	0.701984	-0.460277	0.053264
H107	H	0.663566	0.067852	-0.131108
O108	O	0.995604	0.000192	0.372133
C109	C	1.041356	-0.028860	0.317403
H110	H	1.041963	-0.009044	0.257912
H111	H	1.101888	-0.036273	0.341499
H112	H	1.017215	-0.064753	0.308542
H113	H	0.987370	0.005375	0.214307
O114	O	0.669760	0.067999	0.142464
C115	C	0.706372	0.110305	0.146786
H116	H	0.676256	0.139313	0.105777
H117	H	0.704218	0.124357	0.210706
H118	H	0.768247	0.101456	0.127371
O119	O	0.272574	0.063785	0.142432
C120	C	0.327280	0.022397	0.146759
H121	H	0.342131	0.008571	0.084009
H122	H	0.380747	0.032373	0.177346
H123	H	0.303200	-0.007218	0.182419
H124	H	0.799236	0.124788	0.365731
H125	H	1.024142	-0.092221	0.000008
O126	O	0.272616	0.063838	-0.142394
C127	C	0.350746	0.064647	-0.126905
H128	H	0.364839	0.049455	-0.064799
H129	H	0.385826	0.041500	-0.173067
H130	H	0.364751	0.103640	-0.130326
H131	H	1.012923	-0.798777	0.000021
H132	H	0.701007	-0.297136	-0.000002
O133	O	0.514247	0.066345	0.142555
C134	C	0.566006	0.066865	0.206340
H135	H	0.618962	0.082737	0.185150
H136	H	0.538114	0.090091	0.256883
H137	H	0.582795	0.028188	0.228566
H138	H	0.520359	0.066384	-0.131102
H139	H	1.087079	-0.481239	-0.000026
O140	O	0.791049	0.130006	0.207893
C141	C	0.745279	0.159047	0.262621
H142	H	0.776307	0.159571	0.322100
H143	H	0.733278	0.197658	0.238504
H144	H	0.689242	0.143397	0.271512
O145	O	0.751628	-0.780709	-0.000079
C146	C	0.747031	-0.809513	-0.068750
H147	H	0.806836	-0.822134	-0.091640
H148	H	0.717251	-0.842496	-0.053305
H149	H	0.713288	-0.787202	-0.116832
H150	H	0.799255	0.124798	0.634335
H151	H	0.772245	-0.162513	0.000016
H152	H	0.773705	-0.071042	0.000008
O153	O	0.687747	-0.443584	0.000045
C154	C	0.626318	-0.471506	0.000029
H155	H	0.645993	-0.509156	0.025121
H156	H	0.578274	-0.452867	0.038528
H157	H	0.605012	-0.475072	-0.063573
H158	H	0.799271	0.124804	0.785728
H159	H	0.987413	0.005387	0.785705
O160	O	1.096471	-0.577507	0.000005
C161	C	1.157908	-0.549591	-0.000022
H162	H	1.138241	-0.511942	0.025077
H163	H	1.205949	-0.568237	0.038464
H164	H	1.179215	-0.546022	-0.063629
H165	H	1.089470	-0.329983	-0.000016
O166	O	1.025354	-0.704337	-0.000027
C167	C	1.085743	-0.742549	-0.000006
H168	H	1.064936	-0.776780	-0.025090
H169	H	1.134244	-0.732067	-0.038509
H170	H	1.106882	-0.749700	0.063596
O171	O	1.098867	-0.426248	0.000026
C172	C	1.160299	-0.398329	0.000005
H173	H	1.140623	-0.360679	0.025097
H174	H	1.208336	-0.416970	0.038501
H175	H	1.181615	-0.394761	-0.063598
H176	H	0.987400	0.005384	0.634304
