data_functionalizedCrystal
_audit_creation_method	'MofGen! by Chris Wilmer'
_symmetry_space_group_name_H-M	'P1'
_symmetry_Int_Tables_number	1
_symmetry_cell_setting	triclinic
loop_
_symmetry_equiv_pos_as_xyz
  x,y,z
_cell_length_a	27.732048
_cell_length_b	10.489741
_cell_length_c	9.565339
_cell_angle_alpha	90.000900
_cell_angle_beta	89.995294
_cell_angle_gamma	96.409085
loop_
_atom_site_label
_atom_site_type_symbol
_atom_site_fract_x
_atom_site_fract_y
_atom_site_fract_z
O1	O	0.068187	-1.691056	-0.116191
O2	O	0.074588	-1.319579	-0.116214
O3	O	0.001064	-1.516855	-0.116175
O4	O	0.141712	-1.493780	-0.116230
O5	O	0.001068	-1.516839	0.116345
O6	O	0.074593	-1.319563	0.116306
O7	O	0.068192	-1.691040	0.116329
Zn8	Zn	0.071393	-1.505299	0.153235
Zn9	Zn	0.071387	-1.505320	-0.153120
O10	O	0.141716	-1.493765	0.116290
C11	C	-0.016944	-1.516363	0.000089
C12	C	-0.070608	-1.514904	0.000100
C13	C	0.074107	-1.272061	0.000043
C14	C	0.072661	-1.130495	0.000036
C15	C	0.068673	-1.738559	0.000069
C16	C	0.070119	-1.880124	0.000067
C17	C	-0.408745	-1.622299	0.000035
C18	C	-0.610439	-1.616888	0.000015
O19	O	-0.641075	-1.715093	-0.000040
N20	N	-0.630301	-1.499911	0.000009
C21	C	-0.599736	-1.384279	-0.000001
O22	O	-0.621258	-1.284660	-0.000021
C23	C	-0.398044	-1.389692	0.000009
C24	C	-0.378184	-1.506676	0.000029
C25	C	-0.388886	-1.739274	0.000054
C26	C	-0.338465	-1.740625	0.000066
C27	C	-0.307904	-1.625002	0.000060
C28	C	-0.327764	-1.508028	0.000042
C29	C	-0.367480	-1.274062	-0.000011
C30	C	-0.317054	-1.275425	-0.000012
C31	C	-0.297195	-1.392409	0.000008
C32	C	-0.246783	-1.393757	0.000048
N33	N	-0.226920	-1.510733	0.000054
C34	C	-0.257481	-1.626356	0.000060
C35	C	-0.705628	-1.381446	-0.000003
C36	C	-0.756051	-1.380092	-0.000003
C37	C	-0.766751	-1.612701	0.000010
C38	C	-0.716327	-1.614053	0.000020
C39	C	-0.685766	-1.498422	0.000003
C40	C	-0.151594	-1.629186	0.000088
C41	C	-0.101169	-1.630527	0.000106
C42	C	-0.090474	-1.397919	0.000085
C43	C	-0.140895	-1.396577	0.000074
C44	C	-0.171454	-1.512221	0.000071
O45	O	-0.216118	-1.295604	0.000088
O46	O	-0.235950	-1.725961	0.000049
C47	C	-0.459166	-1.620947	0.000023
C48	C	-0.479025	-1.503973	0.000004
C49	C	-0.448464	-1.388350	-0.000002
C50	C	-0.529448	-1.502619	0.000004
C51	C	-0.560009	-1.618242	0.000010
C52	C	-0.540147	-1.735219	0.000016
C53	C	-0.489727	-1.736570	0.000029
C54	C	-0.468327	-1.271374	-0.000008
C55	C	-0.518748	-1.270032	-0.000019
C56	C	-0.549308	-1.385654	-0.000013
C57	C	0.159724	-1.494257	0.000023
C58	C	0.213388	-1.495715	0.000003
N59	N	0.071397	-1.505295	0.362315
C60	C	0.025879	-1.064411	0.000067
C61	C	0.047976	-0.971320	-0.114583
C62	C	0.047992	-0.971339	0.114663
C63	C	0.094777	-1.039269	-0.114709
C64	C	0.094786	-1.039297	0.114640
C65	C	0.116916	-0.946232	-0.000038
N66	N	0.071379	-1.505335	-0.362199
C67	C	0.105388	-1.414034	0.453500
C68	C	0.115168	-1.529101	0.546682
C69	C	0.061621	-1.390277	0.546688
C70	C	0.081198	-1.620419	0.453445
C71	C	0.027633	-1.481520	0.453443
C72	C	0.037394	-1.596671	0.546583
H73	H	-0.176470	-1.723354	0.000080
O74	O	-0.775316	-1.266421	-0.000256
C75	C	-0.759722	-1.196002	-0.120669
H76	H	-0.748993	-1.264436	-0.204830
H77	H	-0.790451	-1.142350	-0.161100
H78	H	-0.727115	-1.124277	-0.093448
O79	O	-0.796511	-1.724903	-0.000057
C80	C	-0.845273	-1.698607	-0.000029
H81	H	-0.847552	-1.598463	-0.044037
H82	H	-0.867853	-1.772354	-0.067550
H83	H	-0.859842	-1.703743	0.111519
H84	H	0.152170	-1.549238	0.587636
O85	O	0.091154	-1.736385	0.404566
C86	C	0.091069	-1.734941	0.257174
H87	H	0.098277	-1.631738	0.218629
H88	H	0.120621	-1.792610	0.216495
H89	H	0.054242	-1.779309	0.217215
O90	O	0.003032	-1.688785	0.594877
C91	C	-0.042943	-1.664509	0.545295
H92	H	-0.038337	-1.603362	0.446661
H93	H	-0.065549	-1.759295	0.520302
H94	H	-0.062120	-1.611242	0.628827
O95	O	-0.386818	-1.160500	-0.000232
C96	C	-0.415646	-1.152753	-0.120685
H97	H	-0.427854	-1.253533	-0.160807
H98	H	-0.448835	-1.102548	-0.093627
H99	H	-0.393563	-1.095916	-0.205021
H100	H	-0.009359	-1.461348	0.412456
H101	H	0.053360	-1.292993	0.587650
H102	H	-0.012578	-1.115791	-0.000061
H103	H	-0.085003	-1.725793	0.000126
O104	O	-0.319153	-1.854230	0.000314
C105	C	-0.290300	-1.861975	0.120718
H106	H	-0.302457	-1.795568	0.204893
H107	H	-0.294467	-1.964855	0.161133
H108	H	-0.250647	-1.831767	0.093490
H109	H	0.134160	-1.336927	0.412630
H110	H	-0.680750	-1.287280	-0.000017
H111	H	-0.292173	-1.181262	-0.000029
H112	H	0.114566	-1.069467	0.211560
H113	H	0.028191	-0.941224	0.211592
O114	O	-0.696980	-1.727609	-0.000159
C115	C	-0.668143	-1.735381	-0.120604
H116	H	-0.655939	-1.634610	-0.160760
H117	H	-0.634953	-1.785563	-0.093523
H118	H	-0.690218	-1.792252	-0.204924
O119	O	0.118320	-1.074871	-0.230628
C120	C	0.093749	-1.039472	-0.351153
H121	H	0.071438	-0.957845	-0.324430
H122	H	0.121296	-1.006561	-0.435815
H123	H	0.068646	-1.125384	-0.390676
O124	O	-0.160109	-1.282829	-0.000002
C125	C	-0.122320	-1.181069	0.000036
H126	H	-0.087942	-1.216138	-0.043957
H127	H	-0.133139	-1.099346	-0.067494
H128	H	-0.115323	-1.145436	0.111585
H129	H	-0.065582	-1.303782	0.000085
H130	H	-0.413764	-1.833433	0.000054
O131	O	0.162851	-0.885297	-0.000371
C132	C	0.187328	-0.919940	-0.121397
H133	H	0.159693	-0.953753	-0.205491
H134	H	0.211969	-0.833368	-0.161415
H135	H	0.210114	-1.000709	-0.095152
H136	H	-0.473562	-1.831831	0.000045
H137	H	0.028180	-0.941183	-0.211498
O138	O	-0.569790	-1.847620	-0.000168
C139	C	-0.560730	-1.918694	-0.120607
H140	H	-0.522594	-1.886623	-0.160745
H141	H	-0.563908	-2.025137	-0.093523
H142	H	-0.588360	-1.901798	-0.204940
H143	H	-0.534912	-1.174762	-0.000023
H144	H	-0.443448	-1.177217	-0.000016
