data_functionalizedCrystal
_audit_creation_method	'MofGen! by Chris Wilmer'
_symmetry_space_group_name_H-M	'P1'
_symmetry_Int_Tables_number	1
_symmetry_cell_setting	triclinic
loop_
_symmetry_equiv_pos_as_xyz
  x,y,z
_cell_length_a	18.627243
_cell_length_b	18.627245
_cell_length_c	18.627297
_cell_angle_alpha	90.002039
_cell_angle_beta	59.997824
_cell_angle_gamma	119.999685
loop_
_atom_site_label
_atom_site_type_symbol
_atom_site_fract_x
_atom_site_fract_y
_atom_site_fract_z
O1	O	0.633240	-0.492484	-0.021356
O2	O	0.486232	-0.388088	0.021256
O3	O	0.633235	-0.388087	-0.125751
O4	O	0.486237	-0.492485	0.125650
O5	O	0.513833	-0.507489	-0.125750
O6	O	0.366830	-0.507489	0.021256
O7	O	0.513838	-0.611886	-0.021356
Cu8	Cu	0.429432	-0.570590	-0.000050
Cu9	Cu	0.570639	-0.429384	-0.000050
O10	O	0.366835	-0.611886	0.125650
C11	C	0.356044	-0.256979	0.030935
C12	C	0.406443	-0.162282	0.024836
C13	C	0.269040	-0.300580	0.031539
C14	C	0.356039	-0.386983	0.030943
C15	C	0.406432	-0.431286	0.024852
C16	C	0.269035	-0.430386	0.031548
C17	C	0.226044	-0.386979	0.030935
C18	C	0.137446	-0.431279	0.024835
C19	C	0.398838	-0.300583	0.031548
O20	O	-0.104350	-0.611881	-0.021369
O21	O	0.104442	-0.507482	0.021239
O22	O	0.104453	-0.507489	-0.125766
O23	O	-0.104360	-0.611875	0.125635
O24	O	0.104457	-0.388084	-0.125773
O25	O	0.104446	-0.388078	0.021231
O26	O	-0.104345	-0.492477	-0.021377
Cu27	Cu	0.000051	-0.429375	-0.000073
Cu28	Cu	0.000046	-0.570584	-0.000065
O29	O	-0.104356	-0.492470	0.125628
C30	C	0.644032	-0.386986	-0.387050
C31	C	0.593636	-0.431285	-0.431350
C32	C	0.731038	-0.300587	-0.430453
C33	C	0.644032	-0.386986	-0.257049
C34	C	0.593635	-0.431287	-0.162352
C35	C	0.731037	-0.300588	-0.300650
C36	C	0.774032	-0.256986	-0.387049
C37	C	0.862632	-0.162290	-0.431348
C38	C	0.601235	-0.430390	-0.300651
C39	C	0.774046	-0.612982	-0.031065
C40	C	0.862649	-0.568681	-0.024971
C41	C	0.731054	-0.699380	-0.031674
C42	C	0.644041	-0.612985	-0.031058
C43	C	0.593641	-0.568686	-0.024957
C44	C	0.601246	-0.699383	-0.031667
C45	C	0.644046	-0.742983	-0.031064
C46	C	0.593651	-0.837679	-0.024969
C47	C	0.731049	-0.569580	-0.031668
O48	O	0.513853	0.125721	-0.021375
O49	O	0.366846	-0.125678	0.021232
O50	O	0.513856	0.021315	-0.125772
O51	O	0.366843	-0.021272	0.125629
O52	O	0.633253	0.021311	-0.125765
O53	O	0.486243	-0.125682	0.021240
O54	O	0.633250	0.125717	-0.021368
Cu55	Cu	0.570648	0.000017	-0.000063
Cu56	Cu	0.429448	0.000022	-0.000072
O57	O	0.486240	-0.021275	0.125637
O58	O	1.104430	0.125707	-0.492538
O59	O	0.895633	-0.125690	-0.388147
O60	O	0.895628	0.021307	-0.388137
O61	O	1.104435	-0.021290	-0.492548
O62	O	0.895631	0.021311	-0.507540
O63	O	0.895636	-0.125686	-0.507550
O64	O	1.104433	0.125711	-0.611941
Cu65	Cu	1.000035	0.000013	-0.570648
Cu66	Cu	1.000031	0.000008	-0.429440
O67	O	1.104438	-0.021286	-0.611951
O68	O	0.486231	-0.492490	-0.611948
O69	O	0.633235	-0.388087	-0.507553
O70	O	0.486230	-0.388090	-0.507544
O71	O	0.633237	-0.492487	-0.611956
O72	O	0.366830	-0.507490	-0.388142
O73	O	0.513836	-0.507487	-0.388151
O74	O	0.366832	-0.611890	-0.492545
Cu75	Cu	0.429431	-0.570591	-0.429446
Cu76	Cu	0.570636	-0.429386	-0.570653
O77	O	0.513837	-0.611887	-0.492554
C78	C	0.226037	-0.742989	0.386948
C79	C	0.137437	-0.837686	0.431246
C80	C	0.269030	-0.699389	0.430353
C81	C	0.356038	-0.612988	0.256949
C82	C	0.406435	-0.568687	0.162252
C83	C	0.398834	-0.569585	0.300552
C84	C	0.356036	-0.612990	0.386950
C85	C	0.406432	-0.568691	0.431252
C86	C	0.269032	-0.699387	0.300549
C87	C	0.356073	-0.256995	-0.387073
C88	C	0.406473	-0.162299	-0.431376
C89	C	0.398871	-0.300599	-0.430474
C90	C	0.226065	-0.386990	-0.257069
C91	C	0.137460	-0.431286	-0.162372
C92	C	0.269060	-0.430398	-0.300668
C93	C	0.356070	-0.386997	-0.387067
C94	C	0.406468	-0.431300	-0.431364
C95	C	0.269063	-0.300593	-0.300674
C96	C	-0.355975	-0.612964	0.386929
C97	C	-0.406373	-0.568662	0.431227
C98	C	-0.398774	-0.699362	0.430336
C99	C	-0.225968	-0.612970	0.256931
C100	C	-0.137363	-0.568673	0.162234
C101	C	-0.268966	-0.699367	0.300535
C102	C	-0.355976	-0.742966	0.386934
C103	C	-0.406376	-0.837662	0.431237
C104	C	-0.268964	-0.569563	0.300530
C105	C	0.774043	0.030962	-0.387056
C106	C	0.862639	0.024856	-0.431349
C107	C	0.731051	0.031564	-0.430463
C108	C	0.644049	0.030986	-0.257064
C109	C	0.593654	0.024905	-0.162369
C110	C	0.601253	0.031588	-0.300669
C111	C	0.644048	0.030966	-0.387064
C112	C	0.593653	0.024863	-0.431366
C113	C	0.731051	0.031584	-0.300660
O114	O	0.633303	0.125701	-0.611972
O115	O	0.486281	-0.125700	-0.507577
O116	O	0.633272	0.021288	-0.507558
O117	O	0.486311	-0.021287	-0.611991
O118	O	0.513861	0.021292	-0.388162
O119	O	0.366869	-0.125696	-0.388181
O120	O	0.513891	0.125706	-0.492576
Cu121	Cu	0.429477	0.000005	-0.429476
Cu122	Cu	0.570695	0.000001	-0.570676
O123	O	0.366900	-0.021282	-0.492594
C124	C	0.356047	-0.030927	0.386929
C125	C	0.406443	-0.024826	0.431231
C126	C	0.269046	-0.031525	0.430327
C127	C	0.356047	-0.030947	0.256928
C128	C	0.406442	-0.024866	0.162234
C129	C	0.269045	-0.031545	0.300525
C130	C	0.226053	-0.030923	0.386920
C131	C	0.137458	-0.024816	0.431213
C132	C	0.398842	-0.031549	0.300533
H133	H	0.233059	-0.265571	0.032519
H134	H	0.233032	-0.734393	0.501347
C135	C	0.221247	-0.524989	-0.253963
C136	C	0.291785	-0.529666	-0.249656
C137	C	0.247775	-0.616781	-0.206627
H138	H	0.201600	-0.561178	-0.285520
H139	H	0.163195	-0.544715	-0.196128
H140	H	0.349818	-0.509951	-0.307482
H141	H	0.311437	-0.493496	-0.218093
H142	H	0.189724	-0.636508	-0.148791
H143	H	0.228130	-0.652963	-0.238188
H144	H	0.295625	-0.619965	-0.203691
C145	C	0.492058	-0.253939	0.033044
C146	C	0.469415	-0.229800	0.108680
C147	C	0.555253	-0.186848	0.110098
H148	H	0.546207	-0.202823	-0.017617
H149	H	0.511486	-0.292305	0.033378
H150	H	0.450000	-0.191436	0.108339
H151	H	0.415280	-0.280900	0.159354
H152	H	0.574682	-0.225214	0.110431
H153	H	0.609396	-0.135736	0.059433
H154	H	0.539899	-0.170472	0.161419
C155	C	0.508026	-0.745961	-0.033165
C156	C	0.530671	-0.699186	-0.108802
C157	C	0.444836	-0.742075	-0.110224
H158	H	0.453874	-0.748992	0.017495
H159	H	0.488601	-0.803755	-0.033498
H160	H	0.550083	-0.641408	-0.108461
H161	H	0.584809	-0.696154	-0.159474
H162	H	0.425411	-0.799868	-0.110557
H163	H	0.390690	-0.745103	-0.059561
H164	H	0.460191	-0.710349	-0.161547
H165	H	0.767008	-0.265581	-0.265636
C166	C	0.220924	-0.032984	0.525034
C167	C	0.121152	-0.108614	0.578059
C168	C	0.076806	-0.109989	0.665304
H169	H	0.220468	0.017680	0.528498
H170	H	0.258972	-0.033292	0.544788
H171	H	0.083114	-0.108298	0.558311
H172	H	0.121579	-0.159290	0.574622
H173	H	0.114854	-0.110297	0.685058
H174	H	0.076358	-0.059322	0.668759
H175	H	0.009111	-0.161307	0.701293
H176	H	0.233069	-0.032523	0.265512
C177	C	0.778877	-0.253880	-0.525053
C178	C	0.708373	-0.249539	-0.529761
C179	C	0.752419	-0.206504	-0.616886
H180	H	0.798518	-0.285445	-0.561235
H181	H	0.836937	-0.196054	-0.544774
H182	H	0.650332	-0.307355	-0.510051
H183	H	0.688727	-0.217968	-0.493598
H184	H	0.810478	-0.148678	-0.636607
H185	H	0.772058	-0.238073	-0.653061
H186	H	0.704592	-0.203546	-0.620091
C187	C	0.220855	-0.525086	0.032993
C188	C	0.121071	-0.578073	0.108614
C189	C	0.076654	-0.665309	0.109970
H190	H	0.258822	-0.544927	0.033308
H191	H	0.220430	-0.528481	-0.017698
H192	H	0.121503	-0.574682	0.159292
H193	H	0.083078	-0.558260	0.108315
H194	H	0.076228	-0.668704	0.059280
H195	H	0.114629	-0.685141	0.110283
H196	H	0.008943	-0.701270	0.161274
C197	C	0.507749	-0.524980	-0.253833
C198	C	0.428256	-0.529625	-0.178611
C199	C	0.342115	-0.616738	-0.135452
H200	H	0.522780	-0.561153	-0.237292
H201	H	0.488196	-0.544744	-0.292124
H202	H	0.447805	-0.509872	-0.140328
H203	H	0.413194	-0.493471	-0.195128
H204	H	0.322563	-0.636502	-0.173743
H205	H	0.357157	-0.652904	-0.118916
H206	H	0.288166	-0.619900	-0.084414
H207	H	0.767042	-0.734382	-0.032654
C208	C	0.507784	0.032721	-0.253982
C209	C	0.428250	-0.042118	-0.249668
C210	C	0.342131	-0.041111	-0.206659
H211	H	0.522820	0.083927	-0.285554
H212	H	0.488268	0.032947	-0.196148
H213	H	0.447763	-0.042337	-0.307492
H214	H	0.413183	-0.093337	-0.218089
H215	H	0.322615	-0.040884	-0.148825
H216	H	0.357178	0.010099	-0.238235
H217	H	0.288155	-0.091891	-0.203719
H218	H	0.767030	-0.498593	-0.032637
H219	H	0.468846	-0.498597	0.265543
H220	H	0.468895	-0.265589	-0.501459
C221	C	0.221150	-0.253905	-0.253888
C222	C	0.220757	-0.249603	-0.178662
C223	C	0.176638	-0.206597	-0.135546
H224	H	0.153407	-0.285473	-0.237356
H225	H	0.259247	-0.196069	-0.292202
H226	H	0.182659	-0.307429	-0.140355
H227	H	0.288487	-0.218029	-0.195169
H228	H	0.214735	-0.148761	-0.173860
H229	H	0.108899	-0.238169	-0.119020
H230	H	0.176375	-0.203665	-0.084505
C231	C	-0.221011	-0.746118	0.254033
C232	C	-0.192197	-0.770274	0.300842
C233	C	-0.148038	-0.813356	0.258046
H234	H	-0.162885	-0.707850	0.196222
H235	H	-0.268742	-0.797238	0.251076
H236	H	-0.144470	-0.719161	0.303788
H237	H	-0.250305	-0.808551	0.358651
H238	H	-0.195768	-0.864476	0.255090
H239	H	-0.089915	-0.775083	0.200237
H240	H	-0.128490	-0.829758	0.289804
C241	C	0.220914	-0.746029	0.253957
C242	C	0.121138	-0.770174	0.300716
C243	C	0.076797	-0.813123	0.257808
H244	H	0.220467	-0.797142	0.250927
H245	H	0.258959	-0.707659	0.196162
H246	H	0.083102	-0.808542	0.358495
H247	H	0.121556	-0.719078	0.303748
H248	H	0.114843	-0.774754	0.200013
H249	H	0.076357	-0.864233	0.254780
H250	H	0.009099	-0.829504	0.289523
C251	C	-0.492289	-0.746099	0.524916
C252	C	-0.571805	-0.750427	0.529559
C253	C	-0.657982	-0.793505	0.616657
H254	H	-0.477329	-0.714568	0.561141
H255	H	-0.511779	-0.803930	0.544620
H256	H	-0.552318	-0.692607	0.509865
H257	H	-0.586796	-0.781965	0.493353
H258	H	-0.677472	-0.851335	0.636361
H259	H	-0.643012	-0.761969	0.652875
H260	H	-0.711947	-0.796454	0.619817
H261	H	-0.233028	-0.498597	0.265502
C262	C	0.778831	0.032715	-0.525071
C263	C	0.708277	-0.042104	-0.529760
C264	C	0.752250	-0.041068	-0.616896
H265	H	0.836888	0.032932	-0.544877
H266	H	0.798445	0.083953	-0.561192
H267	H	0.688677	-0.093328	-0.493651
H268	H	0.650217	-0.042337	-0.509972
H269	H	0.771864	0.010170	-0.653018
H270	H	0.810307	-0.040848	-0.636695
H271	H	0.704383	-0.091827	-0.620091
H272	H	0.767034	0.032562	-0.265654
C273	C	0.492286	-0.032720	0.253912
C274	C	0.571814	0.042111	0.249613
C275	C	0.657904	0.041060	0.206680
H276	H	0.511856	-0.032962	0.196081
H277	H	0.477170	-0.083950	0.285550
H278	H	0.586930	0.093327	0.217974
H279	H	0.552278	0.042369	0.307432
H280	H	0.642787	-0.010170	0.238318
H281	H	0.677464	0.040815	0.148851
H282	H	0.711871	0.091827	0.203764
