data_functionalizedCrystal
_audit_creation_method	'MofGen! by Chris Wilmer'
_symmetry_space_group_name_H-M	'P1'
_symmetry_Int_Tables_number	1
_symmetry_cell_setting	triclinic
loop_
_symmetry_equiv_pos_as_xyz
  x,y,z
_cell_length_a	6.817900
_cell_length_b	17.329402
_cell_length_c	17.110486
_cell_angle_alpha	92.673421
_cell_angle_beta	99.060439
_cell_angle_gamma	103.025973
loop_
_atom_site_label
_atom_site_type_symbol
_atom_site_fract_x
_atom_site_fract_y
_atom_site_fract_z
V1	V	-3.971136	-0.108505	-0.239562
O2	O	-3.965663	0.005455	-0.242383
O3	O	-3.917307	-0.215379	-0.230823
O4	O	-3.901088	-0.106730	-0.347282
O5	O	-3.981994	-0.103946	-0.125119
V6	V	-4.458273	-0.094886	-0.226736
O7	O	-4.224468	-0.138378	-0.267696
O8	O	-4.655138	-0.065013	-0.198601
O9	O	-4.288896	0.011987	-0.235474
O10	O	-4.581143	-0.208846	-0.223914
O11	O	-4.564812	-0.099446	-0.341179
O12	O	-4.305114	-0.096661	-0.119016
C13	C	-3.761687	-0.241435	-0.225212
C14	C	-3.798817	-0.328805	-0.218786
C15	C	-3.841274	-0.381009	-0.287492
C16	C	-3.876141	-0.463101	-0.281447
C17	C	-3.868565	-0.492988	-0.206694
C18	C	-3.826098	-0.440777	-0.137982
C19	C	-3.791218	-0.358687	-0.144028
C20	C	-3.972617	-0.740290	-0.184849
C21	C	-4.007508	-0.822387	-0.178808
C22	C	-4.057545	-0.844705	-0.322273
C23	C	-4.022673	-0.762612	-0.328313
C24	C	-3.980199	-0.710409	-0.259601
C25	C	-3.904211	-0.576899	-0.200512
C26	C	-3.944540	-0.626499	-0.265783
C27	C	-3.740998	-0.102843	-0.373766
C28	C	-3.764974	-0.102099	-0.461781
C29	C	-3.957325	-0.105672	-0.506903
C30	C	-3.979841	-0.104972	-0.589602
C31	C	-3.810005	-0.100706	-0.627179
C32	C	-3.617637	-0.097130	-0.582050
C33	C	-3.595121	-0.097824	-0.499352
C34	C	-3.868926	-0.098409	-0.876685
C35	C	-3.891459	-0.097718	-0.959390
C36	C	-4.253661	-0.105559	-0.966936
C37	C	-4.231130	-0.106258	-0.884236
C38	C	-4.038763	-0.102678	-0.839115
C39	C	-3.833017	-0.099993	-0.711711
C40	C	-4.015752	-0.103385	-0.754583
C41	C	-4.107858	0.038040	-0.241083
C42	C	-4.049964	0.125409	-0.247514
C43	C	-4.128547	-0.100551	-0.092528
C44	C	-4.083810	-0.101291	-0.004512
H45	H	-3.910711	-0.505603	-0.337395
H46	H	-3.694741	-0.096522	-0.742315
C47	C	-4.465249	-0.109487	-1.016575
N48	N	-4.624624	-0.112440	-1.053963
H49	H	-3.438481	-0.094895	-0.462612
H50	H	-4.154028	-0.106856	-0.723985
C51	C	-3.657329	-0.094489	-0.827064
N52	N	-3.497945	-0.091542	-0.789686
H53	H	-4.369432	-0.109731	-0.853648
H54	H	-3.753146	-0.094241	-0.989981
H55	H	-3.479354	-0.093651	-0.612651
H56	H	-3.898054	-0.601242	-0.139648
H57	H	-3.847474	-0.356683	-0.348365
H58	H	-3.756638	-0.316182	-0.088079
C59	C	-3.999158	-0.855259	-0.096570
N60	N	-3.992870	-0.880019	-0.034632
H61	H	-3.938052	-0.697795	-0.128899
H62	H	-3.819921	-0.465117	-0.077116
C63	C	-4.030972	-0.729743	-0.410546
N64	N	-4.037216	-0.704986	-0.472486
C65	C	-3.952873	-0.593621	-0.348009
N66	N	-3.959156	-0.568850	-0.409942
C67	C	-4.144164	-0.110365	-0.465577
N68	N	-4.284896	-0.113896	-0.434452
H69	H	-4.092125	-0.887218	-0.378214
C70	C	-4.191437	-0.108894	-0.639232
N71	N	-4.350818	-0.111844	-0.676613
