data_functionalizedCrystal
_audit_creation_method	'MofGen! by Chris Wilmer'
_symmetry_space_group_name_H-M	'P1'
_symmetry_Int_Tables_number	1
_symmetry_cell_setting	triclinic
loop_
_symmetry_equiv_pos_as_xyz
  x,y,z
_cell_length_a	21.395362
_cell_length_b	29.839132
_cell_length_c	21.395355
_cell_angle_alpha	89.977614
_cell_angle_beta	90.043940
_cell_angle_gamma	89.938860
loop_
_atom_site_label
_atom_site_type_symbol
_atom_site_fract_x
_atom_site_fract_y
_atom_site_fract_z
Zn1	Zn	0.957796	0.178715	0.354569
Zn2	Zn	0.957672	0.253830	0.249784
Zn3	Zn	0.853011	0.178736	0.249770
Zn4	Zn	0.852954	0.253840	0.354489
O5	O	0.905358	0.216280	0.302153
O6	O	1.045458	0.188667	0.340708
O7	O	0.943761	0.243874	0.162104
O8	O	0.866987	0.115866	0.263699
O9	O	1.045366	0.243853	0.263723
O10	O	0.943972	0.115851	0.340694
O11	O	0.866867	0.188702	0.162094
O12	O	0.765326	0.188711	0.263622
O13	O	0.866889	0.243869	0.442177
O14	O	0.765283	0.243890	0.340558
O15	O	0.943916	0.188676	0.442236
O16	O	0.943705	0.316699	0.263646
O17	O	0.866769	0.316705	0.340572
C18	C	0.742571	0.216304	0.302080
C19	C	0.672929	0.216325	0.302064
C20	C	0.905234	0.333003	0.302116
C21	C	0.905238	0.382937	0.302120
C22	C	0.640211	0.245094	0.342065
C23	C	0.574775	0.245083	0.342093
C24	C	0.542061	0.216308	0.302109
C25	C	0.574788	0.187533	0.262105
C26	C	0.640222	0.187541	0.262083
C27	C	0.438338	0.212688	0.245704
C28	C	0.372905	0.212683	0.245725
C29	C	0.340240	0.216278	0.302178
C30	C	0.373017	0.219889	0.358611
C31	C	0.438451	0.219897	0.358589
C32	C	0.471109	0.216295	0.302129
C33	C	0.236569	0.245037	0.342212
C34	C	0.171133	0.245023	0.342241
C35	C	0.171146	0.187475	0.262248
C36	C	0.236582	0.187487	0.262225
C37	C	0.269289	0.216270	0.302206
C38	C	0.945447	0.692564	0.262130
C39	C	0.945507	0.880237	0.262145
O40	O	0.979626	0.904488	0.228133
N41	N	0.905424	0.903722	0.302163
C42	C	0.865326	0.880286	0.342184
O43	O	0.831239	0.904567	0.376227
C44	C	0.865270	0.692614	0.342172
C45	C	0.905351	0.669131	0.302147
C46	C	0.985526	0.669082	0.222108
C47	C	0.985508	0.622167	0.222103
C48	C	0.945412	0.598734	0.262119
C49	C	0.905333	0.622216	0.302141
C50	C	0.825175	0.669178	0.382196
C51	C	0.825166	0.622257	0.382190
C52	C	0.865247	0.598775	0.342165
C53	C	0.865219	0.551867	0.342152
N54	N	0.905302	0.528383	0.302133
C55	C	0.945399	0.551816	0.262117
C56	C	0.865357	0.978817	0.342186
C57	C	0.865370	1.025734	0.342188
C58	C	0.945553	1.025683	0.262150
C59	C	0.945536	0.978764	0.262145
C60	C	0.905440	0.955332	0.302168
C61	C	0.945358	0.453290	0.262108
C62	C	0.945335	0.406370	0.262104
C63	C	0.865155	0.406426	0.342145
C64	C	0.865176	0.453342	0.342147
C65	C	0.905282	0.476772	0.302126
O66	O	0.831122	0.527587	0.376151
O67	O	0.979490	0.527526	0.228089
C68	C	0.945465	0.739480	0.262136
C69	C	0.905386	0.762962	0.302158
C70	C	0.865290	0.739529	0.342174
C71	C	0.905400	0.809880	0.302160
C72	C	0.945496	0.833313	0.262144
C73	C	0.985579	0.809828	0.222125
C74	C	0.985561	0.762913	0.222120
C75	C	0.825207	0.763014	0.382193
C76	C	0.825228	0.809930	0.382194
C77	C	0.865324	0.833363	0.342178
C78	C	1.068782	0.216257	0.302226
C79	C	1.138423	0.216247	0.302257
C80	C	0.905410	0.216271	0.465576
C81	C	0.905432	0.216267	0.535218
C82	C	0.905476	1.099102	0.302191
C83	C	0.905467	1.049167	0.302172
C84	C	0.905343	0.216257	0.139365
C85	C	0.905442	0.216134	0.069724
C86	C	0.945539	0.187527	0.567962
C87	C	0.945538	0.187507	0.633398
C88	C	0.905437	0.216237	0.666086
C89	C	0.865323	0.244979	0.633333
C90	C	0.865321	0.244994	0.567899
C91	C	0.900447	0.256689	0.769746
C92	C	0.900454	0.256674	0.835179
C93	C	0.905441	0.216189	0.867907
C94	C	0.910435	0.175717	0.835194
C95	C	0.910432	0.175733	0.769759
C96	C	0.905435	0.216223	0.737038
C97	C	0.945549	0.187425	0.971604
C98	C	0.945544	0.187405	1.037041
C99	C	0.865332	0.244881	1.036975
C100	C	0.865334	0.244897	0.971540
C101	C	0.905446	0.216170	0.938858
H102	H	0.548130	0.268511	0.374669
O103	O	0.826296	0.272853	0.536061
C104	C	0.785870	0.247293	0.498168
H105	H	0.782041	0.211905	0.517884
H106	H	0.737632	0.263549	0.497387
H107	H	0.805245	0.245756	0.448592
O108	O	0.671980	0.159644	0.223131
C109	C	0.655890	0.169386	0.160666
H110	H	0.637832	0.205269	0.157416
H111	H	0.698894	0.165491	0.129706
H112	H	0.617934	0.145275	0.144365
O113	O	0.984402	0.159585	0.536156
C114	C	0.948749	0.130575	0.498309
H115	H	0.901256	0.146438	0.488461
H116	H	0.974274	0.124542	0.452318
H117	H	0.941889	0.097286	0.523542
H118	H	0.978174	0.959647	0.229553
H119	H	0.144494	0.268450	0.374819
H120	H	0.666837	0.268532	0.374622
H121	H	0.346223	0.209746	0.199774
H122	H	0.346423	0.222815	0.404581
O123	O	0.268249	0.273006	0.381113
C124	C	0.225335	0.298401	0.416421
H125	H	0.178726	0.279995	0.418654
H126	H	0.244288	0.303246	0.465767
H127	H	0.218289	0.332497	0.393394
H128	H	0.978207	0.164031	0.944993
H129	H	0.896218	0.289648	0.743105
H130	H	0.978196	0.164101	0.660064
O131	O	0.984242	0.383610	0.223135
C132	C	0.970574	0.395102	0.160673
H133	H	0.946499	0.429190	0.159350
H134	H	1.015808	0.396676	0.132637
H135	H	0.938364	0.368734	0.139524
H136	H	1.018180	0.688156	0.189522
O137	O	1.024478	0.599309	0.183314
C138	C	1.064932	0.572131	0.219036
H139	H	1.042806	0.565103	0.266487
H140	H	1.073338	0.539140	0.193520
H141	H	1.111362	0.590171	0.225985
H142	H	0.914497	0.142779	0.743127
H143	H	0.832540	0.472462	0.374741
H144	H	0.144511	0.164043	0.229695
O145	O	0.984521	1.048519	0.223374
C146	C	0.975940	1.094964	0.231972
H147	H	0.955341	1.101362	0.280279
H148	H	1.022893	1.112744	0.227855
H149	H	0.942650	1.108344	0.194736
H150	H	0.832507	0.387340	0.374724
H151	H	0.832726	1.044850	0.374775
H152	H	0.263221	0.164062	0.229648
O153	O	0.826342	0.956127	0.381082
C154	C	0.790981	0.986922	0.416408
H155	H	0.788844	1.020375	0.390739
H156	H	0.741604	0.973415	0.423025
H157	H	0.813898	0.991877	0.464024
O158	O	0.915158	0.136389	0.867000
C159	C	0.861828	0.130607	0.904813
H160	H	0.821520	0.151243	0.885061
H161	H	0.848230	0.093681	0.905538
H162	H	0.872609	0.142222	0.954415
H163	H	0.464927	0.209759	0.199730
H164	H	0.792557	0.743938	0.414780
O165	O	0.786222	0.691912	0.421139
C166	C	0.750827	0.661159	0.456444
H167	H	0.776485	0.627692	0.458631
H168	H	0.744127	0.674699	0.505806
H169	H	0.703249	0.656220	0.433444
H170	H	0.978202	0.163998	1.063700
H171	H	0.832671	0.268369	0.659952
O172	O	0.786224	0.832758	0.420989
C173	C	0.745788	0.859960	0.385282
H174	H	0.741930	0.845846	0.335926
H175	H	0.697562	0.860528	0.407889
H176	H	0.765174	0.895500	0.383156
O177	O	0.786305	0.599475	0.421136
C178	C	0.821948	0.572280	0.461634
H179	H	0.871299	0.586370	0.465564
H180	H	0.799266	0.571754	0.509825
H181	H	0.824101	0.536726	0.442262
H182	H	0.832675	0.268268	1.063589
H183	H	0.465135	0.222836	0.404539
O184	O	0.826357	0.272861	0.939825
C185	C	0.790950	0.298206	0.982705
H186	H	0.816613	0.299748	1.029367
H187	H	0.784220	0.333607	0.963790
H188	H	0.743386	0.281758	0.989632
H189	H	1.018199	0.743797	0.189527
H190	H	1.018225	0.828916	0.189541
O191	O	0.895571	0.296024	0.866857
C192	C	0.891174	0.331761	0.823941
H193	H	0.873032	0.318676	0.777286
H194	H	0.857619	0.358182	0.842821
H195	H	0.939316	0.347323	0.817014
O196	O	0.543039	0.159518	0.223330
C197	C	0.559129	0.114758	0.237123
H198	H	0.577175	0.112544	0.287177
H199	H	0.516127	0.092554	0.231798
H200	H	0.597093	0.102983	0.203549
H201	H	0.978018	0.472362	0.229521
