data_functionalizedCrystal
_audit_creation_method	'MofGen! by Chris Wilmer'
_symmetry_space_group_name_H-M	'P1'
_symmetry_Int_Tables_number	1
_symmetry_cell_setting	triclinic
loop_
_symmetry_equiv_pos_as_xyz
  x,y,z
_cell_length_a	14.044220
_cell_length_b	14.044220
_cell_length_c	12.503572
_cell_angle_alpha	86.156832
_cell_angle_beta	86.164750
_cell_angle_gamma	86.811122
loop_
_atom_site_label
_atom_site_type_symbol
_atom_site_fract_x
_atom_site_fract_y
_atom_site_fract_z
O1	O	1.282200	-0.225116	-0.089210
O2	O	1.005530	-0.216809	-0.089237
O3	O	1.139712	-0.082627	-0.089213
O4	O	1.148019	-0.359298	-0.089234
O5	O	1.129622	-0.092737	0.089427
O6	O	0.995440	-0.226918	0.089403
O7	O	1.272110	-0.235226	0.089430
Cu8	Cu	1.132854	-0.231995	0.105728
Cu9	Cu	1.144786	-0.220040	-0.105535
O10	O	1.137929	-0.369407	0.089406
C11	C	0.964864	-0.218228	0.000080
C12	C	0.858721	-0.207383	0.000070
C13	C	0.664382	-0.187558	0.000092
C14	C	0.613253	-0.264472	0.000091
C15	C	0.505116	-0.253441	0.000104
C16	C	0.772529	-0.198587	0.000080
C17	C	1.131031	-0.052060	0.000107
C18	C	1.120187	0.054082	0.000107
C19	C	1.312777	-0.233807	0.000111
C20	C	1.418920	-0.244651	0.000114
C21	C	1.146609	-0.399974	0.000084
C22	C	1.157454	-0.506117	0.000077
N23	N	1.124469	-0.240404	0.254319
C24	C	1.100361	0.248421	0.000090
C25	C	1.177275	0.299551	0.000094
C26	C	1.166244	0.407687	0.000084
C27	C	1.111391	0.140274	0.000099
N28	N	1.153179	-0.211624	-0.254126
C29	C	1.112134	-0.252782	0.473432
C30	C	1.165511	-0.199249	0.526768
C31	C	1.158648	-0.206136	0.648690
C32	C	1.118996	-0.245896	0.351499
H33	H	0.650692	-0.338605	0.000081
C34	C	1.233046	-0.130970	0.465565
C35	C	1.180572	-0.064721	0.401139
C36	C	1.242694	-0.001728	0.344788
H37	H	1.265547	-0.098202	0.515049
H38	H	1.278274	-0.165950	0.421538
H39	H	1.135361	-0.029744	0.445162
H40	H	1.148072	-0.097462	0.351635
H41	H	1.287922	-0.036708	0.300761
H42	H	1.275193	0.031033	0.394280
H43	H	1.207101	0.043223	0.301061
C44	C	1.044175	-0.320665	0.534576
C45	C	0.950524	-0.295834	0.507349
C46	C	0.887898	-0.358337	0.563679
H47	H	1.060929	-0.384257	0.516257
H48	H	1.048455	-0.316301	0.609583
H49	H	0.946249	-0.300206	0.432358
H50	H	0.933741	-0.232252	0.525671
H51	H	0.892177	-0.353974	0.638687
H52	H	0.904660	-0.421926	0.545356
H53	H	0.824348	-0.341493	0.545222
C54	C	0.614296	-0.088792	0.000042
C55	C	0.515446	-0.097348	0.000021
C56	C	0.469265	-0.006386	-0.000044
H57	H	0.628615	-0.058524	0.062317
H58	H	0.635694	-0.051554	-0.062282
H59	H	0.494055	-0.134571	0.062339
H60	H	0.501098	-0.127599	-0.062249
H61	H	0.490663	0.030851	-0.062368
H62	H	0.483592	0.023874	0.062232
H63	H	0.402191	-0.012179	-0.000068
C64	C	1.276078	0.249522	-0.000049
C65	C	1.292058	0.197657	-0.091933
C66	C	1.383055	0.151545	-0.092089
H67	H	1.322978	0.295722	-0.000099
H68	H	1.280058	0.207207	0.062221
H69	H	1.288086	0.239968	-0.154186
H70	H	1.245181	0.151441	-0.091902
H71	H	1.387035	0.109230	-0.029819
H72	H	1.429947	0.197751	-0.092137
H73	H	1.393905	0.116342	-0.154426
H74	H	1.026234	0.285859	0.000080
