data_functionalizedCrystal
_audit_creation_method	'MofGen! by Chris Wilmer'
_symmetry_space_group_name_H-M	'P1'
_symmetry_Int_Tables_number	1
_symmetry_cell_setting	triclinic
loop_
_symmetry_equiv_pos_as_xyz
  x,y,z
_cell_length_a	18.215407
_cell_length_b	18.215405
_cell_length_c	21.395355
_cell_angle_alpha	89.980149
_cell_angle_beta	89.977330
_cell_angle_gamma	90.019398
loop_
_atom_site_label
_atom_site_type_symbol
_atom_site_fract_x
_atom_site_fract_y
_atom_site_fract_z
Zn1	Zn	1.125107	-0.293177	-0.354224
Zn2	Zn	1.458440	0.040156	-0.020891
Zn3	Zn	1.791774	0.373489	0.312443
Zn4	Zn	1.125005	-0.416226	-0.249444
Zn5	Zn	1.458338	-0.082892	0.083889
Zn6	Zn	1.791672	0.250441	0.417222
Zn7	Zn	1.002029	-0.293166	-0.249464
Zn8	Zn	1.335363	0.040168	0.083869
Zn9	Zn	1.668696	0.373501	0.417202
Zn10	Zn	1.002006	-0.416195	-0.354188
Zn11	Zn	1.335339	-0.082861	-0.020854
Zn12	Zn	1.668672	0.250472	0.312479
O13	O	1.063537	-0.354691	-0.301830
O14	O	1.396870	-0.021357	0.031503
O15	O	1.730203	0.311976	0.364837
O16	O	1.228078	-0.309518	-0.340332
O17	O	1.561411	0.023816	-0.006998
O18	O	1.894745	0.357149	0.326335
O19	O	1.108659	-0.399909	-0.161769
O20	O	1.441993	-0.066576	0.171564
O21	O	1.775326	0.266757	0.504898
O22	O	1.018408	-0.190183	-0.263384
O23	O	1.351742	0.143150	0.069949
O24	O	1.685075	0.476484	0.403282
O25	O	1.228003	-0.399921	-0.263350
O26	O	1.561336	-0.066587	0.069983
O27	O	1.894670	0.266746	0.403316
O28	O	1.108833	-0.190191	-0.340351
O29	O	1.442167	0.143142	-0.007018
O30	O	1.775500	0.476475	0.326316
O31	O	1.018310	-0.309498	-0.161784
O32	O	1.351643	0.023836	0.171550
O33	O	1.684976	0.357169	0.504883
O34	O	0.899042	-0.309468	-0.263349
O35	O	1.232375	0.023865	0.069984
O36	O	1.565709	0.357199	0.403317
O37	O	1.018368	-0.399868	-0.441871
O38	O	1.351701	-0.066535	-0.108537
O39	O	1.685035	0.266798	0.224796
O40	O	0.899024	-0.399857	-0.340289
O41	O	1.232358	-0.066524	-0.006956
O42	O	1.565691	0.266810	0.326377
O43	O	1.108810	-0.309488	-0.441897
O44	O	1.442144	0.023845	-0.108564
O45	O	1.775477	0.357179	0.224769
O46	O	1.108636	-0.519206	-0.263315
O47	O	1.441970	-0.185872	0.070018
O48	O	1.775303	0.147461	0.403352
O49	O	1.018269	-0.519183	-0.340270
O50	O	1.351602	-0.185850	-0.006936
O51	O	1.684936	0.147483	0.326397
C52	C	0.872331	-0.354658	-0.301818
C53	C	1.205664	-0.021325	0.031515
C54	C	1.538997	0.312008	0.364849
C55	C	0.790532	-0.354662	-0.301827
C56	C	1.123865	-0.021329	0.031506
C57	C	1.457198	0.312004	0.364839
C58	C	1.063459	-0.545897	-0.301800
C59	C	1.396792	-0.212564	0.031533
C60	C	1.730126	0.120770	0.364867
C61	C	1.063493	-0.627696	-0.301808
C62	C	1.396826	-0.294363	0.031525
C63	C	1.730160	0.038971	0.364859
C64	C	0.525507	-0.307709	-0.341978
C65	C	0.858841	0.025625	-0.008645
C66	C	1.192174	0.358958	0.324689
C67	C	0.602366	-0.307697	-0.341976
C68	C	0.935700	0.025637	-0.008643
C69	C	1.269033	0.358970	0.324691
C70	C	0.602307	-0.401697	-0.261696
C71	C	0.935641	-0.068363	0.071638
C72	C	1.268974	0.264970	0.404971
C73	C	0.525450	-0.401712	-0.261701
C74	C	0.858783	-0.068379	0.071632
C75	C	1.192117	0.264955	0.404965
C76	C	0.487052	-0.354714	-0.301842
C77	C	0.820385	-0.021380	0.031492
C78	C	1.153719	0.311953	0.364825
C79	C	0.640768	-0.354687	-0.301834
C80	C	0.974101	-0.021353	0.031499
C81	C	1.307435	0.311980	0.364833
C82	C	0.724102	-0.354674	-0.301832
C83	C	1.057435	-0.021341	0.031502
C84	C	1.390768	0.311993	0.364835
C85	C	0.403713	-0.354727	-0.301845
C86	C	0.737046	-0.021394	0.031488
C87	C	1.070380	0.311940	0.364822
C88	C	1.110658	-0.815877	-0.261811
C89	C	1.443991	-0.482544	0.071522
C90	C	1.777325	-0.149211	0.404855
C91	C	1.110691	-0.892736	-0.261827
C92	C	1.444024	-0.559403	0.071507
C93	C	1.777357	-0.226069	0.404840
C94	C	1.016510	-0.892752	-0.341894
C95	C	1.349843	-0.559419	-0.008560
C96	C	1.683177	-0.226086	0.324773
C97	C	1.016481	-0.815895	-0.341881
C98	C	1.349815	-0.482562	-0.008548
C99	C	1.683148	-0.149228	0.324785
C100	C	1.063554	-0.777459	-0.301837
C101	C	1.396887	-0.444126	0.031497
C102	C	1.730221	-0.110793	0.364830
C103	C	1.063616	-0.931176	-0.301864
C104	C	1.396949	-0.597842	0.031469
C105	C	1.730282	-0.264509	0.364802
C106	C	1.063651	-1.014509	-0.301881
C107	C	1.396984	-0.681176	0.031452
C108	C	1.730318	-0.347842	0.364786
C109	C	1.063520	-0.694121	-0.301821
C110	C	1.396853	-0.360787	0.031513
C111	C	1.730187	-0.027454	0.364846
C112	C	1.255490	-0.354724	-0.301843
C113	C	1.588823	-0.021391	0.031491
C114	C	1.922156	0.311943	0.364824
C115	C	1.337289	-0.354738	-0.301848
C116	C	1.670622	-0.021405	0.031485
C117	C	2.003955	0.311929	0.364819
C118	C	1.063598	-0.354676	-0.465253
C119	C	1.396931	-0.021343	-0.131920
C120	C	1.730265	0.311991	0.201413
C121	C	1.063624	-0.354670	-0.534895
C122	C	1.396957	-0.021336	-0.201561
C123	C	1.730291	0.311997	0.131772
C124	C	1.063635	-0.162738	-0.301874
C125	C	1.396968	0.170595	0.031459
C126	C	1.730302	0.503929	0.364793
C127	C	1.063677	-0.080939	-0.301893
C128	C	1.397010	0.252394	0.031441
C129	C	1.730343	0.585728	0.364774
C130	C	1.110715	-0.307607	-0.567623
C131	C	1.444048	0.025727	-0.234289
C132	C	1.777382	0.359060	0.099044
C133	C	1.110714	-0.307575	-0.633058
C134	C	1.444047	0.025758	-0.299725
C135	C	1.777381	0.359092	0.033608
C136	C	1.063630	-0.354619	-0.665763
C137	C	1.396963	-0.021286	-0.332430
C138	C	1.730296	0.312047	0.000904
C139	C	1.016529	-0.401686	-0.633027
C140	C	1.349863	-0.068352	-0.299694
C141	C	1.683196	0.264981	0.033639
C142	C	1.016526	-0.401711	-0.567593
C143	C	1.349860	-0.068378	-0.234260
C144	C	1.683193	0.264956	0.099074
C145	C	1.057792	-0.420883	-0.769427
C146	C	1.391125	-0.087550	-0.436094
C147	C	1.724458	0.245784	-0.102761
C148	C	1.057800	-0.420859	-0.834860
C149	C	1.391133	-0.087526	-0.501527
C150	C	1.724466	0.245808	-0.168194
C151	C	1.063634	-0.354542	-0.867584
C152	C	1.396968	-0.021208	-0.534251
C153	C	1.730301	0.312125	-0.200917
C154	C	1.069476	-0.288246	-0.834866
C155	C	1.402809	0.045087	-0.501533
C156	C	1.736143	0.378421	-0.168200
C157	C	1.069473	-0.288271	-0.769432
C158	C	1.402806	0.045062	-0.436099
C159	C	1.736140	0.378396	-0.102766
C160	C	1.063627	-0.354597	-0.736716
C161	C	1.396961	-0.021264	-0.403382
C162	C	1.730294	0.312070	-0.070049
C163	C	1.110727	-0.307440	-0.971265
C164	C	1.444060	0.025893	-0.637931
C165	C	1.777394	0.359226	-0.304598
C166	C	1.110721	-0.307407	-1.036701
C167	C	1.444054	0.025926	-0.703368
C168	C	1.777387	0.359259	-0.370035
C169	C	1.016540	-0.401525	-1.036669
C170	C	1.349873	-0.068192	-0.703336
C171	C	1.683206	0.265142	-0.370002
C172	C	1.016542	-0.401551	-0.971234
C173	C	1.349875	-0.068218	-0.637900
C174	C	1.683209	0.265115	-0.304567
C175	C	1.063639	-0.354510	-0.938535
C176	C	1.396973	-0.021177	-0.605202
C177	C	1.730306	0.312157	-0.271869
C178	C	1.063518	-0.354653	-0.139043
C179	C	1.396852	-0.021319	0.194291
C180	C	1.730185	0.312014	0.527624
C181	C	1.063635	-0.354452	-0.069402
C182	C	1.396968	-0.021118	0.263932
C183	C	1.730302	0.312215	0.597265
H184	H	0.494246	-0.269439	-0.374663
H185	H	0.827579	0.063894	-0.041329
H186	H	1.160913	0.397227	0.292004
H187	H	0.633673	-0.269421	-0.374660
H188	H	0.967007	0.063912	-0.041327
H189	H	1.300340	0.397245	0.292007
Br190	Br	0.952556	-0.763752	-0.396211
Br191	Br	1.285890	-0.430418	-0.062877
Br192	Br	1.619223	-0.097085	0.270456
H193	H	1.074228	-0.234244	-0.861508
H194	H	1.407561	0.099089	-0.528175
H195	H	1.740895	0.432423	-0.194842
Br196	Br	0.654423	-0.465475	-0.207221
Br197	Br	0.987757	-0.132142	0.126113
Br198	Br	1.321090	0.201192	0.459446
H199	H	1.149048	-0.924012	-0.229235
H200	H	1.482382	-0.590679	0.104098
H201	H	1.815715	-0.257346	0.437432
Br202	Br	0.952628	-0.944919	-0.396237
Br203	Br	1.285961	-0.611586	-0.062903
Br204	Br	1.619294	-0.278253	0.270430
H205	H	1.148989	-0.784585	-0.229206
H206	H	1.482322	-0.451251	0.104128
H207	H	1.815655	-0.117918	0.437461
H208	H	0.494139	-0.439993	-0.229017
H209	H	0.827472	-0.106660	0.104316
H210	H	1.160805	0.226674	0.437650
Br211	Br	1.174630	-0.243762	-0.523249
Br212	Br	1.507963	0.089571	-0.189916
Br213	Br	1.841296	0.422904	0.143417
H214	H	1.149060	-0.269246	-0.659711
H215	H	1.482393	0.064087	-0.326377
H216	H	1.815727	0.397420	0.006956
Br217	Br	1.077397	-0.198304	-0.725031
Br218	Br	1.410731	0.135030	-0.391698
Br219	Br	1.744064	0.468363	-0.058365
H220	H	0.978190	-0.439988	-0.659660
H221	H	1.311524	-0.106654	-0.326326
H222	H	1.644857	0.226679	0.007007
H223	H	1.149072	-0.269132	-0.944640
H224	H	1.482406	0.064201	-0.611307
H225	H	1.815739	0.397534	-0.277974
Br226	Br	1.174647	-0.243541	-1.081119
Br227	Br	1.507981	0.089792	-0.747786
Br228	Br	1.841314	0.423125	-0.414453
Br229	Br	0.952629	-0.465363	-1.081047
Br230	Br	1.285962	-0.132030	-0.747714
Br231	Br	1.619295	0.201303	-0.414380
Br232	Br	0.952630	-0.465428	-0.926814
Br233	Br	1.285963	-0.132094	-0.593480
Br234	Br	1.619297	0.201239	-0.260147
Br235	Br	1.049882	-0.510831	-0.879256
Br236	Br	1.383215	-0.177497	-0.545923
Br237	Br	1.716549	0.155836	-0.212590
H238	H	1.052844	-0.474873	-0.742790
H239	H	1.386177	-0.141539	-0.409456
H240	H	1.719510	0.191794	-0.076123
Br241	Br	0.952611	-0.465586	-0.523173
Br242	Br	1.285944	-0.132253	-0.189840
Br243	Br	1.619277	0.201080	0.143494
