data_functionalizedCrystal
_audit_creation_method	'MofGen! by Chris Wilmer'
_symmetry_space_group_name_H-M	'P1'
_symmetry_Int_Tables_number	1
_symmetry_cell_setting	triclinic
loop_
_symmetry_equiv_pos_as_xyz
  x,y,z
_cell_length_a	21.395362
_cell_length_b	16.120484
_cell_length_c	21.395355
_cell_angle_alpha	92.880721
_cell_angle_beta	89.956060
_cell_angle_gamma	92.942400
loop_
_atom_site_label
_atom_site_type_symbol
_atom_site_fract_x
_atom_site_fract_y
_atom_site_fract_z
Zn1	Zn	0.945244	-0.331659	-0.367215
Zn2	Zn	0.939845	-0.471058	-0.267746
Zn3	Zn	0.840458	-0.331698	-0.262418
Zn4	Zn	0.835126	-0.471075	-0.372451
O5	O	0.890168	-0.401372	-0.317458
O6	O	1.032207	-0.350127	-0.354059
O7	O	0.926633	-0.452580	-0.179362
O8	O	0.858849	-0.215024	-0.271898
O9	O	1.028240	-0.452543	-0.280979
O10	O	0.935836	-0.214995	-0.348892
O11	O	0.853614	-0.350193	-0.175447
O12	O	0.752072	-0.350210	-0.276976
O13	O	0.849761	-0.452572	-0.459434
O14	O	0.748154	-0.452609	-0.357817
O15	O	0.930665	-0.350144	-0.455587
O16	O	0.921462	-0.587728	-0.286057
O17	O	0.844526	-0.587741	-0.362983
C18	C	0.727379	-0.401416	-0.317387
C19	C	0.657736	-0.401455	-0.317372
C20	C	0.622997	-0.454845	-0.359409
C21	C	0.557562	-0.454825	-0.359436
C22	C	0.526869	-0.401423	-0.317415
C23	C	0.561617	-0.348022	-0.275375
C24	C	0.627050	-0.348039	-0.275354
C25	C	0.423400	-0.394707	-0.260754
C26	C	0.357967	-0.394696	-0.260775
C27	C	0.325050	-0.401369	-0.317482
C28	C	0.357574	-0.408069	-0.374171
C29	C	0.423007	-0.408085	-0.374149
C30	C	0.455918	-0.401399	-0.317434
C31	C	0.219359	-0.454740	-0.359552
C32	C	0.153924	-0.454713	-0.359580
C33	C	0.157979	-0.347915	-0.275514
C34	C	0.223414	-0.347937	-0.275492
C35	C	0.254100	-0.401354	-0.317510
C36	C	0.881846	-0.617986	-0.325680
C37	C	0.878344	-0.710654	-0.329218
C38	C	0.871952	-0.880320	-0.335692
C39	C	0.908497	-0.921584	-0.299234
C40	C	0.904940	-1.015992	-0.302836
C41	C	0.875507	-0.785903	-0.332091
C42	C	1.053593	-0.401328	-0.317529
C43	C	1.123235	-0.401310	-0.317560
C44	C	0.890221	-0.401355	-0.480880
C45	C	0.890243	-0.401348	-0.550521
C46	C	0.898540	-0.183913	-0.309217
C47	C	0.902107	-0.091245	-0.305705
C48	C	0.932368	-0.348011	-0.581232
C49	C	0.932369	-0.347976	-0.646666
C50	C	0.890250	-0.401291	-0.681388
C51	C	0.848117	-0.454632	-0.650669
C52	C	0.848114	-0.454660	-0.585236
C53	C	0.882419	-0.476362	-0.787910
C54	C	0.882427	-0.476335	-0.853342
C55	C	0.890258	-0.401203	-0.883205
C56	C	0.898094	-0.326096	-0.847628
C57	C	0.898090	-0.326124	-0.782195
C58	C	0.890249	-0.401266	-0.752339
C59	C	0.932385	-0.347823	-0.984867
C60	C	0.932382	-0.347786	-1.050302
C61	C	0.848133	-0.454449	-1.054304
C62	C	0.848134	-0.454479	-0.988870
C63	C	0.890263	-0.401167	-0.954155
C64	C	0.890154	-0.401329	-0.154668
C65	C	0.890262	-0.401101	-0.085019
H66	H	0.529272	-0.498301	-0.393669
O67	O	0.948951	-0.879022	-0.258780
C68	C	0.989460	-0.744750	-0.218302
C69	C	0.943614	-0.792852	-0.264134
H70	H	0.985171	-0.675073	-0.222624
H71	H	0.977845	-0.761805	-0.168393
H72	H	1.039344	-0.761770	-0.229991
H73	H	0.893715	-0.775858	-0.252502
H74	H	0.955284	-0.775792	-0.314030
H75	H	0.132990	-0.304430	-0.241303
H76	H	0.837996	-0.915892	-0.369606
H77	H	0.966673	-0.304600	-0.552972
H78	H	0.966671	-0.304538	-0.671676
O79	O	0.973240	-0.295915	-0.951162
C80	C	1.009137	-0.154102	-0.925782
C81	C	0.962825	-0.212791	-0.963975
H82	H	1.000741	-0.086886	-0.936138
H83	H	1.001901	-0.163219	-0.873730
H84	H	1.059091	-0.168765	-0.939237
H85	H	0.912853	-0.198165	-0.950574
H86	H	0.970116	-0.203664	-1.016018
O87	O	0.905620	-0.253039	-0.876552
C88	C	0.865570	-0.118408	-0.891421
C89	C	0.856980	-0.201094	-0.858613
H90	H	0.826244	-0.076394	-0.876940
H91	H	0.912553	-0.086343	-0.877356
H92	H	0.864251	-0.131299	-0.944297
H93	H	0.858269	-0.188276	-0.805731
H94	H	0.810003	-0.233134	-0.872729
H95	H	0.904469	-0.264969	-0.753231
H96	H	0.966684	-0.304348	-1.075305
H97	H	0.813834	-0.497852	-1.082573
H98	H	0.813835	-0.497917	-0.963865
O99	O	0.874781	-0.549361	-0.887804
C100	C	0.859268	-0.698384	-0.886565
C101	C	0.867907	-0.615739	-0.847463
H102	H	0.853721	-0.752073	-0.853966
H103	H	0.815718	-0.697141	-0.917105
H104	H	0.902017	-0.707122	-0.917580
H105	H	0.825192	-0.606949	-0.816413
H106	H	0.911481	-0.617020	-0.816965
H107	H	0.536622	-0.304541	-0.241163
O108	O	0.257195	-0.295993	-0.234738
C109	C	0.335459	-0.183470	-0.222146
C110	C	0.297232	-0.242236	-0.268370
H111	H	0.367848	-0.140005	-0.249319
H112	H	0.302316	-0.145236	-0.192124
H113	H	0.364545	-0.221711	-0.190768
H114	H	0.268143	-0.204060	-0.299789
H115	H	0.330409	-0.280473	-0.298348
H116	H	0.875875	-0.537528	-0.763601
H117	H	0.813823	-0.498039	-0.678943
O118	O	0.807173	-0.506558	-0.555500
C119	C	0.723589	-0.612317	-0.566373
C120	C	0.769929	-0.553595	-0.600130
H121	H	0.693456	-0.650349	-0.602440
H122	H	0.750647	-0.655973	-0.537443
H123	H	0.692328	-0.574052	-0.534236
H124	H	0.801201	-0.591793	-0.632298
H125	H	0.742832	-0.509937	-0.629020
H126	H	0.647977	-0.498340	-0.393624
H127	H	0.450195	-0.389270	-0.214573
O128	O	0.660768	-0.296266	-0.234428
C129	C	0.682220	-0.255561	-0.126349
C130	C	0.644003	-0.314255	-0.172630
H131	H	0.668671	-0.270072	-0.076376
H132	H	0.734265	-0.264753	-0.133495
H133	H	0.671985	-0.188357	-0.134920
H134	H	0.654185	-0.381482	-0.164087
H135	H	0.591969	-0.304992	-0.165473
O136	O	0.454576	-0.414438	-0.429234
C137	C	0.477006	-0.354502	-0.528230
C138	C	0.441231	-0.347203	-0.465866
H139	H	0.466219	-0.300161	-0.557870
H140	H	0.529436	-0.353316	-0.518512
H141	H	0.461812	-0.415478	-0.554496
H142	H	0.456372	-0.286233	-0.439569
H143	H	0.388809	-0.348437	-0.475627
O144	O	0.325635	-0.414685	-0.429277
C145	C	0.302540	-0.497434	-0.524162
C146	C	0.338734	-0.490061	-0.461769
H147	H	0.313128	-0.558363	-0.550455
H148	H	0.250176	-0.496320	-0.514485
H149	H	0.317556	-0.443037	-0.553755
H150	H	0.323770	-0.544444	-0.432145
H151	H	0.391090	-0.491137	-0.471491
O152	O	0.249075	-0.506644	-0.400432
C153	C	0.238147	-0.612597	-0.483795
C154	C	0.204418	-0.553847	-0.437540
H155	H	0.202056	-0.650788	-0.513800
H156	H	0.270283	-0.574429	-0.515183
H157	H	0.267077	-0.656110	-0.456608
H158	H	0.175454	-0.510322	-0.464676
H159	H	0.172320	-0.592066	-0.406152
O160	O	0.120154	-0.506461	-0.400480
C161	C	0.045905	-0.517837	-0.485493
C162	C	0.084126	-0.459137	-0.439220
H163	H	0.016757	-0.479601	-0.516817
H164	H	0.079054	-0.556001	-0.515562
H165	H	0.013576	-0.561379	-0.458322
H166	H	0.116459	-0.415545	-0.466340
H167	H	0.050941	-0.421032	-0.409151
O168	O	0.326476	-0.388145	-0.205656
C169	C	0.333772	-0.374919	-0.093180
C170	C	0.369512	-0.382314	-0.155558
H171	H	0.368550	-0.370220	-0.052659
H172	H	0.305405	-0.316898	-0.091992
H173	H	0.300891	-0.432229	-0.088709
H174	H	0.402425	-0.325047	-0.160069
H175	H	0.397839	-0.440369	-0.156718
