data_functionalizedCrystal
_audit_creation_method	'MofGen! by Chris Wilmer'
_symmetry_space_group_name_H-M	'P1'
_symmetry_Int_Tables_number	1
_symmetry_cell_setting	triclinic
loop_
_symmetry_equiv_pos_as_xyz
  x,y,z
_cell_length_a	12.594517
_cell_length_b	12.594516
_cell_length_c	17.077396
_cell_angle_alpha	90.024821
_cell_angle_beta	90.012888
_cell_angle_gamma	90.011773
loop_
_atom_site_label
_atom_site_type_symbol
_atom_site_fract_x
_atom_site_fract_y
_atom_site_fract_z
Zn1	Zn	1.627283	-0.423743	0.443724
Zn2	Zn	2.127283	0.076257	0.943724
Zn3	Zn	1.627192	-0.601744	0.312467
Zn4	Zn	2.127192	-0.101744	0.812467
Zn5	Zn	1.449292	-0.423780	0.312487
Zn6	Zn	1.949292	0.076220	0.812487
Zn7	Zn	1.449283	-0.601680	0.443705
Zn8	Zn	1.949283	-0.101680	0.943705
O9	O	1.538262	-0.512737	0.378096
O10	O	2.038262	-0.012737	0.878096
O11	O	1.776217	-0.447367	0.426312
O12	O	2.276217	0.052633	0.926312
O13	O	1.603558	-0.578179	0.202622
O14	O	2.103558	-0.078179	0.702622
O15	O	1.472945	-0.274829	0.329913
O16	O	1.972945	0.225171	0.829913
O17	O	1.776150	-0.578143	0.329877
O18	O	2.276150	-0.078143	0.829877
O19	O	1.603714	-0.274802	0.426332
O20	O	2.103714	0.225198	0.926332
O21	O	1.472856	-0.447429	0.202638
O22	O	1.972856	0.052571	0.702638
O23	O	1.300345	-0.447367	0.329894
O24	O	1.800345	0.052633	0.829894
O25	O	1.472929	-0.578034	0.553555
O26	O	1.972929	-0.078034	1.053555
O27	O	1.300338	-0.578070	0.426300
O28	O	1.800338	-0.078070	0.926300
O29	O	1.603706	-0.447305	0.553569
O30	O	2.103706	0.052695	1.053569
O31	O	1.603550	-0.750681	0.329859
O32	O	2.103550	-0.250681	0.829859
O33	O	1.472840	-0.750634	0.426280
O34	O	1.972840	-0.250634	0.926280
C35	C	1.261721	-0.512716	0.378098
C36	C	1.761721	-0.012716	0.878098
C37	C	1.143416	-0.512733	0.378117
C38	C	1.643416	-0.012733	0.878117
C39	C	1.003426	-0.583951	0.430455
C40	C	1.503426	-0.083951	0.930455
C41	C	1.074201	-0.609853	0.358813
C42	C	1.574201	-0.109853	0.858813
C43	C	1.074213	-0.486878	0.449751
C44	C	1.574213	0.013122	0.949751
C45	C	1.003405	-0.538720	0.306414
C46	C	1.503405	-0.038720	0.806414
C47	C	1.003410	-0.415700	0.397400
C48	C	1.503410	0.084300	0.897400
C49	C	1.074153	-0.441565	0.325709
C50	C	1.574153	0.058435	0.825709
C51	C	1.538213	-0.789278	0.378082
C52	C	2.038213	-0.289278	0.878082
C53	C	1.538289	-0.907583	0.378103
C54	C	2.038289	-0.407583	0.878103
C55	C	1.609464	-0.976823	0.325715
C56	C	2.109464	-0.476823	0.825715
C57	C	1.635473	-1.047525	0.397360
C58	C	2.135473	-0.547525	0.897360
C59	C	1.512414	-1.047680	0.306503
C60	C	2.012414	-0.547680	0.806503
C61	C	1.564347	-0.976727	0.449785
C62	C	2.064347	-0.476727	0.949785
C63	C	1.441244	-0.976876	0.358880
C64	C	1.941244	-0.476876	0.858880
C65	C	1.467215	-1.047546	0.430574
C66	C	1.967215	-0.547546	0.930574
C67	C	1.815883	-0.512758	0.378094
C68	C	2.315883	-0.012758	0.878094
C69	C	1.934189	-0.512767	0.378094
C70	C	2.434189	-0.012767	0.878094
C71	C	1.538327	-0.512658	0.582840
C72	C	2.038327	-0.012658	1.082840
C73	C	1.538354	-0.512625	0.670090
C74	C	2.038354	-0.012625	1.170090
C75	C	1.538341	-0.235116	0.378127
C76	C	2.038341	0.264884	0.878127
C77	C	1.538374	-0.116811	0.378140
C78	C	2.038374	0.383189	0.878140
C79	C	1.538259	-0.512738	0.174148
C80	C	2.038259	-0.012738	0.674148
C81	C	1.538438	-0.512472	0.086899
C82	C	2.038438	-0.012472	0.586899
C83	C	1.606452	-0.444549	0.711089
C84	C	2.106452	0.055451	1.211089
C85	C	1.606465	-0.444513	0.793069
C86	C	2.106465	0.055487	1.293069
C87	C	1.538384	-0.512560	0.834050
C88	C	2.038384	-0.012560	1.334050
C89	C	1.470279	-0.580640	0.793045
C90	C	1.970279	-0.080640	1.293045
C91	C	1.470262	-0.580669	0.711066
C92	C	1.970262	-0.080669	1.211066
C93	C	1.470322	-0.580576	0.963915
C94	C	1.970322	-0.080576	1.463915
C95	C	1.470340	-0.580548	1.045900
C96	C	1.970340	-0.080548	1.545900
C97	C	1.606525	-0.444420	1.045918
C98	C	2.106525	0.055580	1.545918
C99	C	1.606508	-0.444449	0.963939
C100	C	2.106508	0.055551	1.463939
C101	C	1.538403	-0.512530	0.922941
C102	C	2.038403	-0.012530	1.422941
H103	H	1.105295	-0.691927	0.342488
H104	H	1.605295	-0.191927	0.842488
Cl105	Cl	1.762241	-1.095418	0.422510
Cl106	Cl	2.262241	-0.595418	0.922510
H107	H	1.661976	-0.388984	1.079303
H108	H	2.161976	0.111016	1.579303
Cl109	Cl	1.384741	-0.666083	1.097417
Cl110	Cl	1.884741	-0.166083	1.597417
H111	H	1.414848	-0.635998	0.930537
H112	H	1.914848	-0.135998	1.430537
Cl113	Cl	0.955594	-0.572656	0.212841
Cl114	Cl	1.455594	-0.072656	0.712841
H115	H	1.586186	-0.945693	0.510403
H116	H	2.086186	-0.445693	1.010403
Cl117	Cl	1.121790	-0.348592	0.257286
Cl118	Cl	1.621790	0.151408	0.757286
Cl119	Cl	1.692049	-0.359004	0.659579
Cl120	Cl	2.192049	0.140996	1.159579
Cl121	Cl	1.374341	-1.095194	0.499073
Cl122	Cl	1.874341	-0.595194	0.999073
H123	H	1.414843	-0.636041	0.826418
H124	H	1.914843	-0.136041	1.326418
H125	H	1.359161	-0.945817	0.342578
H126	H	1.859161	-0.445817	0.842578
Cl127	Cl	0.955359	-0.289021	0.422637
Cl128	Cl	1.455359	0.210979	0.922637
Cl129	Cl	0.955474	-0.676980	0.498719
Cl130	Cl	1.455474	-0.176980	0.998719
Cl131	Cl	1.122235	-0.453091	0.543294
Cl132	Cl	1.622235	0.046909	1.043294
H133	H	1.661919	-0.389081	0.826447
H134	H	2.161919	0.110919	1.326447
Cl135	Cl	1.702403	-0.928873	0.257377
Cl136	Cl	2.202403	-0.428873	0.757377
Cl137	Cl	1.478570	-1.095800	0.212995
Cl138	Cl	1.978570	-0.595800	0.712995
H139	H	1.661951	-0.389045	0.930575
H140	H	2.161951	0.110955	1.430575
Cl141	Cl	1.384646	-0.666251	0.659525
Cl142	Cl	1.884646	-0.166251	1.159525
