data_functionalizedCrystal
_audit_creation_method	'MofGen! by Chris Wilmer'
_symmetry_space_group_name_H-M	'P1'
_symmetry_Int_Tables_number	1
_symmetry_cell_setting	triclinic
loop_
_symmetry_equiv_pos_as_xyz
  x,y,z
_cell_length_a	14.044220
_cell_length_b	14.044220
_cell_length_c	15.186229
_cell_angle_alpha	89.995248
_cell_angle_beta	90.001537
_cell_angle_gamma	93.188878
loop_
_atom_site_label
_atom_site_type_symbol
_atom_site_fract_x
_atom_site_fract_y
_atom_site_fract_z
O1	O	1.277166	0.230166	-0.073138
O2	O	1.000495	0.221860	-0.073161
O3	O	1.134678	0.087678	-0.073141
O4	O	1.142984	0.364349	-0.073158
O5	O	1.134668	0.087675	0.073316
O6	O	1.000485	0.221858	0.073297
O7	O	1.277156	0.230163	0.073319
Zn8	Zn	1.138819	0.226010	0.096561
Zn9	Zn	1.138832	0.226014	-0.096403
O10	O	1.142974	0.364346	0.073299
C11	C	0.964868	0.218223	0.000065
C12	C	0.858725	0.207379	0.000057
C13	C	0.664388	0.187553	0.000076
C14	C	0.613258	0.264467	0.000075
C15	C	0.505122	0.253435	0.000085
C16	C	0.772534	0.198583	0.000065
C17	C	1.131037	0.052054	0.000088
C18	C	1.120193	-0.054088	0.000088
C19	C	1.100366	-0.248426	0.000074
C20	C	1.177281	-0.299556	0.000077
C21	C	1.166249	-0.407692	0.000069
C22	C	1.111397	-0.140280	0.000081
C23	C	1.312783	0.233800	0.000091
C24	C	1.418926	0.244645	0.000093
C25	C	1.146614	0.399969	0.000069
C26	C	1.157459	0.506112	0.000063
N27	N	1.138817	0.226007	0.228254
N28	N	1.138841	0.226009	-0.228095
C29	C	1.198257	0.166615	0.453985
C30	C	1.198260	0.166613	0.546175
C31	C	1.079394	0.285404	0.546167
C32	C	1.079387	0.285401	0.453979
C33	C	1.138824	0.226008	0.407890
C34	C	1.138834	0.226009	0.592268
C35	C	1.138837	0.226008	0.692224
C36	C	1.138821	0.226008	0.307928
H37	H	0.626951	0.113425	0.000085
O38	O	0.657800	0.352963	-0.000064
C39	C	0.631058	0.402817	-0.075935
H40	H	0.559746	0.371058	-0.101205
H41	H	0.687721	0.396535	-0.129055
C42	C	0.709220	0.547670	-0.021880
C43	C	0.621630	0.508668	-0.052913
H44	H	0.703408	0.612964	-0.007682
H45	H	0.727240	0.514082	0.029234
H46	H	0.756431	0.542426	-0.066153
H47	H	0.574424	0.513901	-0.008637
H48	H	0.603601	0.542259	-0.104020
H49	H	1.026239	-0.285863	0.000065
H50	H	1.246653	0.118252	0.416462
H51	H	1.031004	0.333763	0.583701
O52	O	1.265654	-0.254748	0.000132
C53	C	1.257142	-0.155189	0.000116
H54	H	1.184576	-0.138229	0.027832
H55	H	1.264080	-0.127056	-0.070143
C56	C	1.425622	-0.128182	0.023528
C57	C	1.336499	-0.107350	0.057576
H58	H	1.474575	-0.098670	0.058968
H59	H	1.431358	-0.195256	0.023535
H60	H	1.431390	-0.104737	-0.035021
H61	H	1.330727	-0.130805	0.116120
H62	H	1.330763	-0.040278	0.057580
O63	O	1.256085	0.108893	0.590814
C64	C	1.308520	0.056455	0.530363
H65	H	1.312903	0.095691	0.464646
H66	H	1.271527	-0.017106	0.520564
C67	C	1.404468	-0.002646	0.647055
C68	C	1.409857	0.045548	0.566342
H69	H	1.466976	-0.009378	0.669249
H70	H	1.369139	0.032679	0.687783
H71	H	1.373636	-0.063942	0.638878
H72	H	1.440677	0.106847	0.574522
H73	H	1.445194	0.010233	0.525616
O74	O	1.021623	0.343189	0.409333
C75	C	0.969153	0.395600	0.469777
H76	H	1.008389	0.400017	0.535491
H77	H	0.895612	0.358564	0.479589
C78	C	0.909987	0.491489	0.353071
C79	C	0.958182	0.496921	0.433780
H80	H	0.903215	0.553987	0.330866
H81	H	0.945334	0.456176	0.312348
H82	H	0.848708	0.460621	0.361258
H83	H	1.019463	0.527776	0.425590
H84	H	0.922844	0.532241	0.474502
