data_functionalizedCrystal
_audit_creation_method	'MofGen! by Chris Wilmer'
_symmetry_space_group_name_H-M	'P1'
_symmetry_Int_Tables_number	1
_symmetry_cell_setting	triclinic
loop_
_symmetry_equiv_pos_as_xyz
  x,y,z
_cell_length_a	16.120530
_cell_length_b	12.759400
_cell_length_c	12.759393
_cell_angle_alpha	89.968436
_cell_angle_beta	87.081000
_cell_angle_gamma	87.110362
loop_
_atom_site_label
_atom_site_type_symbol
_atom_site_fract_x
_atom_site_fract_y
_atom_site_fract_z
Zn1	Zn	1.274626	-0.499755	-0.675426
Zn2	Zn	1.774626	0.000245	-0.175426
Zn3	Zn	1.274542	-0.675468	-0.499741
Zn4	Zn	1.774542	-0.175468	0.000259
Zn5	Zn	1.135203	-0.490889	-0.490856
Zn6	Zn	1.635203	0.009111	0.009144
Zn7	Zn	1.135194	-0.666471	-0.666478
Zn8	Zn	1.635194	-0.166471	-0.166478
O9	O	1.204891	-0.583146	-0.583125
O10	O	1.704891	-0.083146	-0.083125
O11	O	1.391282	-0.530539	-0.659583
O12	O	1.891282	-0.030539	-0.159583
O13	O	1.256027	-0.651038	-0.351539
O14	O	1.756027	-0.151038	0.148461
O15	O	1.153736	-0.345047	-0.515367
O16	O	1.653736	0.154953	-0.015367
O17	O	1.391220	-0.659635	-0.530508
O18	O	1.891220	-0.159635	-0.030508
O19	O	1.256170	-0.351560	-0.650969
O20	O	1.756170	0.148440	-0.150969
O21	O	1.153655	-0.515429	-0.345012
O22	O	1.653655	-0.015429	0.154988
O23	O	1.018535	-0.506705	-0.506690
O24	O	1.518535	-0.006705	-0.006690
O25	O	1.153721	-0.644301	-0.814688
O26	O	1.653721	-0.144301	-0.314688
O27	O	1.018528	-0.635704	-0.635719
O28	O	1.518528	-0.135704	-0.135719
O29	O	1.256161	-0.521815	-0.821262
O30	O	1.756161	-0.021815	-0.321262
O31	O	1.256019	-0.821293	-0.521832
O32	O	1.756019	-0.321293	-0.021832
O33	O	1.153640	-0.814683	-0.644333
O34	O	1.653640	-0.314683	-0.144333
C35	C	1.204842	-0.856110	-0.583100
C36	C	1.704842	-0.356110	-0.083100
C37	C	1.204897	-0.972890	-0.583129
C38	C	1.704897	-0.472890	-0.083129
C39	C	0.988281	-0.569267	-0.569270
C40	C	1.488281	-0.069267	-0.069270
C41	C	0.895614	-0.563355	-0.563368
C42	C	1.395614	-0.063355	-0.063368
C43	C	1.258265	-1.031163	-0.519421
C44	C	1.758265	-0.531163	-0.019421
C45	C	1.258316	-1.140890	-0.519457
C46	C	1.758316	-0.640890	-0.019457
C47	C	1.151624	-1.134062	-0.646912
C48	C	1.651624	-0.634062	-0.146912
C49	C	1.151578	-1.024337	-0.646881
C50	C	1.651578	-0.524337	-0.146881
C51	C	1.319860	-1.035106	-0.445832
C52	C	1.819860	-0.535106	0.054168
C53	C	1.319911	-1.144833	-0.445868
C54	C	1.819911	-0.644833	0.054132
C55	C	0.725951	-0.552536	-0.552601
C56	C	1.225951	-0.052536	-0.052601
C57	C	0.684672	-0.613833	-0.613726
C58	C	1.184672	-0.113833	-0.113726
C59	C	0.590265	-0.607813	-0.607735
C60	C	1.090265	-0.107813	-0.107735
C61	C	0.820366	-0.558555	-0.558590
C62	C	1.320366	-0.058555	-0.058590
C63	C	1.422347	-0.597080	-0.597035
C64	C	1.922347	-0.097080	-0.097035
C65	C	1.515014	-0.603017	-0.602962
C66	C	2.015014	-0.103017	-0.102962
C67	C	1.204950	-0.583044	-0.857162
C68	C	1.704950	-0.083044	-0.357162
C69	C	1.204974	-0.583000	-0.973941
C70	C	1.704974	-0.083000	-0.473941
C71	C	1.204964	-0.309117	-0.583175
C72	C	1.704964	0.190883	-0.083175
C73	C	1.204994	-0.192343	-0.583196
C74	C	1.704994	0.307657	-0.083196
C75	C	1.258322	-0.519216	-1.032228
C76	C	1.758322	-0.019216	-0.532228
C77	C	1.258342	-0.519179	-1.141953
C78	C	1.758342	-0.019179	-0.641953
C79	C	1.151664	-0.646720	-1.135095
C80	C	1.651664	-0.146720	-0.635095
C81	C	1.151640	-0.646750	-1.025371
C82	C	1.651640	-0.146750	-0.525371
C83	C	1.319915	-0.445584	-1.036189
C84	C	1.819915	0.054416	-0.536189
C85	C	1.319935	-0.445547	-1.145914
C86	C	1.819935	0.054453	-0.645914
C87	C	1.204881	-0.583175	-0.310157
C88	C	1.704881	-0.083175	0.189843
C89	C	1.205018	-0.582933	-0.193390
C90	C	1.705018	-0.082933	0.306610
H91	H	1.108130	-0.976893	-0.698767
H92	H	1.608130	-0.476893	-0.198767
F93	F	1.400062	-0.488833	-0.996817
F94	F	1.900062	0.011167	-0.496817
H95	H	0.690392	-0.495544	-0.495775
H96	H	1.190392	0.004456	0.004225
F97	F	1.289636	-0.988795	-0.342840
F98	F	1.789636	-0.488795	0.157160
H99	H	1.108196	-0.698686	-0.977917
H100	H	1.608196	-0.198686	-0.477917
F101	F	1.289644	-0.342608	-1.188488
F102	F	1.789644	0.157392	-0.688488
F103	F	1.094905	-0.714563	-1.189840
F104	F	1.594905	-0.214563	-0.689840
H105	H	1.108215	-1.175963	-0.698817
H106	H	1.608215	-0.675963	-0.198817
H107	H	1.302641	-0.363115	-1.005329
H108	H	1.802641	0.136885	-0.505329
H109	H	1.381254	-1.182703	-0.479000
H110	H	1.881254	-0.682703	0.021000
F111	F	1.404333	-0.479419	-1.190235
F112	F	1.904333	0.020581	-0.690235
F113	F	1.297366	-1.182428	-0.338060
F114	F	1.797366	-0.682428	0.161940
H115	H	0.720233	-0.670829	-0.670558
H116	H	1.220233	-0.170829	-0.170558
H117	H	1.384409	-1.009378	-0.471808
H118	H	1.884409	-0.509378	0.028192
