data_functionalizedCrystal
_audit_creation_method	'MofGen! by Chris Wilmer'
_symmetry_space_group_name_H-M	'P1'
_symmetry_Int_Tables_number	1
_symmetry_cell_setting	triclinic
loop_
_symmetry_equiv_pos_as_xyz
  x,y,z
_cell_length_a	17.699077
_cell_length_b	11.792241
_cell_length_c	16.176319
_cell_angle_alpha	89.993071
_cell_angle_beta	89.993140
_cell_angle_gamma	83.736996
loop_
_atom_site_label
_atom_site_type_symbol
_atom_site_fract_x
_atom_site_fract_y
_atom_site_fract_z
O1	O	1.004846	0.143495	-0.068736
O2	O	0.784567	0.162175	-0.068740
O3	O	0.900052	-0.012400	-0.068732
O4	O	0.889361	0.318070	-0.068744
O5	O	0.900036	-0.012411	0.068761
O6	O	0.784551	0.162164	0.068753
O7	O	1.004830	0.143484	0.068757
Cu8	Cu	0.894689	0.152823	0.081309
Cu9	Cu	0.894708	0.152836	-0.081292
O10	O	0.889345	0.318058	0.068749
C11	C	0.756358	0.161501	0.000006
C12	C	0.672329	0.159497	0.000005
C13	C	0.632848	0.158546	0.074953
C14	C	0.553895	0.156644	0.074954
C15	C	0.514425	0.155701	0.000006
C16	C	0.553912	0.156649	-0.074949
C17	C	0.632864	0.158542	-0.074949
C18	C	0.235508	0.149011	-0.074950
C19	C	0.156550	0.147121	-0.074944
C20	C	0.156540	0.147113	0.074953
C21	C	0.235491	0.149006	0.074953
C22	C	0.274972	0.149948	-0.000001
C23	C	0.360582	0.152007	-0.000001
C24	C	0.428816	0.153650	0.000005
C25	C	0.899373	-0.054688	0.000014
C26	C	0.897363	-0.180678	0.000013
C27	C	0.893666	-0.411346	-0.000000
C28	C	0.895720	-0.282985	0.000007
C29	C	1.033039	0.144157	0.000009
C30	C	1.117068	0.146162	0.000005
C31	C	0.890025	0.360347	0.000001
C32	C	0.892035	0.486336	-0.000003
N33	N	0.894681	0.152813	0.195675
N34	N	0.894722	0.152837	-0.195657
C35	C	0.945834	0.075542	0.238942
C36	C	0.945838	0.075541	0.325489
C37	C	0.894692	0.152817	0.368767
C38	C	0.843534	0.230091	0.325494
C39	C	0.843527	0.230085	0.238948
C40	C	0.843560	0.230112	0.674522
C41	C	0.843572	0.230113	0.761073
C42	C	0.945871	0.075568	0.761063
C43	C	0.945864	0.075563	0.674518
C44	C	0.894703	0.152832	0.631252
C45	C	0.894699	0.152831	0.537407
C46	C	0.894700	0.152824	0.462610
H47	H	0.124415	0.146352	-0.135980
C48	C	1.001227	-0.008409	0.627382
C49	C	0.990224	0.008055	0.542328
C50	C	1.041156	-0.069362	0.498883
H51	H	0.992611	-0.084107	0.641559
H52	H	1.051860	0.003621	0.641421
H53	H	0.939603	-0.003985	0.528295
H54	H	0.998846	0.083736	0.528127
H55	H	1.091790	-0.057332	0.512922
H56	H	1.032536	-0.145055	0.513066
H57	H	1.033703	-0.058195	0.441170
H58	H	0.267624	0.149780	0.135984
C59	C	0.278505	0.149996	-0.156240
C60	C	0.356099	0.151825	-0.140207
C61	C	0.395736	0.152722	-0.215074
H62	H	0.260156	0.215835	-0.187094
H63	H	0.271116	0.083507	-0.187042
H64	H	0.363484	0.218307	-0.109417
H65	H	0.374471	0.085992	-0.109364
H66	H	0.388347	0.086233	-0.245877
H67	H	0.377381	0.218561	-0.245923
H68	H	0.448389	0.153952	-0.204206
H69	H	0.521769	0.155873	-0.135973
C70	C	0.788088	0.313941	0.372627
C71	C	0.799056	0.297432	0.457682
C72	C	0.748001	0.374669	0.501125
H73	H	0.737493	0.301786	0.358559
H74	H	0.796621	0.389697	0.358478
H75	H	0.790517	0.221695	0.471826
H76	H	0.849641	0.309596	0.471775
H77	H	0.756534	0.450424	0.486976
H78	H	0.697409	0.362507	0.487050
H79	H	0.755440	0.363485	0.558839
C80	C	1.001277	-0.008568	0.192025
C81	C	0.988517	-0.120056	0.213105
C82	C	1.039569	-0.197585	0.169906
H83	H	1.051871	0.003499	0.206167
H84	H	0.993959	0.002389	0.134272
H85	H	0.995842	-0.131008	0.270845
H86	H	0.937934	-0.132159	0.198960
H87	H	1.032251	-0.186628	0.112152
H88	H	1.090160	-0.185507	0.184051
H89	H	1.030914	-0.273237	0.184197
C90	C	0.675590	0.159638	-0.156409
C91	C	0.624124	0.158441	-0.222046
C92	C	0.663454	0.159462	-0.297101
H93	H	0.711895	0.094237	-0.159641
H94	H	0.700867	0.226563	-0.159570
H95	H	0.598860	0.091523	-0.218887
H96	H	0.587818	0.223837	-0.218841
H97	H	0.688731	0.226387	-0.300262
H98	H	0.699758	0.094059	-0.300325
H99	H	0.628540	0.158660	-0.341645
H100	H	0.987489	0.012621	0.360718
H101	H	0.987526	0.012647	0.796300
C102	C	0.787949	0.314060	0.807913
C103	C	0.743128	0.381706	0.751500
C104	C	0.691876	0.459034	0.794619
H105	H	0.815278	0.361369	0.841665
H106	H	0.756247	0.273312	0.841670
H107	H	0.774826	0.422452	0.717757
H108	H	0.715783	0.334429	0.717747
H109	H	0.660173	0.418286	0.828376
H110	H	0.719211	0.506335	0.828369
H111	H	0.661454	0.504935	0.756349
H112	H	0.801905	0.293029	0.639301
C113	C	0.787958	0.314110	0.192118
C114	C	0.743182	0.381808	0.248540
C115	C	0.691987	0.459233	0.205431
H116	H	0.756214	0.273472	0.158366
H117	H	0.815353	0.361366	0.158361
H118	H	0.715789	0.334559	0.282282
H119	H	0.774906	0.422472	0.282293
H120	H	0.719382	0.506488	0.171675
H121	H	0.660248	0.418585	0.171681
H122	H	0.661605	0.505182	0.243707
H123	H	0.521755	0.155851	0.135985
C124	C	0.675567	0.159506	0.156415
C125	C	0.624091	0.158233	0.222051
C126	C	0.663415	0.159097	0.297107
H127	H	0.700868	0.226385	0.159649
H128	H	0.711855	0.094057	0.159576
H129	H	0.587817	0.223676	0.218891
H130	H	0.598789	0.091360	0.218844
H131	H	0.699703	0.093648	0.300268
H132	H	0.688714	0.225976	0.300332
H133	H	0.628496	0.158223	0.341650
H134	H	0.124385	0.146341	0.135984
