data_functionalizedCrystal
_audit_creation_method	'MofGen! by Chris Wilmer'
_symmetry_space_group_name_H-M	'P1'
_symmetry_Int_Tables_number	1
_symmetry_cell_setting	triclinic
loop_
_symmetry_equiv_pos_as_xyz
  x,y,z
_cell_length_a	8.497374
_cell_length_b	21.395362
_cell_length_c	21.395361
_cell_angle_alpha	89.953415
_cell_angle_beta	89.984309
_cell_angle_gamma	90.022954
loop_
_atom_site_label
_atom_site_type_symbol
_atom_site_fract_x
_atom_site_fract_y
_atom_site_fract_z
Zn1	Zn	0.892770	0.957730	0.249282
Zn2	Zn	0.628940	0.957670	0.354031
Zn3	Zn	0.628900	0.852983	0.249300
Zn4	Zn	0.892573	0.852914	0.354054
O5	O	0.760796	0.905324	0.301667
O6	O	0.857872	1.045400	0.263159
O7	O	0.408172	0.943788	0.340136
O8	O	0.663969	0.866931	0.161620
O9	O	0.664036	1.045356	0.340118
O10	O	0.857833	0.943888	0.161606
O11	O	0.408143	0.866874	0.263191
O12	O	0.663778	0.765296	0.263214
O13	O	1.113362	0.866814	0.340158
O14	O	0.857497	0.765245	0.340176
O15	O	1.113507	0.943821	0.263182
O16	O	0.663845	0.943721	0.441712
O17	O	0.857536	0.866756	0.441729
C18	C	0.760613	0.742537	0.301700
C19	C	0.760572	0.672895	0.301729
C20	C	0.861291	0.640172	0.341857
C21	C	0.861361	0.574737	0.341841
C22	C	0.760684	0.542027	0.301705
C23	C	0.659959	0.574758	0.261570
C24	C	0.659902	0.640192	0.261582
C25	C	0.618664	0.438323	0.296652
C26	C	0.618717	0.372890	0.296644
C27	C	0.760859	0.340206	0.301664
C28	C	0.902951	0.372964	0.306705
C29	C	0.902895	0.438398	0.306717
C30	C	0.760735	0.471075	0.301687
C31	C	0.861662	0.236531	0.341777
C32	C	0.861735	0.171094	0.341757
C33	C	0.660318	0.171117	0.261489
C34	C	0.660260	0.236552	0.261506
C35	C	0.760929	0.269255	0.301653
C36	C	0.760708	0.905241	0.464454
C37	C	0.760723	0.905263	0.534096
C38	C	1.172276	0.905320	0.301668
C39	C	1.350920	0.905321	0.301674
C40	C	0.760981	1.068747	0.301634
C41	C	0.761059	1.138389	0.301620
C42	C	0.760919	0.905424	0.138243
C43	C	0.760971	0.905467	0.068602
C44	C	0.659972	0.945374	0.566779
C45	C	0.660007	0.945403	0.632214
C46	C	0.760777	0.905310	0.664964
C47	C	0.861548	0.865197	0.632273
C48	C	0.861521	0.865173	0.566839
C49	C	0.773092	0.848894	0.768695
C50	C	0.773108	0.848917	0.834128
C51	C	0.760870	0.905383	0.866785
C52	C	0.748583	0.961830	0.834000
C53	C	0.748556	0.961806	0.768566
C54	C	0.760819	0.905332	0.735916
C55	C	0.660152	0.945529	0.970420
C56	C	0.660198	0.945559	1.035857
C57	C	0.861731	0.865347	1.035914
C58	C	0.861693	0.865323	0.970479
C59	C	0.760895	0.905413	0.937736
H60	H	0.502907	0.464929	0.292561
C61	C	0.971264	0.821871	0.934958
C62	C	1.072505	0.857298	0.897344
C63	C	1.173487	0.817291	0.864620
H64	H	0.911002	0.794570	0.909423
H65	H	1.031377	0.798007	0.963813
H66	H	1.012399	0.881150	0.868492
H67	H	1.132802	0.884597	0.922863
H68	H	1.233599	0.793428	0.893476
H69	H	1.113211	0.789992	0.839090
H70	H	1.242200	0.841322	0.839100
H71	H	0.578235	0.263195	0.228833
C72	C	0.464308	0.337412	0.291267
C73	C	0.366546	0.353269	0.341494
C74	C	0.224278	0.320609	0.336557
H75	H	0.484454	0.293751	0.292006
H76	H	0.413953	0.348173	0.253107
H77	H	0.416890	0.342504	0.379643
H78	H	0.346355	0.396925	0.340764
H79	H	0.173924	0.331370	0.298398
H80	H	0.244441	0.276950	0.337295
H81	H	0.157924	0.331368	0.370631
H82	H	0.577990	0.548122	0.228889
H83	H	0.783064	0.802908	0.742113
H84	H	0.577964	0.978069	0.658830
C85	C	0.550706	0.675837	0.218040
C86	C	0.572226	0.740142	0.226634
C87	C	0.471673	0.772998	0.186529
H88	H	0.444612	0.665147	0.227101
H89	H	0.574016	0.665202	0.175941
H90	H	0.548905	0.750773	0.268724
H91	H	0.678299	0.750850	0.217569
H92	H	0.494984	0.762363	0.144430
H93	H	0.365586	0.762303	0.195593
H94	H	0.486271	0.816632	0.192350
C95	C	0.971293	0.135532	0.385223
C96	C	1.072648	0.098047	0.349806
C97	C	1.173608	0.065284	0.389826
H98	H	0.911021	0.109907	0.412490
H99	H	1.031324	0.164364	0.409123
H100	H	1.012623	0.069218	0.325918
H101	H	1.132954	0.123655	0.322541
H102	H	1.233639	0.094116	0.413725
H103	H	1.113323	0.039663	0.417091
H104	H	1.242398	0.039851	0.365801
C105	C	0.786775	0.787625	0.869684
C106	C	0.928357	0.758192	0.853788
C107	C	0.941012	0.701732	0.886533
H108	H	0.701001	0.761221	0.859030
H109	H	0.785121	0.795699	0.913337
H110	H	0.929996	0.750116	0.810145
H111	H	1.014156	0.784578	0.864444
H112	H	0.939358	0.709805	0.930187
H113	H	0.855231	0.675333	0.875877
H114	H	1.037081	0.681757	0.875757
H115	H	0.943599	0.832554	0.658942
C116	C	0.971146	0.271929	0.385380
C117	C	1.059414	0.229262	0.420503
C118	C	1.160304	0.261846	0.460669
H119	H	0.910830	0.297411	0.412705
H120	H	1.040052	0.297487	0.361472
H121	H	0.990517	0.203715	0.444409
H122	H	1.119762	0.203779	0.393195
H123	H	1.229209	0.287404	0.436761
H124	H	1.099975	0.287327	0.487990
H125	H	1.220215	0.232902	0.484501
H126	H	0.578353	0.144485	0.228807
H127	H	0.943266	0.666795	0.374547
C128	C	0.970787	0.539311	0.385476
C129	C	1.058916	0.581957	0.420644
C130	C	1.159724	0.549348	0.460850
H131	H	1.039794	0.513829	0.361614
H132	H	0.910369	0.513752	0.412765
H133	H	1.119330	0.607505	0.393358
H134	H	0.989951	0.607441	0.444519
H135	H	1.099306	0.523789	0.488139
H136	H	1.228721	0.523867	0.436983
H137	H	1.219522	0.578278	0.484720
C138	C	0.735301	1.023154	0.733084
C139	C	0.724627	1.072616	0.775681
C140	C	0.712443	1.129140	0.743018
H141	H	0.643851	1.022452	0.707571
H142	H	0.825752	1.028652	0.707550
H143	H	0.634184	1.067120	0.801204
H144	H	0.816066	1.073338	0.801196
H145	H	0.802894	1.134637	0.717485
H146	H	0.620993	1.128431	0.717506
H147	H	0.705214	1.162706	0.771915
C148	C	0.970969	0.821551	0.531463
C149	C	1.059209	0.786435	0.574145
C150	C	1.160031	0.746237	0.541579
H151	H	1.039905	0.845416	0.505893
H152	H	0.910556	0.794228	0.505995
H153	H	1.119617	0.813755	0.599602
H154	H	0.990314	0.762557	0.599717
H155	H	1.099619	0.718914	0.516111
H156	H	1.228958	0.770107	0.516010
H157	H	1.219904	0.722402	0.570534
H158	H	0.577900	0.978019	0.540122
C159	C	0.550632	0.989136	1.071232
C160	C	0.462328	1.024225	1.028548
C161	C	0.361364	1.064368	1.061113
H162	H	0.610896	1.016483	1.096715
H163	H	0.481753	0.965213	1.096786
H164	H	0.531198	1.048146	1.003004
H165	H	0.402032	0.996894	1.003063
H166	H	0.292485	1.040445	1.086667
H167	H	0.421641	1.091711	1.086595
H168	H	0.301427	1.088176	1.032157
C169	C	0.735642	1.023138	0.869476
C170	C	0.869138	1.031073	0.906989
C171	C	0.857284	1.087544	0.939672
H172	H	0.644307	1.022436	0.895075
H173	H	0.728409	1.056768	0.840596
H174	H	0.876355	0.997452	0.935865
H175	H	0.960493	1.031786	0.881405
H176	H	0.850051	1.121175	0.910793
H177	H	0.765944	1.086838	0.965267
H178	H	0.947864	1.092939	0.965124
C179	C	1.057236	0.473928	0.312054
C180	C	1.154950	0.458101	0.261803
C181	C	1.297136	0.490825	0.266690
H182	H	1.107719	0.463211	0.350189
H183	H	1.036917	0.517585	0.311309
H184	H	1.175272	0.414454	0.262553
H185	H	1.104517	0.468820	0.223660
H186	H	1.276817	0.534481	0.265945
H187	H	1.347604	0.480105	0.304827
H188	H	1.363446	0.480095	0.232593
C189	C	0.970977	0.821844	1.071576
C190	C	0.949418	0.830440	1.135877
C191	C	1.050022	0.790371	1.168750
H192	H	1.077060	0.830935	1.060896
H193	H	0.947739	0.779735	1.060944
H194	H	0.972666	0.872538	1.146504
H195	H	0.843356	0.821344	1.146575
H196	H	1.026785	0.748262	1.158118
H197	H	1.156099	0.799465	1.158065
H198	H	1.035398	0.796194	1.212381
H199	H	1.018697	0.346354	0.310792
H200	H	0.578080	0.978175	0.943760
