data_functionalizedCrystal
_audit_creation_method	'MofGen! by Chris Wilmer'
_symmetry_space_group_name_H-M	'P1'
_symmetry_Int_Tables_number	1
_symmetry_cell_setting	triclinic
loop_
_symmetry_equiv_pos_as_xyz
  x,y,z
_cell_length_a	12.645331
_cell_length_b	18.050590
_cell_length_c	12.645324
_cell_angle_alpha	89.962529
_cell_angle_beta	89.983975
_cell_angle_gamma	90.017788
loop_
_atom_site_label
_atom_site_type_symbol
_atom_site_fract_x
_atom_site_fract_y
_atom_site_fract_z
Zn1	Zn	1.620728	-0.295618	-0.599208
Zn2	Zn	2.120728	0.204382	-0.099208
Zn3	Zn	1.620606	-0.419832	-0.421930
Zn4	Zn	2.120606	0.080168	0.078070
Zn5	Zn	1.443442	-0.295659	-0.421974
Zn6	Zn	1.943442	0.204341	0.078026
Zn7	Zn	1.443422	-0.419769	-0.599167
Zn8	Zn	1.943422	0.080231	-0.099167
O9	O	1.532049	-0.357720	-0.510570
O10	O	2.032049	0.142280	-0.010570
O11	O	1.769059	-0.312105	-0.575691
O12	O	2.269059	0.187895	-0.075691
O13	O	1.597062	-0.403404	-0.273589
O14	O	2.097062	0.096596	0.226411
O15	O	1.467018	-0.191729	-0.445520
O16	O	1.967018	0.308271	0.054480
O17	O	1.768969	-0.403364	-0.445446
O18	O	2.268969	0.096636	0.054554
O19	O	1.597270	-0.191699	-0.575733
O20	O	2.097270	0.308301	-0.075733
O21	O	1.466900	-0.312174	-0.273621
O22	O	1.966900	0.187826	0.226379
O23	O	1.295092	-0.312113	-0.445480
O24	O	1.795092	0.187887	0.054520
O25	O	1.466984	-0.403257	-0.747520
O26	O	1.966984	0.096743	-0.247520
O27	O	1.295077	-0.403296	-0.575663
O28	O	1.795077	0.096704	-0.075663
O29	O	1.597250	-0.312044	-0.747550
O30	O	2.097250	0.187956	-0.247550
O31	O	1.597043	-0.523748	-0.445406
O32	O	2.097043	-0.023748	0.054594
O33	O	1.466866	-0.523702	-0.575621
O34	O	1.966866	-0.023702	-0.075621
C35	C	1.256620	-0.357703	-0.510573
C36	C	1.756620	0.142297	-0.010573
C37	C	1.138789	-0.357714	-0.510599
C38	C	1.638789	0.142286	-0.010599
C39	C	0.971252	-0.415392	-0.592070
C40	C	1.471252	0.084608	-0.092070
C41	C	1.093812	-0.415205	-0.592411
C42	C	1.593812	0.084795	-0.092411
C43	C	1.094313	-0.279491	-0.541131
C44	C	1.594313	0.220509	-0.041131
C45	C	0.971715	-0.279843	-0.541705
C46	C	1.471715	0.220157	-0.041705
C47	C	0.971543	-0.377628	-0.398337
C48	C	1.471543	0.122372	0.101663
C49	C	1.094149	-0.379338	-0.398942
C50	C	1.594149	0.120662	0.101058
C51	C	1.531968	-0.550672	-0.510528
C52	C	2.031968	-0.050672	-0.010528
C53	C	1.532030	-0.633218	-0.510545
C54	C	2.032030	-0.133218	-0.010545
C55	C	1.602967	-0.832666	-0.439833
C56	C	2.102967	-0.332666	0.060167
C57	C	1.628868	-0.881988	-0.536583
C58	C	2.128868	-0.381988	-0.036583
C59	C	1.532090	-0.784348	-0.510587
C60	C	2.032090	-0.284348	-0.010587
C61	C	1.506297	-0.882107	-0.413881
C62	C	2.006297	-0.382107	0.086119
C63	C	1.532150	-0.930333	-0.510620
C64	C	2.032150	-0.430333	-0.010620
C65	C	1.558040	-0.832583	-0.607388
C66	C	2.058040	-0.332583	-0.107388
C67	C	1.435425	-0.832697	-0.484621
C68	C	1.935425	-0.332697	0.015379
C69	C	1.461289	-0.881997	-0.581438
C70	C	1.961289	-0.381997	-0.081438
C71	C	1.532058	-0.700250	-0.510567
C72	C	2.032058	-0.200250	-0.010567
C73	C	1.532182	-1.014429	-0.510651
C74	C	2.032182	-0.514429	-0.010651
C75	C	1.808554	-0.357737	-0.510568
C76	C	2.308554	0.142263	-0.010568
C77	C	1.926384	-0.357744	-0.510567
C78	C	2.426384	0.142256	-0.010567
C79	C	1.532129	-0.357639	-0.787075
C80	C	2.032129	0.142361	-0.287075
C81	C	1.532163	-0.357604	-0.904905
C82	C	2.032163	0.142396	-0.404905
C83	C	1.532160	-0.164014	-0.510636
C84	C	2.032160	0.335986	-0.010636
C85	C	1.532207	-0.081468	-0.510663
C86	C	2.032207	0.418532	-0.010663
C87	C	1.614432	-0.300388	-1.072488
C88	C	2.114432	0.199612	-0.572488
C89	C	1.614168	-0.300182	-0.949928
C90	C	2.114168	0.199818	-0.449928
C91	C	1.420481	-0.336336	-0.949400
C92	C	1.920481	0.163664	-0.449400
C93	C	1.420980	-0.335902	-1.071999
C94	C	1.920980	0.164098	-0.571999
C95	C	1.560668	-0.436172	-1.072089
C96	C	2.060668	0.063828	-0.572089
C97	C	1.563112	-0.435777	-0.949483
C98	C	2.063112	0.064223	-0.449483
C99	C	1.532031	-0.357746	-0.235140
C100	C	2.032031	0.142254	0.264860
C101	C	1.532203	-0.357572	-0.117311
C102	C	2.032203	0.142428	0.382689
H103	H	0.942526	-0.335638	-0.337609
H104	H	1.442526	0.164362	0.162391
H105	H	1.357628	-0.375739	-1.101648
H106	H	1.857628	0.124261	-0.601648
H107	H	1.401376	-0.903521	-0.641355
H108	H	1.901376	-0.403521	-0.141355
H109	H	1.500782	-0.478780	-1.101083
H110	H	2.000782	0.021220	-0.601083
H111	H	1.484457	-0.903860	-0.332084
H112	H	1.984457	-0.403860	0.167916
H113	H	1.125039	-0.262320	-0.622288
H114	H	1.625039	0.237680	-0.122288
H115	H	1.662926	-0.811005	-0.380060
H116	H	2.162926	-0.311005	0.119940
H117	H	1.645300	-0.451815	-0.920400
H118	H	2.145300	0.048185	-0.420400
H119	H	1.123230	-0.436899	-0.375914
H120	H	1.623230	0.063101	0.124086
H121	H	1.710642	-0.903642	-0.558566
H122	H	2.210642	-0.403642	-0.058566
H123	H	1.123161	-0.402046	-0.675569
H124	H	1.623161	0.097954	-0.175569
H125	H	1.123883	-0.473211	-0.573274
H126	H	1.623883	0.026789	-0.073274
H127	H	1.357546	-0.376706	-0.920235
H128	H	1.857546	0.123294	-0.420235
H129	H	1.124766	-0.340398	-0.334957
H130	H	1.624766	0.159602	0.165043
H131	H	0.943141	-0.262979	-0.623751
H132	H	1.443141	0.237021	-0.123751
H133	H	0.941759	-0.473590	-0.573145
H134	H	1.441759	0.026410	-0.073145
H135	H	1.353675	-0.811028	-0.462609
H136	H	1.853675	-0.311028	0.037391
H137	H	1.579800	-0.810922	-0.689255
H138	H	2.079800	-0.310922	-0.189255
H139	H	0.942035	-0.235352	-0.485065
H140	H	1.442035	0.264648	0.014935
H141	H	1.696982	-0.313501	-0.919846
H142	H	2.196982	0.186499	-0.419846
H143	H	1.697520	-0.313541	-1.101969
H144	H	2.197520	0.186459	-0.601969
H145	H	1.395909	-0.279521	-0.918716
H146	H	1.895909	0.220479	-0.418716
H147	H	1.595827	-0.242485	-1.103322
H148	H	2.095827	0.257515	-0.603322
H149	H	1.123446	-0.235372	-0.483623
H150	H	1.623446	0.264628	0.016377
H151	H	1.595321	-0.241956	-0.920626
H152	H	2.095321	0.258044	-0.420626
H153	H	0.940461	-0.402402	-0.674745
H154	H	1.440461	0.097598	-0.174745
H155	H	0.940620	-0.433695	-0.370587
H156	H	1.440620	0.066305	0.129413
H157	H	1.396851	-0.278445	-1.100619
H158	H	1.896851	0.221555	-0.600619
H159	H	1.640683	-0.455535	-1.103062
H160	H	2.140683	0.044465	-0.603062
H161	H	1.507573	-0.480676	-0.918831
H162	H	2.007573	0.019324	-0.418831
