data_functionalizedCrystal
_audit_creation_method	'MofGen! by Chris Wilmer'
_symmetry_space_group_name_H-M	'P1'
_symmetry_Int_Tables_number	1
_symmetry_cell_setting	triclinic
loop_
_symmetry_equiv_pos_as_xyz
  x,y,z
_cell_length_a	12.759401
_cell_length_b	10.686285
_cell_length_c	10.686551
_cell_angle_alpha	80.915481
_cell_angle_beta	85.605960
_cell_angle_gamma	85.630864
loop_
_atom_site_label
_atom_site_type_symbol
_atom_site_fract_x
_atom_site_fract_y
_atom_site_fract_z
Zn1	Zn	1.678455	-0.450205	-0.678940
Zn2	Zn	1.678370	-0.678785	-0.450438
Zn3	Zn	1.490238	-0.466555	-0.466710
Zn4	Zn	1.515281	-0.662399	-0.662648
O5	O	1.590586	-0.564486	-0.564684
O6	O	1.825466	-0.480543	-0.648638
O7	O	1.642898	-0.664333	-0.274966
O8	O	1.504761	-0.286763	-0.508491
O9	O	1.825404	-0.648480	-0.480758
O10	O	1.643043	-0.274751	-0.664416
O11	O	1.504678	-0.508407	-0.286921
O12	O	1.346538	-0.492518	-0.492693
O13	O	1.547442	-0.620551	-0.842439
O14	O	1.364936	-0.636404	-0.636648
O15	O	1.667325	-0.464653	-0.854409
O16	O	1.667181	-0.854234	-0.464960
O17	O	1.547360	-0.842195	-0.620870
C18	C	1.610009	-0.894268	-0.539409
C19	C	1.618416	-1.035347	-0.528638
C20	C	1.317616	-0.564458	-0.564669
C21	C	1.200842	-0.564474	-0.564690
C22	C	1.146022	-0.477173	-0.652219
C23	C	1.036299	-0.477196	-0.652225
C24	C	1.036227	-0.651833	-0.477169
C25	C	1.145947	-0.651803	-0.477158
C26	C	1.200916	-0.389844	-0.739751
C27	C	1.146096	-0.302536	-0.827288
C28	C	1.036374	-0.302560	-0.827294
C29	C	0.981472	-0.389891	-0.739763
C30	C	1.864622	-0.564515	-0.564700
C31	C	1.981400	-0.564528	-0.564707
C32	C	1.610187	-0.538950	-0.895769
C33	C	1.618539	-0.528069	-1.036858
C34	C	1.571118	-0.233414	-0.590085
C35	C	1.562822	-0.092330	-0.600910
C36	C	1.571117	-0.589831	-0.234894
C37	C	1.562946	-0.600355	-0.093833
H38	H	1.672441	-1.094499	-0.458509
Cl39	Cl	1.479404	-1.001020	-0.709169
Cl40	Cl	1.338853	-0.389813	-0.739754
Cl41	Cl	1.479598	-0.708767	-1.002499
H42	H	1.672533	-0.457857	-1.096023
Cl43	Cl	1.215113	-0.192746	-0.937311
Cl44	Cl	0.967459	-0.192797	-0.937330
H45	H	0.892126	-0.389878	-0.739750
H46	H	0.991518	-0.722936	-0.405907
Cl47	Cl	1.214870	-0.761566	-0.367130
