data_functionalizedCrystal
_audit_creation_method	'MofGen! by Chris Wilmer'
_symmetry_space_group_name_H-M	'P1'
_symmetry_Int_Tables_number	1
_symmetry_cell_setting	triclinic
loop_
_symmetry_equiv_pos_as_xyz
  x,y,z
_cell_length_a	18.101398
_cell_length_b	18.050590
_cell_length_c	18.101389
_cell_angle_alpha	89.980851
_cell_angle_beta	89.990255
_cell_angle_gamma	90.014109
loop_
_atom_site_label
_atom_site_type_symbol
_atom_site_fract_x
_atom_site_fract_y
_atom_site_fract_z
Zn1	Zn	1.132186	-0.295825	-0.418547
Zn2	Zn	1.632186	0.204175	0.081453
Zn3	Zn	1.132109	-0.420000	-0.294704
Zn4	Zn	1.632109	0.080000	0.205296
Zn5	Zn	1.008344	-0.295818	-0.294740
Zn6	Zn	1.508344	0.204182	0.205260
Zn7	Zn	1.008322	-0.419968	-0.418524
Zn8	Zn	1.508322	0.080032	0.081476
O9	O	1.070240	-0.357903	-0.356628
O10	O	1.570240	0.142097	0.143372
O11	O	1.235808	-0.312313	-0.402113
O12	O	1.735808	0.187687	0.097887
O13	O	1.115668	-0.403537	-0.191076
O14	O	1.615668	0.096463	0.308924
O15	O	1.024814	-0.191895	-0.311187
O16	O	1.524814	0.308105	0.188813
O17	O	1.235752	-0.403544	-0.311126
O18	O	1.735752	0.096456	0.188874
O19	O	1.115799	-0.191900	-0.402148
O20	O	1.615799	0.308100	0.097852
O21	O	1.024739	-0.312301	-0.191102
O22	O	1.524739	0.187699	0.308898
O23	O	0.904709	-0.312271	-0.311165
O24	O	1.404709	0.187729	0.188835
O25	O	1.024776	-0.403491	-0.522160
O26	O	1.524776	0.096509	-0.022160
O27	O	0.904692	-0.403484	-0.402109
O28	O	1.404692	0.096516	0.097891
O29	O	1.115778	-0.312283	-0.522177
O30	O	1.615778	0.187717	-0.022177
O31	O	1.115647	-0.523920	-0.311104
O32	O	1.615647	-0.023920	0.188896
O33	O	1.024701	-0.523897	-0.402074
O34	O	1.524701	-0.023897	0.097926
C35	C	0.877830	-0.357874	-0.356639
C36	C	1.377830	0.142126	0.143361
C37	C	0.795516	-0.357879	-0.356661
C38	C	1.295516	0.142121	0.143339
C39	C	0.496425	-0.357923	-0.356630
C40	C	0.996425	0.142077	0.143370
C41	C	0.527764	-0.415589	-0.413567
C42	C	1.027764	0.084411	0.086433
C43	C	0.613383	-0.415408	-0.413801
C44	C	1.113383	0.084592	0.086199
C45	C	0.644807	-0.357902	-0.356645
C46	C	1.144807	0.142098	0.143355
C47	C	0.613736	-0.279684	-0.377974
C48	C	1.113736	0.220316	0.122026
C49	C	0.528091	-0.280030	-0.378379
C50	C	1.028091	0.219970	0.121621
C51	C	0.527976	-0.377785	-0.278227
C52	C	1.027976	0.122215	0.221773
C53	C	0.613627	-0.379502	-0.278646
C54	C	1.113627	0.120498	0.221354
C55	C	0.728667	-0.357885	-0.356653
C56	C	1.228667	0.142115	0.143347
C57	C	0.412565	-0.357934	-0.356624
C58	C	0.912565	0.142066	0.143376
C59	C	1.070183	-0.550855	-0.356599
C60	C	1.570183	-0.050855	0.143401
C61	C	1.070227	-0.633401	-0.356611
C62	C	1.570227	-0.133401	0.143389
C63	C	1.119786	-0.832837	-0.307211
C64	C	1.619786	-0.332837	0.192789
C65	C	1.137875	-0.882182	-0.374798
C66	C	1.637875	-0.382182	0.125202
C67	C	1.070269	-0.784531	-0.356641
C68	C	1.570269	-0.284531	0.143359
C69	C	1.052255	-0.882268	-0.289084
C70	C	1.552255	-0.382268	0.210916
C71	C	1.070311	-0.930516	-0.356663
C72	C	1.570311	-0.430516	0.143337
C73	C	1.088393	-0.832789	-0.424263
C74	C	1.588393	-0.332789	0.075737
C75	C	1.002741	-0.832871	-0.338504
C76	C	1.502741	-0.332871	0.161496
C77	C	1.020805	-0.882193	-0.406138
C78	C	1.520805	-0.382193	0.093862
C79	C	1.070246	-0.700433	-0.356627
C80	C	1.570246	-0.200433	0.143373
C81	C	1.070333	-1.014613	-0.356685
C82	C	1.570333	-0.514613	0.143315
C83	C	1.263402	-0.357933	-0.356619
C84	C	1.763402	0.142067	0.143381
C85	C	1.345716	-0.357946	-0.356614
C86	C	1.845716	0.142054	0.143386
C87	C	1.070283	-0.357884	-0.549790
C88	C	1.570283	0.142116	-0.049790
C89	C	1.070301	-0.357876	-0.632105
C90	C	1.570301	0.142124	-0.132105
C91	C	1.070318	-0.164197	-0.356674
C92	C	1.570318	0.335803	0.143326
C93	C	1.070350	-0.081652	-0.356694
C94	C	1.570350	0.418348	0.143306
C95	C	1.070344	-0.357737	-0.931196
C96	C	1.570344	0.142263	-0.431196
C97	C	1.012891	-0.414940	-0.899860
C98	C	1.512891	0.085060	-0.399860
C99	C	1.013047	-0.415205	-0.814242
C100	C	1.513047	0.084795	-0.314242
C101	C	1.070322	-0.357806	-0.782813
C102	C	1.570322	0.142194	-0.282813
C103	C	1.148352	-0.379056	-0.813899
C104	C	1.648352	0.120944	-0.313899
C105	C	1.148032	-0.379431	-0.899544
C106	C	1.648032	0.120569	-0.399544
C107	C	1.050446	-0.279157	-0.899626
C108	C	1.550446	0.220843	-0.399626
C109	C	1.048710	-0.279611	-0.813975
C110	C	1.548710	0.220389	-0.313975
C111	C	1.070315	-0.357844	-0.698954
C112	C	1.570315	0.142156	-0.198954
C113	C	1.070357	-0.357701	-1.015055
C114	C	1.570357	0.142299	-0.515055
C115	C	1.070240	-0.357868	-0.164218
C116	C	1.570240	0.142132	0.335782
C117	C	1.070365	-0.357667	-0.081904
C118	C	1.570365	0.142333	0.418096
H119	H	0.635197	-0.262531	-0.434667
H120	H	1.135197	0.237469	0.065333
H121	H	0.945633	-0.811192	-0.323129
H122	H	1.445633	-0.311192	0.176871
O123	O	0.502169	-0.400221	-0.482519
O124	O	1.002169	0.099779	0.017481
C125	C	0.530752	-0.452349	-0.532975
C126	C	1.030752	0.047651	-0.032975
H127	H	0.546864	-0.504999	-0.502142
H128	H	1.046864	-0.004999	-0.002142
H129	H	0.486975	-0.466001	-0.576148
H130	H	0.986975	0.033999	-0.076148
H131	H	0.581529	-0.428203	-0.561436
H132	H	1.081529	0.071797	-0.061436
O133	O	1.100407	-0.228398	-0.923897
O134	O	1.600407	0.271602	-0.423897
C135	C	1.153129	-0.263678	-0.969156
C136	C	1.653129	0.236322	-0.469156
H137	H	1.128610	-0.316908	-0.992546
H138	H	1.628610	0.183092	-0.492546
H139	H	1.169153	-0.225196	-1.016472
H140	H	1.669153	0.274804	-0.516472
H141	H	1.204256	-0.277458	-0.935051
H142	H	1.704256	0.222542	-0.435051
O143	O	0.980213	-0.260585	-0.789642
O144	O	1.480213	0.239415	-0.289642
C145	C	0.951906	-0.317720	-0.744669
C146	C	1.451906	0.182280	-0.244669
H147	H	0.999532	-0.351831	-0.721426
H148	H	1.499532	0.148169	-0.221426
H149	H	0.918936	-0.292559	-0.697244
H150	H	1.418936	0.207441	-0.197244
H151	H	0.914360	-0.354969	-0.778970
H152	H	1.414360	0.145031	-0.278970
H153	H	1.037001	-0.904001	-0.231943
H154	H	1.537001	-0.404001	0.268057
O155	O	1.106552	-0.807013	-0.492499
O156	O	1.606552	-0.307013	0.007501
C157	C	1.054637	-0.832764	-0.544569
C158	C	1.554637	-0.332764	-0.044569
H159	H	1.000724	-0.846964	-0.515238
H160	H	1.500724	-0.346964	-0.015238
H161	H	1.044044	-0.787798	-0.587516
H162	H	1.544044	-0.287798	-0.087516
H163	H	1.077161	-0.884350	-0.573059
H164	H	1.577161	-0.384350	-0.073059
H165	H	0.634390	-0.473412	-0.400433
H166	H	1.134390	0.026588	0.099567
H167	H	0.978948	-0.903728	-0.447997
H168	H	1.478948	-0.403728	0.052003
H169	H	1.192310	-0.338701	-0.793542
H170	H	1.692310	0.161299	-0.293542
H171	H	0.955185	-0.401907	-0.793224
H172	H	1.455185	0.098093	-0.293224
H173	H	0.507162	-0.473782	-0.400348
H174	H	1.007162	0.026218	0.099652
H175	H	0.994534	-0.259798	-0.921226
H176	H	1.494534	0.240202	-0.421226
H177	H	0.508126	-0.263181	-0.435695
H178	H	1.008126	0.236819	0.064305
O179	O	0.637873	-0.399870	-0.483123
O180	O	1.137873	0.100130	0.016877
C181	C	0.681108	-0.459319	-0.509228
C182	C	1.181108	0.040681	-0.009228
H183	H	0.665538	-0.512044	-0.478228
H184	H	1.165538	-0.012044	0.021772
H185	H	0.670682	-0.467400	-0.570809
H186	H	1.170682	0.032600	-0.070809
H187	H	0.742065	-0.446584	-0.499758
H188	H	1.242065	0.053416	0.000242
H189	H	0.634090	-0.235554	-0.337798
H190	H	1.134090	0.264446	0.162202
H191	H	0.954855	-0.401778	-0.920461
H192	H	1.454855	0.098222	-0.420461
O193	O	0.639055	-0.332922	-0.225370
O194	O	1.139055	0.167078	0.274630
C195	C	0.616948	-0.259850	-0.241758
C196	C	1.116948	0.240150	0.258242
H197	H	0.566294	-0.261198	-0.279147
H198	H	1.066294	0.238802	0.220853
H199	H	0.602793	-0.229616	-0.188317
H200	H	1.102793	0.270384	0.311683
H201	H	0.663880	-0.229648	-0.271062
H202	H	1.163880	0.270352	0.228938
H203	H	0.506375	-0.433846	-0.258844
H204	H	1.006375	0.066154	0.241156
H205	H	0.507359	-0.235526	-0.338810
H206	H	1.007359	0.264474	0.161190
H207	H	1.195000	-0.903844	-0.390152
H208	H	1.695000	-0.403844	0.109848
O209	O	1.168178	-0.447907	-0.923509
O210	O	1.668178	0.052093	-0.423509
C211	C	1.168134	-0.449144	-1.001390
C212	C	1.668134	0.050856	-0.501390
H213	H	1.174906	-0.390329	-1.023336
H214	H	1.674906	0.109671	-0.523336
H215	H	1.215815	-0.484929	-1.021846
H216	H	1.715815	0.015071	-0.521846
H217	H	1.113646	-0.473175	-1.021966
H218	H	1.613646	0.026825	-0.521966
H219	H	1.161674	-0.811165	-0.265452
H220	H	1.661674	-0.311165	0.234548
O221	O	0.637951	-0.448162	-0.259550
O222	O	1.137951	0.051838	0.240450
C223	C	0.682933	-0.476596	-0.316462
C224	C	1.182933	0.023404	0.183538
H225	H	0.706186	-0.428864	-0.350549
H226	H	1.206186	0.071136	0.149451
H227	H	0.730352	-0.509613	-0.291300
H228	H	1.230352	-0.009613	0.208700
H229	H	0.648637	-0.514301	-0.353556
H230	H	1.148637	-0.014301	0.146444
H231	H	0.507709	-0.335782	-0.235804
H232	H	1.007709	0.164218	0.264196
O233	O	1.028425	-0.483954	-0.925654
O234	O	1.528425	0.016046	-0.425654
C235	C	1.024777	-0.483943	-1.003459
C236	C	1.524777	0.016057	-0.503459
H237	H	1.033520	-0.425200	-1.024894
H238	H	1.533520	0.074800	-0.524894
H239	H	1.069601	-0.521753	-1.026579
H240	H	1.569601	-0.021753	-0.526579
H241	H	0.968261	-0.504869	-1.021819
H242	H	1.468261	-0.004869	-0.521819
O243	O	1.095076	-0.226160	-0.788420
O244	O	1.595076	0.273840	-0.288420
C245	C	1.148301	-0.258443	-0.741547
C246	C	1.648301	0.241557	-0.241547
H247	H	1.154108	-0.319796	-0.755281
H248	H	1.654108	0.180204	-0.255281
H249	H	1.203724	-0.229613	-0.749868
H250	H	1.703724	0.270387	-0.249868
H251	H	1.130111	-0.252023	-0.681590
H252	H	1.630111	0.247977	-0.181590
H253	H	1.026185	-0.473451	-0.793755
H254	H	1.526185	0.026549	-0.293755
H255	H	1.192291	-0.339576	-0.920273
H256	H	1.692291	0.160424	-0.420273
H257	H	1.165510	-0.435888	-0.792451
H258	H	1.665510	0.064112	-0.292451
