data_functionalizedCrystal
_audit_creation_method	'MofGen! by Chris Wilmer'
_symmetry_space_group_name_H-M	'P1'
_symmetry_Int_Tables_number	1
_symmetry_cell_setting	triclinic
loop_
_symmetry_equiv_pos_as_xyz
  x,y,z
_cell_length_a	23.532350
_cell_length_b	15.995300
_cell_length_c	14.472311
_cell_angle_alpha	90.006905
_cell_angle_beta	90.011737
_cell_angle_gamma	96.851476
loop_
_atom_site_label
_atom_site_type_symbol
_atom_site_fract_x
_atom_site_fract_y
_atom_site_fract_z
O1	O	-0.755649	0.101425	0.076712
O2	O	-0.422316	0.434758	0.410045
O3	O	-0.088982	0.768091	0.743378
O4	O	-0.589836	0.116182	0.076739
O5	O	-0.256503	0.449515	0.410072
O6	O	0.076831	0.782849	0.743405
O7	O	-0.677290	-0.013127	0.076729
O8	O	-0.343957	0.320207	0.410062
O9	O	-0.010623	0.653540	0.743396
O10	O	-0.668195	0.230733	0.076721
O11	O	-0.334862	0.564066	0.410055
O12	O	-0.001528	0.897400	0.743388
O13	O	-0.677302	-0.013150	-0.076953
O14	O	-0.343968	0.320183	0.256380
O15	O	-0.010635	0.653517	0.589714
O16	O	-0.589848	0.116158	-0.076943
O17	O	-0.256514	0.449492	0.256390
O18	O	0.076819	0.782825	0.589723
O19	O	-0.755661	0.101401	-0.076970
O20	O	-0.422327	0.434734	0.256363
O21	O	-0.088994	0.768068	0.589696
Cu22	Cu	-0.672755	0.108778	-0.090989
Cu23	Cu	-0.339422	0.442111	0.242344
Cu24	Cu	-0.006088	0.775444	0.575678
Cu25	Cu	-0.672741	0.108805	0.090758
Cu26	Cu	-0.339408	0.442139	0.424091
Cu27	Cu	-0.006075	0.775472	0.757424
O28	O	-0.668207	0.230709	-0.076961
O29	O	-0.334873	0.564043	0.256373
O30	O	-0.001540	0.897376	0.589706
C31	C	-0.568624	0.115802	-0.000099
C32	C	-0.235290	0.449135	0.333235
C33	C	0.098043	0.782469	0.666568
C34	C	-0.505401	0.114695	-0.000088
C35	C	-0.172067	0.448028	0.333245
C36	C	0.161266	0.781362	0.666579
C37	C	-0.676925	-0.044331	-0.000109
C38	C	-0.343592	0.289003	0.333225
C39	C	-0.010258	0.622336	0.666558
C40	C	-0.675813	-0.137274	-0.000099
C41	C	-0.342479	0.196060	0.333234
C42	C	-0.009146	0.529393	0.666568
C43	C	-0.113366	0.107728	-0.083901
C44	C	0.219967	0.441061	0.249432
C45	C	0.553300	0.774394	0.582766
C46	C	-0.053963	0.106675	-0.083905
C47	C	0.279371	0.440008	0.249428
C48	C	0.612704	0.773341	0.582762
O49	O	-0.023247	0.106091	-0.155149
O50	O	0.310086	0.439424	0.178184
O51	O	0.643419	0.772757	0.511517
N52	N	-0.024246	0.106165	-0.000134
N53	N	0.309087	0.439499	0.333200
N54	N	0.642421	0.772832	0.666533
C55	C	-0.053936	0.106700	0.083647
C56	C	0.279397	0.440034	0.416981
C57	C	0.612730	0.773367	0.750314
O58	O	-0.023205	0.106170	0.154901
O59	O	0.310128	0.439503	0.488235
O60	O	0.643461	0.772836	0.821568
C61	C	-0.113339	0.107748	0.083650
C62	C	0.219994	0.441081	0.416984
C63	C	0.553327	0.774414	0.750317
C64	C	-0.143052	0.108265	-0.000127
C65	C	0.190281	0.441599	0.333207
C66	C	0.523614	0.774932	0.666540
C67	C	-0.143079	0.108244	-0.167671
C68	C	0.190254	0.441578	0.165662
C69	C	0.523587	0.774911	0.498995
C70	C	-0.202479	0.109299	-0.167667
C71	C	0.130855	0.442632	0.165666
C72	C	0.464188	0.775966	0.499000
C73	C	-0.232165	0.109837	-0.083893
C74	C	0.101168	0.443170	0.249441
C75	C	0.434502	0.776503	0.582774
C76	C	-0.202452	0.109320	-0.000122
C77	C	0.130882	0.442653	0.333211
C78	C	0.464215	0.775987	0.666544
C79	C	-0.143029	0.108277	0.167430
C80	C	0.190304	0.441610	0.500764
C81	C	0.523637	0.774943	0.834097
C82	C	-0.202436	0.109323	0.167426
C83	C	0.130897	0.442657	0.500760
C84	C	0.464230	0.775990	0.834093
C85	C	-0.232149	0.109841	0.083649
C86	C	0.101184	0.443174	0.416983
C87	C	0.434517	0.776508	0.750316
C88	C	-0.291537	0.110912	0.083657
C89	C	0.041796	0.444246	0.416990
C90	C	0.375130	0.777579	0.750323
N91	N	-0.321254	0.111422	-0.000115
N92	N	0.012079	0.444755	0.333218
N93	N	0.345413	0.778088	0.666552
C94	C	-0.291568	0.110884	-0.083890
C95	C	0.041766	0.444217	0.249444
C96	C	0.375099	0.777550	0.582777
C97	C	0.070814	0.104500	0.083635
C98	C	0.404147	0.437833	0.416968
C99	C	0.737480	0.771167	0.750301
C100	C	0.130216	0.103459	0.083633
C101	C	0.463549	0.436792	0.416966
C102	C	0.796883	0.770126	0.750299
C103	C	0.130185	0.103432	-0.083920
C104	C	0.463519	0.436765	0.249413
C105	C	0.796852	0.770098	0.582747
C106	C	0.070782	0.104479	-0.083917
C107	C	0.404116	0.437812	0.249416
C108	C	0.737449	0.771145	0.582749
C109	C	0.041097	0.105009	-0.000137
C110	C	0.374430	0.438343	0.333197
C111	C	0.707763	0.771676	0.666530
C112	C	-0.416310	0.113099	-0.083874
C113	C	-0.082977	0.446433	0.249459
C114	C	0.250356	0.779766	0.582792
C115	C	-0.475715	0.114157	-0.083862
C116	C	-0.142381	0.447491	0.249471
C117	C	0.190952	0.780824	0.582804
C118	C	-0.475679	0.114180	0.083690
C119	C	-0.142346	0.447514	0.417023
C120	C	0.190987	0.780847	0.750357
C121	C	-0.416280	0.113127	0.083679
C122	C	-0.082947	0.446460	0.417012
C123	C	0.250387	0.779793	0.750345
C124	C	-0.386597	0.112583	-0.000111
C125	C	-0.053264	0.445917	0.333223
C126	C	0.280070	0.779250	0.666556
O127	O	-0.322291	0.111493	0.154864
O128	O	0.011043	0.444827	0.488198
O129	O	0.344376	0.778160	0.821531
O130	O	-0.322307	0.111404	-0.155131
O131	O	0.011026	0.444737	0.178202
O132	O	0.344360	0.778070	0.511535
C133	C	-0.673759	-0.307439	-0.000108
C134	C	-0.340426	0.025894	0.333225
C135	C	-0.007092	0.359228	0.666559
C136	C	-0.736028	-0.355442	-0.000116
C137	C	-0.402695	-0.022108	0.333217
C138	C	-0.069361	0.311225	0.666550
C139	C	-0.734892	-0.452120	-0.000468
C140	C	-0.401559	-0.118786	0.332865
C141	C	-0.068225	0.214547	0.666198
C142	C	-0.671738	-0.474978	-0.000115
C143	C	-0.338404	-0.141645	0.333218
C144	C	-0.005071	0.191688	0.666551
C145	C	-0.640850	-0.433591	-0.087697
C146	C	-0.307517	-0.100257	0.245636
C147	C	0.025816	0.233076	0.578970
C148	C	-0.642426	-0.336971	-0.087767
C149	C	-0.309093	-0.003638	0.245566
C150	C	0.024241	0.329696	0.578899
C151	C	-0.641491	-0.336661	0.087004
C152	C	-0.308157	-0.003327	0.420338
C153	C	0.025176	0.330006	0.753671
C154	C	-0.641496	-0.433605	0.088152
C155	C	-0.308163	-0.100271	0.421485
C156	C	0.025170	0.233062	0.754819
C157	C	-0.670592	-0.569664	-0.000123
C158	C	-0.337258	-0.236330	0.333211
C159	C	-0.003925	0.097003	0.666544
C160	C	-0.674903	-0.212753	-0.000107
C161	C	-0.341569	0.120580	0.333227
C162	C	-0.008236	0.453914	0.666560
C163	C	0.223128	0.101788	-0.000133
C164	C	0.556461	0.435122	0.333201
C165	C	0.889795	0.768455	0.666534
C166	C	0.159907	0.102917	-0.000142
C167	C	0.493240	0.436250	0.333191
C168	C	0.826574	0.769584	0.666524
C169	C	-0.668572	0.261913	-0.000121
C170	C	-0.335238	0.595247	0.333213
C171	C	-0.001905	0.928580	0.666546
C172	C	-0.669684	0.354856	-0.000124
C173	C	-0.336350	0.688190	0.333209
C174	C	-0.003017	1.021523	0.666542
N175	N	-0.672732	0.108819	0.218589
N176	N	-0.339399	0.442152	0.551922
N177	N	-0.006065	0.775485	0.885255
N178	N	-0.672769	0.108757	-0.218820
N179	N	-0.339436	0.442091	0.114513
N180	N	-0.006102	0.775424	0.447847
C181	C	-0.672757	0.108777	0.592680
C182	C	-0.339423	0.442111	0.926013
C183	C	-0.006090	0.775444	1.259346
C184	C	-0.626012	0.178042	0.553519
C185	C	-0.292678	0.511375	0.886852
C186	C	0.040655	0.844708	1.220186
C187	C	-0.625838	0.177878	0.446431
C188	C	-0.292505	0.511211	0.779764
C189	C	0.040828	0.844545	1.113098
C190	C	-0.672744	0.108799	0.407089
C191	C	-0.339411	0.442132	0.740422
C192	C	-0.006078	0.775465	1.073755
C193	C	-0.659932	0.021471	0.445947
C194	C	-0.326599	0.354804	0.779281
C195	C	0.006735	0.688138	1.112614
C196	C	-0.659603	0.021866	0.553069
C197	C	-0.326270	0.355199	0.886402
C198	C	0.007063	0.688532	1.219736
C199	C	-0.732452	0.126058	0.553183
C200	C	-0.399119	0.459392	0.886516
C201	C	-0.065786	0.792725	1.219849
C202	C	-0.732047	0.128060	0.446055
C203	C	-0.398713	0.461393	0.779388
C204	C	-0.065380	0.794726	1.112722
C205	C	-0.672739	0.108805	0.302201
C206	C	-0.339405	0.442139	0.635534
C207	C	-0.006072	0.775472	0.968867
C208	C	-0.672761	0.108765	0.697568
C209	C	-0.339428	0.442099	1.030901
C210	C	-0.006094	0.775432	1.364235
H211	H	-0.499904	0.114582	-0.152087
H212	H	-0.166571	0.447915	0.181247
H213	H	0.166763	0.781249	0.514580
H214	H	-0.581534	0.166873	0.420816
H215	H	-0.248200	0.500206	0.754149
H216	H	0.085133	0.833539	1.087483
H217	H	-0.616899	0.005819	0.419122
H218	H	-0.283566	0.339152	0.752456
H219	H	0.049767	0.672486	1.085789
H220	H	-0.581958	0.167191	0.580449
H221	H	-0.248625	0.500525	0.913782
H222	H	0.084708	0.833858	1.247115
H223	H	0.046594	0.104901	-0.152136
H224	H	0.379927	0.438235	0.181197
H225	H	0.713261	0.771568	0.514531
H226	H	-0.596701	-0.304304	-0.091498
H227	H	-0.263368	0.029029	0.241835
H228	H	0.069965	0.362362	0.575169
H229	H	-0.633495	0.243177	0.579293
H230	H	-0.300161	0.576510	0.912627
H231	H	0.033172	0.909843	1.245960
H232	H	-0.741768	0.192306	0.420674
H233	H	-0.408435	0.525639	0.754007
H234	H	-0.075101	0.858973	1.087341
H235	H	-0.767237	0.075547	0.578510
H236	H	-0.433903	0.408880	0.911843
H237	H	-0.100570	0.742213	1.245176
H238	H	-0.616072	0.006593	0.578064
H239	H	-0.282739	0.339927	0.911398
H240	H	0.050594	0.673260	1.244731
H241	H	-0.633445	0.242801	0.420160
H242	H	-0.300112	0.576134	0.753493
H243	H	0.033221	0.909468	1.086826
H244	H	0.154366	0.102992	-0.152134
H245	H	0.487700	0.436326	0.181199
H246	H	0.821033	0.769659	0.514533
H247	H	-0.226603	0.109756	0.235652
H248	H	0.106730	0.443089	0.568985
H249	H	0.440063	0.776423	0.902319
H250	H	-0.759067	-0.480184	-0.063625
H251	H	-0.425734	-0.146851	0.269709
H252	H	-0.092401	0.186482	0.603042
H253	H	0.046648	0.104940	0.151863
H254	H	0.379981	0.438273	0.485196
H255	H	0.713314	0.771607	0.818530
H256	H	-0.392149	0.112664	-0.152104
H257	H	-0.058816	0.445998	0.181230
H258	H	0.274518	0.779331	0.514563
H259	H	0.154405	0.103051	0.151853
H260	H	0.487738	0.436384	0.485186
H261	H	0.821071	0.769718	0.818519
H262	H	-0.761044	-0.337169	0.062688
H263	H	-0.427711	-0.003836	0.396021
H264	H	-0.094377	0.329497	0.729355
H265	H	-0.594446	-0.447291	-0.090701
H266	H	-0.261113	-0.113957	0.242633
H267	H	0.072221	0.219376	0.575966
H268	H	-0.226666	0.109716	-0.235887
H269	H	0.106667	0.443049	0.097446
H270	H	0.440000	0.776382	0.430780
H271	H	-0.662055	-0.462136	-0.153128
H272	H	-0.328721	-0.128803	0.180205
H273	H	0.004612	0.204531	0.513538
H274	H	-0.595578	-0.304494	0.087847
H275	H	-0.262245	0.028840	0.421180
H276	H	0.071089	0.362173	0.754513
H277	H	-0.664052	-0.461131	0.152946
H278	H	-0.330719	-0.127797	0.486279
H279	H	0.002615	0.205536	0.819613
H280	H	-0.661985	-0.316326	0.153408
H281	H	-0.328652	0.017007	0.486742
H282	H	0.004681	0.350341	0.820075
H283	H	-0.118847	0.107854	0.235651
H284	H	0.214486	0.441187	0.568984
H285	H	0.547819	0.774521	0.902318
H286	H	-0.744806	0.188354	0.580211
H287	H	-0.411473	0.521688	0.913545
H288	H	-0.078140	0.855021	1.246878
H289	H	-0.768448	0.080865	0.419272
H290	H	-0.435115	0.414199	0.752605
H291	H	-0.101781	0.747532	1.085938
H292	H	-0.692364	-0.031209	0.578972
H293	H	-0.359030	0.302125	0.912306
H294	H	-0.025697	0.635458	1.245639
H295	H	-0.392085	0.112719	0.151897
H296	H	-0.058752	0.446052	0.485230
H297	H	0.274582	0.779385	0.818563
H298	H	-0.595453	-0.448552	0.093711
H299	H	-0.262120	-0.115218	0.427045
H300	H	0.071213	0.218115	0.760378
H301	H	-0.499860	0.114622	0.151897
H302	H	-0.166527	0.447955	0.485230
H303	H	0.166807	0.781288	0.818564
H304	H	-0.759163	-0.480784	0.062298
H305	H	-0.425830	-0.147451	0.395632
H306	H	-0.092496	0.185883	0.728965
H307	H	-0.118915	0.107805	-0.235894
H308	H	0.214418	0.441138	0.097439
H309	H	0.547751	0.774471	0.430772
H310	H	-0.760701	-0.335996	-0.062789
H311	H	-0.427368	-0.002662	0.270545
H312	H	-0.094035	0.330671	0.603878
H313	H	-0.664695	-0.318853	-0.153492
H314	H	-0.331362	0.014481	0.179842
H315	H	0.001971	0.347814	0.513175
H316	H	-0.693078	-0.031293	0.420461
H317	H	-0.359745	0.302040	0.753795
H318	H	-0.026411	0.635374	1.087128
