data_functionalizedCrystal
_audit_creation_method	'MofGen! by Chris Wilmer'
_symmetry_space_group_name_H-M	'P1'
_symmetry_Int_Tables_number	1
_symmetry_cell_setting	triclinic
loop_
_symmetry_equiv_pos_as_xyz
  x,y,z
_cell_length_a	18.215407
_cell_length_b	12.759400
_cell_length_c	18.215407
_cell_angle_alpha	90.007693
_cell_angle_beta	90.008215
_cell_angle_gamma	90.007678
loop_
_atom_site_label
_atom_site_type_symbol
_atom_site_fract_x
_atom_site_fract_y
_atom_site_fract_z
Zn1	Zn	1.125062	-0.418594	0.416099
Zn2	Zn	1.125016	-0.594243	0.293043
Zn3	Zn	1.002015	-0.418562	0.293051
Zn4	Zn	1.001986	-0.594215	0.416072
O5	O	1.063520	-0.506403	0.354566
O6	O	1.228040	-0.441920	0.399783
O7	O	1.108693	-0.570937	0.190059
O8	O	1.018369	-0.271545	0.309388
O9	O	1.228007	-0.570968	0.309374
O10	O	1.108771	-0.271569	0.399791
O11	O	1.018325	-0.441865	0.190065
O12	O	0.899027	-0.441837	0.309362
O13	O	1.018319	-0.570920	0.519060
O14	O	0.899005	-0.570889	0.399745
O15	O	1.108743	-0.441892	0.519080
O16	O	1.108665	-0.741260	0.309348
O17	O	1.018274	-0.741239	0.399737
C18	C	0.872314	-0.506357	0.354552
C19	C	0.790515	-0.506363	0.354563
C20	C	1.063481	-0.779371	0.354554
C21	C	1.063532	-0.896147	0.354574
C22	C	0.525469	-0.439337	0.401717
C23	C	0.602328	-0.439320	0.401715
C24	C	0.602312	-0.573504	0.307431
C25	C	0.525455	-0.573525	0.307438
C26	C	0.487035	-0.506436	0.354580
C27	C	0.640751	-0.506397	0.354571
C28	C	0.724085	-0.506380	0.354568
C29	C	0.403696	-0.506455	0.354584
C30	C	1.110581	-0.950942	0.401685
C31	C	1.110615	-1.060666	0.401703
C32	C	1.016550	-1.060791	0.307492
C33	C	1.016512	-0.951069	0.307479
C34	C	1.157601	-0.896020	0.448781
C35	C	1.204654	-0.950815	0.495896
C36	C	1.204688	-1.060539	0.495914
C37	C	1.157669	-1.115468	0.448817
C38	C	1.255473	-0.506451	0.354581
C39	C	1.337272	-0.506471	0.354587
C40	C	1.063533	-0.506406	0.546519
C41	C	1.063538	-0.506408	0.628318
C42	C	1.063579	-0.232370	0.354594
C43	C	1.063604	-0.115594	0.354606
C44	C	1.110607	-0.439234	0.816523
C45	C	1.110603	-0.439233	0.893382
C46	C	1.016445	-0.573597	0.893350
C47	C	1.016446	-0.573591	0.816493
C48	C	1.063531	-0.506411	0.778081
C49	C	1.063526	-0.506416	0.931797
C50	C	1.063521	-0.506416	1.015131
C51	C	1.063535	-0.506409	0.694742
C52	C	1.063508	-0.506423	1.163360
C53	C	1.063519	-0.506420	1.081561
H54	H	0.494190	-0.384709	0.440103
C55	C	1.161599	-0.366225	0.774727
C56	C	1.119941	-0.298894	0.730593
C57	C	1.166889	-0.231627	0.692075
H58	H	1.189650	-0.326115	0.808549
H59	H	1.193650	-0.406383	0.744701
H60	H	1.087903	-0.258740	0.760616
H61	H	1.091892	-0.338975	0.696757
H62	H	1.198939	-0.271785	0.662049
H63	H	1.194936	-0.191524	0.725902
H64	H	1.138630	-0.185942	0.662121
C65	C	0.965311	-0.891700	0.256375
C66	C	0.892496	-0.918466	0.272331
C67	C	0.845306	-0.863804	0.225267
H68	H	0.971924	-0.818473	0.263071
H69	H	0.976075	-0.909709	0.206925
H70	H	0.881737	-0.900450	0.321769
H71	H	0.885861	-0.991683	0.265631
H72	H	0.856070	-0.881813	0.175817
H73	H	0.851925	-0.790580	0.231967
H74	H	0.795897	-0.881964	0.236082
C75	C	0.643923	-0.366352	0.452920
C76	C	0.593824	-0.307589	0.494190
C77	C	0.632114	-0.240348	0.541364
H78	H	0.673915	-0.406483	0.485005
H79	H	0.673883	-0.320452	0.424834
H80	H	0.563877	-0.353483	0.522274
H81	H	0.563830	-0.267437	0.462125
H82	H	0.662073	-0.194448	0.513278
H83	H	0.662105	-0.280487	0.573444
H84	H	0.598127	-0.200463	0.569366
C85	C	1.161755	-0.366466	0.935216
C86	C	1.208898	-0.425960	0.979359
C87	C	1.256022	-0.358957	1.017914
H88	H	1.189865	-0.326431	0.901416
H89	H	1.133628	-0.320702	0.965238
H90	H	1.237022	-0.471705	0.949339
H91	H	1.180808	-0.465993	1.013172
H92	H	1.227894	-0.313193	1.047937
H93	H	1.284127	-0.318925	0.984109
H94	H	1.288009	-0.399312	1.047875
H95	H	0.978112	-0.628294	0.924634
C96	C	0.965305	-0.646648	0.774882
C97	C	0.924088	-0.705509	0.824969
C98	C	0.876978	-0.772824	0.786665
H99	H	0.933184	-0.606566	0.744898
H100	H	0.993434	-0.692483	0.744914
H101	H	0.895961	-0.659681	0.854925
H102	H	0.956191	-0.745613	0.854956
H103	H	0.905107	-0.818658	0.756697
H104	H	0.844861	-0.732733	0.756682
H105	H	0.849012	-0.812776	0.820643
H106	H	0.633602	-0.628123	0.269048
H107	H	0.494161	-0.628171	0.269052
H108	H	1.242931	-0.906086	0.534245
C109	C	1.157645	-0.776892	0.448898
C110	C	1.208878	-0.740518	0.500237
C111	C	1.208932	-0.630784	0.500370
H112	H	1.170420	-0.751953	0.401457
H113	H	1.110150	-0.752066	0.461619
H114	H	1.256363	-0.765334	0.487511
H115	H	1.196115	-0.765428	0.547685
H116	H	1.161437	-0.605958	0.513091
H117	H	1.221706	-0.605856	0.452926
H118	H	1.243688	-0.606091	0.535207
C119	C	1.255849	-1.119843	0.547095
C120	C	1.297028	-1.048256	0.588320
C121	C	1.344176	-1.102845	0.635468
H122	H	1.227772	-1.162657	0.579209
H123	H	1.287987	-1.162609	0.518992
H124	H	1.264894	-1.005507	0.616421
H125	H	1.325120	-1.005439	0.556226
H126	H	1.376314	-1.145612	0.607366
H127	H	1.316093	-1.145657	0.667578
H128	H	1.372126	-1.054282	0.663441
H129	H	1.157692	-1.204813	0.448844
H130	H	0.978270	-1.105523	0.269148
