data_functionalizedCrystal
_audit_creation_method	'MofGen! by Chris Wilmer'
_symmetry_space_group_name_H-M	'P1'
_symmetry_Int_Tables_number	1
_symmetry_cell_setting	triclinic
loop_
_symmetry_equiv_pos_as_xyz
  x,y,z
_cell_length_a	18.215407
_cell_length_b	12.594516
_cell_length_c	18.215399
_cell_angle_alpha	90.022106
_cell_angle_beta	90.019833
_cell_angle_gamma	90.016501
loop_
_atom_site_label
_atom_site_type_symbol
_atom_site_fract_x
_atom_site_fract_y
_atom_site_fract_z
Zn1	Zn	1.125117	-0.423740	0.416146
Zn2	Zn	1.125045	-0.601738	0.293092
Zn3	Zn	1.002050	-0.423775	0.293093
Zn4	Zn	1.002035	-0.601679	0.416117
O5	O	1.063561	-0.512733	0.354612
O6	O	1.228092	-0.447362	0.399834
O7	O	1.108705	-0.578170	0.190108
O8	O	1.018412	-0.274825	0.309429
O9	O	1.228038	-0.578136	0.309427
O10	O	1.108829	-0.274799	0.399835
O11	O	1.018341	-0.447422	0.190109
O12	O	0.899063	-0.447364	0.309401
O13	O	1.018386	-0.578035	0.519105
O14	O	0.899052	-0.578069	0.399786
O15	O	1.108814	-0.447305	0.519126
O16	O	1.108690	-0.750676	0.309399
O17	O	1.018315	-0.750632	0.399785
C18	C	0.872355	-0.512715	0.354591
C19	C	0.790556	-0.512733	0.354599
C20	C	0.602376	-0.580898	0.401604
C21	C	0.525517	-0.580901	0.401613
C22	C	0.525499	-0.444588	0.307636
C23	C	0.602356	-0.444580	0.307631
C24	C	0.640793	-0.512741	0.354614
C25	C	0.487077	-0.512752	0.354628
C26	C	0.403743	-0.512755	0.354638
C27	C	0.724132	-0.512737	0.354606
C28	C	1.063513	-0.789274	0.354605
C29	C	1.063560	-0.907579	0.354626
C30	C	1.014400	-0.976847	0.403753
C31	C	0.996471	-1.047706	0.336600
C32	C	1.081556	-1.047520	0.421791
C33	C	1.045595	-0.976880	0.287438
C34	C	1.130712	-0.976687	0.372674
C35	C	1.112808	-1.047514	0.305475
C36	C	1.255514	-0.512752	0.354634
C37	C	1.337313	-0.512760	0.354643
C38	C	1.063606	-0.512660	0.546565
C39	C	1.063625	-0.512628	0.628364
C40	C	1.063630	-0.235112	0.354635
C41	C	1.063659	-0.116807	0.354645
C42	C	1.063559	-0.512729	0.163406
C43	C	1.063683	-0.512461	0.081607
C44	C	1.110728	-0.444493	0.816570
C45	C	1.110737	-0.444462	0.893429
C46	C	1.016575	-0.580599	0.893396
C47	C	1.016563	-0.580624	0.816538
C48	C	1.063644	-0.512572	0.778127
C49	C	1.063664	-0.512517	0.931844
C50	C	1.063674	-0.512483	1.015177
C51	C	1.063634	-0.512604	0.694788
H52	H	0.633636	-0.389071	0.269367
H53	H	0.972753	-0.945818	0.445237
H54	H	0.978215	-0.636061	0.785237
O55	O	0.970742	-0.646594	0.930676
C56	C	0.845554	-0.698299	0.954128
C57	C	0.897374	-0.623471	0.911879
H58	H	0.786227	-0.679645	0.938934
H59	H	0.853587	-0.686589	1.015672
H60	H	0.858496	-0.784121	0.939014
H61	H	0.884464	-0.537620	0.926930
H62	H	0.889332	-0.635273	0.850344
O63	O	0.639681	-0.646985	0.447352
C64	C	0.663204	-0.698908	0.572475
C65	C	0.620927	-0.623984	0.520747
H66	H	0.648045	-0.680354	0.631825
H67	H	0.724744	-0.687195	0.564465
H68	H	0.648082	-0.784705	0.559421
H69	H	0.635987	-0.538158	0.533769
H70	H	0.559396	-0.635789	0.528766
O71	O	1.162362	-1.084436	0.255823
C72	C	1.182262	-1.189198	0.146914
C73	C	1.126073	-1.147474	0.203105
H74	H	1.152942	-1.240154	0.104269
H75	H	1.225438	-1.239018	0.176334
H76	H	1.210001	-1.119237	0.118511
H77	H	1.098280	-1.217371	0.231526
H78	H	1.082943	-1.097622	0.173645
H79	H	0.494241	-0.636400	0.439878
H80	H	0.939728	-1.078924	0.321350
O81	O	1.027382	-0.939846	0.219717
C82	C	1.006941	-0.786101	0.143721
C83	C	1.027563	-0.827899	0.220449
H84	H	1.007095	-0.695587	0.144283
H85	H	0.949898	-0.815911	0.128231
H86	H	1.048618	-0.815872	0.101825
H87	H	0.985936	-0.798145	0.262396
H88	H	1.084624	-0.798098	0.235876
H89	H	0.494195	-0.389095	0.269384
H90	H	1.187442	-0.945472	0.387956
H91	H	1.096738	-1.078549	0.478583
O92	O	1.156479	-0.378284	0.779371
C93	C	1.249903	-0.243291	0.787520
C94	C	1.198116	-0.318206	0.829736
H95	H	1.283591	-0.194714	0.828221
H96	H	1.216157	-0.187576	0.751557
H97	H	1.288338	-0.292185	0.751519
H98	H	1.159671	-0.269397	0.865776
H99	H	1.231908	-0.373923	0.865652
H100	H	1.149077	-0.389024	0.924726
