data_functionalizedCrystal
_audit_creation_method	'MofGen! by Chris Wilmer'
_symmetry_space_group_name_H-M	'P1'
_symmetry_Int_Tables_number	1
_symmetry_cell_setting	triclinic
loop_
_symmetry_equiv_pos_as_xyz
  x,y,z
_cell_length_a	13.033293
_cell_length_b	12.645330
_cell_length_c	13.032268
_cell_angle_alpha	97.149830
_cell_angle_beta	89.079182
_cell_angle_gamma	97.182513
loop_
_atom_site_label
_atom_site_type_symbol
_atom_site_fract_x
_atom_site_fract_y
_atom_site_fract_z
Zn1	Zn	1.498489	-0.329810	-0.781490
Zn2	Zn	1.520245	-0.482152	-0.609521
Zn3	Zn	1.348349	-0.324212	-0.587666
Zn4	Zn	1.326499	-0.526344	-0.759562
O5	O	1.423396	-0.415630	-0.684560
O6	O	1.645293	-0.333867	-0.777002
O7	O	1.515691	-0.440364	-0.462713
O8	O	1.368305	-0.176606	-0.613408
O9	O	1.661276	-0.445792	-0.650657
O10	O	1.478613	-0.180719	-0.755810
O11	O	1.389401	-0.324326	-0.446656
O12	O	1.201533	-0.367177	-0.592145
O13	O	1.331065	-0.521111	-0.906380
O14	O	1.185480	-0.515682	-0.718436
O15	O	1.457426	-0.376718	-0.922490
O16	O	1.494504	-0.636363	-0.629394
O17	O	1.352160	-0.668830	-0.739628
C18	C	1.156191	-0.445619	-0.650540
C19	C	1.041876	-0.458477	-0.636011
C20	C	0.982990	-0.408945	-0.692143
C21	C	0.864840	-0.422234	-0.677127
C22	C	1.423347	-0.691062	-0.684529
C23	C	1.423416	-0.808887	-0.684562
C24	C	1.512858	-0.955973	-0.615036
C25	C	1.513091	-0.833411	-0.615264
C26	C	1.439035	-0.865700	-0.796699
C27	C	1.439718	-0.988166	-0.796357
C28	C	1.318189	-0.984407	-0.643016
C29	C	1.319019	-0.861391	-0.640651
C30	C	1.691644	-0.385525	-0.718713
C31	C	1.805956	-0.372696	-0.733267
C32	C	1.389381	-0.454468	-0.952792
C33	C	1.374886	-0.471019	-1.067097
C34	C	1.423469	-0.139122	-0.684617
C35	C	1.423501	-0.021291	-0.684641
C36	C	1.430945	-0.406955	-1.126029
C37	C	1.415965	-0.424060	-1.244169
C38	C	1.457337	-0.376859	-0.417378
C39	C	1.472031	-0.359987	-0.303099
H40	H	1.504915	-0.793809	-0.532549
H41	H	1.020046	-0.356697	-0.751312
C42	C	0.745731	-0.576218	-0.647340
C43	C	0.814834	-0.492772	-0.597240
H44	H	0.714865	-0.619767	-0.598022
H45	H	0.693482	-0.546860	-0.680599
H46	H	0.781987	-0.618629	-0.697367
H47	H	0.778577	-0.450355	-0.547219
H48	H	0.867090	-0.522131	-0.563965
C49	C	0.963325	-0.302654	-0.812578
C50	C	0.855961	-0.302166	-0.813161
H51	H	0.994193	-0.259118	-0.861905
H52	H	0.989619	-0.275064	-0.745730
H53	H	0.978974	-0.374112	-0.829720
H54	H	0.840311	-0.230708	-0.796010
H55	H	0.829658	-0.329751	-0.880024
C56	C	1.202204	-1.083522	-0.534235
C57	C	1.295427	-1.015092	-0.533574
H58	H	1.188166	-1.102468	-0.466669
H59	H	1.147715	-1.047910	-0.555595
H60	H	1.207517	-1.146605	-0.580879
H61	H	1.290112	-0.952005	-0.486936
H62	H	1.349930	-1.050703	-0.512200
H63	H	1.490025	-0.339442	-1.089020
C64	C	0.922762	-0.612457	-0.606228
C65	C	0.991866	-0.529011	-0.556128
H66	H	0.891897	-0.656006	-0.556909
H67	H	0.870514	-0.583100	-0.639486
H68	H	0.959018	-0.654869	-0.656254
H69	H	0.955608	-0.486595	-0.506106
H70	H	1.044122	-0.558370	-0.522852
H71	H	1.531113	-0.292467	-1.266096
C72	C	1.336806	-0.514517	-1.401481
C73	C	1.336203	-0.515211	-1.294115
H74	H	1.287571	-0.570794	-1.432315
H75	H	1.319556	-0.447512	-1.417128
H76	H	1.403700	-0.524792	-1.427817
H77	H	1.269311	-0.504927	-1.267778
H78	H	1.353447	-0.582232	-1.278461
C79	C	1.506925	-1.092693	-0.501941
C80	C	1.502177	-0.982834	-0.503096
H81	H	1.500331	-1.109276	-0.432830
H82	H	1.452284	-1.132916	-0.542684
H83	H	1.571392	-1.110386	-0.529510
H84	H	1.437707	-0.965142	-0.475533
H85	H	1.556822	-0.942598	-0.462337
H86	H	1.590732	-0.980333	-0.643405
C87	C	1.682102	-0.866546	-0.676982
C88	C	1.618760	-0.785081	-0.653928
H89	H	1.747336	-0.836708	-0.700863
H90	H	1.691536	-0.899137	-0.616534
H91	H	1.650396	-0.919033	-0.729199
H92	H	1.650462	-0.732597	-0.601705
H93	H	1.609328	-0.752473	-0.714384
H94	H	1.306993	-0.823307	-0.558060
C95	C	1.603815	-0.927535	-0.869034
C96	C	1.543085	-1.019210	-0.841772
H97	H	1.667634	-0.946698	-0.897064
H98	H	1.568318	-0.897333	-0.919133
H99	H	1.616695	-0.876407	-0.809385
H100	H	1.530199	-1.070335	-0.901422
H101	H	1.578590	-1.049428	-0.791669
H102	H	1.315796	-0.538523	-1.104105
H103	H	1.376733	-1.032945	-0.850753
C104	C	1.256877	-0.888291	-0.832180
C105	C	1.353040	-0.846779	-0.869379
H106	H	1.203785	-0.876601	-0.877041
H107	H	1.255655	-0.963152	-0.829472
H108	H	1.245971	-0.853257	-0.764802
H109	H	1.363949	-0.881818	-0.936754
H110	H	1.354264	-0.771903	-0.872098
H111	H	1.514655	-0.829549	-0.830629
H112	H	1.249967	-0.845571	-0.686518
H113	H	1.251780	-1.028469	-0.693543
