data_functionalizedCrystal
_audit_creation_method	'MofGen! by Chris Wilmer'
_symmetry_space_group_name_H-M	'P1'
_symmetry_Int_Tables_number	1
_symmetry_cell_setting	triclinic
loop_
_symmetry_equiv_pos_as_xyz
  x,y,z
_cell_length_a	16.120484
_cell_length_b	16.120566
_cell_length_c	16.625539
_cell_angle_alpha	92.920705
_cell_angle_beta	92.868615
_cell_angle_gamma	89.831930
loop_
_atom_site_label
_atom_site_type_symbol
_atom_site_fract_x
_atom_site_fract_y
_atom_site_fract_z
Zn1	Zn	-0.395590	-1.254482	-0.536801
Zn2	Zn	-0.534650	-1.247323	-0.408429
Zn3	Zn	-0.388559	-1.115420	-0.394818
Zn4	Zn	-0.527544	-1.108334	-0.536055
O5	O	-0.461586	-1.181390	-0.469026
O6	O	-0.419952	-1.369898	-0.525780
O7	O	-0.515303	-1.229795	-0.293791
O8	O	-0.273129	-1.139828	-0.408268
O9	O	-0.522120	-1.364639	-0.431466
O10	O	-0.278294	-1.241996	-0.512582
O11	O	-0.407970	-1.132886	-0.283791
O12	O	-0.401080	-0.998114	-0.407545
O13	O	-0.510008	-1.127752	-0.648987
O14	O	-0.503191	-0.992908	-0.511312
O15	O	-0.413062	-1.235126	-0.649534
O16	O	-0.650071	-1.222925	-0.430743
O17	O	-0.644850	-1.120810	-0.524510
C18	C	-0.450602	-0.965339	-0.457871
C19	C	-0.445923	-0.872910	-0.453119
C20	C	-0.437361	-0.703683	-0.444450
C21	C	-0.485882	-0.659934	-0.493612
C22	C	-0.481118	-0.565770	-0.488788
C23	C	-0.442124	-0.797855	-0.449272
C24	C	-0.677633	-1.170345	-0.479041
C25	C	-0.770063	-1.165695	-0.483357
C26	C	-0.939294	-1.157212	-0.491253
C27	C	-0.983045	-1.205716	-0.446820
C28	C	-1.077210	-1.200996	-0.451213
C29	C	-0.845120	-1.161931	-0.486861
C30	C	-0.244696	-1.192501	-0.458990
C31	C	-0.152270	-1.197236	-0.454713
C32	C	-0.461527	-1.181447	-0.679335
C33	C	-0.461501	-1.181471	-0.768956
C34	C	-0.472616	-0.398284	-0.480211
C35	C	-0.477323	-0.490711	-0.484945
C36	C	-0.461410	-1.181514	-1.097129
C37	C	-0.461438	-1.181500	-1.005822
C38	C	-0.461456	-1.181493	-0.933046
C39	C	-0.461483	-1.181478	-0.841732
C40	C	-0.461587	-1.181384	-0.259535
C41	C	-0.461386	-1.181532	-0.169912
H42	H	-0.530998	-0.693198	-0.539325
H43	H	-0.972557	-1.112144	-0.532589
H44	H	-0.392248	-0.670421	-0.398741
H45	H	-0.949779	-1.250787	-0.405479
