data_functionalizedCrystal
_audit_creation_method	'MofGen! by Chris Wilmer'
_symmetry_space_group_name_H-M	'P1'
_symmetry_Int_Tables_number	1
_symmetry_cell_setting	triclinic
loop_
_symmetry_equiv_pos_as_xyz
  x,y,z
_cell_length_a	27.440280
_cell_length_b	27.440280
_cell_length_c	27.440280
_cell_angle_alpha	60.004742
_cell_angle_beta	90.008003
_cell_angle_gamma	60.004534
loop_
_atom_site_label
_atom_site_type_symbol
_atom_site_fract_x
_atom_site_fract_y
_atom_site_fract_z
Zr1	Zr	0.469569	0.533327	-0.063884
O2	O	0.391762	0.634989	-0.141703
O3	O	0.493412	0.431666	-0.040030
O4	O	0.493424	0.533315	-0.141691
O5	O	0.391752	0.533349	0.040152
O6	O	0.573627	0.533306	-0.141681
O7	O	0.391751	0.533339	-0.040041
O8	O	0.573606	0.351473	0.040173
O9	O	0.391773	0.715181	-0.141702
O10	O	0.563446	0.473473	-0.029848
O11	O	0.503593	0.473488	0.029992
O12	O	0.503607	0.593167	-0.089701
O13	O	0.443753	0.593181	-0.029861
Zr14	Zr	0.597485	0.533327	0.064031
Zr15	Zr	0.597483	0.533312	-0.063868
Zr16	Zr	0.469571	0.533342	0.064015
Zr17	Zr	0.469586	0.661225	-0.063883
Zr18	Zr	0.597469	0.405430	0.064029
O19	O	0.573642	0.634989	0.040176
O20	O	0.573640	0.634968	-0.141680
O21	O	0.391765	0.635010	0.040153
O22	O	0.675292	0.431666	0.141849
O23	O	0.675290	0.431644	-0.040007
O24	O	0.493415	0.431687	0.141826
O25	O	0.675303	0.533306	-0.040006
O26	O	0.573631	0.533339	0.141838
O27	O	0.493428	0.533349	0.141828
O28	O	0.675304	0.533315	0.040188
O29	O	0.493447	0.715169	-0.141689
O30	O	0.573607	0.351485	0.141835
O31	O	0.675282	0.351473	0.141848
O32	O	0.675281	0.351461	0.040185
O33	O	0.391774	0.715193	-0.040039
O34	O	0.493449	0.715181	-0.040026
O35	O	0.563448	0.473488	0.089847
O36	O	0.623302	0.473473	0.030007
O37	O	0.563462	0.593167	-0.029846
O38	O	0.503608	0.593181	0.029994
C39	C	0.533507	0.373347	0.000071
C40	C	0.533500	0.319051	0.000071
C41	C	0.564787	-0.017698	-0.031157
C42	C	0.564792	-0.068722	-0.031156
O43	O	0.591381	-0.095135	-0.057702
N44	N	0.533549	-0.094231	0.000079
C45	C	0.502303	-0.068718	0.031319
O46	O	0.475729	-0.095101	0.057887
C47	C	0.502301	-0.017699	0.031320
C48	C	0.533542	0.007812	0.000079
C49	C	0.596025	0.007812	-0.062396
C50	C	0.596019	0.058833	-0.062398
C51	C	0.564774	0.084344	-0.031162
C52	C	0.533535	0.058833	0.000076
C53	C	0.471059	0.007809	0.062563
C54	C	0.471061	0.058832	0.062563
C55	C	0.502301	0.084343	0.031321
C56	C	0.502284	0.135365	0.031310
N57	N	0.533527	0.160874	0.000075
C58	C	0.564772	0.135364	-0.031161
C59	C	0.502309	-0.175864	0.031314
C60	C	0.502307	-0.226879	0.031309
C61	C	0.564798	-0.226880	-0.031164
C62	C	0.564796	-0.175861	-0.031163
C63	C	0.533553	-0.150355	0.000079
C64	C	0.564756	0.242512	-0.031164
C65	C	0.564745	0.293540	-0.031166
C66	C	0.502257	0.293534	0.031311
C67	C	0.502265	0.242514	0.031310
C68	C	0.533519	0.217002	0.000072
O69	O	0.475710	0.161808	0.057845
O70	O	0.591348	0.161746	-0.057718
C71	C	0.373526	0.533346	0.000053
C72	C	0.319223	0.533352	0.000046
C73	C	0.013761	0.470837	0.031332
C74	C	-0.037257	0.470833	0.031338
O75	O	-0.037080	0.417698	0.057927
N76	N	-0.094010	0.533311	0.000094
C77	C	-0.099743	0.595797	-0.031152
O78	O	-0.152700	0.648939	-0.057726
C79	C	-0.048725	0.595800	-0.031153
C80	C	0.008027	0.533318	0.000088
C81	C	0.070511	0.408360	0.062571
C82	C	0.121525	0.408364	0.062565
C83	C	0.115791	0.470845	0.031320
C84	C	0.059042	0.533322	0.000081
C85	C	-0.054459	0.658286	-0.062395
C86	C	-0.003435	0.658283	-0.062393
C87	C	0.053317	0.595801	-0.031153
C88	C	0.104322	0.595807	-0.031170
N89	N	0.161074	0.533329	0.000073
C90	C	0.166809	0.470848	0.031318
C91	C	-0.206882	0.595786	-0.031145
C92	C	-0.257899	0.595784	-0.031148
C93	C	-0.195409	0.470819	0.031343
C94	C	-0.144392	0.470823	0.031341
C95	C	-0.150129	0.533308	0.000098
C96	C	0.273941	0.470862	0.031302
C97	C	0.324958	0.470871	0.031291
C98	C	0.262464	0.595835	-0.031196
C99	C	0.211452	0.595826	-0.031188
C100	C	0.217194	0.533334	0.000066
O101	O	0.104191	0.648916	-0.057744
O102	O	0.219768	0.417715	0.057894
C103	C	0.693528	0.533308	0.000093
C104	C	0.747831	0.533302	0.000100
C105	C	0.533525	0.533308	-0.159909
C106	C	0.533524	0.533302	-0.214206
C107	C	0.533548	0.693308	0.000075
C108	C	0.533555	0.747604	0.000076
C109	C	0.502297	0.595817	-0.582183
C110	C	0.502299	0.595821	-0.633205
O111	O	0.475752	0.648957	-0.686164
N112	N	0.533533	0.533343	-0.627480
C113	C	0.564773	0.470857	-0.570727
O114	O	0.591341	0.417715	-0.570542
C115	C	0.564774	0.470854	-0.519706
C116	C	0.533533	0.533336	-0.525436
C117	C	0.471058	0.658294	-0.587911
C118	C	0.471056	0.658290	-0.536892
C119	C	0.502292	0.595809	-0.480145
C120	C	0.533530	0.533332	-0.474418
C121	C	0.596018	0.408369	-0.462955
C122	C	0.596017	0.408371	-0.411933
C123	C	0.564775	0.470853	-0.417663
C124	C	0.564764	0.470847	-0.366652
N125	N	0.533529	0.533325	-0.372378
C126	C	0.502293	0.595806	-0.429124
C127	C	0.564769	0.470868	-0.677877
C128	C	0.564764	0.470871	-0.728897
C129	C	0.502290	0.595835	-0.791371
C130	C	0.502292	0.595832	-0.740350
C131	C	0.533534	0.533346	-0.683603
C132	C	0.502290	0.595793	-0.321979
C133	C	0.502288	0.595783	-0.270952
C134	C	0.564764	0.470819	-0.208482
C135	C	0.564764	0.470829	-0.259504
C136	C	0.533525	0.533321	-0.316253
O137	O	0.591299	0.417738	-0.313675
O138	O	0.475736	0.648939	-0.429298
C139	C	0.533530	0.533346	0.160056
C140	C	0.533530	0.533352	0.214352
C141	C	0.693508	0.373328	0.000091
C142	C	0.747804	0.319026	0.000097
C143	C	0.533509	0.373365	0.160054
C144	C	0.533503	0.319076	0.214350
C145	C	0.693510	0.373347	0.160074
C146	C	0.747807	0.319051	0.214376
C147	C	0.373544	0.693308	-0.159927
C148	C	0.319248	0.747604	-0.214230
C149	C	0.373547	0.693326	0.000055
C150	C	0.319251	0.747629	0.000049
C151	C	0.533546	0.693289	-0.159907
C152	C	0.533552	0.747579	-0.214203
C153	C	0.742058	0.293525	-0.031149
C154	C	0.793070	0.242509	-0.031155
C155	C	0.849827	0.216992	0.000089
C156	C	0.855572	0.242498	0.031336
C157	C	0.804560	0.293516	0.031338
C158	C	0.564744	0.293581	0.271096
C159	C	0.564736	0.242577	0.322118
C160	C	0.533490	0.217066	0.316392
C161	C	0.502245	0.242566	0.259639
C162	C	0.502250	0.293572	0.208618
C163	C	0.804553	0.293546	0.208642
C164	C	0.855576	0.242536	0.259660
C165	C	0.849850	0.217029	0.316412
C166	C	0.793098	0.242539	0.322146
C167	C	0.742077	0.293551	0.271128
C168	C	0.262501	0.773115	-0.208495
C169	C	0.211479	0.824141	-0.259514
C170	C	0.217204	0.849650	-0.316266
C171	C	0.273957	0.824137	-0.322000
C172	C	0.324978	0.773116	-0.270982
C173	C	0.324997	0.773135	0.031290
C174	C	0.273985	0.824165	0.031282
C175	C	0.217228	0.849684	0.000036
C176	C	0.211483	0.824176	-0.031209
C177	C	0.262494	0.773150	-0.031204
C178	C	0.564804	0.773074	-0.208458
C179	C	0.564821	0.824078	-0.259469
C180	C	0.533583	0.849589	-0.316227
C181	C	0.502330	0.824089	-0.321971
C182	C	0.502316	0.773082	-0.270960
H183	H	0.590240	-0.247661	-0.056598
O184	O	0.440655	0.083556	0.092919
C185	C	0.413097	0.050082	0.120502
H186	H	0.406919	0.029052	0.095999
H187	H	0.367712	0.088349	0.118817
H188	H	0.442376	0.005778	0.168994
H189	H	-0.098185	0.419944	0.056785
H190	H	0.257805	0.646706	-0.056637
O191	O	0.471898	0.748422	-0.276652
C192	C	0.444343	0.781871	-0.337687
H193	H	0.438178	0.833571	-0.364885
H194	H	0.398952	0.790683	-0.344815
H195	H	0.473616	0.748408	-0.352716
H196	H	0.590181	0.221821	0.368324
H197	H	0.533490	0.175534	0.357941
O198	O	0.471958	0.217673	0.254187
C199	C	0.478653	0.167193	0.311392
H200	H	0.520842	0.144906	0.345205
H201	H	0.482250	0.124255	0.310845
H202	H	0.438284	0.191596	0.324383
H203	H	0.621459	0.357487	-0.365727
O204	O	0.257009	0.748355	-0.153337
C205	C	0.284648	0.760833	-0.121963
H206	H	0.319422	0.767171	-0.141441
H207	H	0.307297	0.715523	-0.072863
H208	H	0.249577	0.809894	-0.126213
H209	H	0.590242	0.752310	-0.162248
O210	O	0.156334	0.848901	-0.061459
C211	C	0.124956	0.836458	-0.021347
H212	H	0.158066	0.791742	0.025719
H213	H	0.096729	0.822956	-0.034884
H214	H	0.094699	0.884613	-0.022440
O215	O	0.167724	0.899313	0.000017
C216	C	0.167828	0.958328	-0.024833
H217	H	0.215474	0.942909	-0.020588
H218	H	0.149073	0.983015	-0.000028
H219	H	0.139020	0.996779	-0.073975
H220	H	0.476819	0.221749	0.056741
O221	O	0.787556	0.217615	-0.061417
C222	C	0.815180	0.146134	-0.021307
H223	H	0.849961	0.124494	0.019808
H224	H	0.837817	0.119699	-0.043974
H225	H	0.780100	0.136407	-0.007322
O226	O	0.899420	0.167362	0.000197
C227	C	0.933590	0.108334	0.059310
H228	H	0.922446	0.123739	0.091549
H229	H	0.983082	0.083628	0.065229
H230	H	0.922873	0.069903	0.068950
O231	O	-0.313056	0.656435	-0.061414
C232	C	-0.344428	0.660191	-0.021306
H233	H	-0.324949	0.605946	0.019817
H234	H	-0.393529	0.686638	-0.043970
H235	H	-0.340175	0.691027	-0.007332
H236	H	0.257807	0.752384	-0.056642
H237	H	0.590195	0.419951	-0.254837
H238	H	0.695873	0.314311	0.275806
H239	H	0.371182	0.752345	-0.275658
H240	H	0.590196	0.419991	-0.724224
H241	H	0.590184	0.314311	-0.056608
O242	O	0.471961	0.318373	0.061644
C243	C	0.478649	0.368886	0.054930
H244	H	0.520842	0.360510	0.043424
H245	H	0.482233	0.364749	0.098413
H246	H	0.438282	0.422244	0.017526
O247	O	0.440788	-0.017065	0.092956
C248	C	0.480879	-0.088544	0.136830
H249	H	0.521999	-0.110212	0.123712
H250	H	0.458196	-0.114964	0.140622
H251	H	0.494861	-0.098257	0.181633
O252	O	0.156399	0.848817	-0.253830
C253	C	0.162293	0.815362	-0.192798
H254	H	0.207820	0.763652	-0.165598
H255	H	0.125702	0.806569	-0.185688
H256	H	0.158122	0.848810	-0.177755
O257	O	0.810073	0.318263	0.061746
C258	C	0.782451	0.305775	0.105605
H259	H	0.747668	0.299443	0.092463
H260	H	0.759816	0.351077	0.109405
H261	H	0.817532	0.256708	0.150410
O262	O	0.471986	0.656541	-0.377068
C263	C	0.494971	0.694539	-0.383595
H264	H	0.517853	0.676761	-0.337663
H265	H	0.456951	0.751698	-0.410422
H266	H	0.528694	0.685886	-0.407979
H267	H	0.590194	0.419949	-0.162271
H268	H	-0.190748	0.419944	0.056782
O269	O	0.279551	0.848771	-0.377115
C270	C	0.310970	0.794295	-0.383619
H271	H	0.339172	0.743285	-0.337681
H272	H	0.341252	0.801979	-0.410522
H273	H	0.277895	0.793569	-0.407912
O274	O	0.595123	0.217834	-0.061562
C275	C	0.622702	0.251288	-0.089119
H276	H	0.598190	0.302998	-0.095303
H277	H	0.621024	0.260080	-0.134502
H278	H	0.671192	0.217839	-0.059838
H279	H	0.901790	0.221714	0.056773
O280	O	0.810075	0.318406	0.153496
C281	C	0.782468	0.389888	0.122089
H282	H	0.747673	0.411570	0.141528
H283	H	0.759849	0.416290	0.072988
H284	H	0.817555	0.399606	0.126353
H285	H	0.590188	0.314347	0.275771
H286	H	0.175655	0.891195	-0.357803
H287	H	0.788445	0.221764	0.368361
H288	H	-0.008114	0.709168	-0.087828
H289	H	0.476845	0.646666	-0.275625
O290	O	0.471897	0.318232	0.153540
C291	C	0.444311	0.284783	0.159434
H292	H	0.468812	0.233084	0.204969
H293	H	0.445995	0.275971	0.122856
H294	H	0.395819	0.318247	0.155244
O295	O	0.380082	0.748448	0.061654
C296	C	0.374202	0.781900	0.089234
H297	H	0.328679	0.833613	0.064722
H298	H	0.410798	0.790685	0.087558
H299	H	0.378376	0.748453	0.137723
O300	O	0.279499	0.848917	0.061685
C301	C	0.251867	0.836446	0.105536
H302	H	0.217081	0.830118	0.092392
H303	H	0.229232	0.881755	0.109327
H304	H	0.286940	0.787382	0.150347
H305	H	0.621460	0.079600	-0.087836
O306	O	-0.212566	0.656551	-0.061557
C307	C	-0.273598	0.711688	-0.089118
H308	H	-0.300802	0.693358	-0.095295
H309	H	-0.280717	0.755386	-0.134503
H310	H	-0.288629	0.730905	-0.059842
O311	O	0.899399	0.167562	0.365985
C312	C	0.899311	0.192486	0.400176
H313	H	0.870457	0.251224	0.370227
H314	H	0.946906	0.172452	0.420836
H315	H	0.880502	0.173936	0.437110
O316	O	0.910656	0.217811	0.253976
C317	C	0.904762	0.251272	0.192944
H318	H	0.859230	0.272290	0.165744
H319	H	0.941345	0.212999	0.185833
H320	H	0.908944	0.295583	0.177904
O321	O	0.595254	0.848783	-0.253912
C322	C	0.639105	0.836319	-0.281545
H323	H	0.650715	0.791606	-0.283902
H324	H	0.680824	0.822802	-0.254475
H325	H	0.621236	0.884469	-0.328602
O326	O	0.471854	-0.151017	0.061580
C327	C	0.410876	-0.121530	0.038606
H328	H	0.399824	-0.106220	-0.009014
H329	H	0.382606	-0.073889	0.038685
H330	H	0.400887	-0.160637	0.067570
O331	O	0.533664	0.899054	-0.365795
C332	C	0.558490	0.874131	-0.399986
H333	H	0.588371	0.815393	-0.370038
H334	H	0.586051	0.894162	-0.420642
H335	H	0.521124	0.892684	-0.436924
H336	H	0.621472	-0.012956	-0.087832
H337	H	0.476860	-0.247638	0.056742
H338	H	0.476897	0.844868	-0.368189
H339	H	0.371168	0.419989	0.056733
O340	O	0.595199	-0.151182	-0.061516
C341	C	0.622761	-0.184631	-0.089098
H342	H	0.628941	-0.236340	-0.064594
H343	H	0.668145	-0.193426	-0.087411
H344	H	0.593484	-0.151177	-0.137590
H345	H	0.278626	0.419974	0.056753
H346	H	0.075190	0.357478	0.088018
O347	O	0.176637	0.347650	0.093013
C348	C	0.183165	0.309645	0.153992
H349	H	0.150863	0.346213	0.165044
H350	H	0.230889	0.281298	0.182260
H351	H	0.173021	0.270691	0.163983
O352	O	-0.109536	0.719043	-0.092745
C353	C	-0.103642	0.774182	-0.120324
H354	H	-0.058107	0.755853	-0.095822
H355	H	-0.140220	0.817878	-0.118632
H356	H	-0.107836	0.793402	-0.168818
H357	H	0.621459	0.357489	-0.458277
O358	O	0.156366	0.656581	-0.061557
C359	C	0.162247	0.711728	-0.089155
H360	H	0.207774	0.693419	-0.064653
H361	H	0.125656	0.755437	-0.087486
H362	H	0.158069	0.730923	-0.137643
H363	H	0.445618	0.709170	-0.541565
O364	O	0.440754	0.719038	-0.643000
C365	C	0.463739	0.757037	-0.649530
H366	H	0.486627	0.739256	-0.603598
H367	H	0.425718	0.814195	-0.676352
H368	H	0.497457	0.748388	-0.673919
O369	O	0.472034	0.656482	-0.745842
C370	C	0.512146	0.660228	-0.718208
H371	H	0.553264	0.605980	-0.683437
H372	H	0.489483	0.686676	-0.695558
H373	H	0.526127	0.691058	-0.753284
O374	O	0.472005	0.656470	-0.846546
C375	C	0.478697	0.643067	-0.890345
H376	H	0.520886	0.589365	-0.870455
H377	H	0.482289	0.682961	-0.929679
H378	H	0.438328	0.646038	-0.906318
O379	O	0.595121	0.410104	-0.622797
C380	C	0.622698	0.354967	-0.628692
H381	H	0.598191	0.373297	-0.674226
H382	H	0.621010	0.311269	-0.592112
H383	H	0.671191	0.335748	-0.624505
O384	O	0.686959	0.318190	-0.061459
C385	C	0.680407	0.263755	-0.038487
H386	H	0.726330	0.212718	-0.015605
H387	H	0.653571	0.271453	-0.076515
H388	H	0.656021	0.263079	-0.004767
