data_functionalizedCrystal
_audit_creation_method	'MofGen! by Chris Wilmer'
_symmetry_space_group_name_H-M	'P1'
_symmetry_Int_Tables_number	1
_symmetry_cell_setting	triclinic
loop_
_symmetry_equiv_pos_as_xyz
  x,y,z
_cell_length_a	19.288864
_cell_length_b	19.288840
_cell_length_c	17.766277
_cell_angle_alpha	89.983415
_cell_angle_beta	90.028157
_cell_angle_gamma	96.868870
loop_
_atom_site_label
_atom_site_type_symbol
_atom_site_fract_x
_atom_site_fract_y
_atom_site_fract_z
O1	O	-0.086566	0.921364	-0.062756
O2	O	-0.098273	0.719101	-0.062734
O3	O	0.008711	0.826077	-0.062699
O4	O	-0.193550	0.814388	-0.062791
O5	O	0.008717	0.826058	0.062489
O6	O	-0.098267	0.719082	0.062454
O7	O	-0.086560	0.921345	0.062433
Cu8	Cu	-0.092413	0.820212	0.073874
Cu9	Cu	-0.092420	0.820234	-0.074176
O10	O	-0.193545	0.814369	0.062398
C11	C	-0.097896	0.693215	-0.000137
C12	C	-0.096774	0.616110	-0.000126
C13	C	-0.096238	0.579917	-0.068368
C14	C	-0.095176	0.507470	-0.068377
C15	C	-0.094636	0.471221	-0.000140
C16	C	-0.095176	0.507423	0.068111
C17	C	-0.096245	0.579867	0.068118
C18	C	-0.052256	0.361886	0.052148
C19	C	-0.051183	0.289443	0.052138
C20	C	-0.091342	0.247778	-0.000158
C21	C	-0.132566	0.278565	-0.052457
C22	C	-0.133635	0.351010	-0.052450
C23	C	-0.093477	0.392667	-0.000139
C24	C	-0.089655	0.133029	-0.068414
C25	C	-0.088598	0.060580	-0.068420
C26	C	-0.088591	0.060535	0.068070
C27	C	-0.089656	0.132982	0.068074
C28	C	-0.090185	0.169225	-0.000170
C29	C	-0.219424	0.814755	-0.000209
C30	C	-0.296527	0.815884	-0.000245
C31	C	-0.341229	0.753115	-0.000223
C32	C	-0.413676	0.754176	-0.000206
C33	C	-0.441418	0.818009	-0.000196
C34	C	-0.396706	0.880786	-0.000222
C35	C	-0.324261	0.879723	-0.000246
C36	C	-0.549662	0.868182	0.043698
C37	C	-0.622106	0.869242	0.043727
C38	C	-0.664863	0.821289	-0.000124
C39	C	-0.635169	0.772264	-0.043994
C40	C	-0.562724	0.771201	-0.044018
C41	C	-0.519972	0.819168	-0.000170
C42	C	-0.788121	0.759666	-0.000085
C43	C	-0.860569	0.760729	-0.000072
C44	C	-0.843598	0.887341	-0.000081
C45	C	-0.771151	0.886276	-0.000101
C46	C	-0.743418	0.822436	-0.000099
C47	C	0.034591	0.825692	-0.000094
C48	C	0.111694	0.824563	-0.000064
C49	C	-0.086937	0.947232	-0.000167
C50	C	-0.088059	1.024336	-0.000182
N51	N	-0.092409	0.820202	0.178005
N52	N	-0.092419	0.820250	-0.178306
C53	C	-0.045059	0.867586	0.217407
C54	C	-0.045056	0.867590	0.296209
C55	C	-0.092414	0.820216	0.335605
C56	C	-0.139767	0.772823	0.296193
C57	C	-0.139764	0.772816	0.217393
C58	C	-0.155703	0.810917	0.460415
C59	C	-0.155706	0.810930	0.539214
C60	C	-0.092422	0.820235	0.578651
C61	C	-0.029132	0.829543	0.539280
C62	C	-0.029129	0.829535	0.460480
C63	C	-0.092422	0.820219	0.421051
C64	C	-0.045065	0.867626	0.703500
C65	C	-0.045061	0.867625	0.782303
C66	C	-0.139779	0.772862	0.782286
C67	C	-0.139777	0.772859	0.703484
C68	C	-0.092421	0.820245	0.664096
H69	H	-0.094741	0.477996	-0.123949
C70	C	-0.191858	0.720709	0.339530
N71	N	-0.231093	0.681453	0.372172
C72	C	-0.310727	0.682890	-0.000229
N73	N	-0.287751	0.629995	-0.000236
C74	C	-0.654763	0.923167	0.091988
N75	N	-0.679359	0.963785	0.128339
H76	H	-0.896966	0.709613	-0.000060
C77	C	-0.721977	0.955327	-0.000109
N78	N	-0.684938	1.007340	-0.000115
C79	C	-0.462857	0.685123	-0.000174
N80	N	-0.499899	0.633112	-0.000146
H81	H	-0.538550	0.731285	-0.079740
H82	H	-0.207241	0.803355	0.571264
C83	C	-0.225324	0.800680	0.417042
N84	N	-0.277762	0.792970	0.384374
C85	C	-0.090236	0.172797	0.143147
N86	N	-0.090673	0.202786	0.199695
C87	C	-0.176750	0.232737	-0.109984
N88	N	-0.210028	0.198217	-0.153311
C89	C	0.007041	0.919705	0.174085
N90	N	0.046285	0.958960	0.141453
C91	C	0.007028	0.919725	0.339560
N92	N	0.046254	0.958996	0.372210
H93	H	-0.096683	0.609335	0.123691
H94	H	-0.090094	0.162539	-0.123982
H95	H	-0.167202	0.376073	-0.095033
H96	H	-0.669982	0.733212	-0.079696
C97	C	-0.094581	0.467548	0.143172
N98	N	-0.094135	0.437514	0.199711
H99	H	-0.096669	0.609422	-0.123938
C100	C	0.040488	0.839765	0.417175
N101	N	0.092926	0.847465	0.384558
C102	C	-0.757612	0.689442	-0.000094
N103	N	-0.734634	0.636548	-0.000103
C104	C	-0.087998	0.020665	0.143132
N105	N	-0.087553	-0.009368	0.199671
H106	H	-0.866184	0.939315	-0.000127
H107	H	-0.088165	0.031112	-0.123993
C108	C	-0.191916	0.720782	0.660140
N109	N	-0.231205	0.681571	0.627493
C110	C	0.007033	0.919744	0.660170
N111	N	0.046275	0.958999	0.627536
H112	H	-0.017613	0.264382	0.094720
C113	C	0.007042	0.919743	0.825646
N114	N	0.046290	0.958996	0.858292
H115	H	-0.019552	0.395805	0.094738
H116	H	-0.514853	0.907237	0.079405
C117	C	-0.427224	0.951002	-0.000206
N118	N	-0.450209	1.003891	-0.000196
H119	H	0.022400	0.837120	0.571389
C120	C	-0.275087	0.948777	-0.000261
N121	N	-0.238047	1.000789	-0.000269
H122	H	-0.178336	0.734287	0.814362
C123	C	-0.191885	0.720717	0.174049
N124	N	-0.231155	0.681487	0.141401
