data_functionalizedCrystal
_audit_creation_method	'MofGen! by Chris Wilmer'
_symmetry_space_group_name_H-M	'P1'
_symmetry_Int_Tables_number	1
_symmetry_cell_setting	triclinic
loop_
_symmetry_equiv_pos_as_xyz
  x,y,z
_cell_length_a	12.594517
_cell_length_b	12.594516
_cell_length_c	19.805399
_cell_angle_alpha	89.979203
_cell_angle_beta	89.980173
_cell_angle_gamma	90.015485
loop_
_atom_site_label
_atom_site_type_symbol
_atom_site_fract_x
_atom_site_fract_y
_atom_site_fract_z
Zn1	Zn	1.627242	-0.423783	-0.382756
Zn2	Zn	1.627140	-0.601776	-0.269581
Zn3	Zn	1.449253	-0.423810	-0.269580
Zn4	Zn	1.449228	-0.601718	-0.382728
O5	O	1.538216	-0.512772	-0.326161
O6	O	1.776174	-0.447407	-0.367756
O7	O	1.603511	-0.578205	-0.174865
O8	O	1.472917	-0.274861	-0.284605
O9	O	1.776099	-0.578178	-0.284607
O10	O	1.603684	-0.274841	-0.367755
O11	O	1.472818	-0.447454	-0.174864
O12	O	1.300304	-0.447397	-0.284577
O13	O	1.472874	-0.578079	-0.477448
O14	O	1.300286	-0.578105	-0.367706
O15	O	1.603660	-0.447350	-0.477469
O16	O	1.603487	-0.750714	-0.284579
O17	O	1.472775	-0.750672	-0.367707
C18	C	1.261675	-0.512749	-0.326139
C19	C	1.143369	-0.512765	-0.326145
C20	C	1.003332	-0.441595	-0.281035
C21	C	1.074186	-0.415670	-0.342798
C22	C	1.074086	-0.538641	-0.264389
C23	C	1.003438	-0.486832	-0.387990
C24	C	1.003332	-0.609848	-0.309540
C25	C	1.074155	-0.583960	-0.371345
C26	C	1.538146	-0.789313	-0.326155
C27	C	1.538214	-0.907618	-0.326174
C28	C	1.467113	-0.976887	-0.371356
C29	C	1.441183	-1.047743	-0.309594
C30	C	1.564240	-1.047561	-0.387947
C31	C	1.512233	-0.976916	-0.264380
C32	C	1.635334	-0.976728	-0.342775
C33	C	1.609442	-1.047552	-0.280970
C34	C	1.815837	-0.512796	-0.326184
C35	C	1.934142	-0.512806	-0.326194
C36	C	1.538275	-0.512705	-0.502704
C37	C	1.538301	-0.512676	-0.577936
C38	C	1.538315	-0.235151	-0.326183
C39	C	1.538357	-0.116846	-0.326192
C40	C	1.606403	-0.444603	-0.613292
C41	C	1.606414	-0.444572	-0.683981
C42	C	1.538327	-0.512621	-0.719312
C43	C	1.470218	-0.580697	-0.683951
C44	C	1.470203	-0.580722	-0.613263
C45	C	1.470278	-0.580598	-0.969024
C46	C	1.470301	-0.580570	-1.039716
C47	C	1.606489	-0.444448	-1.039741
C48	C	1.606474	-0.444473	-0.969054
C49	C	1.538361	-0.512545	-0.933699
C50	C	1.538348	-0.512576	-0.857051
C51	C	1.538344	-0.512596	-0.795959
C52	C	1.538218	-0.512762	-0.150305
C53	C	1.538398	-0.512491	-0.075074
H54	H	0.972534	-0.464868	-0.440253
H55	H	1.669631	-1.078385	-0.242725
H56	H	1.661946	-0.389017	-1.068536
H57	H	1.661850	-0.389193	-0.584531
H58	H	1.661872	-0.389142	-0.712765
H59	H	1.105054	-0.644165	-0.409558
H60	H	0.972187	-0.691908	-0.295451
H61	H	1.586195	-1.078593	-0.440181
H62	H	1.359117	-1.078959	-0.295568
H63	H	1.717382	-0.945515	-0.356830
H64	H	1.490183	-0.946013	-0.212132
H65	H	1.105123	-0.560509	-0.212141
H66	H	1.661920	-0.389064	-0.940291
H67	H	1.406878	-0.945857	-0.409509
H68	H	1.414777	-0.636100	-0.712723
H69	H	1.105290	-0.333583	-0.356876
H70	H	1.414832	-0.636042	-0.940247
H71	H	1.414852	-0.635986	-1.068481
H72	H	0.972238	-0.381345	-0.242913
H73	H	1.414736	-0.636144	-0.584477
