data_functionalizedCrystal
_audit_creation_method	'MofGen! by Chris Wilmer'
_symmetry_space_group_name_H-M	'P1'
_symmetry_Int_Tables_number	1
_symmetry_cell_setting	triclinic
loop_
_symmetry_equiv_pos_as_xyz
  x,y,z
_cell_length_a	14.044220
_cell_length_b	14.044220
_cell_length_c	12.503552
_cell_angle_alpha	86.157908
_cell_angle_beta	86.160109
_cell_angle_gamma	86.811122
loop_
_atom_site_label
_atom_site_type_symbol
_atom_site_fract_x
_atom_site_fract_y
_atom_site_fract_z
O1	O	-1.282206	0.225122	0.089201
O2	O	-0.948873	0.558455	0.422534
O3	O	-0.615540	0.891788	0.755867
O4	O	-1.005536	0.216814	0.089228
O5	O	-0.672203	0.550148	0.422562
O6	O	-0.338870	0.883481	0.755895
O7	O	-1.139718	0.082632	0.089210
O8	O	-0.806385	0.415966	0.422543
O9	O	-0.473052	0.749299	0.755877
O10	O	-1.148024	0.359303	0.089219
O11	O	-0.814691	0.692637	0.422552
O12	O	-0.481358	1.025970	0.755886
O13	O	-1.129615	0.092732	-0.089431
O14	O	-0.796282	0.426066	0.243902
O15	O	-0.462948	0.759399	0.577236
O16	O	-0.995433	0.226914	-0.089413
O17	O	-0.662100	0.560248	0.243920
O18	O	-0.328767	0.893581	0.577254
O19	O	-1.272103	0.235221	-0.089440
O20	O	-0.938770	0.568555	0.243893
O21	O	-0.605436	0.901888	0.577226
Cu22	Cu	-1.132846	0.231990	-0.105738
Cu23	Cu	-0.799512	0.565323	0.227595
Cu24	Cu	-0.466179	0.898657	0.560929
Cu25	Cu	-1.144794	0.220046	0.105526
Cu26	Cu	-0.811460	0.553379	0.438859
Cu27	Cu	-0.478127	0.886712	0.772193
O28	O	-1.137921	0.369403	-0.089422
O29	O	-0.804588	0.702737	0.243911
O30	O	-0.471255	1.036070	0.577244
C31	C	-0.964863	0.218228	-0.000089
C32	C	-0.631530	0.551562	0.333244
C33	C	-0.298196	0.884895	0.666578
C34	C	-0.858721	0.207383	-0.000078
C35	C	-0.525388	0.540717	0.333255
C36	C	-0.192054	0.874050	0.666588
C37	C	-1.131031	0.052060	-0.000109
C38	C	-0.797698	0.385394	0.333224
C39	C	-0.464364	0.718727	0.666558
C40	C	-1.120187	-0.054083	-0.000105
C41	C	-0.786853	0.279251	0.333229
C42	C	-0.453520	0.612584	0.666562
C43	C	-1.312776	0.233807	-0.000121
C44	C	-0.979443	0.567141	0.333212
C45	C	-0.646110	0.900474	0.666546
C46	C	-1.418919	0.244652	-0.000124
C47	C	-1.085586	0.577985	0.333209
C48	C	-0.752252	0.911319	0.666542
C49	C	-1.146609	0.399975	-0.000101
C50	C	-0.813275	0.733308	0.333233
C51	C	-0.479942	1.066642	0.666566
C52	C	-1.157453	0.506118	-0.000098
C53	C	-0.824120	0.839451	0.333235
C54	C	-0.490787	1.172784	0.666569
C55	C	-0.664382	0.187558	-0.000100
C56	C	-0.331049	0.520892	0.333233
C57	C	0.002285	0.854225	0.666566
C58	C	-0.613252	0.264473	-0.000102
C59	C	-0.279919	0.597806	0.333231
C60	C	0.053415	0.931139	0.666564
C61	C	-0.505115	0.253442	-0.000115
C62	C	-0.171782	0.586775	0.333219
C63	C	0.161552	0.920108	0.666552
C64	C	-0.772529	0.198588	-0.000088
C65	C	-0.439195	0.531921	0.333245
C66	C	-0.105862	0.865254	0.666579
N67	N	-1.124449	0.240391	-0.254330
N68	N	-0.791116	0.573724	0.079004
N69	N	-0.457782	0.907058	0.412337
C70	C	-1.177279	0.700456	-0.000105
C71	C	-0.843946	1.033789	0.333229
C72	C	-0.510612	1.367122	0.666562
C73	C	-1.100365	0.751585	-0.000098
C74	C	-0.767032	1.084919	0.333235
C75	C	-0.433698	1.418252	0.666569
C76	C	-1.111396	0.859722	-0.000102
C77	C	-0.778063	1.193055	0.333232
C78	C	-0.444730	1.526388	0.666565
C79	C	-1.166249	0.592310	-0.000101
C80	C	-0.832916	0.925643	0.333232
C81	C	-0.499583	1.258976	0.666566
C82	C	-1.165544	0.199276	-0.526768
C83	C	-0.832211	0.532610	-0.193435
C84	C	-0.498878	0.865943	0.139898
C85	C	-1.112105	0.252750	-0.473437
C86	C	-0.778772	0.586083	-0.140104
C87	C	-0.445438	0.919416	0.193230
C88	C	-1.118975	0.245872	-0.351514
C89	C	-0.785642	0.579205	-0.018181
C90	C	-0.452308	0.912538	0.315152
C91	C	-1.158675	0.206153	-0.648702
C92	C	-0.825342	0.539487	-0.315369
C93	C	-0.492009	0.872820	0.017965
N94	N	-1.153197	0.211638	0.254117
N95	N	-0.819864	0.544971	0.587451
N96	N	-0.486531	0.878305	0.920784
H97	H	-0.650692	0.338606	-0.000095
H98	H	-0.317358	0.671939	0.333238
H99	H	0.015975	1.005272	0.666572
Br100	Br	-1.027252	0.337664	-0.549951
Br101	Br	-0.693919	0.670997	-0.216618
Br102	Br	-0.360585	1.004331	0.116715
H103	H	-1.026232	0.714146	-0.000091
H104	H	-0.692899	1.047479	0.333242
H105	H	-0.359565	1.380812	0.666575
H106	H	-1.251406	0.737893	-0.000116
H107	H	-0.918073	1.071227	0.333217
H108	H	-0.584739	1.404560	0.666550
Br109	Br	-1.250396	0.114368	-0.450258
Br110	Br	-0.917063	0.447702	-0.116924
Br111	Br	-0.583729	0.781035	0.216409
H112	H	-0.626945	0.113431	-0.000109
H113	H	-0.293611	0.446764	0.333225
H114	H	0.039722	0.780098	0.666558
