data_functionalizedCrystal
_audit_creation_method	'MofGen! by Chris Wilmer'
_symmetry_space_group_name_H-M	'P1'
_symmetry_Int_Tables_number	1
_symmetry_cell_setting	triclinic
loop_
_symmetry_equiv_pos_as_xyz
  x,y,z
_cell_length_a	29.839131
_cell_length_b	19.077252
_cell_length_c	19.076919
_cell_angle_alpha	89.896235
_cell_angle_beta	92.267459
_cell_angle_gamma	92.342233
loop_
_atom_site_label
_atom_site_type_symbol
_atom_site_fract_x
_atom_site_fract_y
_atom_site_fract_z
Zn1	Zn	-0.162980	1.058222	-0.440353
Zn2	Zn	0.170353	1.391555	-0.107019
Zn3	Zn	0.503687	1.724888	0.226314
Zn4	Zn	-0.234976	1.062829	-0.322837
Zn5	Zn	0.098358	1.396162	0.010496
Zn6	Zn	0.431691	1.729495	0.343830
Zn7	Zn	-0.162755	0.945437	-0.318151
Zn8	Zn	0.170578	1.278770	0.015183
Zn9	Zn	0.503912	1.612103	0.348516
Zn10	Zn	-0.240981	0.940645	-0.435594
Zn11	Zn	0.092352	1.273978	-0.102261
Zn12	Zn	0.425686	1.607311	0.231072
O13	O	-0.200423	1.001783	-0.379234
O14	O	0.132910	1.335116	-0.045900
O15	O	0.466244	1.668450	0.287433
O16	O	-0.170111	1.157168	-0.428716
O17	O	0.163222	1.490501	-0.095383
O18	O	0.496555	1.823835	0.237950
O19	O	-0.222788	1.051190	-0.223884
O20	O	0.110545	1.384523	0.109449
O21	O	0.443878	1.717857	0.442782
O22	O	-0.099917	0.960475	-0.334391
O23	O	0.233417	1.293809	-0.001058
O24	O	0.566750	1.627142	0.332275
O25	O	-0.223006	1.160553	-0.342378
O26	O	0.110327	1.493886	-0.009045
O27	O	0.443660	1.827220	0.324288
O28	O	-0.100082	1.043338	-0.424172
O29	O	0.233252	1.376671	-0.090839
O30	O	0.566585	1.710005	0.242494
O31	O	-0.169728	0.964943	-0.220441
O32	O	0.163605	1.298276	0.112892
O33	O	0.496939	1.631609	0.446225
O34	O	-0.175551	0.846466	-0.329777
O35	O	0.157782	1.179799	0.003556
O36	O	0.491116	1.513132	0.336889
O37	O	-0.233241	0.952308	-0.534557
O38	O	0.100092	1.285641	-0.201223
O39	O	0.433425	1.618974	0.132110
O40	O	-0.233023	0.842945	-0.416063
O41	O	0.100310	1.176278	-0.082729
O42	O	0.433643	1.509612	0.250604
O43	O	-0.175934	1.038691	-0.538052
O44	O	0.157399	1.372025	-0.204719
O45	O	0.490732	1.705358	0.128614
O46	O	-0.298641	1.046543	-0.337764
O47	O	0.034693	1.379876	-0.004431
O48	O	0.368026	1.713210	0.328902
O49	O	-0.303053	0.956775	-0.420607
O50	O	0.030281	1.290108	-0.087273
O51	O	0.363614	1.623442	0.246060
C52	C	-0.317148	1.001657	-0.379194
C53	C	0.016186	1.334991	-0.045860
C54	C	0.349519	1.668324	0.287473
C55	C	-0.367082	1.001667	-0.379203
C56	C	-0.033749	1.335000	-0.045869
C57	C	0.299584	1.668334	0.287464
C58	C	-0.204915	0.819208	-0.371896
C59	C	0.128419	1.152541	-0.038562
C60	C	0.461752	1.485875	0.294771
C61	C	-0.206848	0.741101	-0.368773
C62	C	0.126486	1.074434	-0.035440
C63	C	0.459819	1.407768	0.297894
C64	C	-0.205283	0.994451	-0.562514
C65	C	0.128051	1.327784	-0.229180
C66	C	0.461384	1.661118	0.104153
C67	C	-0.207354	0.991327	-0.640617
C68	C	0.125980	1.324660	-0.307283
C69	C	0.459313	1.657993	0.026050
C70	C	-0.674413	1.048604	-0.336167
C71	C	-0.341080	1.381938	-0.002833
C72	C	-0.007746	1.715271	0.330500
C73	C	-0.862085	1.048690	-0.336197
C74	C	-0.528751	1.382023	-0.002864
C75	C	-0.195418	1.715357	0.330469
O76	O	-0.884385	1.088498	-0.299576
O77	O	-0.551052	1.421831	0.033758
O78	O	-0.217719	1.755165	0.367091
N79	N	-0.887863	1.001927	-0.379292
N80	N	-0.554529	1.335260	-0.045959
N81	N	-0.221196	1.668593	0.287374
C82	C	-0.866720	0.955142	-0.422386
C83	C	-0.533387	1.288475	-0.089053
C84	C	-0.200054	1.621808	0.244280
O85	O	-0.892952	0.915373	-0.459047
O86	O	-0.559619	1.248707	-0.125714
O87	O	-0.226286	1.582040	0.207619
C88	C	-0.679050	0.955060	-0.422359
C89	C	-0.345716	1.288393	-0.089025
C90	C	-0.012383	1.621726	0.244308
C91	C	-0.653274	1.001821	-0.379256
C92	C	-0.319940	1.335155	-0.045922
C93	C	0.013393	1.668488	0.287411
C94	C	-0.648637	1.095363	-0.293068
C95	C	-0.315304	1.428696	0.040266
C96	C	0.018029	1.762029	0.373599
C97	C	-0.601722	1.095338	-0.293058
C98	C	-0.268389	1.428671	0.040276
C99	C	0.064944	1.762005	0.373609
C100	C	-0.580583	1.048555	-0.336147
C101	C	-0.247250	1.381889	-0.002813
C102	C	0.086084	1.715222	0.330520
C103	C	-0.606359	1.001797	-0.379246
C104	C	-0.273025	1.335130	-0.045912
C105	C	0.060308	1.668464	0.287421
C106	C	-0.657908	0.908279	-0.465456
C107	C	-0.324575	1.241612	-0.132123
C108	C	0.008759	1.574945	0.201211
C109	C	-0.610987	0.908264	-0.465446
C110	C	-0.277654	1.241597	-0.132113
C111	C	0.055680	1.574930	0.201220
C112	C	-0.585211	0.955025	-0.422343
C113	C	-0.251878	1.288359	-0.089010
C114	C	0.081456	1.621692	0.244323
C115	C	-0.538304	0.954990	-0.422325
C116	C	-0.204971	1.288323	-0.088991
C117	C	0.128363	1.621656	0.244342
N118	N	-0.512526	1.001753	-0.379229
N119	N	-0.179193	1.335086	-0.045896
N120	N	0.154141	1.668420	0.287437
C121	C	-0.533665	1.048536	-0.336140
C122	C	-0.200332	1.381869	-0.002807
C123	C	0.133001	1.715203	0.330526
C124	C	-0.965250	0.955187	-0.422397
C125	C	-0.631917	1.288520	-0.089063
C126	C	-0.298583	1.621853	0.244270
C127	C	-1.012168	0.955206	-0.422403
C128	C	-0.678834	1.288540	-0.089070
C129	C	-0.345501	1.621873	0.244264
C130	C	-1.007529	1.048756	-0.336215
C131	C	-0.674195	1.382089	-0.002881
C132	C	-0.340862	1.715422	0.330452
C133	C	-0.960610	1.048732	-0.336205
C134	C	-0.627277	1.382066	-0.002872
C135	C	-0.293944	1.715399	0.330461
C136	C	-0.939472	1.001950	-0.379302
C137	C	-0.606139	1.335283	-0.045968
C138	C	-0.272805	1.668617	0.287365
C139	C	-0.435141	1.048481	-0.336122
C140	C	-0.101807	1.381814	-0.002789
C141	C	0.231526	1.715147	0.330545
C142	C	-0.388222	1.048450	-0.336114
C143	C	-0.054888	1.381783	-0.002780
C144	C	0.278445	1.715117	0.330553
C145	C	-0.392864	0.954903	-0.422304
C146	C	-0.059531	1.288237	-0.088971
C147	C	0.273802	1.621570	0.244362
C148	C	-0.439779	0.954931	-0.422310
C149	C	-0.106446	1.288264	-0.088977
C150	C	0.226887	1.621598	0.244356
C151	C	-0.460916	1.001725	-0.379217
C152	C	-0.127583	1.335059	-0.045884
C153	C	0.205751	1.668392	0.287450
O154	O	-0.515974	0.915208	-0.458933
O155	O	-0.182640	1.248541	-0.125599
O156	O	0.150693	1.581874	0.207734
O157	O	-0.507426	1.088309	-0.299496
O158	O	-0.174092	1.421642	0.033837
O159	O	0.159241	1.754975	0.367170
C160	C	-0.721328	1.048629	-0.336177
C161	C	-0.387995	1.381962	-0.002843
C162	C	-0.054662	1.715295	0.330490
C163	C	-0.747104	1.001870	-0.379276
C164	C	-0.413771	1.335204	-0.045942
C165	C	-0.080437	1.668537	0.287391
C166	C	-0.725964	0.955088	-0.422365
C167	C	-0.392631	1.288421	-0.089031
C168	C	-0.059298	1.621754	0.244302
C169	C	-0.794021	1.001890	-0.379282
C170	C	-0.460688	1.335223	-0.045949
C171	C	-0.127355	1.668556	0.287385
C172	C	-0.815161	1.048673	-0.336193
C173	C	-0.481827	1.382006	-0.002860
C174	C	-0.148494	1.715339	0.330474
C175	C	-0.789383	1.095436	-0.293098
C176	C	-0.456049	1.428769	0.040236
C177	C	-0.122716	1.762103	0.373569
C178	C	-0.742468	1.095412	-0.293088
C179	C	-0.409134	1.428745	0.040246
C180	C	-0.075801	1.762078	0.373579
C181	C	-0.751743	0.908324	-0.465460
C182	C	-0.418409	1.241658	-0.132127
C183	C	-0.085076	1.574991	0.201207
C184	C	-0.798657	0.908352	-0.465466
C185	C	-0.465324	1.241685	-0.132133
C186	C	-0.131991	1.575019	0.201201
C187	C	-0.819797	0.955135	-0.422377
C188	C	-0.486464	1.288468	-0.089044
C189	C	-0.153130	1.621801	0.244290
C190	C	-0.083242	1.001927	-0.379290
C191	C	0.250091	1.335261	-0.045957
C192	C	0.583424	1.668594	0.287377
C193	C	-0.033307	1.001989	-0.379314
C194	C	0.300026	1.335322	-0.045981
C195	C	0.633360	1.668656	0.287353
C196	C	-0.195914	1.185071	-0.386601
C197	C	0.137419	1.518404	-0.053268
C198	C	0.470753	1.851737	0.280066
C199	C	-0.193992	1.263177	-0.389740
C200	C	0.139341	1.596510	-0.056407
C201	C	0.472674	1.929844	0.276926
C202	C	-0.220629	1.301635	-0.346267
C203	C	0.112705	1.634968	-0.012934
C204	C	0.446038	1.968301	0.320400
C205	C	-0.218819	1.375024	-0.349217
C206	C	0.114514	1.708357	-0.015883
C207	C	0.447847	2.041691	0.317450
C208	C	-0.190376	1.409954	-0.395644
C209	C	0.142957	1.743287	-0.062310
C210	C	0.476291	2.076620	0.271023
C211	C	-0.163737	1.371491	-0.439119
C212	C	0.169597	1.704824	-0.105786
C213	C	0.502930	2.038158	0.227548
C214	C	-0.165544	1.298103	-0.436165
C215	C	0.167790	1.631437	-0.102832
C216	C	0.501123	1.964770	0.230501
C217	C	-0.182016	1.629250	-0.409294
C218	C	0.151318	1.962584	-0.075961
C219	C	0.484651	2.295917	0.257372
C220	C	-0.180211	1.702643	-0.412246
C221	C	0.153122	2.035977	-0.078913
C222	C	0.486455	2.369310	0.254420
C223	C	-0.235294	1.706171	-0.322343
C224	C	0.098039	2.039505	0.010991
C225	C	0.431373	2.372838	0.344324
C226	C	-0.237101	1.632782	-0.319396
C227	C	0.096233	1.966115	0.013937
C228	C	0.429566	2.299449	0.347271
C229	C	-0.210460	1.594326	-0.362869
C230	C	0.122874	1.927659	-0.029535
C231	C	0.456207	2.260992	0.303798
N232	N	-0.188527	1.484969	-0.398661
N233	N	0.144806	1.818303	-0.065328
N234	N	0.478140	2.151636	0.268005
N235	N	-0.212307	1.519312	-0.359847
N236	N	0.121027	1.852645	-0.026514
N237	N	0.454360	2.185978	0.306820
C238	C	-0.178491	1.034832	-0.679131
C239	C	0.154842	1.368165	-0.345797
C240	C	0.488175	1.701498	-0.012464
C241	C	-0.180436	1.031887	-0.752516
C242	C	0.152898	1.365221	-0.419183
C243	C	0.486231	1.698554	-0.085850
C244	C	-0.211245	0.985441	-0.787387
C245	C	0.122088	1.318775	-0.454053
C246	C	0.455422	1.652108	-0.120720
C247	C	-0.240109	0.941931	-0.748867
C248	C	0.093225	1.275265	-0.415534
C249	C	0.426558	1.608598	-0.082201
C250	C	-0.238162	0.944873	-0.675483
C251	C	0.095172	1.278206	-0.342149
C252	C	0.428505	1.611539	-0.008816
C253	C	-0.220265	0.971819	-1.006667
C254	C	0.113069	1.305152	-0.673334
C255	C	0.446402	1.638485	-0.340001
C256	C	-0.222210	0.968882	-1.080057
C257	C	0.111123	1.302216	-0.746724
C258	C	0.444456	1.635549	-0.413391
C259	C	-0.162537	1.058838	-1.083701
C260	C	0.170797	1.392171	-0.750368
C261	C	0.504130	1.725504	-0.417035
C262	C	-0.160594	1.061778	-1.010315
C263	C	0.172739	1.395111	-0.676982
C264	C	0.506072	1.728445	-0.343649
C265	C	-0.189456	1.018266	-0.971802
C266	C	0.143877	1.351599	-0.638469
C267	C	0.477210	1.684932	-0.305135
N268	N	-0.213234	0.982432	-0.862399
N269	N	0.120099	1.315765	-0.529065
N270	N	0.453433	1.649099	-0.195732
N271	N	-0.187465	1.021272	-0.896791
N272	N	0.145869	1.354605	-0.563458
N273	N	0.479202	1.687938	-0.230125
C274	C	-0.195549	1.009127	-0.196668
C275	C	0.137785	1.342460	0.136665
C276	C	0.471118	1.675793	0.469998
C277	C	-0.193348	1.012387	-0.118571
C278	C	0.139985	1.345721	0.214762
C279	C	0.473319	1.679054	0.548095
H280	H	-0.367236	1.086529	-0.301012
H281	H	-0.033903	1.419862	0.032322
H282	H	0.299431	1.753195	0.365655
H283	H	-0.580738	1.133417	-0.257961
H284	H	-0.247405	1.466751	0.075372
H285	H	0.085928	1.800084	0.408705
C286	C	-0.152713	1.586958	-0.457121
C287	C	0.180621	1.920291	-0.123788
C288	C	0.513954	2.253624	0.209546
N289	N	-0.130641	1.555100	-0.493148
N290	N	0.202692	1.888433	-0.159815
N291	N	0.536025	2.221767	0.173519
H292	H	-0.139038	1.094262	-1.115066
H293	H	0.194295	1.427595	-0.781733
H294	H	0.527629	1.760929	-0.448400
C295	C	-0.671883	1.146828	-0.245658
C296	C	-0.338550	1.480162	0.087675
C297	C	-0.005216	1.813495	0.421009
N298	N	-0.689388	1.185591	-0.209941
N299	N	-0.356055	1.518925	0.123392
N300	N	-0.022722	1.852258	0.456726
H301	H	-0.143852	1.266792	-0.471564
H302	H	0.189481	1.600125	-0.138230
H303	H	0.522815	1.933458	0.195103
C304	C	-0.264592	1.748480	-0.274519
C305	C	0.068741	2.081813	0.058815
C306	C	0.402075	2.415146	0.392148
N307	N	-0.286658	1.780347	-0.238492
N308	N	0.046675	2.113680	0.094841
N309	N	0.380008	2.447013	0.428174
C310	C	-0.248122	1.417324	-0.301392
C311	C	0.085211	1.750658	0.031941
C312	C	0.418545	2.083991	0.365274
N313	N	-0.270194	1.449185	-0.265368
N314	N	0.063140	1.782518	0.067965
N315	N	0.396473	2.115851	0.401298
C316	C	-0.269913	0.897015	-0.633118
C317	C	0.063420	1.230348	-0.299784
C318	C	0.396753	1.563681	0.033549
N319	N	-0.293829	0.860965	-0.601209
N320	N	0.039504	1.194299	-0.267876
N321	N	0.372837	1.527632	0.065458
C322	C	-0.458384	1.099953	-0.288713
C323	C	-0.125051	1.433286	0.044620
C324	C	0.208283	1.766619	0.377954
N325	N	-0.475891	1.138718	-0.253000
N326	N	-0.142557	1.472051	0.080333
N327	N	0.190776	1.805384	0.413666
H328	H	-0.260262	1.604347	-0.281589
H329	H	0.073072	1.937681	0.051744
H330	H	0.406405	2.271014	0.385077
H331	H	-0.593779	0.870169	-0.500543
H332	H	-0.260445	1.203502	-0.167210
H333	H	0.072888	1.536835	0.166124
C334	C	-0.932261	1.100175	-0.288791
C335	C	-0.598928	1.433509	0.044542
C336	C	-0.265595	1.766842	0.377875
N337	N	-0.910911	1.138925	-0.253078
N338	N	-0.577577	1.472259	0.080255
N339	N	-0.244244	1.805592	0.413589
H340	H	-0.140575	1.399937	-0.476918
H341	H	0.192758	1.733270	-0.143585
H342	H	0.526091	2.066603	0.189749
H343	H	-0.157046	1.731081	-0.450052
H344	H	0.176287	2.064414	-0.116719
H345	H	0.509621	2.397748	0.216615
C346	C	-0.812645	1.146897	-0.245699
C347	C	-0.479312	1.480230	0.087634
C348	C	-0.145978	1.813563	0.420968
N349	N	-0.830169	1.185657	-0.210003
N350	N	-0.496835	1.518990	0.123331
N351	N	-0.163502	1.852323	0.456664
H352	H	-1.033150	0.917122	-0.457495
H353	H	-0.699817	1.250455	-0.124162
H354	H	-0.366484	1.583789	0.209172
H355	H	-0.243793	1.273200	-0.308464
H356	H	0.089540	1.606533	0.024869
H357	H	0.422874	1.939867	0.358202
H358	H	-1.024748	1.086848	-0.301130
H359	H	-0.691415	1.420182	0.032203
H360	H	-0.358082	1.753515	0.365537
C361	C	-0.468134	0.903489	-0.469723
C362	C	-0.134800	1.236822	-0.136390
C363	C	0.198533	1.570155	0.196944
N364	N	-0.489487	0.864747	-0.505441
N365	N	-0.156154	1.198080	-0.172108
N366	N	0.177180	1.531413	0.161226
H367	H	-0.153404	1.072656	-0.650745
H368	H	0.179929	1.405989	-0.317411
H369	H	0.513262	1.739322	0.015922
H370	H	-0.247300	0.931058	-1.108446
H371	H	0.086033	1.264391	-0.775113
H372	H	0.419367	1.597725	-0.441780
C373	C	-0.942004	0.903737	-0.469829
C374	C	-0.608671	1.237070	-0.136495
C375	C	-0.275337	1.570404	0.196838
N376	N	-0.924497	0.864990	-0.505560
N377	N	-0.591164	1.198323	-0.172227
N378	N	-0.257831	1.531656	0.161106
C379	C	-0.252013	0.923951	-0.964312
C380	C	0.081320	1.257285	-0.630979
C381	C	0.414654	1.590618	-0.297646
N382	N	-0.275926	0.887894	-0.932408
N383	N	0.057407	1.221227	-0.599075
N384	N	0.390740	1.554560	-0.265741
C385	C	-0.148685	1.079748	-0.794879
C386	C	0.184648	1.413081	-0.461545
C387	C	0.517982	1.746415	-0.128212
N388	N	-0.124769	1.115799	-0.826786
N389	N	0.208564	1.449132	-0.493452
N390	N	0.541898	1.782465	-0.160119
C391	C	-0.686251	0.856838	-0.512876
C392	C	-0.352918	1.190172	-0.179542
C393	C	-0.019584	1.523505	0.153791
N394	N	-0.707599	0.818091	-0.548597
N395	N	-0.374265	1.151425	-0.215263
N396	N	-0.040932	1.484758	0.118070
C397	C	-0.369602	0.903447	-0.469703
C398	C	-0.036269	1.236781	-0.136369
C399	C	0.297065	1.570114	0.196964
N400	N	-0.352079	0.864694	-0.505408
N401	N	-0.018746	1.198028	-0.172075
N402	N	0.314587	1.531361	0.161258
H403	H	-0.135507	1.099601	-0.981929
H404	H	0.197826	1.432935	-0.648596
H405	H	0.531159	1.766268	-0.315262
H406	H	-0.265193	0.904111	-0.777264
H407	H	0.068141	1.237445	-0.443931
H408	H	0.401474	1.570778	-0.110598
H409	H	-0.721484	1.133489	-0.257989
H410	H	-0.388151	1.466823	0.075344
H411	H	-0.054817	1.800156	0.408677
H412	H	-0.734535	0.870229	-0.500549
H413	H	-0.401201	1.203562	-0.167216
H414	H	-0.067868	1.536895	0.166118
C415	C	-0.827006	0.856906	-0.512885
C416	C	-0.493673	1.190239	-0.179552
C417	C	-0.160339	1.523572	0.153782
N418	N	-0.848356	0.818161	-0.548605
N419	N	-0.515023	1.151495	-0.215272
N420	N	-0.181690	1.484828	0.118062
