data_functionalizedCrystal
_audit_creation_method	'MofGen! by Chris Wilmer'
_symmetry_space_group_name_H-M	'P1'
_symmetry_Int_Tables_number	1
_symmetry_cell_setting	triclinic
loop_
_symmetry_equiv_pos_as_xyz
  x,y,z
_cell_length_a	10.723022
_cell_length_b	12.811415
_cell_length_c	9.798715
_cell_angle_alpha	84.565994
_cell_angle_beta	89.996609
_cell_angle_gamma	84.254359
loop_
_atom_site_label
_atom_site_type_symbol
_atom_site_fract_x
_atom_site_fract_y
_atom_site_fract_z
O1	O	1.656455	0.147208	-0.131698
O2	O	1.293232	0.161301	-0.133447
O3	O	1.483981	0.001528	-0.113665
O4	O	1.465706	0.306981	-0.151481
O5	O	1.483967	0.001528	0.113318
O6	O	1.293218	0.161301	0.093535
O7	O	1.656441	0.147207	0.095284
Zn8	Zn	1.474827	0.154254	0.130448
Zn9	Zn	1.474846	0.154255	-0.168611
O10	O	1.465692	0.306981	0.075501
C11	C	1.246731	0.160276	-0.019830
C12	C	1.108191	0.157208	-0.019452
C13	C	0.889583	0.243436	-0.030130
C14	C	1.032771	0.246609	-0.030520
C15	C	1.482950	-0.037584	0.004666
C16	C	1.479883	-0.154124	0.019085
C17	C	1.474112	-0.373103	-0.201304
C18	C	1.471231	-0.482603	-0.187762
C19	C	1.471228	-0.482624	0.059709
C20	C	1.474110	-0.373125	0.046167
C21	C	1.475554	-0.318368	-0.084344
C22	C	1.478445	-0.208867	-0.097884
C23	C	1.478433	-0.208890	0.149586
C24	C	1.475552	-0.318389	0.163128
C25	C	1.702942	0.148233	-0.018337
C26	C	1.841482	0.151300	-0.018724
C27	C	1.466723	0.346092	-0.042832
C28	C	1.469790	0.462632	-0.057260
N29	N	1.474823	0.154253	0.334548
N30	N	1.474859	0.154247	-0.372710
C31	C	1.554915	0.086873	0.410667
C32	C	1.554935	0.086869	0.567830
H33	H	0.906305	0.074768	-0.009256
H34	H	1.470042	-0.527225	0.165964
H35	H	1.623466	0.029185	0.359487
C36	C	0.677175	0.323616	-0.040050
C37	C	0.802086	0.346759	-0.042917
H38	H	0.623163	0.387407	-0.047936
H39	H	0.661825	0.283887	-0.114283
H40	H	0.661822	0.283873	0.044027
H41	H	0.817441	0.386495	-0.126999
H42	H	0.817442	0.386505	0.031322
H43	H	1.623510	0.029186	0.633258
H44	H	1.475299	-0.328521	-0.307571
H45	H	1.406290	0.211941	0.561870
C46	C	1.363187	-0.505267	-0.395868
C47	C	1.469636	-0.542773	-0.316324
H48	H	1.362204	-0.542411	-0.475242
H49	H	1.290051	-0.515737	-0.343720
H50	H	1.365127	-0.432217	-0.422606
H51	H	1.467691	-0.615822	-0.289578
H52	H	1.542791	-0.532311	-0.368482
C53	C	1.367524	-0.341104	0.376874
C54	C	1.473967	-0.378588	0.306577
H55	H	1.366548	-0.378273	0.465432
H56	H	1.369459	-0.268067	0.385551
H57	H	1.294376	-0.351568	0.327322
H58	H	1.547116	-0.368116	0.356125
H59	H	1.472044	-0.451642	0.297907
H60	H	1.406264	0.211933	0.385730
H61	H	1.479612	-0.164313	0.244824
H62	H	1.074190	0.325494	-0.040278
H63	H	1.479624	-0.164286	-0.204152
C64	C	0.978324	0.043293	-0.122040
C65	C	1.052301	0.050703	-0.006272
H66	H	0.943822	-0.022462	-0.113905
H67	H	0.912451	0.098962	-0.128920
H68	H	1.028539	0.048338	-0.201808
H69	H	1.002084	0.045665	0.073495
H70	H	1.118183	-0.004981	0.000622
