data_functionalizedCrystal
_audit_creation_method	'MofGen! by Chris Wilmer'
_symmetry_space_group_name_H-M	'P1'
_symmetry_Int_Tables_number	1
_symmetry_cell_setting	triclinic
loop_
_symmetry_equiv_pos_as_xyz
  x,y,z
_cell_length_a	10.723024
_cell_length_b	14.519731
_cell_length_c	9.198806
_cell_angle_alpha	90.004419
_cell_angle_beta	90.003396
_cell_angle_gamma	84.078361
loop_
_atom_site_label
_atom_site_type_symbol
_atom_site_fract_x
_atom_site_fract_y
_atom_site_fract_z
O1	O	1.655991	0.129347	0.120887
O2	O	2.155991	0.629347	0.620887
O3	O	1.292724	0.141728	0.120892
O4	O	1.792724	0.641728	0.620892
O5	O	1.483975	0.001349	0.120876
O6	O	1.983975	0.501349	0.620876
O7	O	1.464740	0.269725	0.120903
O8	O	1.964740	0.769725	0.620903
O9	O	1.483961	0.001348	-0.120909
O10	O	1.983961	0.501348	0.379091
O11	O	1.292710	0.141726	-0.120893
O12	O	1.792710	0.641726	0.379107
O13	O	1.655977	0.129345	-0.120898
O14	O	2.155977	0.629345	0.379102
Cu15	Cu	1.474342	0.135536	-0.142973
Cu16	Cu	1.974342	0.635536	0.357027
Cu17	Cu	1.474359	0.135537	0.142966
Cu18	Cu	1.974359	0.635537	0.642966
O19	O	1.464726	0.269724	-0.120882
O20	O	1.964726	0.769724	0.379118
C21	C	1.483067	-0.033016	-0.000017
C22	C	1.983067	0.466984	0.499983
C23	C	1.480366	-0.135410	-0.000018
C24	C	1.980366	0.364590	0.499982
C25	C	1.246226	0.140826	-0.000000
C26	C	1.746226	0.640826	0.500000
C27	C	1.107697	0.138130	0.000002
C28	C	1.607697	0.638130	0.500002
C29	C	0.916714	0.054394	-0.000004
C30	C	1.416714	0.554394	0.499996
C31	C	1.059891	0.057179	-0.000006
C32	C	1.559891	0.557179	0.499994
C33	C	1.478172	-0.218565	-0.000014
C34	C	1.978172	0.281435	0.499986
C35	C	1.475429	-0.322888	-0.000003
C36	C	1.975429	0.177112	0.499997
C37	C	1.473253	-0.406038	0.000006
C38	C	1.973253	0.093962	0.500006
C39	C	1.470511	-0.510367	0.000015
C40	C	1.970511	-0.010367	0.500015
C41	C	1.702475	0.130247	-0.000003
C42	C	2.202475	0.630247	0.499997
C43	C	1.841005	0.132943	0.000005
C44	C	2.341005	0.632943	0.500005
C45	C	1.465634	0.304089	0.000014
C46	C	1.965634	0.804089	0.500014
C47	C	1.468335	0.406483	0.000024
C48	C	1.968335	0.906483	0.500024
N49	N	1.474340	0.135534	-0.344087
N50	N	1.974340	0.635534	0.155913
C51	C	1.554838	0.076466	-0.583694
C52	C	2.054838	0.576466	-0.083694
C53	C	1.554822	0.076467	-0.416282
C54	C	2.054822	0.576467	0.083718
N55	N	1.474371	0.135531	0.344080
N56	N	1.974371	0.635531	0.844080
H57	H	0.875532	-0.014915	-0.000033
H58	H	1.375532	0.485085	0.499967
F59	F	1.384313	0.201636	-0.574752
F60	F	1.884313	0.701636	-0.074752
H61	H	1.042649	0.205378	0.000015
H62	H	1.542649	0.705378	0.500015
H63	H	1.124946	-0.010065	-0.000004
H64	H	1.624946	0.489935	0.499996
F65	F	0.894824	0.223538	0.000002
F66	F	1.394824	0.723538	0.500002
F67	F	1.644865	0.010363	-0.335102
F68	F	2.144865	0.510363	0.164898
F69	F	1.644910	0.010369	-0.664859
F70	F	2.144910	0.510369	-0.164859
H71	H	1.405440	0.186102	-0.406188
H72	H	1.905440	0.686102	0.093812
