data_functionalizedCrystal
_audit_creation_method	'MofGen! by Chris Wilmer'
_symmetry_space_group_name_H-M	'P1'
_symmetry_Int_Tables_number	1
_symmetry_cell_setting	triclinic
loop_
_symmetry_equiv_pos_as_xyz
  x,y,z
_cell_length_a	19.188925
_cell_length_b	19.188930
_cell_length_c	7.088668
_cell_angle_alpha	96.991245
_cell_angle_beta	96.989027
_cell_angle_gamma	83.143665
loop_
_atom_site_label
_atom_site_type_symbol
_atom_site_fract_x
_atom_site_fract_y
_atom_site_fract_z
O1	O	0.932530	0.093530	0.159060
O2	O	1.265863	0.426863	0.492393
O3	O	1.599196	0.760196	0.825726
O4	O	0.729218	0.105268	0.159057
O5	O	1.062551	0.438601	0.492391
O6	O	1.395885	0.771934	0.825724
O7	O	0.836739	-0.002259	0.159021
O8	O	1.170073	0.331075	0.492355
O9	O	1.503406	0.664408	0.825688
O10	O	0.825008	0.201056	0.159096
O11	O	1.158342	0.534389	0.492429
O12	O	1.491675	0.867723	0.825763
O13	O	0.823970	-0.015017	-0.158973
O14	O	1.157303	0.318316	0.174360
O15	O	1.490637	0.651650	0.507693
O16	O	0.716448	0.092509	-0.158937
O17	O	1.049782	0.425843	0.174396
O18	O	1.383115	0.759176	0.507729
O19	O	0.919760	0.080771	-0.158935
O20	O	1.253094	0.414104	0.174398
O21	O	1.586427	0.747438	0.507732
Cu22	Cu	0.816938	0.085475	-0.187972
Cu23	Cu	1.150272	0.418809	0.145362
Cu24	Cu	1.483605	0.752142	0.478695
Cu25	Cu	0.832040	0.100564	0.188094
Cu26	Cu	1.165373	0.433897	0.521427
Cu27	Cu	1.498706	0.767230	0.854761
O28	O	0.812239	0.188297	-0.158899
O29	O	1.145572	0.521631	0.174435
O30	O	1.478905	0.854964	0.507768
C31	C	0.696822	0.098509	0.000059
C32	C	1.030155	0.431842	0.333393
C33	C	1.363489	0.765176	0.666726
C34	C	0.619317	0.097370	0.000057
C35	C	0.952651	0.430703	0.333390
C36	C	1.285984	0.764036	0.666723
C37	C	0.057548	0.152835	0.000082
C38	C	0.390881	0.486168	0.333415
C39	C	0.724215	0.819501	0.666748
C40	C	0.130372	0.153912	0.000092
C41	C	0.463705	0.487245	0.333426
C42	C	0.797038	0.820578	0.666759
C43	C	0.175305	0.090818	0.000066
C44	C	0.508638	0.424152	0.333399
C45	C	0.841972	0.757485	0.666732
C46	C	0.147411	0.026645	0.000077
C47	C	0.480745	0.359979	0.333411
C48	C	0.814078	0.693312	0.666744
C49	C	0.074590	0.025571	0.000086
C50	C	0.407923	0.358904	0.333419
C51	C	0.741256	0.692238	0.666753
N52	N	0.291635	0.040798	-0.108199
N53	N	0.624968	0.374132	0.225135
N54	N	0.958301	0.707465	0.558468
N55	N	0.360812	0.041823	-0.108211
N56	N	0.694145	0.375157	0.225123
N57	N	1.027478	0.708490	0.558456
C58	C	0.394713	0.094052	0.000044
C59	C	0.728047	0.427385	0.333378
C60	C	1.061380	0.760718	0.666711
N61	N	0.356823	0.145226	0.108288
N62	N	0.690156	0.478560	0.441621
N63	N	1.023489	0.811893	0.774955
N64	N	0.287639	0.144203	0.108292
N65	N	0.620972	0.477536	0.441625
N66	N	0.954306	0.810870	0.774958
C67	C	0.254269	0.091976	0.000058
C68	C	0.587602	0.425310	0.333391
C69	C	0.920936	0.758643	0.666724
C70	C	0.501563	0.159389	0.000058
C71	C	0.834896	0.492722	0.333391
C72	C	1.168230	0.826055	0.666724
C73	C	0.574389	0.160463	0.000080
C74	C	0.907722	0.493797	0.333413
C75	C	1.241055	0.827130	0.666747
C76	C	0.591427	0.033195	0.000046
C77	C	0.924760	0.366528	0.333379
C78	C	1.258093	0.699861	0.666713
C79	C	0.518603	0.032123	0.000043
C80	C	0.851936	0.365456	0.333376
C81	C	1.185269	0.698789	0.666709
C82	C	0.473675	0.095221	0.000039
C83	C	0.807008	0.428554	0.333373
C84	C	1.140341	0.761888	0.666706
C85	C	0.829975	-0.034649	0.000018
C86	C	1.163308	0.298684	0.333352
C87	C	1.496641	0.632018	0.666685
C88	C	0.828833	-0.112154	0.000002
C89	C	1.162167	0.221179	0.333335
C90	C	1.495500	0.554512	0.666669
C91	C	0.891924	-0.157080	-0.000006
C92	C	1.225257	0.176254	0.333327
C93	C	1.558591	0.509587	0.666660
C94	C	0.890853	-0.229902	0.000024
C95	C	1.224187	0.103431	0.333358
C96	C	1.557520	0.436764	0.666691
C97	C	0.826687	-0.257798	0.000025
C98	C	1.160021	0.075536	0.333358
C99	C	1.493354	0.408869	0.666692
C100	C	0.763589	-0.212862	0.000044
C101	C	1.096922	0.120472	0.333377
C102	C	1.430255	0.453805	0.666711
C103	C	0.764662	-0.140040	0.000033
C104	C	1.097995	0.193293	0.333366
C105	C	1.431328	0.526627	0.666699
N106	N	0.773294	-0.370144	-0.108195
N107	N	1.106627	-0.036810	0.225138
N108	N	1.439961	0.296523	0.558471
N109	N	0.772279	-0.439322	-0.108189
N110	N	1.105612	-0.105989	0.225145
N111	N	1.438946	0.227345	0.558478
C112	C	0.823451	-0.477205	0.000063
C113	C	1.156784	-0.143871	0.333397
C114	C	1.490117	0.189462	0.666730
N115	N	0.875686	-0.443298	0.108285
N116	N	1.209019	-0.109965	0.441618
N117	N	1.542352	0.223369	0.774951
N118	N	0.876702	-0.374114	0.108269
N119	N	1.210036	-0.040781	0.441603
N120	N	1.543369	0.292553	0.774936
C121	C	0.825517	-0.336760	0.000038
C122	C	1.158850	-0.003426	0.333372
C123	C	1.492183	0.329907	0.666705
C124	C	0.885385	-0.601093	0.000091
C125	C	1.218718	-0.267760	0.333424
C126	C	1.552052	0.065574	0.666758
C127	C	0.884312	-0.673916	0.000133
C128	C	1.217646	-0.340583	0.333467
C129	C	1.550979	-0.007250	0.666800
C130	C	0.757045	-0.656875	0.000134
C131	C	1.090378	-0.323542	0.333467
C132	C	1.423712	0.009792	0.666801
C133	C	0.758120	-0.584053	0.000111
C134	C	1.091454	-0.250719	0.333444
C135	C	1.424787	0.082614	0.666777
C136	C	0.822292	-0.556167	0.000080
C137	C	1.155625	-0.222833	0.333414
C138	C	1.488958	0.110500	0.666747
C139	C	0.952156	0.087530	0.000067
C140	C	1.285490	0.420863	0.333401
C141	C	1.618823	0.754197	0.666734
C142	C	1.029662	0.088670	0.000083
C143	C	1.362995	0.422003	0.333416
C144	C	1.696328	0.755336	0.666749
C145	C	0.819004	0.220688	0.000108
C146	C	1.152337	0.554021	0.333442
C147	C	1.485671	0.887355	0.666775
C148	C	0.820146	0.298194	0.000137
C149	C	1.153479	0.631527	0.333471
C150	C	1.486812	0.964860	0.666804
N151	N	0.806322	0.074862	-0.452476
N152	N	1.139655	0.408196	-0.119142
N153	N	1.472989	0.741529	0.214191
N154	N	0.842662	0.111171	0.452598
N155	N	1.175995	0.444504	0.785932
N156	N	1.509328	0.777837	1.119265
H157	H	0.020972	0.204215	0.000088
H158	H	0.354305	0.537548	0.333421
H159	H	0.687638	0.870882	0.666755
H160	H	0.935691	-0.710494	0.000137
H161	H	1.269024	-0.377161	0.333470
H162	H	1.602358	-0.043828	0.666804
H163	H	0.184001	-0.024725	0.000061
H164	H	0.517334	0.308608	0.333395
H165	H	0.850668	0.641942	0.666728
C166	C	0.755466	0.024034	-0.562854
C167	C	1.088799	0.357367	-0.229521
C168	C	1.422132	0.690701	0.103813
N169	N	0.717158	-0.014250	-0.646003
N170	N	1.050492	0.319083	-0.312670
N171	N	1.383825	0.652417	0.020663
C172	C	0.693005	-0.243549	0.000031
C173	C	1.026338	0.089785	0.333364
C174	C	1.359672	0.423118	0.666697
N175	N	0.639839	-0.266662	0.000022
N176	N	0.973173	0.066672	0.333355
N177	N	1.306506	0.400005	0.666688
C178	C	0.893522	0.162000	-0.437015
C179	C	1.226856	0.495334	-0.103682
C180	C	1.560189	0.828667	0.229651
N181	N	0.931830	0.200285	-0.353871
N182	N	1.265163	0.533618	-0.020537
N183	N	1.598497	0.866951	0.312796
C184	C	0.686461	-0.687555	0.000141
C185	C	1.019795	-0.354222	0.333475
C186	C	1.353128	-0.020888	0.666808
N187	N	0.633296	-0.710667	0.000152
N188	N	0.966629	-0.377333	0.333485
N189	N	1.299963	-0.044000	0.666818
H190	H	0.713284	-0.103461	0.000039
H191	H	1.046617	0.229872	0.333372
H192	H	1.379951	0.563206	0.666705
C193	C	0.043914	-0.045019	0.000063
C194	C	0.377247	0.288314	0.333397
C195	C	0.710580	0.621647	0.666730
N196	N	0.020807	-0.098190	0.000036
N197	N	0.354140	0.235144	0.333369
N198	N	0.687474	0.568477	0.666703
C199	C	0.452141	0.228799	0.000090
C200	C	0.785474	0.562132	0.333423
C201	C	1.118808	0.895466	0.666756
N202	N	0.414918	0.281080	0.000122
N203	N	0.748252	0.614413	0.333455
N204	N	1.081585	0.947747	0.666788
C205	C	0.161053	0.224500	0.000078
C206	C	0.494387	0.557834	0.333412
C207	C	0.827720	0.891167	0.666745
N208	N	0.184160	0.277668	0.000062
N209	N	0.517494	0.611001	0.333395
N210	N	0.850827	0.944334	0.666729
H211	H	0.628011	-0.018176	0.000039
H212	H	0.961345	0.315157	0.333373
H213	H	1.294678	0.648490	0.666706
C214	C	0.487925	-0.038467	0.000003
C215	C	0.821259	0.294867	0.333337
C216	C	1.154592	0.628200	0.666670
N217	N	0.464820	-0.091638	-0.000030
N218	N	0.798153	0.241696	0.333304
N219	N	1.131486	0.575029	0.666637
H220	H	0.944178	-0.134380	-0.000025
H221	H	1.277511	0.198953	0.333309
H222	H	1.610844	0.532287	0.666642
H223	H	0.942231	-0.266487	0.000025
H224	H	1.275565	0.066846	0.333358
H225	H	1.608898	0.400179	0.666692
H226	H	0.597092	0.212717	0.000095
H227	H	0.930425	0.546050	0.333428
H228	H	1.263759	0.879383	0.666762
H229	H	0.937638	-0.578387	0.000075
H230	H	1.270971	-0.245054	0.333408
H231	H	1.604304	0.088280	0.666742
H232	H	0.706744	-0.547473	0.000107
H233	H	1.040078	-0.214140	0.333440
H234	H	1.373411	0.119193	0.666774
