data_functionalizedCrystal
_audit_creation_method	'MofGen! by Chris Wilmer'
_symmetry_space_group_name_H-M	'P1'
_symmetry_Int_Tables_number	1
_symmetry_cell_setting	triclinic
loop_
_symmetry_equiv_pos_as_xyz
  x,y,z
_cell_length_a	6.817900
_cell_length_b	9.582860
_cell_length_c	19.453114
_cell_angle_alpha	93.805819
_cell_angle_beta	101.709288
_cell_angle_gamma	111.206767
loop_
_atom_site_label
_atom_site_type_symbol
_atom_site_fract_x
_atom_site_fract_y
_atom_site_fract_z
V1	V	-4.047101	-0.208613	-0.218869
O2	O	-3.993116	0.008421	-0.214835
O3	O	-4.038018	-0.412102	-0.217245
O4	O	-3.989532	-0.206107	-0.314384
O5	O	-4.041937	-0.198999	-0.117024
V6	V	-4.526822	-0.182570	-0.206703
O7	O	-4.316698	-0.265740	-0.245556
O8	O	-4.707422	-0.125443	-0.180016
O9	O	-4.312698	0.020919	-0.208328
O10	O	-4.698204	-0.399604	-0.210737
O11	O	-4.649382	-0.192183	-0.308548
O12	O	-4.361185	-0.185075	-0.111189
C13	C	-3.892880	-0.461686	-0.213759
C14	C	-3.966679	-0.628046	-0.213068
C15	C	-3.831030	-0.198918	-0.337669
C16	C	-3.865505	-0.198216	-0.415752
C17	C	-4.064934	-0.205398	-0.456004
C18	C	-4.097327	-0.204738	-0.529371
C19	C	-3.930294	-0.196927	-0.562485
C20	C	-3.730832	-0.189736	-0.522222
C21	C	-3.698437	-0.190380	-0.448856
N22	N	-3.885821	-0.275959	-0.681225
N23	N	-3.916608	-0.275350	-0.750921
C24	C	-4.027884	-0.194982	-0.783535
N25	N	-4.107249	-0.115265	-0.743821
N26	N	-4.076468	-0.115880	-0.674120
C27	C	-3.965399	-0.196227	-0.642039
C28	C	-4.262450	-0.201447	-0.903340
C29	C	-4.294831	-0.200778	-0.976708
C30	C	-3.928337	-0.185790	-0.969559
C31	C	-3.895954	-0.186444	-0.896192
C32	C	-4.063021	-0.194280	-0.863087
C33	C	-4.121180	0.070496	-0.211811
C34	C	-4.026619	0.236854	-0.212507
C35	C	-4.183030	-0.192270	-0.087900
C36	C	-4.127792	-0.192964	-0.009817
H37	H	-4.259736	-0.210595	-0.562152
O38	O	-4.227281	-0.213266	-0.423837
C39	C	-4.281937	-0.344346	-0.391042
H40	H	-4.231358	-0.430951	-0.417721
H41	H	-4.464605	-0.394718	-0.396546
H42	H	-4.194049	-0.313364	-0.332342
O43	O	-3.504654	-0.183199	-0.409694
C44	C	-3.412479	-0.052897	-0.357567
H45	H	-3.482466	0.034155	-0.375096
H46	H	-3.229069	-0.002600	-0.350382
H47	H	-3.451365	-0.084879	-0.305072
H48	H	-3.733566	-0.180612	-0.863418
O49	O	-3.568642	-0.181953	-0.554452
C50	C	-3.513922	-0.050837	-0.587219
H51	H	-3.657050	-0.013817	-0.598164
H52	H	-3.473201	-0.076514	-0.639423
H53	H	-3.367272	0.043843	-0.550568
H54	H	-4.398483	-0.207822	-0.876385
H55	H	-4.457229	-0.206615	-1.009480
H56	H	-3.792328	-0.179417	-0.996518
