data_functionalizedCrystal
_audit_creation_method	'MofGen! by Chris Wilmer'
_symmetry_space_group_name_H-M	'P1'
_symmetry_Int_Tables_number	1
_symmetry_cell_setting	triclinic
loop_
_symmetry_equiv_pos_as_xyz
  x,y,z
_cell_length_a	15.944551
_cell_length_b	17.699083
_cell_length_c	16.776229
_cell_angle_alpha	89.994534
_cell_angle_beta	89.992397
_cell_angle_gamma	83.390876
loop_
_atom_site_label
_atom_site_type_symbol
_atom_site_fract_x
_atom_site_fract_y
_atom_site_fract_z
O1	O	0.106222	1.004260	-0.066259
O2	O	0.606222	1.504260	0.433741
O3	O	0.120042	0.783905	-0.066267
O4	O	0.620042	1.283905	0.433733
O5	O	-0.009156	0.900100	-0.066256
O6	O	0.490844	1.400100	0.433744
O7	O	0.235419	0.888065	-0.066270
O8	O	0.735419	1.388065	0.433730
O9	O	-0.009164	0.900084	0.066321
O10	O	0.490836	1.400084	0.566321
O11	O	0.120034	0.783890	0.066309
O12	O	0.620034	1.283890	0.566309
O13	O	0.106214	1.004244	0.066318
O14	O	0.606214	1.504244	0.566318
Zn15	Zn	0.113123	0.894065	0.087363
Zn16	Zn	0.613123	1.394065	0.587363
Zn17	Zn	0.113133	0.894085	-0.087312
Zn18	Zn	0.613133	1.394085	0.412688
O19	O	0.235411	0.888050	0.066306
O20	O	0.735411	1.388050	0.566306
C21	C	0.119542	0.755700	0.000020
C22	C	0.619542	1.255700	0.500020
C23	C	0.118057	0.671679	0.000017
C24	C	0.618057	1.171679	0.500017
C25	C	-0.040453	0.899593	0.000033
C26	C	0.459547	1.399593	0.500033
C27	C	-0.133696	0.898095	0.000033
C28	C	0.366304	1.398095	0.500033
N29	N	0.113115	0.894056	0.206574
N30	N	0.613115	1.394056	0.706574
C31	C	-0.348393	0.822492	0.000019
C32	C	0.151607	1.322492	0.500019
C33	C	-0.409488	0.857592	0.065389
C34	C	0.090512	1.357592	0.565389
C35	C	-0.304416	0.895385	0.000027
C36	C	0.195584	1.395385	0.500027
C37	C	-0.409464	0.857624	-0.065321
C38	C	0.090536	1.357624	0.434679
C39	C	-0.469323	0.892762	0.000018
C40	C	0.030677	1.392762	0.500018
C41	C	-0.364283	0.930505	0.065451
C42	C	0.135717	1.430505	0.565451
C43	C	-0.364252	0.930527	-0.065318
C44	C	0.135748	1.430527	0.434682
C45	C	-0.425329	0.965680	0.000067
C46	C	0.074671	1.465680	0.500067
C47	C	-0.209417	0.896894	0.000033
C48	C	0.290583	1.396894	0.500033
C49	C	-0.564321	0.891259	0.000017
C50	C	-0.064321	1.391259	0.500017
C51	C	0.266708	0.888557	0.000016
C52	C	0.766708	1.388557	0.500016
C53	C	0.359951	0.890055	0.000010
C54	C	0.859951	1.390055	0.500010
C55	C	0.106713	1.032450	0.000029
C56	C	0.606713	1.532450	0.500029
C57	C	0.108199	1.116471	0.000027
C58	C	0.608199	1.616471	0.500027
C59	C	0.032363	1.164962	0.000029
C60	C	0.532363	1.664962	0.500029
C61	C	0.033763	1.243908	0.000031
C62	C	0.533763	1.743908	0.500031
C63	C	0.111001	1.274361	0.000026
C64	C	0.611001	1.774361	0.500026
C65	C	0.186843	1.225863	0.000027
C66	C	0.686843	1.725863	0.500027
C67	C	0.185441	1.146919	0.000030
C68	C	0.685441	1.646919	0.500030
C69	C	0.192498	1.544236	0.000015
C70	C	0.692498	2.044236	0.500015
C71	C	0.193894	1.623186	0.000009
C72	C	0.693894	2.123186	0.500009
C73	C	0.040820	1.641225	0.000016
C74	C	0.540820	2.141225	0.500016
C75	C	0.039418	1.562281	0.000019
C76	C	0.539418	2.062281	0.500019
C77	C	0.115260	1.513790	0.000024
C78	C	0.615260	2.013790	0.500024
C79	C	0.113740	1.428188	0.000023
C80	C	0.613740	1.928188	0.500023
C81	C	0.112522	1.359961	0.000022
C82	C	0.612522	1.859961	0.500022
N83	N	0.113134	0.894099	-0.206524
N84	N	0.613134	1.394099	0.293476
C85	C	0.055930	0.945523	0.248296
C86	C	0.555930	1.445523	0.748296
C87	C	0.055929	0.945527	0.331749
C88	C	0.555929	1.445527	0.831749
C89	C	0.113118	0.894068	0.373477
C90	C	0.613118	1.394068	0.873477
C91	C	0.170306	0.842595	0.331749
C92	C	0.670306	1.342595	0.831749
C93	C	0.170302	0.842588	0.248298
C94	C	0.670302	1.342588	0.748298
C95	C	0.170323	0.842623	0.668296
C96	C	0.670323	1.342623	1.168296
C97	C	0.170324	0.842636	0.751753
C98	C	0.670324	1.342636	1.251753
C99	C	0.055949	0.945562	0.751747
C100	C	0.555949	1.445562	1.251747
C101	C	0.055946	0.945555	0.668296
C102	C	0.555946	1.445555	1.168296
C103	C	0.113130	0.894080	0.626575
C104	C	0.613130	1.394080	1.126575
C105	C	0.113129	0.894075	0.536087
C106	C	0.613129	1.394075	1.036087
C107	C	0.113124	0.894076	0.463964
C108	C	0.613124	1.394076	0.963964
H109	H	-0.429535	0.826754	0.120651
H110	H	0.070465	1.326754	0.620651
C111	C	-0.492115	0.865720	-0.185295
C112	C	0.007885	1.365720	0.314705
C113	C	-0.436492	0.816001	-0.139926
C114	C	0.063508	1.316001	0.360074
H115	H	-0.508801	0.840016	-0.231347
H116	H	-0.008801	1.340016	0.268653
H117	H	-0.464741	0.908250	-0.201006
H118	H	0.035259	1.408250	0.298994
H119	H	-0.540533	0.882601	-0.154304
H120	H	-0.040533	1.382601	0.345696
H121	H	-0.388071	0.799124	-0.170915
H122	H	0.111929	1.299124	0.329085
H123	H	-0.463865	0.773456	-0.124216
H124	H	0.036135	1.273456	0.375784
H125	H	0.009363	0.987430	0.214327
H126	H	0.509363	1.487430	0.714327
H127	H	-0.314958	0.761987	0.000082
H128	H	0.185042	1.261987	0.500082
C129	C	-0.118808	1.190731	0.000041
C130	C	0.381192	1.690731	0.500041
C131	C	-0.052541	1.131493	0.000035
C132	C	0.447459	1.631493	0.500035
H133	H	-0.171225	1.170068	0.000051
H134	H	0.328775	1.670068	0.500051
H135	H	-0.115075	1.221147	-0.046190
H136	H	0.384925	1.721147	0.453810
H137	H	-0.115072	1.221145	0.046275
H138	H	0.384928	1.721145	0.546275
H139	H	-0.056274	1.101082	-0.046203
H140	H	0.443726	1.601082	0.453797
H141	H	-0.056276	1.101064	0.046270
H142	H	0.443724	1.601064	0.546270
H143	H	0.254253	1.504763	0.000015
H144	H	0.754253	2.004763	0.500015
H145	H	-0.344183	0.961338	-0.120583
H146	H	0.155817	1.461338	0.379417
H147	H	0.249732	1.250664	0.000028
H148	H	0.749732	1.750664	0.500028
H149	H	-0.027990	1.283387	0.000036
H150	H	0.472010	1.783387	0.500036
H151	H	-0.344360	0.961304	0.120776
H152	H	0.155640	1.461304	0.620776
H153	H	0.247195	1.107437	0.000031
H154	H	0.747195	1.607437	0.500031
C155	C	-0.030698	1.449275	0.000020
C156	C	0.469302	1.949275	0.500020
C157	C	-0.045483	1.528807	0.000021
C158	C	0.454517	2.028807	0.500021
H159	H	-0.083115	1.428612	0.000017
H160	H	0.416885	1.928612	0.500017
H161	H	0.000511	1.432633	0.046248
H162	H	0.500511	1.932633	0.546248
H163	H	0.000526	1.432641	-0.046217
H164	H	0.500526	1.932641	0.453783
H165	H	-0.076702	1.545440	0.046261
H166	H	0.423298	2.045440	0.546261
H167	H	-0.076706	1.545455	-0.046212
H168	H	0.423294	2.045455	0.453788
C169	C	-0.447487	1.085395	0.068618
C170	C	0.052513	1.585395	0.568618
C171	C	-0.470275	1.047427	0.000118
C172	C	0.029725	1.547427	0.500118
H173	H	-0.475241	1.135859	0.068653
H174	H	0.024759	1.635859	0.568653
H175	H	-0.388115	1.086782	0.069051
H176	H	0.111885	1.586782	0.569051
H177	H	-0.463664	1.059299	0.114607
H178	H	0.036336	1.559299	0.614607
H179	H	-0.454093	1.073520	-0.045870
H180	H	0.045907	1.573520	0.454130
H181	H	-0.529660	1.046044	-0.000322
H182	H	-0.029660	1.546044	0.499678
C183	C	-0.025015	1.770252	0.000025
C184	C	0.474985	2.270252	0.500025
C185	C	-0.042549	1.694529	0.000022
C186	C	0.457451	2.194529	0.500022
H187	H	-0.076483	1.803157	0.000032
H188	H	0.423517	2.303157	0.500032
H189	H	0.006661	1.779485	-0.046206
H190	H	0.506661	2.279485	0.453794
H191	H	0.006658	1.779473	0.046260
H192	H	0.506658	2.279473	0.546260
H193	H	-0.074217	1.685307	-0.046216
H194	H	0.425783	2.185307	0.453784
H195	H	-0.074238	1.685293	0.046257
H196	H	0.425762	2.185293	0.546257
C197	C	0.345074	1.597428	0.000023
C198	C	0.845074	2.097428	0.500023
C199	C	0.278800	1.656661	0.000013
C200	C	0.778800	2.156661	0.500013
H201	H	0.397487	1.618097	0.000030
H202	H	0.897487	2.118097	0.500030
H203	H	0.341356	1.567014	-0.046204
H204	H	0.841356	2.067014	0.453796
H205	H	0.341331	1.567011	0.046261
H206	H	0.841331	2.067011	0.546261
H207	H	0.282540	1.687075	-0.046228
H208	H	0.782540	2.187075	0.453772
H209	H	0.282520	1.687087	0.046245
H210	H	0.782520	2.187087	0.546245
H211	H	0.216896	0.800728	0.785727
H212	H	0.716896	1.300728	1.285727
C213	C	-0.057105	1.047288	0.323360
C214	C	0.442895	1.547288	0.823360
C215	C	-0.006918	1.002113	0.377610
C216	C	0.493082	1.502113	0.877610
H217	H	-0.095899	1.082228	0.351675
H218	H	0.404101	1.582228	0.851675
H219	H	-0.087287	1.015788	0.290829
H220	H	0.412713	1.515788	0.790829
H221	H	-0.022161	1.074495	0.290795
H222	H	0.477839	1.574495	0.790795
H223	H	-0.041861	0.974901	0.410171
H224	H	0.458139	1.474901	0.910171
H225	H	0.023267	1.033617	0.410155
H226	H	0.523267	1.533617	0.910155
H227	H	0.009380	0.987460	0.634323
H228	H	0.509380	1.487460	1.134323
H229	H	0.009384	0.987473	0.785725
H230	H	0.509384	1.487473	1.285725
H231	H	0.216886	0.800712	0.634334
H232	H	0.716886	1.300712	1.134334
C233	C	0.221105	0.796908	0.459674
C234	C	0.721105	1.296908	0.959674
C235	C	0.233172	0.786031	0.377615
C236	C	0.733172	1.286031	0.877615
H237	H	0.259923	0.761991	0.487987
H238	H	0.759923	1.261991	0.987987
H239	H	0.165065	0.788687	0.473359
H240	H	0.665065	1.288687	0.973359
H241	H	0.230159	0.847423	0.473328
H242	H	0.730159	1.347423	0.973328
H243	H	0.224112	0.735518	0.363960
H244	H	0.724112	1.235518	0.863960
H245	H	0.289226	0.794246	0.363924
H246	H	0.789226	1.294246	0.863924
C247	C	0.283367	0.740854	0.256681
C248	C	0.783367	1.240854	0.756681
C249	C	0.233166	0.786018	0.202434
C250	C	0.733166	1.286018	0.702434
H251	H	0.322179	0.705931	0.228365
H252	H	0.822179	1.205931	0.728365
H253	H	0.248442	0.713635	0.289240
H254	H	0.748442	1.213635	0.789240
H255	H	0.313538	0.772368	0.289219
H256	H	0.813538	1.272368	0.789219
H257	H	0.202990	0.754504	0.169899
H258	H	0.702990	1.254504	0.669899
H259	H	0.268095	0.813239	0.169861
H260	H	0.768095	1.313239	0.669861
