data_functionalizedCrystal
_audit_creation_method	'MofGen! by Chris Wilmer'
_symmetry_space_group_name_H-M	'P1'
_symmetry_Int_Tables_number	1
_symmetry_cell_setting	triclinic
loop_
_symmetry_equiv_pos_as_xyz
  x,y,z
_cell_length_a	17.077404
_cell_length_b	12.645330
_cell_length_c	17.077396
_cell_angle_alpha	89.975096
_cell_angle_beta	89.983895
_cell_angle_gamma	90.015662
loop_
_atom_site_label
_atom_site_type_symbol
_atom_site_fract_x
_atom_site_fract_y
_atom_site_fract_z
Zn1	Zn	1.200065	-0.422088	-0.443843
Zn2	Zn	1.700065	0.077912	0.056157
Zn3	Zn	1.199990	-0.599376	-0.312587
Zn4	Zn	1.699990	-0.099376	0.187413
Zn5	Zn	1.068802	-0.422121	-0.312593
Zn6	Zn	1.568802	0.077879	0.187407
Zn7	Zn	1.068777	-0.599304	-0.443813
Zn8	Zn	1.568777	-0.099304	0.056187
O9	O	1.134409	-0.510722	-0.378209
O10	O	1.634409	-0.010722	0.121791
O11	O	1.309902	-0.445622	-0.426441
O12	O	1.809902	0.054378	0.073559
O13	O	1.182566	-0.575907	-0.202741
O14	O	1.682566	-0.075907	0.297259
O15	O	1.086257	-0.273769	-0.330019
O16	O	1.586257	0.226231	0.169981
O17	O	1.309847	-0.575875	-0.330008
O18	O	1.809847	-0.075875	0.169992
O19	O	1.182695	-0.273745	-0.426448
O20	O	1.682695	0.226255	0.073552
O21	O	1.086184	-0.445678	-0.202746
O22	O	1.586184	0.054322	0.297254
O23	O	0.958952	-0.445608	-0.329990
O24	O	1.458952	0.054392	0.170010
O25	O	1.086214	-0.575752	-0.553664
O26	O	1.586214	-0.075752	-0.053664
O27	O	0.958934	-0.575783	-0.426397
O28	O	1.458934	-0.075783	0.073603
O29	O	1.182671	-0.445552	-0.553686
O30	O	1.682671	0.054448	-0.053686
O31	O	1.182542	-0.747714	-0.329979
O32	O	1.682542	-0.247714	0.170021
O33	O	1.086140	-0.747661	-0.426391
O34	O	1.586140	-0.247661	0.073609
C35	C	0.930461	-0.510692	-0.378192
C36	C	1.430461	-0.010692	0.121808
C37	C	0.843211	-0.510705	-0.378203
C38	C	1.343211	-0.010705	0.121797
C39	C	0.802251	-0.443003	-0.428492
C40	C	1.302251	0.056997	0.071508
C41	C	0.720270	-0.443010	-0.428496
C42	C	1.220270	0.056990	0.071504
C43	C	0.679252	-0.510725	-0.378213
C44	C	1.179252	-0.010725	0.121787
C45	C	0.720218	-0.578430	-0.327918
C46	C	1.220218	-0.078430	0.172082
C47	C	0.802197	-0.578417	-0.327911
C48	C	1.302197	-0.078417	0.172089
C49	C	0.549348	-0.578454	-0.327938
C50	C	1.049348	-0.078454	0.172062
C51	C	0.467363	-0.578468	-0.327946
C52	C	0.967363	-0.078468	0.172054
C53	C	0.467421	-0.443047	-0.428522
C54	C	0.967421	0.056953	0.071478
C55	C	0.549400	-0.443034	-0.428515
C56	C	1.049400	0.056966	0.071485
C57	C	0.590361	-0.510740	-0.378221
C58	C	1.090361	-0.010740	0.121779
C59	C	1.134351	-0.786152	-0.378198
C60	C	1.634351	-0.286152	0.121802
C61	C	1.134399	-0.903982	-0.378220
C62	C	1.634399	-0.403982	0.121780
C63	C	1.074003	-1.071557	-0.439059
C64	C	1.574003	-0.571557	0.060941
C65	C	1.073694	-0.948997	-0.438864
C66	C	1.573694	-0.448997	0.061136
C67	C	1.112010	-0.948575	-0.295493
C68	C	1.612010	-0.448575	0.204507
C69	C	1.111642	-1.071173	-0.295863
C70	C	1.611642	-0.571173	0.204137
C71	C	1.217552	-1.071075	-0.399436
C72	C	1.717552	-0.571075	0.100564
C73	C	1.217043	-0.948468	-0.401245
C74	C	1.717043	-0.448468	0.098755
C75	C	1.339153	-0.510753	-0.378227
C76	C	1.839153	-0.010753	0.121773
C77	C	1.426403	-0.510766	-0.378235
C78	C	1.926403	-0.010766	0.121765
C79	C	1.134448	-0.510640	-0.582954
C80	C	1.634448	-0.010640	-0.082954
C81	C	1.134465	-0.510605	-0.670203
C82	C	1.634465	-0.010605	-0.170203
C83	C	1.134488	-0.234217	-0.378237
C84	C	1.634488	0.265783	0.121763
C85	C	1.134521	-0.116387	-0.378249
C86	C	1.634521	0.383613	0.121751
C87	C	1.084294	-0.442787	-0.711195
C88	C	1.584294	0.057213	-0.211195
C89	C	1.084307	-0.442763	-0.793176
C90	C	1.584307	0.057237	-0.293176
C91	C	1.134495	-0.510552	-0.834163
C92	C	1.634495	-0.010552	-0.334163
C93	C	1.184668	-0.578378	-0.793165
C94	C	1.684668	-0.078378	-0.293165
C95	C	1.184651	-0.578407	-0.711186
C96	C	1.684651	-0.078407	-0.211186
C97	C	1.184702	-0.578312	-0.964035
C98	C	1.684702	-0.078312	-0.464035
C99	C	1.184721	-0.578282	-1.046020
C100	C	1.684721	-0.078282	-0.546020
C101	C	1.084358	-0.442668	-1.046025
C102	C	1.584358	0.057332	-0.546025
C103	C	1.084341	-0.442697	-0.964046
C104	C	1.584341	0.057303	-0.464046
C105	C	1.134515	-0.510521	-0.923054
C106	C	1.634515	-0.010521	-0.423054
C107	C	1.134415	-0.510727	-0.174261
C108	C	1.634415	-0.010727	0.325739
C109	C	1.134550	-0.510464	-0.087012
C110	C	1.634550	-0.010464	0.412988
H111	H	0.434067	-0.387915	-0.469472
H112	H	0.934067	0.112085	0.030528
Cl113	Cl	1.176733	-1.116970	-0.223520
Cl114	Cl	1.676733	-0.616970	0.276480
Cl115	Cl	1.177905	-0.903563	-0.223626
Cl116	Cl	1.677905	-0.403563	0.276374
Cl117	Cl	0.668651	-0.663552	-0.264701
Cl118	Cl	1.168651	-0.163552	0.235299
H119	H	1.225589	-0.633482	-1.079389
H120	H	1.725589	-0.133482	-0.579389
H121	H	1.237977	-1.101920	-0.458734
H122	H	1.737977	-0.601920	0.041266
H123	H	0.835546	-0.633546	-0.286960
H124	H	1.335546	-0.133546	0.213040
H125	H	1.043449	-0.387542	-0.826548
H126	H	1.543449	0.112458	-0.326548
Cl127	Cl	1.247723	-0.663672	-0.659653
Cl128	Cl	1.747723	-0.163672	-0.159653
H129	H	1.043476	-0.387492	-0.930677
H130	H	1.543476	0.112508	-0.430677
H131	H	0.686924	-0.387882	-0.469448
H132	H	1.186924	0.112118	0.030552
Cl133	Cl	0.600965	-0.357914	-0.491735
Cl134	Cl	1.100965	0.142086	0.008265
H135	H	1.225529	-0.633579	-0.826543
H136	H	1.725529	-0.133579	-0.326543
Cl137	Cl	1.017932	-1.115471	-0.268154
Cl138	Cl	1.517932	-0.615471	0.231846
Cl139	Cl	1.021283	-0.357401	-1.097557
Cl140	Cl	1.521283	0.142599	-0.597557
H141	H	1.225567	-0.633532	-0.930662
H142	H	1.725567	-0.133532	-0.430662
Cl143	Cl	1.095423	-1.116971	-0.534079
Cl144	Cl	1.595423	-0.616971	-0.034079
Cl145	Cl	0.415798	-0.663622	-0.264751
Cl146	Cl	0.915798	-0.163622	0.235249
Cl147	Cl	0.853809	-0.357875	-0.491712
Cl148	Cl	1.353809	0.142125	0.008288
H149	H	1.012832	-1.102454	-0.425202
H150	H	1.512832	-0.602454	0.074798
H151	H	0.582695	-0.633585	-0.286981
H152	H	1.082695	-0.133585	0.213019
Cl153	Cl	1.095315	-0.902438	-0.533570
Cl154	Cl	1.595315	-0.402438	-0.033570
H155	H	1.012138	-0.919759	-0.424827
H156	H	1.512138	-0.419759	0.075173
H157	H	1.051947	-0.917961	-0.277221
H158	H	1.551947	-0.417961	0.222779
H159	H	1.233927	-0.919319	-0.462127
H160	H	1.733927	-0.419319	0.037873
H161	H	1.264506	-0.917820	-0.360179
H162	H	1.764506	-0.417820	0.139821
Cl163	Cl	1.021200	-0.357555	-0.659677
Cl164	Cl	1.521200	0.142445	-0.159677
H165	H	1.262640	-1.100065	-0.355146
H166	H	1.762640	-0.600065	0.144854
