data_functionalizedCrystal
_audit_creation_method	'MofGen! by Chris Wilmer'
_symmetry_space_group_name_H-M	'P1'
_symmetry_Int_Tables_number	1
_symmetry_cell_setting	triclinic
loop_
_symmetry_equiv_pos_as_xyz
  x,y,z
_cell_length_a	8.497374
_cell_length_b	8.497374
_cell_length_c	11.169417
_cell_angle_alpha	89.997965
_cell_angle_beta	89.999315
_cell_angle_gamma	90.005237
loop_
_atom_site_label
_atom_site_type_symbol
_atom_site_fract_x
_atom_site_fract_y
_atom_site_fract_z
Zn1	Zn	0.628404	0.892119	-1.834807
Zn2	Zn	0.892150	0.628385	-1.834798
Zn3	Zn	0.628370	0.628345	-1.634162
Zn4	Zn	0.892128	0.892115	-1.634133
O5	O	0.760263	0.760241	-1.734475
O6	O	0.663415	0.857153	-2.002756
O7	O	0.857154	0.407617	-1.808191
O8	O	0.407612	0.663321	-1.660794
O9	O	0.857187	0.663388	-2.002749
O10	O	0.407637	0.857114	-1.808207
O11	O	0.663355	0.407588	-1.660785
O12	O	0.663334	0.663316	-1.466208
O13	O	0.857150	1.112878	-1.660745
O14	O	0.857116	0.857107	-1.466187
O15	O	0.663393	1.112881	-1.808179
O16	O	1.112909	0.663384	-1.808163
O17	O	1.112893	0.857145	-1.660735
C18	C	0.760220	0.760208	-1.422650
C19	C	0.760240	0.760231	-1.289250
C20	C	1.170143	0.760264	-1.734460
C21	C	1.348787	0.760238	-1.734492
C22	C	0.760265	1.171721	-1.734466
C23	C	0.760282	1.350366	-1.734469
C24	C	0.760292	0.760265	-1.047517
C25	C	0.760265	0.760248	-1.180917
