data_functionalizedCrystal
_audit_creation_method	'MofGen! by Chris Wilmer'
_symmetry_space_group_name_H-M	'P1'
_symmetry_Int_Tables_number	1
_symmetry_cell_setting	triclinic
loop_
_symmetry_equiv_pos_as_xyz
  x,y,z
_cell_length_a	27.732064
_cell_length_b	27.732048
_cell_length_c	22.010155
_cell_angle_alpha	89.999275
_cell_angle_beta	89.999243
_cell_angle_gamma	82.646040
loop_
_atom_site_label
_atom_site_type_symbol
_atom_site_fract_x
_atom_site_fract_y
_atom_site_fract_z
O1	O	0.640925	0.057548	-0.050423
O2	O	1.140925	0.557548	0.449577
O3	O	0.500133	0.066286	-0.050449
O4	O	1.000133	0.566286	0.449551
O5	O	0.574902	-0.008479	-0.050424
O6	O	1.074902	0.491521	0.449576
O7	O	0.566157	0.132313	-0.050449
O8	O	1.066157	0.632313	0.449551
O9	O	0.574888	-0.008468	0.050627
O10	O	1.074888	0.491532	0.550627
O11	O	0.500120	0.066297	0.050601
O12	O	1.000120	0.566297	0.550601
O13	O	0.640912	0.057560	0.050627
O14	O	1.140912	0.557560	0.550627
Cu15	Cu	0.570514	0.061929	0.059841
Cu16	Cu	1.070514	0.561929	0.559841
Cu17	Cu	0.570531	0.061916	-0.059663
Cu18	Cu	1.070531	0.561916	0.440337
O19	O	0.566143	0.132325	0.050602
O20	O	1.066143	0.632325	0.550602
C21	C	0.482120	0.066106	0.000073
C22	C	0.982120	0.566106	0.500073
C23	C	0.428465	0.065551	0.000064
C24	C	0.928465	0.565551	0.500064
C25	C	0.051392	0.017583	0.000107
C26	C	0.551392	0.517583	0.500107
C27	C	0.253053	0.019630	0.000090
C28	C	0.753053	0.519630	0.500090
O29	O	0.284305	-0.017591	0.000120
O30	O	0.784305	0.482409	0.500120
N31	N	0.272180	0.063964	0.000080
N32	N	0.772180	0.563964	0.500080
C33	C	0.240889	0.107790	0.000077
C34	C	0.740889	0.607790	0.500077
O35	O	0.261785	0.145546	0.000074
O36	O	0.761785	0.645546	0.500074
C37	C	0.039230	0.105743	0.000098
C38	C	0.539230	0.605743	0.500098
C39	C	0.020105	0.061406	0.000102
C40	C	0.520105	0.561406	0.500102
C41	C	0.032267	-0.026750	0.000112
C42	C	0.532267	0.473250	0.500112
C43	C	-0.018145	-0.027261	0.000112
C44	C	0.481855	0.472739	0.500112
C45	C	-0.049432	0.016561	0.000108
C46	C	0.450568	0.516561	0.500108
C47	C	-0.030307	0.060895	0.000103
C48	C	0.469693	0.560895	0.500103
C49	C	0.007940	0.149568	0.000100
C50	C	0.507940	0.649568	0.500100
C51	C	-0.042478	0.149053	0.000106
C52	C	0.457522	0.649053	0.500106
C53	C	-0.061602	0.104716	0.000111
C54	C	0.438398	0.604716	0.500111
C55	C	-0.112006	0.104206	0.000099
C56	C	0.387994	0.604206	0.500099
N57	N	-0.131134	0.059872	0.000110
N58	N	0.368866	0.559872	0.500110
C59	C	-0.099846	0.016049	0.000114
C60	C	0.400154	0.516049	0.500114
C61	C	0.346763	0.108861	0.000065
C62	C	0.846763	0.608861	0.500065
C63	C	0.397178	0.109373	0.000059
C64	C	0.897178	0.609373	0.500059
C65	C	0.409338	0.021213	0.000073
C66	C	0.909338	0.521213	0.500073
C67	C	0.358923	0.020701	0.000075
C68	C	0.858923	0.520701	0.500075
C69	C	0.327636	0.064527	0.000076
C70	C	0.827636	0.564527	0.500076
C71	C	-0.205716	0.014979	0.000115
C72	C	0.294284	0.514979	0.500115
C73	C	-0.256133	0.014472	0.000113
C74	C	0.243867	0.514472	0.500113
C75	C	-0.268289	0.102632	0.000103
C76	C	0.231711	0.602632	0.500103
C77	C	-0.217876	0.103140	0.000101
C78	C	0.282124	0.603140	0.500101
C79	C	-0.186590	0.059309	0.000110
C80	C	0.313410	0.559309	0.500110
O81	O	-0.143287	0.141407	0.000077
O82	O	0.356713	0.641407	0.500077
O83	O	-0.120752	-0.021701	0.000131
O84	O	0.379248	0.478299	0.500131
C85	C	0.101804	0.018094	0.000106
C86	C	0.601804	0.518094	0.500106
C87	C	0.120930	0.062428	0.000101
C88	C	0.620930	0.562428	0.500101
C89	C	0.089642	0.106250	0.000097
C90	C	0.589642	0.606250	0.500097
C91	C	0.171344	0.062940	0.000095
C92	C	0.671344	0.562940	0.500095
C93	C	0.202631	0.019117	0.000099
C94	C	0.702631	0.519117	0.500099
C95	C	0.183504	-0.025217	0.000109
C96	C	0.683504	0.474783	0.500109
C97	C	0.133092	-0.025728	0.000110
C98	C	0.633092	0.474272	0.500110
C99	C	0.108770	0.150585	0.000086
C100	C	0.608770	0.650585	0.500086
C101	C	0.159183	0.151092	0.000085
C102	C	0.659183	0.651092	0.500085
C103	C	0.190470	0.107270	0.000089
C104	C	0.690470	0.607270	0.500089
C105	C	0.574712	-0.026481	0.000103
C106	C	1.074712	0.473519	0.500103
C107	C	0.574159	-0.080136	0.000108
C108	C	1.074159	0.419864	0.500108
C109	C	0.614862	-0.418948	0.000084
C110	C	1.114862	0.081052	0.500084
C111	C	0.612811	-0.620608	0.000075
C112	C	1.112811	-0.120608	0.500075
O113	O	0.650032	-0.651862	0.000056
O114	O	1.150032	-0.151862	0.500056
N115	N	0.568476	-0.639735	0.000068
N116	N	1.068476	-0.139735	0.500068
C117	C	0.524651	-0.608442	0.000058
C118	C	1.024651	-0.108442	0.500058
O119	O	0.486895	-0.629338	0.000045
O120	O	0.986895	-0.129338	0.500045
C121	C	0.526703	-0.406784	0.000063
C122	C	1.026703	0.093216	0.500063
C123	C	0.571040	-0.387660	0.000077
C124	C	1.071040	0.112340	0.500077
C125	C	0.659196	-0.399824	0.000097
C126	C	1.159196	0.100176	0.500097
C127	C	0.659709	-0.349412	0.000103
C128	C	1.159709	0.150588	0.500103
C129	C	0.615887	-0.318124	0.000095
C130	C	1.115887	0.181876	0.500095
C131	C	0.571553	-0.337248	0.000082
C132	C	1.071553	0.162752	0.500082
C133	C	0.482878	-0.375493	0.000049
C134	C	0.982878	0.124507	0.500049
C135	C	0.483395	-0.325075	0.000049
C136	C	0.983395	0.174925	0.500049
C137	C	0.527733	-0.305952	0.000063
C138	C	1.027733	0.194048	0.500063
C139	C	0.528243	-0.255548	0.000080
C140	C	1.028243	0.244452	0.500080
N141	N	0.572578	-0.236422	0.000088
N142	N	1.072578	0.263578	0.500088
C143	C	0.616400	-0.267710	0.000095
C144	C	1.116400	0.232290	0.500095
C145	C	0.523577	-0.714317	0.000057
C146	C	1.023577	-0.214317	0.500057
C147	C	0.523064	-0.764731	0.000057
C148	C	1.023064	-0.264731	0.500057
C149	C	0.611225	-0.776893	0.000073
C150	C	1.111225	-0.276893	0.500073
C151	C	0.611737	-0.726478	0.000077
C152	C	1.111737	-0.226478	0.500077
C153	C	0.567912	-0.695190	0.000065
C154	C	1.067912	-0.195190	0.500065
C155	C	0.617472	-0.161841	0.000107
C156	C	1.117472	0.338159	0.500107
C157	C	0.617981	-0.111424	0.000115
C158	C	1.117981	0.388576	0.500115
C159	C	0.529821	-0.099266	0.000096
C160	C	1.029821	0.400734	0.500096
C161	C	0.529312	-0.149679	0.000092
C162	C	1.029312	0.350321	0.500092
C163	C	0.573142	-0.180965	0.000095
C164	C	1.073142	0.319035	0.500095
O165	O	0.491043	-0.224267	0.000093
O166	O	0.991043	0.275733	0.500093
O167	O	0.654151	-0.246805	0.000095
O168	O	1.154151	0.253195	0.500095
C169	C	0.614350	-0.469360	0.000079
C170	C	1.114350	0.030640	0.500079
C171	C	0.570016	-0.488484	0.000066
C172	C	1.070016	0.011516	0.500066
C173	C	0.526194	-0.457196	0.000058
C174	C	1.026194	0.042804	0.500058
C175	C	0.569503	-0.538899	0.000066
C176	C	1.069503	-0.038899	0.500066
C177	C	0.613325	-0.570187	0.000073
C178	C	1.113325	-0.070187	0.500073
C179	C	0.657660	-0.551060	0.000081
C180	C	1.157660	-0.051060	0.500081
C181	C	0.658172	-0.500648	0.000086
C182	C	1.158172	-0.000648	0.500086
C183	C	0.481859	-0.476323	0.000050
C184	C	0.981859	0.023677	0.500050
C185	C	0.481351	-0.526735	0.000046
C186	C	0.981351	-0.026735	0.500046
C187	C	0.525172	-0.558023	0.000053
C188	C	1.025172	-0.058023	0.500053
C189	C	0.658925	0.057739	0.000104
C190	C	1.158925	0.557739	0.500104
C191	C	0.712580	0.058295	0.000109
C192	C	1.212580	0.558295	0.500109
C193	C	0.566333	0.150326	0.000074
C194	C	1.066333	0.650326	0.500074
C195	C	0.566886	0.203981	0.000065
C196	C	1.066886	0.703981	0.500065
N197	N	0.570507	0.061938	0.143893
N198	N	1.070507	0.561938	0.643893
N199	N	0.570542	0.061903	-0.143715
N200	N	1.070542	0.561903	0.356285
C201	C	0.603640	0.028815	0.563684
C202	C	1.103640	0.528815	1.063684
C203	C	0.603642	0.028811	0.627292
C204	C	1.103642	0.528811	1.127292
O205	O	0.631794	0.000655	0.660193
O206	O	1.131794	0.500655	1.160193
N207	N	0.570530	0.061906	0.659100
N208	N	1.070530	0.561906	1.159100
C209	C	0.537411	0.095003	0.627298
C210	C	1.037411	0.595003	1.127298
O211	O	0.509246	0.123151	0.660195
O212	O	1.009246	0.623151	1.160195
C213	C	0.537406	0.095003	0.563692
C214	C	1.037406	0.595003	1.063692
C215	C	0.570524	0.061910	0.531886
C216	C	1.070524	0.561910	1.031886
C217	C	0.636754	-0.004276	0.531878
C218	C	1.136754	0.495724	1.031878
C219	C	0.636753	-0.004272	0.468275
C220	C	1.136753	0.495728	0.968275
C221	C	0.603636	0.028823	0.436478
C222	C	1.103636	0.528823	0.936478
C223	C	0.570522	0.061914	0.468283
C224	C	1.070522	0.561914	0.968283
C225	C	0.504285	0.128097	0.531891
C226	C	1.004285	0.628097	1.031891
C227	C	0.504283	0.128095	0.468280
C228	C	1.004283	0.628095	0.968280
C229	C	0.537401	0.095001	0.436475
C230	C	1.037401	0.595001	0.936475
C231	C	0.537404	0.095013	0.372882
C232	C	1.037404	0.595013	0.872882
N233	N	0.570516	0.061919	0.341074
N234	N	1.070516	0.561919	0.841074
C235	C	0.603632	0.028823	0.372871
C236	C	1.103632	0.528823	0.872871
C237	C	0.537421	0.094998	0.760876
C238	C	1.037421	0.594998	1.260876
C239	C	0.537427	0.095000	0.824482
C240	C	1.037427	0.595000	1.324482
C241	C	0.603659	0.028808	0.824470
C242	C	1.103659	0.528808	1.324470
C243	C	0.603654	0.028809	0.760864
C244	C	1.103654	0.528809	1.260864
C245	C	0.570533	0.061904	0.729067
C246	C	1.070533	0.561904	1.229067
C247	C	0.603626	0.028835	0.239300
C248	C	1.103626	0.528835	0.739300
C249	C	0.603623	0.028843	0.175691
C250	C	1.103623	0.528843	0.675691
C251	C	0.537390	0.095033	0.175708
C252	C	1.037390	0.595033	0.675708
C253	C	0.537395	0.095027	0.239311
C254	C	1.037395	0.595027	0.739311
C255	C	0.570515	0.061923	0.271105
C256	C	1.070515	0.561923	0.771105
O257	O	0.509266	0.123154	0.339941
O258	O	1.009266	0.623154	0.839941
O259	O	0.631788	0.000675	0.339967
O260	O	1.131788	0.500675	0.839967
H261	H	-0.202304	0.139243	0.000097
H262	H	0.297696	0.639243	0.500097
H263	H	0.630621	0.001861	0.734971
H264	H	1.130621	0.501861	1.234971
O265	O	0.635845	-0.003340	0.270085
O266	O	1.135845	0.496660	0.770085
C267	C	0.701517	-0.069011	0.263344
C268	C	1.201517	0.430989	0.763344
C269	C	0.665063	-0.032595	0.228405
C270	C	1.165063	0.467405	0.728405
H271	H	0.725142	-0.092680	0.229660
H272	H	1.225142	0.407320	0.729660
H273	H	0.725544	-0.048337	0.293106
H274	H	1.225544	0.451663	0.793106
H275	H	0.680824	-0.093001	0.293137
H276	H	1.180824	0.406999	0.793137
H277	H	0.685716	-0.008596	0.198578
H278	H	1.185716	0.491404	0.698578
H279	H	0.641036	-0.053300	0.198680
H280	H	1.141036	0.446700	0.698680
O281	O	0.635807	-0.003410	0.855297
O282	O	1.135807	0.496590	1.355297
C283	C	0.664737	-0.087658	0.874793
C284	C	1.164737	0.412342	1.374793
C285	C	0.628313	-0.051227	0.839832
C286	C	1.128313	0.448773	1.339832
H287	H	0.658685	-0.126326	0.862312
H288	H	1.158685	0.373674	1.362312
H289	H	0.703416	-0.081667	0.862277
H290	H	1.203416	0.418333	1.362277
H291	H	0.659054	-0.081948	0.925714
H292	H	1.159054	0.418052	1.425714
H293	H	0.633952	-0.056916	0.788903
H294	H	1.133952	0.443084	1.288903
H295	H	0.589647	-0.057228	0.852399
H296	H	1.089647	0.442772	1.352399
H297	H	0.208987	-0.060899	0.000109
H298	H	0.708987	0.439101	0.500109
H299	H	0.663722	-0.031229	0.557762
H300	H	1.163722	0.468771	1.057762
O301	O	-0.298667	0.145212	-0.000008
O302	O	0.201333	0.645212	0.499992
C303	C	-0.324482	0.220415	-0.052341
C304	C	0.175518	0.720415	0.447659
C305	C	-0.290058	0.172208	-0.052303
C306	C	0.209942	0.672208	0.447697
H307	H	-0.317527	0.242260	-0.094610
H308	H	0.182473	0.742260	0.405390
H309	H	-0.363808	0.212457	-0.052375
H310	H	0.136192	0.712457	0.447625
H311	H	-0.317573	0.242234	-0.010033
H312	H	0.182427	0.742234	0.489967
H313	H	-0.296923	0.150365	-0.094604
H314	H	0.203077	0.650365	0.405396
H315	H	-0.250744	0.180200	-0.052237
H316	H	0.249256	0.680200	0.447763
O317	O	0.026572	0.192605	0.000170
O318	O	0.526572	0.692605	0.500170
C319	C	0.076410	0.244370	0.052515
C320	C	0.576410	0.744370	0.552515
C321	C	0.055350	0.195608	0.052510
C322	C	0.555350	0.695608	0.552510
H323	H	0.099674	0.246819	0.094833
H324	H	0.599674	0.746819	0.594833
H325	H	0.099737	0.246815	0.010249
H326	H	0.599737	0.746815	0.510249
H327	H	0.045378	0.275595	0.052482
H328	H	0.545378	0.775595	0.552482
H329	H	0.086351	0.164356	0.052563
H330	H	0.586351	0.664356	0.552563
H331	H	0.032010	0.193205	0.094772
H332	H	0.532010	0.693205	0.594772
O333	O	0.439256	-0.445983	-0.000034
O334	O	0.939256	0.054017	0.499966
C335	C	0.364077	-0.420148	-0.052407
C336	C	0.864077	0.079852	0.447593
C337	C	0.412305	-0.454540	-0.052385
C338	C	0.912305	0.045460	0.447615
H339	H	0.342277	-0.427048	-0.094735
H340	H	0.842277	0.072952	0.405265
H341	H	0.342204	-0.427075	-0.010150
H342	H	0.842204	0.072925	0.489850
H343	H	0.372062	-0.380832	-0.052371
H344	H	0.872062	0.119168	0.447629
H345	H	0.404364	-0.493869	-0.052442
H346	H	0.904364	0.006131	0.447558
H347	H	0.434163	-0.447572	-0.094639
H348	H	0.934163	0.052428	0.405361
H349	H	0.510451	0.121952	0.734991
H350	H	1.010451	0.621952	1.234991
H351	H	0.510465	0.121953	0.850373
H352	H	1.010465	0.621953	1.350373
H353	H	-0.180248	-0.020712	0.000122
H354	H	0.319752	0.479288	0.500122
O355	O	0.480958	-0.683996	0.000077
O356	O	0.980958	-0.183996	0.500077
C357	C	0.393462	-0.677266	0.000033
C358	C	0.893462	-0.177266	0.500033
C359	C	0.441692	-0.711657	0.000020
C360	C	0.941692	-0.211657	0.500020
H361	H	0.361703	-0.699616	-0.000027
H362	H	0.861703	-0.199616	0.499973
H363	H	0.391458	-0.653369	0.042333
H364	H	0.891458	-0.153369	0.542333
H365	H	0.391524	-0.653349	-0.042246
H366	H	0.891524	-0.153349	0.457754
H367	H	0.443663	-0.735605	0.042270
H368	H	0.943663	-0.235605	0.542270
H369	H	0.443677	-0.735521	-0.042308
H370	H	0.943677	-0.235521	0.457692
H371	H	0.477317	0.155045	0.557778
H372	H	0.977317	0.655045	1.057778
H373	H	0.434821	-0.014469	0.000075
H374	H	0.934821	0.485531	0.500075
H375	H	0.646906	-0.802377	0.000079
H376	H	1.146906	-0.302377	0.500079
O377	O	0.316354	0.151423	0.000166
O378	O	0.816354	0.651423	0.500166
C379	C	0.252361	0.202015	0.052487
C380	C	0.752361	0.702015	0.552487
C381	C	0.286777	0.153802	0.052461
C382	C	0.786777	0.653802	0.552461
H383	H	0.228433	0.203949	0.094756
H384	H	0.728433	0.703949	0.594756
H385	H	0.274672	0.233805	0.052514
H386	H	0.774672	0.733805	0.552514
H387	H	0.228477	0.203968	0.010179
H388	H	0.728477	0.703968	0.510179
H389	H	0.310669	0.151801	0.094762
H390	H	0.810669	0.651801	0.594762
H391	H	0.264438	0.122034	0.052402
H392	H	0.764438	0.622034	0.552402
O393	O	-0.072800	0.191671	0.000078
O394	O	0.427200	0.691671	0.500078
C395	C	-0.079536	0.279167	0.000104
C396	C	0.420464	0.779167	0.500104
C397	C	-0.045143	0.230939	0.000126
C398	C	0.454857	0.730939	0.500126
H399	H	-0.057189	0.310928	0.000156
H400	H	0.442811	0.810928	0.500156
H401	H	-0.103434	0.281164	-0.042195
H402	H	0.396566	0.781164	0.457805
H403	H	-0.103453	0.281109	0.042384
H404	H	0.396547	0.781109	0.542384
H405	H	-0.021195	0.228965	-0.042125
H406	H	0.478805	0.728965	0.457875
H407	H	-0.021278	0.228962	0.042453
H408	H	0.478722	0.728962	0.542453
H409	H	0.446774	-0.391054	0.000034
H410	H	0.946774	0.108946	0.500034
O411	O	0.661095	-0.092929	0.000099
O412	O	1.161095	0.407071	0.500099
C413	C	0.748483	-0.110322	0.000150
C414	C	1.248483	0.389678	0.500150
C415	C	0.699693	-0.131330	0.000155
C416	C	1.199693	0.368670	0.500155
H417	H	0.779703	-0.141359	0.000208
H418	H	1.279703	0.358641	0.500208
H419	H	0.750967	-0.087039	-0.042147
H420	H	1.250967	0.412961	0.457853
H421	H	0.750897	-0.087009	0.042432
H422	H	1.250897	0.412991	0.542432
H423	H	0.697246	-0.154664	-0.042098
H424	H	1.197246	0.345336	0.457902
H425	H	0.697230	-0.154585	0.042480
H426	H	1.197230	0.345415	0.542480
H427	H	0.693341	-0.576544	0.000090
H428	H	1.193341	-0.076544	0.500090
H429	H	0.117526	-0.061832	0.000114
H430	H	0.617526	0.438168	0.500114
O431	O	0.440777	-0.294752	0.000064
O432	O	0.940777	0.205248	0.500064
C433	C	0.353281	-0.288014	0.000000
C434	C	0.853281	0.211986	0.500000
C435	C	0.401508	-0.322408	-0.000003
C436	C	0.901508	0.177592	0.499997
H437	H	0.321519	-0.310360	-0.000066
H438	H	0.821519	0.189640	0.499934
H439	H	0.351273	-0.264117	0.042301
H440	H	0.851273	0.235883	0.542301
H441	H	0.351351	-0.264096	-0.042278
H442	H	0.851351	0.235904	0.457722
H443	H	0.403471	-0.346357	0.042247
H444	H	0.903471	0.153643	0.542247
H445	H	0.403496	-0.346272	-0.042331
H446	H	0.903496	0.153728	0.457669
H447	H	0.510433	0.121979	0.265208
H448	H	1.010433	0.621979	0.765208
O449	O	0.062587	-0.069367	0.000087
O450	O	0.562587	0.430633	0.500087
C451	C	0.069310	-0.156863	0.000126
C452	C	0.569310	0.343137	0.500126
C453	C	0.034923	-0.108631	0.000146
C454	C	0.534923	0.391369	0.500146
H455	H	0.046958	-0.188621	0.000187
H456	H	0.546958	0.311379	0.500187
H457	H	0.093204	-0.158867	-0.042178
H458	H	0.593204	0.341133	0.457822
H459	H	0.093231	-0.158806	0.042401
H460	H	0.593231	0.341194	0.542401
H461	H	0.010971	-0.106656	-0.042100
H462	H	0.510971	0.393344	0.457900
H463	H	0.011062	-0.106648	0.042478
H464	H	0.511062	0.393352	0.542478
O465	O	0.340290	-0.022337	0.000164
O466	O	0.840290	0.477663	0.500164
C467	C	0.290465	-0.074095	0.052550
C468	C	0.790465	0.425905	0.552550
C469	C	0.311521	-0.025330	0.052516
C470	C	0.811521	0.474670	0.552516
H471	H	0.267210	-0.076536	0.094878
H472	H	0.767210	0.423464	0.594878
H473	H	0.267132	-0.076552	0.010293
H474	H	0.767132	0.423448	0.510293
H475	H	0.321500	-0.105317	0.052520
H476	H	0.821500	0.394683	0.552520
H477	H	0.280518	0.005919	0.052567
H478	H	0.780518	0.505919	0.552567
H479	H	0.334867	-0.022916	0.094769
H480	H	0.834867	0.477084	0.594769
O481	O	0.472091	0.160292	0.437489
O482	O	0.972091	0.660292	0.937489
C483	C	0.406377	0.225923	0.444219
C484	C	0.906377	0.725923	0.944219
C485	C	0.442814	0.189493	0.479164
C486	C	0.942814	0.689493	0.979164
H487	H	0.382690	0.249534	0.477898
H488	H	0.882690	0.749534	0.977898
H489	H	0.427035	0.249967	0.414457
H490	H	0.927035	0.749967	0.914457
H491	H	0.382408	0.205210	0.414423
H492	H	0.882408	0.705210	0.914423
H493	H	0.466792	0.210166	0.508993
H494	H	0.966792	0.710166	1.008993
H495	H	0.422125	0.165449	0.508887
H496	H	0.922125	0.665449	1.008887
H497	H	0.510429	0.121980	0.149808
H498	H	1.010429	0.621980	0.649808
O499	O	0.177697	0.194197	-0.000003
O500	O	0.677697	0.694197	0.499997
C501	C	0.182736	0.269692	-0.052376
C502	C	0.682736	0.769692	0.447624
C503	C	0.161731	0.220901	-0.052351
C504	C	0.661731	0.720901	0.447649
H505	H	0.169844	0.291292	-0.094702
H506	H	0.669844	0.791292	0.405298
H507	H	0.169804	0.291361	-0.010117
H508	H	0.669804	0.791361	0.489883
H509	H	0.224142	0.262528	-0.052345
H510	H	0.724142	0.762528	0.447655
H511	H	0.120324	0.228021	-0.052404
H512	H	0.620324	0.728021	0.447596
H513	H	0.174700	0.199247	-0.094607
H514	H	0.674700	0.699247	0.405393
H515	H	0.653163	-0.187309	0.000108
H516	H	1.153163	0.312691	0.500108
O517	O	0.668938	-0.036470	0.437478
O518	O	1.168938	0.463530	0.937478
C519	C	0.734645	-0.102108	0.444204
C520	C	1.234645	0.397892	0.944204
C521	C	0.698214	-0.065674	0.479151
C522	C	1.198214	0.434326	0.979151
H523	H	0.758330	-0.125722	0.477881
H524	H	1.258330	0.374278	0.977881
H525	H	0.713982	-0.126149	0.414445
H526	H	1.213982	0.373851	0.914445
H527	H	0.758615	-0.081398	0.414405
H528	H	1.258615	0.418602	0.914405
H529	H	0.674233	-0.086344	0.508983
H530	H	1.174233	0.413656	1.008983
H531	H	0.718907	-0.041633	0.508871
H532	H	1.218907	0.458367	1.008871
O533	O	0.702821	-0.330920	0.000084
O534	O	1.202821	0.169080	0.500084
C535	C	0.790209	-0.348323	0.000133
C536	C	1.290209	0.151677	0.500133
C537	C	0.741416	-0.369325	0.000142
C538	C	1.241416	0.130675	0.500142
H539	H	0.821425	-0.379363	0.000192
H540	H	1.321425	0.120637	0.500192
H541	H	0.792695	-0.325043	-0.042166
H542	H	1.292695	0.174957	0.457834
H543	H	0.792626	-0.325009	0.042413
H544	H	1.292626	0.174991	0.542413
H545	H	0.738965	-0.392661	-0.042110
H546	H	1.238965	0.107339	0.457890
H547	H	0.738951	-0.392578	0.042468
H548	H	1.238951	0.107422	0.542468
H549	H	-0.271701	-0.021634	0.000115
H550	H	0.228299	0.478366	0.500115
H551	H	-0.033711	-0.063365	0.000118
H552	H	0.466289	0.436635	0.500118
H553	H	0.412744	0.145477	0.000047
H554	H	0.912744	0.645477	0.500047
H555	H	0.694883	-0.425295	0.000101
H556	H	1.194883	0.074705	0.500101
O557	O	0.654776	-0.707846	0.000004
O558	O	1.154776	-0.207846	0.500004
C559	C	0.706544	-0.658019	-0.052360
C560	C	1.206544	-0.158019	0.447640
C561	C	0.657779	-0.679075	-0.052344
C562	C	1.157779	-0.179075	0.447656
H563	H	0.708993	-0.634762	-0.094685
H564	H	1.208993	-0.134762	0.405315
H565	H	0.708993	-0.634688	-0.010101
H566	H	1.208993	-0.134688	0.489899
H567	H	0.737766	-0.689054	-0.052324
H568	H	1.237766	-0.189054	0.447676
H569	H	0.626530	-0.648071	-0.052401
H570	H	1.126530	-0.148071	0.447599
H571	H	0.655373	-0.702420	-0.094599
H572	H	1.155373	-0.202420	0.405401
O573	O	0.486232	-0.168236	-0.000026
O574	O	0.986232	0.331764	0.499974
C575	C	0.410723	-0.173234	-0.052384
C576	C	0.910723	0.326766	0.447616
C577	C	0.459498	-0.152199	-0.052324
C578	C	0.959498	0.347801	0.447676
H579	H	0.389090	-0.160268	-0.094655
H580	H	0.889090	0.339732	0.405345
H581	H	0.417855	-0.214643	-0.052430
H582	H	0.917855	0.285357	0.447570
H583	H	0.389099	-0.160337	-0.010078
H584	H	0.889099	0.339663	0.489922
H585	H	0.481147	-0.165058	-0.094622
H586	H	0.981147	0.334942	0.405378
H587	H	0.452332	-0.110792	-0.052246
H588	H	0.952332	0.389208	0.447754
O589	O	0.487241	-0.068889	0.000193
O590	O	0.987241	0.431111	0.500193
C591	C	0.412022	-0.043077	0.052495
C592	C	0.912022	0.456923	0.552495
C593	C	0.460231	-0.077499	0.052476
C594	C	0.960231	0.422501	0.552476
H595	H	0.390167	-0.050033	0.094754
H596	H	0.890167	0.449967	0.594754
H597	H	0.419979	-0.003751	0.052536
H598	H	0.919979	0.496249	0.552536
H599	H	0.390216	-0.049986	0.010178
H600	H	0.890216	0.450014	0.510178
H601	H	0.482062	-0.070634	0.094786
H602	H	0.982062	0.429366	0.594786
H603	H	0.452240	-0.116814	0.052403
H604	H	0.952240	0.383186	0.552403
H605	H	0.630593	0.001894	0.149797
H606	H	1.130593	0.501894	0.649797
O607	O	0.701285	-0.482156	0.000068
O608	O	1.201285	0.017844	0.500068
C609	C	0.788672	-0.499559	0.000119
C610	C	1.288672	0.000441	0.500119
C611	C	0.739879	-0.520561	0.000127
C612	C	1.239879	-0.020561	0.500127
H613	H	0.819888	-0.530599	0.000179
H614	H	1.319888	-0.030599	0.500179
H615	H	0.791158	-0.476279	-0.042179
H616	H	1.291158	0.023721	0.457821
H617	H	0.791089	-0.476245	0.042400
H618	H	1.291089	0.023755	0.542400
H619	H	0.737429	-0.543897	-0.042125
H620	H	1.237429	-0.043897	0.457875
H621	H	0.737413	-0.543814	0.042453
H622	H	1.237413	-0.043814	0.542453
O623	O	0.438290	-0.545332	0.000139
O624	O	0.938290	-0.045332	0.500139
C625	C	0.386540	-0.595214	0.052440
C626	C	0.886540	-0.095214	0.552440
C627	C	0.435315	-0.574179	0.052425
C628	C	0.935315	-0.074179	0.552425
H629	H	0.384124	-0.618550	0.094703
H630	H	0.884124	-0.118550	0.594703
H631	H	0.355290	-0.564206	0.052473
H632	H	0.855290	-0.064206	0.552473
H633	H	0.384111	-0.618487	0.010126
H634	H	0.884111	-0.118487	0.510126
H635	H	0.437792	-0.550912	0.094733
H636	H	0.937792	-0.050912	0.594733
H637	H	0.466542	-0.605209	0.052362
H638	H	0.966542	-0.105209	0.552362
H639	H	0.083300	0.186271	0.000083
H640	H	0.583300	0.686271	0.500083
H641	H	0.486960	-0.780296	0.000057
H642	H	0.986960	-0.280296	0.500057
