data_functionalizedCrystal
_audit_creation_method	'MofGen! by Chris Wilmer'
_symmetry_space_group_name_H-M	'P1'
_symmetry_Int_Tables_number	1
_symmetry_cell_setting	triclinic
loop_
_symmetry_equiv_pos_as_xyz
  x,y,z
_cell_length_a	12.827892
_cell_length_b	12.827893
_cell_length_c	18.215399
_cell_angle_alpha	89.980568
_cell_angle_beta	90.023838
_cell_angle_gamma	89.986398
loop_
_atom_site_label
_atom_site_type_symbol
_atom_site_fract_x
_atom_site_fract_y
_atom_site_fract_z
Zn1	Zn	-0.416094	-1.597653	0.416129
Zn2	Zn	-0.590853	-1.597552	0.293072
Zn3	Zn	-0.416121	-1.422900	0.293077
Zn4	Zn	-0.590788	-1.422880	0.416097
O5	O	-0.503464	-1.510246	0.354594
O6	O	-0.439292	-1.743876	0.399816
O7	O	-0.567713	-1.574350	0.190088
O8	O	-0.269881	-1.446132	0.309416
O9	O	-0.567686	-1.743802	0.309406
O10	O	-0.269861	-1.574522	0.399822
O11	O	-0.439338	-1.446034	0.190092
O12	O	-0.439275	-1.276661	0.309385
O13	O	-0.567576	-1.446098	0.519086
O14	O	-0.567602	-1.276647	0.399768
O15	O	-0.439229	-1.574504	0.519109
O16	O	-0.737080	-1.574331	0.309376
O17	O	-0.737033	-1.446000	0.399762
C18	C	-0.503435	-1.238736	0.354574
C19	C	-0.503448	-1.122583	0.354583
C20	C	-0.567058	-0.950775	0.399245
C21	C	-0.567046	-1.070825	0.399237
C22	C	-0.774974	-1.510181	0.354581
C23	C	-0.891127	-1.510249	0.354600
C24	C	-0.942901	-1.573826	0.309923
C25	C	-1.062951	-1.573898	0.309942
C26	C	-0.230894	-1.510340	0.354623
C27	C	-0.114741	-1.510381	0.354635
C28	C	-0.503392	-1.510310	0.546547
C29	C	-0.503361	-1.510337	0.628346
C30	C	-0.503485	-0.782816	0.354608
C31	C	-0.503472	-0.898970	0.354599
C32	C	-0.503460	-1.510243	0.163388
C33	C	-0.503197	-1.510418	0.081589
C34	C	-0.436468	-1.577222	0.816553
C35	C	-0.436438	-1.577234	0.893412
C36	C	-0.570092	-1.443526	0.893376
C37	C	-0.570117	-1.443509	0.816519
C38	C	-0.503306	-1.510363	0.778109
C39	C	-0.503251	-1.510392	0.931825
C40	C	-0.503219	-1.510406	1.015159
C41	C	-0.503337	-1.510349	0.694770
H42	H	-0.449028	-0.943494	0.316367
H43	H	-0.382010	-1.631676	0.924709
Cl44	Cl	-0.651141	-0.882041	0.458260
H45	H	-0.621480	-1.115376	0.437463
H46	H	-1.107475	-1.628326	0.271691
Cl47	Cl	-0.874126	-1.657793	0.250850
Cl48	Cl	-1.046011	-1.426330	0.413690
Cl49	Cl	-0.959902	-1.426294	0.413682
Cl50	Cl	-0.419386	-1.053813	0.295568
H51	H	-0.382064	-1.631655	0.785282
Cl52	Cl	-0.654084	-1.359492	0.941668
H53	H	-0.624543	-1.389058	0.785217
