data_functionalizedCrystal
_audit_creation_method	'MofGen! by Chris Wilmer'
_symmetry_space_group_name_H-M	'P1'
_symmetry_Int_Tables_number	1
_symmetry_cell_setting	triclinic
loop_
_symmetry_equiv_pos_as_xyz
  x,y,z
_cell_length_a	12.759400
_cell_length_b	14.908571
_cell_length_c	14.908308
_cell_angle_alpha	90.175053
_cell_angle_beta	86.730859
_cell_angle_gamma	93.289010
loop_
_atom_site_label
_atom_site_type_symbol
_atom_site_fract_x
_atom_site_fract_y
_atom_site_fract_z
Zn1	Zn	-0.548282	-1.345342	0.587598
Zn2	Zn	-0.714462	-1.353936	0.437243
Zn3	Zn	-0.528102	-1.203655	0.428595
Zn4	Zn	-0.713214	-1.194964	0.578895
O5	O	-0.626015	-1.274474	0.508083
O6	O	-0.579294	-1.472309	0.574915
O7	O	-0.681818	-1.341235	0.310271
O8	O	-0.383762	-1.222491	0.449711
O9	O	-0.701385	-1.478623	0.464450
O10	O	-0.398588	-1.326587	0.566529
O11	O	-0.544900	-1.230825	0.303918
O12	O	-0.543690	-1.076676	0.441272
O13	O	-0.699258	-1.207677	0.705874
O14	O	-0.679690	-1.070290	0.551696
O15	O	-0.578083	-1.318160	0.712269
O16	O	-0.861313	-1.332807	0.456011
O17	O	-0.860396	-1.216011	0.560082
C18	C	-0.609366	-1.040857	0.494601
C19	C	-0.602270	-0.940914	0.488855
C20	C	-0.898977	-1.274422	0.508061
C21	C	-1.015760	-1.274480	0.508087
C22	C	-0.640783	-1.260990	0.742609
C23	C	-0.647076	-1.255244	0.842550
C24	C	-1.071073	-1.335356	0.453964
C25	C	-1.180802	-1.335410	0.453995
C26	C	-1.179896	-1.213704	0.562273
C27	C	-1.070169	-1.213655	0.562246
C28	C	-1.016664	-1.396181	0.399805
C29	C	-1.071977	-1.457061	0.345677
C30	C	-1.181707	-1.457115	0.345708
C31	C	-1.236123	-1.396289	0.399867
C32	C	-0.351990	-1.274550	0.508126
C33	C	-0.235216	-1.274582	0.508144
C34	C	-0.642730	-1.509003	0.521618
C35	C	-0.649853	-1.608946	0.527386
C36	C	-0.730752	-0.746517	0.592888
C37	C	-0.724088	-0.652611	0.587492
C38	C	-0.582274	-0.659193	0.472673
C39	C	-0.588938	-0.753099	0.478069
C40	C	-0.663180	-0.796758	0.538177
C41	C	-0.669848	-0.890666	0.543568
C42	C	-0.528030	-0.897246	0.428754
C43	C	-0.521366	-0.803340	0.423358
C44	C	-0.611233	-1.287957	0.274473
C45	C	-0.604656	-1.293878	0.174542
C46	C	-0.532697	-1.359489	1.037009
C47	C	-0.538607	-1.354093	1.130913
C48	C	-0.664798	-1.239052	1.124262
C49	C	-0.658888	-1.244448	1.030358
C50	C	-0.592837	-1.304670	0.986735
C51	C	-0.586934	-1.310070	0.892830
C52	C	-0.713119	-1.195025	0.886181
C53	C	-0.719028	-1.189629	0.980085
H54	H	-1.027666	-1.506590	0.301588
N55	N	-0.749922	-0.937752	0.608399
H56	H	-0.712693	-0.974331	0.652365
H57	H	-0.798986	-0.978755	0.573961
H58	H	-0.489632	-1.398731	1.171842
H59	H	-0.927316	-1.396142	0.399771
N60	N	-1.238577	-1.148089	0.620672
H61	H	-1.224478	-1.158297	0.685727
H62	H	-1.316460	-1.157386	0.612400
H63	H	-1.226741	-1.506693	0.301642
N64	N	-1.354476	-1.396352	0.399911
H65	H	-1.381263	-1.444150	0.357410
H66	H	-1.375461	-1.335617	0.379809
H67	H	-1.025132	-1.164085	0.606319
H68	H	-0.791208	-0.782065	0.641826
H69	H	-0.533153	-1.359107	0.857314
H70	H	-0.779110	-0.611708	0.632045
H71	H	-0.521823	-0.623630	0.423741
H72	H	-0.460918	-0.767781	0.374422
N73	N	-0.461474	-1.424447	0.989952
H74	H	-0.424275	-1.458361	1.036050
H75	H	-0.407794	-1.390101	0.948884
N76	N	-0.455149	-0.951434	0.369733
H77	H	-0.470637	-1.017549	0.382267
H78	H	-0.379861	-0.934222	0.382888
H79	H	-0.718573	-1.190022	1.159796
H80	H	-0.772803	-1.140596	1.015615
N81	N	-0.777997	-1.135899	0.831958
H82	H	-0.764236	-1.148455	0.765851
H83	H	-0.758110	-1.070740	0.844666
