data_functionalizedCrystal
_audit_creation_method	'MofGen! by Chris Wilmer'
_symmetry_space_group_name_H-M	'P1'
_symmetry_Int_Tables_number	1
_symmetry_cell_setting	triclinic
loop_
_symmetry_equiv_pos_as_xyz
  x,y,z
_cell_length_a	16.625548
_cell_length_b	16.120484
_cell_length_c	16.120728
_cell_angle_alpha	84.367400
_cell_angle_beta	87.110992
_cell_angle_gamma	92.926626
loop_
_atom_site_label
_atom_site_type_symbol
_atom_site_fract_x
_atom_site_fract_y
_atom_site_fract_z
Zn1	Zn	1.191060	-0.356887	0.489462
Zn2	Zn	1.691060	0.143113	0.989462
Zn3	Zn	1.190985	-0.489533	0.356770
Zn4	Zn	1.690985	0.010467	0.856770
Zn5	Zn	1.063452	-0.349779	0.349706
Zn6	Zn	1.563452	0.150221	0.849706
Zn7	Zn	1.048986	-0.496623	0.496495
Zn8	Zn	1.548986	0.003377	0.996495
O9	O	1.123621	-0.423205	0.423108
O10	O	1.623621	0.076795	0.923108
O11	O	1.303882	-0.374490	0.471873
O12	O	1.803882	0.125510	0.971873
O13	O	1.180090	-0.465052	0.238870
O14	O	1.680090	0.034948	0.738870
O15	O	1.086465	-0.233755	0.362345
O16	O	1.586465	0.266245	0.862345
O17	O	1.303826	-0.471944	0.374385
O18	O	1.803826	0.028056	0.874385
O19	O	1.180218	-0.238977	0.465023
O20	O	1.680218	0.261023	0.965023
O21	O	1.086392	-0.362376	0.233679
O22	O	1.586392	0.137624	0.733679
O23	O	0.948702	-0.369251	0.369165
O24	O	1.448702	0.130749	0.869165
O25	O	1.061810	-0.484028	0.612526
O26	O	1.561810	0.015972	1.112526
O27	O	0.938074	-0.477136	0.477010
O28	O	1.438074	0.022864	0.977010
O29	O	1.166191	-0.381365	0.607359
O30	O	1.666191	0.118635	1.107359
O31	O	1.166063	-0.607440	0.381205
O32	O	1.666063	-0.107440	0.881205
O33	O	1.061737	-0.612649	0.483860
O34	O	1.561737	-0.112649	0.983860
C35	C	0.914132	-0.423192	0.423084
C36	C	1.414132	0.076808	0.923084
C37	C	0.824510	-0.423208	0.423095
C38	C	1.324510	0.076792	0.923095
C39	C	0.496332	-0.423215	0.423131
C40	C	0.996332	0.076785	0.923131
C41	C	0.587641	-0.423211	0.423118
C42	C	1.087641	0.076789	0.923118
C43	C	0.660418	-0.423212	0.423112
C44	C	1.160418	0.076788	0.923112
C45	C	0.751733	-0.423206	0.423101
C46	C	1.251733	0.076794	0.923101
C47	C	1.112343	-0.640374	0.434081
C48	C	1.612343	-0.140374	0.934081
C49	C	1.107591	-0.733281	0.438803
C50	C	1.607591	-0.233281	0.938803
C51	C	1.098918	-0.903384	0.447441
C52	C	1.598918	-0.403384	0.947441
C53	C	1.148467	-0.942186	0.398790
C54	C	1.648467	-0.442186	0.898790
C55	C	1.143642	-1.036837	0.403596
C56	C	1.643642	-0.536837	0.903596
C57	C	1.103743	-0.808725	0.442636
C58	C	1.603743	-0.308725	0.942636
C59	C	1.333928	-0.423219	0.423133
C60	C	1.833928	0.076781	0.923133
C61	C	1.423548	-0.423225	0.423143
C62	C	1.923548	0.076775	0.923143
C63	C	1.112395	-0.434280	0.641118
C64	C	1.612395	0.065720	1.141118
C65	C	1.107612	-0.439000	0.734020
C66	C	1.607612	0.061000	1.234020
C67	C	1.134964	-0.205189	0.412111
C68	C	1.634964	0.294811	0.912111
C69	C	1.139797	-0.112284	0.407425
C70	C	1.639797	0.387716	0.907425
C71	C	1.098849	-0.447598	0.904113
C72	C	1.598849	0.052402	1.404113
C73	C	1.148364	-0.398893	0.942959
C74	C	1.648364	0.101107	1.442959
C75	C	1.143488	-0.403677	1.037604
C76	C	1.643488	0.096323	1.537604
C77	C	1.103723	-0.442815	0.809459
C78	C	1.603723	0.057185	1.309459
C79	C	1.134802	-0.412196	1.205948
C80	C	1.634802	0.087804	1.705948
C81	C	1.139604	-0.407488	1.113046
C82	C	1.639604	0.092512	1.613046
H83	H	1.052877	-0.941248	0.492698
H84	H	1.552877	-0.441248	0.992698
C85	C	1.210667	-0.891041	0.337635
C86	C	1.710667	-0.391041	0.837635
C87	C	1.208447	-0.898174	0.243208
C88	C	1.708447	-0.398174	0.743208
C89	C	1.270641	-0.847025	0.182052
C90	C	1.770641	-0.347025	0.682052
C91	C	1.335056	-0.788744	0.215325
C92	C	1.835056	-0.288744	0.715325
C93	C	1.337279	-0.781608	0.309757
C94	C	1.837279	-0.281608	0.809757
C95	C	1.275084	-0.832756	0.370912
C96	C	1.775084	-0.332756	0.870912
H97	H	1.160761	-0.941320	0.218573
H98	H	1.660761	-0.441320	0.718573
H99	H	1.268995	-0.852308	0.112147
H100	H	1.768995	-0.352308	0.612147
H101	H	1.381096	-0.750880	0.170054
H102	H	1.881096	-0.250880	0.670054
H103	H	1.384965	-0.738462	0.334391
H104	H	1.884965	-0.238462	0.834391
H105	H	1.276730	-0.827474	0.440817
H106	H	1.776730	-0.327474	0.940817
H107	H	1.194416	-0.353601	0.905134
H108	H	1.694416	0.146399	1.405134
C109	C	1.036642	-0.508786	0.955204
C110	C	1.536642	-0.008786	1.455204
C111	C	1.031801	-0.513545	1.051214
C112	C	1.531801	-0.013545	1.551214
C113	C	0.969598	-0.574735	1.102317
C114	C	1.469598	-0.074735	1.602317
C115	C	0.912237	-0.631167	1.057410
C116	C	1.412237	-0.131167	1.557410
C117	C	0.917076	-0.626410	0.961395
C118	C	1.417076	-0.126410	1.461395
C119	C	0.979279	-0.565220	0.910292
C120	C	1.479279	-0.065220	1.410292
H121	H	1.074265	-0.471770	1.084462
H122	H	1.574265	0.028230	1.584462
H123	H	0.966016	-0.578257	1.173394
H124	H	1.466016	-0.078257	1.673394
H125	H	0.866191	-0.676464	1.095239
H126	H	1.366191	-0.176464	1.595239
H127	H	0.874612	-0.668186	0.928147
H128	H	1.374612	-0.168186	1.428147
H129	H	0.982861	-0.561699	0.839215
H130	H	1.482861	-0.061699	1.339215
