data_functionalizedCrystal
_audit_creation_method	'MofGen! by Chris Wilmer'
_symmetry_space_group_name_H-M	'P1'
_symmetry_Int_Tables_number	1
_symmetry_cell_setting	triclinic
loop_
_symmetry_equiv_pos_as_xyz
  x,y,z
_cell_length_a	17.019383
_cell_length_b	17.038272
_cell_length_c	15.186229
_cell_angle_alpha	89.995962
_cell_angle_beta	86.120670
_cell_angle_gamma	87.246883
loop_
_atom_site_label
_atom_site_type_symbol
_atom_site_fract_x
_atom_site_fract_y
_atom_site_fract_z
O1	O	1.053352	0.099657	-0.153028
O2	O	1.303352	0.349657	0.096972
O3	O	1.553352	0.599657	0.346972
O4	O	1.803352	0.849657	0.596972
O5	O	0.824541	0.112345	-0.135696
O6	O	1.074541	0.362345	0.114304
O7	O	1.324541	0.612345	0.364304
O8	O	1.574541	0.862345	0.614304
O9	O	0.937586	-0.007813	-0.144252
O10	O	1.187586	0.242187	0.105748
O11	O	1.437586	0.492187	0.355748
O12	O	1.687586	0.742187	0.605748
O13	O	0.940306	0.219815	-0.144472
O14	O	1.190306	0.469815	0.105528
O15	O	1.440306	0.719815	0.355528
O16	O	1.690306	0.969815	0.605528
O17	O	0.937578	-0.007815	0.002206
O18	O	1.187578	0.242185	0.252206
O19	O	1.437578	0.492185	0.502206
O20	O	1.687578	0.742185	0.752206
O21	O	0.824533	0.112344	0.010762
O22	O	1.074533	0.362344	0.260762
O23	O	1.324533	0.612344	0.510762
O24	O	1.574533	0.862344	0.760762
O25	O	1.053343	0.099655	-0.006570
O26	O	1.303343	0.349655	0.243430
O27	O	1.553343	0.599655	0.493430
O28	O	1.803343	0.849655	0.743430
Zn29	Zn	0.938937	0.105999	0.025349
Zn30	Zn	1.188937	0.355999	0.275349
Zn31	Zn	1.438937	0.605999	0.525349
Zn32	Zn	1.688937	0.855999	0.775349
Zn33	Zn	0.938948	0.106001	-0.167615
Zn34	Zn	1.188948	0.356001	0.082385
Zn35	Zn	1.438948	0.606001	0.332385
Zn36	Zn	1.688948	0.856001	0.582385
O37	O	0.940298	0.219814	0.001986
O38	O	1.190298	0.469814	0.251986
O39	O	1.440298	0.719814	0.501986
O40	O	1.690298	0.969814	0.751986
C41	C	0.795116	0.111861	-0.060238
C42	C	1.045116	0.361861	0.189762
C43	C	1.295116	0.611861	0.439762
C44	C	1.545116	0.861861	0.689762
C45	C	0.707450	0.110412	-0.053597
C46	C	0.957450	0.360412	0.196403
C47	C	1.207450	0.610412	0.446403
C48	C	1.457450	0.860412	0.696403
C49	C	0.666261	0.109734	-0.130305
C50	C	0.916261	0.359734	0.119695
C51	C	1.166261	0.609734	0.369695
C52	C	1.416261	0.859734	0.619695
C53	C	0.583889	0.108385	-0.124053
C54	C	0.833889	0.358385	0.125947
C55	C	1.083889	0.608385	0.375947
C56	C	1.333889	0.858385	0.625947
C57	C	0.542706	0.107708	-0.041091
C58	C	0.792706	0.357708	0.208909
C59	C	1.042706	0.607708	0.458909
C60	C	1.292706	0.857708	0.708909
C61	C	0.583901	0.108389	0.035622
C62	C	0.833901	0.358389	0.285622
C63	C	1.083901	0.608389	0.535622
C64	C	1.333901	0.858389	0.785622
C65	C	0.666271	0.109744	0.029369
C66	C	0.916271	0.359744	0.279369
C67	C	1.166271	0.609744	0.529369
C68	C	1.416271	0.859744	0.779369
C69	C	0.294000	0.103623	-0.018216
C70	C	0.544000	0.353623	0.231784
C71	C	0.794000	0.603623	0.481784
C72	C	1.044000	0.853623	0.731784
C73	C	0.211623	0.102266	-0.011968
C74	C	0.461623	0.352266	0.238032
C75	C	0.711623	0.602266	0.488032
C76	C	0.961623	0.852266	0.738032
C77	C	0.211617	0.102264	-0.171644
C78	C	0.461617	0.352264	0.078356
C79	C	0.711617	0.602264	0.328356
C80	C	0.961617	0.852264	0.578356
C81	C	0.293990	0.103614	-0.177890
C82	C	0.543990	0.353614	0.072110
C83	C	0.793990	0.603614	0.322110
C84	C	1.043990	0.853614	0.572110
C85	C	0.335176	0.104299	-0.101176
C86	C	0.585176	0.354299	0.148824
C87	C	0.835176	0.604299	0.398824
C88	C	1.085176	0.854299	0.648824
C89	C	0.458508	0.106327	-0.034698
C90	C	0.708508	0.356327	0.215302
C91	C	0.958508	0.606327	0.465302
C92	C	1.208508	0.856327	0.715302
C93	C	0.419372	0.105686	-0.107570
C94	C	0.669372	0.355686	0.142430
C95	C	0.919372	0.605686	0.392430
C96	C	1.169372	0.855686	0.642430
C97	C	0.935109	-0.036940	-0.070836
C98	C	1.185109	0.213060	0.179164
C99	C	1.435109	0.463060	0.429164
C100	C	1.685109	0.713060	0.679164
C101	C	0.927728	-0.123727	-0.070277
C102	C	1.177728	0.126273	0.179723
C103	C	1.427728	0.376273	0.429723
C104	C	1.677728	0.626273	0.679723
C105	C	0.995488	-0.173896	-0.075408
C106	C	1.245488	0.076104	0.174592
C107	C	1.495488	0.326104	0.424592
C108	C	1.745488	0.576104	0.674592
C109	C	0.988549	-0.255441	-0.074891
C110	C	1.238549	-0.005441	0.175109
C111	C	1.488549	0.244559	0.425109
C112	C	1.738549	0.494559	0.675109
C113	C	0.913849	-0.286816	-0.069236
C114	C	1.163849	-0.036816	0.180764
C115	C	1.413849	0.213184	0.430764
C116	C	1.663849	0.463184	0.680764
C117	C	0.846085	-0.236640	-0.064106
C118	C	1.096085	0.013360	0.185894
C119	C	1.346085	0.263360	0.435894
C120	C	1.596085	0.513360	0.685894
C121	C	0.853025	-0.155097	-0.064630
C122	C	1.103025	0.094903	0.185370
C123	C	1.353025	0.344903	0.435370
C124	C	1.603025	0.594903	0.685370
C125	C	0.889332	-0.532554	-0.067391
C126	C	1.139332	-0.282554	0.182609
C127	C	1.389332	-0.032554	0.432609
C128	C	1.639332	0.217446	0.682609
C129	C	0.882397	-0.614104	-0.066865
C130	C	1.132397	-0.364104	0.183135
C131	C	1.382397	-0.114104	0.433135
C132	C	1.632397	0.135896	0.683135
C133	C	1.024861	-0.632898	-0.077651
C134	C	1.274861	-0.382898	0.172349
C135	C	1.524861	-0.132898	0.422349
C136	C	1.774861	0.117102	0.672349
C137	C	1.031795	-0.551353	-0.078169
C138	C	1.281795	-0.301353	0.171831
C139	C	1.531795	-0.051353	0.421831
C140	C	1.781795	0.198647	0.671831
C141	C	0.964030	-0.501185	-0.073044
C142	C	1.214030	-0.251185	0.176956
C143	C	1.464030	-0.001185	0.426956
C144	C	1.714030	0.248815	0.676956
C145	C	0.906754	-0.370167	-0.068704
C146	C	1.156754	-0.120167	0.181296
C147	C	1.406754	0.129833	0.431296
C148	C	1.656754	0.379833	0.681296
C149	C	0.971126	-0.417834	-0.073582
C150	C	1.221126	-0.167834	0.176418
C151	C	1.471126	0.082166	0.426418
C152	C	1.721126	0.332166	0.676418
C153	C	1.082769	0.100139	-0.082029
C154	C	1.332769	0.350139	0.167971
C155	C	1.582769	0.600139	0.417971
C156	C	1.832769	0.850139	0.667971
C157	C	1.170435	0.101588	-0.088676
C158	C	1.420435	0.351588	0.161324
C159	C	1.670435	0.601588	0.411324
C160	C	1.920435	0.851588	0.661324
C161	C	0.942776	0.248941	-0.071432
C162	C	1.192776	0.498941	0.178568
C163	C	1.442776	0.748941	0.428568
C164	C	1.692776	0.998941	0.678568
C165	C	0.950156	0.335728	-0.071997
C166	C	1.200156	0.585728	0.178003
C167	C	1.450156	0.835728	0.428003
C168	C	1.700156	1.085728	0.678003
N169	N	0.938935	0.105997	0.157042
N170	N	1.188935	0.355997	0.407042
N171	N	1.438935	0.605997	0.657042
N172	N	1.688935	0.855997	0.907042
N173	N	0.938955	0.105997	-0.299308
N174	N	1.188955	0.355997	-0.049308
N175	N	1.438955	0.605997	0.200692
N176	N	1.688955	0.855997	0.450692
C177	C	0.989011	0.052809	0.378975
C178	C	1.239011	0.302809	0.628975
C179	C	1.489011	0.552809	0.878975
C180	C	1.739011	0.802809	1.128975
C181	C	0.989014	0.052807	0.471165
C182	C	1.239014	0.302807	0.721165
C183	C	1.489014	0.552807	0.971165
C184	C	1.739014	0.802807	1.221165
C185	C	0.888874	0.159188	0.478753
C186	C	1.138874	0.409188	0.728753
C187	C	1.388874	0.659188	0.978753
C188	C	1.638874	0.909188	1.228753
C189	C	0.888868	0.159186	0.386565
C190	C	1.138868	0.409186	0.636565
C191	C	1.388868	0.659186	0.886565
C192	C	1.638868	0.909186	1.136565
C193	C	0.938941	0.105997	0.336678
C194	C	1.188941	0.355997	0.586678
C195	C	1.438941	0.605997	0.836678
C196	C	1.688941	0.855997	1.086678
C197	C	0.938949	0.105997	0.521055
C198	C	1.188949	0.355997	0.771055
C199	C	1.438949	0.605997	1.021055
C200	C	1.688949	0.855997	1.271055
C201	C	0.938951	0.105996	0.621011
C202	C	1.188951	0.355996	0.871011
C203	C	1.438951	0.605996	1.121011
C204	C	1.688951	0.855996	1.371011
C205	C	0.938938	0.105997	0.236716
C206	C	1.188938	0.355997	0.486716
C207	C	1.438938	0.605997	0.736716
C208	C	1.688938	0.855997	0.986716
H209	H	0.699786	0.110283	-0.197861
H210	H	0.949786	0.360283	0.052139
H211	H	1.199786	0.610283	0.302139
H212	H	1.449786	0.860283	0.552139
F213	F	0.540056	0.107665	-0.205696
F214	F	0.790056	0.357665	0.044304
F215	F	1.040056	0.607665	0.294304
F216	F	1.290056	0.857665	0.544304
H217	H	0.178094	0.101737	0.055592
H218	H	0.428094	0.351737	0.305592
H219	H	0.678094	0.601737	0.555592
H220	H	0.928094	0.851737	0.805592
F221	F	0.463203	0.106409	-0.195861
F222	F	0.713203	0.356409	0.054139
F223	F	0.963203	0.606409	0.304139
F224	F	1.213203	0.856409	0.554139
H225	H	1.092623	-0.525814	-0.082774
H226	H	1.342623	-0.275814	0.167226
H227	H	1.592623	-0.025814	0.417226
H228	H	1.842623	0.224186	0.667226
H229	H	1.029784	0.009496	0.505600
H230	H	1.279784	0.259496	0.755600
H231	H	1.529784	0.509496	1.005600
H232	H	1.779784	0.759496	1.255600
H233	H	1.043726	-0.296286	-0.079068
H234	H	1.293726	-0.046286	0.170932
H235	H	1.543726	0.203714	0.420932
H236	H	1.793726	0.453714	0.670932
F237	F	0.817210	-0.479172	-0.061939
F238	F	1.067210	-0.229172	0.188061
F239	F	1.317210	0.020828	0.438061
F240	F	1.567210	0.270828	0.688061
H241	H	0.785263	-0.262192	-0.059507
H242	H	1.035263	-0.012192	0.190493
H243	H	1.285263	0.237808	0.440493
H244	H	1.535263	0.487808	0.690493
H245	H	0.327524	0.104176	0.044250
H246	H	0.577524	0.354176	0.294250
H247	H	0.827524	0.604176	0.544250
H248	H	1.077524	0.854176	0.794250
H249	H	0.327515	0.104159	-0.245446
H250	H	0.577515	0.354159	0.004554
H251	H	0.827515	0.604159	0.254554
H252	H	1.077515	0.854159	0.504554
F253	F	0.167778	0.101528	-0.253282
F254	F	0.417778	0.351528	-0.003282
F255	F	0.667778	0.601528	0.246718
F256	F	0.917778	0.851528	0.496718
F257	F	0.835587	0.215795	0.531852
F258	F	1.085587	0.465795	0.781852
F259	F	1.335587	0.715795	1.031852
F260	F	1.585587	0.965795	1.281852
F261	F	1.042302	-0.003801	0.325885
F262	F	1.292302	0.246199	0.575885
F263	F	1.542302	0.496199	0.825885
F264	F	1.792302	0.746199	1.075885
H265	H	0.550363	0.107843	0.103171
H266	H	0.800363	0.357843	0.353171
H267	H	1.050363	0.607843	0.603171
H268	H	1.300363	0.857843	0.853171
F269	F	0.835571	0.215795	0.341547
F270	F	1.085571	0.465795	0.591547
F271	F	1.335571	0.715795	0.841547
F272	F	1.585571	0.965795	1.091547
F273	F	1.050624	-0.384441	-0.079606
F274	F	1.300624	-0.134441	0.170394
F275	F	1.550624	0.115559	0.420394
F276	F	1.800624	0.365559	0.670394
F277	F	0.710107	0.110468	0.111012
F278	F	0.960107	0.360468	0.361012
F279	F	1.210107	0.610468	0.611012
F280	F	1.460107	0.860468	0.861012
F281	F	1.096976	-0.686296	-0.083106
F282	F	1.346976	-0.436296	0.166894
F283	F	1.596976	-0.186296	0.416894
F284	F	1.846976	0.063704	0.666894
F285	F	0.827256	-0.403566	-0.062689
F286	F	1.077256	-0.153566	0.187311
F287	F	1.327256	0.096434	0.437311
F288	F	1.577256	0.346434	0.687311
H289	H	0.424969	0.105774	0.032849
H290	H	0.674969	0.355774	0.282849
H291	H	0.924969	0.605774	0.532849
H292	H	1.174969	0.855774	0.782849
F293	F	1.074994	-0.140513	-0.081419
F294	F	1.324994	0.109487	0.168581
F295	F	1.574994	0.359487	0.418581
F296	F	1.824994	0.609487	0.668581
F297	F	0.802888	-0.647492	-0.060841
F298	F	1.052888	-0.397492	0.189159
F299	F	1.302888	-0.147492	0.439159
F300	F	1.552888	0.102508	0.689159
F301	F	0.780906	-0.101704	-0.059171
F302	F	1.030906	0.148296	0.190829
F303	F	1.280906	0.398296	0.440829
F304	F	1.530906	0.648296	0.690829
