data_functionalizedCrystal
_audit_creation_method	'MofGen! by Chris Wilmer'
_symmetry_space_group_name_H-M	'P1'
_symmetry_Int_Tables_number	1
_symmetry_cell_setting	triclinic
loop_
_symmetry_equiv_pos_as_xyz
  x,y,z
_cell_length_a	10.540539
_cell_length_b	19.188930
_cell_length_c	9.616153
_cell_angle_alpha	89.992615
_cell_angle_beta	89.995174
_cell_angle_gamma	83.835137
loop_
_atom_site_label
_atom_site_type_symbol
_atom_site_fract_x
_atom_site_fract_y
_atom_site_fract_z
O1	O	1.683724	0.098389	-0.115598
O2	O	1.314107	0.107659	-0.115617
O3	O	1.509582	0.001439	-0.115579
O4	O	1.488249	0.204608	-0.115635
O5	O	1.509555	0.001441	0.115712
O6	O	1.314080	0.107661	0.115675
O7	O	1.683697	0.098391	0.115694
Zn8	Zn	1.498885	0.103026	0.152407
Zn9	Zn	1.498920	0.103023	-0.152330
O10	O	1.488222	0.204610	0.115657
C11	C	1.266806	0.106965	0.000027
C12	C	1.125904	0.104885	0.000021
C13	C	0.944233	0.025184	0.000583
C14	C	1.090805	0.027292	0.000047
C15	C	1.063423	0.142224	-0.132063
C16	C	0.916937	0.139576	-0.132158
C17	C	0.916384	0.141157	0.130863
C18	C	1.063350	0.141872	0.132594
C19	C	1.508878	-0.024575	0.000070
C20	C	1.506804	-0.102094	0.000082
C21	C	1.621502	-0.146253	0.000095
C22	C	1.619554	-0.219090	0.000072
C23	C	1.502901	-0.247764	0.000065
C24	C	1.388187	-0.203595	0.000045
C25	C	1.390139	-0.130760	0.000053
N26	N	1.413724	-0.356363	0.078774
N27	N	1.411878	-0.425554	0.078769
C28	C	1.497014	-0.467212	0.000037
N29	N	1.584085	-0.437067	-0.078672
N30	N	1.585935	-0.367870	-0.078661
C31	C	1.500772	-0.326741	0.000055
C32	C	1.609608	-0.590350	0.000023
C33	C	1.607655	-0.663188	-0.000008
C34	C	1.376285	-0.647691	-0.000021
C35	C	1.378241	-0.574855	-0.000004
C36	C	1.494906	-0.546189	0.000025
C37	C	1.730998	0.099085	0.000047
C38	C	1.871901	0.101165	0.000044
C39	C	1.488927	0.230625	0.000004
C40	C	1.491000	0.308143	-0.000017
N41	N	1.498870	0.103028	0.360381
N42	N	1.498945	0.103016	-0.360304
C43	C	1.393992	0.159658	0.580731
C44	C	1.394216	0.159870	0.419564
C45	C	1.631228	0.119601	0.418832
C46	C	1.630655	0.120002	0.580050
C47	C	1.472715	0.029640	0.580311
C48	C	1.469658	0.030115	0.419084
H49	H	0.914709	-0.005341	-0.093599
H50	H	1.133213	-0.002297	-0.094785
N51	N	1.737171	0.067488	0.631762
H52	H	1.700308	0.030817	0.690161
H53	H	1.784276	0.044223	0.549761
N54	N	1.118379	0.105740	0.262034
H55	H	1.077786	0.129762	0.346956
H56	H	1.100629	0.055058	0.261083
N57	N	1.250472	-0.678617	-0.000018
H58	H	1.200231	-0.662563	0.085723
H59	H	1.200342	-0.662541	-0.085814
N60	N	1.254530	-0.527220	-0.000009
H61	H	1.180333	-0.556435	-0.000016
H62	H	1.250291	-0.496670	0.085737
N63	N	1.266415	-0.083133	0.000061
H64	H	1.262061	-0.052580	0.085810
H65	H	1.262144	-0.052601	-0.085726
H66	H	0.885379	0.116047	0.230981
H67	H	0.889346	0.111977	-0.230877
N68	N	1.416352	0.231977	0.368431
H69	H	1.416588	0.232415	0.263404
H70	H	1.345999	0.267420	0.403827
N71	N	0.851756	0.213491	-0.140064
H72	H	0.918220	0.247648	-0.143485
H73	H	0.797306	0.218827	-0.226615
N74	N	1.737125	0.066456	0.368038
H75	H	1.821319	0.078133	0.406882
H76	H	1.720524	0.018142	0.400114
N77	N	1.661352	0.190910	0.629837
H78	H	1.675127	0.221613	0.547056
H79	H	1.588080	0.213492	0.687516
N80	N	1.091382	0.217700	-0.138615
H81	H	1.050310	0.240672	-0.224329
H82	H	1.055886	0.243325	-0.053005
N83	N	1.093776	0.216808	0.143147
H84	H	1.148782	0.227892	0.061773
H85	H	1.011827	0.249334	0.142013
N86	N	1.263881	0.146665	0.367205
H87	H	1.205764	0.140654	0.448854
H88	H	1.227171	0.187790	0.309009
N89	N	1.662668	0.189709	0.365315
H90	H	1.594541	0.227586	0.396208
H91	H	1.748032	0.199841	0.403518
N92	N	1.148122	-0.011634	0.125444
H93	H	1.193551	0.021288	0.184876
H94	H	1.078119	-0.030319	0.181474
H95	H	1.378326	0.013866	0.621048
H96	H	1.704603	-0.567009	0.000040
N97	N	1.340648	0.013495	0.368583
H98	H	1.301286	0.053022	0.307918
H99	H	1.351011	-0.031430	0.313063
H100	H	1.295284	0.149839	0.619541
H101	H	1.106595	0.116284	-0.230348
H102	H	0.867922	0.197202	0.131740
N103	N	1.415845	0.231368	0.634285
H104	H	1.493428	0.227323	0.696583
H105	H	1.429971	0.263088	0.553194
N106	N	1.747328	-0.115334	0.000123
H107	H	1.819694	-0.154366	0.000127
H108	H	1.753193	-0.085446	-0.085616
N109	N	1.743268	-0.266731	0.000083
H110	H	1.817469	-0.237519	0.000100
H111	H	1.747475	-0.297294	0.085824
N112	N	1.731370	-0.710822	0.000015
H113	H	1.735739	-0.741378	-0.085731
H114	H	1.805495	-0.681559	0.000092
N115	N	1.564373	-0.028403	0.365754
H116	H	1.627845	-0.008390	0.302503
H117	H	1.610875	-0.052888	0.446874
N118	N	1.262362	-0.234512	0.000040
H119	H	1.256405	-0.264381	-0.085700
H120	H	1.256458	-0.264355	0.085836
N121	N	0.907260	-0.015421	0.126062
H122	H	0.843259	0.015039	0.183778
H123	H	0.868178	-0.058542	0.094460
N124	N	1.574082	-0.026214	0.630815
H125	H	1.660611	-0.014886	0.598184
H126	H	1.572708	-0.027912	0.735772
