data_functionalizedCrystal
_audit_creation_method	'MofGen! by Chris Wilmer'
_symmetry_space_group_name_H-M	'P1'
_symmetry_Int_Tables_number	1
_symmetry_cell_setting	triclinic
loop_
_symmetry_equiv_pos_as_xyz
  x,y,z
_cell_length_a	13.635800
_cell_length_b	11.102188
_cell_length_c	11.102300
_cell_angle_alpha	88.052188
_cell_angle_beta	108.605850
_cell_angle_gamma	71.396125
loop_
_atom_site_label
_atom_site_type_symbol
_atom_site_fract_x
_atom_site_fract_y
_atom_site_fract_z
V1	V	2.055760	-0.175839	0.396257
O2	O	2.035282	0.008450	0.388713
O3	O	2.044144	-0.348659	0.393547
O4	O	2.044151	-0.173134	0.569078
O5	O	2.035275	-0.168290	0.211967
V6	V	2.294312	-0.153795	0.374214
O7	O	2.193430	-0.224192	0.444609
O8	O	2.381741	-0.105442	0.325862
O9	O	2.194325	0.019025	0.376924
O10	O	2.373489	-0.338084	0.381757
O11	O	2.373496	-0.161344	0.558503
O12	O	2.194318	-0.156500	0.201393
V13	V	2.555760	-0.175839	0.396257
O14	O	2.535282	0.008450	0.388713
O15	O	2.544144	-0.348659	0.393547
O16	O	2.544151	-0.173134	0.569078
O17	O	2.535275	-0.168290	0.211967
V18	V	2.794312	-0.153795	0.374214
O19	O	2.693430	-0.224192	0.444609
O20	O	2.881741	-0.105442	0.325862
O21	O	2.694325	0.019025	0.376924
O22	O	2.873489	-0.338084	0.381757
O23	O	2.873496	-0.161344	0.558503
O24	O	2.694318	-0.156500	0.201393
C25	C	1.969299	-0.390788	0.387295
C26	C	2.000528	-0.532071	0.386232
C27	C	1.985116	-0.580297	0.269348
C28	C	2.014471	-0.713048	0.268353
C29	C	2.074648	-0.749338	0.501137
C30	C	2.045300	-0.616589	0.502131
C31	C	1.969306	-0.166887	0.611201
C32	C	2.000539	-0.165819	0.752483
C33	C	2.100842	0.061148	0.383172
C34	C	2.059232	0.202429	0.384244
C35	C	2.100834	-0.162751	0.159263
C36	C	2.059220	-0.163812	0.017979
C37	C	2.469299	-0.390788	0.387295
C38	C	2.500528	-0.532071	0.386232
C39	C	2.469306	-0.166887	0.611201
C40	C	2.500539	-0.165819	0.752483
C41	C	2.107218	-0.171665	0.825332
C42	C	2.136558	-0.170657	0.958081
C43	C	1.952531	-0.157963	0.945120
C44	C	1.923190	-0.158961	0.812373
C45	C	2.600842	0.061148	0.383172
C46	C	2.559232	0.202429	0.384244
C47	C	2.600834	-0.162751	0.159263
C48	C	2.559220	-0.163812	0.017979
C49	C	2.607204	-0.604919	0.392072
C50	C	2.636544	-0.737670	0.391083
C51	C	2.452521	-0.724712	0.378406
C52	C	2.423185	-0.591965	0.379405
C53	C	2.607218	-0.171665	0.825332
C54	C	2.636558	-0.170657	0.958081
C55	C	2.452531	-0.157963	0.945120
C56	C	2.423190	-0.158961	0.812373
H57	H	2.001920	-0.752306	0.173174
N58	N	2.690619	-0.540314	0.399453
H59	H	2.715497	-0.553909	0.322907
H60	H	2.756345	-0.578623	0.481251
H61	H	2.223423	-0.175415	1.017389
N62	N	2.751619	-0.176972	1.036665
H63	H	2.747438	-0.097689	1.079684
H64	H	2.796104	-0.181514	0.978508
H65	H	1.948661	-0.511485	0.174975
N66	N	2.122954	-0.840497	0.626138
H67	H	2.139212	-0.931912	0.607776
H68	H	2.068406	-0.820830	0.672845
H69	H	2.723408	-0.796978	0.395841
H70	H	1.836314	-0.154191	0.753055
H71	H	2.389561	-0.152382	0.993899
H72	H	2.057858	-0.577326	0.597318
H73	H	2.336314	-0.154191	0.753055
N74	N	2.190638	-0.179057	0.760733
H75	H	2.262670	-0.182604	0.827031
H76	H	2.162015	-0.100597	0.693595
H77	H	2.670202	-0.177247	0.776574
N78	N	1.869111	-0.150589	1.009714
H79	H	1.803322	-0.068840	0.971440
H80	H	1.903973	-0.150904	1.104855
N81	N	2.369096	-0.789307	0.371010
H82	H	2.403863	-0.884454	0.371249
H83	H	2.303339	-0.750917	0.289256
N84	N	2.308125	-0.513383	0.373121
H85	H	2.263578	-0.571466	0.368638
H86	H	2.271480	-0.445676	0.294111
