data_functionalizedCrystal
_audit_creation_method	'MofGen! by Chris Wilmer'
_symmetry_space_group_name_H-M	'P1'
_symmetry_Int_Tables_number	1
_symmetry_cell_setting	triclinic
loop_
_symmetry_equiv_pos_as_xyz
  x,y,z
_cell_length_a	27.732064
_cell_length_b	27.731996
_cell_length_c	22.010155
_cell_angle_alpha	89.998256
_cell_angle_beta	89.999243
_cell_angle_gamma	82.635407
loop_
_atom_site_label
_atom_site_type_symbol
_atom_site_fract_x
_atom_site_fract_y
_atom_site_fract_z
O1	O	0.640915	0.057550	-0.050424
O2	O	1.140915	0.557550	0.449576
O3	O	0.500121	0.066287	-0.050451
O4	O	1.000121	0.566287	0.449549
O5	O	0.574904	-0.008480	-0.050424
O6	O	1.074904	0.491520	0.449576
O7	O	0.566132	0.132317	-0.050452
O8	O	1.066132	0.632317	0.449548
O9	O	0.574890	-0.008468	0.050627
O10	O	1.074890	0.491532	0.550627
O11	O	0.500107	0.066298	0.050600
O12	O	1.000107	0.566298	0.550600
O13	O	0.640901	0.057561	0.050626
O14	O	1.140901	0.557561	0.550626
Cu15	Cu	0.570503	0.061931	0.059839
Cu16	Cu	1.070503	0.561931	0.559839
Cu17	Cu	0.570519	0.061918	-0.059664
Cu18	Cu	1.070519	0.561918	0.440336
O19	O	0.566118	0.132328	0.050599
O20	O	1.066118	0.632328	0.550599
C21	C	0.482107	0.066108	0.000071
C22	C	0.982107	0.566108	0.500071
C23	C	0.428453	0.065552	0.000062
C24	C	0.928453	0.565552	0.500062
C25	C	0.051389	0.017584	0.000106
C26	C	0.551389	0.517584	0.500106
C27	C	0.253049	0.019630	0.000090
C28	C	0.753049	0.519630	0.500090
O29	O	0.284309	-0.017592	0.000120
O30	O	0.784309	0.482408	0.500120
N31	N	0.272168	0.063966	0.000078
N32	N	0.772168	0.563966	0.500078
C33	C	0.240869	0.107793	0.000075
C34	C	0.740869	0.607793	0.500075
O35	O	0.261758	0.145549	0.000071
O36	O	0.761758	0.645549	0.500071
C37	C	0.039210	0.105746	0.000096
C38	C	0.539210	0.605746	0.500096
C39	C	0.020094	0.061407	0.000101
C40	C	0.520094	0.561407	0.500101
C41	C	0.032272	-0.026751	0.000112
C42	C	0.532272	0.473249	0.500112
C43	C	-0.018140	-0.027262	0.000113
C44	C	0.481860	0.472738	0.500113
C45	C	-0.049435	0.016562	0.000108
C46	C	0.450565	0.516562	0.500108
C47	C	-0.030318	0.060896	0.000102
C48	C	0.469682	0.560896	0.500102
C49	C	0.007912	0.149572	0.000096
C50	C	0.507912	0.649572	0.500096
C51	C	-0.042506	0.149057	0.000103
C52	C	0.457494	0.649057	0.500103
C53	C	-0.061622	0.104718	0.000108
C54	C	0.438378	0.604718	0.500108
C55	C	-0.112026	0.104209	0.000097
C56	C	0.387974	0.604209	0.500097
N57	N	-0.131145	0.059873	0.000109
N58	N	0.368855	0.559873	0.500109
C59	C	-0.099849	0.016050	0.000114
C60	C	0.400151	0.516050	0.500114
C61	C	0.346743	0.108864	0.000063
C62	C	0.846743	0.608864	0.500063
C63	C	0.397158	0.109376	0.000057
C64	C	0.897158	0.609376	0.500057
C65	C	0.409334	0.021213	0.000073
C66	C	0.909334	0.521213	0.500073
C67	C	0.358919	0.020702	0.000075
C68	C	0.858919	0.520702	0.500075
C69	C	0.327624	0.064529	0.000075
C70	C	0.827624	0.564529	0.500075
C71	C	-0.205719	0.014980	0.000115
C72	C	0.294281	0.514980	0.500115
C73	C	-0.256136	0.014473	0.000113
C74	C	0.243864	0.514473	0.500113
C75	C	-0.268308	0.102635	0.000100
C76	C	0.231692	0.602635	0.500100
C77	C	-0.217895	0.103142	0.000099
C78	C	0.282105	0.603142	0.500099
C79	C	-0.186601	0.059311	0.000108
C80	C	0.313399	0.559311	0.500108
O81	O	-0.143313	0.141411	0.000074
O82	O	0.356687	0.641411	0.500074
O83	O	-0.120748	-0.021702	0.000131
O84	O	0.379252	0.478298	0.500131
C85	C	0.101801	0.018095	0.000105
C86	C	0.601801	0.518095	0.500105
C87	C	0.120918	0.062430	0.000099
C88	C	0.620918	0.562430	0.500099
C89	C	0.089623	0.106253	0.000094
C90	C	0.589623	0.606253	0.500094
C91	C	0.171332	0.062941	0.000093
C92	C	0.671332	0.562941	0.500093
C93	C	0.202628	0.019118	0.000098
C94	C	0.702628	0.519118	0.500098
C95	C	0.183508	-0.025218	0.000110
C96	C	0.683508	0.474782	0.500110
C97	C	0.133096	-0.025729	0.000111
C98	C	0.633096	0.474271	0.500111
C99	C	0.108742	0.150589	0.000083
C100	C	0.608742	0.650589	0.500083
C101	C	0.159154	0.151096	0.000081
C102	C	0.659154	0.651096	0.500081
C103	C	0.190450	0.107273	0.000086
C104	C	0.690450	0.607273	0.500086
C105	C	0.574717	-0.026481	0.000104
C106	C	1.074717	0.473519	0.500104
C107	C	0.574174	-0.080138	0.000110
C108	C	1.074174	0.419862	0.500110
C109	C	0.570767	-0.412860	-0.055003
C110	C	1.070767	0.087140	0.444997
C111	C	0.568706	-0.614519	-0.055014
C112	C	1.068706	-0.114519	0.444986
O113	O	0.568425	-0.640595	-0.101860
O114	O	1.068425	-0.140595	0.398140
N115	N	0.568442	-0.639730	0.000068
N116	N	1.068442	-0.139730	0.500068
C117	C	0.568691	-0.614523	0.055156
C118	C	1.068691	-0.114523	0.555156
O119	O	0.568415	-0.640593	0.102007
O120	O	1.068415	-0.140593	0.602007
C121	C	0.570748	-0.412865	0.055167
C122	C	1.070748	0.087135	0.555167
C123	C	0.571017	-0.387657	0.000081
C124	C	1.071017	0.112343	0.500081
C125	C	0.571034	-0.387653	-0.110084
C126	C	1.071034	0.112347	0.389916
C127	C	0.571552	-0.337241	-0.110081
C128	C	1.071552	0.162759	0.389919
C129	C	0.571802	-0.312038	-0.054997
C130	C	1.071802	0.187962	0.445003
C131	C	0.571535	-0.337246	0.000085
C132	C	1.071535	0.162754	0.500085
C133	C	0.570994	-0.387658	0.110255
C134	C	1.070994	0.112342	0.610255
C135	C	0.571507	-0.337240	0.110253
C136	C	1.071507	0.162760	0.610253
C137	C	0.571775	-0.312033	0.055167
C138	C	1.071775	0.187967	0.555167
C139	C	0.572303	-0.261631	0.055172
C140	C	1.072303	0.238369	0.555172
N141	N	0.572566	-0.236420	0.000090
N142	N	1.072566	0.263580	0.500090
C143	C	0.572316	-0.261624	-0.054994
C144	C	1.072316	0.238376	0.445006
C145	C	0.567612	-0.720396	0.055147
C146	C	1.067612	-0.220396	0.555147
C147	C	0.567098	-0.770810	0.055145
C148	C	1.067098	-0.270810	0.555145
C149	C	0.567112	-0.770803	-0.055026
C150	C	1.067112	-0.270803	0.444974
C151	C	0.567629	-0.720388	-0.055023
C152	C	1.067629	-0.220388	0.444977
C153	C	0.567875	-0.695185	0.000065
C154	C	1.067875	-0.195185	0.500065
C155	C	0.573404	-0.155757	-0.054983
C156	C	1.073404	0.344243	0.445017
C157	C	0.573924	-0.105341	-0.054975
C158	C	1.073924	0.394659	0.445025
C159	C	0.573907	-0.105353	0.055196
C160	C	1.073907	0.394647	0.555196
C161	C	0.573390	-0.155764	0.055188
C162	C	1.073390	0.344236	0.555188
C163	C	0.573137	-0.180964	0.000094
C164	C	1.073137	0.319036	0.500094
O165	O	0.572578	-0.235524	0.101994
O166	O	1.072578	0.264476	0.601994
O167	O	0.572581	-0.235543	-0.101837
O168	O	1.072581	0.264457	0.398163
C169	C	0.570249	-0.463272	-0.055006
C170	C	1.070249	0.036728	0.444994
C171	C	0.569981	-0.488479	0.000075
C172	C	1.069981	0.011521	0.500075
C173	C	0.570231	-0.463276	0.055159
C174	C	1.070231	0.036724	0.555159
C175	C	0.569467	-0.538894	0.000072
C176	C	1.069467	-0.038894	0.500072
C177	C	0.569217	-0.564097	-0.055012
C178	C	1.069217	-0.064097	0.444988
C179	C	0.569481	-0.538886	-0.110094
C180	C	1.069481	-0.038886	0.389906
C181	C	0.569999	-0.488475	-0.110091
C182	C	1.069999	0.011525	0.389909
C183	C	0.569968	-0.488487	0.110241
C184	C	1.069968	0.011513	0.610241
C185	C	0.569450	-0.538898	0.110233
C186	C	1.069450	-0.038898	0.610233
C187	C	0.569200	-0.564102	0.055149
C188	C	1.069200	-0.064102	0.555149
C189	C	0.658915	0.057740	0.000102
C190	C	1.158915	0.557740	0.500102
C191	C	0.712569	0.058296	0.000108
C192	C	1.212569	0.558296	0.500108
C193	C	0.566305	0.150330	0.000070
C194	C	1.066305	0.650330	0.500070
C195	C	0.566848	0.203986	0.000060
C196	C	1.066848	0.703986	0.500060
N197	N	0.570495	0.061940	0.143892
N198	N	1.070495	0.561940	0.643892
N199	N	0.570531	0.061905	-0.143717
N200	N	1.070531	0.561905	0.356283
C201	C	0.603635	0.028815	0.563683
C202	C	1.103635	0.528815	1.063683
C203	C	0.603637	0.028812	0.627291
C204	C	1.103637	0.528812	1.127291
O205	O	0.631794	0.000655	0.660193
O206	O	1.131794	0.500655	1.160193
N207	N	0.570519	0.061907	0.659099
N208	N	1.070519	0.561907	1.159099
C209	C	0.537393	0.095005	0.627296
C210	C	1.037393	0.595005	1.127296
O211	O	0.509223	0.123155	0.660192
O212	O	1.009223	0.623155	1.160192
C213	C	0.537389	0.095006	0.563690
C214	C	1.037389	0.595006	1.063690
C215	C	0.570512	0.061911	0.531885
C216	C	1.070512	0.561911	1.031885
C217	C	0.636755	-0.004277	0.531878
C218	C	1.136755	0.495723	1.031878
C219	C	0.636753	-0.004272	0.468275
C220	C	1.136753	0.495728	0.968275
C221	C	0.603631	0.028824	0.436477
C222	C	1.103631	0.528824	0.936477
C223	C	0.570511	0.061915	0.468282
C224	C	1.070511	0.561915	0.968282
C225	C	0.504261	0.128101	0.531888
C226	C	1.004261	0.628101	1.031888
C227	C	0.504259	0.128098	0.468278
C228	C	1.004259	0.628098	0.968278
C229	C	0.537383	0.095004	0.436473
C230	C	1.037383	0.595004	0.936473
C231	C	0.537386	0.095016	0.372880
C232	C	1.037386	0.595016	0.872880
N233	N	0.570505	0.061920	0.341072
N234	N	1.070505	0.561920	0.841072
C235	C	0.603627	0.028824	0.372870
C236	C	1.103627	0.528824	0.872870
C237	C	0.537404	0.095001	0.760874
C238	C	1.037404	0.595001	1.260874
C239	C	0.537410	0.095003	0.824479
C240	C	1.037410	0.595003	1.324479
C241	C	0.603653	0.028809	0.824470
C242	C	1.103653	0.528809	1.324470
C243	C	0.603649	0.028810	0.760863
C244	C	1.103649	0.528810	1.260863
C245	C	0.570522	0.061905	0.729066
C246	C	1.070522	0.561905	1.229066
C247	C	0.603621	0.028835	0.239299
C248	C	1.103621	0.528835	0.739299
C249	C	0.603618	0.028844	0.175690
C250	C	1.103618	0.528844	0.675690
C251	C	0.537372	0.095036	0.175706
C252	C	1.037372	0.595036	0.675706
C253	C	0.537377	0.095029	0.239309
C254	C	1.037377	0.595029	0.739309
C255	C	0.570503	0.061925	0.271104
C256	C	1.070503	0.561925	0.771104
O257	O	0.509242	0.123157	0.339938
O258	O	1.009242	0.623157	0.839938
O259	O	0.631788	0.000675	0.339967
O260	O	1.131788	0.500675	0.839967
H261	H	-0.293798	0.138315	0.000093
H262	H	0.206202	0.638315	0.500093
O263	O	0.312994	0.156139	0.000057
O264	O	0.812994	0.656139	0.500057
H265	H	0.289739	0.158026	0.041249
H266	H	0.789739	0.658026	0.541249
H267	H	0.630592	0.001894	0.149797
H268	H	1.130592	0.501894	0.649797
H269	H	0.343358	-0.015402	0.000080
H270	H	0.843358	0.484598	0.500080
O271	O	0.570243	-0.461313	0.169660
O272	O	1.070243	0.038687	0.669660
H273	H	0.537519	-0.433789	0.172305
H274	H	1.037519	0.066211	0.672305
H275	H	0.574113	-0.084823	0.100044
H276	H	1.074113	0.415177	0.600044
H277	H	0.630623	0.001860	0.850371
H278	H	1.130623	0.501860	1.350371
H279	H	0.663724	-0.031222	0.442383
H280	H	1.163724	0.468778	0.942383
O281	O	-0.197274	0.150963	0.000093
O282	O	0.302726	0.650963	0.500093
H283	H	-0.209870	0.172003	-0.041094
H284	H	0.290130	0.672003	0.458906
O285	O	0.468543	0.163814	0.566169
O286	O	0.968543	0.663814	1.066169
H287	H	0.430908	0.157919	0.553965
H288	H	0.930908	0.657919	1.053965
O289	O	0.672489	-0.039975	0.566163
O290	O	1.172489	0.460025	1.066163
H291	H	0.652335	-0.063342	0.595143
H292	H	1.152335	0.436658	1.095143
O293	O	0.468531	0.163797	0.433981
O294	O	0.968531	0.663797	0.933981
H295	H	0.445505	0.186810	0.466787
H296	H	0.945505	0.686810	0.966787
O297	O	0.570699	-0.414839	0.169669
O298	O	1.070699	0.085161	0.669669
H299	H	0.570952	-0.388835	0.207967
H300	H	1.070952	0.111165	0.707967
O301	O	0.028523	0.197394	0.000106
O302	O	0.528523	0.697394	0.500106
H303	H	-0.001716	0.227777	0.000116
H304	H	0.498284	0.727777	0.500116
O305	O	0.570764	-0.414834	-0.169500
O306	O	1.070764	0.085166	0.330500
H307	H	0.537569	-0.433244	-0.172148
H308	H	1.037569	0.066756	0.327852
O309	O	0.217269	-0.072485	0.000124
O310	O	0.717269	0.427515	0.500124
H311	H	0.240534	-0.074363	-0.041059
H312	H	0.740534	0.425637	0.458941
O313	O	0.574211	-0.078155	-0.114393
O314	O	1.074211	0.421845	0.385607
H315	H	0.574618	-0.038865	-0.105141
H316	H	1.074618	0.461135	0.394859
O317	O	0.569160	-0.566085	0.169651
O318	O	1.069160	-0.066085	0.669651
H319	H	0.569416	-0.540084	0.207951
H320	H	1.069416	-0.040084	0.707951
O321	O	0.573126	-0.182933	-0.114404
O322	O	1.073126	0.317067	0.385596
H323	H	0.573401	-0.156929	-0.152700
H324	H	1.073401	0.343071	0.347300
H325	H	0.569279	-0.559416	-0.154946
H326	H	1.069279	-0.059416	0.345054
O327	O	0.501700	0.130712	0.858782
O328	O	1.001700	0.630712	1.358782
H329	H	0.478672	0.153727	0.825978
H330	H	0.978672	0.653727	1.325978
H331	H	0.630621	0.001861	0.734971
H332	H	1.130621	0.501861	1.234971
H333	H	0.510410	0.121982	0.265205
H334	H	1.010410	0.621982	0.765205
H335	H	0.566887	-0.791331	0.100001
H336	H	1.066887	-0.291331	0.600001
O337	O	-0.076261	0.196328	0.000100
O338	O	0.423739	0.696328	0.500100
H339	H	-0.054494	0.227241	0.000090
H340	H	0.445506	0.727241	0.500090
O341	O	0.567911	-0.693204	-0.114439
O342	O	1.067911	-0.193204	0.385561
H343	H	0.601104	-0.674790	-0.117075
H344	H	1.101104	-0.174790	0.382925
O345	O	0.571778	-0.310061	0.169673
O346	O	1.071778	0.189939	0.669673
H347	H	0.539053	-0.282538	0.172309
H348	H	1.039053	0.217462	0.672309
O349	O	0.573102	-0.182958	0.114599
O350	O	1.073102	0.317042	0.614599
H351	H	0.573361	-0.156960	0.152903
H352	H	1.073361	0.343040	0.652903
O353	O	0.571829	-0.310053	-0.169495
O354	O	1.071829	0.189947	0.330505
H355	H	0.571560	-0.336054	-0.207793
H356	H	1.071560	0.163946	0.292207
H357	H	0.570217	-0.467955	-0.154947
H358	H	1.070217	0.032045	0.345053
O359	O	0.639356	-0.006864	0.273585
O360	O	1.139356	0.493136	0.773585
H361	H	0.633495	-0.044506	0.261369
H362	H	1.133495	0.455494	0.761369
H363	H	-0.271697	-0.021635	0.000116
H364	H	0.228303	0.478365	0.500116
O365	O	0.501678	0.130705	0.726579
O366	O	1.001678	0.630705	1.226579
H367	H	0.478656	0.153719	0.759388
H368	H	0.978656	0.653719	1.259388
H369	H	0.174713	0.187204	0.000073
H370	H	0.674713	0.687204	0.500073
H371	H	0.566909	-0.791332	-0.099878
H372	H	1.066909	-0.291332	0.400122
O373	O	0.074993	0.197860	0.000073
O374	O	0.574993	0.697860	0.500073
H375	H	0.051735	0.199747	0.041262
H376	H	0.551735	0.699747	0.541262
O377	O	0.501636	0.130720	0.141404
O378	O	1.001636	0.630720	0.641404
H379	H	0.507195	0.125151	0.091832
H380	H	1.007195	0.625151	0.591832
H381	H	-0.033699	-0.063367	0.000120
H382	H	0.466301	0.436633	0.500120
O383	O	0.567888	-0.693216	0.114567
O384	O	1.067888	-0.193216	0.614567
H385	H	0.567625	-0.719223	0.152863
H386	H	1.067625	-0.219223	0.652863
H387	H	-0.180245	-0.020712	0.000122
H388	H	0.319755	0.479288	0.500122
O389	O	0.066024	-0.074022	0.000117
O390	O	0.566024	0.425978	0.500117
H391	H	0.044252	-0.104931	0.000119
H392	H	0.544252	0.395069	0.500119
H393	H	0.117537	-0.061833	0.000115
H394	H	0.617537	0.438167	0.500115
O395	O	0.443092	-0.026056	0.000087
O396	O	0.943092	0.473944	0.500087
H397	H	0.481359	-0.018246	0.000089
H398	H	0.981359	0.481754	0.500089
H399	H	0.412717	0.145480	0.000044
H400	H	0.912717	0.645480	0.500044
