data_functionalizedCrystal
_audit_creation_method	'MofGen! by Chris Wilmer'
_symmetry_space_group_name_H-M	'P1'
_symmetry_Int_Tables_number	1
_symmetry_cell_setting	triclinic
loop_
_symmetry_equiv_pos_as_xyz
  x,y,z
_cell_length_a	13.032831
_cell_length_b	13.897448
_cell_length_c	13.034296
_cell_angle_alpha	82.788857
_cell_angle_beta	74.814550
_cell_angle_gamma	82.822399
loop_
_atom_site_label
_atom_site_type_symbol
_atom_site_fract_x
_atom_site_fract_y
_atom_site_fract_z
Zn1	Zn	1.700198	-0.489003	-0.806452
Zn2	Zn	2.200198	0.010997	-0.306452
Zn3	Zn	1.677511	-0.668493	-0.628822
Zn4	Zn	2.177511	-0.168493	-0.128822
Zn5	Zn	1.500001	-0.489012	-0.606333
Zn6	Zn	2.000001	0.010988	-0.106333
Zn7	Zn	1.522543	-0.632049	-0.783876
Zn8	Zn	2.022543	-0.132049	-0.283876
O9	O	1.600064	-0.569639	-0.706371
O10	O	2.100064	-0.069639	-0.206371
O11	O	1.845827	-0.528060	-0.801749
O12	O	2.345827	-0.028060	-0.301749
O13	O	1.635036	-0.659939	-0.477198
O14	O	2.135036	-0.159939	0.022802
O15	O	1.526619	-0.354032	-0.632915
O16	O	2.026619	0.145968	-0.132915
O17	O	1.829159	-0.659931	-0.671245
O18	O	2.329159	-0.159931	-0.171245
O19	O	1.673703	-0.354025	-0.779942
O20	O	2.173703	0.145975	-0.279942
O21	O	1.504620	-0.528076	-0.460675
O22	O	2.004620	-0.028076	0.039325
O23	O	1.354354	-0.492738	-0.611024
O24	O	1.854354	0.007262	-0.111024
O25	O	1.565037	-0.597819	-0.935512
O26	O	2.065037	-0.097819	-0.435512
O27	O	1.370915	-0.597827	-0.741464
O28	O	1.870915	-0.097827	-0.241464
O29	O	1.695560	-0.492723	-0.952098
O30	O	2.195560	0.007277	-0.452098
O31	O	1.656894	-0.798637	-0.649354
O32	O	2.156894	-0.298637	-0.149354
O33	O	1.543039	-0.771862	-0.763271
O34	O	2.043039	-0.271862	-0.263271
C35	C	1.324094	-0.541330	-0.671355
C36	C	1.824094	-0.041330	-0.171355
C37	C	1.206036	-0.529240	-0.656400
C38	C	1.706036	-0.029240	-0.156400
C39	C	1.161612	-0.575949	-0.714176
C40	C	1.661612	-0.075949	-0.214176
C41	C	1.039593	-0.563455	-0.698721
C42	C	1.539593	-0.063455	-0.198721
C43	C	1.599982	-0.820249	-0.706330
C44	C	2.099982	-0.320249	-0.206330
C45	C	1.600049	-0.927467	-0.706361
C46	C	2.100049	-0.427467	-0.206361
C47	C	1.600169	-1.123767	-0.706441
C48	C	2.100169	-0.623767	-0.206441
C49	C	1.600100	-1.014531	-0.706399
C50	C	2.100100	-0.514531	-0.206399
C51	C	1.877111	-0.598060	-0.741524
C52	C	2.377111	-0.098060	-0.241524
C53	C	1.995172	-0.610171	-0.756504
C54	C	2.495172	-0.110171	-0.256504
C55	C	1.635344	-0.541205	-0.983423
C56	C	2.135344	-0.041205	-0.483423
C57	C	1.650378	-0.529088	-1.101487
C58	C	2.150378	-0.029088	-0.601487
C59	C	1.600177	-0.318052	-0.706438
C60	C	2.100177	0.181948	-0.206438
C61	C	1.600226	-0.210840	-0.706467
C62	C	2.100226	0.289160	-0.206467
C63	C	1.592501	-0.575685	-1.145916
C64	C	2.092501	-0.075685	-0.645916
C65	C	1.608038	-0.563162	-1.267941
C66	C	2.108038	-0.063162	-0.767941
C67	C	1.564982	-0.597900	-0.430403
C68	C	2.064982	-0.097900	0.069597
C69	C	1.550153	-0.609766	-0.312367
C70	C	2.050153	-0.109766	0.187633
H71	H	0.987296	-0.514207	-0.637815
H72	H	1.487296	-0.014207	-0.137815
Cl73	Cl	1.455892	-0.685688	-1.231635
Cl74	Cl	1.955892	-0.185688	-0.731635
Cl75	Cl	1.744650	-0.453185	-1.182227
Cl76	Cl	2.244650	0.046815	-0.682227
H77	H	1.213913	-0.625186	-0.775084
H78	H	1.713913	-0.125186	-0.275084
H79	H	1.153736	-0.479995	-0.595499
H80	H	1.653736	0.020005	-0.095499
H81	H	1.047468	-0.659408	-0.817420
H82	H	1.547468	-0.159408	-0.317420
H83	H	1.669100	-0.513998	-1.320238
H84	H	2.169100	-0.013998	-0.820238
Cl85	Cl	1.498238	-0.651596	-1.065178
Cl86	Cl	1.998238	-0.151596	-0.565178
