data_functionalizedCrystal
_audit_creation_method	'MofGen! by Chris Wilmer'
_symmetry_space_group_name_H-M	'P1'
_symmetry_Int_Tables_number	1
_symmetry_cell_setting	triclinic
loop_
_symmetry_equiv_pos_as_xyz
  x,y,z
_cell_length_a	15.944551
_cell_length_b	14.519709
_cell_length_c	13.596369
_cell_angle_alpha	90.000291
_cell_angle_beta	90.006941
_cell_angle_gamma	96.410558
loop_
_atom_site_label
_atom_site_type_symbol
_atom_site_fract_x
_atom_site_fract_y
_atom_site_fract_z
O1	O	0.110109	-1.223676	0.081665
O2	O	0.360109	-0.973676	0.331665
O3	O	0.610109	-0.723676	0.581665
O4	O	0.860109	-0.473676	0.831665
O5	O	0.123076	-0.955176	0.081696
O6	O	0.373076	-0.705176	0.331696
O7	O	0.623076	-0.455176	0.581696
O8	O	0.873076	-0.205176	0.831696
O9	O	-0.005672	-1.096758	0.081671
O10	O	0.244328	-0.846758	0.331671
O11	O	0.494328	-0.596758	0.581671
O12	O	0.744328	-0.346758	0.831671
O13	O	0.238856	-1.082094	0.081690
O14	O	0.488856	-0.832094	0.331690
O15	O	0.738856	-0.582094	0.581690
O16	O	0.988856	-0.332094	0.831690
O17	O	-0.005679	-1.096744	-0.081912
O18	O	0.244321	-0.846744	0.168088
O19	O	0.494321	-0.596744	0.418088
O20	O	0.744321	-0.346744	0.668088
O21	O	0.123069	-0.955162	-0.081887
O22	O	0.373069	-0.705162	0.168113
O23	O	0.623069	-0.455162	0.418113
O24	O	0.873069	-0.205162	0.668113
O25	O	0.110102	-1.223662	-0.081917
O26	O	0.360102	-0.973662	0.168083
O27	O	0.610102	-0.723662	0.418083
O28	O	0.860102	-0.473662	0.668083
Zn29	Zn	0.116584	-1.089410	-0.107875
Zn30	Zn	0.366584	-0.839410	0.142125
Zn31	Zn	0.616584	-0.589410	0.392125
Zn32	Zn	0.866584	-0.339410	0.642125
Zn33	Zn	0.116593	-1.089428	0.107653
Zn34	Zn	0.366593	-0.839428	0.357653
Zn35	Zn	0.616593	-0.589428	0.607653
Zn36	Zn	0.866593	-0.339428	0.857653
O37	O	0.238850	-1.082080	-0.081893
O38	O	0.488850	-0.832080	0.168107
O39	O	0.738850	-0.582080	0.418107
O40	O	0.988850	-0.332080	0.668107
C41	C	0.122468	-0.920810	-0.000092
C42	C	0.372468	-0.670810	0.249908
C43	C	0.622468	-0.420810	0.499908
C44	C	0.872468	-0.170810	0.749908
C45	C	0.120657	-0.818432	-0.000081
C46	C	0.370657	-0.568432	0.249919
C47	C	0.620657	-0.318432	0.499919
C48	C	0.870657	-0.068432	0.749919
C49	C	-0.036970	-1.096142	-0.000121
C50	C	0.213030	-0.846142	0.249879
C51	C	0.463030	-0.596142	0.499879
C52	C	0.713030	-0.346142	0.749879
C53	C	-0.130219	-1.094317	-0.000121
C54	C	0.119781	-0.844317	0.249879
C55	C	0.369781	-0.594317	0.499879
C56	C	0.619781	-0.344317	0.749879
C57	C	0.110710	-1.258028	-0.000128
C58	C	0.360710	-1.008028	0.249872
C59	C	0.610710	-0.758028	0.499872
C60	C	0.860710	-0.508028	0.749872
C61	C	0.112521	-1.360406	-0.000132
C62	C	0.362521	-1.110406	0.249868
C63	C	0.612521	-0.860406	0.499868
C64	C	0.862521	-0.610406	0.749868
C65	C	-0.345209	-1.002196	-0.000097
C66	C	-0.095209	-0.752196	0.249903
C67	C	0.154791	-0.502196	0.499903
C68	C	0.404791	-0.252196	0.749903
C69	C	-0.406168	-1.044967	-0.080758
C70	C	-0.156168	-0.794967	0.169242
C71	C	0.093832	-0.544967	0.419242
C72	C	0.343832	-0.294967	0.669242
C73	C	-0.300950	-1.091015	-0.000113
C74	C	-0.050950	-0.841015	0.249887
C75	C	0.199050	-0.591015	0.499887
C76	C	0.449050	-0.341015	0.749887
C77	C	-0.406144	-1.045002	0.080522
C78	C	-0.156144	-0.795002	0.330522
C79	C	0.093856	-0.545002	0.580522
C80	C	0.343856	-0.295002	0.830522
C81	C	-0.465867	-1.087820	-0.000101
C82	C	-0.215867	-0.837820	0.249899
C83	C	0.034133	-0.587820	0.499899
C84	C	0.284133	-0.337820	0.749899
C85	C	-0.360680	-1.133811	-0.080841
C86	C	-0.110680	-0.883811	0.169159
C87	C	0.139320	-0.633811	0.419159
C88	C	0.389320	-0.383811	0.669159
C89	C	-0.360650	-1.133833	0.080512
C90	C	-0.110650	-0.883833	0.330512
C91	C	0.139350	-0.633833	0.580512
C92	C	0.389350	-0.383833	0.830512
C93	C	-0.421591	-1.176669	-0.000169
C94	C	-0.171591	-0.926669	0.249831
C95	C	0.078409	-0.676669	0.499831
C96	C	0.328409	-0.426669	0.749831
C97	C	-0.205945	-1.092854	-0.000121
C98	C	0.044055	-0.842854	0.249879
C99	C	0.294055	-0.592854	0.499879
C100	C	0.544055	-0.342854	0.749879
C101	C	-0.560871	-1.085988	-0.000100
C102	C	-0.310871	-0.835988	0.249900
C103	C	-0.060871	-0.585988	0.499900
C104	C	0.189129	-0.335988	0.749900
C105	C	0.270148	-1.082696	-0.000099
C106	C	0.520148	-0.832696	0.249901
C107	C	0.770148	-0.582696	0.499901
C108	C	1.020148	-0.332696	0.749901
C109	C	0.363397	-1.084521	-0.000092
C110	C	0.613397	-0.834521	0.249908
C111	C	0.863397	-0.584521	0.499908
C112	C	1.113397	-0.334521	0.749908
N113	N	0.116578	-1.089404	-0.254966
N114	N	0.366578	-0.839404	-0.004966
N115	N	0.616578	-0.589404	0.245034
N116	N	0.866578	-0.339404	0.495034
C117	C	0.113990	-0.443548	-0.000126
C118	C	0.363990	-0.193548	0.249874
C119	C	0.613990	0.056452	0.499874
C120	C	0.863990	0.306452	0.749874
C121	C	0.115842	-0.547853	-0.000113
C122	C	0.365842	-0.297853	0.249887
C123	C	0.615842	-0.047853	0.499887
C124	C	0.865842	0.202147	0.749887
C125	C	0.117323	-0.630987	-0.000102
C126	C	0.367323	-0.380987	0.249898
C127	C	0.617323	-0.130987	0.499898
C128	C	0.867323	0.119013	0.749898
C129	C	0.119175	-0.735298	-0.000091
C130	C	0.369175	-0.485298	0.249909
C131	C	0.619175	-0.235298	0.499909
C132	C	0.869175	0.014702	0.749909
C133	C	0.116594	-1.089427	-0.656257
C134	C	0.366594	-0.839427	-0.406257
C135	C	0.616594	-0.589427	-0.156257
C136	C	0.866594	-0.339427	0.093743
C137	C	0.116592	-1.089418	-0.544606
C138	C	0.366592	-0.839418	-0.294606
C139	C	0.616592	-0.589418	-0.044606
C140	C	0.866592	-0.339418	0.205394
C141	C	0.116587	-1.089416	-0.455615
C142	C	0.366587	-0.839416	-0.205615
C143	C	0.616587	-0.589416	0.044385
C144	C	0.866587	-0.339416	0.294385
C145	C	0.116584	-1.089406	-0.343957
C146	C	0.366584	-0.839406	-0.093957
C147	C	0.616584	-0.589406	0.156043
C148	C	0.866584	-0.339406	0.406043
N149	N	0.116593	-1.089442	0.254745
N150	N	0.366593	-0.839442	0.504745
N151	N	0.616593	-0.589442	0.754745
N152	N	0.866593	-0.339442	1.004745
H153	H	-0.312009	-0.928471	-0.000169
H154	H	-0.062009	-0.678471	0.249831
H155	H	0.187991	-0.428471	0.499831
H156	H	0.437991	-0.178471	0.749831
Cl157	Cl	-0.437243	-0.986986	0.185798
Cl158	Cl	-0.187243	-0.736986	0.435798
Cl159	Cl	0.062757	-0.486986	0.685798
Cl160	Cl	0.312757	-0.236986	0.935798
Cl161	Cl	-0.329742	-1.191757	-0.186241
Cl162	Cl	-0.079742	-0.941757	0.063759
Cl163	Cl	0.170258	-0.691757	0.313759
Cl164	Cl	0.420258	-0.441757	0.563759
H165	H	-0.426333	-1.007394	-0.148942
H166	H	-0.176333	-0.757394	0.101058
H167	H	0.073667	-0.507394	0.351058
H168	H	0.323667	-0.257394	0.601058
H169	H	-0.340463	-1.171374	0.148699
H170	H	-0.090463	-0.921374	0.398699
H171	H	0.159537	-0.671374	0.648699
H172	H	0.409537	-0.421374	0.898699
H173	H	-0.454643	-1.250458	-0.000223
H174	H	-0.204643	-1.000458	0.249777
H175	H	0.045357	-0.750458	0.499777
H176	H	0.295357	-0.500458	0.749777
