data_functionalizedCrystal
_audit_creation_method	'MofGen! by Chris Wilmer'
_symmetry_space_group_name_H-M	'P1'
_symmetry_Int_Tables_number	1
_symmetry_cell_setting	triclinic
loop_
_symmetry_equiv_pos_as_xyz
  x,y,z
_cell_length_a	25.639242
_cell_length_b	25.639240
_cell_length_c	25.639234
_cell_angle_alpha	89.980434
_cell_angle_beta	89.973005
_cell_angle_gamma	90.027587
loop_
_atom_site_label
_atom_site_type_symbol
_atom_site_fract_x
_atom_site_fract_y
_atom_site_fract_z
Zn1	Zn	0.799274	-0.208247	-0.295760
Zn2	Zn	1.049274	0.041753	-0.045760
Zn3	Zn	1.299274	0.291753	0.204240
Zn4	Zn	1.549274	0.541753	0.454240
Zn5	Zn	0.799200	-0.295674	-0.208332
Zn6	Zn	1.049200	-0.045674	0.041668
Zn7	Zn	1.299200	0.204326	0.291668
Zn8	Zn	1.549200	0.454326	0.541668
Zn9	Zn	0.711843	-0.208248	-0.208325
Zn10	Zn	0.961843	0.041752	0.041675
Zn11	Zn	1.211843	0.291752	0.291675
Zn12	Zn	1.461843	0.541752	0.541675
Zn13	Zn	0.711806	-0.295646	-0.295722
Zn14	Zn	0.961806	-0.045646	-0.045722
Zn15	Zn	1.211806	0.204354	0.204278
Zn16	Zn	1.461806	0.454354	0.454278
O17	O	0.755531	-0.251954	-0.252035
O18	O	1.005531	-0.001954	-0.002035
O19	O	1.255531	0.248046	0.247965
O20	O	1.505531	0.498046	0.497965
O21	O	0.872429	-0.219855	-0.284182
O22	O	1.122429	0.030145	-0.034182
O23	O	1.372429	0.280145	0.215818
O24	O	1.622429	0.530145	0.465818
O25	O	0.787597	-0.284089	-0.135166
O26	O	1.037597	-0.034089	0.114834
O27	O	1.287597	0.215911	0.364834
O28	O	1.537597	0.465911	0.614834
O29	O	0.723487	-0.135083	-0.219936
O30	O	0.973487	0.114917	0.030064
O31	O	1.223487	0.364917	0.280064
O32	O	1.473487	0.614917	0.530064
O33	O	0.872375	-0.284088	-0.219949
O34	O	1.122375	-0.034088	0.030051
O35	O	1.372375	0.215912	0.280051
O36	O	1.622375	0.465912	0.530051
O37	O	0.787723	-0.135082	-0.284175
O38	O	1.037723	0.114918	-0.034175
O39	O	1.287723	0.364918	0.215825
O40	O	1.537723	0.614918	0.465825
O41	O	0.723416	-0.219858	-0.135160
O42	O	0.973416	0.030142	0.114840
O43	O	1.223416	0.280142	0.364840
O44	O	1.473416	0.530142	0.614840
O45	O	0.638673	-0.219830	-0.219899
O46	O	0.888673	0.030170	0.030101
O47	O	1.138673	0.280170	0.280101
O48	O	1.388673	0.530170	0.530101
O49	O	0.723424	-0.284040	-0.368893
O50	O	0.973424	-0.034040	-0.118893
O51	O	1.223424	0.215960	0.131107
O52	O	1.473424	0.465960	0.381107
O53	O	0.638645	-0.284041	-0.284110
O54	O	0.888645	-0.034041	-0.034110
O55	O	1.138645	0.215959	0.215890
O56	O	1.388645	0.465959	0.465890
O57	O	0.787686	-0.219828	-0.368921
O58	O	1.037686	0.030172	-0.118921
O59	O	1.287686	0.280172	0.131079
O60	O	1.537686	0.530172	0.381079
O61	O	0.787561	-0.368836	-0.219912
O62	O	1.037561	-0.118836	0.030088
O63	O	1.287561	0.131164	0.280088
O64	O	1.537561	0.381164	0.530088
O65	O	0.723352	-0.368815	-0.284117
O66	O	0.973352	-0.118815	-0.034117
O67	O	1.223352	0.131185	0.215883
O68	O	1.473352	0.381185	0.465883
C69	C	0.619688	-0.251933	-0.252000
C70	C	0.869688	-0.001933	-0.002000
C71	C	1.119688	0.248067	0.248000
C72	C	1.369688	0.498067	0.498000
C73	C	0.561574	-0.251937	-0.251997
C74	C	0.811574	-0.001937	-0.001997
C75	C	1.061574	0.248063	0.248003
C76	C	1.311574	0.498063	0.498003
C77	C	0.755459	-0.387796	-0.252023
C78	C	1.005459	-0.137796	-0.002023
C79	C	1.255459	0.112204	0.247977
C80	C	1.505459	0.362204	0.497977
C81	C	0.755475	-0.445910	-0.252035
C82	C	1.005475	-0.195910	-0.002035
C83	C	1.255475	0.054090	0.247965
C84	C	1.505475	0.304090	0.497965
C85	C	0.201206	-0.285444	-0.285438
C86	C	0.451206	-0.035444	-0.035438
C87	C	0.701206	0.214556	0.214562
C88	C	0.951206	0.464556	0.464562
C89	C	0.146601	-0.285447	-0.285446
C90	C	0.396601	-0.035447	-0.035446
C91	C	0.646601	0.214553	0.214554
C92	C	0.896601	0.464553	0.464554
O93	O	0.118360	-0.313911	-0.313849
O94	O	0.368360	-0.063911	-0.063849
O95	O	0.618360	0.186089	0.186151
O96	O	0.868360	0.436089	0.436151
N97	N	0.119292	-0.251968	-0.252069
N98	N	0.369292	-0.001968	-0.002069
N99	N	0.619292	0.248032	0.247931
N100	N	0.869292	0.498032	0.497931
C101	C	0.146589	-0.218480	-0.218685
C102	C	0.396589	0.031520	0.031315
C103	C	0.646589	0.281520	0.281315
C104	C	0.896589	0.531520	0.531315
O105	O	0.118346	-0.190003	-0.190297
O106	O	0.368346	0.059997	0.059703
O107	O	0.618346	0.309997	0.309703
O108	O	0.868346	0.559997	0.559703
C109	C	0.201192	-0.218474	-0.218680
C110	C	0.451192	0.031526	0.031320
C111	C	0.701192	0.281526	0.281320
C112	C	0.951192	0.531526	0.531320
C113	C	0.228499	-0.251959	-0.252056
C114	C	0.478499	-0.001959	-0.002056
C115	C	0.728499	0.248041	0.247944
C116	C	0.978499	0.498041	0.497944
C117	C	0.228513	-0.318926	-0.318811
C118	C	0.478513	-0.068926	-0.068811
C119	C	0.728513	0.181074	0.181189
C120	C	0.978513	0.431074	0.431189
C121	C	0.283113	-0.318924	-0.318802
C122	C	0.533113	-0.068924	-0.068802
C123	C	0.783113	0.181076	0.181198
C124	C	1.033113	0.431076	0.431198
C125	C	0.310407	-0.285439	-0.285420
C126	C	0.560407	-0.035439	-0.035420
C127	C	0.810407	0.214561	0.214580
C128	C	1.060407	0.464561	0.464580
C129	C	0.283100	-0.251957	-0.252047
C130	C	0.533100	-0.001957	-0.002047
C131	C	0.783100	0.248043	0.247953
C132	C	1.033100	0.498043	0.497953
C133	C	0.228489	-0.184983	-0.185300
C134	C	0.478489	0.065017	0.064700
C135	C	0.728489	0.315017	0.314700
C136	C	0.978489	0.565017	0.564700
C137	C	0.283096	-0.184981	-0.185297
C138	C	0.533096	0.065019	0.064703
C139	C	0.783096	0.315019	0.314703
C140	C	1.033096	0.565019	0.564703
C141	C	0.310403	-0.218466	-0.218673
C142	C	0.560403	0.031534	0.031327
C143	C	0.810403	0.281534	0.281327
C144	C	1.060403	0.531534	0.531327
C145	C	0.364994	-0.218469	-0.218655
C146	C	0.614994	0.031531	0.031345
C147	C	0.864994	0.281531	0.281345
C148	C	1.114994	0.531531	0.531345
N149	N	0.392304	-0.251949	-0.252032
N150	N	0.642304	-0.001949	-0.002032
N151	N	0.892304	0.248051	0.247968
N152	N	1.142304	0.498051	0.497968
C153	C	0.365010	-0.285434	-0.285414
C154	C	0.615010	-0.035434	-0.035414
C155	C	0.865010	0.214566	0.214586
C156	C	1.115010	0.464566	0.464586
C157	C	0.031919	-0.218493	-0.218700
C158	C	0.281919	0.031507	0.031300
C159	C	0.531919	0.281507	0.281300
C160	C	0.781919	0.531507	0.531300
C161	C	-0.022684	-0.218501	-0.218702
C162	C	0.227316	0.031499	0.031298
C163	C	0.477316	0.281499	0.281298
C164	C	0.727316	0.531499	0.531298
C165	C	-0.022668	-0.285468	-0.285463
C166	C	0.227332	-0.035468	-0.035463
C167	C	0.477332	0.214532	0.214537
C168	C	0.727332	0.464532	0.464537
C169	C	0.031935	-0.285462	-0.285458
C170	C	0.281935	-0.035462	-0.035458
C171	C	0.531935	0.214538	0.214542
C172	C	0.781935	0.464538	0.464542
C173	C	0.059228	-0.251972	-0.252077
C174	C	0.309228	-0.001972	-0.002077
C175	C	0.559228	0.248028	0.247923
C176	C	0.809228	0.498028	0.497923
C177	C	0.479675	-0.285426	-0.285393
C178	C	0.729675	-0.035426	-0.035393
C179	C	0.979675	0.214574	0.214607
C180	C	1.229675	0.464574	0.464607
C181	C	0.534281	-0.285422	-0.285379
C182	C	0.784281	-0.035422	-0.035379
C183	C	1.034281	0.214578	0.214621
C184	C	1.284281	0.464578	0.464621
C185	C	0.534260	-0.218453	-0.218620
C186	C	0.784260	0.031547	0.031380
C187	C	1.034260	0.281547	0.281380
C188	C	1.284260	0.531547	0.531380
C189	C	0.479659	-0.218458	-0.218631
C190	C	0.729659	0.031542	0.031369
C191	C	0.979659	0.281542	0.281369
C192	C	1.229659	0.531542	0.531369
C193	C	0.452368	-0.251947	-0.252022
C194	C	0.702368	-0.001947	-0.002022
C195	C	0.952368	0.248053	0.247978
C196	C	1.202368	0.498053	0.497978
O197	O	0.393270	-0.190019	-0.190268
O198	O	0.643270	0.059981	0.059732
O199	O	0.893270	0.309981	0.309732
O200	O	1.143270	0.559981	0.559732
O201	O	0.393260	-0.313901	-0.313803
O202	O	0.643260	-0.063901	-0.063803
O203	O	0.893260	0.186099	0.186197
O204	O	1.143260	0.436099	0.436197
C205	C	0.788975	-0.697052	-0.285518
C206	C	1.038975	-0.447052	-0.035518
C207	C	1.288975	-0.197052	0.214482
C208	C	1.538975	0.052948	0.464482
C209	C	0.788959	-0.642448	-0.285514
C210	C	1.038959	-0.392448	-0.035514
C211	C	1.288959	-0.142448	0.214486
C212	C	1.538959	0.107552	0.464486
O213	O	0.817382	-0.614167	-0.313965
O214	O	1.067382	-0.364167	-0.063965
O215	O	1.317382	-0.114167	0.186035
O216	O	1.567382	0.135833	0.436035
N217	N	0.755533	-0.615184	-0.252042
N218	N	1.005533	-0.365184	-0.002042
N219	N	1.255533	-0.115184	0.247958
N220	N	1.505533	0.134816	0.497958
C221	C	0.722123	-0.642528	-0.218567
C222	C	0.972123	-0.392528	0.031433
C223	C	1.222123	-0.142528	0.281433
C224	C	1.472123	0.107472	0.531433
O225	O	0.693690	-0.614324	-0.190096
O226	O	0.943690	-0.364324	0.059904
O227	O	1.193690	-0.114324	0.309904
O228	O	1.443690	0.135676	0.559904
C229	C	0.722142	-0.697131	-0.218569
C230	C	0.972142	-0.447131	0.031431
C231	C	1.222142	-0.197131	0.281431
C232	C	1.472142	0.052869	0.531431
C233	C	0.755567	-0.724392	-0.252047
C234	C	1.005567	-0.474392	-0.002047
C235	C	1.255567	-0.224392	0.247953
C236	C	1.505567	0.025608	0.497953
C237	C	0.822398	-0.724313	-0.318994
C238	C	1.072398	-0.474313	-0.068994
C239	C	1.322398	-0.224313	0.181006
C240	C	1.572398	0.025687	0.431006
C241	C	0.822413	-0.778913	-0.318998
C242	C	1.072413	-0.528913	-0.068998
C243	C	1.322413	-0.278913	0.181002
C244	C	1.572413	-0.028913	0.431002
C245	C	0.789005	-0.806253	-0.285527
C246	C	1.039005	-0.556253	-0.035527
C247	C	1.289005	-0.306253	0.214473
C248	C	1.539005	-0.056253	0.464473
C249	C	0.755582	-0.778992	-0.252052
C250	C	1.005582	-0.528992	-0.002052
C251	C	1.255582	-0.278992	0.247948
C252	C	1.505582	-0.028992	0.497948
C253	C	0.688736	-0.724474	-0.185092
C254	C	0.938736	-0.474474	0.064908
C255	C	1.188736	-0.224474	0.314908
C256	C	1.438736	0.025526	0.564908
C257	C	0.688758	-0.779081	-0.185097
C258	C	0.938758	-0.529081	0.064903
C259	C	1.188758	-0.279081	0.314903
C260	C	1.438758	-0.029081	0.564903
C261	C	0.722183	-0.806341	-0.218575
C262	C	0.972183	-0.556341	0.031425
C263	C	1.222183	-0.306341	0.281425
C264	C	1.472183	-0.056341	0.531425
C265	C	0.722189	-0.860933	-0.218586
C266	C	0.972189	-0.610933	0.031414
C267	C	1.222189	-0.360933	0.281414
C268	C	1.472189	-0.110933	0.531414
N269	N	0.755616	-0.888196	-0.252058
N270	N	1.005616	-0.638196	-0.002058
N271	N	1.255616	-0.388196	0.247942
N272	N	1.505616	-0.138196	0.497942
C273	C	0.789024	-0.860856	-0.285529
C274	C	1.039024	-0.610856	-0.035529
C275	C	1.289024	-0.360856	0.214471
C276	C	1.539024	-0.110856	0.464471
C277	C	0.722087	-0.527857	-0.218566
C278	C	0.972087	-0.277857	0.031434
C279	C	1.222087	-0.027857	0.281434
C280	C	1.472087	0.222143	0.531434
C281	C	0.722065	-0.473255	-0.218566
C282	C	0.972065	-0.223255	0.031434
C283	C	1.222065	0.026745	0.281434
C284	C	1.472065	0.276745	0.531434
C285	C	0.788902	-0.473179	-0.285513
C286	C	1.038902	-0.223179	-0.035513
C287	C	1.288902	0.026821	0.214487
C288	C	1.538902	0.276821	0.464487
C289	C	0.788921	-0.527782	-0.285514
C290	C	1.038921	-0.277782	-0.035514
C291	C	1.288921	-0.027782	0.214486
C292	C	1.538921	0.222218	0.464486
C293	C	0.755514	-0.555121	-0.252038
C294	C	1.005514	-0.305121	-0.002038
C295	C	1.255514	-0.055121	0.247962
C296	C	1.505514	0.194879	0.497962
C297	C	0.789052	-0.975521	-0.285536
C298	C	1.039052	-0.725521	-0.035536
C299	C	1.289052	-0.475521	0.214464
C300	C	1.539052	-0.225521	0.464464
C301	C	0.789062	-1.030127	-0.285539
C302	C	1.039062	-0.780127	-0.035539
C303	C	1.289062	-0.530127	0.214461
C304	C	1.539062	-0.280127	0.464461
C305	C	0.722228	-1.030198	-0.218591
C306	C	0.972228	-0.780198	0.031409
C307	C	1.222228	-0.530198	0.281409
C308	C	1.472228	-0.280198	0.531409
C309	C	0.722215	-0.975598	-0.218590
C310	C	0.972215	-0.725598	0.031410
C311	C	1.222215	-0.475598	0.281410
C312	C	1.472215	-0.225598	0.531410
C313	C	0.755632	-0.948261	-0.252064
C314	C	1.005632	-0.698261	-0.002064
C315	C	1.255632	-0.448261	0.247936
C316	C	1.505632	-0.198261	0.497936
O317	O	0.693783	-0.889248	-0.190148
O318	O	0.943783	-0.639248	0.059852
O319	O	1.193783	-0.389248	0.309852
O320	O	1.443783	-0.139248	0.559852
O321	O	0.817457	-0.889067	-0.313991
O322	O	1.067457	-0.639067	-0.063991
O323	O	1.317457	-0.389067	0.186009
O324	O	1.567457	-0.139067	0.436009
C325	C	0.891904	-0.251975	-0.252071
C326	C	1.141904	-0.001975	-0.002071
C327	C	1.391904	0.248025	0.247929
C328	C	1.641904	0.498025	0.497929
C329	C	0.950018	-0.251984	-0.252086
C330	C	1.200018	-0.001984	-0.002086
C331	C	1.450018	0.248016	0.247914
C332	C	1.700018	0.498016	0.497914
C333	C	0.755559	-0.251931	-0.388408
C334	C	1.005559	-0.001931	-0.138408
C335	C	1.255559	0.248069	0.111592
C336	C	1.505559	0.498069	0.361592
C337	C	0.755571	-0.251921	-0.446522
C338	C	1.005571	-0.001921	-0.196522
C339	C	1.255571	0.248079	0.053478
C340	C	1.505571	0.498079	0.303478
C341	C	0.755617	-0.115581	-0.252059
C342	C	1.005617	0.134419	-0.002059
C343	C	1.255617	0.384419	0.247941
C344	C	1.505617	0.634419	0.497941
C345	C	0.755654	-0.057467	-0.252069
C346	C	1.005654	0.192533	-0.002069
C347	C	1.255654	0.442533	0.247931
C348	C	1.505654	0.692533	0.497931
C349	C	0.789004	-0.285323	-0.697711
C350	C	1.039004	-0.035323	-0.447711
C351	C	1.289004	0.214677	-0.197711
C352	C	1.539004	0.464677	0.052289
C353	C	0.788998	-0.285334	-0.643107
C354	C	1.038998	-0.035334	-0.393107
C355	C	1.288998	0.214666	-0.143107
C356	C	1.538998	0.464666	0.106893
O357	O	0.817400	-0.313792	-0.614866
O358	O	1.067400	-0.063792	-0.364866
O359	O	1.317400	0.186208	-0.114866
O360	O	1.567400	0.436208	0.135134
N361	N	0.755583	-0.251895	-0.615796
N362	N	1.005583	-0.001895	-0.365796
N363	N	1.255583	0.248105	-0.115796
N364	N	1.505583	0.498105	0.134204
C365	C	0.722166	-0.218447	-0.643093
C366	C	0.972166	0.031553	-0.393093
C367	C	1.222166	0.281553	-0.143093
C368	C	1.472166	0.531553	0.106907
O369	O	0.693742	-0.190006	-0.614849
O370	O	0.943742	0.059994	-0.364849
O371	O	1.193742	0.309994	-0.114849
O372	O	1.443742	0.559994	0.135151
C373	C	0.722169	-0.218439	-0.697696
C374	C	0.972169	0.031561	-0.447696
C375	C	1.222169	0.281561	-0.197696
C376	C	1.472169	0.531561	0.052304
C377	C	0.755591	-0.251877	-0.725004
C378	C	1.005591	-0.001877	-0.475004
C379	C	1.255591	0.248123	-0.225004
C380	C	1.505591	0.498123	0.024996
C381	C	0.822423	-0.318758	-0.725019
C382	C	1.072423	-0.068758	-0.475019
C383	C	1.322423	0.181242	-0.225019
C384	C	1.572423	0.431242	0.024981
C385	C	0.822429	-0.318747	-0.779620
C386	C	1.072429	-0.068747	-0.529620
C387	C	1.322429	0.181253	-0.279620
C388	C	1.572429	0.431253	-0.029620
C389	C	0.789016	-0.285300	-0.806912
C390	C	1.039016	-0.035300	-0.556912
C391	C	1.289016	0.214700	-0.306912
C392	C	1.539016	0.464700	-0.056912
C393	C	0.755597	-0.251865	-0.779604
C394	C	1.005597	-0.001865	-0.529604
C395	C	1.255597	0.248135	-0.279604
C396	C	1.505597	0.498135	-0.029604
C397	C	0.688751	-0.184994	-0.724991
C398	C	0.938751	0.065006	-0.474991
C399	C	1.188751	0.315006	-0.224991
C400	C	1.438751	0.565006	0.025009
C401	C	0.688757	-0.184989	-0.779598
C402	C	0.938757	0.065011	-0.529598
C403	C	1.188757	0.315011	-0.279598
C404	C	1.438757	0.565011	-0.029598
C405	C	0.722179	-0.218427	-0.806906
C406	C	0.972179	0.031573	-0.556906
C407	C	1.222179	0.281573	-0.306906
C408	C	1.472179	0.531573	-0.056906
C409	C	0.722191	-0.218406	-0.861498
C410	C	0.972191	0.031594	-0.611498
C411	C	1.222191	0.281594	-0.361498
C412	C	1.472191	0.531594	-0.111498
N413	N	0.755607	-0.251845	-0.888808
N414	N	1.005607	-0.001845	-0.638808
N415	N	1.255607	0.248155	-0.388808
N416	N	1.505607	0.498155	-0.138808
C417	C	0.789019	-0.285292	-0.861516
C418	C	1.039019	-0.035292	-0.611516
C419	C	1.289019	0.214708	-0.361516
C420	C	1.539019	0.464708	-0.111516
C421	C	0.722161	-0.218467	-0.528422
C422	C	0.972161	0.031533	-0.278422
C423	C	1.222161	0.281533	-0.028422
C424	C	1.472161	0.531533	0.221578
C425	C	0.722160	-0.218472	-0.473819
C426	C	0.972160	0.031528	-0.223819
C427	C	1.222160	0.281528	0.026181
C428	C	1.472160	0.531528	0.276181
C429	C	0.788992	-0.285360	-0.473838
C430	C	1.038992	-0.035360	-0.223838
C431	C	1.288992	0.214640	0.026162
C432	C	1.538992	0.464640	0.276162
C433	C	0.788995	-0.285352	-0.528441
C434	C	1.038995	-0.035352	-0.278441
C435	C	1.288995	0.214648	-0.028441
C436	C	1.538995	0.464648	0.221559
C437	C	0.755577	-0.251906	-0.555733
C438	C	1.005577	-0.001906	-0.305733
C439	C	1.255577	0.248094	-0.055733
C440	C	1.505577	0.498094	0.194267
C441	C	0.789030	-0.285264	-0.976181
C442	C	1.039030	-0.035264	-0.726181
C443	C	1.289030	0.214736	-0.476181
C444	C	1.539030	0.464736	-0.226181
C445	C	0.789035	-0.285248	-1.030786
C446	C	1.039035	-0.035248	-0.780786
C447	C	1.289035	0.214752	-0.530786
C448	C	1.539035	0.464752	-0.280786
C449	C	0.722201	-0.218363	-1.030763
C450	C	0.972201	0.031637	-0.780763
C451	C	1.222201	0.281637	-0.530763
C452	C	1.472201	0.531637	-0.280763
C453	C	0.722198	-0.218377	-0.976163
C454	C	0.972198	0.031623	-0.726163
C455	C	1.222198	0.281623	-0.476163
C456	C	1.472198	0.531623	-0.226163
C457	C	0.755614	-0.251832	-0.948873
C458	C	1.005614	-0.001832	-0.698873
C459	C	1.255614	0.248168	-0.448873
C460	C	1.505614	0.498168	-0.198873
O461	O	0.693802	-0.189965	-0.889773
O462	O	0.943802	0.060035	-0.639773
O463	O	1.193802	0.310035	-0.389773
O464	O	1.443802	0.560035	-0.139773
O465	O	0.817433	-0.313733	-0.889766
O466	O	1.067433	-0.063733	-0.639766
O467	O	1.317433	0.186267	-0.389766
O468	O	1.567433	0.436267	-0.139766
C469	C	0.755533	-0.251939	-0.116192
C470	C	1.005533	-0.001939	0.133808
C471	C	1.255533	0.248061	0.383808
C472	C	1.505533	0.498061	0.633808
C473	C	0.755622	-0.251801	-0.058079
C474	C	1.005622	-0.001801	0.191921
C475	C	1.255622	0.248199	0.441921
C476	C	1.505622	0.498199	0.691921
H477	H	0.556511	-0.312691	-0.312558
H478	H	0.806511	-0.062691	-0.062558
H479	H	1.056511	0.187309	0.187442
H480	H	1.306511	0.437309	0.437442
N481	N	0.199082	-0.355051	-0.354816
N482	N	0.449082	-0.105051	-0.104816
N483	N	0.699082	0.144949	0.145184
N484	N	0.949082	0.394949	0.395184
H485	H	0.176409	-0.379253	-0.333527
H486	H	0.426409	-0.129253	-0.083527
H487	H	0.676409	0.120747	0.166473
H488	H	0.926409	0.370747	0.416473
H489	H	0.176478	-0.333810	-0.379083
H490	H	0.426478	-0.083810	-0.129083
H491	H	0.676478	0.166190	0.120917
H492	H	0.926478	0.416190	0.370917
N493	N	0.824941	-0.443683	-0.321608
N494	N	1.074941	-0.193683	-0.071608
N495	N	1.324941	0.056317	0.178392
N496	N	1.574941	0.306317	0.428392
H497	H	0.846122	-0.469235	-0.342817
H498	H	1.096122	-0.219235	-0.092817
H499	H	1.346122	0.030765	0.157183
H500	H	1.596122	0.280765	0.407183
H501	H	0.803637	-0.421034	-0.345779
H502	H	1.053637	-0.171034	-0.095779
H503	H	1.303637	0.078966	0.154221
H504	H	1.553637	0.328966	0.404221
H505	H	0.457461	-0.312694	-0.312584
H506	H	0.707461	-0.062694	-0.062584
H507	H	0.957461	0.187306	0.187416
H508	H	1.207461	0.437306	0.437416
N509	N	0.563702	-0.182334	-0.182619
N510	N	0.813702	0.067666	0.067381
N511	N	1.063702	0.317666	0.317381
N512	N	1.313702	0.567666	0.567381
H513	H	0.554178	-0.190398	-0.145247
H514	H	0.804178	0.059602	0.104753
H515	H	1.054178	0.309602	0.354753
H516	H	1.304178	0.559602	0.604753
H517	H	0.602426	-0.187430	-0.187727
H518	H	0.852426	0.062570	0.062273
H519	H	1.102426	0.312570	0.312273
H520	H	1.352426	0.562570	0.562273
N521	N	0.858429	-0.694832	-0.355104
N522	N	1.108429	-0.444832	-0.105104
N523	N	1.358429	-0.194832	0.144896
N524	N	1.608429	0.055168	0.394896
H525	H	0.853351	-0.656103	-0.350031
H526	H	1.103351	-0.406103	-0.100031
H527	H	1.353351	-0.156103	0.149969
H528	H	1.603351	0.093897	0.399969
H529	H	0.895778	-0.704351	-0.347010
H530	H	1.145778	-0.454351	-0.097010
H531	H	1.395778	-0.204351	0.152990
H532	H	1.645778	0.045649	0.402990
H533	H	0.305315	-0.157705	-0.158117
H534	H	0.555315	0.092295	0.091883
H535	H	0.805315	0.342295	0.341883
H536	H	1.055315	0.592295	0.591883
H537	H	0.694999	-0.191130	-1.052995
H538	H	0.944999	0.058870	-0.802995
H539	H	1.194999	0.308870	-0.552995
H540	H	1.444999	0.558870	-0.302995
H541	H	-0.044912	-0.191239	-0.191519
H542	H	0.205088	0.058761	0.058481
H543	H	0.455088	0.308761	0.308481
H544	H	0.705088	0.558761	0.558481
H545	H	0.694990	-0.191142	-0.953927
H546	H	0.944990	0.058858	-0.703927
H547	H	1.194990	0.308858	-0.453927
H548	H	1.444990	0.558858	-0.203927
N549	N	0.825086	-0.946039	-0.321645
N550	N	1.075086	-0.696039	-0.071645
N551	N	1.325086	-0.446039	0.178355
N552	N	1.575086	-0.196039	0.428355
H553	H	0.849326	-0.923373	-0.300428
H554	H	1.099326	-0.673373	-0.050428
H555	H	1.349326	-0.423373	0.199572
H556	H	1.599326	-0.173373	0.449572
H557	H	0.846223	-0.971631	-0.342845
H558	H	1.096223	-0.721631	-0.092845
H559	H	1.346223	-0.471631	0.157155
H560	H	1.596223	-0.221631	0.407155
H561	H	0.305342	-0.346190	-0.345981
H562	H	0.555342	-0.096190	-0.095981
H563	H	0.805342	0.153810	0.154019
H564	H	1.055342	0.403810	0.404019
H565	H	0.816136	-0.549974	-0.312778
H566	H	1.066136	-0.299974	-0.062778
H567	H	1.316136	-0.049974	0.187222
H568	H	1.566136	0.200026	0.437222
H569	H	0.816210	-0.312580	-0.550671
H570	H	1.066210	-0.062580	-0.300671
H571	H	1.316210	0.187420	-0.050671
H572	H	1.566210	0.437420	0.199329
H573	H	0.054137	-0.191222	-0.191513
H574	H	0.304137	0.058778	0.058487
H575	H	0.554137	0.308778	0.308487
H576	H	0.804137	0.558778	0.558487
H577	H	0.661534	-0.157767	-0.702767
H578	H	0.911534	0.092233	-0.452767
H579	H	1.161534	0.342233	-0.202767
H580	H	1.411534	0.592233	0.047233
N581	N	0.686013	-0.443857	-0.182457
N582	N	0.936013	-0.193857	0.067543
N583	N	1.186013	0.056143	0.317543
N584	N	1.436013	0.306143	0.567543
H585	H	0.691069	-0.405116	-0.187529
H586	H	0.941069	-0.155116	0.062471
H587	H	1.191069	0.094884	0.312471
H588	H	1.441069	0.344884	0.562471
H589	H	0.648670	-0.453429	-0.190555
H590	H	0.898670	-0.203429	0.059445
H591	H	1.148670	0.046571	0.309445
H592	H	1.398670	0.296571	0.559445
H593	H	0.457425	-0.191193	-0.191453
H594	H	0.707425	0.058807	0.058547
H595	H	0.957425	0.308807	0.308547
H596	H	1.207425	0.558807	0.558547
N597	N	0.652689	-0.695082	-0.148976
N598	N	0.902689	-0.445082	0.101024
N599	N	1.152689	-0.195082	0.351024
N600	N	1.402689	0.054918	0.601024
H601	H	0.657742	-0.656341	-0.154046
H602	H	0.907742	-0.406341	0.095954
H603	H	1.157742	-0.156341	0.345954
H604	H	1.407742	0.093659	0.595954
H605	H	0.615346	-0.704655	-0.157069
H606	H	0.865346	-0.454655	0.092931
H607	H	1.115346	-0.204655	0.342931
H608	H	1.365346	0.045345	0.592931
H609	H	0.849635	-0.801104	-0.346256
H610	H	1.099635	-0.551104	-0.096256
H611	H	1.349635	-0.301104	0.153744
H612	H	1.599635	-0.051104	0.403744
N613	N	0.686050	-0.557342	-0.182460
N614	N	0.936050	-0.307342	0.067540
N615	N	1.186050	-0.057342	0.317540
N616	N	1.436050	0.192658	0.567540
H617	H	0.664874	-0.531782	-0.161257
H618	H	0.914874	-0.281782	0.088743
H619	H	1.164874	-0.031782	0.338743
H620	H	1.414874	0.218218	0.588743
H621	H	0.661847	-0.580009	-0.203715
H622	H	0.911847	-0.330009	0.046285
H623	H	1.161847	-0.080009	0.296285
H624	H	1.411847	0.169991	0.546285
H625	H	0.054165	-0.312728	-0.312636
H626	H	0.304165	-0.062728	-0.062636
H627	H	0.554165	0.187272	0.187364
H628	H	0.804165	0.437272	0.437364
H629	H	-0.044900	-0.312731	-0.312647
H630	H	0.205100	-0.062731	-0.062647
H631	H	0.455100	0.187269	0.187353
H632	H	0.705100	0.437269	0.437353
H633	H	0.816244	-0.312503	-0.953968
H634	H	1.066244	-0.062503	-0.703968
H635	H	1.316244	0.187497	-0.453968
H636	H	1.566244	0.437497	-0.203968
H637	H	0.661553	-0.801337	-0.157835
H638	H	0.911553	-0.551337	0.092165
H639	H	1.161553	-0.301337	0.342165
H640	H	1.411553	-0.051337	0.592165
N641	N	0.199045	-0.148867	-0.149301
N642	N	0.449045	0.101133	0.100699
N643	N	0.699045	0.351133	0.350699
N644	N	0.949045	0.601133	0.600699
H645	H	0.224629	-0.127655	-0.128158
H646	H	0.474629	0.122345	0.121842
H647	H	0.724629	0.372345	0.371842
H648	H	0.974629	0.622345	0.621842
H649	H	0.176414	-0.124701	-0.170628
H650	H	0.426414	0.125299	0.079372
H651	H	0.676414	0.375299	0.329372
H652	H	0.926414	0.625299	0.579372
N653	N	0.686163	-0.946187	-0.182489
N654	N	0.936163	-0.696187	0.067511
N655	N	1.186163	-0.446187	0.317511
N656	N	1.436163	-0.196187	0.567511
H657	H	0.648803	-0.955711	-0.190570
H658	H	0.898803	-0.705711	0.059430
H659	H	1.148803	-0.455711	0.309430
H660	H	1.398803	-0.205711	0.559430
H661	H	0.694352	-0.955712	-0.145156
H662	H	0.944352	-0.705712	0.104844
H663	H	1.194352	-0.455712	0.354844
H664	H	1.444352	-0.205712	0.604844
N665	N	0.825103	-1.059529	-0.321661
N666	N	1.075103	-0.809529	-0.071661
N667	N	1.325103	-0.559529	0.178339
N668	N	1.575103	-0.309529	0.428339
H669	H	0.846261	-1.033921	-0.342866
H670	H	1.096261	-0.783921	-0.092866
H671	H	1.346261	-0.533921	0.157134
H672	H	1.596261	-0.283921	0.407134
H673	H	0.849323	-1.082182	-0.300419
H674	H	1.099323	-0.832182	-0.050419
H675	H	1.349323	-0.582182	0.199581
H676	H	1.599323	-0.332182	0.449581
H677	H	0.695027	-1.052468	-0.191341
H678	H	0.945027	-0.802468	0.058659
H679	H	1.195027	-0.552468	0.308659
H680	H	1.445027	-0.302468	0.558659
N681	N	0.825085	-0.321313	-1.060240
N682	N	1.075085	-0.071313	-0.810240
N683	N	1.325085	0.178687	-0.560240
N684	N	1.575085	0.428687	-0.310240
H685	H	0.846248	-0.342503	-1.034661
H686	H	1.096248	-0.092503	-0.784661
H687	H	1.346248	0.157497	-0.534661
H688	H	1.596248	0.407497	-0.284661
H689	H	0.803790	-0.345501	-1.082884
H690	H	1.053790	-0.095501	-0.832884
H691	H	1.303790	0.154499	-0.582884
H692	H	1.553790	0.404499	-0.332884
H693	H	0.849643	-0.345976	-0.801849
H694	H	1.099643	-0.095976	-0.551849
H695	H	1.349643	0.154024	-0.301849
H696	H	1.599643	0.404024	-0.051849
N697	N	0.825031	-0.321435	-0.444393
N698	N	1.075031	-0.071435	-0.194393
N699	N	1.325031	0.178565	0.055607
N700	N	1.575031	0.428565	0.305607
H701	H	0.819897	-0.316418	-0.405660
H702	H	1.069897	-0.066418	-0.155660
H703	H	1.319897	0.183582	0.094340
H704	H	1.569897	0.433582	0.344340
H705	H	0.816920	-0.358770	-0.453982
H706	H	1.066920	-0.108770	-0.203982
H707	H	1.316920	0.141230	0.046018
H708	H	1.566920	0.391230	0.296018
N709	N	0.858463	-0.354837	-0.695588
N710	N	1.108463	-0.104837	-0.445588
N711	N	1.358463	0.145163	-0.195588
N712	N	1.608463	0.395163	0.054412
H713	H	0.879630	-0.376014	-0.721181
H714	H	1.129630	-0.126014	-0.471181
H715	H	1.379630	0.123986	-0.221181
H716	H	1.629630	0.373986	0.028819
H717	H	0.882674	-0.333563	-0.672948
H718	H	1.132674	-0.083563	-0.422948
H719	H	1.382674	0.166437	-0.172948
H720	H	1.632674	0.416437	0.077052
H721	H	0.694951	-0.191238	-0.451590
H722	H	0.944951	0.058762	-0.201590
H723	H	1.194951	0.308762	0.048410
H724	H	1.444951	0.558762	0.298410
N725	N	0.686118	-0.182388	-0.557856
N726	N	0.936118	0.067612	-0.307856
N727	N	1.186118	0.317612	-0.057856
N728	N	1.436118	0.567612	0.192144
H729	H	0.664952	-0.161208	-0.532266
H730	H	0.914952	0.088792	-0.282266
H731	H	1.164952	0.338792	-0.032266
H732	H	1.414952	0.588792	0.217734
H733	H	0.707416	-0.158190	-0.580524
H734	H	0.957416	0.091810	-0.330524
H735	H	1.207416	0.341810	-0.080524
H736	H	1.457416	0.591810	0.169476
H737	H	0.661543	-0.157753	-0.801816
H738	H	0.911543	0.092247	-0.551816
H739	H	1.161543	0.342247	-0.301816
H740	H	1.411543	0.592247	-0.051816
