data_functionalizedCrystal
_audit_creation_method	'MofGen! by Chris Wilmer'
_symmetry_space_group_name_H-M	'P1'
_symmetry_Int_Tables_number	1
_symmetry_cell_setting	triclinic
loop_
_symmetry_equiv_pos_as_xyz
  x,y,z
_cell_length_a	17.077404
_cell_length_b	29.839131
_cell_length_c	17.077396
_cell_angle_alpha	90.039567
_cell_angle_beta	90.019501
_cell_angle_gamma	90.035453
loop_
_atom_site_label
_atom_site_type_symbol
_atom_site_fract_x
_atom_site_fract_y
_atom_site_fract_z
Zn1	Zn	1.199987	-0.178851	0.443782
Zn2	Zn	1.199866	-0.253981	0.312491
Zn3	Zn	1.068719	-0.178866	0.312530
Zn4	Zn	1.068659	-0.253955	0.443714
O5	O	1.134308	-0.216413	0.378129
O6	O	1.309818	-0.188821	0.426378
O7	O	1.182444	-0.244035	0.202649
O8	O	1.086208	-0.115997	0.329986
O9	O	1.309729	-0.244020	0.329919
O10	O	1.182650	-0.115986	0.426416
O11	O	1.086091	-0.188848	0.202678
O12	O	0.958864	-0.188822	0.329920
O13	O	1.086105	-0.243974	0.553570
O14	O	0.958820	-0.243989	0.426301
O15	O	1.182592	-0.188796	0.553620
O16	O	1.182385	-0.316845	0.329853
O17	O	1.085988	-0.316825	0.426262
C18	C	0.930360	-0.216405	0.378108
C19	C	0.843110	-0.216412	0.378117
C20	C	0.802117	-0.245181	0.428222
C21	C	0.720137	-0.245182	0.428234
C22	C	0.679151	-0.216416	0.378138
C23	C	0.720149	-0.187644	0.328031
C24	C	0.802128	-0.187641	0.328023
C25	C	0.549279	-0.187653	0.328050
C26	C	0.467295	-0.187657	0.328056
C27	C	0.467288	-0.245194	0.428261
C28	C	0.549267	-0.245191	0.428253
C29	C	0.590260	-0.216420	0.378145
C30	C	1.134188	-0.333136	0.378063
C31	C	1.134209	-0.383070	0.378061
C32	C	1.184514	-0.692673	0.428412
C33	C	1.184600	-0.880346	0.428459
O34	O	1.227254	-0.904576	0.471221
N35	N	1.134441	-0.903855	0.378217
C36	C	1.084254	-0.880444	0.327962
O37	O	1.041588	-0.904746	0.285234
C38	C	1.084166	-0.692772	0.327919
C39	C	1.134333	-0.669264	0.378160
C40	C	1.234677	-0.669166	0.478649
C41	C	1.234658	-0.622250	0.478634
C42	C	1.184477	-0.598842	0.428382
C43	C	1.134314	-0.622349	0.378145
C44	C	1.033975	-0.669361	0.277669
C45	C	1.033956	-0.622440	0.277664
C46	C	1.084124	-0.598933	0.327905
C47	C	1.084114	-0.552025	0.327877
N48	N	1.134272	-0.528516	0.378120
C49	C	1.184454	-0.551924	0.428372
C50	C	1.084305	-0.978974	0.327987
C51	C	1.084328	-1.025892	0.327996
C52	C	1.184673	-1.025791	0.428495
C53	C	1.184653	-0.978872	0.428481
C54	C	1.134464	-0.955465	0.378230
C55	C	1.184411	-0.453398	0.428336
C56	C	1.184390	-0.406479	0.428314
C57	C	1.084043	-0.406584	0.327818
C58	C	1.084067	-0.453499	0.327837
C59	C	1.134253	-0.476905	0.378102
O60	O	1.041476	-0.527766	0.285144
O61	O	1.227102	-0.527613	0.471106
C62	C	1.184533	-0.739588	0.428428
C63	C	1.134371	-0.763095	0.378190
C64	C	1.084189	-0.739687	0.327938
C65	C	1.134394	-0.810013	0.378200
C66	C	1.184575	-0.833421	0.428452
C67	C	1.234733	-0.809912	0.478695
C68	C	1.234714	-0.762996	0.478680
C69	C	1.034031	-0.763197	0.277695
C70	C	1.034054	-0.810112	0.277714
C71	C	1.084236	-0.833520	0.327966
C72	C	1.339052	-0.216422	0.378152
C73	C	1.426302	-0.216425	0.378161
C74	C	1.134355	-0.216380	0.582874
C75	C	1.134376	-0.216366	0.670124
C76	C	1.134449	-0.099235	0.378213
C77	C	1.134510	-0.049300	0.378249
C78	C	1.134306	-0.216414	0.174182
C79	C	1.134438	-0.216301	0.086932
C80	C	1.184618	-0.187632	0.711141
C81	C	1.184627	-0.187617	0.793122
C82	C	1.134398	-0.216339	0.834083
C83	C	1.084150	-0.245074	0.793060
C84	C	1.084137	-0.245086	0.711081
C85	C	1.084182	-0.245047	0.963930
C86	C	1.084195	-0.245035	1.045915
C87	C	1.184672	-0.187578	1.045971
C88	C	1.184659	-0.187590	0.963992
C89	C	1.134412	-0.216326	0.922974
H90	H	0.835483	-0.268607	0.469014
O91	O	0.680438	-0.273176	0.476922
C92	C	0.689083	-0.330238	0.576322
C93	C	0.734138	-0.298562	0.521212
H94	H	0.732480	-0.350764	0.612157
H95	H	0.650689	-0.353730	0.540234
H96	H	0.650716	-0.309643	0.617416
H97	H	0.772548	-0.319120	0.480108
H98	H	0.772483	-0.275068	0.557350
O99	O	1.283317	-0.691920	0.527550
C100	C	1.293874	-0.744849	0.633530
C101	C	1.238689	-0.719104	0.578213
H102	H	1.257815	-0.766841	0.674494
H103	H	1.329702	-0.720001	0.669486
H104	H	1.334970	-0.766788	0.597517
H105	H	1.197545	-0.697165	0.614166
H106	H	1.202915	-0.743976	0.542255
O107	O	0.985118	-0.599682	0.228960
C108	C	0.879150	-0.546749	0.218287
C109	C	0.934394	-0.572501	0.273533
H110	H	0.838136	-0.524760	0.254301
H111	H	0.843244	-0.571592	0.182398
H112	H	0.915217	-0.524806	0.177250
H113	H	0.898387	-0.594445	0.314618
H114	H	0.970303	-0.547635	0.309367
O115	O	1.035265	-0.476268	0.279006
C116	C	0.935765	-0.471410	0.179295
C117	C	0.990987	-0.445574	0.234562
H118	H	0.899963	-0.446606	0.143336
H119	H	0.894652	-0.493362	0.215268
H120	H	0.971844	-0.493395	0.138324
H121	H	0.954971	-0.423566	0.275543
H122	H	1.032102	-0.423651	0.198539
H123	H	0.433908	-0.268619	0.469064
O124	O	1.035352	-0.272867	1.085788
C125	C	0.929337	-0.278873	1.178277
C126	C	0.984621	-0.247304	1.133187
H127	H	0.888297	-0.258217	1.216598
H128	H	0.965297	-0.302357	1.216703
H129	H	0.893454	-0.299417	1.134860
H130	H	1.020516	-0.226731	1.176548
H131	H	0.948617	-0.223849	1.094750
H132	H	1.225565	-0.164205	0.930643
H133	H	1.043249	-0.268458	0.826418
O134	O	0.427600	-0.159669	0.279372
C135	C	0.436253	-0.102613	0.179958
C136	C	0.481304	-0.134278	0.235065
H137	H	0.479652	-0.082083	0.144110
H138	H	0.397931	-0.079124	0.216050
H139	H	0.397814	-0.123217	0.138877
H140	H	0.519785	-0.113711	0.276157
H141	H	0.519577	-0.157769	0.198924
O142	O	0.589189	-0.159769	0.279335
C143	C	0.681672	-0.153654	0.173336
C144	C	0.636535	-0.185279	0.228469
H145	H	0.719949	-0.174266	0.132185
H146	H	0.720146	-0.130195	0.209406
H147	H	0.638286	-0.133085	0.137563
H148	H	0.679864	-0.205877	0.264253
H149	H	0.598049	-0.208708	0.192353
O150	O	1.035317	-0.273047	0.671355
C151	C	0.935645	-0.330027	0.679947
C152	C	0.990906	-0.298390	0.725032
H153	H	0.899713	-0.350519	0.723324
H154	H	0.971622	-0.353553	0.641582
H155	H	0.894649	-0.309403	0.641548
H156	H	1.031913	-0.318978	0.763473
H157	H	0.954881	-0.274863	0.763347
H158	H	1.043253	-0.268440	0.930536
O159	O	1.233399	-0.159672	1.085932
C160	C	1.277965	-0.134195	1.212250
C161	C	1.222734	-0.165812	1.167088
H162	H	1.269374	-0.139155	1.277873
H163	H	1.264215	-0.097963	1.196206
H164	H	1.341243	-0.142081	1.196097
H165	H	1.159437	-0.157966	1.183217
H166	H	1.236552	-0.202034	1.183137
O167	O	1.283526	-0.740145	0.527376
C168	C	1.389455	-0.687102	0.538041
C169	C	1.334236	-0.712957	0.482798
H170	H	1.430456	-0.665107	0.502023
H171	H	1.425376	-0.711878	0.573943
H172	H	1.353367	-0.665156	0.579067
H173	H	1.370263	-0.734904	0.441726
H174	H	1.298312	-0.688157	0.446952
H175	H	0.686772	-0.164221	0.287244
H176	H	0.835503	-0.164213	0.287226
H177	H	1.225523	-0.164245	0.677796
O178	O	1.233304	-1.048554	0.477398
C179	C	1.243800	-1.101497	0.583362
C180	C	1.188646	-1.075736	0.528040
H181	H	1.207717	-1.123487	0.624309
H182	H	1.279634	-1.076661	0.619337
H183	H	1.284893	-1.123440	0.547353
H184	H	1.147506	-1.053792	0.563989
H185	H	1.152867	-1.100596	0.492063
H186	H	1.043188	-0.387518	0.286901
H187	H	0.582636	-0.268617	0.469042
O188	O	1.233148	-0.383714	0.477196
C189	C	1.332709	-0.388574	0.576846
C190	C	1.277522	-0.414408	0.521541
H191	H	1.368612	-0.413379	0.612702
H192	H	1.296675	-0.366618	0.617905
H193	H	1.373735	-0.366594	0.540829
H194	H	1.236485	-0.436413	0.557495
H195	H	1.313605	-0.436336	0.480480
H196	H	1.225272	-0.472450	0.469272
O197	O	1.283303	-0.599440	0.527556
C198	C	1.321350	-0.585039	0.661118
C199	C	1.266198	-0.610886	0.605797
H200	H	1.307552	-0.594290	0.724386
H201	H	1.312723	-0.547477	0.652557
H202	H	1.384652	-0.594237	0.647354
H203	H	1.202875	-0.601725	0.619527
H204	H	1.274893	-0.648441	0.614368
O205	O	1.035528	-1.048655	0.279161
C206	C	0.936028	-1.043790	0.179451
C207	C	0.991248	-1.017958	0.234726
H208	H	0.900225	-1.018984	0.143499
H209	H	0.894917	-1.065747	0.215417
H210	H	0.972110	-1.065769	0.138474
H211	H	0.955229	-0.995955	0.275714
H212	H	1.032361	-0.996030	0.198711
H213	H	1.043434	-0.959919	0.287064
H214	H	1.225503	-0.959735	0.469391
O215	O	0.985164	-0.692119	0.228843
C216	C	0.885654	-0.687247	0.129145
C217	C	0.940884	-0.661419	0.184415
H218	H	0.849851	-0.662438	0.093198
H219	H	0.844543	-0.709202	0.165115
H220	H	0.921726	-0.709228	0.088163
H221	H	0.904875	-0.639414	0.225408
H222	H	0.981997	-0.639493	0.148396
H223	H	1.275595	-0.828979	0.519610
O224	O	0.985244	-0.832875	0.228880
C225	C	0.885737	-0.828010	0.129177
C226	C	0.940965	-0.802178	0.184445
H227	H	0.849934	-0.803203	0.093225
H228	H	0.844626	-0.849963	0.165150
H229	H	0.921812	-0.849993	0.088201
H230	H	0.904953	-0.780171	0.225432
H231	H	0.982078	-0.780253	0.148423
H232	H	0.993166	-0.744141	0.236775
H233	H	1.225542	-0.164220	0.826514
