data_functionalizedCrystal
_audit_creation_method	'MofGen! by Chris Wilmer'
_symmetry_space_group_name_H-M	'P1'
_symmetry_Int_Tables_number	1
_symmetry_cell_setting	triclinic
loop_
_symmetry_equiv_pos_as_xyz
  x,y,z
_cell_length_a	16.109318
_cell_length_b	12.996460
_cell_length_c	16.109304
_cell_angle_alpha	89.997481
_cell_angle_beta	83.465600
_cell_angle_gamma	90.002628
loop_
_atom_site_label
_atom_site_type_symbol
_atom_site_fract_x
_atom_site_fract_y
_atom_site_fract_z
O1	O	1.103127	0.085475	0.106930
O2	O	1.603127	0.585475	0.606930
O3	O	0.861067	0.085495	0.120214
O4	O	1.361067	0.585495	0.620214
O5	O	0.988745	0.085485	-0.007458
O6	O	1.488745	0.585485	0.492542
O7	O	0.975448	0.085485	0.234602
O8	O	1.475448	0.585485	0.734602
O9	O	0.988729	-0.085649	-0.007451
O10	O	1.488729	0.414351	0.492549
O11	O	0.861050	-0.085639	0.120222
O12	O	1.361050	0.414361	0.620222
O13	O	1.103110	-0.085659	0.106937
O14	O	1.603110	0.414341	0.606937
Cu15	Cu	0.982079	-0.101275	0.113580
Cu16	Cu	1.482079	0.398725	0.613580
Cu17	Cu	0.982098	0.101111	0.113571
Cu18	Cu	1.482098	0.601111	0.613571
O19	O	0.975432	-0.085649	0.234610
O20	O	1.475432	0.414351	0.734610
C21	C	0.830084	-0.000069	0.119677
C22	C	1.330084	0.499931	0.619677
C23	C	0.737789	-0.000062	0.118056
C24	C	1.237789	0.499938	0.618056
N25	N	0.982071	-0.243622	0.113586
N26	N	1.482071	0.256378	0.613586
C27	C	0.438725	0.093205	0.112817
C28	C	0.938725	0.593205	0.612817
C29	C	0.525446	0.093212	0.114335
C30	C	1.025446	0.593212	0.614335
C31	C	0.525447	-0.093368	0.114332
C32	C	1.025447	0.406632	0.614332
C33	C	0.438728	-0.093373	0.112808
C34	C	0.938728	0.406627	0.612808
C35	C	0.395368	-0.000083	0.112055
C36	C	0.895368	0.499917	0.612055
C37	C	0.568809	-0.000072	0.115096
C38	C	1.068809	0.499928	0.615096
C39	C	0.662836	-0.000066	0.116741
C40	C	1.162836	0.499934	0.616741
C41	C	0.301336	-0.000089	0.110408
C42	C	0.801336	0.499911	0.610408
C43	C	0.982075	-0.336728	0.113588
C44	C	1.482075	0.163272	0.613588
C45	C	0.982083	-0.453533	0.113582
C46	C	1.482083	0.046467	0.613582
C47	C	0.982093	-0.546631	0.113573
C48	C	1.482093	-0.046631	0.613573
C49	C	0.982102	-0.663444	0.113568
C50	C	1.482102	-0.163444	0.613568
C51	C	1.134093	-0.000093	0.107474
C52	C	1.634093	0.499907	0.607474
C53	C	1.226388	-0.000094	0.109095
C54	C	1.726388	0.499906	0.609095
C55	C	0.988198	-0.000080	-0.038430
C56	C	1.488198	0.499920	0.461570
C57	C	0.986582	-0.000073	-0.130725
C58	C	1.486582	0.499927	0.369275
N59	N	0.982112	0.243458	0.113559
N60	N	1.482112	0.743458	0.613559
C61	C	0.982857	0.093209	-0.343066
C62	C	1.482857	0.593209	0.156934
C63	C	0.981331	0.093208	-0.429787
C64	C	1.481331	0.593208	0.070213
C65	C	0.981317	-0.093371	-0.429776
C66	C	1.481317	0.406629	0.070224
C67	C	0.982837	-0.093369	-0.343056
C68	C	1.482837	0.406631	0.156944
C69	C	0.983612	-0.000076	-0.299704
C70	C	1.483612	0.499924	0.200296
C71	C	0.980565	-0.000079	-0.473144
C72	C	1.480565	0.499921	0.026856
C73	C	0.978911	-0.000081	-0.567170
C74	C	1.478911	0.499919	-0.067170
C75	C	0.985265	-0.000074	-0.205672
C76	C	1.485265	0.499926	0.294328
C77	C	0.975979	-0.000082	0.265581
C78	C	1.475979	0.499918	0.765581
C79	C	0.977595	-0.000083	0.357876
C80	C	1.477595	0.499917	0.857876
H81	H	0.403424	0.169168	0.112203
H82	H	0.903424	0.669168	0.612203
H83	H	0.560743	0.169177	0.114954
H84	H	1.060743	0.669177	0.614954
H85	H	0.403426	-0.169345	0.112187
H86	H	0.903426	0.330655	0.612187
C87	C	0.980469	-0.195988	-0.477471
C88	C	1.480469	0.304012	0.022529
N89	N	0.979832	-0.273282	-0.513395
N90	N	1.479832	0.226718	-0.013395
H91	H	0.983485	0.169174	-0.307772
H92	H	1.483485	0.669174	0.192228
C93	C	0.983666	-0.195996	-0.295355
C94	C	1.483666	0.304004	0.204645
N95	N	0.984289	-0.273291	-0.259426
N96	N	1.484289	0.226709	0.240574
H97	H	0.560760	-0.169321	0.114946
H98	H	1.060760	0.330679	0.614946
H99	H	0.980715	0.169170	-0.465088
H100	H	1.480715	0.669170	0.034912
