data_functionalizedCrystal
_audit_creation_method	'MofGen! by Chris Wilmer'
_symmetry_space_group_name_H-M	'P1'
_symmetry_Int_Tables_number	1
_symmetry_cell_setting	triclinic
loop_
_symmetry_equiv_pos_as_xyz
  x,y,z
_cell_length_a	13.635800
_cell_length_b	11.168136
_cell_length_c	11.102289
_cell_angle_alpha	88.016621
_cell_angle_beta	108.605707
_cell_angle_gamma	71.491317
loop_
_atom_site_label
_atom_site_type_symbol
_atom_site_fract_x
_atom_site_fract_y
_atom_site_fract_z
V1	V	2.055194	-0.393699	0.175858
O2	O	2.034721	-0.386205	-0.008431
O3	O	2.043586	-0.391006	0.348678
O4	O	2.043335	-0.565405	0.173162
O5	O	2.034974	-0.210599	0.168301
V6	V	2.293777	-0.371799	0.153814
O7	O	2.192795	-0.441739	0.224214
O8	O	2.381274	-0.323759	0.105458
O9	O	2.193781	-0.374492	-0.019006
O10	O	2.372948	-0.379293	0.338103
O11	O	2.372696	-0.554899	0.161372
O12	O	2.194032	-0.200093	0.156510
V13	V	2.555194	-0.393699	0.175858
O14	O	2.534721	-0.386205	-0.008431
O15	O	2.543586	-0.391006	0.348678
O16	O	2.543335	-0.565405	0.173162
O17	O	2.534974	-0.210599	0.168301
V18	V	2.793777	-0.371799	0.153814
O19	O	2.692795	-0.441739	0.224214
O20	O	2.881274	-0.323759	0.105458
O21	O	2.693781	-0.374492	-0.019006
O22	O	2.872948	-0.379293	0.338103
O23	O	2.872696	-0.554899	0.161372
O24	O	2.694032	-0.200093	0.156510
C25	C	1.968430	-0.607257	0.166917
C26	C	1.999459	-0.747627	0.165856
C27	C	2.100721	-0.816319	0.171411
C28	C	2.132794	-0.961399	0.170314
C29	C	1.968751	-0.384795	0.390808
C30	C	1.999986	-0.383738	0.532091
C31	C	2.100288	-0.380699	-0.061129
C32	C	2.058673	-0.381764	-0.202410
C33	C	2.100609	-0.158235	0.162759
C34	C	2.059198	-0.017863	0.163814
C35	C	2.468751	-0.384795	0.390808
C36	C	2.499986	-0.383738	0.532091
C37	C	2.468430	-0.607257	0.166917
C38	C	2.499459	-0.747627	0.165856
C39	C	2.106655	-0.389540	0.604939
C40	C	2.136000	-0.388558	0.737691
C41	C	1.951996	-0.375965	0.724732
C42	C	1.922654	-0.376957	0.591984
C43	C	2.212887	-0.396805	0.612421
C44	C	2.242232	-0.395823	0.745172
C45	C	2.600288	-0.380699	-0.061129
C46	C	2.558673	-0.381764	-0.202410
C47	C	2.600609	-0.158235	0.162759
C48	C	2.559198	-0.017863	0.163814
C49	C	2.606655	-0.389540	0.604939
C50	C	2.636000	-0.388558	0.737691
C51	C	2.451996	-0.375965	0.724732
C52	C	2.422654	-0.376957	0.591984
C53	C	2.712887	-0.396805	0.612421
C54	C	2.742232	-0.395823	0.745172
C55	C	2.606031	-0.820004	0.171696
C56	C	2.635174	-0.951893	0.170674
C57	C	2.451164	-0.939015	0.157977
C58	C	2.422020	-0.807128	0.158990
C59	C	2.712269	-0.827441	0.179032
C60	C	2.741412	-0.959330	0.178011
H61	H	2.163669	-0.767720	0.176970
H62	H	2.808001	-0.489369	0.803044
Br63	Br	2.785200	-0.252066	0.786796
Br64	Br	1.777893	-0.369112	0.493125
Br65	Br	1.847055	-0.366767	0.806025
H66	H	2.308001	-0.489369	0.803044
Br67	Br	2.277388	-1.059813	0.178254
Br68	Br	2.728602	-0.749439	0.035259
Br69	Br	2.805880	-0.549863	0.580379
Br70	Br	2.791823	-0.786916	0.336998
H71	H	1.936507	-0.796223	0.160280
H72	H	2.268011	-0.309568	0.770137
H73	H	2.759600	-0.988243	0.087773
H74	H	2.713050	-0.307775	0.559189
H75	H	1.972450	-0.958822	0.159066
H76	H	2.813184	-1.011835	0.269905
Br77	Br	2.277380	-0.708901	0.151050
Br78	Br	2.305880	-0.549863	0.580379
Br79	Br	2.213148	-0.248415	0.523684
Br80	Br	2.346076	-1.019775	0.148658
H81	H	2.335801	-0.372247	0.532678
H82	H	2.389040	-0.370446	0.773514
