data_functionalizedCrystal
_audit_creation_method	'MofGen! by Chris Wilmer'
_symmetry_space_group_name_H-M	'P1'
_symmetry_Int_Tables_number	1
_symmetry_cell_setting	triclinic
loop_
_symmetry_equiv_pos_as_xyz
  x,y,z
_cell_length_a	17.699104
_cell_length_b	12.996460
_cell_length_c	17.699083
_cell_angle_alpha	89.992964
_cell_angle_beta	83.287266
_cell_angle_gamma	89.992694
loop_
_atom_site_label
_atom_site_type_symbol
_atom_site_fract_x
_atom_site_fract_y
_atom_site_fract_z
O1	O	-1.004067	0.085610	-0.095788
O2	O	-0.670734	0.418943	0.237546
O3	O	-0.337400	0.752276	0.570879
O4	O	-0.783691	0.085603	-0.108224
O5	O	-0.450357	0.418936	0.225110
O6	O	-0.117024	0.752270	0.558443
O7	O	-0.900105	0.085597	0.008183
O8	O	-0.566772	0.418931	0.341516
O9	O	-0.233438	0.752264	0.674850
O10	O	-0.887653	0.085615	-0.212194
O11	O	-0.554319	0.418949	0.121139
O12	O	-0.220986	0.752282	0.454472
O13	O	-0.900093	-0.085536	0.008189
O14	O	-0.566760	0.247797	0.341523
O15	O	-0.233426	0.581130	0.674856
O16	O	-0.783679	-0.085531	-0.108217
O17	O	-0.450345	0.247803	0.225116
O18	O	-0.117012	0.581136	0.558449
O19	O	-1.004055	-0.085524	-0.095781
O20	O	-0.670721	0.247809	0.237552
O21	O	-0.337388	0.581142	0.570885
Cu22	Cu	-0.893866	-0.101153	-0.101999
Cu23	Cu	-0.560532	0.232180	0.231335
Cu24	Cu	-0.227199	0.565513	0.564668
Cu25	Cu	-0.893880	0.101232	-0.102006
Cu26	Cu	-0.560547	0.434565	0.231327
Cu27	Cu	-0.227213	0.767899	0.564660
O28	O	-0.887641	-0.085519	-0.212188
O29	O	-0.554307	0.247815	0.121145
O30	O	-0.220974	0.581148	0.454479
C31	C	-0.755488	0.000035	-0.107772
C32	C	-0.422155	0.333368	0.225561
C33	C	-0.088821	0.666702	0.558895
C34	C	-0.671471	0.000032	-0.106427
C35	C	-0.338137	0.333366	0.226906
C36	C	-0.004804	0.666699	0.560239
C37	C	-0.146600	0.000038	-0.167171
C38	C	0.186734	0.333371	0.166162
C39	C	0.520067	0.666704	0.499496
C40	C	-0.225543	0.000042	-0.168430
C41	C	0.107790	0.333376	0.164903
C42	C	0.441123	0.666709	0.498236
C43	C	-0.274161	0.000037	-0.100095
C44	C	0.059172	0.333371	0.233238
C45	C	0.392506	0.666704	0.566572
C46	C	-0.243831	0.000038	-0.030496
C47	C	0.089502	0.333372	0.302837
C48	C	0.422835	0.666705	0.636171
C49	C	-0.164889	0.000041	-0.029238
C50	C	0.168445	0.333375	0.304095
C51	C	0.501778	0.666708	0.637429
C52	C	-0.562197	0.000029	-0.035569
C53	C	-0.228864	0.333362	0.297764
C54	C	0.104469	0.666695	0.631097
C55	C	-0.641144	0.000023	-0.036833
C56	C	-0.307811	0.333356	0.296500
C57	C	0.025522	0.666690	0.629834
C58	C	-0.622852	0.000030	-0.174762
C59	C	-0.289519	0.333363	0.158572
C60	C	0.043815	0.666697	0.491905
C61	C	-0.543909	0.000033	-0.173503
C62	C	-0.210576	0.333366	0.159830
C63	C	0.122757	0.666699	0.493163
C64	C	-0.513587	0.000039	-0.103905
C65	C	-0.180253	0.333372	0.229428
C66	C	0.153080	0.666706	0.562762
C67	C	-0.427987	0.000036	-0.102541
C68	C	-0.094653	0.333369	0.230793
C69	C	0.238680	0.666703	0.564126
C70	C	-0.359759	0.000033	-0.101459
C71	C	-0.026426	0.333366	0.231875
C72	C	0.306907	0.666700	0.565208
N73	N	-0.893861	-0.243500	-0.101993
N74	N	-0.560528	0.089833	0.231340
N75	N	-0.227194	0.423166	0.564674
C76	C	-0.893879	-0.663315	-0.102007
C77	C	-0.560545	-0.329981	0.231326
C78	C	-0.227212	0.003352	0.564660
C79	C	-0.893872	-0.546510	-0.102006
C80	C	-0.560538	-0.213176	0.231328
C81	C	-0.227205	0.120157	0.564661
C82	C	-0.893870	-0.453411	-0.102001
C83	C	-0.560537	-0.120078	0.231333
C84	C	-0.227204	0.213255	0.564666
C85	C	-0.893862	-0.336599	-0.101998
C86	C	-0.560529	-0.003265	0.231335
C87	C	-0.227196	0.330068	0.564669
C88	C	-0.032258	0.000041	-0.096233
C89	C	0.301076	0.333374	0.237101
C90	C	0.634409	0.666708	0.570434
C91	C	-0.116275	0.000036	-0.097578
C92	C	0.217059	0.333369	0.235756
C93	C	0.550392	0.666702	0.569089
C94	C	-0.899653	0.000030	0.036383
C95	C	-0.566319	0.333364	0.369717
C96	C	-0.232986	0.666697	0.703050
C97	C	-0.898314	0.000030	0.120402
C98	C	-0.564981	0.333363	0.453735
C99	C	-0.231647	0.666697	0.787068
N100	N	-0.893890	0.243579	-0.102006
N101	N	-0.560557	0.576913	0.231327
N102	N	-0.227224	0.910246	0.564661
C103	C	-0.888093	0.000051	-0.240388
C104	C	-0.554759	0.333384	0.092945
C105	C	-0.221426	0.666717	0.426278
C106	C	-0.889431	0.000058	-0.324406
C107	C	-0.556098	0.333391	0.008927
C108	C	-0.222765	0.666725	0.342260
C109	C	-0.966647	0.000030	0.169017
C110	C	-0.633314	0.333364	0.502351
C111	C	-0.299980	0.666697	0.835684
C112	C	-0.965385	0.000040	0.247961
C113	C	-0.632051	0.333373	0.581294
C114	C	-0.298718	0.666706	0.914627
C115	C	-0.895789	0.000041	0.278287
C116	C	-0.562455	0.333374	0.611620
C117	C	-0.229122	0.666707	0.944953
C118	C	-0.827451	0.000043	0.229665
C119	C	-0.494118	0.333376	0.562998
C120	C	-0.160784	0.666710	0.896331
C121	C	-0.828714	0.000041	0.150723
C122	C	-0.495381	0.333375	0.484056
C123	C	-0.162047	0.666708	0.817389
C124	C	-0.822356	0.000051	0.548028
C125	C	-0.489022	0.333385	0.881361
C126	C	-0.155689	0.666718	1.214695
C127	C	-0.821098	0.000050	0.626976
C128	C	-0.487764	0.333383	0.960310
C129	C	-0.154431	0.666717	1.293643
C130	C	-0.959026	0.000049	0.645266
C131	C	-0.625693	0.333383	0.978599
C132	C	-0.292360	0.666716	1.311933
C133	C	-0.960289	0.000048	0.566324
C134	C	-0.626956	0.333381	0.899658
C135	C	-0.293623	0.666714	1.232991
C136	C	-0.891952	0.000056	0.517709
C137	C	-0.558618	0.333389	0.851042
C138	C	-0.225285	0.666722	1.184376
C139	C	-0.893321	0.000048	0.432110
C140	C	-0.559988	0.333381	0.765443
C141	C	-0.226655	0.666714	1.098776
C142	C	-0.894419	0.000041	0.363885
C143	C	-0.561085	0.333374	0.697218
C144	C	-0.227752	0.666708	1.030551
H145	H	-0.504328	0.000031	-0.229149
H146	H	-0.170995	0.333365	0.104184
H147	H	0.162339	0.666698	0.437518
C148	C	-1.044000	0.088025	0.347329
C149	C	-0.710666	0.421358	0.680662
C150	C	-0.377333	0.754692	1.013995
C151	C	-1.040501	0.000044	0.301395
C152	C	-0.707168	0.333377	0.634729
C153	C	-0.373834	0.666711	0.968062
H154	H	-1.090379	0.088031	0.380312
H155	H	-0.757045	0.421365	0.713645
H156	H	-0.423712	0.754698	1.046978
H157	H	-1.002379	0.088021	0.376688
H158	H	-0.669046	0.421354	0.710022
H159	H	-0.335713	0.754687	1.043355
H160	H	-1.041626	0.147691	0.316134
H161	H	-0.708292	0.481025	0.649468
H162	H	-0.374959	0.814358	0.982801
H163	H	-1.042869	-0.059623	0.332590
H164	H	-0.709536	0.273710	0.665923
H165	H	-0.376203	0.607044	0.999256
H166	H	-1.082133	0.000039	0.272033
H167	H	-0.748799	0.333372	0.605366
H168	H	-0.415466	0.666705	0.938700
H169	H	-0.107020	0.000034	-0.222818
H170	H	0.226313	0.333367	0.110516
H171	H	0.559647	0.666701	0.443849
C172	C	-0.691237	0.000058	0.203650
C173	C	-0.357903	0.333392	0.536983
C174	C	-0.024570	0.666725	0.870317
C175	C	-0.750948	0.000052	0.262996
C176	C	-0.417615	0.333385	0.596329
C177	C	-0.084282	0.666718	0.929663
H178	H	-0.644007	0.000069	0.224228
H179	H	-0.310674	0.333402	0.557561
H180	H	0.022660	0.666736	0.890895
H181	H	-0.694590	-0.059617	0.173248
H182	H	-0.361257	0.273716	0.506581
H183	H	-0.027924	0.607049	0.839915
H184	H	-0.694612	0.059739	0.173234
H185	H	-0.361278	0.393073	0.506568
H186	H	-0.027945	0.726406	0.839901
H187	H	-0.747577	-0.059634	0.293409
H188	H	-0.414243	0.273700	0.626742
H189	H	-0.080910	0.607033	0.960075
H190	H	-0.747593	0.059733	0.293411
H191	H	-0.414260	0.393067	0.626744
H192	H	-0.080926	0.726400	0.960078
C193	C	-0.190895	0.000026	0.106977
C194	C	0.142438	0.333360	0.440310
C195	C	0.475772	0.666693	0.773643
C196	C	-0.131553	0.000035	0.047262
C197	C	0.201780	0.333369	0.380595
C198	C	0.535114	0.666702	0.713928
H199	H	-0.170314	0.000021	0.154205
H200	H	0.163020	0.333354	0.487538
H201	H	0.496353	0.666687	0.820871
H202	H	-0.221311	0.059699	0.103614
H203	H	0.112023	0.393032	0.436947
H204	H	0.445356	0.726365	0.770281
H205	H	-0.221298	-0.059658	0.103616
H206	H	0.112035	0.273675	0.436949
H207	H	0.445368	0.607008	0.770282
H208	H	-0.101153	0.059724	0.050620
H209	H	0.232181	0.393058	0.383953
H210	H	0.565514	0.726391	0.717286
H211	H	-0.101124	-0.059643	0.050626
H212	H	0.232209	0.273691	0.383960
H213	H	0.565542	0.607024	0.717293
H214	H	-1.023320	0.000023	0.144333
H215	H	-0.689986	0.333357	0.477666
H216	H	-0.356653	0.666690	0.810999
C217	C	-1.096504	0.000060	0.592335
C218	C	-0.763171	0.333393	0.925668
C219	C	-0.429838	0.666727	1.259002
C220	C	-1.036791	0.000052	0.532991
C221	C	-0.703458	0.333385	0.866324
C222	C	-0.370124	0.666718	1.199658
H223	H	-1.143733	0.000072	0.571755
H224	H	-0.810400	0.333405	0.905089
H225	H	-0.477066	0.666739	1.238422
H226	H	-1.093143	-0.059615	0.622747
H227	H	-0.759809	0.273718	0.956081
H228	H	-0.426476	0.607051	1.289414
H229	H	-1.093140	0.059742	0.622741
H230	H	-0.759806	0.393075	0.956074
H231	H	-0.426473	0.726408	1.289408
H232	H	-1.040152	-0.059634	0.502588
H233	H	-0.706819	0.273699	0.835921
H234	H	-0.373486	0.607033	1.169255
H235	H	-1.040154	0.059733	0.502566
H236	H	-0.706821	0.393066	0.835899
H237	H	-0.373488	0.726400	1.169232
H238	H	-0.773070	0.000041	0.111140
H239	H	-0.439737	0.333374	0.444473
H240	H	-0.106404	0.666708	0.777807
H241	H	-1.014670	0.000048	0.684858
H242	H	-0.681337	0.333382	1.018192
H243	H	-0.348003	0.666715	1.351525
H244	H	-0.766711	0.000057	0.508455
H245	H	-0.433377	0.333391	0.841788
H246	H	-0.100044	0.666724	1.175121
H247	H	-0.647550	0.000029	-0.231432
H248	H	-0.314216	0.333362	0.101901
H249	H	0.019117	0.666696	0.435235
H250	H	-0.250230	0.000054	-0.225100
H251	H	0.083104	0.333387	0.108233
H252	H	0.416437	0.666720	0.441567
H253	H	-0.537518	0.000031	0.021102
H254	H	-0.204185	0.333364	0.354435
H255	H	0.129148	0.666698	0.687768
C256	C	-0.740550	0.087996	0.041756
C257	C	-0.407217	0.421329	0.375089
C258	C	-0.073884	0.754662	0.708423
C259	C	-0.694590	0.000027	0.038285
C260	C	-0.361256	0.333361	0.371619
C261	C	-0.027923	0.666694	0.704952
H262	H	-0.773547	0.087992	0.088126
H263	H	-0.440214	0.421326	0.421460
H264	H	-0.106881	0.754659	0.754793
H265	H	-0.709381	0.147664	0.039379
H266	H	-0.376048	0.480998	0.372712
H267	H	-0.042714	0.814331	0.706046
H268	H	-0.769902	0.087978	0.000121
H269	H	-0.436569	0.421311	0.333455
H270	H	-0.103235	0.754644	0.666788
H271	H	-0.665234	0.000049	0.079917
H272	H	-0.331900	0.333382	0.413251
H273	H	0.001433	0.666716	0.746584
H274	H	-0.725763	-0.059657	0.040670
H275	H	-0.392429	0.273676	0.374003
H276	H	-0.059096	0.607010	0.707336
C277	C	-0.684876	0.000079	0.600971
C278	C	-0.351543	0.333412	0.934304
C279	C	-0.018209	0.666746	1.267637
C280	C	-0.744592	0.000065	0.660312
C281	C	-0.411259	0.333398	0.993645
C282	C	-0.077926	0.666731	1.326978
H283	H	-0.637649	0.000094	0.621553
H284	H	-0.304315	0.333428	0.954887
H285	H	0.029018	0.666761	1.288220
H286	H	-0.688223	-0.059596	0.570567
H287	H	-0.354890	0.273737	0.903900
H288	H	-0.021557	0.607071	1.237233
H289	H	-0.688251	0.059761	0.570556
H290	H	-0.354918	0.393094	0.903889
H291	H	-0.021585	0.726427	1.237222
H292	H	-0.741220	-0.059621	0.690724
H293	H	-0.407887	0.273712	1.024057
H294	H	-0.074553	0.607045	1.357390
H295	H	-0.741243	0.059746	0.690729
H296	H	-0.407910	0.393079	1.024062
H297	H	-0.074577	0.726412	1.357395
H298	H	-0.283422	0.000041	0.025143
H299	H	0.049911	0.333374	0.358477
H300	H	0.383245	0.666707	0.691810
