data_functionalizedCrystal
_audit_creation_method	'MofGen! by Chris Wilmer'
_symmetry_space_group_name_H-M	'P1'
_symmetry_Int_Tables_number	1
_symmetry_cell_setting	triclinic
loop_
_symmetry_equiv_pos_as_xyz
  x,y,z
_cell_length_a	13.635800
_cell_length_b	7.190339
_cell_length_c	7.076136
_cell_angle_alpha	83.149421
_cell_angle_beta	62.297948
_cell_angle_gamma	60.611724
loop_
_atom_site_label
_atom_site_type_symbol
_atom_site_fract_x
_atom_site_fract_y
_atom_site_fract_z
V1	V	-2.142684	0.291658	0.663504
O2	O	-2.089346	-0.017560	0.652425
O3	O	-2.160485	0.581718	0.657474
O4	O	-2.155293	0.285616	0.953562
O5	O	-2.094574	0.280591	0.354288
V6	V	-2.374286	0.254856	0.626700
O7	O	-2.295599	0.372387	0.744235
O8	O	-2.446470	0.174127	0.545969
O9	O	-2.244882	-0.035204	0.632730
O10	O	-2.486323	0.564074	0.637779
O11	O	-2.481095	0.265922	0.935917
O12	O	-2.250074	0.260897	0.336643
V13	V	-1.874279	0.254856	0.626700
O14	O	-1.922389	0.265922	0.935917
O15	O	-1.861670	0.260897	0.336643
O16	O	-1.856478	-0.035204	0.632730
O17	O	-1.927617	0.564074	0.637779
V18	V	-1.642677	0.291658	0.663504
O19	O	-1.721364	0.174127	0.545969
O20	O	-1.570493	0.372387	0.744235
O21	O	-1.766889	0.285616	0.953562
O22	O	-1.535868	0.280591	0.354288
O23	O	-1.530640	-0.017560	0.652425
O24	O	-1.772081	0.581718	0.657474
C25	C	-2.092022	0.652479	0.646632
C26	C	-2.148509	0.894054	0.643584
C27	C	-1.865314	0.274790	1.024313
C28	C	-1.928097	0.271756	1.265890
C29	C	-2.151642	0.271750	0.265885
C30	C	-2.088875	0.274824	0.024313
C31	C	-1.924947	-0.105951	0.643586
C32	C	-1.868467	-0.347522	0.646660
