data_functionalizedCrystal
_audit_creation_method	'MofGen! by Chris Wilmer'
_symmetry_space_group_name_H-M	'P1'
_symmetry_Int_Tables_number	1
_symmetry_cell_setting	triclinic
loop_
_symmetry_equiv_pos_as_xyz
  x,y,z
_cell_length_a	17.699077
_cell_length_b	17.699083
_cell_length_c	18.366186
_cell_angle_alpha	89.992864
_cell_angle_beta	89.991511
_cell_angle_gamma	83.281795
loop_
_atom_site_label
_atom_site_type_symbol
_atom_site_fract_x
_atom_site_fract_y
_atom_site_fract_z
O1	O	1.004084	0.095691	-0.060541
O2	O	0.783705	0.108148	-0.060545
O3	O	0.900120	-0.008270	-0.060537
O4	O	0.887668	0.212109	-0.060550
O5	O	0.900101	-0.008276	0.060563
O6	O	0.783685	0.108142	0.060554
O7	O	1.004064	0.095685	0.060558
Zn8	Zn	0.893871	0.101913	0.079783
Zn9	Zn	0.893897	0.101920	-0.079770
O10	O	0.887648	0.212103	0.060550
C11	C	0.755498	0.107700	0.000004
C12	C	0.671479	0.106363	0.000003
C13	C	0.632001	0.105730	0.066015
C14	C	0.553059	0.104462	0.066016
C15	C	0.513595	0.103832	0.000004
C16	C	0.553079	0.104463	-0.066013
C17	C	0.632021	0.105725	-0.066013
C18	C	0.234716	0.099369	-0.066014
C19	C	0.155768	0.098109	-0.066009
C20	C	0.155753	0.098105	0.066015
C21	C	0.234695	0.099368	0.066015
C22	C	0.274173	0.099995	-0.000002
C23	C	0.359772	0.101369	-0.000002
C24	C	0.427997	0.102464	0.000003
C25	C	0.899664	-0.036470	0.000013
C26	C	0.898326	-0.120488	0.000013
C27	C	0.966659	-0.169110	0.000015
C28	C	0.965397	-0.248054	0.000009
C29	C	0.895800	-0.278373	0.000006
C30	C	0.827461	-0.229744	0.000001
C31	C	0.828724	-0.150803	0.000002
C32	C	0.822366	-0.548107	-0.000005
C33	C	0.821108	-0.627055	-0.000004
C34	C	0.959039	-0.645358	0.000002
C35	C	0.960302	-0.566417	0.000003
C36	C	0.891963	-0.517795	-0.000005
C37	C	0.893333	-0.432196	0.000000
C38	C	0.894430	-0.363971	0.000005
C39	C	1.032271	0.096133	0.000007
C40	C	1.116289	0.097470	0.000004
C41	C	0.888104	0.240303	-0.000002
C42	C	0.889443	0.324321	-0.000007
N43	N	0.893859	0.101907	0.188674
N44	N	0.893915	0.101920	-0.188662
C45	C	0.945425	0.050383	0.226778
C46	C	0.945429	0.050379	0.303006
C47	C	0.893876	0.101913	0.341127
C48	C	0.842300	0.153442	0.303014
C49	C	0.842292	0.153439	0.226787
C50	C	0.883833	0.170863	0.461883
C51	C	0.883846	0.170867	0.538108
C52	C	0.893897	0.101923	0.576235
C53	C	0.903950	0.032972	0.538127
C54	C	0.903942	0.032969	0.461900
C55	C	0.893879	0.101922	0.423782
C56	C	0.945471	0.050390	0.696994
C57	C	0.945471	0.050386	0.773223
C58	C	0.842345	0.153455	0.773229
C59	C	0.842342	0.153453	0.697001
C60	C	0.893909	0.101921	0.658888
H61	H	0.664126	0.106249	0.119770
H62	H	0.520921	0.103933	0.119769
C63	C	0.753558	-0.097318	0.000002
H64	H	0.711927	-0.126680	0.000006
H65	H	0.751191	-0.066137	-0.042228
H66	H	0.751176	-0.066148	0.042237
H67	H	1.021041	-0.287639	0.000012
C68	C	0.509673	0.103782	-0.138627
H69	H	0.544494	0.104337	-0.177942
H70	H	0.473027	0.147413	-0.141368
H71	H	0.484730	0.059169	-0.141375
H72	H	0.123639	0.097595	-0.119767
C73	C	0.112331	0.097409	0.138635
H74	H	0.147140	0.097974	0.177948
H75	H	0.087391	0.052797	0.141388
H76	H	0.075679	0.141041	0.141374
C77	C	1.002138	-0.006308	0.184858
H78	H	1.032845	-0.036999	0.218474
H79	H	1.033588	0.020874	0.155106
H80	H	0.974963	-0.037785	0.155138
C81	C	0.278102	0.100056	0.138627
H82	H	0.243284	0.099490	0.177943
H83	H	0.303044	0.144666	0.141372
H84	H	0.314750	0.056422	0.141369
C85	C	0.278130	0.100067	-0.138630
H86	H	0.243317	0.099521	-0.177942
H87	H	0.314782	0.056441	-0.141376
H88	H	0.303068	0.144685	-0.141377
C89	C	0.872771	0.246704	0.419948
H90	H	0.874197	0.236828	0.369093
H91	H	0.912295	0.276314	0.432423
H92	H	0.824983	0.273750	0.432449
H93	H	0.987458	0.008428	0.665961
H94	H	0.766721	-0.508528	-0.000011
H95	H	0.664163	0.106242	-0.119767
H96	H	0.800323	0.195401	0.334056
C97	C	0.750905	-0.263090	-0.000008
H98	H	0.710388	-0.222823	-0.000017
H99	H	0.747533	-0.293511	0.042220
H100	H	0.747557	-0.293497	-0.042246
H101	H	0.912134	-0.023169	0.569168
H102	H	0.987459	0.008424	0.804248
C103	C	1.036857	-0.533069	0.000004
H104	H	1.077375	-0.573334	-0.000003
H105	H	1.040213	-0.502658	0.042232
H106	H	1.040220	-0.502652	-0.042233
C107	C	0.785635	0.210144	0.815149
H108	H	0.754921	0.240829	0.781535
H109	H	0.812802	0.241616	0.844875
H110	H	0.754182	0.182953	0.844895
H111	H	0.800355	0.195412	0.665975
C112	C	1.034211	-0.698844	-0.000001
H113	H	1.023495	-0.750202	-0.000011
H114	H	1.062748	-0.689675	0.042230
H115	H	1.062759	-0.689658	-0.042235
H116	H	0.912126	-0.023173	0.430876
H117	H	0.800300	0.195397	0.195762
C118	C	0.872794	0.246708	0.580020
H119	H	0.866794	0.287768	0.546398
H120	H	0.916034	0.250857	0.609742
H121	H	0.828722	0.248295	0.609768
C122	C	1.043217	-0.135766	0.000019
H123	H	1.083732	-0.176033	0.000013
H124	H	1.046572	-0.105356	0.042249
H125	H	1.046582	-0.105347	-0.042216
H126	H	0.764431	-0.651737	-0.000005
C127	C	1.002155	-0.006299	0.344930
H128	H	1.032867	-0.036986	0.311313
H129	H	0.974996	-0.037770	0.374680
H130	H	1.033610	0.020900	0.374651
