data_functionalizedCrystal
_audit_creation_method	'MofGen! by Chris Wilmer'
_symmetry_space_group_name_H-M	'P1'
_symmetry_Int_Tables_number	1
_symmetry_cell_setting	triclinic
loop_
_symmetry_equiv_pos_as_xyz
  x,y,z
_cell_length_a	13.897449
_cell_length_b	17.640280
_cell_length_c	13.897431
_cell_angle_alpha	101.279385
_cell_angle_beta	89.950255
_cell_angle_gamma	101.198218
loop_
_atom_site_label
_atom_site_type_symbol
_atom_site_fract_x
_atom_site_fract_y
_atom_site_fract_z
Zn1	Zn	1.552518	0.314311	-0.467924
Zn2	Zn	1.584972	0.446625	-0.274017
Zn3	Zn	1.391161	0.314453	-0.306607
Zn4	Zn	1.423792	0.446469	-0.435309
O5	O	1.488111	0.380464	-0.370964
O6	O	1.691806	0.331868	-0.442212
O7	O	1.559188	0.429217	-0.143327
O8	O	1.385327	0.203811	-0.355294
O9	O	1.715650	0.429079	-0.299750
O10	O	1.503875	0.203706	-0.473813
O11	O	1.416796	0.332111	-0.167271
O12	O	1.260506	0.331959	-0.323669
O13	O	1.440942	0.428812	-0.574648
O14	O	1.284480	0.428950	-0.418225
O15	O	1.535517	0.331717	-0.598610
O16	O	1.590829	0.557227	-0.268124
O17	O	1.472411	0.557112	-0.386625
C18	C	1.538709	0.585853	-0.320320
C19	C	1.560443	0.673719	-0.298687
C20	C	1.237494	0.380454	-0.370945
C21	C	1.130283	0.380468	-0.370954
C22	C	1.488249	0.380231	-0.622615
C23	C	1.488308	0.380132	-0.729854
C24	C	0.933989	0.380471	-0.370979
C25	C	1.043221	0.380467	-0.370963
C26	C	1.739706	0.380475	-0.370984
C27	C	1.846921	0.380480	-0.370992
C28	C	1.437341	0.174273	-0.421827
C29	C	1.415706	0.086407	-0.443501
C30	C	1.323392	0.962539	-0.535662
C31	C	1.343817	1.045103	-0.515303
C32	C	1.467203	1.045157	-0.392034
C33	C	1.446792	0.962591	-0.412385
C34	C	1.374885	0.921289	-0.484199
C35	C	1.498284	0.921341	-0.360923
C36	C	1.477871	0.838783	-0.381270
C37	C	1.405965	0.797475	-0.453079
C38	C	1.354471	0.838731	-0.504546
C39	C	1.570186	0.962645	-0.289104
C40	C	1.621678	0.921395	-0.237642
C41	C	1.601270	0.838836	-0.257993
C42	C	1.529364	0.797528	-0.329802
C43	C	1.652764	0.797580	-0.206526
C44	C	1.632350	0.715022	-0.226872
C45	C	1.508951	0.714969	-0.350149
C46	C	1.488014	0.380639	-0.120306
C47	C	1.488087	0.380516	-0.013123
C48	C	1.488159	0.380403	0.073919
C49	C	1.488245	0.380255	0.183114
H50	H	1.450404	0.681339	-0.408634
C51	C	1.244278	0.917102	-0.614648
N52	N	1.184684	0.882878	-0.674131
C53	C	1.592642	1.053463	-0.266728
N54	N	1.609558	1.121866	-0.249877
C55	C	1.383511	0.706658	-0.475461
N56	N	1.366599	0.638254	-0.492321
C57	C	1.287170	1.090475	-0.571926
N58	N	1.244505	1.124649	-0.614575
H59	H	1.525746	1.078797	-0.333560
C60	C	1.700770	0.966838	-0.158645
N61	N	1.760343	1.001064	-0.099143
C62	C	1.731848	0.843024	-0.127522
N63	N	1.791415	0.877252	-0.068015
H64	H	1.674280	0.681436	-0.184965
H65	H	1.295925	0.805101	-0.563032
