data_functionalizedCrystal
_audit_creation_method	'MofGen! by Chris Wilmer'
_symmetry_space_group_name_H-M	'P1'
_symmetry_Int_Tables_number	1
_symmetry_cell_setting	triclinic
loop_
_symmetry_equiv_pos_as_xyz
  x,y,z
_cell_length_a	15.698487
_cell_length_b	23.196402
_cell_length_c	23.196402
_cell_angle_alpha	90.003744
_cell_angle_beta	59.999178
_cell_angle_gamma	60.004720
loop_
_atom_site_label
_atom_site_type_symbol
_atom_site_fract_x
_atom_site_fract_y
_atom_site_fract_z
Zr1	Zr	0.932409	-0.075658	0.555355
O2	O	1.110115	-0.167703	0.463296
O3	O	0.754699	-0.047444	0.583575
O4	O	0.932407	-0.167709	0.583565
O5	O	0.932410	0.047433	0.463315
O6	O	0.932410	-0.167713	0.678435
O7	O	0.932407	-0.047437	0.463307
O8	O	0.614522	0.047421	0.678454
O9	O	1.250297	-0.167700	0.463296
O10	O	0.827797	-0.035411	0.666412
O11	O	0.827797	0.035392	0.595617
O12	O	1.037025	-0.106205	0.595605
O13	O	1.037025	-0.035402	0.524811
Zr14	Zr	0.932416	0.075643	0.706674
Zr15	Zr	0.932412	-0.075664	0.706661
Zr16	Zr	0.932412	0.075648	0.555367
Zr17	Zr	1.155982	-0.075655	0.555354
Zr18	Zr	0.708843	0.075640	0.706674
O19	O	1.110125	0.047428	0.678453
O20	O	1.110120	-0.167710	0.678435
O21	O	1.110120	0.047436	0.463315
O22	O	0.754709	0.167687	0.798732
O23	O	0.754704	-0.047451	0.798714
O24	O	0.754704	0.167695	0.583594
O25	O	0.932415	-0.047448	0.798714
O26	O	0.932417	0.167694	0.678463
O27	O	0.932415	0.167698	0.583594
O28	O	0.932417	0.047422	0.798722
O29	O	1.250299	-0.167705	0.583565
O30	O	0.614525	0.167689	0.678464
O31	O	0.614528	0.167685	0.798732
O32	O	0.614525	0.047417	0.798722
O33	O	1.250299	-0.047432	0.463307
O34	O	1.250302	-0.047436	0.583575
O35	O	0.827800	0.106190	0.666424
O36	O	0.827800	0.035387	0.737218
O37	O	1.037028	-0.035407	0.666411
O38	O	1.037028	0.035395	0.595617
C39	C	0.652757	-0.000012	0.631015
C40	C	0.557844	-0.000013	0.631015
C41	C	0.932408	-0.000001	0.441753
C42	C	0.932407	0.000001	0.377519
C43	C	0.932417	0.189254	0.631030
C44	C	0.932418	0.253487	0.631036
C45	C	0.384061	-0.000001	0.631013
C46	C	0.480766	-0.000006	0.631012
C47	C	1.212068	-0.000003	0.631014
C48	C	1.306981	-0.000002	0.631014
C49	C	0.932408	-0.189269	0.630998
C50	C	0.932407	-0.253503	0.630993
C51	C	1.041630	0.246709	0.594079
C52	C	1.041631	0.307063	0.594068
C53	C	0.932415	0.374196	0.631029
C54	C	0.823189	0.380972	0.667988
C55	C	0.823191	0.320618	0.667991
C56	C	0.848741	0.498130	0.692931
C57	C	0.848744	0.558481	0.692929
C58	C	0.932406	0.560350	0.631017
C59	C	1.016085	0.501853	0.569107
C60	C	1.016086	0.441498	0.569110
C61	C	0.932401	0.439644	0.631029
C62	C	1.041627	0.619011	0.594045
C63	C	1.041624	0.679368	0.594033
C64	C	0.823178	0.753278	0.667959
C65	C	0.823184	0.692921	0.667965
C66	C	0.932412	0.625790	0.631009
C67	C	0.823195	0.036949	0.384304
C68	C	0.823193	0.036951	0.323950
C69	C	0.932410	-0.000007	0.256811
C70	C	1.041636	-0.036956	0.250028
C71	C	1.041634	-0.036952	0.310382
C72	C	1.016083	-0.061915	0.132877
C73	C	1.016080	-0.061921	0.072525
C74	C	0.932419	-0.000018	0.070657
C75	C	0.848740	0.061891	0.129155
C76	C	0.848738	0.061895	0.189509
C77	C	0.932423	-0.000015	0.191363
C78	C	0.823198	0.036936	0.012002
C79	C	0.823201	0.036941	-0.048355
C80	C	1.041646	-0.036973	-0.122277
C81	C	1.041640	-0.036971	-0.061920
C82	C	0.932413	-0.000018	0.005217
C83	C	0.932417	-0.000014	0.820276
C84	C	0.932418	-0.000016	0.884509
C85	C	0.652761	-0.000018	0.820276
C86	C	0.557850	-0.000022	0.884510
C87	C	0.652761	0.189250	0.631031
C88	C	0.557850	0.253482	0.631036
C89	C	0.652765	0.189243	0.820292
C90	C	0.557856	0.253473	0.884531
C91	C	1.212059	-0.189258	0.441737
C92	C	1.306969	-0.253488	0.377497
C93	C	1.212064	0.000003	0.441753
C94	C	1.306975	0.000007	0.377519
C95	C	1.212064	-0.189265	0.630998
C96	C	1.306975	-0.253497	0.630993
C97	C	0.513277	-0.036986	0.877714
C98	C	0.424110	-0.037004	0.938063
C99	C	0.379512	-0.000053	1.005206
C100	C	0.424094	0.036912	1.012000
C101	C	0.513265	0.036925	0.951652
C102	C	0.513280	0.320608	0.667999
C103	C	0.424114	0.380967	0.668001
C104	C	0.379512	0.374198	0.631045
C105	C	0.424091	0.307064	0.594078
C106	C	0.513262	0.246707	0.594071
C107	C	0.513285	0.246678	0.951659
C108	C	0.424120	0.307023	1.012024
C109	C	0.379521	0.374162	1.005260
C110	C	0.424100	0.380956	0.938125
C111	C	0.513270	0.320612	0.877762
C112	C	1.351550	-0.246693	0.310370
C113	C	1.440743	-0.307038	0.250005
C114	C	1.485347	-0.374177	0.256768
C115	C	1.440762	-0.380971	0.323903
C116	C	1.351577	-0.320627	0.384267
C117	C	1.351557	0.036965	0.384314
C118	C	1.440748	0.036965	0.323966
C119	C	1.485350	0.000013	0.256822
C120	C	1.440764	-0.036950	0.250028
C121	C	1.351580	-0.036954	0.310376
C122	C	1.351548	-0.246705	0.667956
C123	C	1.440715	-0.307052	0.667965
C124	C	1.485314	-0.374190	0.631005
C125	C	1.440732	-0.380981	0.594040
C126	C	1.351560	-0.320634	0.594036
H127	H	1.130567	0.301543	0.563970
H128	H	0.734257	0.067039	0.329475
H129	H	1.557967	-0.423308	0.207611
H130	H	0.549538	0.192052	0.563974
H131	H	1.130570	-0.067037	0.304852
H132	H	0.780595	0.112295	0.127644
H133	H	0.549585	0.192014	0.957180
C134	C	0.703050	0.700376	0.708629
H135	H	0.638003	0.749001	0.730646
H136	H	0.698503	0.678364	0.676735
H137	H	0.698519	0.678373	0.743607
C138	C	1.302534	-0.077600	0.302893
H139	H	1.341866	-0.099598	0.254260
H140	H	1.317136	-0.112577	0.324894
H141	H	1.218338	-0.045694	0.324895
C142	C	0.756712	0.129991	0.253847
H143	H	0.706889	0.166863	0.244094
H144	H	0.708323	0.122151	0.293769
H145	H	0.798162	0.142980	0.263362
H146	H	1.315279	-0.326168	0.438924
H147	H	1.315239	-0.192030	0.304849
C148	C	1.489825	-0.454827	0.331334
H149	H	1.549313	-0.489787	0.285766
H150	H	1.524619	-0.460135	0.356411
H151	H	1.425802	-0.460127	0.356401
H152	H	1.477058	-0.435653	0.563949
H153	H	1.315249	0.067061	0.438980
C154	C	1.161770	-0.077610	0.176179
H155	H	1.146130	-0.072327	0.141205
H156	H	1.206648	-0.059358	0.170882
H157	H	1.206643	-0.126233	0.170886
H158	H	1.477029	-0.301492	0.195347
C159	C	1.489781	0.077624	0.331448
H160	H	1.549297	0.072330	0.285894
H161	H	1.425759	0.126244	0.356527
H162	H	1.524560	0.059368	0.356531
H163	H	1.557969	0.000022	0.207689
C164	C	1.489752	-0.299574	0.708621
H165	H	1.549238	-0.345126	0.703341
H166	H	1.524544	-0.274499	0.690364
H167	H	1.425719	-0.274492	0.757246
C168	C	1.583409	-0.440565	0.631009
H169	H	1.603571	-0.426898	0.658313
H170	H	1.554193	-0.467876	0.650793
H171	H	1.653000	-0.467863	0.583919
C172	C	1.489825	-0.077588	0.176169
H173	H	1.549313	-0.072281	0.141207
H174	H	1.524620	-0.126212	0.170857
H175	H	1.425802	-0.059328	0.170873
H176	H	0.734258	0.067040	0.066668
H177	H	1.315278	-0.326174	0.563933
C178	C	1.161775	0.172870	0.553422
H179	H	1.226818	0.177480	0.531404
H180	H	1.166320	0.147790	0.585320
H181	H	1.166315	0.147788	0.518444
C182	C	1.108112	0.377161	0.501013
H183	H	1.157935	0.386914	0.464136
H184	H	1.156501	0.337245	0.508854
H185	H	1.066662	0.367641	0.488030
H186	H	0.306902	-0.000069	1.054340
H187	H	0.734264	0.435636	0.698080
H188	H	0.734264	0.067033	-0.042824
C189	C	0.375020	0.299624	0.553431
H190	H	0.414334	0.251002	0.531410
H191	H	0.290825	0.321638	0.585340
H192	H	0.389645	0.321635	0.518459
C193	C	1.108123	0.503896	0.501001
H194	H	1.096135	0.548220	0.509861
H195	H	1.187409	0.467180	0.485984
H196	H	1.097591	0.497562	0.465145
C197	C	1.161769	0.545168	0.553386
H198	H	1.226815	0.549776	0.531363
H199	H	1.166319	0.520089	0.585284
H200	H	1.166301	0.520087	0.518413
H201	H	1.315250	-0.192043	0.698053
C202	C	0.281438	0.440537	1.071662
H203	H	0.261261	0.481500	1.058025
H204	H	0.211864	0.440534	1.098968
H205	H	0.310695	0.440528	1.098956
C206	C	1.161763	0.671910	0.553378
H207	H	1.226810	0.623284	0.531376
H208	H	1.166311	0.693909	0.518400
H209	H	1.166294	0.693925	0.585283
C210	C	0.703042	0.827116	0.708591
H211	H	0.718681	0.862091	0.703292
H212	H	0.658196	0.832384	0.690326
H213	H	0.658139	0.832432	0.757222
H214	H	0.734254	0.326143	0.698087
H215	H	0.549585	0.326133	0.698094
H216	H	0.780614	0.606105	0.743341
H217	H	0.780602	0.496620	0.743349
H218	H	0.549588	-0.067084	0.823048
C219	C	1.161782	-0.077624	-0.196122
H220	H	1.146144	-0.072337	-0.231096
H221	H	1.206658	-0.059371	-0.201415
H222	H	1.206657	-0.126248	-0.201419
H223	H	0.734253	0.067034	0.438966
H224	H	0.387822	-0.067105	0.932517
C225	C	1.161774	-0.077623	-0.069383
H226	H	1.226822	-0.099639	-0.118011
H227	H	1.166319	-0.045724	-0.047374
H228	H	1.166308	-0.112598	-0.047375
H229	H	0.387774	0.435629	0.932629
C230	C	0.375084	0.454805	0.708670
H231	H	0.315599	0.489787	0.703378
H232	H	0.340293	0.460093	0.757291
H233	H	0.439120	0.460092	0.690418
C234	C	1.108164	-0.130005	0.008168
H235	H	1.096189	-0.121141	-0.028046
H236	H	1.187429	-0.144988	-0.008753
H237	H	1.097681	-0.165884	0.021595
H238	H	1.084229	-0.112325	0.134383
C239	C	0.375018	0.077561	1.085860
H240	H	0.315517	0.072262	1.120822
H241	H	0.439021	0.059322	1.091167
H242	H	0.340208	0.126187	1.091161
H243	H	0.387832	0.301478	1.066683
C244	C	0.562289	0.077587	0.959132
H245	H	0.621792	0.072303	0.913579
H246	H	0.498261	0.126205	0.984220
H247	H	0.597082	0.059327	0.984208
C248	C	0.281419	0.440594	0.631062
H249	H	0.261260	0.481540	0.658376
H250	H	0.310636	0.440609	0.583979
H251	H	0.211826	0.440603	0.650858
C252	C	0.562274	0.328095	0.803925
H253	H	0.522926	0.376725	0.808549
H254	H	0.646469	0.306093	0.778829
H255	H	0.547633	0.306096	0.778849
