data_functionalizedCrystal
_audit_creation_method	'MofGen! by Chris Wilmer'
_symmetry_space_group_name_H-M	'P1'
_symmetry_Int_Tables_number	1
_symmetry_cell_setting	triclinic
loop_
_symmetry_equiv_pos_as_xyz
  x,y,z
_cell_length_a	19.805407
_cell_length_b	19.805405
_cell_length_c	19.805398
_cell_angle_alpha	89.972363
_cell_angle_beta	89.983299
_cell_angle_gamma	90.028350
loop_
_atom_site_label
_atom_site_type_symbol
_atom_site_fract_x
_atom_site_fract_y
_atom_site_fract_z
Zn1	Zn	1.034711	-0.269455	-0.382727
Zn2	Zn	1.034633	-0.382640	-0.269535
Zn3	Zn	0.921533	-0.269474	-0.269550
Zn4	Zn	0.921489	-0.382611	-0.382680
O5	O	0.978091	-0.326045	-0.326123
O6	O	1.129417	-0.284473	-0.367725
O7	O	1.019616	-0.367648	-0.174820
O8	O	0.936597	-0.174755	-0.284588
O9	O	1.129360	-0.367630	-0.284564
O10	O	1.019749	-0.174741	-0.367739
O11	O	0.936522	-0.284506	-0.174831
O12	O	0.826811	-0.284478	-0.284543
O13	O	0.936522	-0.367581	-0.477403
O14	O	0.826778	-0.367599	-0.367660
O15	O	1.019706	-0.284445	-0.477437
O16	O	1.019573	-0.477353	-0.284518
O17	O	0.936447	-0.477332	-0.367646
C18	C	0.802235	-0.326038	-0.326098
C19	C	0.727003	-0.326051	-0.326104
C20	C	0.265246	-0.282826	-0.369517
C21	C	0.335934	-0.282828	-0.369513
C22	C	0.371242	-0.326055	-0.326145
C23	C	0.335857	-0.369290	-0.282784
C24	C	0.265170	-0.369291	-0.282793
C25	C	0.620931	-0.369284	-0.282748
C26	C	0.691623	-0.369278	-0.282741
C27	C	0.691695	-0.282821	-0.369468
C28	C	0.621007	-0.282822	-0.369477
C29	C	0.585629	-0.326059	-0.326119
C30	C	0.508981	-0.326058	-0.326125
C31	C	0.447889	-0.326053	-0.326134
C32	C	0.978015	-0.501901	-0.326090
C33	C	0.978045	-0.577133	-0.326099
C34	C	1.021371	-0.612466	-0.282860
C35	C	1.021399	-0.683154	-0.282875
C36	C	0.978098	-0.718509	-0.326126
C37	C	0.934770	-0.683171	-0.369370
C38	C	0.934746	-0.612484	-0.369357
C39	C	0.934870	-0.968244	-0.369420
C40	C	0.934897	-1.038936	-0.369427
C41	C	1.021524	-1.038915	-0.282937
C42	C	1.021499	-0.968227	-0.282925
C43	C	0.978174	-0.932896	-0.326171
C44	C	0.978144	-0.856248	-0.326155
C45	C	0.978124	-0.795156	-0.326139
C46	C	1.154634	-0.326053	-0.326148
C47	C	1.229866	-0.326056	-0.326158
C48	C	0.978118	-0.326008	-0.502666
C49	C	0.978129	-0.325992	-0.577898
C50	C	0.978186	-0.149502	-0.326171
C51	C	0.978227	-0.074270	-0.326191
C52	C	1.021525	-0.282583	-1.039708
C53	C	1.021514	-0.282604	-0.969019
C54	C	0.978199	-0.325897	-0.933660
C55	C	0.934896	-0.369178	-0.968992
C56	C	0.934911	-0.369160	-1.039679
C57	C	0.934837	-0.369251	-0.683919
C58	C	0.934825	-0.369264	-0.613226
C59	C	1.021441	-0.282695	-0.613259
C60	C	1.021455	-0.282677	-0.683946
C61	C	0.978155	-0.325960	-0.719272
C62	C	0.978168	-0.325938	-0.795921
C63	C	0.978182	-0.325917	-0.857012
C64	C	0.978104	-0.326034	-0.150267
C65	C	0.978224	-0.325859	-0.075035
H66	H	0.236365	-0.404494	-0.247486
H67	H	0.899631	-0.404431	-0.940196
H68	H	1.056679	-0.711919	-0.247665
H69	H	1.056757	-0.939444	-0.247704
H70	H	1.056776	-0.247366	-0.940259
H71	H	0.899651	-0.404400	-1.068442
H72	H	1.056804	-1.067690	-0.247726
H73	H	0.592263	-0.247620	-0.404789
H74	H	0.899548	-0.404519	-0.584438
Br75	Br	1.080248	-0.223926	-0.731931
H76	H	0.899637	-1.067720	-0.404652
H77	H	1.056628	-0.583685	-0.247637
H78	H	0.899592	-0.939483	-0.404631
H79	H	0.236503	-0.247621	-0.404829
Br80	Br	0.876009	-0.731151	-0.428074
H81	H	0.899466	-0.583717	-0.404568
Br82	Br	1.080304	-0.223815	-1.087689
Br83	Br	0.876078	-0.427997	-0.731853
Br84	Br	1.080203	-0.223949	-0.565312
Br85	Br	0.739712	-0.224143	-0.428314
H86	H	0.720368	-0.404482	-0.247424
Br87	Br	0.383947	-0.224162	-0.428365
H88	H	0.592134	-0.404488	-0.247441
H89	H	0.364610	-0.404489	-0.247475
