data_functionalizedCrystal
_audit_creation_method	'MofGen! by Chris Wilmer'
_symmetry_space_group_name_H-M	'P1'
_symmetry_Int_Tables_number	1
_symmetry_cell_setting	triclinic
loop_
_symmetry_equiv_pos_as_xyz
  x,y,z
_cell_length_a	16.109301
_cell_length_b	15.538191
_cell_length_c	14.586319
_cell_angle_alpha	89.999456
_cell_angle_beta	89.999213
_cell_angle_gamma	65.366787
loop_
_atom_site_label
_atom_site_type_symbol
_atom_site_fract_x
_atom_site_fract_y
_atom_site_fract_z
O1	O	1.066616	0.121093	-0.076175
O2	O	0.820010	0.136163	-0.076189
O3	O	0.991317	-0.008516	-0.076184
O4	O	0.895309	0.265773	-0.076180
O5	O	0.991309	-0.008518	0.076297
O6	O	0.820002	0.136161	0.076292
O7	O	1.066608	0.121091	0.076306
Cu8	Cu	0.943304	0.128626	0.090221
Cu9	Cu	0.943314	0.128629	-0.090105
O10	O	0.895301	0.265770	0.076300
C11	C	0.789215	0.135552	0.000050
C12	C	0.697472	0.133722	0.000044
C13	C	0.450596	0.215316	0.000056
C14	C	0.364396	0.213589	0.000062
C15	C	0.436032	0.041932	0.000056
C16	C	0.522229	0.043660	0.000056
C17	C	0.529508	0.130355	0.000052
C18	C	0.357111	0.126900	0.000057
C19	C	0.263649	0.125027	0.000063
C20	C	0.622975	0.132228	0.000047
C21	C	1.001358	-0.043615	0.000054
C22	C	1.031279	-0.148198	0.000047
C23	C	0.734025	-0.435898	0.000050
C24	C	0.762161	-0.534172	0.000053
C25	C	0.920419	-0.556664	0.000062
C26	C	0.892297	-0.458389	0.000054
C27	C	0.799099	-0.398013	0.000049
C28	C	0.957370	-0.420505	0.000053
C29	C	0.929249	-0.322239	0.000049
C30	C	0.836055	-0.261857	0.000047
C31	C	0.770978	-0.299747	0.000046
C32	C	1.050568	-0.480882	0.000064
C33	C	1.115641	-0.442998	0.000063
C34	C	1.087520	-0.344730	0.000053
C35	C	0.994326	-0.284349	0.000051
C36	C	1.152598	-0.306840	0.000055
C37	C	1.124477	-0.208574	0.000052
C38	C	0.966206	-0.186083	0.000048
C39	C	1.097403	0.121703	0.000065
C40	C	1.189147	0.123533	0.000065
C41	C	0.885260	0.300870	0.000060
C42	C	0.855340	0.405453	0.000062
N43	N	0.943304	0.128624	0.217053
N44	N	0.943324	0.128624	-0.216937
C45	C	1.019171	0.064581	0.452062
C46	C	1.019174	0.064579	0.548043
C47	C	0.867450	0.192669	0.548048
C48	C	0.867445	0.192666	0.452069
C49	C	0.943310	0.128623	0.404078
C50	C	0.943318	0.128624	0.596039
C51	C	0.943320	0.128622	0.700106
C52	C	0.943307	0.128624	0.300004
H53	H	0.586487	-0.025530	0.000056
C54	C	0.458602	0.310675	0.000060
H55	H	0.399256	0.361027	0.000072
H56	H	0.490737	0.314924	-0.053112
H57	H	0.490738	0.314912	0.053242
C58	C	1.102619	-0.005865	0.600826
H59	H	1.091755	0.003298	0.664862
H60	H	1.155011	0.004382	0.585094
H61	H	1.112560	-0.068747	0.585095
H62	H	0.430094	-0.028652	0.000065
C63	C	0.783995	0.263118	0.399282
H64	H	0.738819	0.301269	0.441609
H65	H	0.759618	0.229215	0.361844
H66	H	0.802068	0.302345	0.361838
H67	H	0.300146	0.282773	0.000067
C68	C	1.022930	-0.623080	0.000063
H69	H	1.030360	-0.687031	0.000059
H70	H	1.050840	-0.611595	0.053233
H71	H	1.050832	-0.611598	-0.053121
C72	C	0.784010	0.263119	0.600840
H73	H	0.794881	0.253956	0.664875
H74	H	0.731615	0.252874	0.585119
H75	H	0.774070	0.325999	0.585104
H76	H	0.890314	-0.136921	0.000037
C77	C	0.668461	-0.233328	0.000032
H78	H	0.633729	-0.269962	0.000034
H79	H	0.654211	-0.194529	-0.053143
H80	H	0.654198	-0.194527	0.053211
H81	H	0.813161	-0.181843	0.000050
H82	H	0.658134	-0.386736	0.000039
H83	H	0.709164	-0.565012	0.000068
H84	H	1.073460	-0.560896	0.000059
H85	H	1.191523	-0.492169	0.000071
C86	C	1.255108	-0.373259	0.000064
H87	H	1.262535	-0.437208	0.000064
H88	H	1.283012	-0.361770	0.053236
H89	H	1.283017	-0.361783	-0.053117
H90	H	1.177466	-0.177729	0.000052
C91	C	1.102613	-0.005871	0.399275
H92	H	1.147789	-0.044018	0.441603
H93	H	1.126991	0.028024	0.361827
H94	H	1.084536	-0.045101	0.361840
