data_functionalizedCrystal
_audit_creation_method	'MofGen! by Chris Wilmer'
_symmetry_space_group_name_H-M	'P1'
_symmetry_Int_Tables_number	1
_symmetry_cell_setting	triclinic
loop_
_symmetry_equiv_pos_as_xyz
  x,y,z
_cell_length_a	9.065215
_cell_length_b	15.995292
_cell_length_c	7.540329
_cell_angle_alpha	90.004132
_cell_angle_beta	90.002642
_cell_angle_gamma	84.241657
loop_
_atom_site_label
_atom_site_type_symbol
_atom_site_fract_x
_atom_site_fract_y
_atom_site_fract_z
O1	O	0.189751	1.112452	0.147527
O2	O	0.689751	1.612452	0.647527
O3	O	0.213323	0.868849	0.147519
O4	O	0.713323	1.368849	0.647519
O5	O	-0.013226	0.995687	0.147516
O6	O	0.486774	1.495687	0.647516
O7	O	0.416300	0.985614	0.147531
O8	O	0.916300	1.485614	0.647531
O9	O	-0.013228	0.995679	-0.147449
O10	O	0.486772	1.495679	0.352551
O11	O	0.213321	0.868841	-0.147446
O12	O	0.713321	1.368841	0.352554
O13	O	0.189749	1.112444	-0.147438
O14	O	0.689749	1.612444	0.352562
Cu15	Cu	0.201534	0.990642	-0.174375
Cu16	Cu	0.701534	1.490642	0.325625
Cu17	Cu	0.201538	0.990651	0.174456
Cu18	Cu	0.701538	1.490651	0.674456
O19	O	0.416298	0.985606	-0.147434
O20	O	0.916298	1.485606	0.352566
C21	C	0.212363	0.837642	0.000036
C22	C	0.712363	1.337642	0.500036
C23	C	0.209486	0.744667	0.000033
C24	C	0.709486	1.244667	0.500033
C25	C	0.198913	0.406849	0.000053
C26	C	0.698913	0.906849	0.500053
C27	C	0.362430	0.431400	0.000717
C28	C	0.862430	0.931400	0.500717
C29	C	0.365538	0.528099	0.000045
C30	C	0.865538	1.028099	0.500045
C31	C	0.204159	0.574444	0.000044
C32	C	0.704159	1.074444	0.500044
C33	C	0.122407	0.544719	-0.168392
C34	C	0.622407	1.044719	0.331608
C35	C	0.120438	0.447913	-0.168526
C36	C	0.620438	0.947913	0.331474
C37	C	0.117103	0.448041	0.166904
C38	C	0.617103	0.948041	0.666904
C39	C	0.123162	0.544580	0.169123
C40	C	0.623162	1.044580	0.669123
C41	C	0.207116	0.669163	0.000033
C42	C	0.707116	1.169163	0.500033
C43	C	0.195951	0.312131	0.000052
C44	C	0.695951	0.812131	0.500052
C45	C	-0.068191	0.994716	0.000035
C46	C	0.431809	1.494716	0.500035
C47	C	-0.231965	0.991823	0.000040
C48	C	0.268035	1.491823	0.500040
C49	C	0.471263	0.986578	0.000050
C50	C	0.971263	1.486578	0.500050
C51	C	0.635037	0.989470	0.000056
C52	C	1.135037	1.489470	0.500056
C53	C	0.190709	1.143651	0.000049
C54	C	0.690709	1.643651	0.500049
C55	C	0.193586	1.236626	0.000064
C56	C	0.693586	1.736626	0.500064
N57	N	0.201531	0.990642	-0.419723
N58	N	0.701531	1.490642	0.080277
N59	N	0.201529	0.990658	0.419804
N60	N	0.701529	1.490658	0.919804
H61	H	0.000547	0.432454	-0.176178
H62	H	0.500547	0.932454	0.323822
H63	H	0.425458	0.403885	0.121511
H64	H	0.925458	0.903885	0.621511
H65	H	0.425106	0.402853	-0.119394
H66	H	0.925106	0.902853	0.380606
H67	H	0.179177	0.565205	-0.293742
H68	H	0.679177	1.065205	0.206258
Br69	Br	0.472882	0.559590	-0.201544
Br70	Br	0.972882	1.059590	0.298456
Br71	Br	-0.073172	0.598037	0.186079
Br72	Br	0.426828	1.098037	0.686079
H73	H	0.003654	0.575687	-0.174656
H74	H	0.503654	1.075687	0.325344
Br75	Br	0.202302	0.401488	0.379691
Br76	Br	0.702302	0.901488	0.879691
Br77	Br	0.214806	0.403921	-0.378378
Br78	Br	0.714806	0.903921	0.121622
H79	H	0.182686	0.563604	0.293731
H80	H	0.682686	1.063604	0.793731
Br81	Br	-0.083507	0.423207	0.168796
Br82	Br	0.416493	0.923207	0.668796
H83	H	0.429554	0.547614	0.120791
H84	H	0.929554	1.047614	0.620791
