data_functionalizedCrystal
_audit_creation_method	'MofGen! by Chris Wilmer'
_symmetry_space_group_name_H-M	'P1'
_symmetry_Int_Tables_number	1
_symmetry_cell_setting	triclinic
loop_
_symmetry_equiv_pos_as_xyz
  x,y,z
_cell_length_a	16.959455
_cell_length_b	16.959454
_cell_length_c	12.827885
_cell_angle_alpha	89.970356
_cell_angle_beta	89.979491
_cell_angle_gamma	90.019503
loop_
_atom_site_label
_atom_site_type_symbol
_atom_site_fract_x
_atom_site_fract_y
_atom_site_fract_z
Zn1	Zn	1.208429	-0.314655	-0.590884
Zn2	Zn	1.208338	-0.446854	-0.416145
Zn3	Zn	1.076244	-0.314693	-0.416154
Zn4	Zn	1.076222	-0.446794	-0.590841
O5	O	1.142308	-0.380749	-0.503506
O6	O	1.319028	-0.332201	-0.567719
O7	O	1.190787	-0.429364	-0.269910
O8	O	1.093826	-0.204077	-0.439354
O9	O	1.318961	-0.429328	-0.439339
O10	O	1.190942	-0.204049	-0.567728
O11	O	1.093738	-0.332265	-0.269917
O12	O	0.965630	-0.332207	-0.439312
O13	O	1.093789	-0.429225	-0.737083
O14	O	0.965614	-0.429261	-0.567654
O15	O	1.190920	-0.332143	-0.737115
O16	O	1.190766	-0.557457	-0.439297
O17	O	1.093700	-0.557413	-0.567645
C18	C	0.936942	-0.380732	-0.503480
C19	C	0.849086	-0.380744	-0.503494
C20	C	0.807775	-0.431241	-0.436557
C21	C	0.807843	-0.330253	-0.570439
C22	C	0.725297	-0.330259	-0.570452
C23	C	0.683986	-0.380756	-0.503515
C24	C	0.725221	-0.431247	-0.436566
C25	C	0.684055	-0.279763	-0.637392
C26	C	0.601504	-0.279767	-0.637406
C27	C	0.560192	-0.330269	-0.570474
C28	C	0.601433	-0.380762	-0.503523
C29	C	0.560122	-0.431259	-0.436586
C30	C	0.601361	-0.481757	-0.369640
C31	C	0.683909	-0.481749	-0.369633
C32	C	0.477644	-0.330278	-0.570481
C33	C	0.477568	-0.431265	-0.436595
C34	C	1.142242	-0.586115	-0.503488
C35	C	1.142286	-0.673972	-0.503516
C36	C	1.091840	-1.045455	-0.570330
C37	C	1.192997	-1.045441	-0.436789
C38	C	1.192969	-0.962895	-0.436779
C39	C	1.142375	-0.921625	-0.503545
C40	C	1.091809	-0.962901	-0.570320
C41	C	1.243529	-0.921612	-0.369997
C42	C	1.243503	-0.839061	-0.369984
C43	C	1.192912	-0.797790	-0.436756
C44	C	1.142345	-0.839071	-0.503535
C45	C	1.091751	-0.797802	-0.570301
C46	C	1.041186	-0.839081	-0.637086
C47	C	1.041219	-0.921630	-0.637092
C48	C	1.192880	-0.715242	-0.436750
C49	C	1.091720	-0.715248	-0.570291
C50	C	1.348477	-0.380767	-0.503533
C51	C	1.436333	-0.380775	-0.503544
C52	C	1.142362	-0.380673	-0.776076
C53	C	1.142385	-0.380641	-0.892230
C54	C	1.142396	-0.174581	-0.503547
C55	C	1.142434	-0.086724	-0.503564
C56	C	1.190454	-0.332592	-0.944030
C57	C	1.190479	-0.332558	-1.064080
C58	C	1.142300	-0.380768	-0.231996
C59	C	1.142431	-0.380577	-0.115844
H60	H	0.443939	-0.472390	-0.382090
N61	N	0.433171	-0.275817	-0.642681
H62	H	0.398930	-0.307980	-0.691047
H63	H	0.398962	-0.239166	-0.600220
H64	H	1.101245	-0.421746	-0.936758
H65	H	1.234045	-0.681636	-0.382370
H66	H	0.717493	-0.522860	-0.315126
N67	N	0.557031	-0.225315	-0.709624
H68	H	0.498468	-0.232982	-0.699479
H69	H	0.571466	-0.168846	-0.693484
N70	N	1.298078	-0.966134	-0.297981
H71	H	1.334704	-1.000339	-0.340493
H72	H	1.330052	-0.927417	-0.255675
N73	N	0.986676	-0.966154	-0.709104
H74	H	0.954620	-0.927486	-0.751401
H75	H	1.018841	-1.000363	-0.757506
N76	N	1.298044	-0.794541	-0.297967
H77	H	1.330100	-0.833213	-0.255676
H78	H	1.334592	-0.760252	-0.340556
N79	N	1.244951	-0.278139	-0.885057
H80	H	1.277034	-0.246070	-0.936119
H81	H	1.212752	-0.241600	-0.839773
H82	H	1.050523	-0.681651	-0.624664
N83	N	0.852252	-0.485699	-0.364351
H84	H	0.837864	-0.473358	-0.289715
H85	H	0.837857	-0.542168	-0.380548
N86	N	0.556802	-0.536213	-0.297434
H87	H	0.498251	-0.528547	-0.307598
H88	H	0.571211	-0.592681	-0.313572
H89	H	1.231635	-0.291424	-1.108627
N90	N	1.087907	-0.435076	-1.056866
H91	H	1.120032	-0.471694	-1.011577
H92	H	1.051321	-0.402878	-1.011643
H93	H	0.999989	-0.805470	-0.691442
N94	N	0.852402	-0.275809	-0.642648
H95	H	0.886656	-0.239139	-0.600270
H96	H	0.886606	-0.308049	-0.690970
N97	N	0.728609	-0.225330	-0.709620
H98	H	0.787160	-0.233003	-0.699473
H99	H	0.714181	-0.237727	-0.784213
H100	H	1.234184	-1.079047	-0.382425
N101	N	1.037306	-1.089970	-0.642362
H102	H	1.045001	-1.148527	-0.632244
H103	H	0.980856	-1.075589	-0.626026
