data_functionalizedCrystal
_audit_creation_method	'MofGen! by Chris Wilmer'
_symmetry_space_group_name_H-M	'P1'
_symmetry_Int_Tables_number	1
_symmetry_cell_setting	triclinic
loop_
_symmetry_equiv_pos_as_xyz
  x,y,z
_cell_length_a	17.699104
_cell_length_b	17.019294
_cell_length_c	16.776229
_cell_angle_alpha	86.114377
_cell_angle_beta	89.991971
_cell_angle_gamma	83.342939
loop_
_atom_site_label
_atom_site_type_symbol
_atom_site_fract_x
_atom_site_fract_y
_atom_site_fract_z
O1	O	1.004137	0.099835	-0.073156
O2	O	1.504137	0.599835	0.426844
O3	O	0.783770	0.112797	-0.074044
O4	O	1.283770	0.612797	0.425956
O5	O	0.900101	-0.008528	-0.065713
O6	O	1.400101	0.491472	0.434287
O7	O	0.887806	0.221160	-0.081487
O8	O	1.387806	0.721160	0.418513
O9	O	0.900085	-0.008536	0.066864
O10	O	1.400085	0.491464	0.566864
O11	O	0.783755	0.112789	0.058533
O12	O	1.283755	0.612789	0.558533
O13	O	1.004122	0.099828	0.059421
O14	O	1.504122	0.599828	0.559421
Zn15	Zn	0.893936	0.106307	0.080027
Zn16	Zn	1.393936	0.606307	0.580027
Zn17	Zn	0.893956	0.106317	-0.094649
Zn18	Zn	1.393956	0.606317	0.405351
O19	O	0.887791	0.221153	0.051090
O20	O	1.387791	0.721153	0.551090
C21	C	0.755565	0.112326	-0.007723
C22	C	1.255565	0.612326	0.492277
C23	C	0.671547	0.110924	-0.007626
C24	C	1.171547	0.610924	0.492374
C25	C	0.146720	0.174234	-0.011982
C26	C	0.646720	0.674234	0.488018
C27	C	0.225664	0.175547	-0.012074
C28	C	0.725664	0.675547	0.487926
C29	C	0.274233	0.104324	-0.007183
C30	C	0.774233	0.604324	0.492817
C31	C	0.243853	0.031785	-0.002207
C32	C	0.743853	0.531785	0.497793
C33	C	0.164910	0.030473	-0.002120
C34	C	0.664910	0.530473	0.497880
C35	C	0.562223	0.037072	-0.002557
C36	C	1.062223	0.537072	0.497443
C37	C	0.641171	0.038389	-0.002642
C38	C	1.141171	0.538389	0.497358
C39	C	0.622977	0.182145	-0.012511
C40	C	1.122977	0.682145	0.487489
C41	C	0.544034	0.180834	-0.012425
C42	C	1.044034	0.680834	0.487575
C43	C	0.513661	0.108295	-0.007453
C44	C	1.013661	0.608295	0.492547
C45	C	0.428060	0.106873	-0.007354
C46	C	0.928060	0.606873	0.492646
C47	C	0.359832	0.105745	-0.007276
C48	C	0.859832	0.605745	0.492724
C49	C	0.899627	-0.037921	0.002592
C50	C	1.399627	0.462079	0.502592
C51	C	0.898228	-0.125489	0.008601
C52	C	1.398228	0.374511	0.508601
C53	C	0.897581	-0.166620	-0.060843
C54	C	1.397581	0.333380	0.439157
C55	C	0.896262	-0.248899	-0.055195
C56	C	1.396262	0.251101	0.444805
C57	C	0.895595	-0.290045	0.019898
C58	C	1.395595	0.209955	0.519898
C59	C	0.896240	-0.248908	0.089348
C60	C	1.396240	0.251092	0.589348
C61	C	0.897553	-0.166630	0.083699
C62	C	1.397553	0.333370	0.583699
C63	C	0.891623	-0.538472	0.040570
C64	C	1.391623	-0.038472	0.540570
C65	C	0.890311	-0.620756	0.046214
C66	C	1.390311	-0.120756	0.546214
C67	C	0.890332	-0.620740	-0.098330
C68	C	1.390332	-0.120740	0.401670
C69	C	0.891650	-0.538461	-0.103972
C70	C	1.391650	-0.038461	0.396028
C71	C	0.892291	-0.497331	-0.034523
C72	C	1.392291	0.002669	0.465477
C73	C	0.894249	-0.374148	0.025673
C74	C	1.394249	0.125852	0.525673
C75	C	0.893631	-0.413229	-0.040299
C76	C	1.393631	0.086771	0.459701
C77	C	1.032327	0.100299	-0.006902
C78	C	1.532327	0.600299	0.493098
C79	C	1.116345	0.101700	-0.007004
C80	C	1.616345	0.601700	0.492996
C81	C	0.888265	0.250545	-0.017216
C82	C	1.388265	0.750545	0.482784
C83	C	0.889664	0.338113	-0.023230
C84	C	1.389664	0.838113	0.476770
N85	N	0.893927	0.106300	0.199238
N86	N	1.393927	0.606300	0.699238
N87	N	0.893970	0.106318	-0.213860
N88	N	1.393970	0.606318	0.286140
C89	C	0.945454	0.052599	0.244643
C90	C	1.445454	0.552599	0.744643
C91	C	0.945459	0.052599	0.328095
C92	C	1.445459	0.552599	0.828095
C93	C	0.893939	0.106303	0.366141
C94	C	1.393939	0.606303	0.866141
C95	C	0.842406	0.160006	0.320731
C96	C	1.342406	0.660006	0.820731
C97	C	0.842399	0.160003	0.237280
C98	C	1.342399	0.660003	0.737280
C99	C	0.842434	0.160022	0.657277
C100	C	1.342434	0.660022	1.157277
C101	C	0.842446	0.160023	0.740733
C102	C	1.342446	0.660023	1.240733
C103	C	0.945493	0.052618	0.748092
C104	C	1.445493	0.552618	1.248092
C105	C	0.945486	0.052614	0.664641
C106	C	1.445486	0.552614	1.164641
C107	C	0.893951	0.106314	0.619238
C108	C	1.393951	0.606314	1.119238
C109	C	0.893946	0.106313	0.528750
C110	C	1.393946	0.606313	1.028750
C111	C	0.893947	0.106308	0.456628
C112	C	1.393947	0.606308	0.956628
H113	H	0.283404	-0.026206	0.001771
H114	H	0.783404	0.473794	0.501771
H115	H	0.987440	0.008886	0.633667
H116	H	1.487440	0.508886	1.133667
H117	H	0.987453	0.008890	0.785068
H118	H	1.487453	0.508890	1.285068
H119	H	0.800454	0.203731	0.351713
H120	H	1.300454	0.703731	0.851713
H121	H	0.800490	0.203757	0.771708
H122	H	1.300490	0.703757	1.271708
H123	H	0.898070	-0.133141	0.140248
H124	H	1.398070	0.366859	0.640248
H125	H	0.892159	-0.504995	0.097121
H126	H	1.392159	-0.004995	0.597121
H127	H	0.800474	0.203748	0.620316
H128	H	1.300474	0.703748	1.120316
N129	N	0.491669	0.257665	-0.017665
N130	N	0.991669	0.757665	0.482335
H131	H	0.501434	0.289337	-0.068976
H132	H	1.001434	0.789337	0.431024
H133	H	0.437065	0.245783	-0.016810
H134	H	0.937065	0.745783	0.483190
N135	N	0.892449	-0.494097	-0.184966
N136	N	1.392449	0.005903	0.315034
H137	H	0.893411	-0.435737	-0.178006
H138	H	1.393411	0.064263	0.321994
H139	H	0.939148	-0.514998	-0.215025
H140	H	1.439148	-0.014998	0.284975
N141	N	0.895529	-0.293286	0.170342
N142	N	1.395529	0.206714	0.670342
H143	H	0.848094	-0.320951	0.175469
H144	H	1.348094	0.179049	0.675469
H145	H	0.941916	-0.333857	0.176293
H146	H	1.441916	0.166143	0.676293
N147	N	0.094338	0.251054	-0.017232
N148	N	0.594338	0.751054	0.482768
H149	H	0.125562	0.297202	-0.020395
H150	H	0.625562	0.797202	0.479605
H151	H	0.061186	0.253657	-0.066553
H152	H	0.561186	0.753657	0.433447
N153	N	0.258427	0.253779	-0.017457
N154	N	0.758427	0.753779	0.482543
H155	H	0.215680	0.298699	-0.020541
H156	H	0.715680	0.798699	0.479459
H157	H	0.290782	0.257457	0.031435
H158	H	0.790782	0.757457	0.531435
H159	H	0.800440	0.203730	0.200313
H160	H	1.300440	0.703730	0.700313
H161	H	0.647716	0.241210	-0.016563
H162	H	1.147716	0.741210	0.483437
N163	N	0.889640	-0.665101	-0.173232
N164	N	1.389640	-0.165101	0.326768
H165	H	0.888706	-0.723468	-0.158262
H166	H	1.388706	-0.223468	0.341738
H167	H	0.842976	-0.644236	-0.206222
H168	H	1.342976	-0.144236	0.293778
H169	H	0.893708	-0.407659	0.086815
H170	H	1.393708	0.092341	0.586815
H171	H	0.680715	-0.019612	0.001339
H172	H	1.180715	0.480388	0.501339
H173	H	0.537503	-0.021993	0.001493
H174	H	1.037503	0.478007	0.501493
H175	H	0.140181	-0.028591	0.001932
H176	H	0.640181	0.471409	0.501932
N177	N	1.001060	-0.005294	0.377066
N178	N	1.501060	0.494706	0.877066
H179	H	1.033708	-0.039303	0.340300
H180	H	1.533708	0.460697	0.840300
H181	H	1.034471	0.024900	0.409589
H182	H	1.534471	0.524900	0.909589
H183	H	0.898128	-0.133124	-0.121993
H184	H	1.398128	0.366876	0.378007
N185	N	0.895650	-0.293236	-0.130120
N186	N	1.395650	0.206764	0.369880
H187	H	0.849019	-0.272445	-0.163196
H188	H	1.349019	0.227555	0.336804
H189	H	0.942840	-0.285327	-0.162117
H190	H	1.442840	0.214673	0.337883
N191	N	0.889594	-0.665139	0.127211
N192	N	1.389594	-0.165139	0.627211
H193	H	0.890199	-0.626599	0.170351
H194	H	1.390199	-0.126599	0.670351
H195	H	0.842155	-0.692801	0.132253
H196	H	1.342155	-0.192801	0.632253
N197	N	0.894339	-0.368822	-0.121274
N198	N	1.394339	0.131178	0.378726
H199	H	0.941007	-0.389593	-0.151459
H200	H	1.441007	0.110407	0.348541
H201	H	0.847186	-0.376657	-0.152271
H202	H	1.347186	0.123343	0.347729
H203	H	0.987411	0.008870	0.213671
H204	H	1.487411	0.508870	0.713671
