data_functionalizedCrystal
_audit_creation_method	'MofGen! by Chris Wilmer'
_symmetry_space_group_name_H-M	'P1'
_symmetry_Int_Tables_number	1
_symmetry_cell_setting	triclinic
loop_
_symmetry_equiv_pos_as_xyz
  x,y,z
_cell_length_a	14.519709
_cell_length_b	15.944493
_cell_length_c	12.996460
_cell_angle_alpha	89.999729
_cell_angle_beta	90.000034
_cell_angle_gamma	83.577594
loop_
_atom_site_label
_atom_site_type_symbol
_atom_site_fract_x
_atom_site_fract_y
_atom_site_fract_z
O1	O	1.223651	0.110112	-0.085419
O2	O	1.723651	0.610112	0.414581
O3	O	0.955148	0.123079	-0.085449
O4	O	1.455148	0.623079	0.414551
O5	O	1.096760	-0.005672	-0.085442
O6	O	1.596760	0.494328	0.414558
O7	O	1.082040	0.238863	-0.085426
O8	O	1.582040	0.738863	0.414574
O9	O	1.096745	-0.005679	0.085692
O10	O	1.596745	0.494321	0.585692
O11	O	0.955134	0.123072	0.085685
O12	O	1.455134	0.623072	0.585685
O13	O	1.223636	0.110105	0.085715
O14	O	1.723636	0.610105	0.585715
Cu15	Cu	1.089384	0.116588	0.101326
Cu16	Cu	1.589384	0.616588	0.601326
Cu17	Cu	1.089401	0.116596	-0.101060
Cu18	Cu	1.589401	0.616596	0.398940
O19	O	1.082025	0.238856	0.085708
O20	O	1.582025	0.738856	0.585708
C21	C	0.920783	0.122471	0.000114
C22	C	1.420783	0.622471	0.500114
C23	C	0.818405	0.120660	0.000102
C24	C	1.318405	0.620660	0.500102
C25	C	1.096151	-0.036971	0.000121
C26	C	1.596151	0.463029	0.500121
C27	C	1.094347	-0.130222	0.000107
C28	C	1.594347	0.369778	0.500107
C29	C	0.443522	0.113994	0.000148
C30	C	0.943522	0.613994	0.500148
C31	C	0.547826	0.115845	0.000135
C32	C	1.047826	0.615845	0.500135
C33	C	0.630960	0.117327	0.000124
C34	C	1.130960	0.617327	0.500124
C35	C	0.735271	0.119178	0.000113
C36	C	1.235271	0.619178	0.500113
C37	C	1.177703	-0.365861	0.000136
C38	C	1.677703	0.134139	0.500136
C39	C	1.132759	-0.416491	-0.084246
C40	C	1.632759	0.083509	0.415754
C41	C	1.091005	-0.300948	0.000120
C42	C	1.591005	0.199052	0.500120
C43	C	1.132725	-0.416474	0.084478
C44	C	1.632725	0.083526	0.584478
C45	C	1.087783	-0.465863	0.000136
C46	C	1.587783	0.034137	0.500136
C47	C	1.046085	-0.350350	-0.084332
C48	C	1.546085	0.149650	0.415668
C49	C	1.046063	-0.350330	0.084468
C50	C	1.546063	0.149670	0.584468
C51	C	1.001056	-0.400926	0.000065
C52	C	1.501056	0.099074	0.500065
C53	C	1.092863	-0.205946	0.000109
C54	C	1.592863	0.294054	0.500109
C55	C	1.085918	-0.560862	0.000139
C56	C	1.585918	-0.060862	0.500139
C57	C	1.258002	0.110713	0.000150
C58	C	1.758002	0.610713	0.500150
C59	C	1.360380	0.112524	0.000155
C60	C	1.860380	0.612524	0.500155
C61	C	1.082634	0.270155	0.000143
C62	C	1.582634	0.770155	0.500143
C63	C	1.084438	0.363406	0.000149
C64	C	1.584438	0.863406	0.500149
N65	N	1.089378	0.116581	0.243673
N66	N	1.589378	0.616581	0.743673
N67	N	1.089414	0.116596	-0.243407
N68	N	1.589414	0.616596	0.256593
C69	C	1.089400	0.116597	0.663487
C70	C	1.589400	0.616597	1.163487
C71	C	1.089391	0.116596	0.546682
C72	C	1.589391	0.616596	1.046682
C73	C	1.089389	0.116590	0.453584
C74	C	1.589389	0.616590	0.953584
C75	C	1.089380	0.116587	0.336771
C76	C	1.589380	0.616587	0.836771
H77	H	1.252382	-0.350125	0.000060
H78	H	1.752382	0.149875	0.500060
C79	C	0.998923	-0.223953	-0.179917
C80	C	1.498923	0.276047	0.320083
C81	C	0.996716	-0.311522	-0.180757
C82	C	1.496716	0.188478	0.319243
H83	H	0.968455	-0.199985	-0.239451
H84	H	1.468455	0.300015	0.260549
H85	H	0.968332	-0.200731	-0.120090
H86	H	1.468332	0.299269	0.379910
H87	H	1.061481	-0.211756	-0.179657
H88	H	1.561481	0.288244	0.320343
H89	H	0.934158	-0.323719	-0.181009
H90	H	1.434158	0.176281	0.318991
H91	H	1.027305	-0.334752	-0.240600
H92	H	1.527305	0.165248	0.259400
C93	C	1.274635	-0.438194	-0.180377
C94	C	1.774635	0.061806	0.319623
C95	C	1.182191	-0.455501	-0.180538
C96	C	1.682191	0.044499	0.319462
H97	H	1.305155	-0.462280	-0.239818
H98	H	1.805155	0.037720	0.260182
H99	H	1.276645	-0.378857	-0.180760
H100	H	1.776645	0.121143	0.319240
H101	H	1.304801	-0.461720	-0.120450
H102	H	1.804801	0.038280	0.379550
H103	H	1.152023	-0.431968	-0.240461
H104	H	1.652023	0.068032	0.259539
H105	H	1.180175	-0.514850	-0.180164
H106	H	1.680175	-0.014850	0.319836
H107	H	1.169350	-0.445355	0.155812
H108	H	1.669350	0.054645	0.655812
H109	H	0.926319	-0.416501	0.000011
H110	H	1.426319	0.083499	0.500011
H111	H	1.009475	-0.321425	0.155802
H112	H	1.509475	0.178575	0.655802
