data_functionalizedCrystal
_audit_creation_method	'MofGen! by Chris Wilmer'
_symmetry_space_group_name_H-M	'P1'
_symmetry_Int_Tables_number	1
_symmetry_cell_setting	triclinic
loop_
_symmetry_equiv_pos_as_xyz
  x,y,z
_cell_length_a	12.759401
_cell_length_b	12.759400
_cell_length_c	12.759393
_cell_angle_alpha	90.030490
_cell_angle_beta	90.019554
_cell_angle_gamma	90.014845
loop_
_atom_site_label
_atom_site_type_symbol
_atom_site_fract_x
_atom_site_fract_y
_atom_site_fract_z
Zn1	Zn	1.606266	-0.418211	0.593981
Zn2	Zn	1.606158	-0.593927	0.418301
Zn3	Zn	1.430565	-0.418263	0.418321
Zn4	Zn	1.430557	-0.593849	0.593943
O5	O	1.518387	-0.506062	0.506137
O6	O	1.753273	-0.441531	0.570685
O7	O	1.582823	-0.570678	0.271283
O8	O	1.453921	-0.271235	0.441647
O9	O	1.753193	-0.570628	0.441614
O10	O	1.583008	-0.271197	0.570704
O11	O	1.453816	-0.441619	0.271297
O12	O	1.283543	-0.441544	0.441609
O13	O	1.453908	-0.570496	0.740969
O14	O	1.283537	-0.570546	0.570638
O15	O	1.583000	-0.441456	0.740997
O16	O	1.582815	-0.740937	0.441577
O17	O	1.453802	-0.740880	0.570620
C18	C	1.245419	-0.506043	0.506122
C19	C	1.128643	-0.506060	0.506141
C20	C	1.073805	-0.573339	0.573215
C21	C	0.964081	-0.573352	0.573227
C22	C	0.964042	-0.438805	0.439081
C23	C	1.073764	-0.438787	0.439075
C24	C	1.128684	-0.640612	0.640281
C25	C	1.073846	-0.707898	0.707360
C26	C	0.964122	-0.707911	0.707371
C27	C	0.909236	-0.640639	0.640304
C28	C	1.518324	-0.779030	0.506115
C29	C	1.518394	-0.895806	0.506140
C30	C	1.585645	-0.950663	0.439022
C31	C	1.585710	-1.060387	0.439054
C32	C	1.451262	-1.060388	0.573327
C33	C	1.451204	-0.950666	0.573299
C34	C	1.652835	-0.895804	0.371864
C35	C	1.720091	-0.950660	0.304739
C36	C	1.720156	-1.060384	0.304771
C37	C	1.652964	-1.115252	0.371929
C38	C	1.792420	-0.506082	0.506152
C39	C	1.909196	-0.506091	0.506158
C40	C	1.518465	-0.505961	0.780170
C41	C	1.518499	-0.505918	0.896947
C42	C	1.518478	-0.232029	0.506182
C43	C	1.518517	-0.115252	0.506201
C44	C	1.518369	-0.506087	0.233169
C45	C	1.518539	-0.505834	0.116393
C46	C	1.585722	-0.438716	0.951825
C47	C	1.585740	-0.438671	1.061549
C48	C	1.451308	-0.573039	1.061507
C49	C	1.451285	-0.573078	0.951785
H50	H	1.118542	-0.762662	0.761970
H51	H	1.652787	-0.806461	0.371827
F52	F	1.379782	-0.644515	1.119879
F53	F	1.379728	-0.644603	0.893376
H54	H	1.218027	-0.640611	0.640277
H55	H	1.653031	-1.204596	0.371958
H56	H	1.396442	-0.906001	0.627954
F57	F	0.792456	-0.640649	0.640328
F58	F	1.657254	-0.367236	0.893466
F59	F	0.905763	-0.779512	0.778769
H60	H	0.919345	-0.384036	0.384477
F61	F	1.132129	-0.367181	0.367687
H62	H	1.774803	-0.905982	0.250068
F63	F	1.791743	-1.118764	0.233342
F64	F	1.657296	-0.367152	1.119950
H65	H	1.396557	-1.105069	0.628002
