data_functionalizedCrystal
_audit_creation_method	'MofGen! by Chris Wilmer'
_symmetry_space_group_name_H-M	'P1'
_symmetry_Int_Tables_number	1
_symmetry_cell_setting	triclinic
loop_
_symmetry_equiv_pos_as_xyz
  x,y,z
_cell_length_a	14.971486
_cell_length_b	10.489741
_cell_length_c	13.448316
_cell_angle_alpha	89.993703
_cell_angle_beta	89.998199
_cell_angle_gamma	84.076651
loop_
_atom_site_label
_atom_site_type_symbol
_atom_site_fract_x
_atom_site_fract_y
_atom_site_fract_z
O1	O	1.187893	0.166222	-0.082577
O2	O	0.927607	0.186128	-0.082604
O3	O	1.063673	-0.009491	-0.082584
O4	O	1.051827	0.361841	-0.082597
O5	O	1.063655	-0.009503	0.082800
O6	O	0.927589	0.186116	0.082780
O7	O	1.187876	0.166210	0.082807
Cu8	Cu	1.057731	0.176162	0.097894
Cu9	Cu	1.057752	0.176176	-0.097691
O10	O	1.051810	0.361829	0.082787
C11	C	0.894268	0.185232	0.000085
C12	C	0.794956	0.182564	0.000074
C13	C	0.738385	0.297485	0.000072
C14	C	0.645071	0.294971	0.000087
C15	C	0.608330	0.177534	0.000097
C16	C	0.664909	0.062604	0.000103
C17	C	0.758221	0.065120	0.000095
C18	C	0.470416	0.057369	0.000117
C19	C	0.377098	0.054853	0.000123
C20	C	0.357267	0.287220	0.000108
C21	C	0.450579	0.289736	0.000101
C22	C	0.507151	0.174805	0.000104
C23	C	1.062769	-0.057019	0.000107
C24	C	1.060093	-0.198617	0.000105
C25	C	0.973518	-0.265755	0.000089
C26	C	1.014406	-0.358357	0.081636
C27	C	1.014444	-0.358320	-0.081419
C28	C	1.101017	-0.289354	0.081720
C29	C	1.101043	-0.289307	-0.081409
C30	C	1.141994	-0.381882	0.000158
C31	C	1.221215	0.167106	0.000116
C32	C	1.320527	0.169774	0.000120
C33	C	1.052713	0.409357	0.000094
C34	C	1.055390	0.550955	0.000089
N35	N	1.057723	0.176151	0.235459
N36	N	1.057766	0.176177	-0.235255
C37	C	1.117992	0.089567	0.287508
C38	C	1.117998	0.089566	0.391611
C39	C	1.057738	0.176156	0.443663
C40	C	0.997462	0.262745	0.391607
C41	C	0.997453	0.262739	0.287505
C42	C	0.997487	0.262753	0.608587
C43	C	0.997497	0.262761	0.712695
C44	C	1.118032	0.089580	0.712693
C45	C	1.118023	0.089574	0.608591
C46	C	1.057748	0.176165	0.556542
H47	H	0.347187	-0.040774	0.000132
H48	H	0.634987	-0.033015	0.000126
H49	H	1.213239	-0.432131	0.000211
H50	H	0.948375	0.333243	0.245128
H51	H	0.977767	-0.388950	0.150571
H52	H	0.948393	0.333244	0.433993
N53	N	1.179535	0.001113	0.234327
N54	N	1.179519	0.001113	0.141381
H55	H	1.222983	-0.061362	0.103822
N56	N	0.884220	-0.202446	0.000185
N57	N	0.831961	-0.220531	0.070089
H58	H	0.768896	-0.175819	0.070161
H59	H	0.768291	0.393115	0.000063
H60	H	1.167073	0.019061	0.433989
N61	N	0.968504	-0.396649	-0.167918
N62	N	1.008460	-0.472197	-0.228979
H63	H	0.976011	-0.499263	-0.290067
H64	H	1.137610	-0.258951	0.150739
H65	H	1.137650	-0.258681	-0.150347
N66	N	0.299490	0.404626	0.000136
N67	N	0.303287	0.482688	0.069848
H68	H	0.262481	0.565605	0.069867
H69	H	0.599014	0.388551	0.000083
N70	N	0.528192	-0.060040	0.000134
N71	N	0.495379	-0.164887	0.000144
H72	H	0.536183	-0.247806	0.000155
N73	N	0.488095	0.409703	0.000075
N74	N	0.437578	0.512308	0.000069
H75	H	0.464073	0.597038	0.000052
H76	H	1.167095	0.019072	0.566211
H77	H	1.167109	0.019075	0.755077
H78	H	0.948402	0.333261	0.566212
H79	H	0.804281	-0.028461	0.000097
H80	H	0.948426	0.333271	0.755071
