data_functionalizedCrystal
_audit_creation_method	'MofGen! by Chris Wilmer'
_symmetry_space_group_name_H-M	'P1'
_symmetry_Int_Tables_number	1
_symmetry_cell_setting	triclinic
loop_
_symmetry_equiv_pos_as_xyz
  x,y,z
_cell_length_a	14.971475
_cell_length_b	17.038272
_cell_length_c	13.448316
_cell_angle_alpha	89.993314
_cell_angle_beta	90.005879
_cell_angle_gamma	92.639383
loop_
_atom_site_label
_atom_site_type_symbol
_atom_site_fract_x
_atom_site_fract_y
_atom_site_fract_z
O1	O	-1.194580	0.101857	-0.082673
O2	O	-0.694580	0.601857	0.417327
O3	O	-0.935092	0.114068	-0.082679
O4	O	-0.435092	0.614068	0.417321
O5	O	-1.063294	-0.005855	-0.082668
O6	O	-0.563294	0.494145	0.417332
O7	O	-1.066378	0.221780	-0.082684
O8	O	-0.566378	0.721780	0.417316
O9	O	-1.063276	-0.005862	0.082716
O10	O	-0.563276	0.494138	0.582716
O11	O	-0.935075	0.114061	0.082705
O12	O	-0.435075	0.614061	0.582705
O13	O	-1.194562	0.101849	0.082711
O14	O	-0.694562	0.601849	0.582711
Cu15	Cu	-1.064817	0.107954	0.097809
Cu16	Cu	-0.564817	0.607954	0.597809
Cu17	Cu	-1.064838	0.107963	-0.097777
Cu18	Cu	-0.564838	0.607963	0.402223
O19	O	-1.066360	0.221772	0.082700
O20	O	-0.566360	0.721772	0.582700
C21	C	-0.901718	0.113520	0.000012
C22	C	-0.401718	0.613520	0.500012
C23	C	-0.802298	0.111888	0.000010
C24	C	-0.302298	0.611888	0.500010
C25	C	-0.755586	0.111115	0.090161
C26	C	-0.255586	0.611115	0.590161
C27	C	-0.662171	0.109569	0.090162
C28	C	-0.162171	0.609569	0.590162
C29	C	-0.615470	0.108802	0.000010
C30	C	-0.115470	0.608802	0.500010
C31	C	-0.662189	0.109572	-0.090149
C32	C	-0.162189	0.609572	0.409851
C33	C	-0.755602	0.111112	-0.090148
C34	C	-0.255602	0.611112	0.409852
C35	C	-0.467486	0.106364	-0.090143
C36	C	0.032514	0.606364	0.409857
C37	C	-0.374066	0.104825	-0.090144
C38	C	0.125934	0.604825	0.409856
C39	C	-0.374055	0.104821	0.090167
C40	C	0.125945	0.604821	0.590167
C41	C	-0.467469	0.106361	0.090167
C42	C	0.032531	0.606361	0.590167
C43	C	-0.514181	0.107133	0.000008
C44	C	-0.014181	0.607133	0.500008
C45	C	-1.060480	-0.034990	0.000024
C46	C	-0.560480	0.465010	0.500024
C47	C	-1.052110	-0.121792	0.000023
C48	C	-0.552110	0.378208	0.500023
C49	C	-1.128954	-0.171820	0.000026
C50	C	-0.628954	0.328180	0.500026
C51	C	-1.121084	-0.253379	0.000017
C52	C	-0.621084	0.246621	0.500017
C53	C	-1.036370	-0.284909	0.000011
C54	C	-0.536370	0.215091	0.500011
C55	C	-0.959520	-0.234876	0.000005
C56	C	-0.459520	0.265124	0.500005
C57	C	-0.967390	-0.153318	0.000008
C58	C	-0.467390	0.346682	0.500008
C59	C	-1.008565	-0.530699	-0.000003
C60	C	-0.508565	-0.030699	0.499997
C61	C	-1.000700	-0.612263	-0.000003
C62	C	-0.500700	-0.112263	0.499997
C63	C	-1.162265	-0.630761	0.000007
C64	C	-0.662265	-0.130761	0.500007
C65	C	-1.170128	-0.549200	0.000015
C66	C	-0.670128	-0.049200	0.500015
C67	C	-1.093279	-0.499174	0.000004
C68	C	-0.593279	0.000826	0.500004
C69	C	-1.028324	-0.368276	0.000004
C70	C	-0.528324	0.131724	0.500004
C71	C	-1.101325	-0.415809	0.000004
C72	C	-0.601325	0.084191	0.500004
C73	C	-0.227936	0.102403	0.000016
C74	C	0.272064	0.602403	0.500016
C75	C	-0.327354	0.104052	0.000007
C76	C	0.172646	0.604052	0.500007
C77	C	-1.069175	0.250907	0.000006
C78	C	-0.569175	0.750907	0.500006
C79	C	-1.077544	0.337710	0.000000
C80	C	-0.577544	0.837710	0.500000
N81	N	-1.064808	0.107948	0.235373
N82	N	-0.564808	0.607948	0.735373
N83	N	-1.064853	0.107964	-0.235341
N84	N	-0.564853	0.607964	0.264659
C85	C	-1.121596	0.054868	0.287418
C86	C	-0.621596	0.554868	0.787418
C87	C	-1.121602	0.054867	0.391522
C88	C	-0.621602	0.554867	0.891522
C89	C	-1.064823	0.107951	0.443578
C90	C	-0.564823	0.607951	0.943578
C91	C	-1.008029	0.161033	0.391525
C92	C	-0.508029	0.661033	0.891525
C93	C	-1.008019	0.161030	0.287424
C94	C	-0.508019	0.661030	0.787424
C95	C	-1.008054	0.161039	0.608505
C96	C	-0.508054	0.661039	1.108505
C97	C	-1.008064	0.161043	0.712614
C98	C	-0.508064	0.661043	1.212614
C99	C	-1.121637	0.054876	0.712603
C100	C	-0.621637	0.554876	1.212603
C101	C	-1.121627	0.054872	0.608502
C102	C	-0.621627	0.554872	1.108502
C103	C	-1.064834	0.107956	0.556456
C104	C	-0.564834	0.607956	1.056456
H105	H	-0.336018	0.104192	0.163577
H106	H	0.163982	0.604192	0.663577
H107	H	-0.931712	-0.637931	0.000009
H108	H	-0.431712	-0.137931	0.500009
H109	H	-1.167836	0.011644	0.245041
H110	H	-0.667836	0.511644	0.745041
H111	H	-0.505516	0.106992	-0.163560
H112	H	-0.005516	0.606992	0.336440
H113	H	-1.167879	0.011654	0.754984
H114	H	-0.667879	0.511654	1.254984
H115	H	-1.224832	-0.671501	0.000014
H116	H	-0.724832	-0.171501	0.500014
Br117	Br	-1.285102	-0.506415	-0.000009
Br118	Br	-0.785102	-0.006415	0.499991
Br119	Br	-0.904268	-0.462816	-0.000025
Br120	Br	-0.404268	0.037184	0.499975
Br121	Br	-0.930940	0.233065	0.216791
Br122	Br	-0.430940	0.733065	0.716791
Br123	Br	-0.931004	0.233089	0.783254
Br124	Br	-0.431004	0.733089	1.283254
Br125	Br	-1.216291	-0.373016	0.000002
Br126	Br	-0.716291	0.126984	0.500002
H127	H	-0.961804	0.204262	0.566133
H128	H	-0.461804	0.704262	1.066133
H129	H	-0.890544	-0.260554	-0.000006
H130	H	-0.390544	0.239446	0.499994
H131	H	-0.624144	0.108927	0.163572
H132	H	-0.124144	0.608927	0.663572
H133	H	-0.793603	0.111747	0.163574
H134	H	-0.293603	0.611747	0.663574
Br135	Br	-0.530848	0.107415	0.212518
Br136	Br	-0.030848	0.607415	0.712518
Br137	Br	-0.310686	0.103783	-0.212494
Br138	Br	0.189314	0.603783	0.287506
H139	H	-1.167842	0.011645	0.433896
H140	H	-0.667842	0.511645	0.933896
H141	H	-1.183659	-0.294109	0.000021
H142	H	-0.683659	0.205891	0.500021
H143	H	-0.904816	-0.112586	0.000005
H144	H	-0.404816	0.387414	0.500005
H145	H	-1.167865	0.011652	0.566118
H146	H	-0.667865	0.511652	1.066118
H147	H	-0.624158	0.108942	-0.163552
H148	H	-0.124158	0.608942	0.336448
H149	H	-0.793634	0.111743	-0.163559
H150	H	-0.293634	0.611743	0.336441
Br151	Br	-0.930963	0.233072	0.462169
Br152	Br	-0.430963	0.733072	0.962169
H153	H	-1.197937	-0.146154	0.000037
H154	H	-0.697937	0.353846	0.500037
H155	H	-0.959349	-0.393957	0.000002
H156	H	-0.459349	0.106043	0.500002
