data_functionalizedCrystal
_audit_creation_method	'MofGen! by Chris Wilmer'
_symmetry_space_group_name_H-M	'P1'
_symmetry_Int_Tables_number	1
_symmetry_cell_setting	triclinic
loop_
_symmetry_equiv_pos_as_xyz
  x,y,z
_cell_length_a	10.489711
_cell_length_b	10.489741
_cell_length_c	16.776229
_cell_angle_alpha	89.993609
_cell_angle_beta	90.005225
_cell_angle_gamma	84.533091
loop_
_atom_site_label
_atom_site_type_symbol
_atom_site_fract_x
_atom_site_fract_y
_atom_site_fract_z
O1	O	1.694076	0.179767	0.066317
O2	O	1.322876	0.196700	0.066312
O3	O	1.516922	0.002635	0.066310
O4	O	1.500029	0.373832	0.066319
O5	O	1.516905	0.002669	-0.066267
O6	O	1.322858	0.196734	-0.066265
O7	O	1.694058	0.179801	-0.066260
Zn8	Zn	1.508455	0.188273	-0.087312
Zn9	Zn	1.508479	0.188228	0.087364
O10	O	1.500012	0.373866	-0.066258
C11	C	1.275334	0.195446	0.000023
C12	C	1.133703	0.191644	0.000021
C13	C	0.951317	0.308348	0.000033
C14	C	1.043471	0.250036	0.065398
C15	C	1.043426	0.250038	-0.065312
C16	C	0.973520	0.126493	0.065456
C17	C	0.973466	0.126513	-0.065312
C18	C	1.065593	0.068111	0.000068
C19	C	1.515638	-0.044880	0.000022
C20	C	1.511820	-0.186509	0.000023
C21	C	1.388354	-0.254636	0.000027
C22	C	1.446670	-0.346748	-0.065339
C23	C	1.446716	-0.346756	0.065371
C24	C	1.570187	-0.276756	-0.065397
C25	C	1.570216	-0.276754	0.065372
C26	C	1.628622	-0.368839	-0.000011
C27	C	1.741600	0.181055	0.000031
C28	C	1.883231	0.184857	0.000038
C29	C	1.501296	0.421381	0.000032
C30	C	1.505114	0.563010	0.000036
N31	N	1.508449	0.188303	-0.206523
C32	C	1.430421	0.110085	-0.751698
C33	C	1.430418	0.110096	-0.668246
C34	C	1.508484	0.188217	-0.626522
C35	C	1.586567	0.266324	-0.668255
C36	C	1.586576	0.266305	-0.751706
C37	C	1.586535	0.266398	-0.331708
C38	C	1.586517	0.266414	-0.248252
C39	C	1.430377	0.110189	-0.248248
C40	C	1.430386	0.110170	-0.331698
C41	C	1.508473	0.188271	-0.373424
C42	C	1.508477	0.188257	-0.463913
C43	C	1.508474	0.188239	-0.536035
N44	N	1.508495	0.188188	0.206575
H45	H	0.901626	0.409850	0.000101
H46	H	1.366844	0.046476	-0.785663
O47	O	1.084533	0.319222	0.138603
H48	H	1.190198	0.320645	0.138218
O49	O	1.346201	0.025861	-0.623240
H50	H	1.244509	0.052651	-0.639267
H51	H	1.366798	0.046591	-0.214265
H52	H	1.286841	-0.204974	-0.000040
O53	O	1.763225	-0.434279	0.000011
H54	H	1.759504	-0.539669	0.000555
O55	O	1.377477	-0.387803	-0.138547
H56	H	1.277764	-0.341646	-0.138418
O57	O	1.639311	-0.235921	-0.138686
H58	H	1.641557	-0.130350	-0.138132
H59	H	1.622421	-0.245729	0.120638
H60	H	0.942436	0.074318	-0.120579
O61	O	1.377516	-0.387817	0.138573
H62	H	1.345089	-0.302223	0.174741
O63	O	1.346228	0.025872	-0.376702
H64	H	1.291958	-0.028461	-0.333666
H65	H	1.650092	0.330033	-0.214283
O66	O	0.932742	0.057307	0.138739
H67	H	0.961444	0.108257	0.192879
H68	H	1.074375	0.302326	-0.120574
O69	O	1.131041	-0.066489	0.000069
H70	H	1.103004	-0.117453	0.054368
H71	H	1.650118	0.329994	-0.365671
H72	H	1.650153	0.329904	-0.785679
H73	H	1.650136	0.329926	-0.634278
