data_functionalizedCrystal
_audit_creation_method	'MofGen! by Chris Wilmer'
_symmetry_space_group_name_H-M	'P1'
_symmetry_Int_Tables_number	1
_symmetry_cell_setting	triclinic
loop_
_symmetry_equiv_pos_as_xyz
  x,y,z
_cell_length_a	18.215407
_cell_length_b	18.215405
_cell_length_c	18.215399
_cell_angle_alpha	89.969449
_cell_angle_beta	89.980167
_cell_angle_gamma	90.025333
loop_
_atom_site_label
_atom_site_type_symbol
_atom_site_fract_x
_atom_site_fract_y
_atom_site_fract_z
Zn1	Zn	1.125072	-0.292983	-0.416103
Zn2	Zn	1.625072	0.207017	0.083897
Zn3	Zn	1.124980	-0.416054	-0.293031
Zn4	Zn	1.624980	0.083946	0.206969
Zn5	Zn	1.002005	-0.293007	-0.293050
Zn6	Zn	1.502005	0.206993	0.206950
Zn7	Zn	1.001970	-0.416013	-0.416056
Zn8	Zn	1.501970	0.083987	0.083944
O9	O	1.063507	-0.354514	-0.354560
O10	O	1.563507	0.145486	0.145440
O11	O	1.228044	-0.309316	-0.399788
O12	O	1.728044	0.190684	0.100212
O13	O	1.108643	-0.399759	-0.190049
O14	O	1.608643	0.100241	0.309951
O15	O	1.018382	-0.190020	-0.309401
O16	O	1.518382	0.309980	0.190599
O17	O	1.227977	-0.399736	-0.309368
O18	O	1.727977	0.100264	0.190632
O19	O	1.108799	-0.190002	-0.399807
O20	O	1.608799	0.309998	0.100193
O21	O	1.018293	-0.309357	-0.190063
O22	O	1.518293	0.190643	0.309937
O23	O	0.899016	-0.309317	-0.309355
O24	O	1.399016	0.190683	0.190645
O25	O	1.018324	-0.399666	-0.519046
O26	O	1.518324	0.100334	-0.019046
O27	O	0.898991	-0.399689	-0.399727
O28	O	1.398991	0.100311	0.100273
O29	O	1.108766	-0.309276	-0.519081
O30	O	1.608766	0.190724	-0.019081
O31	O	1.108610	-0.519033	-0.309322
O32	O	1.608610	-0.019033	0.190678
O33	O	1.018235	-0.519003	-0.399708
O34	O	1.518235	-0.019003	0.100292
C35	C	0.872301	-0.354502	-0.354539
C36	C	1.372301	0.145498	0.145461
C37	C	0.790502	-0.354514	-0.354547
C38	C	1.290502	0.145486	0.145453
C39	C	1.063429	-0.545721	-0.354524
C40	C	1.563429	-0.045721	0.145476
C41	C	1.063463	-0.627520	-0.354534
C42	C	1.563463	-0.127520	0.145466
C43	C	0.602314	-0.401645	-0.401544
C44	C	1.102314	0.098355	0.098456
C45	C	0.525455	-0.401647	-0.401554
C46	C	1.025455	0.098353	0.098446
C47	C	0.525452	-0.307397	-0.307591
C48	C	1.025452	0.192603	0.192409
C49	C	0.602309	-0.307392	-0.307586
C50	C	1.102309	0.192608	0.192414
C51	C	0.640738	-0.354520	-0.354562
C52	C	1.140738	0.145480	0.145438
C53	C	0.487022	-0.354528	-0.354576
C54	C	0.987022	0.145472	0.145424
C55	C	0.403688	-0.354530	-0.354585
C56	C	0.903688	0.145470	0.145415
C57	C	0.724077	-0.354517	-0.354553
C58	C	1.224077	0.145483	0.145447
C59	C	1.110632	-0.815705	-0.307556
C60	C	1.610632	-0.315705	0.192444
C61	C	1.110665	-0.892563	-0.307574
C62	C	1.610665	-0.392563	0.192426
C63	C	1.016476	-0.892572	-0.401616
C64	C	1.516476	-0.392572	0.098384
C65	C	1.016447	-0.815715	-0.401601
C66	C	1.516447	-0.315715	0.098399
C67	C	1.063524	-0.777283	-0.354567
C68	C	1.563524	-0.277283	0.145433
C69	C	1.063586	-0.930999	-0.354600
C70	C	1.563586	-0.430999	0.145400
C71	C	1.063621	-1.014333	-0.354619
C72	C	1.563621	-0.514333	0.145381
C73	C	1.063490	-0.693944	-0.354548
C74	C	1.563490	-0.193944	0.145452
C75	C	1.255460	-0.354528	-0.354581
C76	C	1.755460	0.145472	0.145419
C77	C	1.337259	-0.354533	-0.354591
C78	C	1.837259	0.145467	0.145409
C79	C	1.063552	-0.354464	-0.546513
C80	C	1.563552	0.145536	-0.046513
C81	C	1.063571	-0.354442	-0.628312
C82	C	1.563571	0.145558	-0.128312
C83	C	1.063605	-0.162561	-0.354611
C84	C	1.563605	0.337439	0.145389
C85	C	1.063647	-0.080763	-0.354633
C86	C	1.563647	0.419237	0.145367
C87	C	1.110681	-0.307332	-0.816525
C88	C	1.610681	0.192668	-0.316525
C89	C	1.110690	-0.307311	-0.893384
C90	C	1.610690	0.192689	-0.393384
C91	C	1.016513	-0.401438	-0.893336
C92	C	1.516513	0.098562	-0.393336
C93	C	1.016501	-0.401455	-0.816479
C94	C	1.516501	0.098545	-0.316479
C95	C	1.063589	-0.354403	-0.778075
C96	C	1.563589	0.145597	-0.278075
C97	C	1.063610	-0.354365	-0.931791
C98	C	1.563610	0.145635	-0.431791
C99	C	1.063619	-0.354342	-1.015125
C100	C	1.563619	0.145658	-0.515125
C101	C	1.063579	-0.354425	-0.694736
C102	C	1.563579	0.145575	-0.194736
C103	C	1.063504	-0.354512	-0.163353
C104	C	1.563504	0.145488	0.336647
C105	C	1.063628	-0.354326	-0.081555
C106	C	1.563628	0.145674	0.418445
H107	H	0.633601	-0.440018	-0.439797
H108	H	1.133601	0.059982	0.060203
H109	H	0.633595	-0.269012	-0.269327
H110	H	1.133595	0.230988	0.230673
H111	H	0.978086	-0.784430	-0.439887
H112	H	1.478086	-0.284430	0.060113
H113	H	0.978177	-0.439748	-0.924614
H114	H	1.478177	0.060252	-0.424614
H115	H	1.149026	-0.923843	-0.269294
H116	H	1.649026	-0.423843	0.230706
C117	C	1.146607	-0.182692	-0.917077
C118	C	1.646607	0.317308	-0.417077
C119	C	1.162458	-0.255568	-0.935644
C120	C	1.662458	0.244432	-0.435644
H121	H	1.178571	-0.150747	-0.943163
H122	H	1.678571	0.349253	-0.443163
H123	H	1.097175	-0.171920	-0.929671
H124	H	1.597175	0.328080	-0.429671
H125	H	1.153339	-0.175983	-0.865805
H126	H	1.653339	0.324017	-0.365805
H127	H	1.155721	-0.262278	-0.986915
H128	H	1.655721	0.237722	-0.486915
H129	H	1.211902	-0.266344	-0.923055
H130	H	1.711902	0.233656	-0.423055
H131	H	0.978148	-0.439786	-0.785173
H132	H	1.478148	0.060214	-0.285173
H133	H	0.494153	-0.269028	-0.269344
H134	H	0.994153	0.230972	0.230656
C135	C	1.152408	-0.697884	-0.265772
C136	C	1.652408	-0.197884	0.234228
C137	C	1.162382	-0.773459	-0.255862
C138	C	1.662382	-0.273459	0.244138
H139	H	1.184356	-0.671806	-0.233854
H140	H	1.684356	-0.171806	0.266146
H141	H	1.163144	-0.685247	-0.315220
H142	H	1.663144	-0.185247	0.184780
H143	H	1.102961	-0.685344	-0.254948
H144	H	1.602961	-0.185344	0.245052
H145	H	1.211827	-0.786000	-0.266691
H146	H	1.711827	-0.286000	0.233309
H147	H	1.151651	-0.786101	-0.206402
H148	H	1.651651	-0.286101	0.293598
C149	C	0.891847	-0.916305	-0.437354
C150	C	1.391847	-0.416305	0.062646
C151	C	0.964725	-0.934815	-0.453311
C152	C	1.464725	-0.434815	0.046689
H153	H	0.859898	-0.942380	-0.469272
H154	H	1.359898	-0.442380	0.030728
H155	H	0.881117	-0.928949	-0.387906
H156	H	1.381117	-0.428949	0.112094
H157	H	0.885100	-0.865030	-0.444074
H158	H	1.385100	-0.365030	0.055926
H159	H	0.971473	-0.986089	-0.446586
H160	H	1.471473	-0.486089	0.053414
H161	H	0.975459	-0.922175	-0.502771
H162	H	1.475459	-0.422175	-0.002771
H163	H	0.494174	-0.440020	-0.439813
H164	H	0.994174	0.059980	0.060187
C165	C	1.120934	-0.208360	-0.730125
C166	C	1.620934	0.291640	-0.230125
C167	C	1.162431	-0.255606	-0.774310
C168	C	1.662431	0.244394	-0.274310
H169	H	1.152883	-0.176427	-0.704063
H170	H	1.652883	0.323573	-0.204063
H171	H	1.088892	-0.180208	-0.760112
H172	H	1.588892	0.319792	-0.260112
H173	H	1.092892	-0.236406	-0.696226
H174	H	1.592892	0.263594	-0.196226
H175	H	1.190469	-0.227560	-0.808213
H176	H	1.690469	0.272440	-0.308213
H177	H	1.194486	-0.283760	-0.744320
H178	H	1.694486	0.216240	-0.244320
