data_functionalizedCrystal
_audit_creation_method	'MofGen! by Chris Wilmer'
_symmetry_space_group_name_H-M	'P1'
_symmetry_Int_Tables_number	1
_symmetry_cell_setting	triclinic
loop_
_symmetry_equiv_pos_as_xyz
  x,y,z
_cell_length_a	10.723022
_cell_length_b	17.766277
_cell_length_c	19.288865
_cell_angle_alpha	90.010454
_cell_angle_beta	83.801737
_cell_angle_gamma	90.009093
loop_
_atom_site_label
_atom_site_type_symbol
_atom_site_fract_x
_atom_site_fract_y
_atom_site_fract_z
O1	O	1.655153	0.062599	0.097412
O2	O	2.155153	0.562599	0.597412
O3	O	1.291804	0.062602	0.106737
O4	O	1.791804	0.562602	0.606737
O5	O	1.483978	0.062586	0.001013
O6	O	1.983978	0.562586	0.501013
O7	O	1.462980	0.062616	0.203137
O8	O	1.962980	0.562616	0.703137
O9	O	1.483943	-0.062603	0.001009
O10	O	1.983943	0.437397	0.501009
O11	O	1.291770	-0.062586	0.106734
O12	O	1.791770	0.437414	0.606734
O13	O	1.655119	-0.062590	0.097408
O14	O	2.155119	0.437410	0.597408
Cu15	Cu	1.473441	-0.074018	0.102071
Cu16	Cu	1.973441	0.425982	0.602071
Cu17	Cu	1.473482	0.074031	0.102075
Cu18	Cu	1.973482	0.574031	0.602075
O19	O	1.462945	-0.062573	0.203133
O20	O	1.962945	0.437427	0.703133
C21	C	1.245302	0.000008	0.106057
C22	C	1.745302	0.500008	0.606057
C23	C	1.106790	0.000009	0.104028
C24	C	1.606790	0.500009	0.604028
N25	N	1.473422	-0.178149	0.102068
N26	N	1.973422	0.321851	0.602068
C27	C	1.059509	0.000000	0.043060
C28	C	1.559509	0.500000	0.543060
C29	C	0.916351	0.000001	0.040960
C30	C	1.416351	0.500001	0.540960
C31	C	1.548849	-0.217524	0.144582
C32	C	2.048849	0.282476	0.644582
C33	C	1.548869	-0.296325	0.144580
C34	C	2.048869	0.203675	0.644580
C35	C	1.473438	-0.335749	0.102072
C36	C	1.973438	0.164251	0.602072
C37	C	1.398005	-0.296365	0.059549
C38	C	1.898005	0.203635	0.559549
C39	C	1.397997	-0.217565	0.059547
C40	C	1.897997	0.282435	0.559547
C41	C	1.360959	-0.460608	0.099584
C42	C	1.860959	0.039392	0.599584
C43	C	1.360964	-0.539407	0.099591
C44	C	1.860964	-0.039407	0.599591
C45	C	1.473464	-0.578796	0.102074
C46	C	1.973464	-0.078796	0.602074
C47	C	1.585960	-0.539376	0.104566
C48	C	2.085960	-0.039376	0.604566
C49	C	1.585952	-0.460575	0.104564
C50	C	2.085952	0.039425	0.604564
C51	C	1.473439	-0.421195	0.102069
C52	C	1.973439	0.078805	0.602069
C53	C	1.548919	-0.703616	0.144589
C54	C	2.048919	-0.203616	0.644589
C55	C	1.548942	-0.782420	0.144582
C56	C	2.048942	-0.282420	0.644582
C57	C	1.398066	-0.782458	0.059555
C58	C	1.898066	-0.282458	0.559555
C59	C	1.398056	-0.703656	0.059558
C60	C	1.898056	-0.203656	0.559558
C61	C	1.473480	-0.664240	0.102079
C62	C	1.973480	-0.164240	0.602079
C63	C	1.701621	0.000006	0.098089
C64	C	2.201621	0.500006	0.598089
C65	C	1.840133	0.000010	0.100118
C66	C	2.340133	0.500010	0.600118
C67	C	1.483285	-0.000011	-0.024870
C68	C	1.983285	0.499989	0.475130
C69	C	1.481257	-0.000017	-0.101987
C70	C	1.981257	0.499983	0.398013
N71	N	1.473511	0.178162	0.102073
N72	N	1.973511	0.678162	0.602073
C73	C	1.594015	-0.000022	-0.145950
C74	C	2.094015	0.499978	0.354050
C75	C	1.592110	-0.000010	-0.218409
C76	C	2.092110	0.499990	0.281591
C77	C	1.477439	-0.000009	-0.246902
C78	C	1.977439	0.499991	0.253098
C79	C	1.364666	0.000000	-0.202930
C80	C	1.864666	0.500000	0.297070
C81	C	1.366575	-0.000004	-0.130472
C82	C	1.866575	0.499996	0.369528
C83	C	1.387283	-0.043859	-0.355777
C84	C	1.887283	0.456141	0.144223
C85	C	1.385379	-0.043859	-0.428234
C86	C	1.885379	0.456141	0.071766
C87	C	1.471548	0.000008	-0.470386
C88	C	1.971548	0.500008	0.029614
C89	C	1.559641	0.043866	-0.440074
C90	C	2.059641	0.543866	0.059926
C91	C	1.561550	0.043862	-0.367616
C92	C	2.061550	0.543862	0.132384
C93	C	1.475357	-0.000003	-0.325470
C94	C	1.975357	0.499997	0.174530
C95	C	1.582248	0.000018	-0.592919
C96	C	2.082248	0.500018	-0.092919
C97	C	1.580338	0.000034	-0.665379
C98	C	2.080338	0.500034	-0.165379
C99	C	1.352891	0.000037	-0.649898
C100	C	1.852891	0.500037	-0.149898
C101	C	1.354804	0.000028	-0.577439
C102	C	1.854804	0.500028	-0.077439
C103	C	1.469486	0.000015	-0.548954
C104	C	1.969486	0.500015	-0.048954
C105	C	1.463638	0.000025	0.229016
C106	C	1.963638	0.500025	0.729016
C107	C	1.465666	0.000037	0.306133
C108	C	1.965666	0.500037	0.806133
H109	H	0.875635	0.000013	-0.011240
H110	H	1.375635	0.500013	0.488760
H111	H	1.269362	-0.571497	0.097566
H112	H	1.769362	-0.071497	0.597566
H113	H	1.677550	-0.428483	0.106590
H114	H	2.177550	0.071517	0.606590
O115	O	1.229204	0.000035	-0.680618
O116	O	1.729204	0.500035	-0.180618
H117	H	1.246818	0.000033	-0.738389
H118	H	1.746818	0.500033	-0.238389
H119	H	0.880840	0.000014	0.152321
H120	H	1.380840	0.500014	0.652321
H121	H	1.677567	-0.571444	0.106592
H122	H	2.177567	-0.071444	0.606592
H123	H	1.629808	0.079587	-0.474394
H124	H	2.129808	0.579587	0.025606
O125	O	1.717711	-0.000024	-0.115234
O126	O	2.217711	0.499976	0.384766
H127	H	1.724022	-0.051052	-0.082607
H128	H	2.224022	0.448948	0.417393
H129	H	1.269340	-0.428545	0.097566
H130	H	1.769340	0.071455	0.597566
H131	H	1.274750	-0.000000	-0.094676
H132	H	1.774750	0.500000	0.405324
O133	O	1.713737	-0.000026	-0.265835
O134	O	2.213737	0.499974	0.234165
H135	H	1.693140	-0.000019	-0.321005
H136	H	2.193140	0.499981	0.178995
H137	H	1.672163	0.000034	-0.701174
H138	H	2.172163	0.500034	-0.201174
H139	H	1.336573	-0.185506	0.024926
H140	H	1.836573	0.314494	0.524926
O141	O	1.233186	0.000015	-0.530014
O142	O	1.733186	0.500015	-0.030014
H143	H	1.153125	0.000009	-0.561998
H144	H	1.653125	0.500009	-0.061998
H145	H	1.313642	-0.079566	-0.452908
H146	H	1.813642	0.420434	0.047092
H147	H	1.041284	0.000020	0.154670
H148	H	1.541284	0.500020	0.654670
H149	H	1.633277	0.079573	-0.342939
H150	H	2.133277	0.579573	0.157061
O151	O	1.705932	0.000018	-0.562186
O152	O	2.205932	0.500018	-0.062186
H153	H	1.784023	0.000031	-0.604933
H154	H	2.284023	0.500031	-0.104933
O155	O	1.630221	-0.338813	0.190436
O156	O	2.130221	0.161187	0.690436
H157	H	1.602736	-0.323689	0.245813
H158	H	2.102736	0.176311	0.745813
O159	O	1.630199	-0.175009	0.190440
O160	O	2.130199	0.324991	0.690440
H161	H	1.682658	-0.215633	0.220000
H162	H	2.182658	0.284367	0.720000
O163	O	1.316709	-0.824954	0.013693
O164	O	1.816709	-0.324954	0.513693
H165	H	1.249443	-0.860856	0.046639
H166	H	1.749443	-0.360856	0.546639
H167	H	1.610335	-0.671522	0.179211
H168	H	2.110335	-0.171522	0.679211
H169	H	1.125015	-0.000004	-0.007583
H170	H	1.625015	0.499996	0.492417
H171	H	1.317111	-0.079585	-0.321462
H172	H	1.817111	0.420415	0.178538
H173	H	1.610373	-0.814477	0.179200
H174	H	2.110373	-0.314477	0.679200
O175	O	1.316684	-0.661179	0.013712
O176	O	1.816684	-0.161179	0.513712
H177	H	1.264224	-0.701829	-0.015843
H178	H	1.764224	-0.201829	0.484157
O179	O	1.240981	-0.000006	-0.233655
O180	O	1.740981	0.499994	0.266345
H181	H	1.258596	-0.000015	-0.291426
H182	H	1.758596	0.499985	0.208574
H183	H	1.336590	-0.328469	0.024938
H184	H	1.836590	0.171531	0.524938
