data_functionalizedCrystal
_audit_creation_method	'MofGen! by Chris Wilmer'
_symmetry_space_group_name_H-M	'P1'
_symmetry_Int_Tables_number	1
_symmetry_cell_setting	triclinic
loop_
_symmetry_equiv_pos_as_xyz
  x,y,z
_cell_length_a	12.759401
_cell_length_b	12.827892
_cell_length_c	12.759393
_cell_angle_alpha	89.968749
_cell_angle_beta	89.981739
_cell_angle_gamma	90.017099
loop_
_atom_site_label
_atom_site_type_symbol
_atom_site_fract_x
_atom_site_fract_y
_atom_site_fract_z
Zn1	Zn	1.606239	-0.415922	-0.594010
Zn2	Zn	1.606134	-0.590703	-0.418332
Zn3	Zn	1.430544	-0.415982	-0.418347
Zn4	Zn	1.430527	-0.590627	-0.593970
O5	O	1.518361	-0.503308	-0.506165
O6	O	1.753246	-0.439114	-0.570716
O7	O	1.582805	-0.567583	-0.271312
O8	O	1.453901	-0.269738	-0.441671
O9	O	1.753169	-0.567525	-0.441646
O10	O	1.582983	-0.269694	-0.570731
O11	O	1.453800	-0.439216	-0.271323
O12	O	1.283521	-0.439142	-0.441633
O13	O	1.453872	-0.567395	-0.740997
O14	O	1.283508	-0.567453	-0.570663
O15	O	1.582967	-0.439040	-0.741026
O16	O	1.582789	-0.736929	-0.441608
O17	O	1.453771	-0.736873	-0.570649
C18	C	1.245394	-0.503296	-0.506146
C19	C	1.128617	-0.503316	-0.506163
C20	C	0.964076	-0.436569	-0.573486
C21	C	1.073800	-0.436567	-0.573474
C22	C	1.073705	-0.570081	-0.438866
C23	C	0.963982	-0.570088	-0.438884
C24	C	0.964132	-0.359483	-0.651197
C25	C	1.073856	-0.359480	-0.651186
C26	C	1.518295	-0.774818	-0.506145
C27	C	1.518363	-0.890971	-0.506172
C28	C	1.582209	-0.942651	-0.570092
C29	C	1.582281	-1.062701	-0.570121
C30	C	1.792394	-0.503321	-0.506184
C31	C	1.909171	-0.503326	-0.506192
C32	C	1.518429	-0.503202	-0.780198
C33	C	1.518458	-0.503157	-0.896975
C34	C	1.518456	-0.230738	-0.506207
C35	C	1.518496	-0.114585	-0.506225
C36	C	1.451314	-0.436303	-0.951849
C37	C	1.451346	-0.436272	-1.061573
C38	C	1.585676	-0.569950	-1.061540
C39	C	1.585638	-0.569986	-0.951817
C40	C	1.373762	-0.359122	-0.951869
C41	C	1.373794	-0.359091	-1.061593
C42	C	1.518354	-0.503339	-0.233197
C43	C	1.518528	-0.503090	-0.116421
H44	H	0.919283	-0.624457	-0.384096
Cl45	Cl	1.254465	-0.403841	-1.114134
H46	H	1.640298	-0.624439	-0.907143
Cl47	Cl	1.142618	-0.654005	-0.354255
Cl48	Cl	1.126450	-0.404371	-0.770438
Cl49	Cl	0.911586	-0.240740	-0.606411
Cl50	Cl	1.119855	-0.234487	-0.617738
Cl51	Cl	0.918204	-0.393093	-0.776773
Cl52	Cl	1.666512	-0.873751	-0.654564
H53	H	1.636945	-1.107145	-0.624841
Cl54	Cl	1.434103	-1.045980	-0.421722
H55	H	1.463751	-0.935603	-0.451474
H56	H	1.640372	-0.624359	-1.106206
Cl57	Cl	1.407328	-0.234079	-1.107605
Cl58	Cl	1.248109	-0.392591	-0.905884
Cl59	Cl	1.418790	-0.240449	-0.899341
