data_functionalizedCrystal
_audit_creation_method	'MofGen! by Chris Wilmer'
_symmetry_space_group_name_H-M	'P1'
_symmetry_Int_Tables_number	1
_symmetry_cell_setting	triclinic
loop_
_symmetry_equiv_pos_as_xyz
  x,y,z
_cell_length_a	17.699083
_cell_length_b	11.792241
_cell_length_c	16.776229
_cell_angle_alpha	89.993219
_cell_angle_beta	89.998886
_cell_angle_gamma	83.738215
loop_
_atom_site_label
_atom_site_type_symbol
_atom_site_fract_x
_atom_site_fract_y
_atom_site_fract_z
O1	O	1.004843	0.143527	-0.066177
O2	O	0.784565	0.162200	-0.066203
O3	O	0.900050	-0.012371	-0.066184
O4	O	0.889358	0.318098	-0.066196
O5	O	0.900034	-0.012382	0.066393
O6	O	0.784549	0.162189	0.066374
O7	O	1.004828	0.143516	0.066400
Zn8	Zn	0.894686	0.152851	0.087436
Zn9	Zn	0.894706	0.152865	-0.087239
O10	O	0.889343	0.318087	0.066381
C11	C	0.756356	0.161525	0.000082
C12	C	0.672328	0.159518	0.000072
C13	C	0.624253	0.261988	0.000069
C14	C	0.545299	0.260095	0.000079
C15	C	0.514422	0.155731	0.000087
C16	C	0.562503	0.053254	0.000093
C17	C	0.641455	0.055148	0.000089
C18	C	0.244099	0.045613	0.000113
C19	C	0.165141	0.043727	0.000116
C20	C	0.147944	0.250560	0.000104
C21	C	0.226896	0.252454	0.000099
C22	C	0.274970	0.149977	0.000109
C23	C	0.360580	0.152031	0.000099
C24	C	0.428814	0.153676	0.000091
C25	C	0.899370	-0.054660	0.000104
C26	C	0.897360	-0.180649	0.000103
C27	C	0.893664	-0.411317	0.000090
C28	C	0.895718	-0.282956	0.000097
C29	C	1.033036	0.144190	0.000113
C30	C	1.117065	0.146198	0.000118
C31	C	0.890022	0.360375	0.000091
C32	C	0.892032	0.486365	0.000087
N33	N	0.894678	0.152841	0.206647
N34	N	0.894721	0.152866	-0.206450
C35	C	0.945830	0.075572	0.248373
C36	C	0.945834	0.075571	0.331825
C37	C	0.894689	0.152845	0.373550
C38	C	0.843531	0.230117	0.331819
C39	C	0.843524	0.230112	0.248368
C40	C	0.843559	0.230139	0.668366
C41	C	0.843571	0.230141	0.751822
C42	C	0.945869	0.075599	0.751823
C43	C	0.945862	0.075593	0.668372
C44	C	0.894702	0.152861	0.626648
C45	C	0.894697	0.152860	0.536160
C46	C	0.894697	0.152853	0.464037
H47	H	0.506159	0.343536	0.000075
O48	O	0.995632	0.000481	0.792232
C49	C	1.040758	-0.067739	0.737508
H50	H	1.041800	-0.021203	0.678019
H51	H	1.015838	-0.152004	0.728639
C52	C	1.121029	-0.148451	0.843136
C53	C	1.122314	-0.091291	0.770072
H54	H	1.171335	-0.162984	0.863224
H55	H	1.090625	-0.102493	0.880005
H56	H	1.100259	-0.218665	0.835735
H57	H	1.143075	-0.021072	0.777476
H58	H	1.152723	-0.137238	0.733205
H59	H	0.987486	0.012653	0.365798
H60	H	0.801869	0.293030	0.214396
O61	O	0.688049	-0.044496	0.000052
C62	C	0.643869	-0.137018	0.000079
H63	H	0.585066	-0.108048	-0.025019
H64	H	0.638119	-0.169023	0.063684
C65	C	0.755029	-0.269563	-0.021085
C66	C	0.682809	-0.233984	-0.051917
H67	H	0.779050	-0.329380	-0.053155
H68	H	0.784795	-0.207231	-0.021100
H69	H	0.750228	-0.296227	0.031919
H70	H	0.687612	-0.207308	-0.104916
H71	H	0.653044	-0.296315	-0.051912
O72	O	0.101274	0.350140	-0.000039
C73	C	0.115345	0.413529	-0.068699
H74	H	0.142077	0.353536	-0.116687
H75	H	0.155813	0.479109	-0.053185
C76	C	0.007106	0.548907	-0.040892
C77	C	0.039933	0.475221	-0.099835
H78	H	-0.039410	0.586967	-0.060097
H79	H	-0.002373	0.506204	0.005367
H80	H	0.040837	0.603547	-0.027969
H81	H	0.006206	0.420574	-0.112749
H82	H	0.049404	0.517917	-0.146097
H83	H	0.801884	0.293031	0.365796
O84	O	0.995383	0.000317	0.627820
C85	C	0.954457	-0.069628	0.579673
H86	H	0.895474	-0.024159	0.567111
H87	H	0.948843	-0.153370	0.611959
C88	C	1.069453	-0.150175	0.515862
C89	C	0.997012	-0.094326	0.500428
H90	H	1.095704	-0.165416	0.466981
H91	H	1.097027	-0.103056	0.548301
H92	H	1.064765	-0.219954	0.542769
H93	H	1.001702	-0.024543	0.473531
H94	H	0.969440	-0.141434	0.467982
H95	H	0.140005	-0.041263	0.000123
O96	O	0.654118	0.363468	0.000095
C97	C	0.594751	0.453503	0.000075
H98	H	0.540995	0.421830	0.025180
H99	H	0.583706	0.485105	-0.063529
C100	C	0.683463	0.590848	0.021227
C101	C	0.617440	0.551949	0.052067
H102	H	0.697458	0.651577	0.053295
H103	H	0.723460	0.530191	0.021238
H104	H	0.674250	0.617175	-0.031776
H105	H	0.626656	0.525609	0.105065
H106	H	0.577445	0.612604	0.052067
H107	H	0.283232	-0.037830	0.000122
H108	H	0.987482	0.012652	0.214406
H109	H	0.801920	0.293069	0.785794
H110	H	0.252031	0.337438	0.000089
O111	O	0.532386	-0.048027	0.000067
C112	C	0.452392	-0.027729	0.000089
H113	H	0.434216	0.060893	-0.025016
H114	H	0.430396	-0.033172	0.063693
C115	C	0.441602	-0.226765	-0.021063
C116	C	0.419278	-0.117921	-0.051903
H117	H	0.421175	-0.282402	-0.053131
H118	H	0.495496	-0.240442	-0.021075
H119	H	0.423271	-0.231285	0.031940
H120	H	0.437618	-0.113399	-0.104901
H121	H	0.365386	-0.104246	-0.051902
O122	O	0.793839	0.305309	0.627966
C123	C	0.748691	0.373495	0.682691
H124	H	0.779735	0.374719	0.742171
H125	H	0.692322	0.336748	0.691582
C126	C	0.695456	0.494458	0.577058
C127	C	0.733588	0.495970	0.650111
H128	H	0.686136	0.570006	0.556961
H129	H	0.725871	0.448518	0.540188
H130	H	0.648486	0.463830	0.584477
H131	H	0.780561	0.526584	0.642689
H132	H	0.703180	0.541918	0.686980
