data_functionalizedCrystal
_audit_creation_method	'MofGen! by Chris Wilmer'
_symmetry_space_group_name_H-M	'P1'
_symmetry_Int_Tables_number	1
_symmetry_cell_setting	triclinic
loop_
_symmetry_equiv_pos_as_xyz
  x,y,z
_cell_length_a	12.759401
_cell_length_b	15.297327
_cell_length_c	12.759393
_cell_angle_alpha	99.641734
_cell_angle_beta	89.981504
_cell_angle_gamma	99.706546
loop_
_atom_site_label
_atom_site_type_symbol
_atom_site_fract_x
_atom_site_fract_y
_atom_site_fract_z
Zn1	Zn	1.533799	-0.359102	-0.666297
Zn2	Zn	1.503249	-0.509990	-0.521002
Zn3	Zn	1.358091	-0.359150	-0.490645
Zn4	Zn	1.327659	-0.509920	-0.696630
O5	O	1.430699	-0.434541	-0.593643
O6	O	1.676766	-0.379127	-0.647033
O7	O	1.483944	-0.490029	-0.369964
O8	O	1.406921	-0.232898	-0.488547
O9	O	1.654320	-0.489984	-0.540286
O10	O	1.536012	-0.232864	-0.617597
O11	O	1.377297	-0.379208	-0.347661
O12	O	1.207035	-0.379140	-0.517960
O13	O	1.355053	-0.489865	-0.839617
O14	O	1.184677	-0.489911	-0.669295
O15	O	1.506503	-0.379060	-0.817332
O16	O	1.454435	-0.636226	-0.569698
O17	O	1.325430	-0.636175	-0.698731
C18	C	1.157735	-0.434524	-0.593626
C19	C	1.040956	-0.434539	-0.593648
C20	C	0.974461	-0.492309	-0.672355
C21	C	0.864734	-0.492321	-0.672369
C22	C	0.888009	-0.376788	-0.514958
C23	C	0.997734	-0.376773	-0.514949
C24	C	1.017683	-0.550075	-0.751054
C25	C	0.951186	-0.607851	-0.829768
C26	C	0.841460	-0.607862	-0.829781
C27	C	0.798230	-0.550098	-0.751081
C28	C	1.383343	-0.668934	-0.640823
C29	C	1.363180	-0.769208	-0.661042
C30	C	1.575241	-1.051846	-0.449495
C31	C	1.594185	-0.957633	-0.430493
C32	C	1.536436	-0.910523	-0.488129
C33	C	1.459739	-0.957634	-0.564769
C34	C	1.440787	-1.051856	-0.583767
C35	C	1.401982	-0.910532	-0.622401
C36	C	1.325285	-0.957643	-0.699042
C37	C	1.306338	-1.051856	-0.718037
C38	C	1.364087	-1.098967	-0.660401
C39	C	1.420933	-0.816310	-0.603403
C40	C	1.286480	-0.816320	-0.737676
C41	C	1.267536	-0.910532	-0.756677
C42	C	1.704729	-0.434558	-0.593662
C43	C	1.821504	-0.434565	-0.593670
C44	C	1.430791	-0.434450	-0.867659
C45	C	1.430831	-0.434411	-0.984427
C46	C	1.478269	-0.199232	-0.546302
C47	C	1.498541	-0.098957	-0.526129
C48	C	1.509701	-0.376709	-1.027686
C49	C	1.509733	-0.376676	-1.137404
C50	C	1.352019	-0.492055	-1.160596
C51	C	1.351984	-0.492083	-1.050879
C52	C	1.588548	-0.319037	-0.961234
C53	C	1.667426	-0.261331	-1.004492
C54	C	1.667457	-0.261299	-1.114210
C55	C	1.588611	-0.318972	-1.180669
C56	C	1.430681	-0.434566	-0.320681
C57	C	1.430897	-0.434351	-0.203862
H58	H	0.986393	-0.654875	-0.893847
H59	H	1.287747	-0.539055	-1.015655
H60	H	1.107026	-0.550073	-0.751050
H61	H	1.243874	-1.090211	-0.780430
H62	H	1.731614	-0.214371	-0.950373
C63	C	1.183168	-0.962362	-0.840976
C64	C	1.087666	-1.027224	-0.808457
C65	C	1.003300	-1.079055	-0.892756
C66	C	1.014435	-1.066022	-1.009572
C67	C	1.109941	-1.001157	-1.042096
C68	C	1.194307	-0.949327	-0.957798
H69	H	1.079420	-1.036874	-0.721978
H70	H	0.932600	-1.127072	-0.868679
H71	H	0.951982	-1.104390	-1.071975
H72	H	1.118187	-0.991507	-1.128575
H73	H	1.265007	-0.901309	-0.981875
H74	H	0.787322	-0.654900	-0.893880
H75	H	1.287826	-0.539009	-1.214716
C76	C	1.678542	-0.905809	-0.346194
C77	C	1.774044	-0.840941	-0.378702
C78	C	1.858405	-0.789113	-0.294396
C79	C	1.847263	-0.802153	-0.177583
C80	C	1.751757	-0.867024	-0.145069
C81	C	1.667397	-0.918852	-0.229375
H82	H	1.782295	-0.831285	-0.465179
H83	H	1.929105	-0.741091	-0.318465
H84	H	1.909712	-0.763787	-0.115175
H85	H	1.743506	-0.876680	-0.058592
H86	H	1.596697	-0.966874	-0.205306
C87	C	1.754214	-0.197822	-1.161795
C88	C	1.840937	-0.134386	-1.088697
C89	C	1.927699	-0.070910	-1.136280
C90	C	1.927740	-0.070869	-1.256961
C91	C	1.841014	-0.134306	-1.330067
C92	C	1.754251	-0.197783	-1.282484
H93	H	1.840909	-0.134415	-0.999354
H94	H	1.991899	-0.023949	-1.082161
H95	H	1.991967	-0.023879	-1.292185
H96	H	1.841041	-0.134278	-1.419410
H97	H	1.690051	-0.244744	-1.336603
H98	H	0.708884	-0.550104	-0.751106
C99	C	1.222951	-0.764509	-0.801086
C100	C	1.100897	-0.777547	-0.795040
C101	C	1.037371	-0.725731	-0.858443
C102	C	1.095901	-0.660876	-0.927891
C103	C	1.217962	-0.647836	-0.933940
C104	C	1.281487	-0.699652	-0.870537
H105	H	1.057564	-0.825558	-0.743628
H106	H	0.947013	-0.735385	-0.853965
H107	H	1.048876	-0.622519	-0.974826
H108	H	1.261295	-0.599824	-0.985352
H109	H	1.371846	-0.689998	-0.875014
H110	H	1.051878	-0.329724	-0.450865
C111	C	1.505301	-0.764494	-0.519109
C112	C	1.494168	-0.777537	-0.402296
C113	C	1.578543	-0.725722	-0.317998
C114	C	1.674051	-0.660863	-0.350513
C115	C	1.685188	-0.647818	-0.467332
C116	C	1.600812	-0.699633	-0.551630
H117	H	1.423464	-0.825552	-0.378221
H118	H	1.570299	-0.735379	-0.231521
H119	H	1.736510	-0.622506	-0.288111
H120	H	1.755892	-0.599803	-0.491407
H121	H	1.609057	-0.689975	-0.638107
H122	H	1.551863	-0.833810	-0.472652
H123	H	0.852801	-0.329760	-0.450883
H124	H	1.622246	-1.090213	-0.402570
H125	H	1.348670	-1.175683	-0.675871
H126	H	1.588533	-0.319059	-0.871896
H127	H	1.588633	-0.318930	-1.270006
