data_functionalizedCrystal
_audit_creation_method	'MofGen! by Chris Wilmer'
_symmetry_space_group_name_H-M	'P1'
_symmetry_Int_Tables_number	1
_symmetry_cell_setting	triclinic
loop_
_symmetry_equiv_pos_as_xyz
  x,y,z
_cell_length_a	10.654546
_cell_length_b	9.730223
_cell_length_c	10.654550
_cell_angle_alpha	90.001631
_cell_angle_beta	95.515787
_cell_angle_gamma	89.987959
loop_
_atom_site_label
_atom_site_type_symbol
_atom_site_fract_x
_atom_site_fract_y
_atom_site_fract_z
O1	O	-1.667844	0.114529	0.176375
O2	O	-1.302365	0.114478	0.193185
O3	O	-1.493508	0.114500	0.002041
O4	O	-1.476701	0.114507	0.367520
O5	O	-1.493490	-0.114080	0.002042
O6	O	-1.302348	-0.114102	0.193187
O7	O	-1.667827	-0.114051	0.176376
Zn8	Zn	-1.485085	-0.150368	0.184781
Zn9	Zn	-1.485107	0.150796	0.184780
O10	O	-1.476684	-0.114072	0.367521
C11	C	-1.255558	0.000182	0.191953
C12	C	-1.116115	0.000162	0.188262
N13	N	-1.485078	-0.355905	0.184782
C14	C	-1.400429	-0.427876	0.269383
C15	C	-1.400454	-0.571759	0.269380
C16	C	-1.569781	-0.571687	0.100165
C17	C	-1.569761	-0.427807	0.100174
C18	C	-1.302666	-0.427918	0.367075
C19	C	-1.302691	-0.571801	0.367072
C20	C	-1.036629	0.000179	0.300805
C21	C	-0.905608	0.000192	0.297330
C22	C	-0.933571	0.000178	0.068760
C23	C	-1.064590	0.000155	0.072236
C24	C	-1.020483	0.000193	0.432768
C25	C	-0.889462	0.000207	0.429293
C26	C	-0.714633	0.000229	0.177612
C27	C	-0.854075	0.000199	0.181311
C28	C	-1.492265	0.000211	-0.044757
C29	C	-1.488573	0.000215	-0.184200
N30	N	-1.485123	0.356332	0.184770
C31	C	-1.601115	0.000227	-0.263687
C32	C	-1.597638	0.000236	-0.394708
C33	C	-1.369068	0.000216	-0.366741
C34	C	-1.372546	0.000217	-0.235723
C35	C	-1.733078	0.000232	-0.279834
C36	C	-1.729601	0.000241	-0.410855
C37	C	-1.477927	0.000219	0.414318
C38	C	-1.481619	0.000224	0.553761
H39	H	-1.638700	-0.369209	0.031296
H40	H	-0.891603	0.000193	-0.025705
H41	H	-1.280904	0.000227	-0.171008
H42	H	-1.274603	0.000219	-0.408708
H43	H	-1.211476	-0.383325	0.336490
H44	H	-0.847737	0.095872	0.479015
N45	N	-1.343122	-0.630915	0.487888
H46	H	-1.362635	-0.553651	0.546268
H47	H	-1.272881	-0.689401	0.529937
N48	N	-1.331080	-0.376179	0.494936
H49	H	-1.331073	-0.272379	0.494993
H50	H	-1.264599	-0.410874	0.561355
N51	N	-1.661117	-0.649239	0.008916
H52	H	-1.648290	-0.751308	0.021749
H53	H	-1.645841	-0.624098	-0.080317
H54	H	-1.206183	-0.610888	0.345557
N55	N	-1.150324	0.000102	-0.049147
H56	H	-1.097799	0.000099	-0.123172
H57	H	-1.205330	0.084824	-0.052703
H58	H	-1.049807	-0.095469	0.484378
H59	H	-1.784701	0.095893	-0.250477
H60	H	-1.056146	0.098884	0.474786
H61	H	-0.843784	-0.098480	0.469175
N62	N	-1.788610	-0.130545	-0.232612
H63	H	-1.812903	-0.193725	-0.306164
H64	H	-1.865857	-0.107824	-0.188622
H65	H	-1.769490	0.098941	-0.456499
H66	H	-1.779316	-0.095410	-0.452615
