data_functionalizedCrystal
_audit_creation_method	'MofGen! by Chris Wilmer'
_symmetry_space_group_name_H-M	'P1'
_symmetry_Int_Tables_number	1
_symmetry_cell_setting	triclinic
loop_
_symmetry_equiv_pos_as_xyz
  x,y,z
_cell_length_a	6.817900
_cell_length_b	10.943574
_cell_length_c	10.943624
_cell_angle_alpha	91.772393
_cell_angle_beta	108.838799
_cell_angle_gamma	108.837846
loop_
_atom_site_label
_atom_site_type_symbol
_atom_site_fract_x
_atom_site_fract_y
_atom_site_fract_z
V1	V	-4.115492	-0.178596	-0.402524
O2	O	-4.073204	0.008617	-0.394890
O3	O	-4.093439	-0.354160	-0.399743
O4	O	-4.093454	-0.175834	-0.578091
O5	O	-4.073188	-0.170944	-0.215308
V6	V	-4.592290	-0.156205	-0.380134
O7	O	-4.391502	-0.227713	-0.451636
O8	O	-4.766477	-0.107089	-0.331022
O9	O	-4.391136	0.019358	-0.382915
O10	O	-4.751974	-0.343419	-0.387769
O11	O	-4.751990	-0.163858	-0.567350
O12	O	-4.391120	-0.158968	-0.204568
C13	C	-3.943996	-0.396959	-0.393386
C14	C	-4.007427	-0.540485	-0.392284
C15	C	-3.944014	-0.169485	-0.620884
C16	C	-4.007454	-0.168388	-0.764411
C17	C	-3.890258	-0.703489	-0.384276
C18	C	-4.003635	-0.637681	-0.495234
C19	C	-3.893183	-0.604393	-0.281389
C20	C	-4.233990	-0.730421	-0.501411
C21	C	-4.123465	-0.697124	-0.287470
C22	C	-4.237013	-0.631364	-0.398458
C23	C	-3.852284	-0.161001	-0.841560
C24	C	-4.041640	-0.270645	-0.947533
C25	C	-3.931163	-0.056802	-0.914179
C26	C	-4.196021	-0.278135	-0.868507
C27	C	-4.085464	-0.064194	-0.835130
C28	C	-4.274957	-0.173870	-0.941074
C29	C	-4.203921	0.062151	-0.389268
C30	C	-4.119730	0.205675	-0.390379
C31	C	-4.203902	-0.165321	-0.161767
C32	C	-4.119700	-0.166411	-0.018239
H33	H	-3.744387	-0.735399	-0.378404
C34	C	-3.934400	-0.601809	-0.613912
H35	H	-3.810706	-0.626306	-0.608780
H36	H	-4.054193	-0.646684	-0.691967
H37	H	-3.895535	-0.510297	-0.614184
H38	H	-4.307402	-0.371779	-0.847949
H39	H	-4.174655	-0.723695	-0.199608
H40	H	-4.378572	-0.784968	-0.594490
H41	H	-4.383203	-0.599718	-0.404497
H42	H	-3.748452	-0.549682	-0.188433
H43	H	-3.673084	-0.155707	-0.798112
C44	C	-4.017515	-0.388542	-1.013657
H45	H	-3.867834	-0.383859	-0.979402
H46	H	-4.110186	-0.467067	-0.997219
H47	H	-4.059596	-0.387413	-1.105149
H48	H	-4.454271	-0.179337	-0.984317
C49	C	-4.109470	0.053714	-0.768961
H50	H	-4.014675	0.132256	-0.784032
H51	H	-4.258530	0.049965	-0.804334
H52	H	-4.069953	0.051682	-0.677675
C53	C	-3.780740	0.069576	-0.942172
H54	H	-3.631201	0.073990	-0.907931
H55	H	-3.823285	0.069774	-1.033802
H56	H	-3.794898	0.142935	-0.902021
