data_functionalizedCrystal
_audit_creation_method	'MofGen! by Chris Wilmer'
_symmetry_space_group_name_H-M	'P1'
_symmetry_Int_Tables_number	1
_symmetry_cell_setting	triclinic
loop_
_symmetry_equiv_pos_as_xyz
  x,y,z
_cell_length_a	17.038278
_cell_length_b	19.288865
_cell_length_c	17.766277
_cell_angle_alpha	90.011603
_cell_angle_beta	89.990672
_cell_angle_gamma	92.876626
loop_
_atom_site_label
_atom_site_type_symbol
_atom_site_fract_x
_atom_site_fract_y
_atom_site_fract_z
O1	O	1.036886	-0.150793	-0.062615
O2	O	1.536886	0.349207	0.437385
O3	O	0.809263	-0.148401	-0.062615
O4	O	1.309263	0.351599	0.437385
O5	O	0.929651	-0.048874	-0.062600
O6	O	1.429651	0.451126	0.437400
O7	O	0.916497	-0.250320	-0.062630
O8	O	1.416497	0.249680	0.437370
O9	O	0.929630	-0.048867	0.062588
O10	O	1.429630	0.451133	0.562588
O11	O	0.809242	-0.148394	0.062574
O12	O	1.309242	0.351606	0.562574
O13	O	1.036865	-0.150787	0.062574
O14	O	1.536865	0.349213	0.562574
Cu15	Cu	0.923051	-0.149590	0.074004
Cu16	Cu	1.423051	0.350410	0.574004
Cu17	Cu	0.923076	-0.149598	-0.074046
Cu18	Cu	1.423076	0.350402	0.425954
O19	O	0.916476	-0.250314	0.062559
O20	O	1.416476	0.249686	0.562559
C21	C	0.780131	-0.146220	-0.000020
C22	C	1.280131	0.353780	0.499980
C23	C	0.693359	-0.139723	-0.000020
C24	C	1.193359	0.360277	0.499980
C25	C	0.203076	-0.099809	-0.000017
C26	C	0.703076	0.400191	0.499983
C27	C	0.284607	-0.105919	-0.000013
C28	C	0.784607	0.394081	0.499987
C29	C	0.315828	-0.171685	-0.000026
C30	C	0.815828	0.328315	0.499974
C31	C	0.265514	-0.231345	-0.000035
C32	C	0.765514	0.268655	0.499965
C33	C	0.183985	-0.225235	-0.000034
C34	C	0.683985	0.274765	0.499966
C35	C	0.561516	-0.193272	-0.000027
C36	C	1.061516	0.306728	0.499973
C37	C	0.643051	-0.199379	-0.000031
C38	C	1.143051	0.300621	0.499969
C39	C	0.662139	-0.073951	-0.000008
C40	C	1.162139	0.426049	0.499992
C41	C	0.580607	-0.067847	-0.000010
C42	C	1.080607	0.432153	0.499990
C43	C	0.530300	-0.127507	-0.000016
C44	C	1.030300	0.372493	0.499984
C45	C	0.399165	-0.177932	-0.000025
C46	C	0.899165	0.322068	0.499975
C47	C	0.446964	-0.121259	-0.000011
C48	C	0.946964	0.378741	0.499989
C49	C	0.929218	-0.022968	-0.000004
C50	C	1.429218	0.477032	0.499996
C51	C	0.927947	0.054215	0.000003
C52	C	1.427947	0.554215	0.500003
C53	C	1.065996	-0.152968	-0.000023
C54	C	1.565996	0.347032	0.499977
C55	C	1.152768	-0.159465	-0.000028
C56	C	1.652768	0.340535	0.499972
C57	C	0.916910	-0.276220	-0.000040
C58	C	1.416910	0.223780	0.499960
C59	C	0.918180	-0.353402	-0.000051
C60	C	1.418180	0.146598	0.499949
N61	N	0.923039	-0.149584	0.178135
N62	N	1.423039	0.350416	0.678135
C63	C	0.998586	0.094541	0.000007
C64	C	1.498586	0.594541	0.500007
C65	C	0.997392	0.167062	-0.000005
C66	C	1.497392	0.667062	0.499995
C67	C	0.925556	0.199253	-0.000006
C68	C	1.425556	0.699253	0.499994
C69	C	0.854908	0.158918	-0.000014
C70	C	1.354908	0.658918	0.499986
C71	C	0.856103	0.086398	-0.000009
C72	C	1.356103	0.586398	0.499991
C73	C	0.869076	0.311037	0.043845
C74	C	1.369076	0.811037	0.543845
C75	C	0.867884	0.383555	0.043845
C76	C	1.367884	0.883555	0.543845
C77	C	0.921865	0.422927	-0.000022
C78	C	1.421865	0.922927	0.499978
C79	C	0.977052	0.389773	-0.043881
C80	C	1.477052	0.889773	0.456119
C81	C	0.978247	0.317254	-0.043877
C82	C	1.478247	0.817254	0.456123
C83	C	0.924251	0.277888	-0.000011
C84	C	1.424251	0.777888	0.499989
C85	C	0.991214	0.541889	-0.000033
C86	C	1.491214	1.041889	0.499967
C87	C	0.990017	0.614412	-0.000049
C88	C	1.490017	1.114412	0.499951
C89	C	0.847531	0.606266	-0.000050
C90	C	1.347531	1.106266	0.499950
C91	C	0.848730	0.533745	-0.000041
C92	C	1.348730	1.033745	0.499959
C93	C	0.920573	0.501562	-0.000029
C94	C	1.420573	1.001562	0.499971
N95	N	0.923094	-0.149598	-0.178176
N96	N	1.423094	0.350402	0.321824
C97	C	0.976365	-0.105538	0.217528
C98	C	1.476365	0.394462	0.717528
C99	C	0.976369	-0.105535	0.296330
C100	C	1.476369	0.394465	0.796330
C101	C	0.923056	-0.149591	0.335735
C102	C	1.423056	0.350409	0.835735
C103	C	0.869721	-0.193640	0.296332
C104	C	1.369721	0.306360	0.796332
C105	C	0.869712	-0.193637	0.217532
C106	C	1.369712	0.306363	0.717532
C107	C	0.912591	-0.212231	0.460564
C108	C	1.412591	0.287769	0.960564
C109	C	0.912605	-0.212235	0.539363
C110	C	1.412605	0.287765	1.039363
C111	C	0.923077	-0.149600	0.578782
C112	C	1.423077	0.350400	1.078782
C113	C	0.933552	-0.086959	0.539392
C114	C	1.433552	0.413041	1.039392
C115	C	0.933543	-0.086956	0.460592
C116	C	1.433543	0.413044	0.960592
C117	C	0.923058	-0.149599	0.421181
C118	C	1.423058	0.350401	0.921181
C119	C	0.976410	-0.105547	0.703621
C120	C	1.476410	0.394453	1.203621
C121	C	0.976409	-0.105543	0.782424
C122	C	1.476409	0.394457	1.282424
C123	C	0.869764	-0.193654	0.782425
C124	C	1.369764	0.306346	1.282425
C125	C	0.869761	-0.193652	0.703623
C126	C	1.369761	0.306348	1.203623
C127	C	0.923088	-0.149600	0.664226
C128	C	1.423088	0.350400	1.164226
H129	H	0.424595	-0.231479	-0.000038
H130	H	0.924595	0.268521	0.499962
O131	O	0.944865	-0.019393	0.581888
O132	O	1.444865	0.480607	1.081888
H133	H	0.897204	0.015225	0.566777
H134	H	1.397204	0.515225	1.066777
H135	H	0.421540	-0.067713	-0.000009
H136	H	0.921540	0.432287	0.499991
O137	O	1.076070	0.059826	-0.000001
O138	O	1.576070	0.559826	0.499999
H139	H	1.124990	0.100056	-0.000012
H140	H	1.624990	0.600056	0.499988
O141	O	1.033935	-0.058041	0.824919
O142	O	1.533935	0.441959	1.324919
H143	H	1.071020	-0.027418	0.784282
H144	H	1.571020	0.472582	1.284282
O145	O	1.033897	-0.058033	0.338830
O146	O	1.533897	0.441967	0.838830
H147	H	1.024146	-0.003299	0.323724
H148	H	1.524146	0.496701	0.823724
H149	H	0.826352	-0.229523	0.814508
H150	H	1.326352	0.270477	1.314508
H151	H	1.049713	0.515684	-0.000026
H152	H	1.549713	1.015684	0.499974
O153	O	0.299189	-0.302279	-0.000044
O154	O	0.799189	0.197721	0.499956
H155	H	0.250507	-0.342735	-0.000043
H156	H	0.750507	0.157265	0.499957
H157	H	0.796418	0.185133	-0.000016
H158	H	1.296418	0.685133	0.499984
H159	H	1.054916	0.199902	-0.000005
H160	H	1.554916	0.699902	0.499995
O161	O	0.507264	-0.257619	-0.000041
O162	O	1.007264	0.242381	0.499959
H163	H	0.469661	-0.257841	0.050988
H164	H	0.969661	0.242159	0.550988
O165	O	0.808368	0.419313	0.091152
O166	O	1.308368	0.919313	0.591152
H167	H	0.748194	0.401945	0.073089
H168	H	1.248194	0.901945	0.573089
O169	O	1.037753	0.281491	-0.091189
O170	O	1.537753	0.781491	0.408811
H171	H	1.075087	0.321046	-0.121702
H172	H	1.575087	0.821046	0.378298
H173	H	0.904080	-0.263242	0.571428
H174	H	1.404080	0.236758	1.071428
H175	H	0.703107	-0.025380	-0.000002
H176	H	1.203107	0.474620	0.499998
H177	H	0.177663	-0.046255	-0.000011
H178	H	0.677663	0.453745	0.499989
H179	H	1.019830	-0.069674	0.671542
H180	H	1.519830	0.430326	1.171542
O181	O	0.812255	-0.241168	0.661126
O182	O	1.312255	0.258832	1.161126
H183	H	0.775187	-0.271808	0.701763
H184	H	1.275187	0.228192	1.201763
H185	H	0.798579	0.053564	-0.000012
H186	H	1.298579	0.553564	0.499988
O187	O	0.810856	0.268573	0.091170
O188	O	1.310856	0.768573	0.591170
H189	H	0.750219	0.279037	0.073124
H190	H	1.250219	0.779037	0.573124
H191	H	0.325565	-0.057341	-0.000001
H192	H	0.825565	0.442659	0.499999
O193	O	0.129718	-0.289576	-0.000049
O194	O	0.629718	0.210424	0.499951
H195	H	0.165123	-0.336335	-0.000066
H196	H	0.665123	0.163665	0.499934
H197	H	1.021008	0.421829	-0.079603
H198	H	1.521008	0.921829	0.420397
H199	H	0.904050	-0.263239	0.428476
H200	H	1.404050	0.236761	0.928476
O201	O	0.546932	0.003087	0.000018
O202	O	1.046932	0.503087	0.500018
H203	H	0.595612	0.043544	0.000037
H204	H	1.095612	0.543544	0.500037
O205	O	0.944827	-0.019398	0.418103
O206	O	1.444827	0.480602	0.918103
H207	H	0.952104	0.024159	0.458746
H208	H	1.452104	0.524159	0.958746
O209	O	0.676723	-0.270318	-0.000040
O210	O	1.176723	0.229682	0.499960
H211	H	0.741867	-0.264541	-0.000049
H212	H	1.241867	0.235459	0.499951
H213	H	0.826311	-0.229510	0.328420
H214	H	1.326311	0.270490	0.828420
H215	H	1.047542	0.647245	-0.000051
H216	H	1.547542	1.147245	0.499949
O217	O	0.772537	0.490248	-0.000037
O218	O	1.272537	0.990248	0.499963
H219	H	0.785436	0.434413	-0.000039
H220	H	1.285436	0.934413	0.499961
O221	O	0.770046	0.640974	-0.000047
O222	O	1.270046	1.140974	0.499953
H223	H	0.781081	0.698178	-0.000045
H224	H	1.281081	1.198178	0.499955
O225	O	1.033869	-0.058017	0.175033
O226	O	1.533869	0.441983	0.675033
H227	H	1.070944	-0.027382	0.215670
H228	H	1.570944	0.472618	0.715670
H229	H	0.826287	-0.229505	0.185457
H230	H	1.326287	0.270495	0.685457
