data_functionalizedCrystal
_audit_creation_method	'MofGen! by Chris Wilmer'
_symmetry_space_group_name_H-M	'P1'
_symmetry_Int_Tables_number	1
_symmetry_cell_setting	triclinic
loop_
_symmetry_equiv_pos_as_xyz
  x,y,z
_cell_length_a	10.654554
_cell_length_b	13.930277
_cell_length_c	10.654551
_cell_angle_alpha	90.001696
_cell_angle_beta	84.486053
_cell_angle_gamma	90.005854
loop_
_atom_site_label
_atom_site_type_symbol
_atom_site_fract_x
_atom_site_fract_y
_atom_site_fract_z
O1	O	1.667844	0.079795	0.176425
O2	O	1.302366	0.079802	0.193225
O3	O	1.493507	0.079799	0.002086
O4	O	1.476702	0.079798	0.367564
O5	O	1.493480	-0.079863	0.002081
O6	O	1.302339	-0.079859	0.193221
O7	O	1.667817	-0.079867	0.176420
Zn8	Zn	1.485074	-0.105213	0.184820
Zn9	Zn	1.485109	0.105148	0.184825
O10	O	1.476676	-0.079864	0.367559
C11	C	1.255555	-0.000027	0.191988
C12	C	1.116112	-0.000024	0.188294
C13	C	0.905604	-0.000033	0.297367
C14	C	1.036625	-0.000026	0.300839
C15	C	1.064571	-0.000020	0.072269
C16	C	0.933552	-0.000021	0.068799
C17	C	0.826123	-0.000044	0.409919
C18	C	0.877654	-0.000046	0.525944
C19	C	1.008676	-0.000039	0.529416
C20	C	1.088166	-0.000030	0.416863
N21	N	1.485059	-0.248779	0.184815
C22	C	1.400468	-0.701047	0.269428
C23	C	1.569784	-0.701020	0.100213
C24	C	1.569770	-0.600524	0.100209
C25	C	1.485104	-0.550285	0.184817
C26	C	1.400453	-0.600542	0.269429
C27	C	1.654427	-0.550259	0.015607
C28	C	1.654417	-0.449757	0.015600
C29	C	1.569744	-0.399517	0.100203
C30	C	1.485089	-0.449780	0.184818
C31	C	1.400423	-0.399541	0.269426
C32	C	1.315761	-0.449802	0.354036
C33	C	1.315780	-0.550301	0.354032
C34	C	1.569725	-0.299018	0.100207
C35	C	1.400408	-0.299036	0.269427
C36	C	1.714628	-0.000035	0.177657
C37	C	1.854071	-0.000032	0.181351
C38	C	1.492260	-0.000030	-0.044714
C39	C	1.488567	-0.000023	-0.184158
N40	N	1.485134	0.248714	0.184820
C41	C	1.486850	0.087007	-0.249667
C42	C	1.483369	0.087002	-0.380688
C43	C	1.483330	-0.087070	-0.380678
C44	C	1.486801	-0.087065	-0.249659
C45	C	1.488616	0.174048	-0.184166
C46	C	1.486900	0.261085	-0.249676
C47	C	1.483419	0.261080	-0.380696
C48	C	1.481655	0.174039	-0.446207
C49	C	1.477923	-0.000033	0.414360
C50	C	1.481616	-0.000033	0.553803
H51	H	1.194851	-0.000004	0.419699
H52	H	1.129301	-0.000014	-0.019365
H53	H	0.891594	-0.000019	-0.025671
H54	H	1.331534	-0.741972	0.338313
H55	H	1.638723	-0.741927	0.031334
F56	F	1.744538	-0.603727	-0.074428
H57	H	0.719437	-0.000054	0.407105
H58	H	1.331458	-0.258138	0.338321
F59	F	1.225664	-0.396324	0.444087
H60	H	1.478803	0.174043	-0.552890
F61	F	1.481454	-0.179699	-0.450403
H62	H	1.246853	-0.591230	0.422920
H63	H	1.723351	-0.408841	-0.053294
F64	F	1.659829	-0.245533	0.010172
H65	H	1.491453	0.174061	-0.077483
F66	F	1.488773	0.353715	-0.179953
F67	F	1.488635	-0.179692	-0.179935
F68	F	1.481580	0.353711	-0.450412
H69	H	0.812926	-0.000047	0.617580
H70	H	1.050629	-0.000032	0.623888
