data_functionalizedCrystal
_audit_creation_method	'MofGen! by Chris Wilmer'
_symmetry_space_group_name_H-M	'P1'
_symmetry_Int_Tables_number	1
_symmetry_cell_setting	triclinic
loop_
_symmetry_equiv_pos_as_xyz
  x,y,z
_cell_length_a	11.169417
_cell_length_b	12.645330
_cell_length_c	11.169409
_cell_angle_alpha	90.034355
_cell_angle_beta	90.020564
_cell_angle_gamma	90.013525
loop_
_atom_site_label
_atom_site_type_symbol
_atom_site_fract_x
_atom_site_fract_y
_atom_site_fract_z
Zn1	Zn	1.834952	-0.421929	0.678525
Zn2	Zn	2.334952	0.078071	1.178525
Zn3	Zn	1.834831	-0.599240	0.477835
Zn4	Zn	2.334831	-0.099240	0.977835
Zn5	Zn	1.634235	-0.421994	0.477860
Zn6	Zn	2.134235	0.078006	0.977860
Zn7	Zn	1.634237	-0.599154	0.678480
Zn8	Zn	2.134237	-0.099154	1.178480
O9	O	1.734564	-0.510579	0.578175
O10	O	2.234564	-0.010579	1.078175
O11	O	2.002885	-0.445459	0.651912
O12	O	2.502885	0.054541	1.151912
O13	O	1.808170	-0.575791	0.309889
O14	O	2.308170	-0.075791	0.809889
O15	O	1.660911	-0.273638	0.504508
O16	O	2.160911	0.226362	1.004508
O17	O	2.002796	-0.575728	0.504466
O18	O	2.502796	-0.075728	1.004466
O19	O	1.808376	-0.273591	0.651936
O20	O	2.308376	0.226409	1.151936
O21	O	1.660793	-0.445569	0.309907
O22	O	2.160793	0.054431	0.809907
O23	O	1.466286	-0.445485	0.504464
O24	O	1.966286	0.054515	1.004464
O25	O	1.660914	-0.575582	0.846436
O26	O	2.160914	-0.075582	1.346436
O27	O	1.466287	-0.575644	0.651859
O28	O	1.966287	-0.075644	1.151859
O29	O	1.808378	-0.445375	0.846469
O30	O	2.308378	0.054625	1.346469
O31	O	1.808171	-0.747576	0.504422
O32	O	2.308171	-0.247576	1.004422
O33	O	1.660796	-0.747513	0.651835
O34	O	2.160796	-0.247513	1.151835
C35	C	1.422739	-0.510563	0.578160
C36	C	1.922739	-0.010563	1.078160
C37	C	1.289339	-0.510582	0.578181
C38	C	1.789339	-0.010582	1.078181
C39	C	1.734504	-0.786009	0.578147
C40	C	2.234504	-0.286009	1.078147
C41	C	1.734588	-0.903839	0.578175
C42	C	2.234588	-0.403839	1.078175
C43	C	1.827152	-1.071399	0.485249
C44	C	2.327152	-0.571399	0.985249
C45	C	1.827454	-0.948838	0.485476
C46	C	2.327454	-0.448838	0.985476
C47	C	1.768895	-0.948206	0.704683
C48	C	2.268895	-0.448206	1.204683
C49	C	1.769629	-1.070804	0.704190
C50	C	2.269629	-0.570804	1.204190
C51	C	1.607680	-1.071172	0.545839
C52	C	2.107680	-0.571172	1.045839
C53	C	1.608288	-0.948568	0.543001
C54	C	2.108288	-0.448568	1.043001
C55	C	2.047606	-0.510596	0.578191
C56	C	2.547606	-0.010596	1.078191
C57	C	2.181006	-0.510603	0.578198
C58	C	2.681006	-0.010603	1.078198
C59	C	1.734660	-0.510462	0.891218
C60	C	2.234660	-0.010462	1.391218
C61	C	1.734701	-0.510412	1.024618
C62	C	2.234701	-0.010412	1.524618
C63	C	1.734657	-0.234074	0.578230
C64	C	2.234657	0.265926	1.078230
C65	C	1.734696	-0.116244	0.578253
C66	C	2.234696	0.383756	1.078253
C67	C	1.734537	-0.510620	0.266350
C68	C	2.234537	-0.010620	0.766350
C69	C	1.734728	-0.510371	0.132951
C70	C	2.234728	-0.010371	0.632951
H71	H	1.805989	-0.918846	0.391672
H72	H	2.305989	-0.418846	0.891672
F73	F	1.517637	-1.109080	0.634375
F74	F	2.017637	-0.609080	1.134375
F75	F	1.683550	-0.910114	0.797685
F76	F	2.183550	-0.410114	1.297685
F77	F	1.799455	-1.110045	0.362279
F78	F	2.299455	-0.610045	0.862279
H79	H	1.921531	-0.919427	0.506916
H80	H	2.421531	-0.419427	1.006916
H81	H	1.705238	-1.100465	0.775872
H82	H	2.205238	-0.600465	1.275872
F83	F	1.513386	-0.908546	0.625049
F84	F	2.013386	-0.408546	1.125049
H85	H	1.862472	-1.099313	0.731648
H86	H	2.362472	-0.599313	1.231648
H87	H	1.860689	-0.917414	0.732599
H88	H	2.360689	-0.417414	1.232599
H89	H	1.576483	-1.102192	0.455196
H90	H	2.076483	-0.602192	0.955196
H91	H	1.920725	-1.102125	0.506448
H92	H	2.420725	-0.602125	1.006448
F93	F	1.574469	-0.910677	0.421316
F94	F	2.074469	-0.410677	0.921316
