data_functionalizedCrystal
_audit_creation_method	'MofGen! by Chris Wilmer'
_symmetry_space_group_name_H-M	'P1'
_symmetry_Int_Tables_number	1
_symmetry_cell_setting	triclinic
loop_
_symmetry_equiv_pos_as_xyz
  x,y,z
_cell_length_a	17.038272
_cell_length_b	11.792241
_cell_length_c	10.268362
_cell_angle_alpha	90.000374
_cell_angle_beta	89.994496
_cell_angle_gamma	92.347514
loop_
_atom_site_label
_atom_site_type_symbol
_atom_site_fract_x
_atom_site_fract_y
_atom_site_fract_z
O1	O	0.107207	-1.516303	-0.108175
O2	O	0.440540	-1.182970	0.225159
O3	O	0.773874	-0.849636	0.558492
O4	O	0.118256	-1.186930	-0.108205
O5	O	0.451589	-0.853597	0.225128
O6	O	0.784923	-0.520263	0.558462
O7	O	-0.001093	-1.349659	-0.108180
O8	O	0.332241	-1.016326	0.225154
O9	O	0.665574	-0.682992	0.558487
O10	O	0.226556	-1.353574	-0.108200
O11	O	0.559889	-1.020241	0.225133
O12	O	0.893222	-0.686907	0.558467
O13	O	-0.001098	-1.349643	0.108421
O14	O	0.332236	-1.016310	0.441754
O15	O	0.665569	-0.682977	0.775088
O16	O	0.118251	-1.186914	0.108396
O17	O	0.451584	-0.853581	0.441729
O18	O	0.784918	-0.520248	0.775062
O19	O	0.107202	-1.516287	0.108426
O20	O	0.440535	-1.182954	0.441759
O21	O	0.773869	-0.849621	0.775093
Cu22	Cu	0.112726	-1.351600	0.128188
Cu23	Cu	0.446059	-1.018266	0.461522
Cu24	Cu	0.779393	-0.684933	0.794855
Cu25	Cu	0.112732	-1.351618	-0.127967
Cu26	Cu	0.446065	-1.018285	0.205366
Cu27	Cu	0.779399	-0.684951	0.538700
O28	O	0.226551	-1.353558	0.108401
O29	O	0.559884	-1.020225	0.441734
O30	O	0.893217	-0.686892	0.775067
C31	C	0.117559	-1.144571	0.000092
C32	C	0.450893	-0.811237	0.333425
C33	C	0.784226	-0.477904	0.666758
C34	C	0.115482	-1.018375	0.000080
C35	C	0.448815	-0.685041	0.333413
C36	C	0.782149	-0.351708	0.666747
N37	N	0.112721	-1.351595	0.308354
N38	N	0.446055	-1.018261	0.641687
N39	N	0.779388	-0.684928	0.975021
C40	C	-0.030239	-1.346090	0.000120
C41	C	0.303094	-1.012757	0.333454
C42	C	0.636428	-0.679424	0.666787
C43	C	-0.117079	-1.335466	0.000119
C44	C	0.216254	-1.002133	0.333452
C45	C	0.549588	-0.668800	0.666786
C46	C	-0.166762	-1.433006	0.000129
C47	C	0.166571	-1.099673	0.333463
C48	C	0.499905	-0.766340	0.666796
C49	C	-0.248357	-1.423017	0.000116
C50	C	0.084977	-1.089684	0.333449
C51	C	0.418310	-0.756350	0.666783
C52	C	-0.280267	-1.315487	0.000102
C53	C	0.053067	-0.982154	0.333435
C54	C	0.386400	-0.648821	0.666768
C55	C	-0.230577	-1.217940	0.000087
C56	C	0.102756	-0.884607	0.333421
C57	C	0.436090	-0.551274	0.666754
C58	C	-0.148984	-1.227930	0.000091
C59	C	0.184349	-0.894597	0.333425
C60	C	0.517683	-0.561264	0.666758
C61	C	-0.526181	-1.280194	0.000081
C62	C	-0.192847	-0.946861	0.333414
C63	C	0.140486	-0.613527	0.666747
C64	C	-0.607780	-1.270211	0.000080
C65	C	-0.274447	-0.936878	0.333414
C66	C	0.058887	-0.603545	0.666747
C67	C	-0.625554	-1.475289	0.000107
C68	C	-0.292221	-1.141956	0.333440
C69	C	0.041113	-0.808623	0.666773
C70	C	-0.543958	-1.485270	0.000118
C71	C	-0.210625	-1.151937	0.333452
C72	C	0.122708	-0.818603	0.666785
C73	C	-0.494276	-1.387723	0.000097
C74	C	-0.160943	-1.054390	0.333431
C75	C	0.172391	-0.721056	0.666764
C76	C	-0.363669	-1.305274	0.000092
C77	C	-0.030336	-0.971941	0.333425
C78	C	0.302997	-0.638608	0.666759
C79	C	-0.410875	-1.397937	0.000097
C80	C	-0.077542	-1.064603	0.333431
C81	C	0.255792	-0.731270	0.666764
C82	C	0.255697	-1.357127	0.000098
C83	C	0.589030	-1.023794	0.333431
C84	C	0.922364	-0.690460	0.666765
C85	C	0.342537	-1.367751	0.000091
C86	C	0.675870	-1.034418	0.333424
C87	C	1.009204	-0.701084	0.666758
C88	C	0.107899	-1.558647	0.000127
C89	C	0.441232	-1.225314	0.333460
C90	C	0.774565	-0.891980	0.666793
C91	C	0.109976	-1.684843	0.000130
C92	C	0.443309	-1.351509	0.333463
C93	C	0.776643	-1.018176	0.666796
C94	C	0.111662	-0.787328	0.000118
C95	C	0.444996	-0.453995	0.333451
C96	C	0.778329	-0.120661	0.666785
C97	C	0.113785	-0.915899	0.000097
C98	C	0.447118	-0.582566	0.333431
C99	C	0.780451	-0.249232	0.666764
N100	N	0.112730	-1.351631	-0.308133
N101	N	0.446064	-1.018298	0.025200
N102	N	0.779397	-0.684964	0.358534
C103	C	0.112730	-1.351612	0.574025
C104	C	0.446064	-1.018279	0.907358
C105	C	0.779397	-0.684945	1.240691
C106	C	0.112728	-1.351599	0.426187
C107	C	0.446061	-1.018266	0.759520
C108	C	0.779394	-0.684932	1.092853
H109	H	-0.140788	-1.520568	0.000149
H110	H	0.192546	-1.187235	0.333482
H111	H	0.525879	-0.853902	0.666816
H112	H	-0.256565	-1.130387	0.000067
H113	H	0.076769	-0.797053	0.333401
H114	H	0.410102	-0.463720	0.666734
H115	H	-0.288806	-1.502445	0.000127
H116	H	0.044527	-1.169111	0.333461
H117	H	0.377861	-0.835778	0.666794
H118	H	-0.633757	-1.182643	0.000090
H119	H	-0.300424	-0.849310	0.333423
H120	H	0.032909	-0.515977	0.666757
H121	H	-0.517984	-1.572832	0.000130
H122	H	-0.184651	-1.239499	0.333464
H123	H	0.148683	-0.906165	0.666797
H124	H	-0.485738	-1.200764	0.000064
H125	H	-0.152405	-0.867430	0.333397
H126	H	0.180928	-0.534097	0.666730
H127	H	-0.389660	-1.217723	0.000083
H128	H	-0.056326	-0.884390	0.333417
H129	H	0.277007	-0.551056	0.666750
H130	H	-0.108532	-1.148503	0.000083
H131	H	0.224801	-0.815169	0.333416
H132	H	0.558134	-0.481836	0.666749
H133	H	-0.666014	-1.554706	0.000121
H134	H	-0.332680	-1.221373	0.333455
H135	H	0.000653	-0.888040	0.666788
H136	H	-0.384890	-1.485487	0.000080
H137	H	-0.051557	-1.152154	0.333414
H138	H	0.281776	-0.818821	0.666747
