data_functionalizedCrystal
_audit_creation_method	'MofGen! by Chris Wilmer'
_symmetry_space_group_name_H-M	'P1'
_symmetry_Int_Tables_number	1
_symmetry_cell_setting	triclinic
loop_
_symmetry_equiv_pos_as_xyz
  x,y,z
_cell_length_a	11.792241
_cell_length_b	11.792241
_cell_length_c	10.868271
_cell_angle_alpha	89.999850
_cell_angle_beta	89.996558
_cell_angle_gamma	84.193415
loop_
_atom_site_label
_atom_site_type_symbol
_atom_site_fract_x
_atom_site_fract_y
_atom_site_fract_z
O1	O	1.506908	0.155568	-0.102283
O2	O	2.006908	0.655568	0.397717
O3	O	1.176567	0.171601	-0.102290
O4	O	1.676567	0.671601	0.397710
O5	O	1.349754	-0.001586	-0.102294
O6	O	1.849754	0.498414	0.397706
O7	O	1.333721	0.328755	-0.102279
O8	O	1.833721	0.828755	0.397721
O9	O	1.349740	-0.001592	0.102351
O10	O	1.849740	0.498408	0.602351
O11	O	1.176553	0.171595	0.102355
O12	O	1.676553	0.671595	0.602355
O13	O	1.506894	0.155562	0.102361
O14	O	2.006894	0.655562	0.602361
Zn15	Zn	1.341721	0.163577	0.134850
Zn16	Zn	1.841721	0.663577	0.634850
Zn17	Zn	1.341740	0.163586	-0.134778
Zn18	Zn	1.841740	0.663586	0.365222
O19	O	1.333707	0.328749	0.102365
O20	O	1.833707	0.828749	0.602365
C21	C	1.134269	0.170591	0.000032
C22	C	1.634269	0.670591	0.500032
C23	C	1.008255	0.167576	0.000029
C24	C	1.508255	0.667576	0.500029
N25	N	1.341717	0.163570	0.318864
N26	N	1.841717	0.663570	0.818864
C27	C	1.348740	-0.043880	0.000024
C28	C	1.848740	0.456120	0.500024
C29	C	1.345726	-0.169894	0.000011
C30	C	1.845726	0.330106	0.500011
C31	C	1.549192	0.156572	0.000037
C32	C	2.049192	0.656572	0.500037
C33	C	1.675206	0.159587	0.000032
C34	C	2.175206	0.659587	0.500032
C35	C	1.905918	0.165130	0.000033
C36	C	2.405918	0.665130	0.500033
C37	C	1.777533	0.162050	0.000033
C38	C	2.277533	0.662050	0.500033
C39	C	1.334721	0.371043	0.000045
C40	C	1.834721	0.871043	0.500045
C41	C	1.337736	0.497057	0.000050
C42	C	1.837736	0.997057	0.500050
C43	C	1.343279	0.727769	0.000019
C44	C	1.843279	1.227769	0.500019
C45	C	1.340199	0.599384	0.000036
C46	C	1.840199	1.099384	0.500036
N47	N	1.341754	0.163584	-0.318792
N48	N	1.841754	0.663584	0.181208
C49	C	1.341734	0.163584	0.569870
C50	C	1.841734	0.663584	1.069870
C51	C	1.341721	0.163580	0.430193
C52	C	1.841721	0.663580	0.930193
