data_functionalizedCrystal
_audit_creation_method	'MofGen! by Chris Wilmer'
_symmetry_space_group_name_H-M	'P1'
_symmetry_Int_Tables_number	1
_symmetry_cell_setting	triclinic
loop_
_symmetry_equiv_pos_as_xyz
  x,y,z
_cell_length_a	11.169417
_cell_length_b	21.295417
_cell_length_c	21.295396
_cell_angle_alpha	89.894091
_cell_angle_beta	89.935765
_cell_angle_gamma	90.031386
loop_
_atom_site_label
_atom_site_type_symbol
_atom_site_fract_x
_atom_site_fract_y
_atom_site_fract_z
Zn1	Zn	1.835320	-0.250143	-0.355856
Zn2	Zn	1.834983	-0.355549	-0.250581
Zn3	Zn	1.634451	-0.250300	-0.250607
Zn4	Zn	1.634543	-0.355380	-0.355819
O5	O	1.734824	-0.302843	-0.303216
O6	O	2.003225	-0.264130	-0.341896
O7	O	1.808203	-0.341725	-0.162495
O8	O	1.661199	-0.162189	-0.264594
O9	O	2.002978	-0.341572	-0.264550
O10	O	1.808777	-0.162074	-0.341921
O11	O	1.660872	-0.264398	-0.162514
O12	O	1.466513	-0.264233	-0.264559
O13	O	1.661356	-0.341283	-0.443914
O14	O	1.466581	-0.341435	-0.341858
O15	O	1.808867	-0.263966	-0.443941
O16	O	1.808292	-0.443616	-0.264515
O17	O	1.661030	-0.443492	-0.341833
C18	C	1.423000	-0.302833	-0.303208
C19	C	1.289600	-0.302844	-0.303219
C20	C	1.734667	-0.466395	-0.303181
C21	C	1.734710	-0.536363	-0.303187
C22	C	1.811457	-0.569273	-0.262969
C23	C	1.811514	-0.635016	-0.262983
C24	C	1.734801	-0.667845	-0.303209
C25	C	1.658047	-0.634926	-0.343435
C26	C	1.658002	-0.569185	-0.343424
N27	N	1.629818	-0.771105	-0.308005
N28	N	1.629864	-0.833557	-0.308012
C29	C	1.734935	-0.865920	-0.303245
N30	N	1.839960	-0.833472	-0.298459
N31	N	1.839912	-0.771015	-0.298449
C32	C	1.734842	-0.739130	-0.303225
C33	C	1.811751	-0.970116	-0.263040
C34	C	1.811809	-1.035860	-0.263058
C35	C	1.658332	-1.035769	-0.343507
C36	C	1.658284	-0.970027	-0.343492
C37	C	1.734992	-0.937204	-0.303255
C38	C	2.047867	-0.302853	-0.303224
C39	C	2.181267	-0.302857	-0.303228
C40	C	1.735159	-0.302588	-0.467407
C41	C	1.735302	-0.302479	-0.537375
C42	C	1.735015	-0.138652	-0.303264
C43	C	1.735096	-0.068684	-0.303285
C44	C	1.734560	-0.303051	-0.139664
C45	C	1.734650	-0.302983	-0.069696
C46	C	1.811510	-0.261971	0.429575
C47	C	1.811426	-0.262029	0.363833
C48	C	1.735146	-0.302606	0.331143
C49	C	1.658923	-0.343117	0.364201
C50	C	1.659001	-0.343054	0.429942
N51	N	1.726515	-0.357841	0.228086
N52	N	1.726448	-0.357899	0.165635
C53	C	1.734904	-0.302798	0.133069
N54	N	1.743454	-0.247635	0.165313
N55	N	1.743527	-0.247578	0.227770
C56	C	1.735052	-0.302679	0.259858
C57	C	1.811025	-0.262349	0.028733
C58	C	1.810932	-0.262406	-0.037010
C59	C	1.658435	-0.343499	-0.036641
C60	C	1.658522	-0.343437	0.029101
C61	C	1.734823	-0.302863	0.061784
H62	H	1.873920	-0.542551	-0.230207
H63	H	1.874015	-0.661817	-0.230233
H64	H	1.873481	-0.229039	0.336918
O65	O	1.583361	-0.666744	-0.382479
C66	C	1.463723	-0.650775	-0.368657
H67	H	1.461190	-0.603093	-0.344450
H68	H	1.409931	-0.648461	-0.414065
H69	H	1.423305	-0.687859	-0.336282
O70	O	1.583891	-0.938026	-0.382622
C71	C	1.652209	-0.899871	-0.423295
H72	H	1.746752	-0.919629	-0.427231
H73	H	1.608822	-0.899049	-0.471719
H74	H	1.656298	-0.850084	-0.403825
H75	H	1.596472	-0.376427	0.056011
H76	H	1.595503	-0.542389	-0.376175
H77	H	1.874215	-0.943391	-0.230278
H78	H	1.874314	-1.062654	-0.230309
O79	O	1.583854	-1.067749	-0.382526
C80	C	1.600377	-1.132832	-0.373927
H81	H	1.639662	-1.141892	-0.325365
H82	H	1.510501	-1.157853	-0.378164
H83	H	1.664328	-1.151378	-0.411296
O84	O	1.585107	-0.382499	0.462023
C85	C	1.612088	-0.445152	0.446095
H86	H	1.707981	-0.447986	0.427938
H87	H	1.602203	-0.476249	0.489425
H88	H	1.547899	-0.461885	0.408044
H89	H	1.873639	-0.228932	0.456182
O90	O	1.884965	-0.222905	0.060557
C91	C	1.816173	-0.182461	0.098528
H92	H	1.725512	-0.204993	0.108522
H93	H	1.865010	-0.173803	0.144689
H94	H	1.802371	-0.135883	0.073079
H95	H	1.596812	-0.376153	0.337581
O96	O	1.584167	-0.382850	-0.068363
C97	C	1.464397	-0.369540	-0.052217
H98	H	1.457720	-0.319259	-0.034277
H99	H	1.405125	-0.375225	-0.095382
H100	H	1.433495	-0.403372	-0.013936
O101	O	1.885077	-0.223033	-0.069020
C102	C	1.952413	-0.187200	-0.026072
H103	H	1.956948	-0.212924	0.020858
H104	H	2.046865	-0.180152	-0.045175
H105	H	1.907879	-0.139549	-0.019171
