data_functionalizedCrystal
_audit_creation_method	'MofGen! by Chris Wilmer'
_symmetry_space_group_name_H-M	'P1'
_symmetry_Int_Tables_number	1
_symmetry_cell_setting	triclinic
loop_
_symmetry_equiv_pos_as_xyz
  x,y,z
_cell_length_a	18.215405
_cell_length_b	19.805407
_cell_length_c	18.215399
_cell_angle_alpha	90.022125
_cell_angle_beta	89.970580
_cell_angle_gamma	89.977195
loop_
_atom_site_label
_atom_site_type_symbol
_atom_site_fract_x
_atom_site_fract_y
_atom_site_fract_z
Zn1	Zn	-0.293012	-1.034755	-0.416153
Zn2	Zn	0.206988	-0.534755	0.083847
Zn3	Zn	-0.416083	-1.034673	-0.293084
Zn4	Zn	0.083917	-0.534673	0.206916
Zn5	Zn	-0.293033	-0.921567	-0.293096
Zn6	Zn	0.206967	-0.421567	0.206904
Zn7	Zn	-0.416039	-0.921538	-0.416104
Zn8	Zn	0.083961	-0.421538	0.083896
O9	O	-0.354542	-0.978133	-0.354609
O10	O	0.145458	-0.478133	0.145391
O11	O	-0.309347	-1.129461	-0.399844
O12	O	0.190653	-0.629461	0.100156
O13	O	-0.399787	-1.019647	-0.190101
O14	O	0.100213	-0.519647	0.309899
O15	O	-0.190046	-0.936629	-0.309445
O16	O	0.309954	-0.436629	0.190555
O17	O	-0.399767	-1.129400	-0.309425
O18	O	0.100233	-0.629400	0.190575
O19	O	-0.190030	-1.019787	-0.399855
O20	O	0.309970	-0.519787	0.100145
O21	O	-0.309383	-0.936549	-0.190110
O22	O	0.190617	-0.436549	0.309890
O23	O	-0.309340	-0.826847	-0.309397
O24	O	0.190660	-0.326847	0.190603
O25	O	-0.399692	-0.936579	-0.519095
O26	O	0.100308	-0.436579	-0.019095
O27	O	-0.399712	-0.826826	-0.399771
O28	O	0.100288	-0.326826	0.100229
O29	O	-0.309304	-1.019759	-0.519131
O30	O	0.190696	-0.519759	-0.019131
O31	O	-0.519061	-1.019619	-0.309377
O32	O	-0.019061	-0.519619	0.190623
O33	O	-0.519029	-0.936499	-0.399759
O34	O	-0.019029	-0.436499	0.100241
C35	C	-0.354524	-0.802277	-0.354580
C36	C	0.145476	-0.302277	0.145420
C37	C	-0.354534	-0.727045	-0.354586
C38	C	0.145466	-0.227045	0.145414
C39	C	-0.401661	-0.691708	-0.401566
C40	C	0.098339	-0.191708	0.098434
C41	C	-0.401661	-0.621019	-0.401574
C42	C	0.098339	-0.121019	0.098426
C43	C	-0.354537	-0.585670	-0.354598
C44	C	0.145463	-0.085670	0.145402
C45	C	-0.307405	-0.621012	-0.307616
C46	C	0.192595	-0.121012	0.192384
C47	C	-0.307402	-0.691700	-0.307612
C48	C	0.192598	-0.191700	0.192388
C49	C	-0.307416	-0.335939	-0.307632
C50	C	0.192584	0.164061	0.192368
C51	C	-0.307424	-0.265247	-0.307638
C52	C	0.192576	0.234753	0.192362
C53	C	-0.401675	-0.265259	-0.401595
C54	C	0.098325	0.234741	0.098405
C55	C	-0.401672	-0.335946	-0.401591
C56	C	0.098328	0.164054	0.098409
C57	C	-0.354537	-0.371282	-0.354611
C58	C	0.145463	0.128718	0.145389
C59	C	-0.354537	-0.447931	-0.354604
C60	C	0.145463	0.052069	0.145396
C61	C	-0.354541	-0.509023	-0.354601
C62	C	0.145459	-0.009023	0.145399
C63	C	-0.545748	-0.978065	-0.354578
C64	C	-0.045748	-0.478065	0.145422
C65	C	-0.627547	-0.978098	-0.354589
C66	C	-0.127547	-0.478098	0.145411
C67	C	-0.892597	-1.021505	-0.307626
C68	C	-0.392597	-0.521505	0.192374
C69	C	-0.815738	-1.021477	-0.307609
C70	C	-0.315738	-0.521477	0.192391
C71	C	-0.815745	-0.934845	-0.401642
C72	C	-0.315745	-0.434845	0.098358
C73	C	-0.892602	-0.934870	-0.401655
C74	C	-0.392602	-0.434870	0.098345
C75	C	-0.931026	-0.978204	-0.354648
C76	C	-0.431026	-0.478204	0.145352
C77	C	-0.777310	-0.978151	-0.354618
C78	C	-0.277310	-0.478151	0.145382
C79	C	-0.693977	-0.978121	-0.354600
C80	C	-0.193977	-0.478121	0.145400
C81	C	-1.014365	-0.978234	-0.354665
C82	C	-0.514365	-0.478234	0.145335
C83	C	-0.162589	-0.978220	-0.354657
C84	C	0.337411	-0.478220	0.145343
C85	C	-0.080790	-0.978257	-0.354677
C86	C	0.419210	-0.478257	0.145323
C87	C	-0.354491	-0.978175	-0.546562
C88	C	0.145509	-0.478175	-0.046562
C89	C	-0.354469	-0.978192	-0.628361
C90	C	0.145531	-0.478192	-0.128361
C91	C	-0.354555	-0.154676	-0.354631
C92	C	0.145445	0.345324	0.145369
C93	C	-0.354548	-0.229908	-0.354623
C94	C	0.145452	0.270092	0.145377
C95	C	-0.307360	-1.021519	-0.816575
C96	C	0.192640	-0.521519	-0.316575
C97	C	-0.307339	-1.021528	-0.893434
C98	C	0.192661	-0.521528	-0.393434
C99	C	-0.401464	-0.934913	-0.893385
C100	C	0.098536	-0.434913	-0.393385
C101	C	-0.401481	-0.934902	-0.816528
C102	C	0.098519	-0.434902	-0.316528
C103	C	-0.354431	-0.978209	-0.778125
C104	C	0.145569	-0.478209	-0.278125
C105	C	-0.354392	-0.978228	-0.931841
C106	C	0.145608	-0.478228	-0.431841
C107	C	-0.354369	-0.978236	-1.015175
C108	C	0.145631	-0.478236	-0.515175
C109	C	-0.354452	-0.978200	-0.694786
C110	C	0.145548	-0.478200	-0.194786
C111	C	-0.354539	-0.978131	-0.163403
C112	C	0.145461	-0.478131	0.336597
C113	C	-0.354353	-0.978245	-0.081605
C114	C	0.145647	-0.478245	0.418395
H115	H	-0.440052	-0.236479	-0.439850
H116	H	0.059948	0.263521	0.060150
H117	H	-0.269009	-1.056794	-0.924737
H118	H	0.230991	-0.556794	-0.424737
H119	H	-0.440048	-0.364724	-0.439841
H120	H	0.059952	0.135276	0.060159
H121	H	-0.269042	-0.364701	-0.269373
H122	H	0.230958	0.135299	0.230627
H123	H	-0.923893	-0.899607	-0.439947
H124	H	-0.423893	-0.399607	0.060053
H125	H	-0.269047	-1.056781	-0.785310
H126	H	0.230953	-0.556781	-0.285310
H127	H	-0.439773	-0.899655	-0.924662
H128	H	0.060227	-0.399655	-0.424662
H129	H	-0.439811	-0.899628	-0.785220
H130	H	0.060189	-0.399628	-0.285220
O131	O	-0.261547	-0.726058	-0.262077
O132	O	0.238453	-0.226058	0.237923
C133	C	-0.214077	-0.766990	-0.304058
C134	C	0.285923	-0.266990	0.195942
H135	H	-0.209608	-0.745714	-0.362029
H136	H	0.290392	-0.245714	0.137971
H137	H	-0.236831	-0.820557	-0.306548
H138	H	0.263169	-0.320557	0.193452
C139	C	-0.143015	-0.794216	-0.197040
C140	C	0.356985	-0.294216	0.302960
C141	C	-0.137521	-0.768081	-0.268240
C142	C	0.362479	-0.268081	0.231760
H143	H	-0.095793	-0.794892	-0.174945
H144	H	0.404207	-0.294892	0.325055
H145	H	-0.174998	-0.766641	-0.168756
H146	H	0.325002	-0.266641	0.331244
H147	H	-0.161979	-0.838853	-0.199125
H148	H	0.338021	-0.338853	0.300875
H149	H	-0.118566	-0.723443	-0.266154
H150	H	0.381434	-0.223443	0.233846
H151	H	-0.105534	-0.795649	-0.296523
H152	H	0.394466	-0.295649	0.203477
H153	H	-0.440038	-0.720484	-0.439817
H154	H	0.059962	-0.220484	0.060183
H155	H	-0.269046	-0.236467	-0.269384
H156	H	0.230954	0.263533	0.230616
H157	H	-0.440037	-0.592250	-0.439830
H158	H	0.059963	-0.092250	0.060170
H159	H	-0.784453	-0.899565	-0.439915
H160	H	-0.284453	-0.399565	0.060085
H161	H	-0.269033	-0.592225	-0.269370
H162	H	0.230967	-0.092225	0.230630
O163	O	-0.778294	-1.063477	-0.261957
O164	O	-0.278294	-0.563477	0.238043
C165	C	-0.702218	-1.054176	-0.272033
C166	C	-0.202218	-0.554176	0.227967
H167	H	-0.691747	-1.001923	-0.296073
H168	H	-0.191747	-0.501923	0.203927
H169	H	-0.680345	-1.094292	-0.311265
H170	H	-0.180345	-0.594292	0.188735
C171	C	-0.675669	-1.124590	-0.168044
C172	C	-0.175669	-0.624590	0.331956
C173	C	-0.662807	-1.060409	-0.197564
C174	C	-0.162807	-0.560409	0.302436
H175	H	-0.651357	-1.128438	-0.122109
H176	H	-0.151357	-0.628438	0.377891
H177	H	-0.726922	-1.130859	-0.161257
H178	H	-0.226922	-0.630859	0.338743
H179	H	-0.657441	-1.158013	-0.200744
H180	H	-0.157441	-0.658013	0.299256
H181	H	-0.681043	-1.026988	-0.164869
H182	H	-0.181043	-0.526988	0.335131
H183	H	-0.611555	-1.054135	-0.204345
H184	H	-0.111555	-0.554135	0.295655
O185	O	-0.929808	-1.063615	-0.261891
O186	O	-0.429808	-0.563615	0.238109
C187	C	-0.879404	-1.101838	-0.220398
C188	C	-0.379404	-0.601838	0.279602
H189	H	-0.824643	-1.074097	-0.217811
H190	H	-0.324643	-0.574097	0.282189
H191	H	-0.871169	-1.153225	-0.247402
H192	H	-0.371169	-0.653225	0.252598
C193	C	-0.976703	-1.145720	-0.145264
C194	C	-0.476703	-0.645720	0.354736
C195	C	-0.909445	-1.111645	-0.142083
C196	C	-0.409445	-0.611645	0.357917
H197	H	-0.995234	-1.151772	-0.096957
H198	H	-0.495234	-0.651772	0.403043
H199	H	-1.010662	-1.119970	-0.173221
H200	H	-0.510662	-0.619970	0.326779
H201	H	-0.969831	-1.188539	-0.167771
H202	H	-0.469831	-0.688539	0.332229
H203	H	-0.916319	-1.068823	-0.119585
H204	H	-0.416319	-0.568823	0.380415
H205	H	-0.875488	-1.137387	-0.114120
H206	H	-0.375488	-0.637387	0.385880
