data_functionalizedCrystal
_audit_creation_method	'MofGen! by Chris Wilmer'
_symmetry_space_group_name_H-M	'P1'
_symmetry_Int_Tables_number	1
_symmetry_cell_setting	triclinic
loop_
_symmetry_equiv_pos_as_xyz
  x,y,z
_cell_length_a	11.792241
_cell_length_b	11.792241
_cell_length_c	16.776229
_cell_angle_alpha	89.993219
_cell_angle_beta	89.997077
_cell_angle_gamma	84.193416
loop_
_atom_site_label
_atom_site_type_symbol
_atom_site_fract_x
_atom_site_fract_y
_atom_site_fract_z
O1	O	1.506913	0.155571	-0.066211
O2	O	1.840246	0.488904	0.267122
O3	O	2.173579	0.822237	0.600456
O4	O	1.176572	0.171603	-0.066230
O5	O	1.509905	0.504937	0.267104
O6	O	1.843238	0.838270	0.600437
O7	O	1.349759	-0.001584	-0.066214
O8	O	1.683092	0.331750	0.267119
O9	O	2.016425	0.665083	0.600452
O10	O	1.333726	0.328757	-0.066226
O11	O	1.667059	0.662091	0.267107
O12	O	2.000392	0.995424	0.600440
O13	O	1.349736	-0.001594	0.066362
O14	O	1.683069	0.331739	0.399695
O15	O	2.016402	0.665072	0.733029
O16	O	1.176549	0.171593	0.066347
O17	O	1.509882	0.504926	0.399680
O18	O	1.843215	0.838259	0.733013
O19	O	1.506890	0.155560	0.066365
O20	O	1.840223	0.488893	0.399699
O21	O	2.173556	0.822226	0.733032
Zn22	Zn	1.341715	0.163574	0.087405
Zn23	Zn	1.675049	0.496908	0.420739
Zn24	Zn	2.008382	0.830241	0.754072
Zn25	Zn	1.341746	0.163589	-0.087270
Zn26	Zn	1.675079	0.496922	0.246064
Zn27	Zn	2.008413	0.830255	0.579397
O28	O	1.333703	0.328747	0.066350
O29	O	1.667036	0.662080	0.399683
O30	O	2.000369	0.995413	0.733017
C31	C	1.134269	0.170591	0.000056
C32	C	1.467603	0.503924	0.333390
C33	C	1.800936	0.837258	0.666723
C34	C	1.008255	0.167576	0.000049
C35	C	1.341589	0.500910	0.333383
C36	C	1.674922	0.834243	0.666716
C37	C	0.777543	0.162034	0.000072
C38	C	1.110877	0.495367	0.333406
C39	C	1.444210	0.828700	0.666739
C40	C	0.905928	0.165113	0.000060
C41	C	1.239262	0.498447	0.333393
C42	C	1.572595	0.831780	0.666726
C43	C	1.348740	-0.043880	0.000074
C44	C	1.682073	0.289453	0.333407
C45	C	2.015407	0.622787	0.666740
C46	C	1.345726	-0.169894	0.000073
C47	C	1.679059	0.163440	0.333406
C48	C	2.012392	0.496773	0.666739
C49	C	1.340183	-0.400606	0.000059
C50	C	1.673516	-0.067272	0.333392
C51	C	2.006849	0.266061	0.666726
C52	C	1.343262	-0.272221	0.000066
C53	C	1.676596	0.061113	0.333400
C54	C	2.009929	0.394446	0.666733
C55	C	1.549192	0.156572	0.000078
C56	C	1.882525	0.489905	0.333411
C57	C	2.215859	0.823239	0.666744
C58	C	1.675206	0.159587	0.000079
C59	C	2.008539	0.492920	0.333413
C60	C	2.341873	0.826253	0.666746
C61	C	1.334721	0.371043	0.000060
C62	C	1.668055	0.704376	0.333394
C63	C	2.001388	1.037710	0.666727
C64	C	1.337736	0.497057	0.000056
C65	C	1.671069	0.830390	0.333389
C66	C	2.004402	1.163723	0.666723
N67	N	1.341703	0.163564	0.206617
N68	N	1.675036	0.496897	0.539950
N69	N	2.008369	0.830231	0.873283
N70	N	1.341767	0.163590	-0.206481
N71	N	1.675101	0.496924	0.126852
N72	N	2.008434	0.830257	0.460186
C73	C	1.418414	0.086909	0.248341
C74	C	1.751747	0.420242	0.581674
C75	C	2.085080	0.753575	0.915007
C76	C	1.418420	0.086908	0.331793
C77	C	1.751753	0.420241	0.665126
C78	C	2.085087	0.753574	0.998459
C79	C	1.341720	0.163568	0.373520
C80	C	1.675053	0.496902	0.706853
C81	C	2.008387	0.830235	1.040186
C82	C	1.265001	0.240227	0.331790
C83	C	1.598334	0.573561	0.665123
C84	C	1.931668	0.906894	0.998457
C85	C	1.264990	0.240222	0.248339
C86	C	1.598323	0.573555	0.581673
C87	C	1.931657	0.906889	0.915006
C88	C	1.265042	0.240250	0.668337
C89	C	1.598375	0.573583	1.001670
C90	C	1.931709	0.906917	1.335004
C91	C	1.265061	0.240252	0.751794
C92	C	1.598394	0.573585	1.085127
C93	C	1.931728	0.906919	1.418460
C94	C	1.418472	0.086936	0.751791
C95	C	1.751805	0.420269	1.085124
C96	C	2.085139	0.753602	1.418457
C97	C	1.418461	0.086930	0.668340
C98	C	1.751795	0.420264	1.001673
C99	C	2.085128	0.753597	1.335007
C100	C	1.341739	0.163585	0.626618
C101	C	1.675072	0.496918	0.959951
C102	C	2.008405	0.830251	1.293284
C103	C	1.341731	0.163583	0.536129
C104	C	1.675065	0.496917	0.869463
C105	C	2.008398	0.830250	1.202796
C106	C	1.341732	0.163576	0.464006
C107	C	1.675065	0.496910	0.797340
C108	C	2.008399	0.830243	1.130673
H109	H	1.480883	0.024488	0.365764
H110	H	1.814216	0.357822	0.699097
H111	H	2.147550	0.691155	1.032431
H112	H	1.480921	0.024510	0.634369
H113	H	1.814254	0.357843	0.967702
H114	H	2.147588	0.691176	1.301035
H115	H	1.202523	0.302641	0.214368
H116	H	1.535856	0.635974	0.547702
H117	H	1.869189	0.969308	0.881035
H118	H	1.480876	0.024487	0.214372
H119	H	1.814210	0.357821	0.547705
H120	H	2.147543	0.691154	0.881039
H121	H	1.202544	0.302642	0.365769
H122	H	1.535878	0.635976	0.699102
H123	H	1.869211	0.969309	1.032435
H124	H	1.202598	0.302681	0.785766
H125	H	1.535932	0.636014	1.119100
H126	H	1.869265	0.969347	1.452433
C127	C	1.501579	0.003566	0.797135
C128	C	1.834913	0.336899	1.130469
C129	C	2.168246	0.670233	1.463802
C130	C	1.440704	-0.066344	0.845040
C131	C	1.774038	0.266989	1.178373
C132	C	2.107371	0.600322	1.511707
C133	C	1.517222	-0.143162	0.886813
C134	C	1.850555	0.190171	1.220146
C135	C	2.183889	0.523505	1.553480
H136	H	1.549105	0.044582	0.829747
H137	H	1.882438	0.377916	1.163081
H138	H	2.215771	0.711249	1.496414
H139	H	1.547244	-0.042154	0.760358
H140	H	1.880577	0.291179	1.093692
H141	H	2.213910	0.624512	1.427025
H142	H	1.395060	-0.020629	0.881813
H143	H	1.728393	0.312704	1.215146
H144	H	2.061726	0.646037	1.548479
H145	H	1.393183	-0.107386	0.812448
H146	H	1.726516	0.225948	1.145781
H147	H	2.059850	0.559281	1.479115
H148	H	1.562886	-0.188883	0.850036
H149	H	1.896220	0.144451	1.183369
H150	H	2.229553	0.477784	1.516703
H151	H	1.564744	-0.102136	0.919420
H152	H	1.898077	0.231197	1.252754
H153	H	2.231410	0.564530	1.586087
H154	H	1.475930	-0.190612	0.919315
H155	H	1.809263	0.142721	1.252649
H156	H	2.142596	0.476055	1.585982
H157	H	1.202574	0.302667	0.634373
H158	H	1.535907	0.636000	0.967707
H159	H	1.869241	0.969333	1.301040
