data_functionalizedCrystal
_audit_creation_method	'MofGen! by Chris Wilmer'
_symmetry_space_group_name_H-M	'P1'
_symmetry_Int_Tables_number	1
_symmetry_cell_setting	triclinic
loop_
_symmetry_equiv_pos_as_xyz
  x,y,z
_cell_length_a	15.298068
_cell_length_b	15.299816
_cell_length_c	15.296720
_cell_angle_alpha	110.757046
_cell_angle_beta	88.354818
_cell_angle_gamma	91.634773
loop_
_atom_site_label
_atom_site_type_symbol
_atom_site_fract_x
_atom_site_fract_y
_atom_site_fract_z
Zn1	Zn	1.291021	-0.271050	-0.780846
Zn2	Zn	1.333278	-0.393419	-0.658523
Zn3	Zn	1.168672	-0.262196	-0.607266
Zn4	Zn	1.168601	-0.444498	-0.789625
O5	O	1.240393	-0.342791	-0.709065
O6	O	1.416748	-0.269611	-0.782397
O7	O	1.329157	-0.350930	-0.524213
O8	O	1.167247	-0.135865	-0.605167
O9	O	1.447794	-0.359515	-0.692526
O10	O	1.257137	-0.142369	-0.732696
O11	O	1.208221	-0.254521	-0.486555
O12	O	1.048541	-0.304051	-0.613679
O13	O	1.167126	-0.446572	-0.915971
O14	O	1.048489	-0.437987	-0.747658
O15	O	1.257068	-0.319140	-0.909522
O16	O	1.329088	-0.527700	-0.701039
O17	O	1.208101	-0.565228	-0.797359
C18	C	1.017369	-0.375602	-0.676060
C19	C	0.921958	-0.389664	-0.661966
C20	C	0.588357	-0.242510	-0.809844
C21	C	0.678000	-0.229301	-0.823091
C22	C	0.738994	-0.269390	-0.782811
C23	C	0.710336	-0.322692	-0.729281
C24	C	0.620684	-0.335908	-0.716038
C25	C	0.771321	-0.362789	-0.689005
C26	C	0.742663	-0.416090	-0.635475
C27	C	0.653020	-0.429304	-0.622234
C28	C	0.592027	-0.389214	-0.662515
C29	C	0.860973	-0.349572	-0.702248
C30	C	0.893300	-0.442970	-0.608442
C31	C	0.803657	-0.456179	-0.595195
C32	C	1.273193	-0.579525	-0.755737
C33	C	1.287299	-0.680796	-0.775745
C34	C	1.140095	-0.952955	-0.566455
C35	C	1.126837	-0.857807	-0.547658
C36	C	1.166951	-0.813550	-0.604678
C37	C	1.220326	-0.864449	-0.680499
C38	C	1.233580	-0.959608	-0.699302
C39	C	1.260436	-0.820203	-0.737525
C40	C	1.313811	-0.871102	-0.813346
C41	C	1.327062	-0.966251	-0.832145
C42	C	1.286948	-1.010509	-0.775126
C43	C	1.247182	-0.725044	-0.718721
C44	C	1.340667	-0.731697	-0.851568
C45	C	1.353925	-0.826845	-0.870366
C46	C	1.464288	-0.309852	-0.742200
C47	C	1.559699	-0.295816	-0.756320
C48	C	1.207376	-0.389541	-0.946733
C49	C	1.193305	-0.409463	-1.048013
C50	C	1.207486	-0.105132	-0.662235
C51	C	1.193463	-0.003856	-0.642278
C52	C	1.340964	-0.200239	-1.320075
C53	C	1.354189	-0.181522	-1.224918
C54	C	1.313969	-0.238505	-1.180687
C55	C	1.260522	-0.314210	-1.231622
C56	C	1.247301	-0.332933	-1.326789
C57	C	1.220306	-0.371199	-1.187402
C58	C	1.166859	-0.446904	-1.238337
C59	C	1.153640	-0.465623	-1.333494
C60	C	1.193860	-0.408640	-1.377725
C61	C	1.233527	-0.352476	-1.092234
C62	C	1.139865	-0.485170	-1.098949
C63	C	1.126639	-0.503887	-1.194105
C64	C	1.273322	-0.296149	-0.472316
C65	C	1.287523	-0.275946	-0.371011
H66	H	0.780311	-0.499579	-0.551611
Br67	Br	1.426723	-0.078787	-1.155800
Br68	Br	1.148573	-0.684539	-0.579472
H69	H	1.373330	-0.695664	-0.898001
Br70	Br	1.426360	-0.895933	-0.973262
H71	H	1.110128	-0.527273	-1.374966
Br72	Br	0.716888	-0.156974	-0.895743
Br73	Br	1.085286	-0.562517	-1.038932
Br74	Br	1.085641	-1.013028	-0.489096
Br75	Br	0.470362	-0.407134	-0.644532
H76	H	1.083379	-0.816369	-0.485926
Br77	Br	0.976070	-0.497389	-0.553781
Br78	Br	1.054106	-0.606625	-1.263241
H79	H	0.884296	-0.306172	-0.745831
H80	H	0.811984	-0.258629	-0.793597
Br81	Br	1.395554	-0.122923	-1.380110
Br82	Br	1.175917	-0.434043	-1.506873
Br83	Br	1.306062	-0.249739	-1.023121
H84	H	0.538690	-0.209881	-0.842640
Br85	Br	1.305170	-1.139571	-0.800450
Br86	Br	0.614129	-0.501640	-0.549585
Br87	Br	1.399476	-1.035335	-0.935064
H88	H	1.203724	-0.683610	-0.656987
H89	H	1.324740	-0.223261	-1.103206
