data_functionalizedCrystal
_audit_creation_method	'MofGen! by Chris Wilmer'
_symmetry_space_group_name_H-M	'P1'
_symmetry_Int_Tables_number	1
_symmetry_cell_setting	triclinic
loop_
_symmetry_equiv_pos_as_xyz
  x,y,z
_cell_length_a	13.897448
_cell_length_b	13.897449
_cell_length_c	13.032268
_cell_angle_alpha	97.161368
_cell_angle_beta	82.851959
_cell_angle_gamma	89.982475
loop_
_atom_site_label
_atom_site_type_symbol
_atom_site_fract_x
_atom_site_fract_y
_atom_site_fract_z
Zn1	Zn	-0.453250	-1.405387	0.590887
Zn2	Zn	-0.119916	-1.072054	0.924220
Zn3	Zn	0.213417	-0.738721	1.257553
Zn4	Zn	-0.594089	-1.425779	0.416147
Zn5	Zn	-0.260756	-1.092446	0.749481
Zn6	Zn	0.072578	-0.759113	1.082814
Zn7	Zn	-0.432811	-1.264573	0.416159
Zn8	Zn	-0.099477	-0.931240	0.749492
Zn9	Zn	0.233856	-0.597907	1.082826
Zn10	Zn	-0.614497	-1.244065	0.590830
Zn11	Zn	-0.281164	-0.910731	0.924164
Zn12	Zn	0.052169	-0.577398	1.257497
O13	O	-0.523662	-1.334951	0.503506
O14	O	-0.190328	-1.001618	0.836839
O15	O	0.143005	-0.668284	1.170173
O16	O	-0.471945	-1.543072	0.567726
O17	O	-0.138612	-1.209738	0.901059
O18	O	0.194721	-0.876405	1.234392
O19	O	-0.555600	-1.421512	0.269919
O20	O	-0.222267	-1.088179	0.603252
O21	O	0.111066	-0.754846	0.936586
O22	O	-0.300544	-1.283301	0.439366
O23	O	0.032790	-0.949968	0.772699
O24	O	0.366123	-0.616634	1.106032
O25	O	-0.575419	-1.558054	0.439345
O26	O	-0.242086	-1.224720	0.772679
O27	O	0.091247	-0.891387	1.106012
O28	O	-0.315560	-1.386757	0.567737
O29	O	0.017773	-1.053423	0.901071
O30	O	0.351107	-0.720090	1.234404
O31	O	-0.437110	-1.303075	0.269928
O32	O	-0.103777	-0.969741	0.603261
O33	O	0.229557	-0.636408	0.936595
O34	O	-0.456899	-1.126873	0.439311
O35	O	-0.123566	-0.793540	0.772644
O36	O	0.209768	-0.460207	1.105978
O37	O	-0.610202	-1.248347	0.737068
O38	O	-0.276869	-0.915014	1.070401
O39	O	0.056465	-0.581681	1.403734
O40	O	-0.590383	-1.111806	0.567641
O41	O	-0.257050	-0.778472	0.900975
O42	O	0.076283	-0.445139	1.234308
O43	O	-0.491734	-1.366870	0.737109
O44	O	-0.158401	-1.033537	1.070442
O45	O	0.174932	-0.700204	1.403776
O46	O	-0.731775	-1.401626	0.439291
O47	O	-0.398441	-1.068293	0.772624
O48	O	-0.065108	-0.734959	1.105957
O49	O	-0.746768	-1.268121	0.567630
O50	O	-0.413435	-0.934788	0.900963
O51	O	-0.080102	-0.601454	1.234296
C52	C	-0.774273	-1.334884	0.503476
C53	C	-0.440939	-1.001551	0.836809
C54	C	-0.107606	-0.668218	1.170142
C55	C	-0.881489	-1.334940	0.503498
C56	C	-0.548156	-1.001606	0.836831
C57	C	-0.214822	-0.668273	1.170164
C58	C	-0.523639	-1.084341	0.503472
C59	C	-0.190305	-0.751007	0.836805
C60	C	0.143028	-0.417674	1.170139
C61	C	-0.523655	-0.977126	0.503482
C62	C	-0.190321	-0.643792	0.836816
C63	C	0.143012	-0.310459	1.170149
C64	C	-0.555525	-1.303046	0.776064
C65	C	-0.222191	-0.969713	1.109397
C66	C	0.111142	-0.636380	1.442731
C67	C	-0.569103	-1.289451	0.892212
C68	C	-0.235769	-0.956117	1.225546
C69	C	0.097564	-0.622784	1.558879
C70	C	-1.077792	-1.335033	0.503563
C71	C	-0.744458	-1.001700	0.836897
C72	C	-0.411125	-0.668367	1.170230
C73	C	-0.968555	-1.334978	0.503530
C74	C	-0.635222	-1.001645	0.836863
C75	C	-0.301889	-0.668312	1.170197
C76	C	-0.272075	-1.335042	0.503559
C77	C	0.061258	-1.001708	0.836892
C78	C	0.394592	-0.668375	1.170226
C79	C	-0.164864	-1.335080	0.503582
C80	C	0.168470	-1.001747	0.836915
C81	C	0.501803	-0.668414	1.170248
C82	C	-0.523655	-0.780828	0.503502
C83	C	-0.190322	-0.447495	0.836835
C84	C	0.143011	-0.114162	1.170168
C85	C	-0.523652	-0.890062	0.503488
C86	C	-0.190318	-0.556729	0.836821
C87	C	0.143015	-0.223396	1.170155
C88	C	-0.523678	-0.586541	0.503530
C89	C	-0.190345	-0.253208	0.836864
C90	C	0.142988	0.080125	1.170197
C91	C	-0.523666	-0.693757	0.503515
C92	C	-0.190333	-0.360424	0.836848
C93	C	0.143001	-0.027090	1.170182
C94	C	-0.491853	-1.366787	0.232008
C95	C	-0.158520	-1.033454	0.565341
C96	C	0.174813	-0.700121	0.898675
C97	C	-0.478003	-1.380570	0.115861
C98	C	-0.144670	-1.047237	0.449194
C99	C	0.188663	-0.713903	0.782527
C100	C	-0.516541	-1.342032	0.944015
C101	C	-0.183207	-1.008699	1.277349
C102	C	0.150126	-0.675365	1.610682
C103	C	-0.530573	-1.327981	1.064060
C104	C	-0.197239	-0.994648	1.397394
C105	C	0.136094	-0.661315	1.730727
H106	H	-0.585959	-1.272552	1.108579
H107	H	-0.252626	-0.939219	1.441912
H108	H	0.080707	-0.605885	1.775245
H109	H	-0.422605	-1.435988	1.071343
H110	H	-0.089272	-1.102654	1.404677
H111	H	0.244062	-0.769321	1.738010
O112	O	-0.635305	-1.223395	0.945200
O113	O	-0.301972	-0.890062	1.278534
O114	O	0.031361	-0.556728	1.611867
C115	C	-0.728359	-1.247548	0.918609
C116	C	-0.395025	-0.914215	1.251943
C117	C	-0.061692	-0.580881	1.585276
H118	H	-0.721160	-1.293841	0.839344
H119	H	-0.387826	-0.960508	1.172677
H120	H	-0.054493	-0.627174	1.506010
H121	H	-0.771184	-1.178341	0.914966
H122	H	-0.437851	-0.845007	1.248300
H123	H	-0.104518	-0.511674	1.581633
H124	H	-0.767977	-1.289991	0.980014
H125	H	-0.434644	-0.956658	1.313347
H126	H	-0.101310	-0.623324	1.646681
O127	O	-0.450402	-1.408030	0.890793
O128	O	-0.117069	-1.074697	1.224127
O129	O	0.216264	-0.741363	1.557460
C130	C	-0.380756	-1.360473	0.827684
C131	C	-0.047422	-1.027139	1.161017
C132	C	0.285911	-0.693806	1.494351
H133	H	-0.412879	-1.289247	0.811427
H134	H	-0.079545	-0.955913	1.144761
H135	H	0.253788	-0.622580	1.478094
H136	H	-0.358926	-1.408690	0.750897
H137	H	-0.025592	-1.075357	1.084231
H138	H	0.307741	-0.742024	1.417564
H139	H	-0.314145	-1.345026	0.869693
H140	H	0.019188	-1.011693	1.203026
H141	H	0.352521	-0.678359	1.536360
