data_functionalizedCrystal
_audit_creation_method	'MofGen! by Chris Wilmer'
_symmetry_space_group_name_H-M	'P1'
_symmetry_Int_Tables_number	1
_symmetry_cell_setting	triclinic
loop_
_symmetry_equiv_pos_as_xyz
  x,y,z
_cell_length_a	25.639239
_cell_length_b	18.050590
_cell_length_c	18.050582
_cell_angle_alpha	89.996382
_cell_angle_beta	89.975362
_cell_angle_gamma	89.974492
loop_
_atom_site_label
_atom_site_type_symbol
_atom_site_fract_x
_atom_site_fract_y
_atom_site_fract_z
Zn1	Zn	-0.208368	-1.135238	-0.419534
Zn2	Zn	-0.295796	-1.135126	-0.295340
Zn3	Zn	-0.208356	-1.011058	-0.295399
Zn4	Zn	-0.295754	-1.010983	-0.419529
O5	O	-0.252068	-1.073101	-0.357450
O6	O	-0.219988	-1.239148	-0.403038
O7	O	-0.284209	-1.118653	-0.191423
O8	O	-0.135192	-1.027609	-0.311893
O9	O	-0.284221	-1.239066	-0.311792
O10	O	-0.135201	-1.118844	-0.403095
O11	O	-0.219968	-1.027500	-0.191466
O12	O	-0.219927	-0.907123	-0.311887
O13	O	-0.284150	-1.027481	-0.523454
O14	O	-0.284138	-0.907068	-0.403085
O15	O	-0.219947	-1.118771	-0.523458
O16	O	-0.368955	-1.118580	-0.311787
O17	O	-0.368925	-1.027373	-0.403028
C18	C	-0.252027	-0.880149	-0.357492
C19	C	-0.252022	-0.797603	-0.357527
C20	C	-0.287034	-0.598144	-0.407013
C21	C	-0.239360	-0.548764	-0.425293
C22	C	-0.252047	-0.646473	-0.357499
C23	C	-0.299744	-0.548772	-0.339225
C24	C	-0.252075	-0.500488	-0.357472
C25	C	-0.204347	-0.598180	-0.375814
C26	C	-0.264764	-0.598192	-0.289715
C27	C	-0.217057	-0.548834	-0.307969
C28	C	-0.252031	-0.730571	-0.357516
C29	C	-0.252085	-0.416391	-0.357455
C30	C	-0.387911	-1.072976	-0.357416
C31	C	-0.446025	-1.072991	-0.357427
C32	C	-0.806391	-1.120717	-0.310022
C33	C	-0.860996	-1.120746	-0.310032
O34	O	-0.889235	-1.161195	-0.269690
N35	N	-0.888307	-1.073232	-0.357500
C36	C	-0.861012	-1.025691	-0.404966
O37	O	-0.889257	-0.985280	-0.445342
C38	C	-0.806409	-1.025667	-0.404959
C39	C	-0.779100	-1.073179	-0.357483
C40	C	-0.779083	-1.168226	-0.262551
C41	C	-0.724482	-1.168196	-0.262540
C42	C	-0.697190	-1.120657	-0.310001
C43	C	-0.724499	-1.073149	-0.357472
C44	C	-0.779114	-0.978130	-0.452428
C45	C	-0.724507	-0.978111	-0.452418
C46	C	-0.697198	-1.025622	-0.404942
C47	C	-0.642607	-1.025580	-0.404922
N48	N	-0.615295	-1.073094	-0.357455
C49	C	-0.642587	-1.120633	-0.309994
C50	C	-0.975683	-1.025747	-0.404977
C51	C	-1.030285	-1.025767	-0.404981
C52	C	-1.030265	-1.120823	-0.310048
C53	C	-0.975662	-1.120799	-0.310041
C54	C	-0.948371	-1.073261	-0.357510
C55	C	-0.527922	-1.120566	-0.309975
C56	C	-0.473317	-1.120529	-0.309966
C57	C	-0.473341	-1.025477	-0.404901
C58	C	-0.527942	-1.025510	-0.404907
C59	C	-0.555231	-1.073060	-0.357442
O60	O	-0.614333	-0.985154	-0.445246
O61	O	-0.614336	-1.161044	-0.269632
C62	C	-0.115695	-1.073247	-0.357501
C63	C	-0.057581	-1.073309	-0.357522
C64	C	-0.252045	-1.073130	-0.551156
C65	C	-0.252035	-1.073143	-0.633702
C66	C	-0.252103	-0.266807	-0.357422
C67	C	-0.252099	-0.349353	-0.357441
C68	C	-0.286901	-1.023537	-0.833150
C69	C	-0.299692	-1.091289	-0.882519
C70	C	-0.251995	-1.073179	-0.784832
C71	C	-0.239190	-1.005465	-0.882545
C72	C	-0.251958	-1.073209	-0.930818
C73	C	-0.264812	-1.140967	-0.833114
C74	C	-0.204287	-1.055097	-0.833136
C75	C	-0.217060	-1.122895	-0.882482
C76	C	-0.252018	-1.073161	-0.700734
C77	C	-0.251935	-1.073234	-1.014914
C78	C	-0.252054	-1.073115	-0.164498
C79	C	-0.251916	-1.073247	-0.081953
H80	H	-0.340069	-0.527066	-0.323782
H81	H	-0.228374	-0.948187	-0.904258
H82	H	-0.316572	-0.619799	-0.448929
N83	N	-0.323985	-0.970936	-0.805969
N84	N	-0.360691	-0.991882	-0.765480
H85	H	-0.386884	-0.954737	-0.746282
H86	H	-0.228613	-0.527052	-0.482605
H87	H	-0.187447	-0.527318	-0.266086
H88	H	-0.801340	-0.939438	-0.491085
H89	H	-0.275525	-0.619920	-0.232419
N90	N	-0.445430	-1.169065	-0.261460
N91	N	-0.469808	-1.211505	-0.219089
H92	H	-0.450116	-1.245783	-0.184832
N93	N	-0.350288	-1.110494	-0.909727
N94	N	-0.388799	-1.071050	-0.893919
H95	H	-0.424533	-1.084609	-0.913131
H96	H	-0.164010	-0.619791	-0.391323
N97	N	-0.555784	-1.169140	-0.261485
N98	N	-0.531385	-1.211549	-0.219104
H99	H	-0.551062	-1.245851	-0.184853
N100	N	-1.058177	-0.977239	-0.453480
N101	N	-1.088610	-1.003350	-0.500831
H102	H	-1.108307	-0.969079	-0.535088
H103	H	-0.702250	-1.206886	-0.223883
H104	H	-0.801298	-1.206941	-0.223902
N105	N	-0.445448	-0.976931	-0.453379
N106	N	-0.414944	-1.003025	-0.500705
H107	H	-0.395242	-0.968743	-0.534945
H108	H	-0.953430	-1.159487	-0.271383
H109	H	-0.953465	-0.987030	-0.443629
H110	H	-0.702290	-0.939401	-0.491075
N111	N	-0.555833	-0.976962	-0.453393
N112	N	-0.531456	-0.934515	-0.495760
H113	H	-0.551150	-0.900229	-0.530007
N114	N	-0.180001	-1.175621	-0.909488
N115	N	-0.132905	-1.169497	-0.892711
H116	H	-0.106733	-1.206736	-0.911783
N117	N	-1.058157	-1.169378	-0.261569
N118	N	-1.106909	-1.169389	-0.261589
H119	H	-1.126610	-1.203677	-0.227353
H120	H	-0.275673	-1.198261	-0.811492
H121	H	-0.163969	-1.039765	-0.811427
