data_functionalizedCrystal
_audit_creation_method	'MofGen! by Chris Wilmer'
_symmetry_space_group_name_H-M	'P1'
_symmetry_Int_Tables_number	1
_symmetry_cell_setting	triclinic
loop_
_symmetry_equiv_pos_as_xyz
  x,y,z
_cell_length_a	16.992694
_cell_length_b	9.065218
_cell_length_c	8.140239
_cell_angle_alpha	90.001686
_cell_angle_beta	89.997102
_cell_angle_gamma	87.842054
loop_
_atom_site_label
_atom_site_type_symbol
_atom_site_fract_x
_atom_site_fract_y
_atom_site_fract_z
O1	O	-1.042613	-0.313082	-0.136397
O2	O	-0.814303	-0.309648	-0.136445
O3	O	-0.933177	-0.097160	-0.136417
O4	O	-0.923739	-0.525570	-0.136425
O5	O	-0.933170	-0.097157	0.136810
O6	O	-0.814297	-0.309644	0.136782
O7	O	-1.042606	-0.313079	0.136830
Zn8	Zn	-0.928450	-0.311361	0.180187
Zn9	Zn	-0.928459	-0.311366	-0.179802
O10	O	-0.923732	-0.525566	0.136802
C11	C	-0.785056	-0.305227	0.000162
C12	C	-0.697918	-0.292043	0.000143
C13	C	-0.932267	-0.042088	0.000194
C14	C	-0.929555	0.122007	0.000186
C15	C	-1.071853	-0.317499	0.000220
C16	C	-1.158991	-0.330683	0.000227
C17	C	-0.648581	-0.419249	0.000142
C18	C	-0.566706	-0.406853	0.000165
C19	C	-0.534170	-0.267249	0.000177
C20	C	-0.583514	-0.140034	0.000184
C21	C	-0.665387	-0.152432	0.000173
C22	C	-0.290208	-0.215866	0.000222
C23	C	-0.208328	-0.203477	0.000229
C24	C	-0.191526	-0.470298	0.000213
C25	C	-0.273402	-0.482683	0.000192
C26	C	-0.322738	-0.355468	0.000207
N27	N	-0.450482	-0.254575	0.000196
N28	N	-0.406425	-0.368144	0.000200
C29	C	-0.924643	-0.580639	0.000187
C30	C	-0.927355	-0.744733	0.000185
N31	N	-0.928450	-0.311358	0.425869
N32	N	-0.928465	-0.311358	-0.425484
H33	H	-0.675065	-0.532930	0.000131
C34	C	-0.512439	-0.546791	0.000193
N35	N	-0.471564	-0.652199	0.000226
H36	H	-0.299886	-0.596363	0.000163
C37	C	-0.137251	-0.610225	0.000217
N38	N	-0.096369	-0.715624	0.000229
C39	C	-0.344467	-0.075923	0.000228
N40	N	-0.385339	0.029489	0.000230
C41	C	-0.172541	-0.049896	0.000241
N42	N	-0.145586	0.065776	0.000246
C43	C	-0.547721	0.013532	0.000200
N44	N	-0.520764	0.129201	0.000207
C45	C	-0.719658	-0.012495	0.000169
N46	N	-0.760534	0.092911	0.000170
