data_functionalizedCrystal
_audit_creation_method	'MofGen! by Chris Wilmer'
_symmetry_space_group_name_H-M	'P1'
_symmetry_Int_Tables_number	1
_symmetry_cell_setting	triclinic
loop_
_symmetry_equiv_pos_as_xyz
  x,y,z
_cell_length_a	12.837943
_cell_length_b	14.044220
_cell_length_c	11.892095
_cell_angle_alpha	94.243827
_cell_angle_beta	85.689438
_cell_angle_gamma	94.008909
loop_
_atom_site_label
_atom_site_type_symbol
_atom_site_fract_x
_atom_site_fract_y
_atom_site_fract_z
O1	O	1.404549	0.242985	-0.093990
O2	O	1.101609	0.230709	-0.093996
O3	O	1.248531	0.098452	-0.093982
O4	O	1.257627	0.375241	-0.094004
O5	O	1.236280	0.109461	0.094025
O6	O	1.089357	0.241718	0.094010
O7	O	1.392297	0.253993	0.094017
Zn8	Zn	1.238882	0.249603	0.123864
Zn9	Zn	1.255024	0.235099	-0.123843
O10	O	1.245375	0.386250	0.094002
C11	C	1.056479	0.232067	0.000007
C12	C	0.940259	0.219699	0.000005
C13	C	0.713048	0.368378	0.000009
C14	C	0.603848	0.356763	0.000008
C15	C	0.612657	0.184853	0.000009
C16	C	0.721856	0.196469	0.000011
C17	C	0.772048	0.288234	0.000008
C18	C	0.881251	0.299849	0.000001
C19	C	0.890056	0.127940	0.000011
C20	C	0.780857	0.116324	0.000010
C21	C	1.238425	0.068282	0.000022
C22	C	1.226550	-0.038016	0.000023
C23	C	1.204843	-0.232639	0.000006
C24	C	1.289060	-0.282665	0.000005
C25	C	1.276982	-0.390960	-0.000005
C26	C	1.216919	-0.124334	0.000016
C27	C	1.437428	0.252635	0.000012
C28	C	1.553649	0.265002	0.000006
C29	C	1.255482	0.416420	-0.000004
C30	C	1.267357	0.522717	-0.000012
N31	N	1.227873	0.259502	0.292917
N32	N	1.266041	0.225193	-0.292896
C33	C	1.342643	0.156258	0.529576
C34	C	1.334956	0.163185	0.647917
C35	C	1.204807	0.280277	0.647942
C36	C	1.212494	0.273350	0.529601
C37	C	1.281415	0.211340	0.470422
C38	C	1.289107	0.204418	0.352079
C39	C	1.158954	0.321505	0.352106
C40	C	1.151267	0.328432	0.470447
H41	H	0.938107	0.062681	0.000003
C42	C	1.129868	0.347602	0.712002
C43	C	1.077863	0.394340	0.634872
C44	C	1.008805	0.456353	0.693841
H45	H	1.168025	0.393590	0.758173
H46	H	1.080125	0.311968	0.758142
H47	H	1.127599	0.429973	0.588751
H48	H	1.039686	0.348377	0.588697
H49	H	0.959062	0.420719	0.739981
H50	H	1.046971	0.502334	0.740011
H51	H	0.973505	0.488065	0.641518
H52	H	1.345229	0.153929	0.303896
C53	C	0.726168	0.016773	-0.000047
C54	C	0.617908	0.023749	-0.000074
C55	C	0.567499	-0.067940	-0.000145
H56	H	0.741482	-0.012893	0.065494
H57	H	0.750086	-0.020489	-0.065638
H58	H	0.593998	0.060996	0.065510
H59	H	0.602563	0.053398	-0.065611
H60	H	0.591418	-0.105201	-0.065736
H61	H	0.582822	-0.097599	0.065397
H62	H	0.494041	-0.063219	-0.000174
C63	C	1.401490	0.103548	0.712285
C64	C	1.465761	0.164249	0.780229
C65	C	1.527058	0.109342	0.839551
H66	H	1.443725	0.065617	0.660216
H67	H	1.357232	0.063065	0.758526
H68	H	1.510015	0.204715	0.733992
H69	H	1.423554	0.202181	0.832319
H70	H	1.482799	0.068859	0.885792
H71	H	1.569286	0.071413	0.787474
H72	H	1.570666	0.150519	0.885666
H73	H	1.123677	-0.271140	0.000002
C74	C	1.417496	0.088850	0.465520
C75	C	1.469459	0.042080	0.542656
C76	C	1.538412	-0.020033	0.483691
H77	H	1.467275	0.124385	0.419339
H78	H	1.379232	0.042892	0.419391
H79	H	1.507720	0.088032	0.588766
H80	H	1.419706	0.006527	0.588839
H81	H	1.500149	-0.065991	0.437562
H82	H	1.588185	0.015510	0.437512
H83	H	1.573671	-0.051780	0.536018
H84	H	0.571765	0.110147	0.000104
C85	C	1.092656	0.381373	0.287741
C86	C	1.158174	0.440950	0.219774
C87	C	1.097146	0.496109	0.160455
H88	H	1.050502	0.419377	0.339812
H89	H	1.048978	0.340366	0.241515
H90	H	1.201834	0.481952	0.265995
H91	H	1.200328	0.402971	0.167682
H92	H	1.053468	0.455103	0.114230
H93	H	1.054994	0.534107	0.212535
H94	H	1.141590	0.536532	0.114325
C95	C	1.397389	-0.231512	-0.000032
C96	C	1.472717	-0.298955	-0.000056
C97	C	1.572517	-0.251865	-0.000099
H98	H	1.401458	-0.188831	0.065519
H99	H	1.409928	-0.196511	-0.065614
H100	H	1.460182	-0.333940	0.065519
H101	H	1.468683	-0.341638	-0.065602
H102	H	1.585056	-0.216863	-0.065681
H103	H	1.576574	-0.209185	0.065453
H104	H	1.623640	-0.297617	-0.000126
H105	H	1.095149	0.378917	0.518645
H106	H	0.753915	0.443098	0.000005
C107	C	0.935551	0.399559	0.000059
C108	C	0.860500	0.467260	0.000093
C109	C	0.910477	0.559125	0.000165
H110	H	0.982234	0.403968	-0.065484
H111	H	0.973668	0.411548	0.065648
H112	H	0.822400	0.455275	-0.065489
H113	H	0.813813	0.462881	0.065631
H114	H	0.948594	0.571114	0.065754
H115	H	0.957159	0.563525	-0.065380
H116	H	0.859563	0.605072	0.000198
H117	H	0.555814	0.422025	0.000011
