data_functionalizedCrystal
_audit_creation_method	'MofGen! by Chris Wilmer'
_symmetry_space_group_name_H-M	'P1'
_symmetry_Int_Tables_number	1
_symmetry_cell_setting	triclinic
loop_
_symmetry_equiv_pos_as_xyz
  x,y,z
_cell_length_a	17.699083
_cell_length_b	10.654541
_cell_length_c	16.176319
_cell_angle_alpha	89.993456
_cell_angle_beta	89.998611
_cell_angle_gamma	83.883472
loop_
_atom_site_label
_atom_site_type_symbol
_atom_site_fract_x
_atom_site_fract_y
_atom_site_fract_z
O1	O	1.005088	0.158809	-0.068630
O2	O	0.784840	0.179471	-0.068657
O3	O	0.900029	-0.013688	-0.068638
O4	O	0.889899	0.351968	-0.068649
O5	O	0.900013	-0.013701	0.068855
O6	O	0.784824	0.179458	0.068836
O7	O	1.005072	0.158797	0.068863
Cu8	Cu	0.894946	0.169126	0.081404
Cu9	Cu	0.894965	0.169141	-0.081198
O10	O	0.889883	0.351956	0.068844
C11	C	0.756631	0.178724	0.000086
C12	C	0.672599	0.176503	0.000076
C13	C	0.899277	-0.060480	0.000108
C14	C	0.897053	-0.199884	0.000106
C15	C	0.624698	0.289883	0.000072
C16	C	0.545741	0.287789	0.000083
C17	C	0.514687	0.172313	0.000091
C18	C	0.562594	0.058924	0.000097
C19	C	0.641549	0.061020	0.000092
C20	C	0.244177	0.050470	0.000118
C21	C	0.165216	0.048383	0.000120
C22	C	0.148369	0.277239	0.000109
C23	C	0.227324	0.279335	0.000104
C24	C	0.275224	0.165946	0.000114
C25	C	0.360838	0.168219	0.000104
C26	C	0.429075	0.170039	0.000096
C27	C	1.034792	-0.230266	0.000134
C28	C	1.102614	-0.310947	0.000149
C29	C	1.100519	-0.441929	0.000146
C30	C	1.030596	-0.492230	0.000126
C31	C	0.962775	-0.411549	0.000110
C32	C	0.964876	-0.280566	0.000116
C33	C	0.825037	-0.381167	0.000077
C34	C	0.827130	-0.250185	0.000086
C35	C	0.755114	-0.431468	0.000056
C36	C	0.687291	-0.350786	0.000047
C37	C	0.689388	-0.219798	0.000051
C38	C	0.759308	-0.169504	0.000071
C39	C	1.033281	0.159543	0.000118
C40	C	1.117313	0.161764	0.000123
C41	C	0.890634	0.398747	0.000096
C42	C	0.892859	0.538151	0.000092
N43	N	0.894939	0.169115	0.195769
N44	N	0.894979	0.169142	-0.195563
C45	C	0.945960	0.083620	0.239042
C46	C	0.945964	0.083618	0.325589
C47	C	0.894949	0.169120	0.368862
C48	C	0.843923	0.254620	0.325583
C49	C	0.843916	0.254614	0.239037
C50	C	0.843949	0.254643	0.674611
C51	C	0.843961	0.254645	0.761163
C52	C	0.945997	0.083647	0.761162
C53	C	0.945990	0.083642	0.674617
C54	C	0.894961	0.169137	0.631346
C55	C	0.894956	0.169136	0.537502
C56	C	0.894957	0.169128	0.462704
H57	H	0.649976	0.383917	0.000065
O58	O	1.170552	-0.262141	0.000021
C59	C	1.211959	-0.303399	-0.071169
H60	H	1.171096	-0.330512	-0.120949
H61	H	1.253682	-0.388901	-0.055062
C62	C	1.306215	-0.163044	-0.042306
C63	C	1.256026	-0.196334	-0.103449
H64	H	1.333401	-0.097005	-0.062217
H65	H	1.278321	-0.135250	0.005658
H66	H	1.340978	-0.234305	-0.028889
H67	H	1.221259	-0.125079	-0.116858
H68	H	1.283916	-0.224114	-0.151417
H69	H	1.036505	-0.123616	0.000147
H70	H	0.634159	-0.154113	0.000035
H71	H	0.506743	0.380115	0.000080
H72	H	0.109359	0.369565	0.000105
H73	H	0.252604	0.373367	0.000094
O74	O	0.995560	0.000748	0.367719
C75	C	1.042609	0.067921	0.417753
H76	H	1.012973	0.166250	0.430708
H77	H	1.098585	0.076343	0.384395
C78	C	1.094820	-0.123676	0.484060
C79	C	1.058418	-0.002909	0.499977
H80	H	1.104576	-0.167368	0.534778
H81	H	1.063125	-0.168933	0.450349
H82	H	1.141463	-0.116640	0.456259
H83	H	1.011772	-0.009946	0.527767
H84	H	1.090107	0.042346	0.533694
O85	O	0.619356	-0.399589	-0.000122
C86	C	0.577977	-0.358296	-0.071327
H87	H	0.618858	-0.331154	-0.121085
H88	H	0.536245	-0.272806	-0.055229
C89	C	0.483714	-0.498675	-0.042523
C90	C	0.533926	-0.465348	-0.103639
H91	H	0.456538	-0.564706	-0.062453
H92	H	0.511590	-0.526492	0.005451
H93	H	0.448944	-0.427424	-0.029114
H94	H	0.568700	-0.536594	-0.117039
H95	H	0.506054	-0.437545	-0.151616
H96	H	0.802382	0.324233	0.360820
H97	H	0.139935	-0.045657	0.000128
O98	O	0.532393	-0.053218	-0.000041
C99	C	0.487211	-0.061258	-0.071238
H100	H	0.506223	0.004313	-0.121012
H101	H	0.425109	-0.032102	-0.055138
C102	C	0.472711	-0.278535	-0.042387
C103	C	0.496067	-0.198007	-0.103524
H104	H	0.478171	-0.362888	-0.062301
H105	H	0.503149	-0.273118	0.005581
H106	H	0.420961	-0.254223	-0.028976
H107	H	0.547819	-0.222310	-0.116926
H108	H	0.465638	-0.203432	-0.151495
H109	H	0.761023	-0.062854	0.000079
O110	O	0.995544	0.000441	0.197138
C111	C	1.040589	-0.074999	0.253895
H112	H	1.009556	-0.076348	0.315591
H113	H	1.097023	-0.034340	0.263089
C114	C	1.093593	-0.208855	0.144357
C115	C	1.055476	-0.210519	0.220131
H116	H	1.102780	-0.292449	0.123529
H117	H	1.063248	-0.158027	0.106117
H118	H	1.140618	-0.174966	0.152028
H119	H	1.008449	-0.244393	0.212457
H120	H	1.085814	-0.261356	0.258368
H121	H	0.987533	0.014023	0.639387
H122	H	0.753413	-0.538121	0.000049
H123	H	0.802401	0.324258	0.639386
O124	O	0.794432	0.337841	0.197036
C125	C	0.807370	0.462135	0.218183
H126	H	0.867967	0.462628	0.241966
H127	H	0.765618	0.499110	0.268420
C128	C	0.721618	0.546686	0.112082
C129	C	0.796048	0.547293	0.141286
H130	H	0.714631	0.599218	0.064651
H131	H	0.712899	0.462947	0.097837
H132	H	0.686833	0.577496	0.153954
H133	H	0.830830	0.516468	0.099419
H134	H	0.804772	0.631028	0.155523
H135	H	0.283168	-0.041858	0.000127
H136	H	0.987545	0.014029	0.796403
H137	H	0.680549	-0.031306	0.000094
O138	O	0.794293	0.337574	0.803163
C139	C	0.719269	0.317318	0.782017
H140	H	0.718379	0.216773	0.758234
H141	H	0.697389	0.386969	0.731780
C142	C	0.669165	0.460418	0.888118
C143	C	0.668072	0.336922	0.858914
H144	H	0.637583	0.472516	0.935550
H145	H	0.719710	0.474069	0.902363
H146	H	0.650934	0.518446	0.846247
H147	H	0.686312	0.278898	0.900781
H148	H	0.617528	0.323262	0.844678
H149	H	1.155746	-0.507621	0.000152
H150	H	1.028897	-0.598883	0.000113
