data_functionalizedCrystal
_audit_creation_method	'MofGen! by Chris Wilmer'
_symmetry_space_group_name_H-M	'P1'
_symmetry_Int_Tables_number	1
_symmetry_cell_setting	triclinic
loop_
_symmetry_equiv_pos_as_xyz
  x,y,z
_cell_length_a	17.038272
_cell_length_b	17.038272
_cell_length_c	16.098538
_cell_angle_alpha	92.920305
_cell_angle_beta	87.069734
_cell_angle_gamma	91.111556
loop_
_atom_site_label
_atom_site_type_symbol
_atom_site_fract_x
_atom_site_fract_y
_atom_site_fract_z
O1	O	1.052033	0.167266	-0.069152
O2	O	0.824222	0.164557	-0.069177
O3	O	0.936773	0.052006	-0.069158
O4	O	0.939482	0.279817	-0.069171
O5	O	0.930197	0.058553	0.069354
O6	O	0.817646	0.171104	0.069335
O7	O	1.045456	0.173813	0.069359
Zn8	Zn	0.930507	0.173498	0.091339
Zn9	Zn	0.939172	0.164872	-0.091156
O10	O	0.932905	0.286364	0.069341
C11	C	0.791641	0.165367	0.000076
C12	C	0.704358	0.158019	0.000067
C13	C	0.658749	0.225482	0.000064
C14	C	0.576737	0.218574	0.000075
C15	C	0.540335	0.144201	0.000085
C16	C	0.585950	0.076733	0.000090
C17	C	0.667961	0.083642	0.000084
C18	C	0.292946	0.119792	0.000108
C19	C	0.210929	0.112887	0.000112
C20	C	0.201722	0.254729	0.000098
C21	C	0.283734	0.261632	0.000088
C22	C	0.329342	0.194164	0.000098
C23	C	0.456505	0.137138	0.000094
C24	C	0.413170	0.201228	0.000094
C25	C	0.931022	0.025987	0.000097
C26	C	0.923674	-0.061297	0.000096
C27	C	0.991137	-0.106906	0.000104
C28	C	0.984229	-0.188918	0.000096
C29	C	0.909856	-0.225320	0.000085
C30	C	0.842388	-0.179705	0.000074
C31	C	0.849297	-0.097694	0.000077
C32	C	0.885446	-0.472708	0.000071
C33	C	0.878541	-0.554725	0.000071
C34	C	1.020383	-0.563932	0.000091
C35	C	1.027286	-0.481920	0.000098
C36	C	0.959818	-0.436312	0.000083
C37	C	0.902792	-0.309149	0.000079
C38	C	0.966882	-0.352485	0.000084
C39	C	1.078037	0.173002	0.000105
C40	C	1.165320	0.180351	0.000108
C41	C	0.938656	0.312383	0.000083
C42	C	0.946005	0.399666	0.000079
N43	N	0.924599	0.179385	0.215887
N44	N	0.945085	0.158979	-0.215705
C45	C	0.972390	0.131633	0.259480
C46	C	0.968265	0.135759	0.346668
C47	C	0.916352	0.187642	0.390262
C48	C	0.868556	0.235395	0.346663
C49	C	0.872678	0.231265	0.259476
C50	C	0.901410	0.202602	0.653510
C51	C	0.897294	0.206731	0.740702
C52	C	0.997003	0.107093	0.740702
C53	C	1.001123	0.102971	0.653513
C54	C	0.953324	0.150721	0.609922
C55	C	0.912136	0.191862	0.479383
C56	C	0.957536	0.146496	0.520803
H57	H	0.426857	0.076584	0.000125
H58	H	0.688381	0.286045	0.000056
H59	H	1.051699	-0.077274	0.000118
H60	H	0.999800	0.104250	0.485307
O61	O	0.532551	0.284187	0.000034
C62	C	0.532070	0.425605	0.000068
C63	C	0.582205	0.351360	0.000093
H64	H	0.572194	0.479934	0.000133
H65	H	0.496204	0.423230	-0.057907
H66	H	0.490687	0.428615	0.058027
H67	H	0.623633	0.348303	-0.057826
H68	H	0.618018	0.353766	0.058107
O69	O	0.337127	0.054173	0.000078
C70	C	0.337596	-0.087241	0.000143
C71	C	0.287463	-0.012991	0.000157
H72	H	0.297462	-0.141561	0.000225
H73	H	0.378950	-0.090354	-0.057837
H74	H	0.373494	-0.084768	0.058097
H75	H	0.251518	-0.015412	-0.057757
H76	H	0.246158	-0.009904	0.058176
H77	H	0.313367	0.322194	0.000070
O78	O	0.157458	0.320280	-0.000052
C79	C	0.127923	0.436031	-0.071789
C80	C	0.178089	0.361810	-0.071735
H81	H	0.144596	0.469638	-0.129729
H82	H	0.063045	0.418364	-0.071836
H83	H	0.139026	0.475069	-0.013798
H84	H	0.167054	0.322739	-0.129716
H85	H	0.242951	0.379534	-0.071645
O86	O	0.818014	0.285704	0.388972
C87	C	0.683262	0.323846	0.415626
C88	C	0.740411	0.266806	0.367675
H89	H	0.620510	0.308598	0.398412
H90	H	0.688459	0.318592	0.485438
H91	H	0.698523	0.386618	0.398481
H92	H	0.725189	0.204009	0.384750
H93	H	0.735205	0.272128	0.297875
H94	H	0.181294	0.052321	0.000118
H95	H	0.705095	0.028706	0.000086
O96	O	0.854954	0.249070	0.611301
C97	C	0.755592	0.348301	0.620511
C98	C	0.808174	0.295732	0.668420
H99	H	0.717745	0.386029	0.666670
H100	H	0.793993	0.387929	0.579701
H101	H	0.716068	0.309816	0.579683
H102	H	0.847706	0.334156	0.709292
H103	H	0.769726	0.256099	0.709176
H104	H	0.556305	0.016177	0.000110
H105	H	0.794361	-0.060560	0.000070
O106	O	1.039164	-0.317213	0.000204
C107	C	1.159077	-0.296554	0.072008
C108	C	1.077245	-0.336568	0.071963
H109	H	1.189883	-0.312174	0.130029
H110	H	1.195499	-0.317702	0.014087
H111	H	1.152404	-0.230110	0.071966
H112	H	1.083845	-0.403016	0.072035
H113	H	1.040853	-0.315357	0.129880
O114	O	1.049827	-0.233141	-0.000003
C115	C	1.172338	-0.269516	-0.071765
C116	C	1.098089	-0.219381	-0.071745
H117	H	1.211370	-0.258422	-0.129771
H118	H	1.205967	-0.252915	-0.013829
H119	H	1.154611	-0.334379	-0.071732
H120	H	1.115747	-0.154505	-0.071807
H121	H	1.064478	-0.236049	-0.129676
O122	O	1.043501	0.060671	0.782918
C123	C	1.142781	-0.038643	0.773715
C124	C	1.090183	0.013907	0.725802
H125	H	1.180524	-0.076477	0.727558
H126	H	1.182394	-0.000219	0.814503
H127	H	1.104317	-0.078179	0.814563
H128	H	1.128586	0.053451	0.684909
H129	H	1.050564	-0.024564	0.685066
H130	H	0.833760	0.270148	0.223984
H131	H	0.442811	0.261782	0.000091
O132	O	0.806283	-0.590060	-0.000095
C133	C	0.686338	-0.610648	-0.071858
C134	C	0.768151	-0.570598	-0.071785
H135	H	0.655478	-0.594915	-0.129805
H136	H	0.692952	-0.677106	-0.071908
H137	H	0.649993	-0.589530	-0.013874
H138	H	0.804541	-0.591653	-0.129760
H139	H	0.761479	-0.504146	-0.071692
O140	O	1.085934	-0.608195	0.000244
C141	C	1.201674	-0.637739	0.071981
C142	C	1.127452	-0.587574	0.071926
H143	H	1.235271	-0.621073	0.129921
H144	H	1.184008	-0.702617	0.072029
H145	H	1.240722	-0.626626	0.013990
H146	H	1.088371	-0.598619	0.129907
H147	H	1.145174	-0.522712	0.071835
H148	H	1.014666	0.089389	0.223992
H149	H	1.087848	-0.452287	0.000107
O150	O	0.819938	-0.428388	-0.000086
C151	C	0.748836	-0.333815	-0.071830
C152	C	0.823057	-0.383981	-0.071767
H153	H	0.751341	-0.297887	-0.129769
H154	H	0.694473	-0.373891	-0.071889
H155	H	0.745773	-0.292486	-0.013838
H156	H	0.826196	-0.425316	-0.129749
H157	H	0.877385	-0.343858	-0.071665
O158	O	0.770190	-0.215159	-0.000048
C159	C	0.683463	-0.305758	-0.071841
C160	C	0.765263	-0.265679	-0.071800
H161	H	0.679448	-0.346600	-0.129856
H162	H	0.673916	-0.341240	-0.013914
H163	H	0.636443	-0.259056	-0.071808
H164	H	0.812334	-0.312329	-0.071863
H165	H	0.774743	-0.230181	-0.129723
O166	O	1.014779	0.089352	0.388885
C167	C	1.114098	-0.009922	0.379684
C168	C	1.061473	0.042601	0.331771
H169	H	1.151852	-0.047746	0.333527
H170	H	1.153700	0.028522	0.420464
H171	H	1.075653	-0.049468	0.420540
H172	H	1.099856	0.082154	0.290869
H173	H	1.021865	0.004110	0.291042
H174	H	0.842238	-0.338796	0.000072
H175	H	1.043394	0.060724	0.618021
H176	H	0.855019	0.248983	0.776192
H177	H	0.869870	0.234107	0.514884
