data_functionalizedCrystal
_audit_creation_method	'MofGen! by Chris Wilmer'
_symmetry_space_group_name_H-M	'P1'
_symmetry_Int_Tables_number	1
_symmetry_cell_setting	triclinic
loop_
_symmetry_equiv_pos_as_xyz
  x,y,z
_cell_length_a	21.295418
_cell_length_b	21.295417
_cell_length_c	18.215399
_cell_angle_alpha	90.032152
_cell_angle_beta	90.038883
_cell_angle_gamma	90.046319
loop_
_atom_site_label
_atom_site_type_symbol
_atom_site_fract_x
_atom_site_fract_y
_atom_site_fract_z
Zn1	Zn	0.962326	-0.250350	0.416469
Zn2	Zn	1.462326	0.249650	0.916469
Zn3	Zn	0.962237	-0.355621	0.293393
Zn4	Zn	1.462237	0.144379	0.793393
Zn5	Zn	0.857058	-0.250399	0.293375
Zn6	Zn	1.357058	0.249601	0.793375
Zn7	Zn	0.857018	-0.355614	0.416377
Zn8	Zn	1.357018	0.144386	0.916377
O9	O	0.909660	-0.302996	0.354904
O10	O	1.409660	0.197004	0.854904
O11	O	1.050403	-0.264297	0.400188
O12	O	1.550403	0.235703	0.900188
O13	O	0.948264	-0.341686	0.190407
O14	O	1.448264	0.158314	0.690407
O15	O	0.871075	-0.162303	0.309734
O16	O	1.371075	0.337697	0.809734
O17	O	1.050338	-0.341639	0.309765
O18	O	1.550338	0.158361	0.809765
O19	O	0.948415	-0.162267	0.400171
O20	O	1.448415	0.337733	0.900171
O21	O	0.870989	-0.264380	0.190393
O22	O	1.370989	0.235620	0.690393
O23	O	0.768963	-0.264373	0.309646
O24	O	1.268963	0.235627	0.809646
O25	O	0.871008	-0.341627	0.519374
O26	O	1.371008	0.158373	1.019374
O27	O	0.768934	-0.341675	0.400015
O28	O	1.268934	0.158325	0.900015
O29	O	0.948377	-0.264290	0.519441
O30	O	1.448377	0.235710	1.019441
O31	O	0.948226	-0.443710	0.309677
O32	O	1.448226	0.056290	0.809677
O33	O	0.870922	-0.443705	0.400033
O34	O	1.370922	0.056295	0.900033
C35	C	0.746108	-0.303029	0.354819
C36	C	1.246108	0.196971	0.854819
C37	C	0.676140	-0.303058	0.354800
C38	C	1.176140	0.196942	0.854800
C39	C	0.643275	-0.343363	0.401785
C40	C	1.143275	0.156637	0.901785
C41	C	0.577532	-0.343347	0.401818
C42	C	1.077532	0.156653	0.901818
C43	C	0.544657	-0.303034	0.354853
C44	C	1.044657	0.196966	0.854853
C45	C	0.577531	-0.262722	0.307865
C46	C	1.077531	0.237278	0.807865
C47	C	0.643272	-0.262734	0.307838
C48	C	1.143272	0.237266	0.807838
N49	N	0.441386	-0.298117	0.290486
N50	N	0.941386	0.201883	0.790486
N51	N	0.378935	-0.298109	0.290513
N52	N	0.878935	0.201891	0.790513
C53	C	0.346583	-0.302994	0.354931
C54	C	0.846583	0.197006	0.854931
N55	N	0.379042	-0.307899	0.419322
N56	N	0.879042	0.192101	0.919322
N57	N	0.441499	-0.307910	0.419294
N58	N	0.941499	0.192090	0.919294
C59	C	0.473372	-0.303016	0.354877
C60	C	0.973372	0.196984	0.854877
C61	C	0.242432	-0.343283	0.401956
C62	C	0.742432	0.156717	0.901956
C63	C	0.176688	-0.343263	0.401990
C64	C	0.676688	0.156737	0.901990
C65	C	0.176688	-0.262642	0.308030
C66	C	0.676688	0.237358	0.808030
C67	C	0.242430	-0.262658	0.308003
C68	C	0.742430	0.237342	0.808003
C69	C	0.275298	-0.302983	0.354964
C70	C	0.775298	0.197017	0.854964
C71	C	0.909577	-0.466548	0.354863
C72	C	1.409577	0.033452	0.854863
C73	C	0.909599	-0.536516	0.354870
C74	C	1.409599	-0.036516	0.854870
C75	C	0.949887	-0.569364	0.307870
C76	C	1.449887	-0.069364	0.807870
C77	C	0.949917	-0.635107	0.307886
C78	C	1.449917	-0.135107	0.807886
C79	C	0.909647	-0.667998	0.354895
C80	C	1.409647	-0.167998	0.854895
C81	C	0.869357	-0.635142	0.401904
C82	C	1.369357	-0.135142	0.901904
C83	C	0.869333	-0.569401	0.401892
C84	C	1.369333	-0.069401	0.901892
N85	N	0.854580	-0.771279	0.360477
N86	N	1.354580	-0.271279	0.860477
N87	N	0.854604	-0.833731	0.360485
N88	N	1.354604	-0.333731	0.860485
C89	C	0.909718	-0.866073	0.354938
C90	C	1.409718	-0.366073	0.854938
N91	N	0.964807	-0.833604	0.349368
N92	N	1.464807	-0.333604	0.849368
N93	N	0.964782	-0.771147	0.349356
N94	N	1.464782	-0.271147	0.849356
C95	C	0.909669	-0.739284	0.354915
C96	C	1.409669	-0.239284	0.854915
C97	C	0.950041	-0.970207	0.307953
C98	C	1.450041	-0.470207	0.807953
C99	C	0.950071	-1.035950	0.307975
C100	C	1.450071	-0.535950	0.807975
C101	C	0.869506	-1.035985	0.401989
C102	C	1.369506	-0.535985	0.901989
C103	C	0.869481	-0.970242	0.401971
C104	C	1.369481	-0.470242	0.901971
C105	C	0.909747	-0.937357	0.354949
C106	C	1.409747	-0.437357	0.854949
C107	C	1.073850	-0.302963	0.354989
C108	C	1.573850	0.197037	0.854989
C109	C	1.143818	-0.302949	0.355025
C110	C	1.643818	0.197051	0.855025
C111	C	0.909698	-0.302953	0.546857
C112	C	1.409698	0.197047	1.046857
C113	C	0.909714	-0.302934	0.628655
C114	C	1.409714	0.197066	1.128655
C115	C	0.909760	-0.138806	0.354961
C116	C	1.409760	0.361194	0.854961
C117	C	0.909802	-0.068838	0.354985
C118	C	1.409802	0.431162	0.854985
C119	C	0.909658	-0.302994	0.163697
C120	C	1.409658	0.197006	0.663697
C121	C	0.909763	-0.302835	0.081899
C122	C	1.409763	0.197165	0.581899
C123	C	0.950015	-0.262627	0.816886
C124	C	1.450015	0.237373	1.316886
C125	C	0.950022	-0.262609	0.893744
C126	C	1.450022	0.237391	1.393744
C127	C	0.869458	-0.343144	0.893663
C128	C	1.369458	0.156856	1.393663
C129	C	0.869448	-0.343159	0.816806
C130	C	1.369448	0.156841	1.316806
C131	C	0.909730	-0.302901	0.778419
C132	C	1.409730	0.197099	1.278419
C133	C	0.909748	-0.302868	0.932135
C134	C	1.409748	0.197132	1.432135
C135	C	0.909756	-0.302848	1.015469
C136	C	1.409756	0.197152	1.515469
C137	C	0.909721	-0.302920	0.695080
C138	C	1.409721	0.197080	1.195080
H139	H	0.269194	-0.376114	0.440199
H140	H	0.769194	0.123886	0.940199
C141	C	0.825165	-0.387440	0.935891
C142	C	1.325165	0.112560	1.435891
C143	C	0.780858	-0.431747	0.893576
C144	C	1.280858	0.068253	1.393576
C145	C	0.736569	-0.476051	0.935802
C146	C	1.236569	0.023949	1.435802
C147	C	0.736588	-0.476048	1.020342
C148	C	1.236588	0.023952	1.520342
C149	C	0.780897	-0.431739	1.062661
C150	C	1.280897	0.068261	1.562661
C151	C	0.825185	-0.387435	1.020436
C152	C	1.325185	0.112565	1.520436
H153	H	0.780843	-0.431752	0.830990
H154	H	1.280843	0.068248	1.330990
H155	H	0.703769	-0.508852	0.904474
H156	H	1.203769	-0.008852	1.404474
H157	H	0.703803	-0.508844	1.051600
H158	H	1.203803	-0.008844	1.551600
H159	H	0.780912	-0.431735	1.125247
H160	H	1.280912	0.068265	1.625247
H161	H	0.857985	-0.354635	1.051764
H162	H	1.357985	0.145365	1.551764
H163	H	0.550760	-0.229898	0.269627
H164	H	1.050760	0.270102	0.769627
H165	H	0.550768	-0.376167	0.440081
H166	H	1.050768	0.123833	0.940081
H167	H	0.982813	-0.229845	0.785633
H168	H	1.482813	0.270155	1.285633
H169	H	0.836639	-0.375954	0.785486
H170	H	1.336639	0.124046	1.285486
C171	C	0.825059	-0.671320	0.453615
C172	C	1.325059	-0.171320	0.953615
C173	C	0.825081	-0.743632	0.453629
C174	C	1.325081	-0.243632	0.953629
C175	C	0.780785	-0.779809	0.505345
C176	C	1.280785	-0.279809	1.005345
C177	C	0.736467	-0.743673	0.557047
C178	C	1.236467	-0.243673	1.057047
C179	C	0.736444	-0.671356	0.557035
C180	C	1.236444	-0.171356	1.057035
C181	C	0.780740	-0.635179	0.505319
C182	C	1.280740	-0.135179	1.005319
H183	H	0.857889	-0.770386	0.415354
H184	H	1.357889	-0.270386	0.915354
H185	H	0.780802	-0.833343	0.505353
H186	H	1.280802	-0.333343	1.005353
H187	H	0.703676	-0.770453	0.595330
H188	H	1.203676	-0.270453	1.095330
H189	H	0.703635	-0.644602	0.595310
H190	H	1.203635	-0.144602	1.095310
H191	H	0.780722	-0.581646	0.505311
H192	H	1.280722	-0.081646	1.005311
H193	H	0.982825	-0.229812	0.925061
H194	H	1.482825	0.270188	1.425061
H195	H	0.670032	-0.376197	0.440026
H196	H	1.170032	0.123803	0.940026
H197	H	0.149930	-0.376083	0.440255
H198	H	0.649930	0.123917	0.940255
H199	H	0.982726	-0.661857	0.269614
H200	H	1.482726	-0.161857	0.769614
H201	H	0.149922	-0.229815	0.269794
H202	H	0.649922	0.270185	0.769794
C203	C	0.679427	-0.218402	0.256145
C204	C	1.179427	0.281598	0.756145
C205	C	0.670468	-0.146844	0.262306
C206	C	1.170468	0.353156	0.762306
C207	C	0.706624	-0.102513	0.210610
C208	C	1.206624	0.397487	0.710610
C209	C	0.751738	-0.129739	0.152754
C210	C	1.251738	0.370261	0.652754
C211	C	0.760699	-0.201300	0.146591
C212	C	1.260699	0.298700	0.646591
C213	C	0.724543	-0.245631	0.198287
C214	C	1.224543	0.254369	0.698287
H215	H	0.637070	-0.126687	0.305137
H216	H	1.137070	0.373313	0.805137
H217	H	0.699991	-0.049539	0.215172
H218	H	1.199991	0.450461	0.715172
H219	H	0.778503	-0.096922	0.114486
H220	H	1.278503	0.403078	0.614486
H221	H	0.794097	-0.221457	0.103760
H222	H	1.294097	0.278543	0.603760
H223	H	0.731177	-0.298605	0.193725
H224	H	1.231177	0.201395	0.693725
H225	H	0.982831	-0.943431	0.269667
H226	H	1.482831	-0.443431	0.769667
C227	C	0.278587	-0.218334	0.256304
C228	C	0.778587	0.281666	0.756304
C229	C	0.242430	-0.173993	0.204638
C230	C	0.742430	0.326007	0.704638
C231	C	0.278586	-0.129667	0.152935
C232	C	0.778586	0.370333	0.652935
C233	C	0.350899	-0.129683	0.152899
C234	C	0.850899	0.370317	0.652899
C235	C	0.387060	-0.174025	0.204568
C236	C	0.887060	0.325975	0.704568
C237	C	0.350904	-0.218351	0.256270
C238	C	0.850904	0.281649	0.756270
H239	H	0.188896	-0.173980	0.204662
H240	H	0.688896	0.326020	0.704662
H241	H	0.251817	-0.096842	0.114687
H242	H	0.751817	0.403158	0.614687
H243	H	0.377664	-0.096870	0.114626
H244	H	0.877664	0.403130	0.614626
H245	H	0.440594	-0.174038	0.204543
H246	H	0.940594	0.325962	0.704543
H247	H	0.377673	-0.251176	0.294519
H248	H	0.877673	0.248824	0.794519
C249	C	0.994183	-0.533194	0.256148
C250	C	1.494183	-0.033194	0.756148
C251	C	0.966918	-0.488070	0.198319
C252	C	1.466918	0.011930	0.698319
C253	C	1.011214	-0.451900	0.146597
C254	C	1.511214	0.048100	0.646597
C255	C	1.082776	-0.460855	0.152704
C256	C	1.582776	0.039145	0.652704
C257	C	1.110045	-0.505981	0.210536
C258	C	1.610045	-0.005981	0.710536
C259	C	1.065749	-0.542151	0.262258
C260	C	1.565749	-0.042151	0.762258
H261	H	0.913940	-0.481439	0.193796
H262	H	1.413940	0.018561	0.693796
H263	H	0.991027	-0.418494	0.103785
H264	H	1.491027	0.081506	0.603785
H265	H	1.115567	-0.434079	0.114416
H266	H	1.615567	0.065921	0.614416
H267	H	1.163023	-0.512612	0.215059
H268	H	1.663023	-0.012612	0.715059
H269	H	1.085936	-0.575557	0.305069
H270	H	1.585936	-0.075557	0.805069
C271	C	0.825010	-0.533264	0.453592
C272	C	1.325010	-0.033264	0.953592
C273	C	0.753455	-0.542392	0.447484
C274	C	1.253455	-0.042392	0.947484
C275	C	0.709131	-0.506254	0.499184
C276	C	1.209131	-0.006254	0.999184
C277	C	0.736363	-0.460988	0.556991
C278	C	1.236363	0.039012	1.056991
C279	C	0.807921	-0.451858	0.563101
C280	C	1.307921	0.048142	1.063101
C281	C	0.852245	-0.487996	0.511402
C282	C	1.352245	0.012004	1.011402
H283	H	0.733293	-0.575902	0.404690
H284	H	1.233293	-0.075902	0.904690
H285	H	0.656158	-0.513013	0.494661
H286	H	1.156158	-0.013013	0.994661
H287	H	0.703551	-0.434237	0.595262
H288	H	1.203551	0.065763	1.095262
H289	H	0.828083	-0.418348	0.605896
H290	H	1.328083	0.081652	1.105896
H291	H	0.905218	-0.481238	0.515925
H292	H	1.405218	0.018762	1.015925
H293	H	0.982883	-1.062694	0.269703
H294	H	1.482883	-0.562694	0.769703
H295	H	0.836720	-1.062764	0.440268
H296	H	1.336720	-0.562764	0.940268
C297	C	0.825158	-0.934106	0.453668
C298	C	1.325158	-0.434106	0.953668
C299	C	0.753602	-0.943233	0.447560
C300	C	1.253602	-0.443233	0.947560
C301	C	0.709279	-0.907097	0.499263
C302	C	1.209279	-0.407097	0.999263
C303	C	0.736511	-0.861836	0.557075
C304	C	1.236511	-0.361836	1.057075
C305	C	0.808070	-0.852708	0.563185
C306	C	1.308070	-0.352708	1.063185
C307	C	0.852393	-0.888843	0.511482
C308	C	1.352393	-0.388843	1.011482
H309	H	0.733440	-0.976739	0.404763
H310	H	1.233440	-0.476739	0.904763
H311	H	0.656306	-0.913855	0.494739
H312	H	1.156306	-0.413855	0.994739
H313	H	0.703700	-0.835087	0.595348
H314	H	1.203700	-0.335087	1.095348
H315	H	0.828232	-0.819201	0.605983
H316	H	1.328232	-0.319201	1.105983
H317	H	0.905366	-0.882085	0.516006
H318	H	1.405366	-0.382085	1.016006
