data_functionalizedCrystal
_audit_creation_method	'MofGen! by Chris Wilmer'
_symmetry_space_group_name_H-M	'P1'
_symmetry_Int_Tables_number	1
_symmetry_cell_setting	triclinic
loop_
_symmetry_equiv_pos_as_xyz
  x,y,z
_cell_length_a	19.077105
_cell_length_b	10.686285
_cell_length_c	19.077569
_cell_angle_alpha	83.146359
_cell_angle_beta	85.299277
_cell_angle_gamma	83.162422
loop_
_atom_site_label
_atom_site_type_symbol
_atom_site_fract_x
_atom_site_fract_y
_atom_site_fract_z
Zn1	Zn	1.116552	-0.552740	-0.419179
Zn2	Zn	1.120843	-0.773201	-0.292247
Zn3	Zn	0.993935	-0.552758	-0.296574
Zn4	Zn	1.007059	-0.756730	-0.406043
O5	O	1.059597	-0.658857	-0.353511
O6	O	1.216056	-0.588870	-0.406029
O7	O	1.100312	-0.750860	-0.193887
O8	O	1.002913	-0.375129	-0.320147
O9	O	1.219208	-0.750842	-0.312772
O10	O	1.092999	-0.375115	-0.410224
O11	O	1.007073	-0.588901	-0.197066
O12	O	0.896741	-0.572930	-0.307408
O13	O	1.025280	-0.722769	-0.506720
O14	O	0.906383	-0.722787	-0.387834
O15	O	1.105724	-0.572899	-0.516371
O16	O	1.113037	-0.948643	-0.300034
O17	O	1.029440	-0.936542	-0.383639
C18	C	0.875910	-0.646074	-0.346666
C19	C	0.797329	-0.640635	-0.343753
C20	C	1.073148	-0.988650	-0.339957
C21	C	1.079011	-1.129739	-0.334185
C22	C	0.765453	-0.716229	-0.384182
C23	C	0.691618	-0.711101	-0.381449
C24	C	0.649660	-0.630385	-0.338283
C25	C	0.681541	-0.554782	-0.297853
C26	C	0.755375	-0.559904	-0.300590
C27	C	0.428300	-0.606679	-0.325618
C28	C	0.354461	-0.601566	-0.322883
C29	C	0.364542	-0.757885	-0.406480
C30	C	0.438377	-0.763005	-0.409211
C31	C	0.470252	-0.687397	-0.368783
N32	N	0.574189	-0.625144	-0.335487
N33	N	0.545722	-0.692632	-0.371583
C34	C	1.244002	-0.671691	-0.360383
C35	C	1.322585	-0.677161	-0.363312
C36	C	1.066488	-0.645995	-0.537915
C37	C	1.069424	-0.640513	-0.616497
C38	C	1.046013	-0.327777	-0.367134
C39	C	1.040225	-0.186691	-0.372939
C40	C	1.028921	-0.715962	-0.648392
C41	C	1.031686	-0.710812	-0.722228
C42	C	1.074950	-0.630206	-0.764169
C43	C	1.115457	-0.554755	-0.732270
C44	C	1.112696	-0.559912	-0.658435
C45	C	1.087703	-0.606420	-0.985533
C46	C	1.090460	-0.601266	-1.059373
C47	C	1.006689	-0.757326	-1.049326
C48	C	1.003928	-0.762470	-0.975490
C49	C	1.044438	-0.687024	-0.943597
N50	N	1.077775	-0.624937	-0.839642
N51	N	1.041616	-0.692300	-0.868125
C52	C	1.052771	-0.671581	-0.169829
C53	C	1.049957	-0.676714	-0.091267
H54	H	0.799610	-0.781962	-0.419330
O55	O	0.660769	-0.784676	-0.420734
C56	C	0.713633	-0.857005	-0.459426
H57	H	0.765354	-0.866972	-0.432239
H58	H	0.696695	-0.955043	-0.461961
H59	H	0.721598	-0.807491	-0.515364
H60	H	1.116699	-1.188924	-0.296582
O61	O	0.459290	-0.533108	-0.286453
C62	C	0.500161	-0.451406	-0.331725
H63	H	0.479686	-0.438290	-0.386906
H64	H	0.496023	-0.355486	-0.310290
H65	H	0.557822	-0.494372	-0.334588
O66	O	0.786371	-0.486335	-0.261422
C67	C	0.827242	-0.404633	-0.306694
H68	H	0.806769	-0.391522	-0.361876
H69	H	0.823102	-0.308712	-0.285261
H70	H	0.884904	-0.447598	-0.309554
H71	H	0.993681	-0.781584	-0.614249
O72	O	0.333655	-0.831246	-0.445860
C73	C	0.353201	-0.800002	-0.518150
H74	H	0.404862	-0.754830	-0.523647
H75	H	0.360682	-0.889662	-0.546099
H76	H	0.309866	-0.730252	-0.543158
H77	H	0.320300	-0.535822	-0.287737
O78	O	0.992269	-0.784141	-0.753097
C79	C	0.953500	-0.856407	-0.700246
H80	H	0.946953	-0.807918	-0.649661
H81	H	0.899149	-0.864573	-0.718949
H82	H	0.983047	-0.955164	-0.689391
O83	O	0.640683	-0.476476	-0.255938
C84	C	0.568678	-0.488139	-0.262204
H85	H	0.563489	-0.583858	-0.280862
H86	H	0.538267	-0.481118	-0.208576
H87	H	0.546054	-0.408875	-0.302240
H88	H	1.120690	-0.544987	-0.959574
H89	H	0.968709	-0.828129	-0.941345
O90	O	0.995364	-1.116044	-0.417877
C91	C	1.034133	-1.038857	-0.468166
H92	H	1.091617	-1.082365	-0.473036
H93	H	1.010485	-1.031653	-0.521665
H94	H	1.031649	-0.940139	-0.450462
O95	O	0.479201	-0.841232	-0.451195
C96	C	0.520646	-0.768857	-0.501483
H97	H	0.526819	-0.675097	-0.480999
H98	H	0.575046	-0.823530	-0.510716
H99	H	0.493588	-0.749420	-0.553399
H100	H	0.973708	-0.818750	-1.075301
H101	H	1.125688	-0.535615	-1.093520
H102	H	1.150688	-0.489129	-0.766424
H103	H	1.145678	-0.498473	-0.632468
