data_functionalizedCrystal
_audit_creation_method	'MofGen! by Chris Wilmer'
_symmetry_space_group_name_H-M	'P1'
_symmetry_Int_Tables_number	1
_symmetry_cell_setting	triclinic
loop_
_symmetry_equiv_pos_as_xyz
  x,y,z
_cell_length_a	11.026607
_cell_length_b	23.532407
_cell_length_c	9.482900
_cell_angle_alpha	99.270833
_cell_angle_beta	78.636152
_cell_angle_gamma	95.717347
loop_
_atom_site_label
_atom_site_type_symbol
_atom_site_fract_x
_atom_site_fract_y
_atom_site_fract_z
O1	O	1.626299	0.231212	-0.120952
O2	O	1.273319	0.204090	-0.120948
O3	O	1.460449	0.135841	-0.120924
O4	O	1.439169	0.299462	-0.120976
O5	O	1.422438	0.149775	0.120864
O6	O	1.235308	0.218025	0.120840
O7	O	1.588288	0.245146	0.120835
Cu8	Cu	1.408327	0.232858	0.142915
Cu9	Cu	1.453280	0.216379	-0.143027
O10	O	1.401158	0.313396	0.120811
C11	C	1.209163	0.206054	-0.000053
C12	C	1.074628	0.191139	-0.000050
C13	C	1.000328	0.232323	-0.000064
C14	C	0.861279	0.216908	-0.000061
C15	C	1.440901	0.121535	-0.000026
C16	C	1.439269	0.058147	-0.000015
C17	C	1.539801	-0.330388	-0.000096
C18	C	1.538288	-0.389948	-0.000107
O19	O	1.631479	-0.416896	-0.000162
N20	N	1.427037	-0.424275	-0.000104
C21	C	1.317293	-0.399040	-0.000106
O22	O	1.222527	-0.433707	-0.000106
C23	C	1.318809	-0.339482	-0.000105
C24	C	1.430065	-0.305157	-0.000093
C25	C	1.651048	-0.296064	-0.000085
C26	C	1.652560	-0.236507	-0.000072
C27	C	1.542824	-0.211276	-0.000068
C28	C	1.431576	-0.245601	-0.000079
C29	C	1.209068	-0.314249	-0.000117
C30	C	1.210593	-0.254686	-0.000117
C31	C	1.321849	-0.220361	-0.000105
C32	C	1.323351	-0.160813	-0.000062
N33	N	1.434603	-0.126486	-0.000065
C34	C	1.544339	-0.151718	-0.000068
C35	C	1.314120	-0.524117	-0.000109
C36	C	1.312602	-0.583674	-0.000100
C37	C	1.533598	-0.574578	-0.000104
C38	C	1.535113	-0.515019	-0.000103
C39	C	1.425371	-0.489790	-0.000112
C40	C	1.547504	-0.026646	-0.000038
C41	C	1.549005	0.032916	-0.000018
C42	C	1.328011	0.023814	-0.000022
C43	C	1.326508	-0.035742	-0.000034
C44	C	1.436266	-0.060970	-0.000047
O45	O	1.230210	-0.133827	-0.000013
O46	O	1.639093	-0.117045	-0.000087
C47	C	1.652445	0.243183	-0.000063
C48	C	1.786981	0.258098	-0.000075
C49	C	1.420707	0.327702	-0.000090
C50	C	1.422340	0.391089	-0.000110
N51	N	1.376719	0.244449	0.344031
N52	N	1.484898	0.204785	-0.344143
C53	C	1.443948	0.219794	0.416239
C54	C	1.417658	0.229443	0.583653
H55	H	1.639606	0.060862	-0.000004
H56	H	1.636880	-0.047179	-0.000054
O57	O	0.839052	0.319925	-0.000100
H58	H	0.940096	0.322332	-0.000110
O59	O	0.809206	0.155080	-0.000041
H60	H	0.708165	0.152674	-0.000050
O61	O	1.545941	0.182354	0.333950
H62	H	1.615566	0.208295	0.264563
H63	H	1.340628	0.257694	0.645767
H64	H	1.743157	-0.208565	-0.000068
H65	H	1.035303	0.144465	-0.000072
H66	H	1.625708	-0.487075	-0.000094
O67	O	1.586924	0.167355	0.573600
H68	H	1.591568	0.165649	0.455015
O69	O	1.769413	-0.323272	-0.000068
H70	H	1.847009	-0.289388	-0.000046
H71	H	1.622952	-0.595132	-0.000112
H72	H	1.222002	-0.611615	-0.000084
O73	O	1.089065	-0.351259	-0.000129
H74	H	1.098580	-0.384286	-0.098677
O75	O	1.195738	-0.496907	-0.000078
H76	H	1.157941	-0.516197	-0.098613
O77	O	1.052407	0.294147	-0.000083
H78	H	1.153450	0.296552	-0.000091
O79	O	1.092223	-0.227472	-0.000109
H80	H	1.014613	-0.261349	-0.000103
O81	O	1.206515	-0.072769	-0.000042
H82	H	1.130465	-0.045216	-0.000044
O83	O	1.274695	0.281875	0.426296
H84	H	1.270064	0.283585	0.544880
O85	O	1.209654	0.051033	-0.000020
H86	H	1.229410	0.098213	-0.000026
