data_functionalizedCrystal
_audit_creation_method	'MofGen! by Chris Wilmer'
_symmetry_space_group_name_H-M	'P1'
_symmetry_Int_Tables_number	1
_symmetry_cell_setting	triclinic
loop_
_symmetry_equiv_pos_as_xyz
  x,y,z
_cell_length_a	10.654550
_cell_length_b	10.489741
_cell_length_c	9.130313
_cell_angle_alpha	89.999004
_cell_angle_beta	89.996220
_cell_angle_gamma	84.512038
loop_
_atom_site_label
_atom_site_type_symbol
_atom_site_fract_x
_atom_site_fract_y
_atom_site_fract_z
O1	O	1.667918	0.179156	-0.121919
O2	O	1.302447	0.196226	-0.121895
O3	O	1.493499	0.002089	-0.121899
O4	O	1.476867	0.373293	-0.121915
O5	O	1.493497	0.002094	0.121700
O6	O	1.302445	0.196231	0.121703
O7	O	1.667916	0.179161	0.121680
Cu8	Cu	1.485180	0.187697	0.143934
Cu9	Cu	1.485183	0.187690	-0.144150
O10	O	1.476864	0.373298	0.121683
C11	C	1.255648	0.194975	-0.000093
C12	C	1.116203	0.191225	-0.000084
C13	C	1.036771	0.305530	-0.000110
C14	C	0.905748	0.301999	-0.000135
C15	C	0.933603	0.069849	-0.000114
C16	C	1.064623	0.073381	-0.000078
C17	C	1.020688	0.439560	-0.000129
C18	C	0.889665	0.436029	-0.000154
C19	C	1.492241	-0.045439	-0.000100
C20	C	1.488483	-0.187067	-0.000103
C21	C	1.366923	-0.255148	-0.000106
C22	C	1.424346	-0.347296	0.119997
C23	C	1.424377	-0.347276	-0.120172
C24	C	1.545956	-0.277349	0.120099
C25	C	1.545970	-0.277320	-0.120178
C26	C	1.603481	-0.369440	-0.000045
C27	C	1.714715	0.180412	-0.000126
C28	C	1.854160	0.184162	-0.000145
C29	C	1.478122	0.420826	-0.000118
C30	C	1.481880	0.562454	-0.000126
N31	N	1.485187	0.187700	0.346557
N32	N	1.485186	0.187677	-0.346772
C33	C	1.569807	0.101766	0.423207
C34	C	1.569803	0.101751	0.576544
C35	C	1.400557	0.273615	0.576567
C36	C	1.400555	0.273623	0.423232
C37	C	1.667524	0.002545	0.423195
C38	C	1.667520	0.002530	0.576532
H39	H	0.844012	0.476537	0.105012
H40	H	1.331651	0.343570	0.639012
H41	H	1.758722	0.033613	0.375629
N42	N	1.309274	0.366308	0.340575
H43	H	1.357760	0.423254	0.276953
H44	H	1.253253	0.316944	0.277046
N45	N	0.877969	-0.057250	-0.000097
H46	H	0.782915	-0.042145	-0.000116
H47	H	0.906970	-0.107330	-0.090389
N48	N	1.735979	-0.434996	0.000025
H49	H	1.782275	-0.408425	-0.089816
H50	H	1.781612	-0.409558	0.090841
H51	H	1.056364	0.482235	-0.105303
N52	N	0.834403	0.502915	-0.135196
H53	H	0.904247	0.535302	-0.195447
H54	H	0.789162	0.440705	-0.195346
H55	H	1.597363	-0.246302	-0.221728
N56	N	1.627086	-0.120206	0.639541
H57	H	1.607549	-0.179498	0.557205
H58	H	1.697342	-0.162892	0.701813
N59	N	1.356228	-0.388296	-0.254664
H60	H	1.266875	-0.346312	-0.254543
H61	H	1.401338	-0.361612	-0.345312
H62	H	1.764042	0.024385	0.618141
H63	H	1.372910	-0.378281	0.221542
N64	N	1.150299	-0.049903	-0.000012
H65	H	1.097738	-0.125088	-0.000012
H66	H	1.205298	-0.053515	-0.090296
N67	N	1.059586	0.509006	0.134897
H68	H	0.982442	0.537442	0.195136
H69	H	1.119412	0.449639	0.195066
N70	N	1.639065	-0.127321	0.368059
H71	H	1.553561	-0.146754	0.404898
H72	H	1.639129	-0.127276	0.257443
N73	N	1.614003	-0.236529	0.254759
H74	H	1.568419	-0.262572	0.345359
H75	H	1.703088	-0.279201	0.255057
N76	N	1.234540	-0.189304	0.000049
H77	H	1.188127	-0.215802	-0.089730
H78	H	1.188892	-0.214598	0.090926
