data_functionalizedCrystal
_audit_creation_method	'MofGen! by Chris Wilmer'
_symmetry_space_group_name_H-M	'P1'
_symmetry_Int_Tables_number	1
_symmetry_cell_setting	triclinic
loop_
_symmetry_equiv_pos_as_xyz
  x,y,z
_cell_length_a	15.995343
_cell_length_b	15.072220
_cell_length_c	15.995292
_cell_angle_alpha	89.997939
_cell_angle_beta	83.478900
_cell_angle_gamma	90.008177
loop_
_atom_site_label
_atom_site_type_symbol
_atom_site_fract_x
_atom_site_fract_y
_atom_site_fract_z
O1	O	1.110977	0.073687	0.107893
O2	O	0.867198	0.073708	0.121228
O3	O	0.995777	0.073698	-0.007331
O4	O	0.982399	0.073697	0.236451
O5	O	0.995745	-0.073867	-0.007324
O6	O	0.867167	-0.073857	0.121235
O7	O	1.110946	-0.073878	0.107900
Zn8	Zn	0.989051	-0.097297	0.114568
Zn9	Zn	0.989093	0.097127	0.114559
O10	O	0.982367	-0.073869	0.236459
C11	C	0.835988	-0.000072	0.120681
C12	C	0.743037	-0.000064	0.119032
N13	N	0.989029	-0.229986	0.114574
C14	C	0.572852	-0.000076	0.116038
C15	C	0.549525	-0.000075	0.023238
C16	C	0.452848	-0.000415	0.021493
C17	C	0.405292	-0.000087	0.113089
C18	C	0.434356	-0.084186	0.159755
C19	C	0.531148	-0.084252	0.160855
C20	C	0.531095	0.083563	0.162206
C21	C	0.434601	0.084664	0.158780
C22	C	0.310595	-0.000096	0.111428
C23	C	0.667549	-0.000073	0.117702
C24	C	0.989091	-0.589187	0.114556
C25	C	0.920060	-0.551575	0.183114
C26	C	0.920219	-0.448749	0.183365
C27	C	0.989059	-0.410983	0.114565
C28	C	1.076421	-0.448282	0.133645
C29	C	1.076034	-0.551140	0.134132
C30	C	0.971540	-0.551285	0.026714
C31	C	0.969535	-0.448421	0.027300
C32	C	0.989047	-0.310270	0.114569
C33	C	0.989110	-0.689901	0.114554
C34	C	1.142156	-0.000096	0.108447
C35	C	1.235107	-0.000098	0.110096
C36	C	0.995217	-0.000082	-0.038523
C37	C	0.993584	-0.000075	-0.131476
N38	N	0.989122	0.229815	0.114547
C39	C	0.987583	-0.000083	-0.469214
C40	C	1.080388	-0.000420	-0.445904
C41	C	1.082152	-0.000085	-0.349229
C42	C	0.990561	-0.000080	-0.301658
C43	C	0.944181	0.084188	-0.330762
C44	C	0.943064	0.084256	-0.427553
C45	C	0.941133	-0.083553	-0.427402
C46	C	0.944572	-0.084664	-0.330909
C47	C	0.992239	-0.000075	-0.206962
C48	C	0.985902	-0.000082	-0.563910
C49	C	0.982927	-0.000086	0.267650
C50	C	0.984560	-0.000087	0.360603
H51	H	0.433849	0.059859	-0.015036
H52	H	0.545094	0.084374	0.230512
H53	H	1.116146	-0.060853	-0.473900
H54	H	0.577553	0.060224	-0.012734
Br55	Br	0.996649	0.189236	-0.472260
H56	H	0.970345	-0.147428	-0.455488
Br57	Br	0.829657	0.090642	-0.451807
Br58	Br	0.400861	-0.188901	0.106402
Br59	Br	0.831847	0.089425	-0.277644
Br60	Br	0.833142	-0.093143	-0.275957
H61	H	0.416064	0.146882	0.124796
H62	H	0.976415	0.146896	-0.310706
H63	H	1.129015	-0.423817	0.085039
H64	H	0.578504	-0.060294	-0.012143
H65	H	0.978343	-0.147005	-0.312342
Br66	Br	1.102826	-0.405337	0.239201
Br67	Br	0.379658	0.093560	0.270181
H68	H	0.402495	-0.087078	0.227167
H69	H	1.129005	-0.576019	0.086166
H70	H	0.872821	-0.084117	-0.441390
H71	H	0.855281	-0.423533	0.171997
H72	H	0.434405	-0.061054	-0.014859
Br73	Br	0.938487	-0.594622	0.291156
Br74	Br	1.101817	-0.591119	0.240905
H75	H	0.557927	-0.147356	0.128921
Br76	Br	0.811467	-0.592810	0.164467
H77	H	0.931424	-0.424137	0.248550
Br78	Br	0.555420	-0.090235	0.274277
H79	H	0.909221	-0.577270	0.008367
Br80	Br	0.862423	-0.407794	0.003163
Br81	Br	1.143094	0.100765	-0.318552
Br82	Br	0.578244	0.189844	0.113402
H83	H	1.021881	-0.575607	-0.024305
Br84	Br	1.142670	-0.100781	-0.317508
Br85	Br	1.047903	-0.405592	-0.061720
Br86	Br	1.139705	0.099727	-0.494274
