data_functionalizedCrystal
_audit_creation_method	'MofGen! by Chris Wilmer'
_symmetry_space_group_name_H-M	'P1'
_symmetry_Int_Tables_number	1
_symmetry_cell_setting	triclinic
loop_
_symmetry_equiv_pos_as_xyz
  x,y,z
_cell_length_a	27.731993
_cell_length_b	27.732048
_cell_length_c	16.098538
_cell_angle_alpha	92.695138
_cell_angle_beta	87.296179
_cell_angle_gamma	82.631525
loop_
_atom_site_label
_atom_site_type_symbol
_atom_site_fract_x
_atom_site_fract_y
_atom_site_fract_z
O1	O	0.643118	0.055221	-0.069040
O2	O	0.976452	0.388555	0.264293
O3	O	1.309785	0.721888	0.597627
O4	O	0.502323	0.063993	-0.069092
O5	O	0.835656	0.397326	0.264241
O6	O	1.168989	0.730659	0.597575
O7	O	0.577093	-0.010790	-0.069049
O8	O	0.910426	0.322543	0.264285
O9	O	1.243759	0.655877	0.597618
O10	O	0.568348	0.130004	-0.069083
O11	O	0.901682	0.463337	0.264250
O12	O	1.235015	0.796671	0.597583
O13	O	0.572725	-0.006439	0.069462
O14	O	0.906059	0.326895	0.402795
O15	O	1.239392	0.660228	0.736129
O16	O	0.497955	0.068344	0.069418
O17	O	0.831288	0.401678	0.402752
O18	O	1.164622	0.735011	0.736085
O19	O	0.638751	0.059573	0.069470
O20	O	0.972084	0.392906	0.402804
O21	O	1.305417	0.726239	0.736137
Zn22	Zn	0.567659	0.064649	0.091436
Zn23	Zn	0.900993	0.397983	0.424769
Zn24	Zn	1.234326	0.731316	0.758103
Zn25	Zn	0.573414	0.058916	-0.091058
Zn26	Zn	0.906747	0.392249	0.242276
Zn27	Zn	1.240081	0.725583	0.575609
O28	O	0.563981	0.134356	0.069427
O29	O	0.897314	0.467689	0.402760
O30	O	1.230647	0.801022	0.736094
C31	C	0.482132	0.065988	0.000157
C32	C	0.815465	0.399322	0.333490
C33	C	1.148798	0.732655	0.666823
C34	C	0.428476	0.065445	0.000138
C35	C	0.761809	0.398779	0.333471
C36	C	1.095143	0.732112	0.666804
C37	C	0.047695	0.059144	-0.075323
C38	C	0.381029	0.392477	0.258010
C39	C	0.714362	0.725811	0.591344
C40	C	0.249353	0.061210	-0.075346
C41	C	0.582687	0.394544	0.257987
C42	C	0.916020	0.727877	0.591320
O43	O	0.277451	0.059441	-0.139559
O44	O	0.610785	0.392774	0.193774
O45	O	0.944118	0.726108	0.527107
N46	N	0.272193	0.063841	0.000154
N47	N	0.605526	0.397174	0.333487
N48	N	0.938860	0.730508	0.666821
C49	C	0.244615	0.065952	0.075665
C50	C	0.577949	0.399285	0.408999
C51	C	0.911282	0.732618	0.742332
O52	O	0.268669	0.068232	0.139882
O53	O	0.602003	0.401565	0.473216
O54	O	0.935336	0.734898	0.806549
C55	C	0.042958	0.063882	0.075688
C56	C	0.376292	0.397215	0.409021
C57	C	0.709625	0.730549	0.742354
C58	C	0.020121	0.061256	0.000182
C59	C	0.353454	0.394590	0.333516
C60	C	0.686788	0.727923	0.666849
C61	C	0.024858	0.056518	-0.150822
C62	C	0.358191	0.389851	0.182511
C63	C	0.691524	0.723185	0.515845
C64	C	-0.025554	0.056004	-0.150816
C65	C	0.307779	0.389337	0.182518
C66	C	0.641112	0.722671	0.515851
C67	C	-0.053129	0.058116	-0.075310
C68	C	0.280205	0.391450	0.258023
C69	C	0.613538	0.724783	0.591357
C70	C	-0.030291	0.060742	0.000189
C71	C	0.303042	0.394076	0.333522
C72	C	0.636376	0.727409	0.666856
C73	C	0.015382	0.065989	0.151198
C74	C	0.348715	0.399323	0.484531
C75	C	0.682049	0.732656	0.817865
C76	C	-0.035035	0.065471	0.151197
C77	C	0.298298	0.398804	0.484530
C78	C	0.631632	0.732137	0.817864
C79	C	-0.057872	0.062845	0.075692
C80	C	0.275461	0.396178	0.409025
C81	C	0.608794	0.729511	0.742358
C82	C	-0.108277	0.062341	0.075701
C83	C	0.225056	0.395674	0.409034
C84	C	0.558390	0.729007	0.742368
N85	N	-0.131117	0.059710	0.000201
N86	N	0.202217	0.393044	0.333534
N87	N	0.535550	0.726377	0.666868
C88	C	-0.103542	0.057598	-0.075305
C89	C	0.229791	0.390931	0.258029
C90	C	0.563124	0.724265	0.591362
C91	C	0.350488	0.067039	0.075648
C92	C	0.683821	0.400373	0.408982
C93	C	1.017155	0.733706	0.742315
C94	C	0.400902	0.067558	0.075643
C95	C	0.734235	0.400891	0.408976
C96	C	1.067568	0.734224	0.742310
C97	C	0.405637	0.062815	-0.075369
C98	C	0.738970	0.396149	0.257964
C99	C	1.072303	0.729482	0.591298
C100	C	0.355221	0.062300	-0.075363
C101	C	0.688555	0.395634	0.257971
C102	C	1.021888	0.728967	0.591304
C103	C	0.327648	0.064409	0.000148
C104	C	0.660982	0.397742	0.333482
C105	C	0.994315	0.731075	0.666815
C106	C	-0.209411	0.056519	-0.075285
C107	C	0.123922	0.389853	0.258048
C108	C	0.457255	0.723186	0.591381
C109	C	-0.259828	0.056008	-0.075272
C110	C	0.073505	0.389341	0.258061
C111	C	0.406839	0.722674	0.591395
C112	C	-0.264558	0.060748	0.075739
C113	C	0.068775	0.394081	0.409073
C114	C	0.402108	0.727414	0.742406
C115	C	-0.214146	0.061262	0.075727
C116	C	0.119187	0.394595	0.409060
C117	C	0.452521	0.727929	0.742393
C118	C	-0.186573	0.059146	0.000208
C119	C	0.146760	0.392479	0.333541
C120	C	0.480093	0.725813	0.666874
O121	O	-0.136404	0.064103	0.139881
O122	O	0.196929	0.397437	0.473214
O123	O	0.530262	0.730770	0.806547
O124	O	-0.127604	0.055308	-0.139512
O125	O	0.205729	0.388641	0.193821
O126	O	0.539063	0.721974	0.527154
C127	C	0.098107	0.059658	-0.075330
C128	C	0.431441	0.392991	0.258004
C129	C	0.764774	0.726325	0.591337
C130	C	0.120945	0.062284	0.000169
C131	C	0.454278	0.395617	0.333503
C132	C	0.787611	0.728951	0.666836
C133	C	0.093371	0.064396	0.075675
C134	C	0.426704	0.397730	0.409008
C135	C	0.760037	0.731063	0.742342
C136	C	0.171359	0.062802	0.000164
C137	C	0.504692	0.396136	0.333497
C138	C	0.838025	0.729469	0.666831
C139	C	0.198933	0.060690	-0.075342
C140	C	0.532266	0.394023	0.257992
C141	C	0.865600	0.727357	0.591325
C142	C	0.176093	0.058060	-0.150842
C143	C	0.509427	0.391393	0.182492
C144	C	0.842760	0.724726	0.515825
C145	C	0.125681	0.057546	-0.150835
C146	C	0.459015	0.390879	0.182498
C147	C	0.792348	0.724212	0.515831
C148	C	0.116210	0.067027	0.151175
C149	C	0.449543	0.400360	0.484509
C150	C	0.782877	0.733693	0.817842
C151	C	0.166622	0.067541	0.151162
C152	C	0.499955	0.400874	0.484496
C153	C	0.833289	0.734208	0.817829
C154	C	0.194196	0.065429	0.075657
C155	C	0.527530	0.398762	0.408990
C156	C	0.860863	0.732095	0.742324
C157	C	0.574725	-0.026621	0.000209
C158	C	0.908059	0.306712	0.333542
C159	C	1.241392	0.640046	0.666876
C160	C	0.574172	-0.080276	0.000216
C161	C	0.907506	0.253058	0.333549
C162	C	1.240839	0.586391	0.666882
C163	C	0.614878	-0.419100	0.000188
C164	C	0.948211	-0.085766	0.333521
C165	C	1.281545	0.247567	0.666855
C166	C	0.612827	-0.620759	0.000175
C167	C	0.946161	-0.287426	0.333509
C168	C	1.279494	0.045908	0.666842
O169	O	0.650050	-0.652023	0.000153
O170	O	0.983383	-0.318689	0.333486
O171	O	1.316717	0.014644	0.666819
N172	N	0.568492	-0.639875	0.000160
N173	N	0.901825	-0.306541	0.333493
N174	N	1.235158	0.026792	0.666827
C175	C	0.524665	-0.608572	0.000142
C176	C	0.857999	-0.275239	0.333475
C177	C	1.191332	0.058095	0.666809
O178	O	0.486908	-0.629458	0.000120
O179	O	0.820241	-0.296125	0.333453
O180	O	1.153575	0.037208	0.666786
C181	C	0.526717	-0.406914	0.000148
C182	C	0.860050	-0.073580	0.333482
C183	C	1.193383	0.259753	0.666815
C184	C	0.571055	-0.387801	0.000172
C185	C	0.904389	-0.054467	0.333506
C186	C	1.237722	0.278866	0.666839
C187	C	0.659213	-0.399986	0.000211
C188	C	0.992546	-0.066653	0.333544
C189	C	1.325880	0.266680	0.666878
C190	C	0.659725	-0.349574	0.000219
C191	C	0.993058	-0.016241	0.333552
C192	C	1.326392	0.317093	0.666885
C193	C	0.615902	-0.318275	0.000203
C194	C	0.949236	0.015058	0.333536
C195	C	1.282569	0.348391	0.666870
C196	C	0.571567	-0.337389	0.000180
C197	C	0.904901	-0.004055	0.333513
C198	C	1.238234	0.329278	0.666847
C199	C	0.482891	-0.375612	0.000124
C200	C	0.816225	-0.042279	0.333458
C201	C	1.149558	0.291055	0.666791
C202	C	0.483408	-0.325195	0.000124
C203	C	0.816741	0.008138	0.333457
C204	C	1.150075	0.341472	0.666790
C205	C	0.527747	-0.306082	0.000148
C206	C	0.861080	0.027251	0.333481
C207	C	1.194413	0.360585	0.666815
C208	C	0.528256	-0.255678	0.000172
C209	C	0.861590	0.077655	0.333505
C210	C	1.194923	0.410989	0.666839
N211	N	0.572592	-0.236562	0.000188
N212	N	0.905926	0.096771	0.333521
N213	N	1.239259	0.430104	0.666854
C214	C	0.616415	-0.267861	0.000203
C215	C	0.949749	0.065472	0.333537
C216	C	1.283082	0.398806	0.666870
C217	C	0.523591	-0.714446	0.000140
C218	C	0.856925	-0.381113	0.333473
C219	C	1.190258	-0.047779	0.666807
C220	C	0.523078	-0.764860	0.000140
C221	C	0.856412	-0.431527	0.333473
C222	C	1.189745	-0.098194	0.666807
C223	C	0.611241	-0.777044	0.000172
C224	C	0.944574	-0.443711	0.333505
C225	C	1.277907	-0.110377	0.666839
C226	C	0.611753	-0.726629	0.000178
C227	C	0.945086	-0.393295	0.333511
C228	C	1.278420	-0.059962	0.666845
C229	C	0.567927	-0.695330	0.000156
C230	C	0.901261	-0.361997	0.333489
C231	C	1.234594	-0.028664	0.666822
C232	C	0.617487	-0.161992	0.000220
C233	C	0.950821	0.171342	0.333553
C234	C	1.284154	0.504675	0.666887
C235	C	0.617995	-0.111574	0.000231
C236	C	0.951329	0.221759	0.333564
C237	C	1.284662	0.555092	0.666898
C238	C	0.529833	-0.099395	0.000195
C239	C	0.863167	0.233938	0.333528
C240	C	1.196500	0.567271	0.666861
C241	C	0.529325	-0.149808	0.000188
C242	C	0.862658	0.183525	0.333521
C243	C	1.195991	0.516859	0.666855
C244	C	0.573156	-0.181105	0.000198
C245	C	0.906489	0.152228	0.333531
C246	C	1.239822	0.485561	0.666864
O247	O	0.491054	-0.224386	0.000185
O248	O	0.824388	0.108947	0.333519
O249	O	1.157721	0.442281	0.666852
O250	O	0.654167	-0.246966	0.000207
O251	O	0.987501	0.086368	0.333540
O252	O	1.320834	0.419701	0.666874
C253	C	0.614366	-0.469512	0.000180
C254	C	0.947699	-0.136178	0.333514
C255	C	1.281033	0.197155	0.666847
C256	C	0.570031	-0.488625	0.000157
C257	C	0.903364	-0.155292	0.333490
C258	C	1.236698	0.178042	0.666824
C259	C	0.526208	-0.457326	0.000142
C260	C	0.859542	-0.123993	0.333475
C261	C	1.192875	0.209340	0.666808
C262	C	0.569518	-0.539039	0.000157
C263	C	0.902851	-0.205706	0.333490
C264	C	1.236185	0.127627	0.666824
C265	C	0.613341	-0.570338	0.000172
C266	C	0.946674	-0.237005	0.333506
C267	C	1.280008	0.096329	0.666839
C268	C	0.657677	-0.551222	0.000188
C269	C	0.991010	-0.217889	0.333521
C270	C	1.324344	0.115444	0.666855
C271	C	0.658189	-0.500810	0.000196
C272	C	0.991522	-0.167477	0.333529
C273	C	1.324856	0.165856	0.666862
C274	C	0.481872	-0.476442	0.000126
C275	C	0.815206	-0.143108	0.333459
C276	C	1.148539	0.190225	0.666793
C277	C	0.481364	-0.526854	0.000119
C278	C	0.814697	-0.193521	0.333453
C279	C	1.148030	0.139812	0.666786
C280	C	0.525187	-0.558153	0.000135
C281	C	0.858520	-0.224820	0.333468
C282	C	1.191853	0.108514	0.666801
C283	C	0.658942	0.057577	0.000220
C284	C	0.992275	0.390911	0.333553
C285	C	1.325608	0.724244	0.666887
C286	C	0.712598	0.058120	0.000234
C287	C	1.045931	0.391453	0.333567
C288	C	1.379264	0.724787	0.666900
C289	C	0.566348	0.150187	0.000168
C290	C	0.899681	0.483520	0.333501
C291	C	1.233015	0.816853	0.666834
C292	C	0.566901	0.203841	0.000156
C293	C	0.900235	0.537174	0.333489
C294	C	1.233568	0.870508	0.666822
N295	N	0.563736	0.068562	0.215983
N296	N	0.897069	0.401895	0.549316
N297	N	1.230402	0.735229	0.882649
N298	N	0.577342	0.055000	-0.215604
N299	N	0.910675	0.388333	0.117729
N300	N	1.244008	0.721667	0.451062
C301	C	0.595483	0.036832	0.259586
C302	C	0.928816	0.370165	0.592920
C303	C	1.262149	0.703499	0.926253
C304	C	0.592742	0.039574	0.346774
C305	C	0.926076	0.372907	0.680107
C306	C	1.259409	0.706240	1.013440
C307	C	0.558257	0.074047	0.390356
C308	C	0.891590	0.407381	0.723689
C309	C	1.224924	0.740714	1.057023
C310	C	0.526507	0.105779	0.346746
C311	C	0.859840	0.439112	0.680080
C312	C	1.193173	0.772445	1.013413
C313	C	0.529245	0.103034	0.259561
C314	C	0.862578	0.436368	0.592894
C315	C	1.195912	0.769701	0.926227
C316	C	0.548330	0.083987	0.653600
C317	C	0.881663	0.417320	0.986933
C318	C	1.214996	0.750654	1.320267
C319	C	0.545595	0.086730	0.740792
C320	C	0.878928	0.420063	1.074125
C321	C	1.212261	0.753396	1.407459
C322	C	0.611830	0.020524	0.740813
C323	C	0.945163	0.353857	1.074147
C324	C	1.278497	0.687190	1.407480
C325	C	0.614567	0.017785	0.653626
C326	C	0.947901	0.351118	0.986959
C327	C	1.281234	0.684451	1.320293
C328	C	0.582815	0.049514	0.610024
C329	C	0.916149	0.382847	0.943357
C330	C	1.249482	0.716181	1.276691
C331	C	0.555456	0.076852	0.479475
C332	C	0.888789	0.410185	0.812809
C333	C	1.222123	0.743518	1.146142
C334	C	0.585614	0.046707	0.520906
C335	C	0.918948	0.380041	0.854239
C336	C	1.252281	0.713374	1.187573
H337	H	0.328042	0.068755	0.137142
H338	H	0.661376	0.402088	0.470475
H339	H	0.994709	0.735421	0.803809
Br340	Br	0.062271	0.053649	-0.253308
Br341	Br	0.395604	0.386983	0.080025
Br342	Br	0.728938	0.720316	0.413358
H343	H	0.647857	-0.711071	0.000197
H344	H	0.981191	-0.377737	0.333530
H345	H	1.314524	-0.044404	0.666864
H346	H	0.654102	-0.096016	0.000253
H347	H	0.987436	0.237317	0.333586
H348	H	1.320769	0.570651	0.666919
Br349	Br	0.422714	-0.401538	0.000088
Br350	Br	0.756047	-0.068204	0.333422
Br351	Br	1.089380	0.265129	0.666755
Br352	Br	-0.290819	0.052447	-0.177750
Br353	Br	0.042514	0.385780	0.155583
Br354	Br	0.375848	0.719113	0.488916
Br355	Br	0.078795	0.069898	0.253658
Br356	Br	0.412128	0.403232	0.586991
Br357	Br	0.745461	0.736565	0.920325
H358	H	0.487901	-0.688967	0.000122
H359	H	0.821234	-0.355633	0.333455
H360	H	1.154568	-0.022300	0.666789
Br361	Br	-0.171999	0.053648	-0.177776
Br362	Br	0.161334	0.386981	0.155557
Br363	Br	0.494668	0.720314	0.488891
H364	H	-0.044144	0.053864	-0.212300
H365	H	0.289190	0.387197	0.121034
H366	H	0.622523	0.720530	0.454367
H367	H	0.447719	-0.299714	0.000104
H368	H	0.781052	0.033620	0.333438
H369	H	1.114386	0.366953	0.666771
Br370	Br	0.718695	-0.442455	0.000231
Br371	Br	1.052029	-0.109121	0.333565
Br372	Br	1.385362	0.224212	0.666898
Br373	Br	-0.072452	0.068327	0.253682
Br374	Br	0.260881	0.401661	0.587015
Br375	Br	0.594215	0.734994	0.920349
H376	H	0.493220	-0.165369	0.000191
H377	H	0.826553	0.167964	0.333525
H378	H	1.159887	0.501297	0.666858
H379	H	0.486973	-0.780417	0.000135
H380	H	0.820306	-0.447083	0.333468
H381	H	1.153640	-0.113750	0.666802
H382	H	0.637680	-0.005309	0.776322
H383	H	0.971014	0.328024	1.109655
H384	H	1.304347	0.661357	1.442989
H385	H	0.646923	-0.802536	0.000185
H386	H	0.980256	-0.469203	0.333518
H387	H	1.313590	-0.135870	0.666852
Br388	Br	0.642290	-0.009953	0.200448
Br389	Br	0.975623	0.323380	0.533781
Br390	Br	1.308957	0.656714	0.867115
Br391	Br	0.324233	0.058737	-0.177837
Br392	Br	0.657566	0.392070	0.155496
Br393	Br	0.990900	0.725403	0.488830
H394	H	0.503393	0.128872	0.224059
H395	H	0.836726	0.462205	0.557393
H396	H	1.170059	0.795538	0.890726
H397	H	0.107092	0.055408	-0.212319
H398	H	0.440425	0.388741	0.121014
H399	H	0.773759	0.722074	0.454347
H400	H	0.198553	0.056342	-0.212321
H401	H	0.531886	0.389676	0.121012
H402	H	0.865220	0.723009	0.454346
H403	H	0.494154	-0.073903	0.000185
H404	H	0.827487	0.259431	0.333518
H405	H	1.160820	0.592764	0.666852
H406	H	0.517511	0.114804	0.776273
H407	H	0.850844	0.448138	1.109606
H408	H	1.184178	0.781471	1.442939
Br409	Br	-0.183152	0.064833	0.178198
Br410	Br	0.150181	0.398167	0.511532
Br411	Br	0.483514	0.731500	0.844865
Br412	Br	0.719903	-0.323644	0.000228
Br413	Br	1.053236	0.009689	0.333561
Br414	Br	1.386569	0.343022	0.666894
H415	H	0.613691	0.018637	0.485419
H416	H	0.947024	0.351970	0.818752
H417	H	1.280357	0.685303	1.152086
H418	H	-0.287018	0.062469	0.137214
H419	H	0.046315	0.395803	0.470547
H420	H	0.379648	0.729136	0.803881
Br421	Br	0.505240	0.127048	0.594431
Br422	Br	0.838574	0.460381	0.927764
Br423	Br	1.171907	0.793714	1.261097
H424	H	0.694294	-0.485254	0.000215
H425	H	1.027627	-0.151921	0.333548
H426	H	1.360961	0.181413	0.666882
H427	H	0.498426	0.133846	0.382236
H428	H	0.831759	0.467180	0.715569
H429	H	1.165092	0.800513	1.048903
H430	H	0.428096	0.061097	-0.136849
H431	H	0.761429	0.394430	0.196485
H432	H	1.094763	0.727764	0.529818
H433	H	0.618593	0.013736	0.382275
H434	H	0.951926	0.347070	0.715609
H435	H	1.285259	0.680403	1.048942
H436	H	0.693359	-0.576715	0.000204
H437	H	1.026692	-0.243382	0.333538
H438	H	1.360026	0.089952	0.666871
Br439	Br	0.676973	-0.204459	0.000232
Br440	Br	1.010306	0.128874	0.333566
Br441	Br	1.343639	0.462208	0.666899
H442	H	0.445255	-0.542410	0.000107
H443	H	0.778588	-0.209077	0.333440
H444	H	1.111922	0.124256	0.666774
Br445	Br	0.661371	-0.029000	0.594477
Br446	Br	0.994704	0.304334	0.927811
Br447	Br	1.328037	0.637667	1.261144
Br448	Br	0.431887	0.071134	0.178118
Br449	Br	0.765221	0.404467	0.511452
Br450	Br	1.098554	0.737800	0.844785
H451	H	0.527378	0.104922	0.514967
H452	H	0.860711	0.438255	0.848301
H453	H	1.194045	0.771588	1.181634
H454	H	0.033968	0.068126	0.212683
H455	H	0.367301	0.401459	0.546016
H456	H	0.700634	0.734793	0.879349
H457	H	0.185211	0.069683	0.212653
H458	H	0.518544	0.403017	0.545986
H459	H	0.851878	0.736350	0.879319
H460	H	0.446186	-0.450963	0.000111
H461	H	0.779519	-0.117629	0.333445
H462	H	1.112852	0.215704	0.666778
