data_functionalizedCrystal
_audit_creation_method	'MofGen! by Chris Wilmer'
_symmetry_space_group_name_H-M	'P1'
_symmetry_Int_Tables_number	1
_symmetry_cell_setting	triclinic
loop_
_symmetry_equiv_pos_as_xyz
  x,y,z
_cell_length_a	18.050582
_cell_length_b	18.050591
_cell_length_c	18.050589
_cell_angle_alpha	90.024227
_cell_angle_beta	90.018205
_cell_angle_gamma	90.020922
loop_
_atom_site_label
_atom_site_type_symbol
_atom_site_fract_x
_atom_site_fract_y
_atom_site_fract_z
Zn1	Zn	-0.420054	-1.135293	0.295786
Zn2	Zn	-0.086721	-0.801959	0.629119
Zn3	Zn	0.246613	-0.468626	0.962452
Zn4	Zn	-0.295873	-1.135203	0.419969
Zn5	Zn	0.037460	-0.801870	0.753302
Zn6	Zn	0.370793	-0.468537	1.086636
Zn7	Zn	-0.295865	-1.011112	0.295789
Zn8	Zn	0.037468	-0.677778	0.629122
Zn9	Zn	0.370802	-0.344445	0.962455
Zn10	Zn	-0.420009	-1.011060	0.419930
Zn11	Zn	-0.086676	-0.677726	0.753263
Zn12	Zn	0.246658	-0.344393	1.086596
O13	O	-0.357950	-1.073167	0.357868
O14	O	-0.024617	-0.739833	0.691202
O15	O	0.308716	-0.406500	1.024535
O16	O	-0.403603	-1.239205	0.312274
O17	O	-0.070270	-0.905872	0.645607
O18	O	0.263063	-0.572539	0.978941
O19	O	-0.191948	-1.118727	0.403514
O20	O	0.141386	-0.785393	0.736847
O21	O	0.474719	-0.452060	1.070181
O22	O	-0.312354	-1.027644	0.191864
O23	O	0.020979	-0.694310	0.525197
O24	O	0.354312	-0.360977	0.858530
O25	O	-0.312369	-1.239140	0.403511
O26	O	0.020965	-0.905806	0.736844
O27	O	0.354298	-0.572473	1.070178
O28	O	-0.403595	-1.118879	0.191862
O29	O	-0.070262	-0.785545	0.525195
O30	O	0.263071	-0.452212	0.858528
O31	O	-0.191942	-1.027557	0.312279
O32	O	0.141392	-0.694224	0.645613
O33	O	0.474725	-0.360890	0.978946
O34	O	-0.312311	-0.907180	0.312241
O35	O	0.021023	-0.573847	0.645574
O36	O	0.354356	-0.240514	0.978908
O37	O	-0.523940	-1.027555	0.403444
O38	O	-0.190606	-0.694222	0.736777
O39	O	0.142727	-0.360888	1.070111
O40	O	-0.403519	-0.907142	0.403447
O41	O	-0.070185	-0.573809	0.736780
O42	O	0.263148	-0.240475	1.070114
O43	O	-0.523973	-1.118828	0.312236
O44	O	-0.190639	-0.785495	0.645569
O45	O	0.142694	-0.452162	0.978903
O46	O	-0.312325	-1.118676	0.523888
O47	O	0.021008	-0.785343	0.857222
O48	O	0.354342	-0.452010	1.190555
O49	O	-0.403527	-1.027468	0.523860
O50	O	-0.070193	-0.694135	0.857193
O51	O	0.263140	-0.360802	1.190526
C52	C	-0.357909	-0.880215	0.357841
C53	C	-0.024576	-0.546881	0.691174
C54	C	0.308757	-0.213548	1.024507
C55	C	-0.357909	-0.797669	0.357847
C56	C	-0.024576	-0.464336	0.691180
C57	C	0.308757	-0.131002	1.024513
C58	C	-0.357938	-1.073077	0.550820
C59	C	-0.024605	-0.739744	0.884154
C60	C	0.308729	-0.406410	1.217487
C61	C	-0.357958	-1.073107	0.633366
C62	C	-0.024624	-0.739773	0.966700
C63	C	0.308709	-0.406440	1.300033
C64	C	-0.551656	-1.073196	0.357835
C65	C	-0.218323	-0.739863	0.691169
C66	C	0.115011	-0.406529	1.024502
C67	C	-0.634202	-1.073208	0.357821
C68	C	-0.300868	-0.739875	0.691155
C69	C	0.032465	-0.406542	1.024488
C70	C	-0.833635	-1.023612	0.407353
C71	C	-0.500301	-0.690278	0.740686
C72	C	-0.166968	-0.356945	1.074019
C73	C	-0.883034	-1.091367	0.425511
C74	C	-0.549701	-0.758034	0.758844
C75	C	-0.216368	-0.424700	1.092177
C76	C	-0.785332	-1.073245	0.357765
C77	C	-0.451999	-0.739912	0.691098
C78	C	-0.118666	-0.406578	1.024431
C79	C	-0.883014	-1.005527	0.339586
C80	C	-0.549681	-0.672194	0.672919
C81	C	-0.216348	-0.338860	1.006253
C82	C	-0.931317	-1.073274	0.357711
C83	C	-0.597984	-0.739941	0.691045
C84	C	-0.264651	-0.406608	1.024378
C85	C	-0.833645	-1.141036	0.375958
C86	C	-0.500312	-0.807702	0.709292
C87	C	-0.166978	-0.474369	1.042625
C88	C	-0.833620	-1.055150	0.290002
C89	C	-0.500287	-0.721816	0.623335
C90	C	-0.166954	-0.388483	0.956669
C91	C	-0.882998	-1.122952	0.308134
C92	C	-0.549665	-0.789619	0.641468
C93	C	-0.216331	-0.456285	0.974801
C94	C	-0.701234	-1.073227	0.357797
C95	C	-0.367901	-0.739894	0.691131
C96	C	-0.034567	-0.406560	1.024464
C97	C	-1.015414	-1.073300	0.357679
C98	C	-0.682081	-0.739967	0.691012
C99	C	-0.348747	-0.406633	1.024345
C100	C	-0.164998	-1.073181	0.357848
C101	C	0.168335	-0.739847	0.691181
C102	C	0.501668	-0.406514	1.024514
C103	C	-0.082453	-1.073312	0.357652
C104	C	0.250880	-0.739979	0.690986
C105	C	0.584214	-0.406645	1.024319
C106	C	-0.357992	-1.266872	0.357897
C107	C	-0.024659	-0.933539	0.691230
C108	C	0.308675	-0.600206	1.024563
C109	C	-0.358010	-1.349418	0.357909
C110	C	-0.024676	-1.016085	0.691242
C111	C	0.308657	-0.682751	1.024575
C112	C	-0.308425	-0.598217	0.308191
C113	C	0.024909	-0.264884	0.641525
C114	C	0.358242	0.068449	0.974858
C115	C	-0.290154	-0.548798	0.375927
C116	C	0.043180	-0.215464	0.709261
C117	C	0.376513	0.117869	1.042594
C118	C	-0.357943	-0.646539	0.357869
C119	C	-0.024610	-0.313205	0.691203
C120	C	0.308724	0.020128	1.024536
C121	C	-0.376212	-0.548877	0.290157
C122	C	-0.042879	-0.215543	0.623490
C123	C	0.290455	0.117790	0.956824
C124	C	-0.357974	-0.500553	0.357885
C125	C	-0.024641	-0.167220	0.691218
C126	C	0.308693	0.166113	1.024552
C127	C	-0.339637	-0.598206	0.425641
C128	C	-0.006303	-0.264873	0.758974
C129	C	0.327030	0.068461	1.092307
C130	C	-0.425726	-0.598289	0.339825
C131	C	-0.092393	-0.264956	0.673158
C132	C	0.240940	0.068378	1.006491
C133	C	-0.407481	-0.548892	0.407607
C134	C	-0.074148	-0.215558	0.740941
C135	C	0.259186	0.117775	1.074274
C136	C	-0.357923	-0.730637	0.357859
C137	C	-0.024590	-0.397303	0.691192
C138	C	0.308744	-0.063970	1.024526
C139	C	-0.357994	-0.416457	0.357903
C140	C	-0.024660	-0.083124	0.691236
C141	C	0.308673	0.250210	1.024569
C142	C	-0.357979	-1.073277	0.164163
C143	C	-0.024646	-0.739944	0.497496
C144	C	0.308688	-0.406610	0.830829
C145	C	-0.357991	-1.073324	0.081617
C146	C	-0.024658	-0.739991	0.414950
C147	C	0.308675	-0.406657	0.748284
C148	C	-0.407536	-1.023557	0.832828
C149	C	-0.074202	-0.690223	1.166161
C150	C	0.259131	-0.356890	1.499495
C151	C	-0.339767	-1.005459	0.882261
C152	C	-0.006433	-0.672126	1.215594
C153	C	0.326900	-0.338792	1.548928
C154	C	-0.357967	-1.073180	0.784497
C155	C	-0.024634	-0.739846	1.117830
C156	C	0.308699	-0.406513	1.451163
C157	C	-0.425744	-1.091314	0.882146
C158	C	-0.092411	-0.757981	1.215479
C159	C	0.240922	-0.424647	1.548812
C160	C	-0.357983	-1.073249	0.930482
C161	C	-0.024649	-0.739915	1.263815
C162	C	0.308684	-0.406582	1.597148
C163	C	-0.290162	-1.055046	0.832842
C164	C	0.043171	-0.721713	1.166175
C165	C	0.376505	-0.388380	1.499509
C166	C	-0.376186	-1.140933	0.832722
C167	C	-0.042852	-0.807600	1.166056
C168	C	0.290481	-0.474266	1.499389
C169	C	-0.308370	-1.122861	0.882133
C170	C	0.024964	-0.789527	1.215466
C171	C	0.358297	-0.456194	1.548799
C172	C	-0.357959	-1.073138	0.700398
C173	C	-0.024626	-0.739805	1.033732
C174	C	0.308707	-0.406471	1.367065
C175	C	-0.357983	-1.073291	1.014578
C176	C	-0.024649	-0.739957	1.347911
C177	C	0.308684	-0.406624	1.681245
H178	H	-0.811961	-0.981678	0.449342
H179	H	-0.478628	-0.648345	0.782676
H180	H	-0.145294	-0.315012	1.116009
O181	O	-0.501610	-0.627137	0.319579
O182	O	-0.168277	-0.293804	0.652912
O183	O	0.165057	0.039529	0.986245
H184	H	-0.539327	-0.579764	0.308955
H185	H	-0.205993	-0.246431	0.642289
H186	H	0.127340	0.086903	0.975622
O187	O	-0.252898	-0.626913	0.252606
O188	O	0.080436	-0.293580	0.585939
O189	O	0.413769	0.039753	0.919272
H190	H	-0.281960	-0.660769	0.210262
H191	H	0.051373	-0.327436	0.543595
H192	H	0.384707	0.005898	0.876929
O193	O	-0.804828	-1.034813	0.214157
O194	O	-0.471494	-0.701479	0.547490
O195	O	-0.138161	-0.368146	0.880823
H196	H	-0.852232	-1.024157	0.176463
H197	H	-0.518898	-0.690823	0.509796
H198	H	-0.185565	-0.357490	0.843130
O199	O	-0.396643	-0.520164	0.214295
O200	O	-0.063309	-0.186830	0.547628
O201	O	0.270024	0.146503	0.880961
H202	H	-0.396967	-0.458679	0.215139
H203	H	-0.063634	-0.125346	0.548473
H204	H	0.269699	0.207987	0.881806
H205	H	-0.449395	-0.981531	0.811178
H206	H	-0.116062	-0.648197	1.144512
H207	H	0.217272	-0.314864	1.477845
O208	O	-0.319350	-0.929605	0.911086
O209	O	0.013984	-0.596272	1.244419
O210	O	0.347317	-0.262939	1.577753
H211	H	-0.360567	-0.888482	0.891345
H212	H	-0.027234	-0.555149	1.224678
H213	H	0.306100	-0.221815	1.558011
H214	H	-0.232834	-1.039669	0.811275
H215	H	0.100499	-0.706336	1.144608
H216	H	0.433832	-0.373003	1.477941
O217	O	-0.214246	-0.519993	0.396163
O218	O	0.119087	-0.186659	0.729496
O219	O	0.452421	0.146674	1.062830
H220	H	-0.173226	-0.539740	0.354841
H221	H	0.160108	-0.206407	0.688174
H222	H	0.493441	0.126926	1.021508
H223	H	-0.266409	-1.164855	0.903645
H224	H	0.066924	-0.831522	1.236979
H225	H	0.400257	-0.498188	1.570312
O226	O	-0.911733	-0.929653	0.319238
O227	O	-0.578400	-0.596320	0.652571
O228	O	-0.245066	-0.262986	0.985904
H229	H	-0.946416	-0.907932	0.365126
H230	H	-0.613082	-0.574599	0.698459
H231	H	-0.279749	-0.241266	1.031793
H232	H	-0.324134	-0.619785	0.482928
H233	H	0.009199	-0.286451	0.816261
H234	H	0.342533	0.046882	1.149595
O235	O	-0.462963	-0.520364	0.463323
O236	O	-0.129630	-0.187031	0.796656
O237	O	0.203703	0.146303	1.129989
H238	H	-0.447634	-0.540224	0.519457
H239	H	-0.114301	-0.206890	0.852791
H240	H	0.219032	0.126443	1.186124
H241	H	-0.391613	-1.198184	0.810948
H242	H	-0.058280	-0.864851	1.144282
H243	H	0.275053	-0.531518	1.477615
H244	H	-0.483056	-1.106625	0.903802
H245	H	-0.149723	-0.773291	1.237136
H246	H	0.183610	-0.439958	1.570469
H247	H	-0.904739	-1.106690	0.482794
H248	H	-0.571406	-0.773357	0.816127
H249	H	-0.238073	-0.440023	1.149460
H250	H	-0.904535	-1.164986	0.266177
H251	H	-0.571202	-0.831653	0.599510
H252	H	-0.237869	-0.498319	0.932843
H253	H	-0.812050	-1.198333	0.391377
H254	H	-0.478716	-0.865000	0.724710
H255	H	-0.145383	-0.531666	1.058043
