data_functionalizedCrystal
_audit_creation_method	'MofGen! by Chris Wilmer'
_symmetry_space_group_name_H-M	'P1'
_symmetry_Int_Tables_number	1
_symmetry_cell_setting	triclinic
loop_
_symmetry_equiv_pos_as_xyz
  x,y,z
_cell_length_a	16.956993
_cell_length_b	13.339070
_cell_length_c	11.804366
_cell_angle_alpha	74.888044
_cell_angle_beta	79.043589
_cell_angle_gamma	84.158003
loop_
_atom_site_label
_atom_site_type_symbol
_atom_site_fract_x
_atom_site_fract_y
_atom_site_fract_z
O1	O	-1.078539	0.019765	0.099148
O2	O	-0.854094	0.054639	0.099124
O3	O	-0.940557	-0.107907	0.099130
O4	O	-0.992076	0.182310	0.099143
O5	O	-0.917785	-0.065156	-0.098927
O6	O	-0.831322	0.097389	-0.098933
O7	O	-1.055767	0.062516	-0.098909
Cu8	Cu	-0.941465	0.083856	-0.117005
Cu9	Cu	-0.968396	0.033298	0.117221
O10	O	-0.969304	0.225061	-0.098915
C11	C	-0.813394	0.077800	0.000092
C12	C	-0.726047	0.083110	0.000083
C13	C	-0.920469	-0.123493	0.000102
C14	C	-0.894529	-0.233626	0.000104
C15	C	-0.235535	0.122811	0.000111
C16	C	-0.317605	0.117816	0.000113
C17	C	-0.347948	0.024058	0.000102
C18	C	-0.296217	-0.064713	0.000100
C19	C	-0.214150	-0.059718	0.000107
C20	C	-0.592248	-0.000667	0.000089
C21	C	-0.674322	-0.005654	0.000078
C22	C	-0.695705	0.176875	0.000093
C23	C	-0.613634	0.181863	0.000093
C24	C	-0.561911	0.093091	0.000098
N25	N	-0.431837	0.018951	0.000100
N26	N	-0.478025	0.098197	0.000108
C27	C	-1.096224	-0.615288	0.000125
C28	C	-1.120597	-0.511811	0.000116
C29	C	-1.064082	-0.442260	0.000114
C30	C	-0.983190	-0.476195	0.000119
C31	C	-0.958814	-0.579680	0.000118
C32	C	-0.926672	-0.406653	0.000107
C33	C	-0.845780	-0.440588	0.000112
C34	C	-0.821408	-0.544063	0.000112
C35	C	-0.877922	-0.613614	0.000115
C36	C	-0.951048	-0.303168	0.000108
C37	C	-0.813638	-0.267560	0.000101
C38	C	-0.789265	-0.371037	0.000109
C39	C	-0.096466	0.039355	0.000116
C40	C	-0.183810	0.034048	0.000106
C41	C	-0.989392	0.240647	0.000116
C42	C	-1.015333	0.350778	0.000122
N43	N	-0.922529	0.119415	-0.281747
C44	C	-0.877062	0.204824	-0.344096
C45	C	-0.862748	0.231736	-0.468759
C46	C	-0.893893	0.173237	-0.531085
C47	C	-0.939356	0.087821	-0.468736
C48	C	-0.953678	0.060911	-0.344061
C49	C	-0.970509	0.029324	-0.531049
C50	C	-1.015972	-0.056091	-0.468700
C51	C	-1.030290	-0.082997	-0.344038
C52	C	-0.999144	-0.024498	-0.281712
C53	C	-0.956188	0.056235	-0.655724
C54	C	-1.032803	-0.087678	-0.655689
C55	C	-1.047118	-0.114590	-0.531026
N56	N	-0.987336	-0.002269	0.281962
H57	H	-0.210836	0.199161	0.000111
F58	F	-0.372653	0.212289	0.000124
H59	H	-1.067316	-0.152540	-0.293273
H60	H	-1.058167	-0.135312	-0.706433
H61	H	-0.723401	-0.398682	0.000113
F62	F	-0.907804	0.147137	-0.722066
F63	F	-1.037136	-0.267063	0.000101
H64	H	-0.588936	0.258210	0.000105
F65	F	-1.090025	-0.332132	0.000108
F66	F	-0.814366	0.322637	-0.535111
H67	H	-1.084135	-0.184137	-0.480246
H68	H	-0.755539	-0.571686	0.000107
F69	F	-1.156359	-0.689308	0.000109
H70	H	-0.699024	-0.082008	0.000075
H71	H	-0.858082	-0.697875	0.000126
F72	F	-0.753485	-0.193542	0.000091
F73	F	-0.750758	0.271345	0.000094
F74	F	-1.206686	-0.475706	0.000131
H75	H	-0.882236	0.195153	-0.632591
F76	F	-0.537214	-0.095151	0.000117
H77	H	-0.320930	-0.141054	0.000098
F78	F	-0.159100	-0.154193	0.000102
F79	F	-0.843926	0.267081	-0.277761
F80	F	-1.014375	-0.053144	-0.149029
