data_functionalizedCrystal
_audit_creation_method	'MofGen! by Chris Wilmer'
_symmetry_space_group_name_H-M	'P1'
_symmetry_Int_Tables_number	1
_symmetry_cell_setting	triclinic
loop_
_symmetry_equiv_pos_as_xyz
  x,y,z
_cell_length_a	16.625548
_cell_length_b	18.101395
_cell_length_c	16.625539
_cell_angle_alpha	89.974216
_cell_angle_beta	89.982945
_cell_angle_gamma	90.032172
loop_
_atom_site_label
_atom_site_type_symbol
_atom_site_fract_x
_atom_site_fract_y
_atom_site_fract_z
Zn1	Zn	1.232604	-0.294821	-0.455913
Zn2	Zn	1.732604	0.205179	0.044087
Zn3	Zn	1.232495	-0.418666	-0.321082
Zn4	Zn	1.732495	0.081334	0.178918
Zn5	Zn	1.097774	-0.294845	-0.321094
Zn6	Zn	1.597774	0.205155	0.178906
Zn7	Zn	1.097716	-0.418627	-0.455872
Zn8	Zn	1.597716	0.081373	0.044128
O9	O	1.165147	-0.356740	-0.388490
O10	O	1.665147	0.143260	0.111510
O11	O	1.345422	-0.311255	-0.438040
O12	O	1.845422	0.188745	0.061960
O13	O	1.214603	-0.402267	-0.208251
O14	O	1.714603	0.097733	0.291749
O15	O	1.115730	-0.191209	-0.339000
O16	O	1.615730	0.308791	0.161000
O17	O	1.345342	-0.402244	-0.338980
O18	O	1.845342	0.097756	0.161020
O19	O	1.214789	-0.191191	-0.438051
O20	O	1.714789	0.308809	0.061949
O21	O	1.115624	-0.311296	-0.208260
O22	O	1.615624	0.188704	0.291740
O23	O	0.984934	-0.311259	-0.338960
O24	O	1.484934	0.188741	0.161040
O25	O	1.115630	-0.402178	-0.568710
O26	O	1.615630	0.097822	-0.068710
O27	O	0.984891	-0.402201	-0.437981
O28	O	1.484891	0.097799	0.062019
O29	O	1.214732	-0.311218	-0.568740
O30	O	1.714732	0.188782	-0.068740
O31	O	1.214547	-0.522294	-0.338940
O32	O	1.714547	-0.022294	0.161060
O33	O	1.115525	-0.522265	-0.437969
O34	O	1.615525	-0.022265	0.062031
C35	C	0.955657	-0.356729	-0.388467
C36	C	1.455657	0.143271	0.111533
C37	C	0.866035	-0.356742	-0.388477
C38	C	1.366035	0.143258	0.111523
C39	C	0.537860	-0.356747	-0.388511
C40	C	1.037860	0.143253	0.111489
C41	C	0.629168	-0.356744	-0.388499
C42	C	1.129168	0.143256	0.111501
C43	C	0.701945	-0.356745	-0.388494
C44	C	1.201945	0.143255	0.111506
C45	C	0.793259	-0.356741	-0.388483
C46	C	1.293259	0.143259	0.111517
C47	C	1.165040	-0.549150	-0.388466
C48	C	1.665040	-0.049150	0.111534
C49	C	1.165067	-0.631464	-0.388483
C50	C	1.665067	-0.131464	0.111517
C51	C	1.165244	-0.930555	-0.388527
C52	C	1.665244	-0.430555	0.111473
C53	C	1.103087	-0.899243	-0.450988
C54	C	1.603087	-0.399243	0.049012
C55	C	1.102791	-0.813625	-0.450793
C56	C	1.602791	-0.313625	0.049207
C57	C	1.165156	-0.782173	-0.388506
C58	C	1.665156	-0.282173	0.111494
C59	C	1.142154	-0.813322	-0.303528
C60	C	1.642154	-0.313322	0.196472
C61	C	1.141754	-0.898968	-0.303901
C62	C	1.641754	-0.398968	0.196099
C63	C	1.250539	-0.898898	-0.410295
C64	C	1.750539	-0.398898	0.089705
C65	C	1.250038	-0.813247	-0.412159
C66	C	1.750038	-0.313247	0.087841
C67	C	1.165108	-0.698313	-0.388489
C68	C	1.665108	-0.198313	0.111511
C69	C	1.165290	-1.014415	-0.388538
C70	C	1.665290	-0.514415	0.111462
C71	C	1.375456	-0.356751	-0.388513
C72	C	1.875456	0.143249	0.111487
C73	C	1.465077	-0.356756	-0.388523
C74	C	1.965077	0.143244	0.111477
C75	C	1.165187	-0.356691	-0.598799
C76	C	1.665187	0.143309	-0.098799
C77	C	1.165204	-0.356670	-0.688420
C78	C	1.665204	0.143330	-0.188420
C79	C	1.165278	-0.163578	-0.388531
C80	C	1.665278	0.336422	0.111469
C81	C	1.165333	-0.081264	-0.388549
C82	C	1.665333	0.418736	0.111451
C83	C	1.165217	-0.356654	-0.761203
C84	C	1.665217	0.143346	-0.261203
C85	C	1.165236	-0.356626	-0.852511
C86	C	1.665236	0.143374	-0.352511
C87	C	1.165255	-0.356600	-0.925288
C88	C	1.665255	0.143400	-0.425288
C89	C	1.165275	-0.356573	-1.016602
C90	C	1.665275	0.143427	-0.516602
C91	C	1.165154	-0.356735	-0.178999
C92	C	1.665154	0.143265	0.321001
C93	C	1.165294	-0.356547	-0.089378
C94	C	1.665294	0.143453	0.410622
H95	H	1.117182	-0.792562	-0.513803
H96	H	1.617182	-0.292562	-0.013803
H97	H	1.271511	-0.920447	-0.471205
H98	H	1.771511	-0.420447	0.028795
C99	C	1.066005	-0.744173	-0.206666
C100	C	1.566005	-0.244173	0.293334
C101	C	1.058871	-0.784465	-0.278187
C102	C	1.558871	-0.284465	0.221813
H103	H	1.014589	-0.726356	-0.191029
H104	H	1.514589	-0.226356	0.308971
H105	H	1.086888	-0.775206	-0.165604
H106	H	1.586888	-0.275206	0.334396
H107	H	1.101369	-0.703624	-0.214866
H108	H	1.601369	-0.203624	0.285134
H109	H	1.023512	-0.825018	-0.269985
H110	H	1.523512	-0.325018	0.230015
H111	H	1.037977	-0.753430	-0.319258
H112	H	1.537977	-0.253430	0.180742
H113	H	1.040248	-0.920830	-0.436750
H114	H	1.540248	-0.420830	0.063250
C115	C	0.966384	-0.846678	-0.419770
C116	C	1.466384	-0.346678	0.080230
C117	C	1.017447	-0.786048	-0.431313
C118	C	1.517447	-0.286048	0.068687
H119	H	0.913696	-0.829651	-0.407736
H120	H	1.413696	-0.329651	0.092264
H121	H	0.965057	-0.875673	-0.467353
H122	H	1.465057	-0.375673	0.032647
H123	H	0.985763	-0.875819	-0.376383
H124	H	1.485763	-0.375819	0.123617
H125	H	0.998071	-0.756909	-0.474705
H126	H	1.498071	-0.256909	0.025295
H127	H	1.018770	-0.757040	-0.383725
H128	H	1.518770	-0.257040	0.116275
H129	H	1.079403	-0.919011	-0.285461
H130	H	1.579403	-0.419011	0.214539
H131	H	1.298798	-0.791833	-0.369981
H132	H	1.798798	-0.291833	0.130019
H133	H	1.185063	-0.919683	-0.255776
H134	H	1.685063	-0.419683	0.244224
H135	H	1.296849	-0.919146	-0.364802
H136	H	1.796849	-0.419146	0.135198
H137	H	1.186003	-0.792950	-0.255720
H138	H	1.686003	-0.292950	0.244280
C139	C	1.349191	-0.813797	-0.517190
C140	C	1.849191	-0.313797	-0.017190
C141	C	1.273441	-0.785797	-0.496603
C142	C	1.773441	-0.285797	0.003397
H143	H	1.363626	-0.796862	-0.569331
H144	H	1.863626	-0.296862	-0.069331
H145	H	1.387915	-0.797269	-0.479246
H146	H	1.887915	-0.297269	0.020754
H147	H	1.347397	-0.866251	-0.516967
H148	H	1.847397	-0.366251	-0.016967
H149	H	1.275237	-0.733343	-0.496820
H150	H	1.775237	-0.233343	0.003180
H151	H	1.234707	-0.802321	-0.534557
H152	H	1.734707	-0.302321	-0.034557
C153	C	1.190269	-0.972589	-0.533860
C154	C	1.690269	-0.472589	-0.033860
C155	C	1.122307	-0.926990	-0.536327
C156	C	1.622307	-0.426990	-0.036327
H157	H	1.202130	-0.989727	-0.586546
H158	H	1.702130	-0.489727	-0.086546
H159	H	1.234767	-0.945382	-0.513692
H160	H	1.734767	-0.445382	-0.013692
H161	H	1.179993	-1.013590	-0.499677
H162	H	1.679993	-0.513590	0.000323
H163	H	1.132585	-0.885987	-0.570506
H164	H	1.632585	-0.385987	-0.070506
H165	H	1.077799	-0.954198	-0.556506
H166	H	1.577799	-0.454198	-0.056506
