data_functionalizedCrystal
_audit_creation_method	'MofGen! by Chris Wilmer'
_symmetry_space_group_name_H-M	'P1'
_symmetry_Int_Tables_number	1
_symmetry_cell_setting	triclinic
loop_
_symmetry_equiv_pos_as_xyz
  x,y,z
_cell_length_a	19.077312
_cell_length_b	14.909042
_cell_length_c	19.076919
_cell_angle_alpha	90.890210
_cell_angle_beta	85.331053
_cell_angle_gamma	84.564347
loop_
_atom_site_label
_atom_site_type_symbol
_atom_site_fract_x
_atom_site_fract_y
_atom_site_fract_z
Zn1	Zn	1.081956	-0.432047	0.335033
Zn2	Zn	1.415290	-0.098713	0.668366
Zn3	Zn	1.748623	0.234620	1.001700
Zn4	Zn	1.093427	-0.577079	0.210359
Zn5	Zn	1.426761	-0.243745	0.543692
Zn6	Zn	1.760094	0.089588	0.877026
Zn7	Zn	0.968268	-0.420430	0.222445
Zn8	Zn	1.301601	-0.087096	0.555778
Zn9	Zn	1.634934	0.246237	0.889111
Zn10	Zn	0.970857	-0.577041	0.332943
Zn11	Zn	1.304190	-0.243708	0.666277
Zn12	Zn	1.637524	0.089625	0.999610
O13	O	1.028627	-0.501649	0.275195
O14	O	1.361960	-0.168316	0.608528
O15	O	1.695294	0.165018	0.941862
O16	O	1.182353	-0.456163	0.314311
O17	O	1.515686	-0.122830	0.647644
O18	O	1.849020	0.210504	0.980978
O19	O	1.080542	-0.551452	0.113541
O20	O	1.413875	-0.218119	0.446875
O21	O	1.747208	0.115214	0.780208
O22	O	0.977465	-0.295732	0.243312
O23	O	1.310798	0.037602	0.576645
O24	O	1.644131	0.370935	0.909979
O25	O	1.190781	-0.562717	0.222714
O26	O	1.524114	-0.229384	0.556047
O27	O	1.857447	0.103949	0.889380
O28	O	1.060991	-0.304267	0.326030
O29	O	1.394324	0.029067	0.659364
O30	O	1.727658	0.362400	0.992697
O31	O	0.988588	-0.436363	0.122421
O32	O	1.321921	-0.103030	0.455754
O33	O	1.655254	0.230304	0.789087
O34	O	0.869736	-0.436327	0.241286
O35	O	1.203069	-0.102994	0.574619
O36	O	1.536403	0.230340	0.907953
O37	O	0.981877	-0.562654	0.431641
O38	O	1.315211	-0.229320	0.764975
O39	O	1.648544	0.104013	1.098308
O40	O	0.871638	-0.551389	0.322469
O41	O	1.204972	-0.218056	0.655802
O42	O	1.538305	0.115278	0.989136
O43	O	1.063502	-0.456127	0.433176
O44	O	1.396835	-0.122794	0.766510
O45	O	1.730168	0.210540	1.099843
O46	O	1.083052	-0.703313	0.220688
O47	O	1.416386	-0.369979	0.554021
O48	O	1.749719	-0.036646	0.887354
O49	O	0.993000	-0.703285	0.310750
O50	O	1.326334	-0.369952	0.644083
O51	O	1.659667	-0.036619	0.977417
C52	C	0.845050	-0.492594	0.282963
C53	C	1.178383	-0.159261	0.616296
C54	C	1.511717	0.174073	0.949629
C55	C	0.766515	-0.488743	0.286301
C56	C	1.099849	-0.155409	0.619635
C57	C	1.433182	0.177924	0.952968
C58	C	0.323974	-0.461049	0.310258
C59	C	0.657307	-0.127716	0.643591
C60	C	0.990640	0.205618	0.976925
C61	C	0.397766	-0.464684	0.307116
C62	C	0.731100	-0.131351	0.640450
C63	C	1.064433	0.201982	0.973783
C64	C	0.439040	-0.521880	0.257787
C65	C	0.772373	-0.188547	0.591120
C66	C	1.105706	0.144786	0.924454
C67	C	0.406517	-0.575452	0.211601
C68	C	0.739850	-0.242118	0.544935
C69	C	1.073184	0.091215	0.878268
C70	C	0.332726	-0.571820	0.214747
C71	C	0.666059	-0.238487	0.548080
C72	C	0.999393	0.094846	0.881414
C73	C	0.660202	-0.538683	0.243261
C74	C	0.993535	-0.205350	0.576595
C75	C	1.326868	0.127984	0.909928
C76	C	0.733998	-0.542308	0.240118
C77	C	1.067331	-0.208975	0.573451
C78	C	1.400664	0.124359	0.906784
C79	C	0.725242	-0.431541	0.335634
C80	C	1.058575	-0.098208	0.668967
C81	C	1.391908	0.235125	1.002301
C82	C	0.651449	-0.427911	0.338772
C83	C	0.984783	-0.094578	0.672106
C84	C	1.318116	0.238755	1.005439
C85	C	0.618933	-0.481486	0.292589
C86	C	0.952267	-0.148153	0.625923
C87	C	1.285600	0.185181	0.959256
N88	N	0.514468	-0.525595	0.254573
N89	N	0.847801	-0.192262	0.587906
N90	N	1.181134	0.141071	0.921240
N91	N	0.543507	-0.477775	0.295807
N92	N	0.876840	-0.144442	0.629140
N93	N	1.210173	0.188892	0.962474
C94	C	1.039571	-0.736033	0.264195
C95	C	1.372904	-0.402700	0.597528
C96	C	1.706237	-0.069366	0.930862
C97	C	1.044316	-0.836308	0.259510
C98	C	1.377649	-0.502974	0.592843
C99	C	1.710983	-0.169641	0.926177
C100	C	0.959378	-1.024763	0.344414
C101	C	1.292712	-0.691429	0.677748
C102	C	1.626045	-0.358096	1.011081
C103	C	0.963835	-1.118980	0.340015
C104	C	1.297168	-0.785646	0.673348
C105	C	1.630502	-0.452313	1.006681
C106	C	1.057682	-1.118960	0.246309
C107	C	1.391015	-0.785627	0.579642
C108	C	1.724348	-0.452294	0.912975
C109	C	1.053225	-1.024743	0.250708
C110	C	1.386559	-0.691410	0.584042
C111	C	1.719892	-0.358077	0.917375
C112	C	1.004073	-0.977648	0.299763
C113	C	1.337406	-0.644314	0.633097
C114	C	1.670739	-0.310981	0.966430
C115	C	0.999620	-0.883429	0.304166
C116	C	1.332953	-0.550096	0.637499
C117	C	1.666287	-0.216763	0.970832
C118	C	1.093463	-0.883411	0.210457
C119	C	1.426796	-0.550078	0.543790
C120	C	1.760130	-0.216745	0.877123
C121	C	1.097919	-0.977628	0.206057
C122	C	1.431253	-0.644295	0.539391
C123	C	1.764586	-0.310962	0.872724
C124	C	1.212921	-0.510740	0.267397
C125	C	1.546254	-0.177407	0.600731
C126	C	1.879588	0.155927	0.934064
C127	C	1.291456	-0.514614	0.264074
C128	C	1.624789	-0.181281	0.597408
C129	C	1.958123	0.152053	0.930741
C130	C	1.021699	-0.510682	0.458642
C131	C	1.355032	-0.177349	0.791975
C132	C	1.688365	0.155985	1.125308
C133	C	1.018746	-0.514531	0.536816
C134	C	1.352080	-0.181198	0.870149
C135	C	1.685413	0.152135	1.203482
C136	C	1.017659	-0.266352	0.286252
C137	C	1.350993	0.066982	0.619586
C138	C	1.684326	0.400315	0.952919
C139	C	1.012986	-0.166082	0.290964
C140	C	1.346319	0.167251	0.624298
C141	C	1.679652	0.500585	0.957631
C142	C	1.035566	-0.492588	0.092463
C143	C	1.368899	-0.159255	0.425797
C144	C	1.702233	0.174079	0.759130
C145	C	1.038643	-0.488491	0.014296
C146	C	1.371977	-0.155158	0.347629
C147	C	1.705310	0.178175	0.680962
C148	C	1.059854	-0.460879	0.574343
C149	C	1.393188	-0.127546	0.907676
C150	C	1.726521	0.205787	1.241009
C151	C	1.057071	-0.464492	0.647796
C152	C	1.390405	-0.131159	0.981129
C153	C	1.723738	0.202174	1.314463
C154	C	1.013184	-0.521763	0.683721
C155	C	1.346517	-0.188429	1.017054
C156	C	1.679850	0.144904	1.350387
C157	C	0.972071	-0.575417	0.646189
C158	C	1.305404	-0.242083	0.979522
C159	C	1.638738	0.091250	1.312856
C160	C	0.974851	-0.571798	0.572737
C161	C	1.308184	-0.238465	0.906071
C162	C	1.641517	0.094868	1.239404
C163	C	1.000310	-0.538527	0.903312
C164	C	1.333644	-0.205194	1.236646
C165	C	1.666977	0.128140	1.569979
C166	C	0.997535	-0.542143	0.976769
C167	C	1.330869	-0.208810	1.310102
C168	C	1.664202	0.124523	1.643436
C169	C	1.082535	-0.431217	0.978371
C170	C	1.415868	-0.097884	1.311704
C171	C	1.749202	0.235449	1.645037
C172	C	1.085314	-0.427608	0.904917
C173	C	1.418647	-0.094275	1.238251
C174	C	1.751981	0.239059	1.571584
C175	C	1.044198	-0.481259	0.867392
C176	C	1.377532	-0.147925	1.200726
C177	C	1.710865	0.185408	1.534059
N178	N	1.010340	-0.525459	0.758802
N179	N	1.343673	-0.192126	1.092135
N180	N	1.677007	0.141207	1.425468
N181	N	1.047039	-0.477557	0.792313
N182	N	1.380372	-0.144223	1.125646
N183	N	1.713706	0.189110	1.458980
H184	H	0.633736	-0.582305	0.205654
H185	H	0.967069	-0.248971	0.538987
H186	H	1.300403	0.084362	0.872320
H187	H	0.919361	-0.986417	0.384361
H188	H	1.252695	-0.653084	0.717695
H189	H	1.586028	-0.319751	1.051028
H190	H	1.129858	-0.845040	0.174101
H191	H	1.463191	-0.511707	0.507434
H192	H	1.796525	-0.178373	0.840768
H193	H	1.121054	-0.380975	0.875672
H194	H	1.454387	-0.047642	1.209005
H195	H	1.787721	0.285692	1.542339
H196	H	1.095595	-0.414247	0.545098
H197	H	1.428928	-0.080913	0.878431
H198	H	1.762261	0.252420	1.211764
H199	H	0.927442	-1.157337	0.376376
H200	H	1.260775	-0.824004	0.709709
H201	H	1.594109	-0.490670	1.043042
H202	H	0.424239	-0.421069	0.344726
H203	H	0.757572	-0.087736	0.678059
H204	H	1.090905	0.245598	1.011393
H205	H	0.290374	-0.414468	0.350423
H206	H	0.623707	-0.081135	0.683757
H207	H	0.957040	0.252199	1.017090
H208	H	1.137936	-1.015986	0.166116
H209	H	1.471269	-0.682653	0.499450
H210	H	1.804603	-0.349320	0.832783
H211	H	1.090548	-0.420806	0.678347
H212	H	1.423881	-0.087472	1.011680
H213	H	1.757214	0.245861	1.345013
H214	H	0.941368	-0.615478	0.542185
H215	H	1.274702	-0.282145	0.875518
H216	H	1.608035	0.051189	1.208851
H217	H	1.097693	-1.157321	0.206364
H218	H	1.431026	-0.823988	0.539698
H219	H	1.764359	-0.490654	0.873031
H220	H	0.959599	-0.845085	0.344110
H221	H	1.292933	-0.511752	0.677444
H222	H	1.626266	-0.178418	1.010777
H223	H	1.116008	-0.387537	1.008932
H224	H	1.449341	-0.054204	1.342265
H225	H	1.782675	0.279130	1.675598
H226	H	0.961795	-0.588782	1.006017
H227	H	1.295128	-0.255448	1.339350
H228	H	1.628461	0.077885	1.672684
H229	H	0.966842	-0.582227	0.872767
H230	H	1.300175	-0.248893	1.206100
H231	H	1.633509	0.084440	1.539434
H232	H	0.751724	-0.387925	0.373234
H233	H	1.085058	-0.054592	0.706568
H234	H	1.418391	0.278742	1.039901
H235	H	0.936334	-0.622044	0.675445
H236	H	1.269667	-0.288711	1.008779
H237	H	1.603001	0.044623	1.342112
H238	H	0.306251	-0.615441	0.177141
H239	H	0.639585	-0.282107	0.510474
H240	H	0.972918	0.051226	0.843807
H241	H	0.617849	-0.381340	0.378944
H242	H	0.951182	-0.048006	0.712277
H243	H	1.284516	0.285327	1.045611
H244	H	0.440128	-0.622026	0.171439
H245	H	0.773461	-0.288692	0.504772
H246	H	1.106795	0.044641	0.838106
H247	H	0.767601	-0.588887	0.199946
H248	H	1.100935	-0.255554	0.533280
H249	H	1.434268	0.077779	0.866613
