data_functionalizedCrystal
_audit_creation_method	'MofGen! by Chris Wilmer'
_symmetry_space_group_name_H-M	'P1'
_symmetry_Int_Tables_number	1
_symmetry_cell_setting	triclinic
loop_
_symmetry_equiv_pos_as_xyz
  x,y,z
_cell_length_a	14.044220
_cell_length_b	14.044220
_cell_length_c	13.101039
_cell_angle_alpha	86.340132
_cell_angle_beta	93.667477
_cell_angle_gamma	93.188878
loop_
_atom_site_label
_atom_site_type_symbol
_atom_site_fract_x
_atom_site_fract_y
_atom_site_fract_z
O1	O	0.225348	1.281968	-0.085109
O2	O	0.558682	1.615302	0.248224
O3	O	0.892015	1.948635	0.581558
O4	O	0.217041	1.005298	-0.085135
O5	O	0.550374	1.338632	0.248198
O6	O	0.883708	1.671965	0.581532
O7	O	0.082860	1.139480	-0.085112
O8	O	0.416193	1.472813	0.248221
O9	O	0.749526	1.806147	0.581554
O10	O	0.359530	1.147787	-0.085132
O11	O	0.692863	1.481120	0.248202
O12	O	1.026197	1.814454	0.581535
O13	O	0.092504	1.129854	0.085316
O14	O	0.425838	1.463188	0.418649
O15	O	0.759171	1.796521	0.751983
O16	O	0.226686	0.995673	0.085293
O17	O	0.560019	1.329006	0.418627
O18	O	0.893353	1.662339	0.751960
O19	O	0.234993	1.272343	0.085319
O20	O	0.568326	1.605676	0.418652
O21	O	0.901660	1.939009	0.751986
Zn22	Zn	0.232371	1.132479	0.112365
Zn23	Zn	0.565704	1.465813	0.445699
Zn24	Zn	0.899037	1.799146	0.779032
Zn25	Zn	0.219663	1.145162	-0.112181
Zn26	Zn	0.552997	1.478495	0.221152
Zn27	Zn	0.886330	1.811828	0.554485
O28	O	0.369175	1.138161	0.085296
O29	O	0.702508	1.471494	0.418630
O30	O	1.035841	1.804828	0.751963
C31	C	0.218228	0.964864	0.000076
C32	C	0.551561	1.298197	0.333409
C33	C	0.884894	1.631531	0.666743
C34	C	0.207383	0.858722	0.000066
C35	C	0.540716	1.192055	0.333400
C36	C	0.874049	1.525388	0.666733
C37	C	0.052060	1.131031	0.000102
C38	C	0.385393	1.464365	0.333435
C39	C	0.718727	1.797698	0.666769
C40	C	-0.054083	1.120187	0.000102
C41	C	0.279251	1.453520	0.333435
C42	C	0.612584	1.786854	0.666769
C43	C	0.187558	0.664383	0.000088
C44	C	0.520891	0.997716	0.333421
C45	C	0.854224	1.331049	0.666755
C46	C	0.264472	0.613253	0.000087
C47	C	0.597805	0.946586	0.333420
C48	C	0.931139	1.279920	0.666754
C49	C	0.253441	0.505116	0.000099
C50	C	0.586774	0.838449	0.333432
C51	C	0.920108	1.171783	0.666766
C52	C	0.198587	0.772529	0.000076
C53	C	0.531920	1.105863	0.333409
C54	C	0.865254	1.439196	0.666743
C55	C	-0.248421	1.100362	0.000086
C56	C	0.084912	1.433695	0.333419
C57	C	0.418245	1.767028	0.666752
C58	C	-0.299551	1.177276	0.000090
C59	C	0.033782	1.510609	0.333423
C60	C	0.367116	1.843942	0.666756
C61	C	-0.407688	1.166245	0.000080
C62	C	-0.074354	1.499578	0.333414
C63	C	0.258979	1.832911	0.666747
C64	C	-0.140275	1.111391	0.000095
C65	C	0.193059	1.444725	0.333428
C66	C	0.526392	1.778058	0.666761
C67	C	0.399974	1.146610	0.000080
C68	C	0.733307	1.479943	0.333413
C69	C	1.066641	1.813276	0.666747
C70	C	0.506116	1.157455	0.000073
C71	C	0.839450	1.490788	0.333406
C72	C	1.172783	1.824121	0.666740
C73	C	0.233806	1.312777	0.000106
C74	C	0.567140	1.646111	0.333439
C75	C	0.900473	1.979444	0.666773
C76	C	0.244651	1.418920	0.000109
C77	C	0.577984	1.752253	0.333442
C78	C	0.911318	2.085587	0.666775
N79	N	0.241043	1.123831	0.265612
N80	N	0.574377	1.457164	0.598946
N81	N	0.907710	1.790497	0.932279
N82	N	0.210984	1.153817	-0.265428
N83	N	0.544317	1.487151	0.067905
N84	N	0.877651	1.820484	0.401238
C85	C	0.252851	1.112065	0.474653
C86	C	0.586185	1.445398	0.807986
C87	C	0.919518	1.778731	1.141320
C88	C	0.199179	1.165580	0.525538
C89	C	0.532512	1.498914	0.858871
C90	C	0.865846	1.832247	1.192204
C91	C	0.205749	1.159034	0.641855
C92	C	0.539082	1.492367	0.975188
C93	C	0.872416	1.825700	1.308522
C94	C	0.246282	1.118610	0.358325
C95	C	0.579616	1.451944	0.691658
C96	C	0.912949	1.785277	1.024992
H97	H	0.113431	0.626945	0.000099
H98	H	0.446764	0.960278	0.333432
H99	H	0.780097	1.293612	0.666766
O100	O	0.131775	1.232783	0.467534
O101	O	0.465108	1.566116	0.800867
O102	O	0.798441	1.899450	1.134201
H103	H	0.151287	1.307122	0.488057
H104	H	0.484620	1.640456	0.821390
H105	H	0.817953	1.973789	1.154723
O106	O	0.362675	0.662834	0.000077
O107	O	0.696008	0.996167	0.333411
O108	O	1.029341	1.329500	0.666744
H109	H	0.398067	0.645728	-0.069384
H110	H	0.731400	0.979061	0.263949
H111	H	1.064733	1.312395	0.597282
H112	H	-0.285859	1.026235	0.000076
H113	H	0.047475	1.359568	0.333410
H114	H	0.380808	1.692901	0.666743
O115	O	-0.249969	1.275477	0.000117
O116	O	0.083364	1.608811	0.333451
O117	O	0.416697	1.942144	0.666784
H118	H	-0.171583	1.268846	0.000134
H119	H	0.161751	1.602179	0.333467
H120	H	0.495084	1.935513	0.666801
H121	H	0.303733	1.061336	0.518442
H122	H	0.637066	1.394669	0.851775
H123	H	0.970400	1.728002	1.185108
