data_functionalizedCrystal
_audit_creation_method	'MofGen! by Chris Wilmer'
_symmetry_space_group_name_H-M	'P1'
_symmetry_Int_Tables_number	1
_symmetry_cell_setting	triclinic
loop_
_symmetry_equiv_pos_as_xyz
  x,y,z
_cell_length_a	17.640112
_cell_length_b	12.594516
_cell_length_c	17.640968
_cell_angle_alpha	101.226052
_cell_angle_beta	92.139080
_cell_angle_gamma	78.749381
loop_
_atom_site_label
_atom_site_type_symbol
_atom_site_fract_x
_atom_site_fract_y
_atom_site_fract_z
Zn1	Zn	1.247777	0.030582	-0.195082
Zn2	Zn	1.747777	0.530582	0.304918
Zn3	Zn	1.221999	0.250176	-0.068115
Zn4	Zn	1.721999	0.750176	0.431885
Zn5	Zn	1.095106	0.099818	-0.093733
Zn6	Zn	1.595106	0.599818	0.406267
Zn7	Zn	1.120740	0.236166	-0.220696
Zn8	Zn	1.620740	0.736166	0.279304
O9	O	1.171406	0.154185	-0.144406
O10	O	1.671406	0.654185	0.355594
O11	O	1.350628	0.036599	-0.156799
O12	O	1.850628	0.536599	0.343201
O13	O	1.183650	0.265070	0.034758
O14	O	1.683650	0.765070	0.534758
O15	O	1.115419	-0.058329	-0.107179
O16	O	1.615419	0.441671	0.392821
O17	O	1.331689	0.197934	-0.063516
O18	O	1.831689	0.697934	0.436484
O19	O	1.227585	-0.109197	-0.181640
O20	O	1.727585	0.390803	0.318360
O21	O	1.090423	0.154602	0.015936
O22	O	1.590423	0.654602	0.515936
O23	O	0.992237	0.141017	-0.132015
O24	O	1.492237	0.641017	0.367985
O25	O	1.159108	0.174055	-0.323569
O26	O	1.659108	0.674055	0.176431
O27	O	1.011070	0.241191	-0.225294
O28	O	1.511070	0.741191	0.274706
O29	O	1.252441	0.023014	-0.304750
O30	O	1.752441	0.523014	0.195250
O31	O	1.208506	0.397280	-0.088353
O32	O	1.708506	0.897280	0.411647
O33	O	1.134112	0.386987	-0.200454
O34	O	1.634112	0.886987	0.299546
C35	C	0.974099	0.197097	-0.184215
C36	C	1.474099	0.697097	0.315785
C37	C	0.889693	0.215475	-0.201263
C38	C	1.389693	0.715475	0.298737
C39	C	1.171317	0.430748	-0.144415
C40	C	1.671317	0.930748	0.355585
C41	C	1.171354	0.549039	-0.144430
C42	C	1.671354	1.049039	0.355570
C43	C	0.563038	0.014552	-0.014899
C44	C	1.063038	0.514552	0.485101
C45	C	0.483729	0.031839	-0.030929
C46	C	0.983729	0.531839	0.469071
C47	C	0.503360	0.136392	-0.127893
C48	C	1.003360	0.636392	0.372107
C49	C	0.582674	0.119109	-0.111874
C50	C	1.082674	0.619109	0.388126
C51	C	0.612506	0.058190	-0.055376
C52	C	1.112506	0.558190	0.444624
C53	C	0.632141	0.162747	-0.152350
C54	C	1.132141	0.662747	0.347650
C55	C	0.711447	0.145471	-0.136330
C56	C	1.211447	0.645471	0.363670
C57	C	0.741285	0.084556	-0.079832
C58	C	1.241285	0.584556	0.420168
C59	C	0.691812	0.040913	-0.039355
C60	C	1.191812	0.540913	0.460645
C61	C	0.602306	0.223673	-0.208844
C62	C	1.102306	0.723673	0.291156
C63	C	0.651774	0.267311	-0.249321
C64	C	1.151774	0.767311	0.250679
C65	C	0.731082	0.250028	-0.233304
C66	C	1.231082	0.750028	0.266696
C67	C	0.760920	0.189114	-0.176807
C68	C	1.260920	0.689114	0.323193
C69	C	0.780555	0.293671	-0.273782
C70	C	1.280555	0.793671	0.226218
C71	C	0.859861	0.276395	-0.257761
C72	C	1.359861	0.776395	0.242239
C73	C	0.840226	0.171837	-0.160786
C74	C	1.340226	0.671837	0.339214
C75	C	1.130870	0.612747	-0.205369
C76	C	1.630870	1.112747	0.294631
C77	C	1.098345	0.710321	-0.139806
C78	C	1.598345	1.210321	0.360194
C79	C	1.203922	0.662252	-0.209996
C80	C	1.703922	1.162252	0.290004
C81	C	1.138786	0.645075	-0.078838
C82	C	1.638786	1.145075	0.421162
C83	C	1.244404	0.596977	-0.149068
C84	C	1.744404	1.096977	0.350932
C85	C	1.211896	0.694529	-0.083452
C86	C	1.711896	1.194529	0.416548
C87	C	1.369483	0.111107	-0.104443
C88	C	1.869483	0.611107	0.395557
C89	C	1.453892	0.092749	-0.087413
C90	C	1.953892	0.592749	0.412587
C91	C	1.211510	0.089249	-0.342485
C92	C	1.711510	0.589249	0.157515
C93	C	1.228600	0.061577	-0.426894
C94	C	1.728600	0.561577	0.073106
C95	C	1.171485	0.876541	-0.144416
C96	C	1.671485	1.376541	0.355584
C97	C	1.171432	0.758244	-0.144434
C98	C	1.671432	1.258244	0.355566
C99	C	1.041867	0.363765	-0.753488
C100	C	1.541867	0.863765	-0.253488
C101	C	1.057941	0.337746	-0.832800
C102	C	1.557941	0.837746	-0.332800
C103	C	1.155121	0.180480	-0.813196
C104	C	1.655121	0.680480	-0.313196
C105	C	1.139052	0.206483	-0.733881
C106	C	1.639052	0.706483	-0.233881
C107	C	1.082425	0.298128	-0.704033
C108	C	1.582425	0.798128	-0.204033
C109	C	1.179610	0.140845	-0.684426
C110	C	1.679610	0.640845	-0.184426
C111	C	1.163545	0.166850	-0.605118
C112	C	1.663545	0.666850	-0.105118
C113	C	1.106922	0.258492	-0.575264
C114	C	1.606922	0.758492	-0.075264
C115	C	1.066359	0.324132	-0.624725
C116	C	1.566359	0.824132	-0.124725
C117	C	1.236241	0.049206	-0.714275
C118	C	1.736241	0.549206	-0.214275
C119	C	1.276799	-0.016432	-0.664820
C120	C	1.776799	0.483568	-0.164820
C121	C	1.260730	0.009567	-0.585511
C122	C	1.760730	0.509567	-0.085511
C123	C	1.204107	0.101210	-0.555657
C124	C	1.704107	0.601210	-0.055657
C125	C	1.301292	-0.056073	-0.536050
C126	C	1.801292	0.443927	-0.036050
C127	C	1.285227	-0.030068	-0.456742
C128	C	1.785227	0.469932	0.043258
C129	C	1.188042	0.127214	-0.476348
C130	C	1.688042	0.627214	0.023652
C131	C	1.131501	0.218783	0.052910
C132	C	1.631501	0.718783	0.552910
C133	C	1.114559	0.246123	0.137349
C134	C	1.614559	0.746123	0.637349
H135	H	0.864519	0.122211	-0.114791
H136	H	1.364519	0.622211	0.385209
H137	H	1.141912	0.201819	-0.452049
H138	H	1.641912	0.701819	0.047951
H139	H	0.716105	-0.008713	0.006640
H140	H	1.216105	0.491287	0.506640
H141	H	1.231435	0.670686	-0.265442
H142	H	1.731435	1.170686	0.234558
H143	H	1.036607	0.759431	-0.135890
H144	H	1.536607	1.259431	0.364110
H145	H	0.756252	0.343281	-0.319777
H146	H	1.256252	0.843281	0.180223
H147	H	1.249321	0.028038	-0.778853
H148	H	1.749321	0.528038	-0.278853
H149	H	0.995737	0.438370	-0.729188
H150	H	1.495737	0.938370	-0.229188
H151	H	0.900139	0.311928	-0.290722
H152	H	1.400139	0.811928	0.209278
H153	H	1.322907	-0.091047	-0.689133
H154	H	1.822907	0.408953	-0.189133
H155	H	1.201229	0.105865	-0.837508
H156	H	1.701229	0.605865	-0.337508
H157	H	1.093845	0.279667	-0.510685
H158	H	1.593845	0.779667	-0.010685
H159	H	1.306136	0.547863	-0.153020
H160	H	1.806136	1.047863	0.346980
H161	H	1.096556	0.577050	-0.256853
H162	H	1.596556	1.077050	0.243147
H163	H	1.024910	0.391203	-0.873064
H164	H	1.524910	0.891203	-0.373064
H165	H	1.246156	0.730071	-0.031871
H166	H	1.746156	1.230071	0.468129
H167	H	1.111202	0.636789	-0.023390
H168	H	1.611202	1.136789	0.476610
H169	H	1.020230	0.398737	-0.600425
H170	H	1.520230	0.898737	-0.100425
H171	H	1.318252	-0.083518	-0.416474
H172	H	1.818252	0.416482	0.083526
H173	H	0.805861	0.070494	-0.066788
H174	H	1.305861	0.570494	0.433212
H175	H	0.587332	-0.035075	0.031096
H176	H	1.087332	0.464925	0.531096
H177	H	0.443455	-0.003710	0.002031
H178	H	0.943455	0.496290	0.502031
H179	H	1.347403	-0.130683	-0.560363
H180	H	1.847403	0.369317	-0.060363
H181	H	0.537730	0.237738	-0.221886
H182	H	1.037730	0.737738	0.278114
H183	H	0.479059	0.185997	-0.173891
H184	H	0.979059	0.685997	0.326109
H185	H	0.627473	0.316916	-0.295320
H186	H	1.127473	0.816916	0.204680
