data_functionalizedCrystal
_audit_creation_method	'MofGen! by Chris Wilmer'
_symmetry_space_group_name_H-M	'P1'
_symmetry_Int_Tables_number	1
_symmetry_cell_setting	triclinic
loop_
_symmetry_equiv_pos_as_xyz
  x,y,z
_cell_length_a	21.295417
_cell_length_b	12.759401
_cell_length_c	12.759393
_cell_angle_alpha	90.019676
_cell_angle_beta	90.038095
_cell_angle_gamma	90.030933
loop_
_atom_site_label
_atom_site_type_symbol
_atom_site_fract_x
_atom_site_fract_y
_atom_site_fract_z
Zn1	Zn	-0.250572	1.606151	0.593929
Zn2	Zn	-0.355854	1.605994	0.418226
Zn3	Zn	-0.250603	1.430450	0.418268
Zn4	Zn	-0.355808	1.430393	0.593867
O5	O	-0.303209	1.518247	0.506073
O6	O	-0.264544	1.753151	0.570630
O7	O	-0.341924	1.582665	0.271210
O8	O	-0.162509	1.453846	0.441614
O9	O	-0.341894	1.753035	0.441542
O10	O	-0.162486	1.582933	0.570671
O11	O	-0.264597	1.453694	0.271242
O12	O	-0.264553	1.283421	0.441553
O13	O	-0.341815	1.453750	0.740896
O14	O	-0.341846	1.283380	0.570565
O15	O	-0.264499	1.582878	0.740942
O16	O	-0.443937	1.582610	0.441482
O17	O	-0.443903	1.453597	0.570524
C18	C	-0.303198	1.245279	0.506058
C19	C	-0.303209	1.128503	0.506076
C20	C	-0.263005	1.073702	0.573396
C21	C	-0.263012	0.963978	0.573403
C22	C	-0.343430	0.963866	0.438767
C23	C	-0.343420	1.073588	0.438756
C24	C	-0.188813	0.814092	0.611188
C25	C	-0.148615	0.759287	0.678524
C26	C	-0.139021	0.794950	0.781065
C27	C	-0.169634	0.885416	0.816290
C28	C	-0.209836	0.940216	0.748959
C29	C	-0.219419	0.904554	0.646404
C30	C	-0.417620	1.223475	0.400982
C31	C	-0.457826	1.278276	0.333656
C32	C	-0.467427	1.242615	0.231113
C33	C	-0.436825	1.152146	0.195892
C34	C	-0.396619	1.097345	0.263218
C35	C	-0.387017	1.133013	0.365759
C36	C	-0.466761	1.518109	0.506014
C37	C	-0.536729	1.518146	0.506025
C38	C	-0.569592	1.585383	0.438901
C39	C	-0.635335	1.585432	0.438925
C40	C	-0.668211	1.518226	0.506061
C41	C	-0.635340	1.450985	0.573198
C42	C	-0.569599	1.450945	0.573180
N43	N	-0.771477	1.426319	0.514065
N44	N	-0.833928	1.426360	0.514076
C45	C	-0.866286	1.518344	0.506121
N46	N	-0.833833	1.610287	0.498134
N47	N	-0.771376	1.610245	0.498117
C48	C	-0.739497	1.518262	0.506089
C49	C	-0.970435	1.585639	0.439019
C50	C	-1.036178	1.585690	0.439050
C51	C	-1.036183	1.451233	0.573318
C52	C	-0.970440	1.451192	0.573293
C53	C	-0.937570	1.518393	0.506138
C54	C	-0.139019	1.518414	0.506154
C55	C	-0.069051	1.518485	0.506189
C56	C	-0.303149	1.518325	0.780106
C57	C	-0.303123	1.518359	0.896883
C58	C	-0.303220	1.792280	0.506088
C59	C	-0.303225	1.909057	0.506095
C60	C	-0.303224	1.518229	0.233105
C61	C	-0.303072	1.518399	0.116329
C62	C	-0.262858	1.585601	0.951770
C63	C	-0.262831	1.585619	1.061494
C64	C	-0.343339	1.451149	1.061434
C65	C	-0.343363	1.451127	0.951712
C66	C	-0.188561	1.623265	1.211488
C67	C	-0.148301	1.690524	1.266379
C68	C	-0.138650	1.793041	1.230788
C69	C	-0.169267	1.828321	1.140307
C70	C	-0.209531	1.761068	1.085421
C71	C	-0.219171	1.658536	1.121011
C72	C	-0.417633	1.413492	0.801716
C73	C	-0.457901	1.346243	0.746829
C74	C	-0.467559	1.243724	0.782418
C75	C	-0.436953	1.208448	0.872902
C76	C	-0.396685	1.275697	0.927790
C77	C	-0.387026	1.378215	0.892193
H78	H	-0.482735	1.351952	0.362336
C79	C	-0.511859	1.169753	0.722038
N80	N	-0.545223	1.114037	0.676562
H81	H	-0.376102	1.396414	1.106089
H82	H	-0.482828	1.374978	0.673158
H83	H	-0.230090	1.640343	0.907132
H84	H	-1.062935	1.640449	0.384392
H85	H	-0.409768	1.496969	0.772725
H86	H	-0.161824	0.914440	0.899794
C87	C	-0.533439	1.659296	0.365017
N88	N	-0.506207	1.714963	0.309363
H89	H	-0.234758	1.013875	0.777637
C90	C	-0.218766	1.134105	0.647441
N91	N	-0.185441	1.179597	0.703211
C92	C	-0.447576	1.095671	0.912054
N93	N	-0.455580	1.010725	0.941540
H94	H	-0.106290	0.750321	0.835891
C95	C	-0.158650	1.941101	1.101166
N96	N	-0.150650	2.026048	1.071680
H97	H	-0.105869	1.847803	1.275488
C98	C	-0.363014	1.236887	1.027323
N99	N	-0.337653	1.207655	1.102289
H100	H	-0.123690	0.685630	0.649834
C101	C	-0.671492	1.659395	0.365075
N102	N	-0.698723	1.715102	0.309448
C103	C	-0.243205	1.799867	0.985894
N104	N	-0.268565	1.829091	0.910923
H105	H	-0.376170	0.919140	0.383959
C106	C	-0.362953	0.997828	0.224468
N107	N	-0.337595	0.922873	0.195282
C108	C	-0.199358	0.774861	0.498384
N109	N	-0.207301	0.745305	0.413419
C110	C	-0.199168	1.510486	1.250640
N111	N	-0.207157	1.425539	1.280134
H112	H	-0.444645	1.123106	0.112395
H113	H	-0.500184	1.287225	0.176309
H114	H	-0.542841	1.396192	0.627841
H115	H	-0.409801	1.252525	0.484478
C116	C	-0.671506	1.377054	0.647044
N117	N	-0.698745	1.321368	0.702669
H118	H	-0.943671	1.640363	0.384341
H119	H	-1.062950	1.396517	0.627986
H120	H	-0.123373	1.661790	1.340049
C121	C	-0.934289	1.377246	0.647156
N122	N	-0.907060	1.321559	0.702806
