data_functionalizedCrystal
_audit_creation_method	'MofGen! by Chris Wilmer'
_symmetry_space_group_name_H-M	'P1'
_symmetry_Int_Tables_number	1
_symmetry_cell_setting	triclinic
loop_
_symmetry_equiv_pos_as_xyz
  x,y,z
_cell_length_a	17.038272
_cell_length_b	17.038272
_cell_length_c	12.503572
_cell_angle_alpha	93.777379
_cell_angle_beta	86.232200
_cell_angle_gamma	91.111556
loop_
_atom_site_label
_atom_site_type_symbol
_atom_site_fract_x
_atom_site_fract_y
_atom_site_fract_z
O1	O	1.052975	0.166301	-0.089187
O2	O	1.386308	0.499634	0.244147
O3	O	1.719641	0.832968	0.577480
O4	O	0.825165	0.163592	-0.089218
O5	O	1.158498	0.496925	0.244115
O6	O	1.491831	0.830258	0.577449
O7	O	0.937715	0.051041	-0.089194
O8	O	1.271049	0.384374	0.244139
O9	O	1.604382	0.717708	0.577473
O10	O	0.940424	0.278852	-0.089211
O11	O	1.273757	0.612185	0.244123
O12	O	1.607091	0.945519	0.577456
O13	O	0.929252	0.059521	0.089446
O14	O	1.262585	0.392854	0.422779
O15	O	1.595918	0.726187	0.756113
O16	O	0.816701	0.172071	0.089422
O17	O	1.150034	0.505405	0.422755
O18	O	1.483368	0.838738	0.756089
O19	O	1.044511	0.174781	0.089454
O20	O	1.377845	0.508114	0.422787
O21	O	1.711178	0.841447	0.756120
Cu22	Cu	0.929833	0.174200	0.105749
Cu23	Cu	1.263167	0.507534	0.439082
Cu24	Cu	1.596500	0.840867	0.772416
Cu25	Cu	0.939842	0.164172	-0.105514
Cu26	Cu	1.273176	0.497506	0.227820
Cu27	Cu	1.606509	0.830839	0.561153
O28	O	0.931960	0.287331	0.089429
O29	O	1.265294	0.620665	0.422763
O30	O	1.598627	0.953998	0.756096
C31	C	0.791640	0.165368	0.000098
C32	C	1.124974	0.498702	0.333431
C33	C	1.458307	0.832035	0.666765
C34	C	0.704357	0.158020	0.000086
C35	C	1.037691	0.491353	0.333419
C36	C	1.371024	0.824686	0.666753
C37	C	0.658748	0.225483	0.000082
C38	C	0.992082	0.558817	0.333415
C39	C	1.325415	0.892150	0.666749
C40	C	0.576736	0.218575	0.000097
C41	C	0.910069	0.551908	0.333431
C42	C	1.243402	0.885242	0.666764
C43	C	0.540334	0.144202	0.000109
C44	C	0.873667	0.477536	0.333442
C45	C	1.207001	0.810869	0.666776
C46	C	0.585949	0.076734	0.000116
C47	C	0.919282	0.410067	0.333450
C48	C	1.252616	0.743401	0.666783
C49	C	0.667960	0.083643	0.000109
C50	C	1.001293	0.416977	0.333442
C51	C	1.334626	0.750310	0.666775
C52	C	0.292945	0.119793	0.000140
C53	C	0.626278	0.453126	0.333473
C54	C	0.959611	0.786460	0.666806
C55	C	0.210928	0.112889	0.000144
C56	C	0.544261	0.446222	0.333477
C57	C	0.877595	0.779555	0.666811
C58	C	0.201720	0.254731	0.000127
C59	C	0.535054	0.588064	0.333460
C60	C	0.868387	0.921397	0.666794
C61	C	0.283733	0.261633	0.000113
C62	C	0.617067	0.594966	0.333446
C63	C	0.950400	0.928300	0.666780
C64	C	0.329341	0.194165	0.000126
C65	C	0.662674	0.527498	0.333459
C66	C	0.996007	0.860832	0.666792
C67	C	0.456504	0.137139	0.000121
C68	C	0.789838	0.470472	0.333455
C69	C	1.123171	0.803806	0.666788
C70	C	0.413169	0.201229	0.000121
C71	C	0.746502	0.534563	0.333455
C72	C	1.079835	0.867896	0.666788
C73	C	0.931021	0.025988	0.000126
C74	C	1.264354	0.359321	0.333459
C75	C	1.597687	0.692655	0.666792
C76	C	0.923673	-0.061296	0.000124
C77	C	1.257006	0.272038	0.333458
C78	C	1.590339	0.605371	0.666791
C79	C	0.991136	-0.106904	0.000135
C80	C	1.324469	0.226429	0.333468
C81	C	1.657803	0.559762	0.666801
C82	C	0.984227	-0.188917	0.000124
C83	C	1.317561	0.144417	0.333457
C84	C	1.650894	0.477750	0.666790
C85	C	0.909855	-0.225318	0.000110
C86	C	1.243188	0.108015	0.333443
C87	C	1.576521	0.441348	0.666776
C88	C	0.842387	-0.179704	0.000096
C89	C	1.175720	0.153630	0.333429
C90	C	1.509053	0.486963	0.666763
C91	C	0.849296	-0.097693	0.000099
C92	C	1.182630	0.235640	0.333433
C93	C	1.515963	0.568973	0.666766
C94	C	0.885445	-0.472707	0.000092
C95	C	1.218778	-0.139374	0.333425
C96	C	1.552112	0.193959	0.666758
C97	C	0.878540	-0.554724	0.000091
C98	C	1.211874	-0.221390	0.333425
C99	C	1.545207	0.111943	0.666758
C100	C	1.020382	-0.563931	0.000117
C101	C	1.353715	-0.230598	0.333450
C102	C	1.687049	0.102736	0.666784
C103	C	1.027285	-0.481918	0.000127
C104	C	1.360618	-0.148585	0.333460
C105	C	1.693951	0.184748	0.666794
C106	C	0.959817	-0.436311	0.000107
C107	C	1.293150	-0.102978	0.333441
C108	C	1.626483	0.230356	0.666774
C109	C	0.902791	-0.309148	0.000102
C110	C	1.236125	0.024185	0.333435
C111	C	1.569458	0.357519	0.666768
C112	C	0.966881	-0.352483	0.000108
C113	C	1.300215	-0.019150	0.333441
C114	C	1.633548	0.314183	0.666774
C115	C	1.078036	0.173004	0.000135
C116	C	1.411369	0.506337	0.333468
C117	C	1.744702	0.839671	0.666802
C118	C	1.165319	0.180352	0.000140
C119	C	1.498652	0.513685	0.333473
C120	C	1.831986	0.847019	0.666807
C121	C	0.938655	0.312384	0.000107
C122	C	1.271989	0.645718	0.333441
C123	C	1.605322	0.979051	0.666774
C124	C	0.946004	0.399668	0.000102
C125	C	1.279337	0.733001	0.333435
C126	C	1.612670	1.066334	0.666768
N127	N	0.922799	0.181253	0.254340
N128	N	1.256133	0.514587	0.587673
N129	N	1.589466	0.847920	0.921006
N130	N	0.946882	0.157113	-0.254104
N131	N	1.280216	0.490447	0.079229
N132	N	1.613549	0.823780	0.412562
C133	C	0.912452	0.191635	0.473453
C134	C	1.245785	0.524968	0.806786
C135	C	1.579119	0.858302	1.140119
C136	C	0.957227	0.146734	0.526789
C137	C	1.290560	0.480067	0.860123
C138	C	1.623894	0.813401	1.193456
C139	C	0.951470	0.152511	0.648711
C140	C	1.284803	0.485844	0.982045
C141	C	1.618136	0.819177	1.315378
C142	C	0.918208	0.185859	0.351520
C143	C	1.251542	0.519193	0.684853
C144	C	1.584875	0.852526	1.018186
H145	H	0.539604	0.273511	0.000093
H146	H	0.872937	0.606845	0.333426
H147	H	1.206271	0.940178	0.666759
H148	H	0.781831	-0.209349	0.000078
H149	H	1.115164	0.123984	0.333411
H150	H	1.448498	0.457318	0.666744
F151	F	0.451911	0.280380	0.000113
F152	F	0.785245	0.613713	0.333446
F153	F	1.118578	0.947047	0.666780
H154	H	0.794360	-0.060559	0.000091
H155	H	1.127694	0.272774	0.333424
H156	H	1.461027	0.606107	0.666757
H157	H	0.426855	0.076586	0.000161
H158	H	0.760189	0.409919	0.333495
H159	H	1.093522	0.743252	0.666828
F160	F	0.823641	-0.347897	0.000082
F161	F	1.156974	-0.014564	0.333416
F162	F	1.490307	0.318770	0.666749
F163	F	0.697482	0.304641	0.000062
F164	F	1.030816	0.637974	0.333396
F165	F	1.364149	0.971308	0.666729
F166	F	0.322469	0.340790	0.000095
F167	F	0.655802	0.674124	0.333428
F168	F	0.989135	1.007457	0.666761
H169	H	0.999884	0.103955	0.480886
H170	H	1.333218	0.437288	0.814219
H171	H	1.666551	0.770622	1.147552
H172	H	0.164578	0.309659	0.000119
H173	H	0.497911	0.642992	0.333452
H174	H	0.831245	0.976326	0.666785
F175	F	0.172188	0.033728	0.000175
F176	F	0.505521	0.367062	0.333509
F177	F	0.838854	0.700395	0.666842
F178	F	1.046032	-0.313741	0.000116
F179	F	1.379365	0.019593	0.333450
F180	F	1.712699	0.352926	0.666783
F181	F	0.856701	0.247550	0.533446
F182	F	1.190034	0.580883	0.866780
F183	F	1.523368	0.914216	1.200113
H184	H	0.330069	0.064855	0.000151
H185	H	0.663402	0.398189	0.333484
H186	H	0.996735	0.731522	0.666818
H187	H	0.705094	0.028707	0.000111
H188	H	1.038427	0.362040	0.333445
H189	H	1.371761	0.695374	0.666778
F190	F	0.547205	-0.002419	0.000136
F191	F	0.880538	0.330914	0.333469
F192	F	1.213872	0.664247	0.666802
H193	H	1.051698	-0.077272	0.000153
H194	H	1.385031	0.256061	0.333486
H195	H	1.718364	0.589395	0.666819
F196	F	1.056032	-0.237454	0.000137
F197	F	1.389365	0.095880	0.333470
F198	F	1.722698	0.429213	0.666803
H199	H	1.087846	-0.452286	0.000138
H200	H	1.421180	-0.118953	0.333472
H201	H	1.754513	0.214381	0.666805
F202	F	1.092181	-0.612475	0.000136
F203	F	1.425514	-0.279142	0.333469
F204	F	1.758847	0.054192	0.666803
H205	H	0.830508	-0.435583	0.000076
H206	H	1.163841	-0.102250	0.333409
H207	H	1.497174	0.231083	0.666743
F208	F	0.799379	-0.593463	0.000082
F209	F	1.132712	-0.260130	0.333415
F210	F	1.466046	0.073204	0.666748
