data_functionalizedCrystal
_audit_creation_method	'MofGen! by Chris Wilmer'
_symmetry_space_group_name_H-M	'P1'
_symmetry_Int_Tables_number	1
_symmetry_cell_setting	triclinic
loop_
_symmetry_equiv_pos_as_xyz
  x,y,z
_cell_length_a	18.215407
_cell_length_b	16.625546
_cell_length_c	18.215399
_cell_angle_alpha	90.029176
_cell_angle_beta	90.017368
_cell_angle_gamma	90.019912
loop_
_atom_site_label
_atom_site_type_symbol
_atom_site_fract_x
_atom_site_fract_y
_atom_site_fract_z
Zn1	Zn	1.125084	-0.321065	0.416061
Zn2	Zn	1.458418	0.012268	0.749395
Zn3	Zn	1.791751	0.345602	1.082728
Zn4	Zn	1.124998	-0.455905	0.292992
Zn5	Zn	1.458331	-0.122572	0.626326
Zn6	Zn	1.791665	0.210761	0.959659
Zn7	Zn	1.002017	-0.321084	0.293014
Zn8	Zn	1.335350	0.012249	0.626347
Zn9	Zn	1.668684	0.345582	0.959681
Zn10	Zn	1.001988	-0.455853	0.416022
Zn11	Zn	1.335321	-0.122520	0.749356
Zn12	Zn	1.668655	0.210813	1.082689
O13	O	1.063522	-0.388477	0.354522
O14	O	1.396855	-0.055144	0.687856
O15	O	1.730188	0.278190	1.021189
O16	O	1.228057	-0.338965	0.399743
O17	O	1.561390	-0.005632	0.733076
O18	O	1.894724	0.327701	1.066410
O19	O	1.108660	-0.438051	0.190011
O20	O	1.441993	-0.104717	0.523344
O21	O	1.775327	0.228616	0.856677
O22	O	1.018390	-0.208249	0.309362
O23	O	1.351724	0.125084	0.642695
O24	O	1.685057	0.458417	0.976028
O25	O	1.227994	-0.438032	0.309325
O26	O	1.561327	-0.104699	0.642658
O27	O	1.894660	0.228635	0.975991
O28	O	1.108807	-0.208235	0.399764
O29	O	1.442141	0.125098	0.733097
O30	O	1.775474	0.458432	1.066431
O31	O	1.018306	-0.338998	0.190027
O32	O	1.351640	-0.005665	0.523360
O33	O	1.684973	0.327668	0.856693
O34	O	0.899029	-0.338948	0.309324
O35	O	1.232362	-0.005615	0.642657
O36	O	1.565695	0.327719	0.975991
O37	O	1.018341	-0.437943	0.519012
O38	O	1.351674	-0.104610	0.852345
O39	O	1.685008	0.228723	1.185679
O40	O	0.899008	-0.437962	0.399698
O41	O	1.232341	-0.104629	0.733031
O42	O	1.565674	0.228705	1.066365
O43	O	1.108779	-0.338915	0.519040
O44	O	1.442113	-0.005582	0.852374
O45	O	1.775446	0.327752	1.185707
O46	O	1.108632	-0.568731	0.309287
O47	O	1.441965	-0.235397	0.642621
O48	O	1.775299	0.097936	0.975954
O49	O	1.018257	-0.568693	0.399677
O50	O	1.351591	-0.235359	0.733010
O51	O	1.684924	0.097974	1.066344
C52	C	0.872315	-0.388452	0.354510
C53	C	1.205649	-0.055119	0.687843
C54	C	1.538982	0.278215	1.021176
C55	C	0.790517	-0.388461	0.354521
C56	C	1.123850	-0.055128	0.687855
C57	C	1.457183	0.278206	1.021188
C58	C	0.602355	-0.336983	0.401677
C59	C	0.935688	-0.003650	0.735010
C60	C	1.269021	0.329684	1.068343
C61	C	0.525496	-0.336990	0.401679
C62	C	0.858829	-0.003657	0.735012
C63	C	1.192163	0.329677	1.068346
C64	C	0.525441	-0.439993	0.307381
C65	C	0.858774	-0.106660	0.640715
C66	C	1.192107	0.226673	0.974048
C67	C	0.602298	-0.439982	0.307376
C68	C	0.935631	-0.106648	0.640709
C69	C	1.268965	0.226685	0.974042
C70	C	0.640753	-0.388478	0.354527
C71	C	0.974086	-0.055144	0.687861
C72	C	1.307420	0.278189	1.021194
C73	C	0.487037	-0.388496	0.354536
C74	C	0.820370	-0.055163	0.687869
C75	C	1.153704	0.278170	1.021202
C76	C	0.403703	-0.388504	0.354538
C77	C	0.737037	-0.055171	0.687871
C78	C	1.070370	0.278163	1.021205
C79	C	0.724092	-0.388469	0.354524
C80	C	1.057425	-0.055135	0.687858
C81	C	1.390759	0.278198	1.021191
C82	C	1.063452	-0.597968	0.354492
C83	C	1.396785	-0.264634	0.687825
C84	C	1.730119	0.068699	1.021158
C85	C	1.063490	-0.687589	0.354503
C86	C	1.396823	-0.354256	0.687836
C87	C	1.730156	-0.020922	1.021170
C88	C	1.063618	-1.015764	0.354580
C89	C	1.396951	-0.682431	0.687913
C90	C	1.730285	-0.349098	1.021246
C91	C	1.063580	-0.924456	0.354560
C92	C	1.396913	-0.591123	0.687894
C93	C	1.730247	-0.257789	1.021227
C94	C	1.063553	-0.851680	0.354541
C95	C	1.396887	-0.518346	0.687874
C96	C	1.730220	-0.185013	1.021208
C97	C	1.063516	-0.760365	0.354522
C98	C	1.396850	-0.427032	0.687856
C99	C	1.730183	-0.093699	1.021189
C100	C	1.255475	-0.388502	0.354536
C101	C	1.588808	-0.055169	0.687869
C102	C	1.922141	0.278164	1.021202
C103	C	1.337273	-0.388513	0.354541
C104	C	1.670607	-0.055180	0.687875
C105	C	2.003940	0.278153	1.021208
C106	C	1.063567	-0.388421	0.546475
C107	C	1.396900	-0.055088	0.879809
C108	C	1.730233	0.278245	1.213142
C109	C	1.063586	-0.388398	0.628274
C110	C	1.396919	-0.055064	0.961608
C111	C	1.730252	0.278269	1.294941
C112	C	1.063612	-0.178168	0.354569
C113	C	1.396945	0.155165	0.687903
C114	C	1.730278	0.488499	1.021236
C115	C	1.063650	-0.088547	0.354590
C116	C	1.396983	0.244787	0.687923
C117	C	1.730317	0.578120	1.021256
C118	C	1.063519	-0.388474	0.163316
C119	C	1.396853	-0.055141	0.496650
C120	C	1.730186	0.278193	0.829983
C121	C	1.063643	-0.388271	0.081518
C122	C	1.396976	-0.054937	0.414851
C123	C	1.730310	0.278396	0.748184
C124	C	1.110694	-0.336785	0.816484
C125	C	1.444027	-0.003452	1.149818
C126	C	1.777361	0.329881	1.483151
C127	C	1.110703	-0.336762	0.893343
C128	C	1.444036	-0.003428	1.226677
C129	C	1.777369	0.329905	1.560010
C130	C	1.016530	-0.439885	0.893302
C131	C	1.349863	-0.106552	1.226636
C132	C	1.683196	0.226781	1.559969
C133	C	1.016518	-0.439904	0.816445
C134	C	1.349851	-0.106571	1.149778
C135	C	1.683184	0.226763	1.483112
C136	C	1.063604	-0.388355	0.778038
C137	C	1.396937	-0.055022	1.111371
C138	C	1.730271	0.278311	1.444705
C139	C	1.063625	-0.388313	0.931754
C140	C	1.396958	-0.054980	1.265087
C141	C	1.730291	0.278354	1.598421
C142	C	1.063634	-0.388288	1.015088
C143	C	1.396967	-0.054955	1.348421
C144	C	1.730300	0.278379	1.681755
C145	C	1.063594	-0.388379	0.694699
C146	C	1.396927	-0.055046	1.028032
C147	C	1.730261	0.278288	1.361366
H148	H	0.494121	-0.481927	0.268993
H149	H	0.827455	-0.148593	0.602326
H150	H	1.160788	0.184740	0.935659
H151	H	1.149033	-0.294809	0.785216
H152	H	1.482366	0.038525	1.118549
H153	H	1.815699	0.371858	1.451882
C154	C	0.974736	-0.485650	1.011102
C155	C	1.308070	-0.152317	1.344435
C156	C	1.641403	0.181017	1.677769
C157	C	0.964780	-0.496552	0.935522
C158	C	1.298113	-0.163219	1.268855
C159	C	1.631446	0.170115	1.602189
H160	H	0.942791	-0.520640	1.037164
H161	H	1.276124	-0.187306	1.370497
H162	H	1.609457	0.146027	1.703830
H163	H	0.963987	-0.431478	1.023707
H164	H	1.297321	-0.098144	1.357040
H165	H	1.630654	0.235189	1.690374
H166	H	1.024183	-0.497453	1.023693
H167	H	1.357516	-0.164120	1.357026
H168	H	1.690850	0.169214	1.690360
H169	H	0.915334	-0.484743	0.922930
H170	H	1.248667	-0.151410	1.256263
H171	H	1.582001	0.181924	1.589597
H172	H	0.975524	-0.550737	0.922912
H173	H	1.308857	-0.217403	1.256245
H174	H	1.642190	0.115930	1.589579
C175	C	0.923436	-0.541848	0.824118
C176	C	1.256769	-0.208514	1.157452
C177	C	1.590102	0.124819	1.490785
C178	C	0.964755	-0.496598	0.774179
C179	C	1.298089	-0.163264	1.107512
C180	C	1.631422	0.170069	1.440845
H181	H	0.891484	-0.576848	0.798023
H182	H	1.224818	-0.243514	1.131356
H183	H	1.558151	0.089819	1.464690
H184	H	0.895303	-0.506710	0.854099
H185	H	1.228636	-0.173376	1.187432
H186	H	1.561970	0.159957	1.520765
H187	H	0.955500	-0.572684	0.854094
H188	H	1.288833	-0.239351	1.187427
H189	H	1.622166	0.093982	1.520761
H190	H	0.932691	-0.465757	0.744206
H191	H	1.266025	-0.132423	1.077540
H192	H	1.599358	0.200910	1.410873
H193	H	0.992890	-0.531740	0.744186
H194	H	1.326223	-0.198407	1.077519
H195	H	1.659557	0.134926	1.410852
C196	C	1.203794	-0.234841	0.885658
C197	C	1.537127	0.098492	1.218992
C198	C	1.870460	0.431826	1.552325
C199	C	1.162469	-0.280078	0.935603
C200	C	1.495802	0.053255	1.268937
C201	C	1.829136	0.386588	1.602270
H202	H	1.235756	-0.199849	0.911750
H203	H	1.569089	0.133484	1.245083
H204	H	1.902422	0.466818	1.578416
H205	H	1.171739	-0.204004	0.855685
H206	H	1.505072	0.129330	1.189019
H207	H	1.838406	0.462663	1.522352
H208	H	1.231922	-0.269993	0.855676
H209	H	1.565255	0.063340	1.189009
H210	H	1.898589	0.396673	1.522343
H211	H	1.134337	-0.244926	0.965582
H212	H	1.467670	0.088407	1.298916
H213	H	1.801003	0.421741	1.632249
H214	H	1.194528	-0.310918	0.965589
H215	H	1.527861	0.022416	1.298923
H216	H	1.861195	0.355749	1.632256
C217	C	0.626068	-0.297869	0.526355
C218	C	0.959401	0.035464	0.859688
C219	C	1.292734	0.368797	1.193022
C220	C	0.644625	-0.280366	0.453501
C221	C	0.977958	0.052967	0.786834
C222	C	1.311291	0.386301	1.120167
H223	H	0.652160	-0.262910	0.558347
H224	H	0.985493	0.070423	0.891681
H225	H	1.318826	0.403756	1.225014
H226	H	0.638661	-0.352050	0.537033
H227	H	0.971994	-0.018717	0.870367
H228	H	1.305328	0.314617	1.203700
H229	H	0.574797	-0.290505	0.533095
H230	H	0.908130	0.042829	0.866428
H231	H	1.241464	0.376162	1.199762
H232	H	0.695895	-0.287736	0.446759
H233	H	1.029228	0.045597	0.780093
H234	H	1.362562	0.378930	1.113426
H235	H	0.632036	-0.226172	0.442818
H236	H	0.965370	0.107161	0.776152
H237	H	1.298703	0.440494	1.109485
C238	C	0.407706	-0.291268	0.443557
C239	C	0.741039	0.042065	0.776890
C240	C	1.074372	0.375399	1.110223
C241	C	0.483287	-0.280388	0.453509
C242	C	0.816621	0.052945	0.786842
C243	C	1.149954	0.386278	1.120176
H244	H	0.381650	-0.256318	0.475553
H245	H	0.714983	0.077015	0.808886
H246	H	1.048317	0.410348	1.142220
H247	H	0.395106	-0.345453	0.454240
H248	H	0.728439	-0.012120	0.787573
H249	H	1.061773	0.321213	1.120906
H250	H	0.395102	-0.279396	0.394128
H251	H	0.728436	0.053937	0.727461
H252	H	1.061769	0.387270	1.060795
H253	H	0.495892	-0.292266	0.502936
H254	H	0.829225	0.041068	0.836270
H255	H	1.162559	0.374401	1.169603
H256	H	0.495892	-0.226191	0.442831
H257	H	0.829226	0.107143	0.776164
H258	H	1.162559	0.440476	1.109498
C259	C	0.594530	-0.541808	0.214168
C260	C	0.927863	-0.208475	0.547502
C261	C	1.261196	0.124859	0.880835
C262	C	0.644512	-0.496592	0.255547
C263	C	0.977845	-0.163258	0.588881
C264	C	1.311178	0.170075	0.922214
H265	H	0.620592	-0.576756	0.182176
H266	H	0.953926	-0.243423	0.515510
H267	H	1.287259	0.089910	0.848843
H268	H	0.564550	-0.506646	0.186077
H269	H	0.897884	-0.173313	0.519410
H270	H	1.231217	0.160021	0.852743
H271	H	0.564557	-0.572698	0.246192
H272	H	0.897891	-0.239365	0.579526
H273	H	1.231224	0.093968	0.912859
H274	H	0.674481	-0.465697	0.223523
H275	H	1.007814	-0.132363	0.556857
H276	H	1.341147	0.200970	0.890190
H277	H	0.674504	-0.531758	0.283641
H278	H	1.007837	-0.198425	0.616974
H279	H	1.341170	0.134908	0.950308
