data_functionalizedCrystal
_audit_creation_method	'MofGen! by Chris Wilmer'
_symmetry_space_group_name_H-M	'P1'
_symmetry_Int_Tables_number	1
_symmetry_cell_setting	triclinic
loop_
_symmetry_equiv_pos_as_xyz
  x,y,z
_cell_length_a	19.188905
_cell_length_b	19.188924
_cell_length_c	9.016244
_cell_angle_alpha	89.995687
_cell_angle_beta	89.985546
_cell_angle_gamma	83.138260
loop_
_atom_site_label
_atom_site_type_symbol
_atom_site_fract_x
_atom_site_fract_y
_atom_site_fract_z
O1	O	0.926157	0.087082	-0.123591
O2	O	1.426157	0.587082	0.376409
O3	O	0.722843	0.098834	-0.123542
O4	O	1.222843	0.598834	0.376458
O5	O	0.830370	-0.008698	-0.123550
O6	O	1.330370	0.491302	0.376450
O7	O	0.818630	0.194615	-0.123582
O8	O	1.318630	0.694615	0.376418
O9	O	0.830354	-0.008696	0.123130
O10	O	1.330354	0.491304	0.623130
O11	O	0.722827	0.098837	0.123139
O12	O	1.222827	0.598837	0.623139
O13	O	0.926141	0.087084	0.123089
O14	O	1.426141	0.587084	0.623089
Cu15	Cu	0.824483	0.092961	0.145638
Cu16	Cu	1.324483	0.592961	0.645638
Cu17	Cu	0.824501	0.092958	-0.146090
Cu18	Cu	1.324501	0.592958	0.353910
O19	O	0.818615	0.194617	0.123098
O20	O	1.318615	0.694617	0.623098
C21	C	0.696824	0.098458	-0.000195
C22	C	1.196824	0.598458	0.499805
C23	C	0.619318	0.097324	-0.000175
C24	C	1.119318	0.597324	0.499825
C25	C	0.829982	-0.034708	-0.000209
C26	C	1.329982	0.465292	0.499791
C27	C	0.828844	-0.112213	-0.000204
C28	C	1.328844	0.387787	0.499796
C29	C	0.828321	-0.148613	-0.134670
C30	C	1.328321	0.351387	0.365330
C31	C	0.827241	-0.221436	-0.134681
C32	C	1.327241	0.278564	0.365319
C33	C	0.826698	-0.257857	-0.000219
C34	C	1.326698	0.242143	0.499781
C35	C	0.827217	-0.221448	0.134265
C36	C	1.327217	0.278552	0.634265
C37	C	0.828290	-0.148626	0.134272
C38	C	1.328290	0.351374	0.634272
N39	N	0.864740	-0.377523	0.099849
N40	N	1.364740	0.122477	0.599849
N41	N	0.863722	-0.446701	0.099833
N42	N	1.363722	0.053299	0.599833
C43	C	0.823464	-0.477266	-0.000232
C44	C	1.323464	0.022734	0.499768
N45	N	0.784270	-0.436041	-0.100304
N46	N	1.284270	0.063959	0.399696
N47	N	0.785291	-0.366857	-0.100292
N48	N	1.285291	0.133143	0.399708
C49	C	0.825534	-0.336821	-0.000212
C50	C	1.325534	0.163179	0.499788
C51	C	0.821769	-0.592629	-0.134719
C52	C	1.321769	-0.092629	0.365281
C53	C	0.820685	-0.665452	-0.134725
C54	C	1.320685	-0.165452	0.365275
C55	C	0.820668	-0.665464	0.134225
C56	C	1.320668	-0.165464	0.634225
C57	C	0.821745	-0.592641	0.134227
C58	C	1.321745	-0.092641	0.634227
C59	C	0.822299	-0.556228	-0.000250
C60	C	1.322299	-0.056228	0.499750
C61	C	0.582935	0.096778	-0.134644
C62	C	1.082935	0.596778	0.365356
C63	C	0.510112	0.095705	-0.134663
C64	C	1.010112	0.595705	0.365337
C65	C	0.473676	0.095164	-0.000204
C66	C	0.973676	0.595164	0.499796
C67	C	0.510067	0.095714	0.134283
C68	C	1.010067	0.595714	0.634283
C69	C	0.582889	0.096794	0.134298
C70	C	1.082889	0.596794	0.634298
N71	N	0.364650	0.053736	0.099867
N72	N	0.864650	0.553736	0.599867
N73	N	0.295473	0.052709	0.099845
N74	N	0.795473	0.552709	0.599845
C75	C	0.254269	0.091911	-0.000239
C76	C	0.754269	0.591911	0.499761
N77	N	0.284857	0.132172	-0.100322
N78	N	0.784857	0.632172	0.399678
N79	N	0.354040	0.133196	-0.100303
N80	N	0.854040	0.633196	0.399697
C81	C	0.394713	0.093993	-0.000205
C82	C	0.894713	0.593993	0.499795
C83	C	0.138922	0.090203	-0.134738
C84	C	0.638922	0.590203	0.365262
C85	C	0.066097	0.089134	-0.134750
C86	C	0.566097	0.589134	0.365250
C87	C	0.066055	0.089136	0.134200
C88	C	0.566055	0.589136	0.634200
C89	C	0.138878	0.090212	0.134208
C90	C	0.638878	0.590212	0.634208
C91	C	0.175308	0.090742	-0.000264
C92	C	0.675308	0.590742	0.499736
C93	C	0.952160	0.087461	-0.000261
C94	C	1.452160	0.587461	0.499739
C95	C	1.029666	0.088594	-0.000290
C96	C	1.529666	0.588594	0.499710
C97	C	0.819002	0.220627	-0.000247
C98	C	1.319002	0.720627	0.499753
C99	C	0.820141	0.298132	-0.000261
C100	C	1.320141	0.798132	0.499739
N101	N	0.824475	0.092962	0.350824
N102	N	1.324475	0.592962	0.850824
N103	N	0.824515	0.092951	-0.351277
N104	N	1.324515	0.592951	0.148723
C105	C	0.766783	0.150297	0.585862
C106	C	1.266783	0.650297	1.085862
C107	C	0.766907	0.150507	0.413971
C108	C	1.266907	0.650507	0.913971
C109	C	0.897280	0.108646	0.413142
C110	C	1.397280	0.608646	0.913142
C111	C	0.896964	0.109051	0.585086
C112	C	1.396964	0.609051	1.085086
C113	C	0.810089	0.019750	0.585384
C114	C	1.310089	0.519750	1.085384
C115	C	0.808408	0.020246	0.413430
C116	C	1.308408	0.520246	0.913430
H117	H	0.828770	-0.118970	-0.244172
H118	H	1.328770	0.381030	0.255828
H119	H	0.822177	-0.563004	0.243724
H120	H	1.322177	-0.063004	0.743724
H121	H	0.820255	-0.695088	-0.244227
H122	H	1.320255	-0.195088	0.255773
H123	H	0.712782	0.141196	0.371842
H124	H	1.212782	0.641196	0.871842
H125	H	0.822216	-0.562980	-0.244218
H126	H	1.322216	-0.062980	0.255782
H127	H	0.036474	0.088694	-0.244256
H128	H	0.536474	0.588694	0.255744
H129	H	0.168584	0.090642	-0.244234
H130	H	0.668584	0.590642	0.255766
H131	H	0.754853	0.008338	0.372704
H132	H	1.254853	0.508338	0.872704
H133	H	0.941253	0.068918	0.626665
H134	H	1.441253	0.568918	1.126665
H135	H	0.820220	-0.695117	0.243707
H136	H	1.320220	-0.195117	0.743707
H137	H	0.036389	0.088700	0.243679
H138	H	0.536389	0.588700	0.743679
H139	H	0.776091	0.204835	0.372812
H140	H	1.276091	0.704835	0.872812
H141	H	0.941253	0.067981	0.372233
H142	H	1.441253	0.567981	0.872233
H143	H	0.909710	0.162429	0.625163
H144	H	1.409710	0.662429	1.125163
H145	H	0.828713	-0.118988	0.243774
H146	H	1.328713	0.381012	0.743774
H147	H	0.910333	0.161416	0.370051
H148	H	1.410333	0.661416	0.870051
H149	H	0.480397	0.095275	0.243761
H150	H	0.980397	0.595275	0.743761
H151	H	0.612511	0.097239	0.243803
H152	H	1.112511	0.597239	0.743803
H153	H	0.480482	0.095262	-0.244167
H154	H	0.980482	0.595262	0.255833
H155	H	0.168502	0.090652	0.243708
H156	H	0.668502	0.590652	0.743708
H157	H	0.712487	0.141141	0.627271
H158	H	1.212487	0.641141	1.127271
H159	H	0.826811	-0.251078	-0.244183
H160	H	1.326811	0.248922	0.255817
H161	H	0.775844	0.204317	0.629043
H162	H	1.275844	0.704317	1.129043
H163	H	0.612592	0.097210	-0.244143
H164	H	1.112592	0.597210	0.255857
H165	H	0.758169	0.004610	0.628848
H166	H	1.258169	0.504610	1.128848
H167	H	0.847739	-0.024409	0.370452
H168	H	1.347739	0.475591	0.870452
H169	H	0.852192	-0.022923	0.626033
H170	H	1.352192	0.477077	1.126033
H171	H	0.826773	-0.251106	0.243745
H172	H	1.326773	0.248894	0.743745
