data_functionalizedCrystal
_audit_creation_method	'MofGen! by Chris Wilmer'
_symmetry_space_group_name_H-M	'P1'
_symmetry_Int_Tables_number	1
_symmetry_cell_setting	triclinic
loop_
_symmetry_equiv_pos_as_xyz
  x,y,z
_cell_length_a	15.944499
_cell_length_b	10.654550
_cell_length_c	9.130313
_cell_angle_alpha	90.003780
_cell_angle_beta	90.001998
_cell_angle_gamma	96.018744
loop_
_atom_site_label
_atom_site_type_symbol
_atom_site_fract_x
_atom_site_fract_y
_atom_site_fract_z
O1	O	0.117975	-1.666275	-0.121908
O2	O	0.129216	-1.300648	-0.121884
O3	O	0.001376	-1.493480	-0.121899
O4	O	0.245815	-1.473443	-0.121893
O5	O	0.001379	-1.493477	0.121700
O6	O	0.129219	-1.300645	0.121715
O7	O	0.117979	-1.666273	0.121691
Cu8	Cu	0.123599	-1.483459	0.143946
Cu9	Cu	0.123595	-1.483462	-0.144138
O10	O	0.245819	-1.473441	0.121706
C11	C	0.128392	-1.253860	-0.000081
C12	C	0.125923	-1.114449	-0.000072
C13	C	-0.029922	-1.492658	-0.000103
C14	C	-0.123185	-1.490199	-0.000114
N15	N	0.123602	-1.483466	0.346568
C16	C	-0.414072	-1.602229	-0.000114
C17	C	-0.353382	-1.543992	0.120003
C18	C	-0.458873	-1.481264	-0.000096
C19	C	-0.353392	-1.543962	-0.120167
C20	C	-0.293939	-1.485660	-0.000108
C21	C	-0.399411	-1.422993	0.120119
C22	C	-0.399427	-1.422980	-0.120158
C23	C	-0.338756	-1.364654	-0.000013
C24	C	-0.553888	-1.478735	-0.000089
C25	C	-0.198925	-1.488180	-0.000105
C26	C	0.277116	-1.474262	-0.000093
C27	C	0.370379	-1.476722	-0.000091
C28	C	0.118802	-1.713061	-0.000115
C29	C	0.121272	-1.852471	-0.000133
C30	C	0.201193	-1.033969	-0.000092
C31	C	0.198868	-0.902978	-0.000117
C32	C	0.045996	-0.932962	-0.000110
C33	C	0.048322	-1.063950	-0.000074
C34	C	0.278794	-1.084468	-0.000090
C35	C	0.354070	-1.003986	-0.000111
C36	C	0.351745	-0.872996	-0.000137
C37	C	0.274144	-0.822488	-0.000141
N38	N	0.123586	-1.483464	-0.346761
C39	C	0.067013	-1.568874	0.423213
C40	C	0.067003	-1.568870	0.576550
C41	C	0.180177	-1.398048	0.576583
C42	C	0.180182	-1.398046	0.423249
C43	C	0.010433	-1.654294	0.346532
C44	C	-0.046159	-1.739709	0.423178
C45	C	-0.046169	-1.739706	0.576514
C46	C	0.010413	-1.654287	0.653206
H47	H	-0.446821	-1.702618	-0.000005
N48	N	-0.103998	-1.826930	0.344899
N49	N	-0.102183	-1.943010	0.362020
H50	H	-0.143053	-2.004598	0.306758
N51	N	0.428634	-0.790789	-0.000117
N52	N	0.480073	-0.795365	0.102572
H53	H	0.534380	-0.737309	0.102585
N54	N	-0.327814	-1.608142	-0.247555
N55	N	-0.251508	-1.619518	-0.268490
H56	H	-0.233443	-1.664850	-0.358453
N57	N	-0.033267	-0.881371	-0.000157
N58	N	-0.084184	-0.906063	-0.102843
H59	H	-0.140165	-0.869628	-0.102883
N60	N	0.281172	-1.218269	-0.000027
N61	N	0.248095	-1.283399	0.102680
H62	H	0.249773	-1.377897	0.102727
N63	N	-0.425042	-1.358826	-0.247521
N64	N	-0.396947	-1.246526	-0.270108
H65	H	-0.415041	-1.201223	-0.360067
H66	H	0.417251	-1.045119	-0.000095
H67	H	0.272256	-0.715825	-0.000139
N68	N	-0.103988	-1.826945	0.654785
N69	N	-0.154502	-1.903196	0.586296
H70	H	-0.195337	-1.964815	0.641571
N71	N	-0.028571	-1.146149	-0.000036
N72	N	-0.097851	-1.101048	-0.000041
H73	H	-0.152159	-1.159101	-0.000004
N74	N	0.237973	-1.310789	0.654896
N75	N	0.236097	-1.194720	0.637781
H76	H	0.276917	-1.133091	0.693087
H77	H	0.010394	-1.654283	0.778063
N78	N	0.010438	-1.654325	0.189905
N79	N	-0.040079	-1.730599	0.121452
H80	H	-0.040073	-1.730625	0.010833
N81	N	0.237999	-1.310812	0.344969
N82	N	0.315651	-1.312510	0.362104
H83	H	0.356485	-1.250897	0.306818
N84	N	-0.327813	-1.608184	0.247381
N85	N	-0.354954	-1.721051	0.268774
H86	H	-0.336900	-1.766395	0.358732
H87	H	-0.419687	-1.371870	0.221774
H88	H	-0.306155	-1.264178	0.000064
