data_functionalizedCrystal
_audit_creation_method	'MofGen! by Chris Wilmer'
_symmetry_space_group_name_H-M	'P1'
_symmetry_Int_Tables_number	1
_symmetry_cell_setting	triclinic
loop_
_symmetry_equiv_pos_as_xyz
  x,y,z
_cell_length_a	10.967829
_cell_length_b	11.026623
_cell_length_c	10.065875
_cell_angle_alpha	100.706105
_cell_angle_beta	110.808508
_cell_angle_gamma	83.619121
loop_
_atom_site_label
_atom_site_type_symbol
_atom_site_fract_x
_atom_site_fract_y
_atom_site_fract_z
O1	O	0.554366	-1.576565	0.243877
O2	O	0.492924	-1.225011	0.229428
O3	O	0.338314	-1.415732	0.193060
O4	O	0.708975	-1.385844	0.280246
O5	O	0.308720	-1.452134	-0.040891
O6	O	0.463329	-1.261412	-0.004522
O7	O	0.524771	-1.612966	0.009927
Zn8	Zn	0.489351	-1.442969	-0.034442
Zn9	Zn	0.528343	-1.395008	0.273797
O10	O	0.679381	-1.422245	0.046296
C11	C	0.466792	-1.198324	0.109787
C12	C	0.433002	-1.064574	0.101841
C13	C	0.526298	-0.988107	0.123787
C14	C	0.491378	-0.849869	0.115574
C15	C	0.275327	-1.434508	0.064752
C16	C	0.131733	-1.436209	0.030985
C17	C	0.083051	-1.418110	0.137125
C18	C	-0.065360	-1.419867	0.102228
C19	C	0.742368	-1.403468	0.174606
C20	C	0.885963	-1.401766	0.208383
C21	C	0.550902	-0.639653	0.129570
C22	C	0.584688	-0.773403	0.137523
N23	N	0.554945	-1.362278	0.484161
N24	N	0.462742	-1.475709	-0.244807
C25	C	0.519070	-1.406399	0.700664
C26	C	0.498609	-1.431598	0.538684
H27	H	0.327279	-1.027693	0.077008
Br28	Br	0.760919	-0.834844	0.178951
H29	H	0.063537	-1.452997	-0.085721
Br30	Br	0.196705	-1.390142	0.331651
Br31	Br	-0.179009	-1.447850	-0.092306
Br32	Br	-0.000398	-1.373712	0.402917
Br33	Br	0.624713	-1.276406	0.822712
H34	H	0.435237	-1.509603	0.465456
H35	H	0.618328	-1.284282	0.557391
H36	H	0.399374	-1.553709	0.681961
H37	H	0.632025	-1.024984	0.148648
H38	H	0.385648	-0.812993	0.090740
