data_functionalizedCrystal
_audit_creation_method	'MofGen! by Chris Wilmer'
_symmetry_space_group_name_H-M	'P1'
_symmetry_Int_Tables_number	1
_symmetry_cell_setting	triclinic
loop_
_symmetry_equiv_pos_as_xyz
  x,y,z
_cell_length_a	23.532355
_cell_length_b	23.532407
_cell_length_c	22.610064
_cell_angle_alpha	89.999397
_cell_angle_beta	89.997644
_cell_angle_gamma	82.838088
loop_
_atom_site_label
_atom_site_type_symbol
_atom_site_fract_x
_atom_site_fract_y
_atom_site_fract_z
O1	O	0.755283	0.068986	-0.049110
O2	O	1.088616	0.402320	0.284223
O3	O	1.421949	0.735653	0.617557
O4	O	0.589415	0.079020	-0.049130
O5	O	0.922748	0.412354	0.284204
O6	O	1.256082	0.745687	0.617537
O7	O	0.677351	-0.008929	-0.049108
O8	O	1.010684	0.324404	0.284225
O9	O	1.344017	0.657737	0.617558
O10	O	0.667347	0.156936	-0.049131
O11	O	1.000680	0.490269	0.284202
O12	O	1.334014	0.823603	0.617535
O13	O	0.677335	-0.008916	0.049261
O14	O	1.010668	0.324417	0.382594
O15	O	1.344002	0.657750	0.715927
O16	O	0.589400	0.079033	0.049239
O17	O	0.922733	0.412367	0.382573
O18	O	1.256066	0.745700	0.715906
O19	O	0.755267	0.068999	0.049259
O20	O	1.088600	0.402333	0.382592
O21	O	1.421934	0.735666	0.715926
Zn22	Zn	0.672331	0.074018	0.064868
Zn23	Zn	1.005664	0.407352	0.398201
Zn24	Zn	1.338998	0.740685	0.731534
Zn25	Zn	0.672351	0.074001	-0.064738
Zn26	Zn	1.005685	0.407335	0.268595
Zn27	Zn	1.339018	0.740668	0.601929
O28	O	0.667332	0.156949	0.049238
O29	O	1.000665	0.490282	0.382571
O30	O	1.333998	0.823616	0.715905
C31	C	0.568191	0.078776	0.000052
C32	C	0.901524	0.412109	0.333386
C33	C	1.234857	0.745443	0.666719
C34	C	0.504972	0.078022	0.000045
C35	C	0.838305	0.411355	0.333379
C36	C	1.171639	0.744689	0.666712
C37	C	0.112950	0.073291	0.053692
C38	C	0.446283	0.406624	0.387025
C39	C	0.779616	0.739958	0.720359
C40	C	0.053550	0.072573	0.053694
C41	C	0.386884	0.405907	0.387028
C42	C	0.720217	0.739240	0.720361
O43	O	0.022825	0.072189	0.099296
O44	O	0.356158	0.405522	0.432630
O45	O	0.689491	0.738856	0.765963
N46	N	0.023850	0.072211	0.000074
N47	N	0.357184	0.405544	0.333407
N48	N	0.690517	0.738877	0.666740
C49	C	0.053554	0.072560	-0.053553
C50	C	0.386887	0.405893	0.279780
C51	C	0.720220	0.739226	0.613113
O52	O	0.022837	0.072185	-0.099162
O53	O	0.356171	0.405518	0.234172
O54	O	0.689504	0.738851	0.567505
C55	C	0.112953	0.073273	-0.053555
C56	C	0.446286	0.406606	0.279778
C57	C	0.779619	0.739940	0.613112
C58	C	0.142649	0.073641	0.000069
C59	C	0.475982	0.406975	0.333403
C60	C	0.809315	0.740308	0.666736
C61	C	0.142646	0.073659	0.107312
C62	C	0.475979	0.406992	0.440645
C63	C	0.809313	0.740325	0.773979
C64	C	0.202041	0.074377	0.107309
C65	C	0.535375	0.407711	0.440643
C66	C	0.868708	0.741044	0.773976
C67	C	0.231740	0.074728	0.053687
C68	C	0.565073	0.408061	0.387020
C69	C	0.898407	0.741395	0.720353
C70	C	0.202044	0.074360	0.000067
C71	C	0.535377	0.407693	0.333400
C72	C	0.868711	0.741027	0.666733
C73	C	0.142655	0.073618	-0.107181
C74	C	0.475989	0.406951	0.226152
C75	C	0.809322	0.740284	0.559486
C76	C	0.202058	0.074331	-0.107178
C77	C	0.535392	0.407664	0.226155
C78	C	0.868725	0.740997	0.559489
C79	C	0.231754	0.074699	-0.053554
C80	C	0.565088	0.408033	0.279779
C81	C	0.898421	0.741366	0.613113
C82	C	0.291138	0.075429	-0.053558
C83	C	0.624471	0.408762	0.279775
C84	C	0.957805	0.742096	0.613108
N85	N	0.320838	0.075792	0.000062
N86	N	0.654171	0.409125	0.333396
N87	N	0.987505	0.742458	0.666729
C88	C	0.291139	0.075441	0.053685
C89	C	0.624472	0.408775	0.387018
C90	C	0.957806	0.742108	0.720352
C91	C	-0.071188	0.071061	-0.053545
C92	C	0.262145	0.404394	0.279788
C93	C	0.595479	0.737727	0.613121
C94	C	-0.130586	0.070351	-0.053544
C95	C	0.202747	0.403685	0.279789
C96	C	0.536080	0.737018	0.613122
C97	C	-0.130585	0.070364	0.053703
C98	C	0.202748	0.403697	0.387037
C99	C	0.536081	0.737031	0.720370
C100	C	-0.071186	0.071077	0.053702
C101	C	0.262147	0.404411	0.387035
C102	C	0.595480	0.737744	0.720368
C103	C	-0.041488	0.071423	0.000075
C104	C	0.291846	0.404757	0.333409
C105	C	0.625179	0.738090	0.666742
C106	C	0.415873	0.076951	0.053675
C107	C	0.749206	0.410284	0.387009
C108	C	1.082540	0.743617	0.720342
C109	C	0.475273	0.077671	0.053668
C110	C	0.808607	0.411005	0.387001
C111	C	1.141940	0.744338	0.720335
C112	C	0.475267	0.077656	-0.053579
C113	C	0.808601	0.410989	0.279754
C114	C	1.141934	0.744322	0.613087
C115	C	0.415872	0.076938	-0.053572
C116	C	0.749205	0.410271	0.279761
C117	C	1.082539	0.743604	0.613094
C118	C	0.386177	0.076583	0.000060
C119	C	0.719510	0.409917	0.333393
C120	C	1.052843	0.743250	0.666727
O121	O	0.321902	0.075812	-0.099137
O122	O	0.655235	0.409145	0.234196
O123	O	0.988568	0.742478	0.567529
O124	O	0.321864	0.075809	0.099286
O125	O	0.655197	0.409142	0.432619
O126	O	0.988530	0.742475	0.765952
C127	C	0.677088	-0.030139	0.000078
C128	C	1.010421	0.303195	0.333411
C129	C	1.343755	0.636528	0.666744
C130	C	0.676322	-0.093356	0.000082
C131	C	1.009656	0.239978	0.333415
C132	C	1.342989	0.573311	0.666749
C133	C	0.723557	-0.492468	0.000055
C134	C	1.056890	-0.159134	0.333389
C135	C	1.390224	0.174199	0.666722
C136	C	0.722845	-0.551868	0.000051
C137	C	1.056179	-0.218534	0.333384
C138	C	1.389512	0.114799	0.666717
O139	O	0.766632	-0.588620	0.000034
O140	O	1.099966	-0.255287	0.333367
O141	O	1.433299	0.078046	0.666701
N142	N	0.670568	-0.574484	0.000045
N143	N	1.003901	-0.241151	0.333378
N144	N	1.337234	0.092183	0.666712
C145	C	0.618998	-0.537697	0.000038
C146	C	0.952332	-0.204364	0.333371
C147	C	1.285665	0.128970	0.666704
O148	O	0.574467	-0.562388	0.000032
O149	O	0.907800	-0.229055	0.333365
O150	O	1.241133	0.104278	0.666698
C151	C	0.619710	-0.478298	0.000038
C152	C	0.953044	-0.144965	0.333371
C153	C	1.286377	0.188369	0.666705
C154	C	0.671991	-0.455685	0.000050
C155	C	1.005325	-0.122352	0.333383
C156	C	1.338658	0.210982	0.666716
C157	C	0.775834	-0.469854	0.000066
C158	C	1.109167	-0.136521	0.333400
C159	C	1.442500	0.196813	0.666733
C160	C	0.776545	-0.410458	0.000072
C161	C	1.109878	-0.077125	0.333405
C162	C	1.443212	0.256209	0.666739
C163	C	0.724979	-0.373676	0.000067
C164	C	1.058313	-0.040342	0.333400
C165	C	1.391646	0.292991	0.666733
C166	C	0.672703	-0.396289	0.000055
C167	C	1.006036	-0.062956	0.333389
C168	C	1.339369	0.270378	0.666722
C169	C	0.568141	-0.441512	0.000027
C170	C	0.901475	-0.108179	0.333360
C171	C	1.234808	0.225155	0.666693
C172	C	0.568858	-0.382110	0.000026
C173	C	0.902191	-0.048776	0.333360
C174	C	1.235525	0.284557	0.666693
C175	C	0.621139	-0.359497	0.000038
C176	C	0.954472	-0.026163	0.333372
C177	C	1.287806	0.307170	0.666705
C178	C	0.621848	-0.300110	0.000056
C179	C	0.955182	0.033223	0.333389
C180	C	1.288515	0.366556	0.666722
N181	N	0.674126	-0.277494	0.000061
N182	N	1.007459	0.055839	0.333395
N183	N	1.340793	0.389173	0.666728
C184	C	0.725691	-0.314277	0.000067
C185	C	1.059025	0.019057	0.333400
C186	C	1.392358	0.352390	0.666734
C187	C	0.617507	-0.662439	0.000036
C188	C	0.950840	-0.329106	0.333369
C189	C	1.284173	0.004228	0.666703
C190	C	0.616794	-0.721837	0.000040
C191	C	0.950127	-0.388504	0.333373
C192	C	1.283461	-0.055170	0.666706
C193	C	0.720642	-0.736004	0.000052
C194	C	1.053975	-0.402670	0.333385
C195	C	1.387308	-0.069337	0.666718
C196	C	0.721354	-0.676605	0.000052
C197	C	1.054687	-0.343271	0.333385
C198	C	1.388020	-0.009938	0.666719
C199	C	0.669784	-0.639823	0.000042
C200	C	1.003118	-0.306489	0.333375
C201	C	1.336451	0.026844	0.666708
C202	C	0.727181	-0.189540	0.000079
C203	C	1.060514	0.143793	0.333413
C204	C	1.393848	0.477127	0.666746
C205	C	0.727888	-0.130138	0.000087
C206	C	1.061221	0.203195	0.333421
C207	C	1.394554	0.536528	0.666754
C208	C	0.624041	-0.115977	0.000072
C209	C	0.957374	0.217357	0.333406
C210	C	1.290707	0.550690	0.666739
C211	C	0.623334	-0.175373	0.000067
C212	C	0.956667	0.157960	0.333401
C213	C	1.290000	0.491293	0.666734
C214	C	0.674909	-0.212154	0.000069
C215	C	1.008242	0.121179	0.333402
C216	C	1.341575	0.454512	0.666736
O217	O	0.578084	-0.263323	0.000070
O218	O	0.911418	0.070010	0.333403
O219	O	1.244751	0.403344	0.666737
O220	O	0.770216	-0.289577	0.000065
O221	O	1.103549	0.043756	0.333398
O222	O	1.436882	0.377090	0.666732
C223	C	0.776491	0.069244	0.000076
C224	C	1.109825	0.402577	0.333409
C225	C	1.443158	0.735910	0.666742
C226	C	0.839710	0.069998	0.000079
C227	C	1.173043	0.403331	0.333412
C228	C	1.506377	0.736664	0.666745
C229	C	0.667594	0.178158	0.000050
C230	C	1.000927	0.511492	0.333384
C231	C	1.334261	0.844825	0.666717
C232	C	0.668360	0.241375	0.000042
C233	C	1.001693	0.574709	0.333375
C234	C	1.335027	0.908042	0.666709
N235	N	0.672321	0.074029	0.153320
N236	N	1.005654	0.407363	0.486653
N237	N	1.338988	0.740696	0.819987
N238	N	0.672366	0.073986	-0.153191
N239	N	1.005699	0.407319	0.180143
N240	N	1.339032	0.740652	0.513476
C241	C	0.711291	0.035063	0.561971
C242	C	1.044624	0.368397	0.895304
C243	C	1.377958	0.701730	1.228637
C244	C	0.711294	0.035059	0.623891
C245	C	1.044627	0.368392	0.957224
C246	C	1.377961	0.701726	1.290557
O247	O	0.744403	0.001937	0.655917
O248	O	1.077736	0.335270	0.989251
O249	O	1.411070	0.668604	1.322584
N250	N	0.672351	0.073990	0.654857
N251	N	1.005684	0.407323	0.988190
N252	N	1.339018	0.740656	1.321524
C253	C	0.633399	0.112923	0.623900
C254	C	0.966732	0.446256	0.957234
C255	C	1.300065	0.779590	1.290567
O256	O	0.600275	0.146036	0.655926
O257	O	0.933608	0.479369	0.989259
O258	O	1.266941	0.812702	1.322592
C259	C	0.633394	0.112924	0.561982
C260	C	0.966727	0.446257	0.895315
C261	C	1.300060	0.779591	1.228648
C262	C	0.672343	0.073995	0.531018
C263	C	1.005676	0.407328	0.864352
C264	C	1.339010	0.740661	1.197685
C265	C	0.750237	-0.003863	0.531007
C266	C	1.083570	0.329470	0.864341
C267	C	1.416903	0.662803	1.197674
C268	C	0.750234	-0.003858	0.469092
C269	C	1.083568	0.329475	0.802425
C270	C	1.416901	0.662808	1.135759
C271	C	0.711286	0.035073	0.438139
C272	C	1.044620	0.368407	0.771473
C273	C	1.377953	0.701740	1.104806
C274	C	0.672340	0.074000	0.469103
C275	C	1.005674	0.407333	0.802436
C276	C	1.339007	0.740666	1.135769
C277	C	0.594439	0.151854	0.531026
C278	C	0.927772	0.485187	0.864359
C279	C	1.261106	0.818521	1.197693
C280	C	0.594437	0.151851	0.469103
C281	C	0.927770	0.485185	0.802436
C282	C	1.261104	0.818518	1.135770
C283	C	0.633386	0.112922	0.438140
C284	C	0.966720	0.446256	0.771473
C285	C	1.300053	0.779589	1.104807
C286	C	0.633390	0.112936	0.376235
C287	C	0.966723	0.446270	0.709568
C288	C	1.300057	0.779603	1.042901
N289	N	0.672333	0.074006	0.345268
N290	N	1.005666	0.407339	0.678602
N291	N	1.339000	0.740672	1.011935
C292	C	0.711281	0.035074	0.376221
C293	C	1.044614	0.368407	0.709554
C294	C	1.377948	0.701741	1.042887
C295	C	0.633412	0.112917	0.753934
C296	C	0.966745	0.446251	1.087267
C297	C	1.300079	0.779584	1.420601
C298	C	0.633419	0.112919	0.815852
C299	C	0.966753	0.446253	1.149185
C300	C	1.300086	0.779586	1.482518
C301	C	0.711314	0.035055	0.815838
C302	C	1.044647	0.368388	1.149171
C303	C	1.377981	0.701721	1.482504
C304	C	0.711309	0.035056	0.753919
C305	C	1.044642	0.368389	1.087252
C306	C	1.377975	0.701722	1.420586
C307	C	0.672355	0.073987	0.722968
C308	C	1.005688	0.407320	1.056301
C309	C	1.339021	0.740653	1.389634
C310	C	0.711273	0.035088	0.246193
C311	C	1.044607	0.368421	0.579527
C312	C	1.377940	0.701755	0.912860
C313	C	0.711269	0.035098	0.184272
C314	C	1.044602	0.368431	0.517606
C315	C	1.377936	0.701765	0.850939
C316	C	0.633373	0.112960	0.184292
C317	C	0.966706	0.446294	0.517625
C318	C	1.300040	0.779627	0.850958
C319	C	0.633379	0.112953	0.246207
C320	C	0.966712	0.446286	0.579541
C321	C	1.300046	0.779619	0.912874
C322	C	0.672331	0.074012	0.277157
C323	C	1.005665	0.407345	0.610490
C324	C	1.338998	0.740678	0.943823
O325	O	0.600296	0.146040	0.344169
O326	O	0.933629	0.479373	0.677502
O327	O	1.266963	0.812706	1.010835
O328	O	0.744395	0.001962	0.344188
O329	O	1.077728	0.335295	0.677521
O330	O	1.411061	0.668629	1.010855
H331	H	0.226236	0.074613	-0.150848
H332	H	0.559569	0.407946	0.182485
H333	H	0.892902	0.741279	0.515818
N334	N	0.383845	0.076542	-0.111412
N335	N	0.717179	0.409875	0.221921
N336	N	1.050512	0.743209	0.555255
H337	H	0.364027	0.040932	-0.113797
H338	H	0.697360	0.374265	0.219537
H339	H	1.030694	0.707598	0.552870
H340	H	0.354406	0.111574	-0.113778
H341	H	0.687739	0.444907	0.219556
H342	H	1.021072	0.778241	0.552889
N343	N	0.507305	0.078034	-0.111413
N344	N	0.840639	0.411367	0.221920
N345	N	1.173972	0.744701	0.555254
H346	H	0.549440	0.078541	-0.103273
H347	H	0.882773	0.411875	0.230061
H348	H	1.216106	0.745208	0.563394
H349	H	0.501746	0.042592	-0.134820
H350	H	0.835079	0.375926	0.198513
H351	H	1.168413	0.709259	0.531847
H352	H	0.601692	0.144624	0.728736
H353	H	0.935026	0.477958	1.062070
H354	H	1.268359	0.811291	1.395403
N355	N	0.234067	0.074775	0.165147
N356	N	0.567400	0.408108	0.498480
N357	N	0.900733	0.741441	0.831814
H358	H	0.206232	0.074443	0.199112
H359	H	0.539565	0.407776	0.532446
H360	H	0.872899	0.741109	0.865779
H361	H	0.263531	0.039761	0.167491
H362	H	0.596865	0.373095	0.500825
H363	H	0.930198	0.706428	0.834158
H364	H	0.763925	-0.658198	0.000061
H365	H	1.097259	-0.324864	0.333394
H366	H	1.430592	0.008469	0.666728
N367	N	0.782810	-0.229200	0.000088
N368	N	1.116143	0.104133	0.333422
N369	N	1.449477	0.437466	0.666755
H370	H	0.784824	-0.254161	0.036554
H371	H	1.118157	0.079172	0.369887
H372	H	1.451491	0.412505	0.703220
H373	H	0.784813	-0.254124	-0.036402
H374	H	1.118146	0.079210	0.296932
H375	H	1.451479	0.412543	0.630265
H376	H	0.781953	-0.035569	0.556203
H377	H	1.115286	0.297765	0.889537
H378	H	1.448619	0.631098	1.222870
H379	H	0.601709	0.144625	0.841058
H380	H	0.935043	0.477958	1.174391
H381	H	1.268376	0.811292	1.507724
N382	N	0.552420	0.193836	0.564409
N383	N	0.885753	0.527169	0.897743
N384	N	1.219086	0.860502	1.231076
H385	H	0.574025	0.218948	0.590100
H386	H	0.907359	0.552281	0.923434
H387	H	1.240692	0.885615	1.256767
H388	H	0.527758	0.218450	0.535356
H389	H	0.861091	0.551783	0.868690
H390	H	1.194425	0.885117	1.202023
N391	N	0.552419	0.193840	0.435720
N392	N	0.885752	0.527173	0.769054
N393	N	1.219086	0.860506	1.102387
H394	H	0.527748	0.218498	0.464735
H395	H	0.861082	0.551831	0.798068
H396	H	1.194415	0.885164	1.131401
H397	H	0.574072	0.218909	0.410029
H398	H	0.907406	0.552242	0.743362
H399	H	1.240739	0.885575	1.076695
H400	H	0.118472	0.073372	0.150980
H401	H	0.451805	0.406705	0.484314
H402	H	0.785138	0.740039	0.817647
H403	H	-0.047012	0.071348	-0.097217
H404	H	0.286322	0.404681	0.236116
H405	H	0.619655	0.738014	0.569450
H406	H	0.582057	-0.086018	0.000070
H407	H	0.915391	0.247316	0.333404
H408	H	1.248724	0.580649	0.666737
N409	N	0.110636	0.073215	-0.165019
N410	N	0.443970	0.406548	0.168314
N411	N	0.777303	0.739882	0.501647
H412	H	0.138473	0.073540	-0.198984
H413	H	0.471806	0.406873	0.134350
H414	H	0.805139	0.740207	0.467683
H415	H	0.090816	0.037604	-0.167346
H416	H	0.424150	0.370938	0.165987
H417	H	0.757483	0.704271	0.499321
N418	N	0.383851	0.076567	0.111521
N419	N	0.717185	0.409901	0.444854
N420	N	1.050518	0.743234	0.778187
H421	H	0.411737	0.076521	0.145482
H422	H	0.745070	0.409854	0.478815
H423	H	1.078403	0.743188	0.812148
H424	H	0.354649	0.111777	0.114030
H425	H	0.687983	0.445111	0.447364
H426	H	1.021316	0.778444	0.780697
H427	H	0.601668	0.144658	0.271418
H428	H	0.935002	0.477991	0.604751
H429	H	1.268335	0.811325	0.938085
H430	H	-0.154777	0.070078	0.097366
H431	H	0.178557	0.403411	0.430699
H432	H	0.511890	0.736744	0.764033
H433	H	0.770463	-0.111731	0.000099
H434	H	1.103796	0.221603	0.333432
H435	H	1.437130	0.554936	0.666765
N436	N	0.792239	-0.045853	0.435702
N437	N	1.125573	0.287481	0.769036
N438	N	1.458906	0.620814	1.102369
H439	H	0.786334	-0.039950	0.391779
H440	H	1.119667	0.293384	0.725112
H441	H	1.453000	0.626717	1.058445
H442	H	0.832602	-0.039486	0.446525
H443	H	1.165935	0.293847	0.779859
H444	H	1.499269	0.627181	1.113192
N445	N	-0.162614	0.069963	-0.111381
N446	N	0.170720	0.403296	0.221952
N447	N	0.504053	0.736630	0.555285
H448	H	-0.134781	0.070294	-0.145348
H449	H	0.198552	0.403627	0.187985
H450	H	0.531886	0.736961	0.521318
H451	H	-0.182436	0.034354	-0.113714
H452	H	0.150898	0.367687	0.219620
H453	H	0.484231	0.701020	0.552953
H454	H	0.601663	0.144660	0.159081
H455	H	0.934997	0.477993	0.492414
H456	H	1.268330	0.811326	0.825747
N457	N	0.753317	-0.006932	0.720525
N458	N	1.086651	0.326402	1.053858
N459	N	1.419984	0.659735	1.387192
H460	H	0.777990	-0.031591	0.749535
H461	H	1.111324	0.301742	1.082868
H462	H	1.444657	0.635075	1.416201
H463	H	0.731659	-0.031998	0.694839
H464	H	1.064992	0.301335	1.028172
H465	H	1.398325	0.634669	1.361505
H466	H	0.819117	-0.392053	0.000079
H467	H	1.152451	-0.058719	0.333413
H468	H	1.485784	0.274614	0.666746
N469	N	0.831456	-0.509522	0.000073
N470	N	1.164789	-0.176188	0.333406
N471	N	1.498122	0.157145	0.666740
H472	H	0.864675	-0.486174	0.000080
H473	H	1.198009	-0.152840	0.333414
H474	H	1.531342	0.180493	0.666747
H475	H	0.833417	-0.534472	0.036542
H476	H	1.166751	-0.201139	0.369875
H477	H	1.500084	0.132194	0.703208
H478	H	0.499449	0.077973	0.097337
H479	H	0.832782	0.411307	0.430671
H480	H	1.166116	0.744640	0.764004
H481	H	-0.047012	0.071378	0.097367
H482	H	0.286322	0.404711	0.430701
H483	H	0.619655	0.738045	0.764034
N484	N	0.776259	-0.775685	0.000057
N485	N	1.109592	-0.442352	0.333390
N486	N	1.442926	-0.109019	0.666723
H487	H	0.778280	-0.800644	-0.036410
H488	H	1.111613	-0.467310	0.296923
H489	H	1.444946	-0.133977	0.630256
H490	H	0.809457	-0.752311	0.000085
H491	H	1.142790	-0.418978	0.333418
H492	H	1.476124	-0.085645	0.666751
N493	N	0.560406	-0.746223	0.000043
N494	N	0.893739	-0.412890	0.333377
N495	N	1.227072	-0.079557	0.666710
H496	H	0.527850	-0.713903	0.000043
H497	H	0.861184	-0.380570	0.333376
H498	H	1.194517	-0.047237	0.666709
H499	H	0.557847	-0.770558	-0.036424
H500	H	0.891181	-0.437225	0.296909
H501	H	1.224514	-0.103892	0.630243
H502	H	0.743027	0.003354	0.841050
H503	H	1.076360	0.336687	1.174384
H504	H	1.409694	0.670020	1.507717
N505	N	0.561882	-0.622768	0.000030
N506	N	0.895216	-0.289435	0.333363
N507	N	1.228549	0.043898	0.666697
H508	H	0.528661	-0.646114	0.000027
H509	H	0.861994	-0.312780	0.333361
H510	H	1.195327	0.020553	0.666694
H511	H	0.559908	-0.597815	0.036497
H512	H	0.893241	-0.264482	0.369831
H513	H	1.226575	0.068851	0.703164
H514	H	0.526863	-0.352164	0.000017
H515	H	0.860196	-0.018830	0.333351
H516	H	1.193530	0.314503	0.666684
N517	N	0.753272	-0.006896	0.150872
N518	N	1.086605	0.326437	0.484205
N519	N	1.419938	0.659770	0.817539
H520	H	0.778364	0.014733	0.125180
H521	H	1.111698	0.348066	0.458513
H522	H	1.445031	0.681400	0.791847
H523	H	0.777905	-0.031553	0.179914
H524	H	1.111238	0.301780	0.513247
H525	H	1.444572	0.635113	0.846580
N526	N	0.511752	-0.465892	0.000021
N527	N	0.845085	-0.132558	0.333355
N528	N	1.178419	0.200775	0.666688
H529	H	0.479199	-0.433569	0.000017
H530	H	0.812532	-0.100236	0.333350
H531	H	1.145866	0.233097	0.666684
H532	H	0.509195	-0.490227	-0.036445
H533	H	0.842528	-0.156894	0.296888
H534	H	1.175862	0.176439	0.630221
N535	N	0.566947	-0.199768	0.000063
N536	N	0.900280	0.133566	0.333396
N537	N	1.233614	0.466899	0.666730
H538	H	0.534389	-0.167450	0.000062
H539	H	0.867722	0.165883	0.333396
H540	H	1.201056	0.499216	0.666729
H541	H	0.564396	-0.224098	-0.036409
H542	H	0.897729	0.109235	0.296925
H543	H	1.231063	0.442569	0.630258
N544	N	0.753289	-0.006908	0.279569
N545	N	1.086622	0.326425	0.612902
N546	N	1.419955	0.659759	0.946236
H547	H	0.777959	-0.031562	0.250551
H548	H	1.111292	0.301772	0.583884
H549	H	1.444626	0.635105	0.917218
H550	H	0.778342	0.014765	0.305255
H551	H	1.111675	0.348099	0.638589
H552	H	1.445009	0.681432	0.971922
