data_functionalizedCrystal
_audit_creation_method	'MofGen! by Chris Wilmer'
_symmetry_space_group_name_H-M	'P1'
_symmetry_Int_Tables_number	1
_symmetry_cell_setting	triclinic
loop_
_symmetry_equiv_pos_as_xyz
  x,y,z
_cell_length_a	12.837943
_cell_length_b	15.944551
_cell_length_c	11.295483
_cell_angle_alpha	94.094426
_cell_angle_beta	85.461227
_cell_angle_gamma	89.163839
loop_
_atom_site_label
_atom_site_type_symbol
_atom_site_fract_x
_atom_site_fract_y
_atom_site_fract_z
O1	O	1.382450	0.213265	-0.099009
O2	O	1.080644	0.202478	-0.099016
O3	O	1.239788	0.086257	-0.099002
O4	O	1.223306	0.329487	-0.099023
O5	O	1.225810	0.096448	0.099048
O6	O	1.066666	0.212669	0.099034
O7	O	1.368472	0.223456	0.099040
Cu8	Cu	1.216293	0.218993	0.117121
Cu9	Cu	1.232823	0.206941	-0.117096
O10	O	1.209328	0.339677	0.099026
C11	C	1.035034	0.203930	0.000008
C12	C	0.919957	0.193062	0.000006
C13	C	0.679007	0.323714	0.000011
C14	C	0.570881	0.313507	0.000010
C15	C	0.595575	0.162440	0.000011
C16	C	0.703701	0.172648	0.000012
C17	C	0.745413	0.253287	0.000011
C18	C	0.853542	0.263494	0.000003
C19	C	0.878234	0.112428	0.000013
C20	C	0.770107	0.102221	0.000011
C21	C	1.232115	0.060004	0.000023
C22	C	1.230063	-0.033407	0.000024
C23	C	1.126515	-0.256548	0.000005
C24	C	1.167708	-0.308694	0.097657
C25	C	1.226352	-0.204430	0.000015
C26	C	1.181513	-0.318722	-0.097604
C27	C	1.222761	-0.369631	0.000001
C28	C	1.267567	-0.255341	0.097747
C29	C	1.281364	-0.265369	-0.097602
C30	C	1.322627	-0.317491	0.000073
C31	C	1.228418	-0.109262	0.000024
C32	C	1.220702	-0.464796	0.000000
C33	C	1.414082	0.222005	0.000014
C34	C	1.529160	0.232872	0.000008
C35	C	1.217002	0.365931	-0.000001
C36	C	1.219054	0.459340	-0.000010
N37	N	1.204674	0.227469	0.281856
N38	N	1.244451	0.198459	-0.281831
C39	C	1.328092	0.137394	0.531156
C40	C	1.319318	0.143806	0.655819
C41	C	1.178349	0.246701	0.655847
C42	C	1.187123	0.240289	0.531184
C43	C	1.261997	0.185634	0.468843
C44	C	1.270775	0.179227	0.344178
C45	C	1.129802	0.282117	0.344208
C46	C	1.121028	0.288530	0.468871
H47	H	0.736129	0.036567	0.000026
O48	O	1.065539	0.329069	0.283860
C49	C	0.997558	0.378664	0.365622
H50	H	1.033801	0.387600	0.454478
H51	H	0.984286	0.442622	0.329607
H52	H	0.919617	0.345877	0.378895
H53	H	0.712969	0.389374	0.000008
O54	O	1.138219	-0.351891	-0.196129
C55	C	1.211723	-0.405777	-0.264261
H56	H	1.272275	-0.428496	-0.204579
H57	H	1.170026	-0.462149	-0.304947
H58	H	1.252304	-0.370264	-0.338351
H59	H	0.516815	0.370856	0.000014
O60	O	0.942887	0.044102	0.000061
C61	C	1.047271	0.070397	0.000022
H62	H	1.048786	0.138631	0.037524
H63	H	1.092198	0.028990	0.057512
H64	H	1.085236	0.064833	-0.094996
H65	H	0.561586	0.096792	0.000111
H66	H	1.331744	0.134727	0.293421
H67	H	1.043639	-0.229864	0.000101
O68	O	1.400850	0.084241	0.470776
C69	C	1.457331	0.043057	0.552509
H70	H	1.408579	0.043255	0.641385
H71	H	1.475682	-0.024603	0.516488
H72	H	1.533401	0.077214	0.565747
O73	O	1.110225	-0.331612	0.196056
C74	C	1.006898	-0.300476	0.195725
H75	H	0.989546	-0.289044	0.100699
H76	H	0.950211	-0.348354	0.232611
H77	H	0.997383	-0.238856	0.253597
O78	O	1.383558	0.097072	0.716481
C79	C	1.442460	0.150908	0.788550
H80	H	1.399867	0.214277	0.807235
H81	H	1.452687	0.121675	0.876209
H82	H	1.522452	0.160307	0.740485
H83	H	1.329382	-0.246112	-0.180161
H84	H	1.060064	0.333026	0.519643
O85	O	1.421635	-0.348984	0.000200
C86	C	1.492614	-0.282335	0.001199
H87	H	1.450220	-0.221825	0.039157
H88	H	1.558563	-0.297176	0.058810
H89	H	1.526455	-0.274111	-0.093560
O90	O	0.893952	0.341858	-0.000155
C91	C	0.867275	0.380034	-0.102739
H92	H	0.794693	0.349386	-0.136937
H93	H	0.850648	0.449969	-0.079666
H94	H	0.934909	0.371620	-0.174564
O95	O	1.310875	-0.222260	0.196312
C96	C	1.312266	-0.133918	0.195139
H97	H	1.249806	-0.112023	0.137265
H98	H	1.295782	-0.104381	0.289816
H99	H	1.392331	-0.113915	0.157389
H100	H	1.117381	0.291194	0.706621
