data_functionalizedCrystal
_audit_creation_method	'MofGen! by Chris Wilmer'
_symmetry_space_group_name_H-M	'P1'
_symmetry_Int_Tables_number	1
_symmetry_cell_setting	triclinic
loop_
_symmetry_equiv_pos_as_xyz
  x,y,z
_cell_length_a	19.805407
_cell_length_b	21.295417
_cell_length_c	19.805399
_cell_angle_alpha	89.967749
_cell_angle_beta	89.983114
_cell_angle_gamma	90.030507
loop_
_atom_site_label
_atom_site_type_symbol
_atom_site_fract_x
_atom_site_fract_y
_atom_site_fract_z
Zn1	Zn	1.034698	-0.250615	-0.382704
Zn2	Zn	1.534698	0.249385	0.117296
Zn3	Zn	1.034611	-0.355886	-0.269510
Zn4	Zn	1.534611	0.144114	0.230490
Zn5	Zn	0.921518	-0.250635	-0.269529
Zn6	Zn	1.421518	0.249365	0.230471
Zn7	Zn	0.921469	-0.355850	-0.382656
Zn8	Zn	1.421469	0.144150	0.117344
O9	O	0.978074	-0.303247	-0.326100
O10	O	1.478074	0.196753	0.173900
O11	O	1.129403	-0.264586	-0.367701
O12	O	1.629403	0.235414	0.132299
O13	O	1.019593	-0.341948	-0.174796
O14	O	1.519593	0.158052	0.325204
O15	O	0.936590	-0.162543	-0.284570
O16	O	1.436590	0.337457	0.215430
O17	O	1.129339	-0.341929	-0.284537
O18	O	1.629339	0.158071	0.215463
O19	O	1.019743	-0.162528	-0.367719
O20	O	1.519743	0.337472	0.132281
O21	O	0.936504	-0.264620	-0.174810
O22	O	1.436504	0.235380	0.325190
O23	O	0.826795	-0.264585	-0.284523
O24	O	1.326795	0.235415	0.215477
O25	O	0.936505	-0.341867	-0.477379
O26	O	1.436505	0.158133	0.022621
O27	O	0.826759	-0.341887	-0.367638
O28	O	1.326759	0.158113	0.132362
O29	O	1.019694	-0.264551	-0.477415
O30	O	1.519694	0.235449	0.022585
O31	O	1.019544	-0.443971	-0.284491
O32	O	1.519544	0.056029	0.215509
O33	O	0.936419	-0.443945	-0.367619
O34	O	1.436419	0.056055	0.132381
C35	C	0.802218	-0.303235	-0.326078
C36	C	1.302218	0.196765	0.173922
C37	C	0.726986	-0.303245	-0.326085
C38	C	1.226986	0.196755	0.173915
C39	C	0.691640	-0.343556	-0.369292
C40	C	1.191640	0.156444	0.130708
C41	C	0.620952	-0.343557	-0.369302
C42	C	1.120952	0.156443	0.130698
C43	C	0.585610	-0.303250	-0.326100
C44	C	1.085610	0.196750	0.173900
C45	C	0.620961	-0.262934	-0.282890
C46	C	1.120961	0.237066	0.217110
C47	C	0.691648	-0.262930	-0.282885
C48	C	1.191648	0.237070	0.217115
C49	C	0.335888	-0.262948	-0.282913
C50	C	0.835888	0.237052	0.217087
C51	C	0.265195	-0.262956	-0.282920
C52	C	0.765195	0.237044	0.217080
C53	C	0.265192	-0.343575	-0.369330
C54	C	0.765192	0.156425	0.130670
C55	C	0.335879	-0.343571	-0.369324
C56	C	0.835879	0.156429	0.130676
C57	C	0.371223	-0.303253	-0.326117
C58	C	0.871223	0.196747	0.173883
C59	C	0.447871	-0.303252	-0.326109
C60	C	0.947871	0.196748	0.173891
C61	C	0.508963	-0.303254	-0.326105
C62	C	1.008963	0.196746	0.173895
C63	C	0.977985	-0.466798	-0.326062
C64	C	1.477985	0.033202	0.173938
C65	C	0.978009	-0.536766	-0.326069
C66	C	1.478009	-0.036766	0.173931
C67	C	1.021331	-0.569626	-0.282828
C68	C	1.521331	-0.069626	0.217172
C69	C	1.021363	-0.635368	-0.282844
C70	C	1.521363	-0.135368	0.217156
C71	C	0.978061	-0.668249	-0.326092
C72	C	1.478061	-0.168249	0.173908
C73	C	0.934736	-0.635381	-0.369341
C74	C	1.434736	-0.135381	0.130659
C75	C	0.934710	-0.569640	-0.369330
C76	C	1.434710	-0.069640	0.130670
N77	N	0.918850	-0.771515	-0.331245
N78	N	1.418850	-0.271515	0.168755
N79	N	0.918876	-0.833966	-0.331252
N80	N	1.418876	-0.333966	0.168748
C81	C	0.978136	-0.866324	-0.326131
C82	C	1.478136	-0.366324	0.173869
N83	N	1.037371	-0.833870	-0.320989
N84	N	1.537371	-0.333870	0.179011
N85	N	1.037343	-0.771413	-0.320979
N86	N	1.537343	-0.271413	0.179021
C87	C	0.978084	-0.739534	-0.326110
C88	C	1.478084	-0.239534	0.173890
C89	C	1.021496	-0.970469	-0.282905
C90	C	1.521496	-0.470469	0.217095
C91	C	1.021529	-1.036212	-0.282925
C92	C	1.521529	-0.536212	0.217075
C93	C	0.934896	-1.036224	-0.369419
C94	C	1.434896	-0.536224	0.130581
C95	C	0.934869	-0.970482	-0.369402
C96	C	1.434869	-0.470482	0.130598
C97	C	0.978168	-0.937608	-0.326142
C98	C	1.478168	-0.437608	0.173858
C99	C	1.154617	-0.303259	-0.326122
C100	C	1.654617	0.196741	0.173878
C101	C	1.229849	-0.303265	-0.326132
C102	C	1.729849	0.196735	0.173868
C103	C	0.978104	-0.303203	-0.502643
C104	C	1.478104	0.196797	-0.002643
C105	C	0.978116	-0.303184	-0.577875
C106	C	1.478116	0.196816	-0.077875
C107	C	0.978181	-0.139056	-0.326152
C108	C	1.478181	0.360944	0.173848
C109	C	0.978227	-0.069088	-0.326175
C110	C	1.478227	0.430912	0.173825
C111	C	0.934865	-0.262916	-0.613226
C112	C	1.434865	0.237084	-0.113226
C113	C	0.934874	-0.262904	-0.683914
C114	C	1.434874	0.237096	-0.183914
C115	C	0.978139	-0.303157	-0.719250
C116	C	1.478139	0.196843	-0.219250
C117	C	1.021393	-0.343430	-0.683894
C118	C	1.521393	0.156570	-0.183894
C119	C	1.021379	-0.343445	-0.613207
C120	C	1.521379	0.156555	-0.113207
C121	C	1.021446	-0.343371	-0.968968
C122	C	1.521446	0.156629	-0.468968
C123	C	1.021458	-0.343352	-1.039660
C124	C	1.521458	0.156648	-0.539660
C125	C	0.934941	-0.262830	-1.039675
C126	C	1.434941	0.237170	-0.539675
C127	C	0.934928	-0.262845	-0.968988
C128	C	1.434928	0.237155	-0.468988
C129	C	0.978178	-0.303120	-0.933638
C130	C	1.478178	0.196880	-0.433638
C131	C	0.978167	-0.303133	-0.856989
C132	C	1.478167	0.196867	-0.356989
C133	C	0.978154	-0.303141	-0.795897
C134	C	1.478154	0.196859	-0.295897
C135	C	0.978083	-0.303245	-0.150244
C136	C	1.478083	0.196755	0.349756
C137	C	0.978202	-0.303086	-0.075012
C138	C	1.478202	0.196914	0.424988
H139	H	0.364656	-0.230123	-0.247726
H140	H	0.864656	0.269877	0.252274
H141	H	0.592180	-0.230112	-0.247718
H142	H	1.092180	0.269888	0.252282
Cl143	Cl	0.880244	-0.528329	-0.423693
Cl144	Cl	1.380244	-0.028329	0.076307
Cl145	Cl	1.075927	-0.929139	-0.228521
Cl146	Cl	1.575927	-0.429139	0.271479
H147	H	1.056691	-0.376133	-1.068429
H148	H	1.556691	0.123867	-0.568429
H149	H	0.592177	-0.376383	-0.404485
H150	H	1.092177	0.123617	0.095515
H151	H	0.899637	-0.230133	-0.584460
H152	H	1.399637	0.269867	-0.084460
Cl153	Cl	0.880565	-0.212200	-1.084119
Cl154	Cl	1.380565	0.287800	-0.584119
H155	H	0.364650	-0.376396	-0.404501
H156	H	0.864650	0.123604	0.095499
Cl157	Cl	0.880537	-0.212237	-0.924569
Cl158	Cl	1.380537	0.287763	-0.424569
H159	H	0.236406	-0.376401	-0.404513
H160	H	0.736406	0.123599	0.095487
Cl161	Cl	0.880302	-0.676716	-0.423714
Cl162	Cl	1.380302	-0.176716	0.076286
Cl163	Cl	1.076001	-1.077522	-0.228565
Cl164	Cl	1.576001	-0.577522	0.271435
H165	H	0.236422	-0.230129	-0.247740
H166	H	0.736422	0.269871	0.252260
H167	H	1.056656	-0.376172	-0.940194
H168	H	1.556656	0.123828	-0.440194
Cl169	Cl	0.736063	-0.394235	-0.423603
Cl170	Cl	1.236063	0.105765	0.076397
Cl171	Cl	1.075827	-0.676686	-0.228478
Cl172	Cl	1.575827	-0.176686	0.271522
Cl173	Cl	0.736083	-0.212249	-0.228566
Cl174	Cl	1.236083	0.287751	0.271434
Cl175	Cl	1.075779	-0.394039	-0.728317
Cl176	Cl	1.575779	0.105961	-0.228317
H177	H	1.056589	-0.542862	-0.247605
H178	H	1.556589	-0.042862	0.252395
H179	H	0.899642	-1.062995	-0.404636
H180	H	1.399642	-0.562995	0.095364
H181	H	0.899590	-0.943726	-0.404610
H182	H	1.399590	-0.443726	0.095390
Cl183	Cl	0.880466	-0.212308	-0.728352
Cl184	Cl	1.380466	0.287692	-0.228352
Cl185	Cl	1.075752	-0.394073	-0.568766
Cl186	Cl	1.575752	0.105927	-0.068766
