data_functionalizedCrystal
_audit_creation_method	'MofGen! by Chris Wilmer'
_symmetry_space_group_name_H-M	'P1'
_symmetry_Int_Tables_number	1
_symmetry_cell_setting	triclinic
loop_
_symmetry_equiv_pos_as_xyz
  x,y,z
_cell_length_a	29.839131
_cell_length_b	18.050591
_cell_length_c	18.050582
_cell_angle_alpha	89.979078
_cell_angle_beta	90.025477
_cell_angle_gamma	89.962574
loop_
_atom_site_label
_atom_site_type_symbol
_atom_site_fract_x
_atom_site_fract_y
_atom_site_fract_z
Zn1	Zn	-0.178930	-1.135224	0.420016
Zn2	Zn	0.321070	-0.635224	0.920016
Zn3	Zn	-0.254052	-1.135106	0.295820
Zn4	Zn	0.245948	-0.635106	0.795820
Zn5	Zn	-0.178932	-1.011044	0.295827
Zn6	Zn	0.321068	-0.511044	0.795827
Zn7	Zn	-0.254028	-1.010963	0.419956
Zn8	Zn	0.245972	-0.510963	0.919956
O9	O	-0.216485	-1.073084	0.357905
O10	O	0.283515	-0.573084	0.857905
O11	O	-0.188904	-1.239133	0.403564
O12	O	0.311096	-0.739133	0.903564
O13	O	-0.244098	-1.118634	0.191896
O14	O	0.255902	-0.618634	0.691896
O15	O	-0.116064	-1.027600	0.312330
O16	O	0.383936	-0.527600	0.812330
O17	O	-0.244096	-1.239047	0.312317
O18	O	0.255904	-0.739047	0.812317
O19	O	-0.116063	-1.118835	0.403571
O20	O	0.383937	-0.618835	0.903571
O21	O	-0.188907	-1.027485	0.191902
O22	O	0.311093	-0.527485	0.691902
O23	O	-0.188884	-0.907108	0.312271
O24	O	0.311116	-0.407108	0.812271
O25	O	-0.244056	-1.027462	0.523888
O26	O	0.255944	-0.527462	1.023888
O27	O	-0.244057	-0.907049	0.403467
O28	O	0.255943	-0.407049	0.903467
O29	O	-0.188881	-1.118756	0.523933
O30	O	0.311119	-0.618756	1.023933
O31	O	-0.316916	-1.118555	0.312258
O32	O	0.183084	-0.618555	0.812258
O33	O	-0.316898	-1.027348	0.403460
O34	O	0.183102	-0.527348	0.903460
C35	C	-0.216469	-0.880132	0.357864
C36	C	0.283531	-0.380132	0.857864
C37	C	-0.216472	-0.797586	0.357864
C38	C	0.283528	-0.297586	0.857864
C39	C	-0.333208	-1.072950	0.357868
C40	C	0.166792	-0.572950	0.857868
C41	C	-0.383142	-1.072961	0.357877
C42	C	0.116858	-0.572961	0.857877
C43	C	-0.216465	-1.073113	0.551611
C44	C	0.283535	-0.573113	1.051611
C45	C	-0.216457	-1.073126	0.634156
C46	C	0.283543	-0.573126	1.134156
C47	C	-0.692782	-1.120663	0.310485
C48	C	-0.192782	-0.620663	0.810485
C49	C	-0.880455	-1.120754	0.310514
C50	C	-0.380455	-0.620754	0.810514
O51	O	-0.904717	-1.161206	0.270192
O52	O	-0.404717	-0.661206	0.770192
N53	N	-0.903927	-1.073238	0.357961
N54	N	-0.403927	-0.573238	0.857961
C55	C	-0.880478	-1.025700	0.405407
C56	C	-0.380478	-0.525700	0.905407
O57	O	-0.904749	-0.985292	0.445769
O58	O	-0.404749	-0.485292	0.945769
C59	C	-0.692806	-1.025612	0.405381
C60	C	-0.192806	-0.525612	0.905381
C61	C	-0.669337	-1.073126	0.357926
C62	C	-0.169337	-0.573126	0.857926
C63	C	-0.669312	-1.168173	0.263035
C64	C	-0.169312	-0.668173	0.763035
C65	C	-0.622397	-1.168147	0.263025
C66	C	-0.122397	-0.668147	0.763025
C67	C	-0.598951	-1.120610	0.310466
C68	C	-0.098951	-0.620610	0.810466
C69	C	-0.622421	-1.073100	0.357917
C70	C	-0.122421	-0.573100	0.857917
C71	C	-0.669358	-0.978078	0.452831
C72	C	-0.169358	-0.478078	0.952831
C73	C	-0.622437	-0.978062	0.452822
C74	C	-0.122437	-0.478062	0.952822
C75	C	-0.598967	-1.025575	0.405367
C76	C	-0.098967	-0.525575	0.905367
C77	C	-0.552060	-1.025537	0.405348
C78	C	-0.052060	-0.525537	0.905348
N79	N	-0.528588	-1.073053	0.357902
N80	N	-0.028588	-0.573053	0.857902
C81	C	-0.552033	-1.120589	0.310461
C82	C	-0.052033	-0.620589	0.810461
C83	C	-0.979009	-1.025748	0.405416
C84	C	-0.479009	-0.525748	0.905416
C85	C	-1.025927	-1.025769	0.405422
C86	C	-0.525927	-0.525769	0.905422
C87	C	-1.025900	-1.120824	0.310530
C88	C	-0.525900	-0.620824	0.810530
C89	C	-0.978982	-1.120799	0.310521
C90	C	-0.478982	-0.620799	0.810521
C91	C	-0.955537	-1.073264	0.357970
C92	C	-0.455537	-0.573264	0.857970
C93	C	-0.453508	-1.120530	0.310444
C94	C	0.046492	-0.620530	0.810444
C95	C	-0.406588	-1.120497	0.310436
C96	C	0.093412	-0.620497	0.810436
C97	C	-0.406619	-1.025445	0.405331
C98	C	0.093381	-0.525445	0.905331
C99	C	-0.453534	-1.025474	0.405336
C100	C	0.046466	-0.525474	0.905336
C101	C	-0.476977	-1.073023	0.357890
C102	C	0.023023	-0.573023	0.857890
O103	O	-0.527769	-0.985113	0.445655
O104	O	-0.027769	-0.485113	0.945655
O105	O	-0.527755	-1.161002	0.270116
O106	O	-0.027755	-0.661002	0.770116
C107	C	-0.739698	-1.120689	0.310495
C108	C	-0.239698	-0.620689	0.810495
C109	C	-0.763167	-1.073178	0.357946
C110	C	-0.263167	-0.573178	0.857946
C111	C	-0.739722	-1.025642	0.405387
C112	C	-0.239722	-0.525642	0.905387
C113	C	-0.810085	-1.073199	0.357951
C114	C	-0.310085	-0.573199	0.857951
C115	C	-0.833531	-1.120736	0.310510
C116	C	-0.333531	-0.620736	0.810510
C117	C	-0.810059	-1.168252	0.263064
C118	C	-0.310059	-0.668252	0.763064
C119	C	-0.763143	-1.168225	0.263054
C120	C	-0.263143	-0.668225	0.763054
C121	C	-0.763194	-0.978126	0.452833
C122	C	-0.263194	-0.478126	0.952833
C123	C	-0.810109	-0.978155	0.452838
C124	C	-0.310109	-0.478155	0.952838
C125	C	-0.833555	-1.025692	0.405397
C126	C	-0.333555	-0.525692	0.905397
C127	C	-0.099307	-1.073239	0.357958
C128	C	0.400693	-0.573239	0.857958
C129	C	-0.049373	-1.073305	0.357981
C130	C	0.450627	-0.573305	0.857981
C131	C	-0.216502	-1.266790	0.357947
C132	C	0.283498	-0.766790	0.857947
C133	C	-0.216510	-1.349336	0.357964
C134	C	0.283490	-0.849336	0.857964
C135	C	-0.186434	-0.598146	0.308386
C136	C	0.313566	-0.098146	0.808386
C137	C	-0.227410	-0.548711	0.290106
C138	C	0.272590	-0.048711	0.790106
C139	C	-0.216486	-0.646456	0.357897
C140	C	0.283514	-0.146456	0.857897
C141	C	-0.175525	-0.548810	0.376175
C142	C	0.324475	-0.048810	0.876175
C143	C	-0.216495	-0.500471	0.357928
C144	C	0.283505	-0.000471	0.857928
C145	C	-0.257483	-0.598108	0.339583
C146	C	0.242517	-0.098108	0.839583
C147	C	-0.205570	-0.598211	0.425683
C148	C	0.294430	-0.098211	0.925683
C149	C	-0.246574	-0.548798	0.407429
C150	C	0.253426	-0.048798	0.907429
C151	C	-0.216480	-0.730554	0.357878
C152	C	0.283520	-0.230554	0.857878
C153	C	-0.216506	-0.416374	0.357948
C154	C	0.283494	0.083626	0.857948
C155	C	-0.216473	-1.073098	0.164953
C156	C	0.283527	-0.573098	0.664953
C157	C	-0.216355	-1.073230	0.082407
C158	C	0.283645	-0.573230	0.582407
C159	C	-0.246420	-1.023518	0.833583
C160	C	0.253580	-0.523518	1.333583
C161	C	-0.257404	-1.091269	0.882980
C162	C	0.242596	-0.591269	1.382980
C163	C	-0.216423	-1.073162	0.785287
C164	C	0.283577	-0.573162	1.285287
C165	C	-0.205426	-1.005449	0.882971
C166	C	0.294574	-0.505449	1.382971
C167	C	-0.216390	-1.073192	0.931272
C168	C	0.283610	-0.573192	1.431272
C169	C	-0.227429	-1.140949	0.833597
C170	C	0.272571	-0.640949	1.333597
C171	C	-0.175431	-1.055083	0.833584
C172	C	0.324569	-0.555083	1.333584
C173	C	-0.186400	-1.122881	0.882959
C174	C	0.313600	-0.622881	1.382959
C175	C	-0.216442	-1.073145	0.701189
C176	C	0.283558	-0.573145	1.201189
C177	C	-0.216371	-1.073218	1.015369
C178	C	0.283629	-0.573218	1.515369
H179	H	-0.387480	-1.159189	0.271790
H180	H	0.112520	-0.659189	0.771790
N181	N	-0.193774	-0.933591	0.910166
N182	N	0.306226	-0.433591	1.410166
N183	N	-0.185796	-0.882145	0.865725
N184	N	0.314204	-0.382145	1.365725
H185	H	-0.177570	-0.831393	0.884928
H186	H	0.322430	-0.331393	1.384928
N187	N	-0.154593	-0.625348	0.255805
N188	N	0.345407	-0.125348	0.755805
N189	N	-0.149255	-0.693560	0.247741
N190	N	0.350745	-0.193560	0.747741
H191	H	-0.126769	-0.712773	0.210606
H192	H	0.373231	-0.212773	0.710606
H193	H	-0.744038	-1.206916	0.224412
H194	H	-0.244038	-0.706916	0.724412
N195	N	-0.834006	-1.216808	0.214593
N196	N	-0.334006	-0.716808	0.714593
N197	N	-0.828796	-1.211926	0.146058
N198	N	-0.328796	-0.711926	0.646058
H199	H	-0.845711	-1.246218	0.111828
H200	H	-0.345711	-0.746218	0.611828
N201	N	-0.955017	-1.169336	0.262041
N202	N	-0.455017	-0.669336	0.762041
N203	N	-0.975962	-1.211770	0.219685
N204	N	-0.475962	-0.711770	0.719685
H205	H	-0.959039	-1.246052	0.185444
H206	H	-0.459039	-0.746052	0.685444
H207	H	-0.292138	-0.619673	0.324073
H208	H	0.207862	-0.119673	0.824073
H209	H	-0.688397	-1.206887	0.224403
H210	H	-0.188397	-0.706887	0.724403
H211	H	-0.196318	-0.619970	0.482978
H212	H	0.303682	-0.119970	0.982978
N213	N	-0.300876	-1.110470	0.910195
N214	N	0.199124	-0.610470	1.410195
N215	N	-0.333971	-1.071024	0.894369
N216	N	0.166029	-0.571024	1.394369
H217	H	-0.364674	-1.084580	0.913587
H218	H	0.135326	-0.584580	1.413587
N219	N	-0.278499	-0.521793	0.459971
N220	N	0.221501	-0.021793	0.959971
N221	N	-0.319043	-0.537738	0.453046
N222	N	0.180957	-0.037738	0.953046
H223	H	-0.341592	-0.518666	0.490152
H224	H	0.158408	-0.018666	0.990152
H225	H	-0.140885	-0.527115	0.391596
H226	H	0.359115	-0.027115	0.891596
H227	H	-0.236650	-0.526970	0.232794
H228	H	0.263350	-0.026970	0.732794
N229	N	-0.955066	-0.977194	0.453896
N230	N	-0.455066	-0.477194	0.953896
N231	N	-0.960289	-0.982079	0.522428
N232	N	-0.460289	-0.482079	1.022428
H233	H	-0.943381	-0.947786	0.556668
H234	H	-0.443381	-0.447786	1.056668
N235	N	-0.278287	-0.970903	0.806391
N236	N	0.221713	-0.470903	1.306391
N237	N	-0.318853	-0.977679	0.822235
N238	N	0.181147	-0.477679	1.322235
H239	H	-0.341361	-0.940522	0.803031
H240	H	0.158639	-0.440522	1.303031
N241	N	-0.154562	-1.175619	0.910002
N242	N	0.345438	-0.675619	1.410002
N243	N	-0.149171	-1.183846	0.978188
N244	N	0.350829	-0.683846	1.478188
H245	H	-0.126687	-1.221093	0.997289
H246	H	0.373313	-0.721093	1.497289
N247	N	-0.239125	-1.212823	0.806498
N248	N	0.260875	-0.712823	1.306498
N249	N	-0.241040	-1.224403	0.738302
N250	N	0.258960	-0.724403	1.238302
H251	H	-0.249300	-1.275163	0.719161
H252	H	0.250700	-0.775163	1.219161
H253	H	-0.688459	-0.939383	0.491470
H254	H	-0.188459	-0.439383	0.991470
H255	H	-0.140789	-1.039754	0.811869
H256	H	0.359211	-0.539754	1.311869
H257	H	-1.045032	-0.987071	0.444057
H258	H	-0.545032	-0.487071	0.944057
N259	N	-0.477444	-1.169092	0.261964
N260	N	0.022556	-0.669092	0.761964
N261	N	-0.472222	-1.164197	0.193433
N262	N	0.027778	-0.664197	0.693433
H263	H	-0.489127	-1.198489	0.159189
H264	H	0.010873	-0.698489	0.659189
N265	N	-0.598434	-1.216687	0.214547
N266	N	-0.098434	-0.716687	0.714547
N267	N	-0.619381	-1.259125	0.172198
N268	N	-0.119381	-0.759125	0.672198
H269	H	-0.602460	-1.293411	0.137959
H270	H	-0.102460	-0.793411	0.637959
H271	H	-0.829214	-0.939458	0.491481
H272	H	-0.329214	-0.439458	0.991481
N273	N	-1.049854	-1.169375	0.262061
N274	N	-0.549854	-0.669375	0.762061
N275	N	-1.076065	-1.143291	0.214714
N276	N	-0.576065	-0.643291	0.714714
H277	H	-1.092984	-1.177580	0.180486
H278	H	-0.592984	-0.677580	0.680486
N279	N	-0.598489	-0.929513	0.501300
N280	N	-0.098489	-0.429513	1.001300
N281	N	-0.603705	-0.934404	0.569833
N282	N	-0.103705	-0.434404	1.069833
H283	H	-0.586792	-0.900117	0.604071
H284	H	-0.086792	-0.400117	1.104071
N285	N	-0.477512	-0.976926	0.453791
N286	N	0.022488	-0.476926	0.953791
N287	N	-0.472318	-0.908398	0.448789
N288	N	0.027682	-0.408398	0.948789
H289	H	-0.489251	-0.874113	0.483013
H290	H	0.010749	-0.374113	0.983013
N291	N	-0.382658	-0.976888	0.453777
N292	N	0.117342	-0.476888	0.953777
N293	N	-0.340767	-0.976878	0.453756
N294	N	0.159233	-0.476878	0.953756
H295	H	-0.323843	-0.942586	0.487974
H296	H	0.176157	-0.442586	0.987974
H297	H	-0.744108	-0.939417	0.491466
H298	H	-0.244108	-0.439417	0.991466
