data_functionalizedCrystal
_audit_creation_method	'MofGen! by Chris Wilmer'
_symmetry_space_group_name_H-M	'P1'
_symmetry_Int_Tables_number	1
_symmetry_cell_setting	triclinic
loop_
_symmetry_equiv_pos_as_xyz
  x,y,z
_cell_length_a	13.897449
_cell_length_b	12.759399
_cell_length_c	12.759393
_cell_angle_alpha	89.967969
_cell_angle_beta	89.976851
_cell_angle_gamma	90.015943
loop_
_atom_site_label
_atom_site_type_symbol
_atom_site_fract_x
_atom_site_fract_y
_atom_site_fract_z
Zn1	Zn	1.474718	-0.418181	-0.594110
Zn2	Zn	1.974718	0.081819	-0.094110
Zn3	Zn	1.474620	-0.593900	-0.418429
Zn4	Zn	1.974620	-0.093900	0.081571
Zn5	Zn	1.313407	-0.418238	-0.418435
Zn6	Zn	1.813407	0.081762	0.081565
Zn7	Zn	1.313396	-0.593821	-0.594056
Zn8	Zn	1.813396	-0.093821	-0.094056
O9	O	1.394035	-0.506035	-0.506257
O10	O	1.894035	-0.006035	-0.006257
O11	O	1.609686	-0.441499	-0.570826
O12	O	2.109686	0.058501	-0.070826
O13	O	1.453198	-0.570655	-0.271408
O14	O	1.953198	-0.070655	0.228592
O15	O	1.334851	-0.271209	-0.441764
O16	O	1.834851	0.228791	0.058236
O17	O	1.609614	-0.570599	-0.441753
O18	O	2.109614	-0.070599	0.058247
O19	O	1.453365	-0.271167	-0.570831
O20	O	1.953365	0.228833	-0.070831
O21	O	1.334756	-0.441597	-0.271413
O22	O	1.834756	0.058403	0.228587
O23	O	1.178424	-0.441520	-0.441711
O24	O	1.678424	0.058480	0.058289
O25	O	1.334832	-0.570465	-0.741084
O26	O	1.834832	-0.070465	-0.241084
O27	O	1.178416	-0.570520	-0.570739
O28	O	1.678416	-0.070520	-0.070739
O29	O	1.453354	-0.441423	-0.741124
O30	O	1.953354	0.058577	-0.241124
O31	O	1.453187	-0.740910	-0.441701
O32	O	1.953187	-0.240910	0.058299
O33	O	1.334736	-0.740852	-0.570733
O34	O	1.834736	-0.240852	-0.070733
C35	C	1.393976	-0.779002	-0.506233
C36	C	1.893976	-0.279002	-0.006233
C37	C	1.394039	-0.895779	-0.506258
C38	C	1.894039	-0.395779	-0.006258
C39	C	1.143421	-0.506018	-0.506221
C40	C	1.643421	-0.006018	-0.006221
C41	C	1.036207	-0.506037	-0.506230
C42	C	1.536207	-0.006037	-0.006230
C43	C	1.455786	-0.950636	-0.439148
C44	C	1.955786	-0.450636	0.060852
C45	C	1.455848	-1.060360	-0.439183
C46	C	1.955848	-0.560360	0.060817
C47	C	1.332407	-1.060360	-0.573443
C48	C	1.832407	-0.560360	-0.073443
C49	C	1.332351	-0.950638	-0.573412
C50	C	1.832351	-0.450638	-0.073412
C51	C	0.949137	-0.506040	-0.506248
C52	C	1.449137	-0.006040	-0.006248
C53	C	0.839905	-0.506048	-0.506279
C54	C	1.339905	-0.006048	-0.006279
C55	C	1.645628	-0.506052	-0.506295
C56	C	2.145628	-0.006052	-0.006295
C57	C	1.752842	-0.506059	-0.506311
C58	C	2.252842	-0.006059	-0.006311
C59	C	1.394102	-0.505928	-0.780291
C60	C	1.894102	-0.005928	-0.280291
C61	C	1.394131	-0.505883	-0.897068
C62	C	1.894131	-0.005883	-0.397068
C63	C	1.394121	-0.232001	-0.506304
C64	C	1.894121	0.267999	-0.006304
C65	C	1.394157	-0.115225	-0.506324
C66	C	1.894157	0.384775	-0.006324
C67	C	1.332481	-0.438670	-0.951931
C68	C	1.832481	0.061330	-0.451931
C69	C	1.332503	-0.438638	-1.061656
C70	C	1.832503	0.061362	-0.561656
C71	C	1.455835	-0.573034	-1.061642
C72	C	1.955835	-0.073034	-0.561642
C73	C	1.455807	-0.573071	-0.951920
C74	C	1.955807	-0.073071	-0.451920
C75	C	1.394023	-0.506065	-0.233290
C76	C	1.894023	-0.006065	0.266710
C77	C	1.394182	-0.505814	-0.116514
C78	C	1.894182	-0.005814	0.383486
H79	H	1.506018	-0.905972	-0.384469
H80	H	2.006018	-0.405972	0.115531
O81	O	1.515608	-0.638331	-0.898456
O82	O	2.015608	-0.138331	-0.398456
C83	C	1.570255	-0.697903	-0.729412
C84	C	2.070255	-0.197903	-0.229412
C85	C	1.502475	-0.623961	-0.789829
C86	C	2.002475	-0.123961	-0.289829
H87	H	1.559675	-0.686295	-0.641577
H88	H	2.059675	-0.186295	-0.141577
H89	H	1.553291	-0.782634	-0.750885
H90	H	2.053291	-0.282634	-0.250885
H91	H	1.648037	-0.679468	-0.751059
H92	H	2.148037	-0.179468	-0.251059
H93	H	1.424670	-0.642302	-0.768216
H94	H	1.924670	-0.142302	-0.268216
H95	H	1.519521	-0.539253	-0.768352
H96	H	2.019521	-0.039253	-0.268352
H97	H	1.282300	-0.383908	-1.106321
H98	H	1.782300	0.116092	-0.606321
H99	H	1.282260	-0.383962	-0.907274
H100	H	1.782260	0.116038	-0.407274
H101	H	1.506131	-1.105020	-0.384536
H102	H	2.006131	-0.605020	0.115464
H103	H	1.282181	-1.105039	-0.628115
H104	H	1.782181	-0.605039	-0.128115
H105	H	1.282068	-0.905970	-0.628067
H106	H	1.782068	-0.405970	-0.128067
H107	H	1.506050	-0.627735	-1.106317
H108	H	2.006050	-0.127735	-0.606317
