data_functionalizedCrystal
_audit_creation_method	'MofGen! by Chris Wilmer'
_symmetry_space_group_name_H-M	'P1'
_symmetry_Int_Tables_number	1
_symmetry_cell_setting	triclinic
loop_
_symmetry_equiv_pos_as_xyz
  x,y,z
_cell_length_a	14.971482
_cell_length_b	14.586319
_cell_length_c	14.971486
_cell_angle_alpha	90.004001
_cell_angle_beta	83.613368
_cell_angle_gamma	90.002951
loop_
_atom_site_label
_atom_site_type_symbol
_atom_site_fract_x
_atom_site_fract_y
_atom_site_fract_z
O1	O	1.186946	0.076229	0.116546
O2	O	1.686946	0.576229	0.616546
O3	O	0.926545	0.076233	0.130508
O4	O	1.426545	0.576233	0.630508
O5	O	1.063725	0.076225	-0.006673
O6	O	1.563725	0.576225	0.493327
O7	O	1.049766	0.076238	0.253727
O8	O	1.549766	0.576238	0.753727
O9	O	1.063715	-0.076256	-0.006675
O10	O	1.563715	0.423744	0.493325
O11	O	0.926535	-0.076247	0.130506
O12	O	1.426535	0.423753	0.630506
O13	O	1.186936	-0.076252	0.116544
O14	O	1.686936	0.423748	0.616544
Cu15	Cu	1.056735	-0.090172	0.123525
Cu16	Cu	1.556735	0.409828	0.623525
Cu17	Cu	1.056746	0.090154	0.123527
Cu18	Cu	1.556746	0.590154	0.623527
O19	O	1.049756	-0.076243	0.253725
O20	O	1.549756	0.423757	0.753725
C21	C	0.893215	-0.000006	0.129883
C22	C	1.393215	0.499994	0.629883
C23	C	0.793918	-0.000005	0.128014
C24	C	1.293918	0.499995	0.628014
C25	C	0.747268	-0.083123	0.127132
C26	C	1.247268	0.416877	0.627132
C27	C	0.653970	-0.083124	0.125361
C28	C	1.153970	0.416876	0.625361
C29	C	0.607322	-0.000006	0.124479
C30	C	1.107322	0.499994	0.624479
C31	C	0.653979	0.083119	0.125358
C32	C	1.153979	0.583119	0.625358
C33	C	0.747276	0.083119	0.127122
C34	C	1.247276	0.583119	0.627122
C35	C	0.459517	0.083113	0.121682
C36	C	0.959517	0.583113	0.621682
C37	C	0.366213	0.083113	0.119919
C38	C	0.866213	0.583113	0.619919
C39	C	0.366210	-0.083130	0.119922
C40	C	0.866210	0.416870	0.619922
C41	C	0.459508	-0.083130	0.121686
C42	C	0.959508	0.416870	0.621686
C43	C	0.506158	-0.000005	0.122567
C44	C	1.006158	0.499995	0.622567
N45	N	1.056733	-0.217004	0.123522
N46	N	1.556733	0.282996	0.623522
C47	C	1.117497	-0.452014	0.062799
C48	C	1.617497	0.047986	0.562799
C49	C	1.117499	-0.547996	0.062797
C50	C	1.617499	-0.047996	0.562797
C51	C	0.995985	-0.547997	0.184249
C52	C	1.495985	-0.047997	0.684249
C53	C	0.995979	-0.452018	0.184246
C54	C	1.495979	0.047982	0.684246
C55	C	1.056740	-0.404029	0.123522
C56	C	1.556740	0.095971	0.623522
C57	C	1.056748	-0.595990	0.123523
C58	C	1.556748	-0.095990	0.623523
C59	C	1.056751	-0.700057	0.123521
C60	C	1.556751	-0.200057	0.623521
C61	C	1.056736	-0.299955	0.123522
C62	C	1.556736	0.200045	0.623522
C63	C	1.220266	-0.000010	0.117168
C64	C	1.720266	0.499990	0.617168
C65	C	1.319563	-0.000006	0.119038
C66	C	1.819563	0.499994	0.619038
C67	C	1.063096	-0.000016	-0.039999
C68	C	1.563096	0.499984	0.460001
C69	C	1.061225	-0.000015	-0.139296
C70	C	1.561225	0.499985	0.360704
N71	N	1.056755	0.216986	0.123522
N72	N	1.556755	0.716986	0.623522
C73	C	1.141814	-0.000017	-0.196522
C74	C	1.641814	0.499983	0.303478
C75	C	1.140051	-0.000008	-0.289822
C76	C	1.640051	0.499992	0.210178
C77	C	1.057698	-0.000003	-0.325893
C78	C	1.557698	0.499997	0.174107
C79	C	0.977102	0.000002	-0.268659
C80	C	1.477102	0.500002	0.231341
C81	C	0.978866	-0.000001	-0.175362
C82	C	1.478866	0.499999	0.324638
C83	C	0.973431	0.000005	-0.463122
C84	C	1.473431	0.500005	0.036878
C85	C	0.971667	0.000006	-0.556426
C86	C	1.471667	0.500006	-0.056426
C87	C	1.134616	-0.000001	-0.577582
C88	C	1.634616	0.499999	-0.077582
C89	C	1.136380	-0.000004	-0.484284
C90	C	1.636380	0.499996	0.015716
C91	C	1.055784	-0.000001	-0.427057
C92	C	1.555784	0.499999	0.072943
C93	C	1.050385	-0.000001	0.287051
C94	C	1.550385	0.499999	0.787051
C95	C	1.052256	0.000004	0.386348
C96	C	1.552256	0.500004	0.886348
H97	H	0.497496	0.150802	0.122400
H98	H	0.997496	0.650802	0.622400
O99	O	0.603715	-0.172804	0.124329
O100	O	1.103715	0.327196	0.624329
H101	H	0.569177	-0.176758	0.062570
H102	H	1.069177	0.323242	0.562570
O103	O	1.221545	-0.000009	-0.639305
O104	O	1.721545	0.499991	-0.139305
H105	H	1.279106	-0.000028	-0.598548
H106	H	1.779106	0.499972	-0.098548
H107	H	0.615992	0.150795	0.124632
H108	H	1.115992	0.650795	0.624632
H109	H	0.785257	0.150802	0.127841
H110	H	1.285257	0.650802	0.627841
O111	O	0.315896	0.172759	0.118958
O112	O	0.815896	0.672759	0.618958
H113	H	0.325898	0.212632	0.180206
H114	H	0.825898	0.712632	0.680206
H115	H	1.166971	-0.412944	0.013353
H116	H	1.666971	0.087056	0.513353
O117	O	0.891942	-0.000002	-0.113639
O118	O	1.391942	0.499998	0.386361
H119	H	0.907003	0.000004	-0.042703
H120	H	1.407003	0.500004	0.457297
H121	H	0.904607	-0.000004	-0.585792
H122	H	1.404607	0.499996	-0.085792
H123	H	1.166972	-0.587063	0.013350
H124	H	1.666972	-0.087063	0.513350
O125	O	0.886505	0.000000	-0.401393
O126	O	1.386505	0.500000	0.098607
H127	H	0.828943	-0.000009	-0.442147
H128	H	1.328943	0.499991	0.057853
H129	H	0.910049	0.000012	-0.298036
H130	H	1.410049	0.500012	0.201964
H131	H	0.946516	-0.587079	0.233690
H132	H	1.446516	-0.087079	0.733690
O133	O	1.230642	-0.000012	-0.157623
O134	O	1.730642	0.499988	0.342377
H135	H	1.269375	-0.062154	-0.180616
H136	H	1.769375	0.437846	0.319384
H137	H	1.203439	-0.000015	-0.454919
H138	H	1.703439	0.499985	0.045081
O139	O	0.930445	-0.400246	0.249738
O140	O	1.430445	0.099754	0.749738
H141	H	0.941916	-0.418643	0.319489
H142	H	1.441916	0.081357	0.819489
O143	O	0.797579	-0.172773	0.128096
O144	O	1.297579	0.327227	0.628096
H145	H	0.749463	-0.230569	0.127181
H146	H	1.249463	0.269431	0.627181
O147	O	0.509823	-0.172776	0.122667
O148	O	1.009823	0.327224	0.622667
H149	H	0.461712	-0.230578	0.121760
H150	H	0.961712	0.269422	0.621760
H151	H	0.328223	-0.150814	0.119205
H152	H	0.828223	0.349186	0.619205
H153	H	1.205675	-0.000011	-0.336413
H154	H	1.705675	0.499989	0.163587
