data_functionalizedCrystal
_audit_creation_method	'MofGen! by Chris Wilmer'
_symmetry_space_group_name_H-M	'P1'
_symmetry_Int_Tables_number	1
_symmetry_cell_setting	triclinic
loop_
_symmetry_equiv_pos_as_xyz
  x,y,z
_cell_length_a	17.637015
_cell_length_b	17.639874
_cell_length_c	12.759393
_cell_angle_alpha	78.826287
_cell_angle_beta	78.748450
_cell_angle_gamma	65.665973
loop_
_atom_site_label
_atom_site_type_symbol
_atom_site_fract_x
_atom_site_fract_y
_atom_site_fract_z
Zn1	Zn	-0.073180	-1.193548	-0.254198
Zn2	Zn	0.426820	-0.693548	0.245802
Zn3	Zn	-0.211089	-1.165575	-0.048914
Zn4	Zn	0.288911	-0.665575	0.451086
Zn5	Zn	-0.101116	-1.055724	-0.107984
Zn6	Zn	0.398884	-0.555724	0.392016
Zn7	Zn	-0.238903	-1.027847	-0.254009
Zn8	Zn	0.261097	-0.527847	0.245991
O9	O	-0.156072	-1.110674	-0.166276
O10	O	0.343928	-0.610674	0.333724
O11	O	-0.068143	-1.305156	-0.202325
O12	O	0.431857	-0.805156	0.297675
O13	O	-0.196552	-1.150963	0.090274
O14	O	0.303448	-0.650963	0.590274
O15	O	0.017970	-1.097380	-0.152179
O16	O	0.517970	-0.597380	0.347821
O17	O	-0.169464	-1.284605	-0.051504
O18	O	0.330536	-0.784605	0.448496
O19	O	0.038494	-1.198638	-0.259602
O20	O	0.538494	-0.698638	0.240398
O21	O	-0.115755	-1.070256	0.046876
O22	O	0.384245	-0.570256	0.546876
O23	O	-0.142725	-0.936707	-0.151996
O24	O	0.357275	-0.436707	0.348004
O25	O	-0.216868	-1.049868	-0.401058
O26	O	0.283132	-0.549868	0.098942
O27	O	-0.243956	-0.916226	-0.259280
O28	O	0.256044	-0.416226	0.240720
O29	O	-0.095113	-1.171607	-0.401197
O30	O	0.404887	-0.671607	0.098803
O31	O	-0.330158	-1.123932	-0.051321
O32	O	0.169842	-0.623932	0.448679
O33	O	-0.350593	-1.022744	-0.202003
O34	O	0.149407	-0.522744	0.297997
C35	C	-0.199390	-0.896565	-0.212028
C36	C	0.300610	-0.396565	0.287972
C37	C	-0.217942	-0.804965	-0.231621
C38	C	0.282058	-0.304965	0.268379
C39	C	-0.015071	-0.556981	-0.017396
C40	C	0.484929	-0.056981	0.482604
C41	C	-0.032519	-0.470905	-0.035818
C42	C	0.467481	0.029095	0.464182
C43	C	-0.138077	-0.449603	-0.147270
C44	C	0.361923	0.050397	0.352730
C45	C	-0.120634	-0.535680	-0.128862
C46	C	0.379366	-0.035680	0.371138
C47	C	-0.059131	-0.589362	-0.063923
C48	C	0.440869	-0.089362	0.436077
C49	C	-0.164694	-0.568061	-0.175389
C50	C	0.335306	-0.068061	0.324611
C51	C	-0.147256	-0.654129	-0.156978
C52	C	0.352744	-0.154129	0.343022
C53	C	-0.085757	-0.707816	-0.092040
C54	C	0.414243	-0.207816	0.407960
C55	C	-0.041692	-0.675431	-0.045512
C56	C	0.458308	-0.175431	0.454488
C57	C	-0.226202	-0.514376	-0.240322
C58	C	0.273798	-0.014376	0.259678
C59	C	-0.270262	-0.546757	-0.286849
C60	C	0.229738	-0.046757	0.213151
C61	C	-0.252819	-0.632828	-0.268444
C62	C	0.247181	-0.132828	0.231556
C63	C	-0.191321	-0.686515	-0.203505
C64	C	0.308679	-0.186515	0.296495
C65	C	-0.296884	-0.665214	-0.314971
C66	C	0.203116	-0.165214	0.185029
C67	C	-0.279445	-0.751282	-0.296560
C68	C	0.220555	-0.251282	0.203440
C69	C	-0.173882	-0.772583	-0.185094
C70	C	0.326118	-0.272583	0.314906
C71	C	-0.370288	-1.067300	-0.120250
C72	C	0.129712	-0.567300	0.379750
C73	C	-0.461915	-1.048820	-0.100578
C74	C	0.038085	-0.548820	0.399422
C75	C	-0.601805	-0.970089	-0.016848
C76	C	-0.101805	-0.470089	0.483152
C77	C	-0.515707	-0.987459	-0.035340
C78	C	-0.015707	-0.487459	0.464660
C79	C	-0.494207	-1.092839	-0.147348
C80	C	0.005793	-0.592839	0.352652
C81	C	-0.580305	-1.075480	-0.128862
C82	C	-0.080305	-0.575480	0.371138
C83	C	-0.634098	-1.014103	-0.063612
C84	C	-0.134098	-0.514103	0.436388
C85	C	-0.612597	-1.119495	-0.175626
C86	C	-0.112597	-0.619495	0.324374
C87	C	-0.698689	-1.102134	-0.157146
C88	C	-0.198689	-0.602134	0.342854
C89	C	-0.752487	-1.040758	-0.091902
C90	C	-0.252487	-0.540758	0.408098
C91	C	-0.720189	-0.996742	-0.045132
C92	C	-0.220189	-0.496742	0.454868
C93	C	-0.558804	-1.180867	-0.240881
C94	C	-0.058804	-0.680867	0.259119
C95	C	-0.591096	-1.224881	-0.287645
C96	C	-0.091096	-0.724881	0.212355
C97	C	-0.677188	-1.207525	-0.269159
C98	C	-0.177188	-0.707525	0.230841
C99	C	-0.730987	-1.146150	-0.203915
C100	C	-0.230987	-0.646150	0.296085
C101	C	-0.709486	-1.251541	-0.315928
C102	C	-0.209486	-0.751541	0.184072
C103	C	-0.795578	-1.234180	-0.297448
C104	C	-0.295578	-0.734180	0.202552
C105	C	-0.817078	-1.128789	-0.185435
C106	C	-0.317078	-0.628789	0.314565
C107	C	0.058985	-1.154239	-0.212501
C108	C	0.558985	-0.654239	0.287499
C109	C	0.150629	-1.172804	-0.232199
C110	C	0.650629	-0.672804	0.267801
C111	C	-0.155977	-1.110748	-0.440315
C112	C	0.344023	-0.610748	0.059685
C113	C	-0.155936	-1.110780	-0.557094
C114	C	0.344064	-0.610780	-0.057094
C115	C	-0.112574	-0.325620	-0.120338
C116	C	0.387426	0.174380	0.379662
C117	C	-0.094012	-0.417223	-0.100740
C118	C	0.405988	0.082777	0.399260
C119	C	-0.113852	-1.068776	-0.634551
C120	C	0.386148	-0.568776	-0.134551
C121	C	-0.113823	-1.068801	-0.744277
C122	C	0.386177	-0.568801	-0.244277
C123	C	-0.197963	-1.152838	-0.699077
C124	C	0.302037	-0.652838	-0.199077
C125	C	-0.197997	-1.152809	-0.589354
C126	C	0.302003	-0.652809	-0.089354
C127	C	-0.156097	-1.110659	0.106694
C128	C	0.343903	-0.610659	0.606694
C129	C	-0.155873	-1.110834	0.223457
C130	C	0.344127	-0.610834	0.723457
H131	H	0.008402	-0.719145	0.007349
H132	H	0.508402	-0.219145	0.507349
F133	F	-0.467224	-1.199114	-0.260887
F134	F	0.032776	-0.699114	0.239113
F135	F	-0.108417	-0.829723	-0.115986
F136	F	0.391583	-0.329723	0.384014
H137	H	-0.079604	-1.034553	-0.608290
H138	H	0.420396	-0.534553	-0.108290
H139	H	-0.232207	-1.187058	-0.725356
H140	H	0.267793	-0.687058	-0.225356
F141	F	0.050394	-0.614120	0.051711
F142	F	0.550394	-0.114120	0.551711
H143	H	-0.822589	-1.026619	-0.076865
H144	H	-0.322589	-0.526619	0.423135
F145	F	-0.069041	-1.024084	-0.826709
F146	F	0.430959	-0.524084	-0.326709
F147	F	-0.874332	-1.063473	-0.115975
F148	F	-0.374332	-0.563473	0.384025
F149	F	-0.777443	-0.931427	0.024328
F150	F	-0.277443	-0.431427	0.524328
H151	H	-0.320340	-0.503037	-0.339718
H152	H	0.179660	-0.003037	0.160282
H153	H	-0.232270	-1.187014	-0.526283
H154	H	0.267730	-0.687014	-0.026283
F155	F	-0.067201	-0.799419	-0.072438
F156	F	0.432799	-0.299419	0.427562
F157	F	-0.203540	-0.392461	-0.216368
F158	F	0.296460	0.107539	0.283632
H159	H	-0.645607	-0.920114	0.036291
H160	H	-0.145607	-0.420114	0.536291
H161	H	0.003370	-0.444547	0.002066
H162	H	0.503370	0.055453	0.502066
F163	F	-0.481342	-0.940611	0.014444
F164	F	0.018658	-0.440611	0.514444
H165	H	-0.240398	-0.444294	-0.255310
H166	H	0.259602	0.055706	0.244690
H167	H	-0.547289	-1.274853	-0.340775
H168	H	-0.047289	-0.774853	0.159225
F169	F	-0.362351	-0.608068	-0.384062
F170	F	0.137649	-0.108068	0.115938
H171	H	-0.450399	-1.142810	-0.200478
H172	H	0.049601	-0.642810	0.299522
F173	F	-0.326341	-0.785746	-0.346077
F174	F	0.173659	-0.285746	0.153923
H175	H	-0.665678	-1.301508	-0.369063
H176	H	-0.165678	-0.801508	0.130937
H177	H	-0.821872	-1.270012	-0.335542
H178	H	-0.321872	-0.770012	0.164458
