data_functionalizedCrystal
_audit_creation_method	'MofGen! by Chris Wilmer'
_symmetry_space_group_name_H-M	'P1'
_symmetry_Int_Tables_number	1
_symmetry_cell_setting	triclinic
loop_
_symmetry_equiv_pos_as_xyz
  x,y,z
_cell_length_a	16.974829
_cell_length_b	16.974813
_cell_length_c	17.766277
_cell_angle_alpha	86.339073
_cell_angle_beta	86.335324
_cell_angle_gamma	83.162295
loop_
_atom_site_label
_atom_site_type_symbol
_atom_site_fract_x
_atom_site_fract_y
_atom_site_fract_z
O1	O	1.049048	0.100810	-0.132635
O2	O	0.818826	0.113639	-0.119394
O3	O	0.940354	-0.007886	-0.119390
O4	O	0.927520	0.222335	-0.132639
O5	O	0.940333	-0.007892	0.005800
O6	O	0.818805	0.113633	0.005796
O7	O	1.049026	0.100804	-0.007445
Cu8	Cu	0.933914	0.107218	0.010606
Cu9	Cu	0.933939	0.107225	-0.137446
O10	O	0.927498	0.222329	-0.007449
C11	C	0.789358	0.113147	-0.054975
C12	C	0.701582	0.111680	-0.049540
C13	C	0.939855	-0.037347	-0.054972
C14	C	0.938390	-0.125122	-0.049538
C15	C	0.207494	0.103449	-0.011619
C16	C	0.289969	0.104827	-0.016728
C17	C	0.331218	0.105514	-0.087524
C18	C	0.289988	0.104830	-0.153217
C19	C	0.207515	0.103457	-0.148107
C20	C	0.577879	0.109624	-0.110123
C21	C	0.660358	0.110994	-0.115227
C22	C	0.660333	0.110993	0.021263
C23	C	0.577858	0.109615	0.026366
C24	C	0.536635	0.108936	-0.039327
N25	N	0.415521	0.106920	-0.092748
N26	N	0.452333	0.107535	-0.034103
C27	C	0.937715	-0.166351	-0.115226
C28	C	0.936334	-0.248825	-0.110117
C29	C	0.935633	-0.290069	-0.039321
C30	C	0.936305	-0.248834	0.026372
C31	C	0.937681	-0.166361	0.021264
C32	C	0.931511	-0.536726	-0.016724
C33	C	0.930137	-0.619205	-0.011620
C34	C	0.930165	-0.619191	-0.148110
C35	C	0.931545	-0.536717	-0.153213
C36	C	0.932213	-0.495489	-0.087520
N37	N	0.934223	-0.374370	-0.034098
N38	N	0.933617	-0.411188	-0.092743
C39	C	1.078495	0.101296	-0.071866
C40	C	1.166270	0.102763	-0.077306
C41	C	0.927998	0.251790	-0.071869
C42	C	0.929463	0.339565	-0.077308
N43	N	0.933902	0.107212	0.114738
N44	N	0.933957	0.107225	-0.241577
C45	C	0.987732	0.053427	0.154124
C46	C	0.987736	0.053424	0.232926
C47	C	0.933918	0.107219	0.272337
C48	C	0.880078	0.161008	0.232942
C49	C	0.880070	0.161004	0.154142
C50	C	0.923480	0.179242	0.393421
C51	C	0.923494	0.179246	0.472219
C52	C	0.933940	0.107228	0.515381
C53	C	0.944388	0.035203	0.479736
C54	C	0.944379	0.035200	0.400936
C55	C	0.933921	0.107228	0.357782
C56	C	0.987777	0.053435	0.640213
C57	C	0.987776	0.053430	0.719017
C58	C	0.880122	0.161021	0.719031
C59	C	0.880119	0.161019	0.640230
C60	C	0.933951	0.107227	0.600825
H61	H	0.173914	0.102893	0.046031
F62	F	0.935616	-0.292701	-0.180032
H63	H	0.544325	0.109068	-0.163614
F64	F	0.333891	0.105562	-0.228564
F65	F	0.932293	-0.492829	-0.228565
F66	F	0.929453	-0.663075	-0.218020
F67	F	0.912420	0.255900	0.347488
H68	H	0.173951	0.102901	-0.201597
F69	F	0.938467	-0.122465	-0.190578
F70	F	0.938398	-0.122482	0.091178
H71	H	0.693905	0.111548	0.074745
H72	H	0.929562	-0.652783	0.046034
H73	H	1.031609	0.009628	0.751086
H74	H	1.031563	0.009625	0.122043
F75	F	1.045033	-0.003825	0.274850
H76	H	0.952885	-0.023445	0.371917
F77	F	0.932212	-0.492857	0.053194
H78	H	0.323530	0.105384	0.036762
H79	H	0.693941	0.111560	-0.172881
F80	F	0.935550	-0.292729	0.101720
H81	H	0.836258	0.204807	0.265035
F82	F	0.955510	-0.041450	0.525666
H83	H	1.031608	0.009631	0.608129
F84	F	0.533961	0.108899	0.101716
H85	H	0.836234	0.204803	0.122073
F86	F	0.822841	0.218269	0.760972
F87	F	0.822830	0.218268	0.598308
F88	F	0.912380	0.255901	0.510148
