data_functionalizedCrystal
_audit_creation_method	'MofGen! by Chris Wilmer'
_symmetry_space_group_name_H-M	'P1'
_symmetry_Int_Tables_number	1
_symmetry_cell_setting	triclinic
loop_
_symmetry_equiv_pos_as_xyz
  x,y,z
_cell_length_a	19.805407
_cell_length_b	12.759399
_cell_length_c	19.805399
_cell_angle_alpha	89.976347
_cell_angle_beta	89.980427
_cell_angle_gamma	90.015116
loop_
_atom_site_label
_atom_site_type_symbol
_atom_site_fract_x
_atom_site_fract_y
_atom_site_fract_z
Zn1	Zn	1.034789	-0.418291	-0.382738
Zn2	Zn	1.534789	0.081709	0.117262
Zn3	Zn	1.034726	-0.593984	-0.269558
Zn4	Zn	1.534726	-0.093984	0.230442
Zn5	Zn	0.921603	-0.418320	-0.269563
Zn6	Zn	1.421603	0.081680	0.230437
Zn7	Zn	0.921589	-0.593928	-0.382704
Zn8	Zn	1.421589	-0.093928	0.117296
O9	O	0.978177	-0.506131	-0.326141
O10	O	1.478177	-0.006131	0.173859
O11	O	1.129497	-0.441608	-0.367736
O12	O	1.629497	0.058392	0.132264
O13	O	1.019700	-0.570717	-0.174842
O14	O	1.519700	-0.070717	0.325158
O15	O	0.936650	-0.271295	-0.284592
O16	O	1.436650	0.228705	0.215408
O17	O	1.129451	-0.570689	-0.284583
O18	O	1.629451	-0.070689	0.215417
O19	O	1.019807	-0.271273	-0.367741
O20	O	1.519807	0.228727	0.132259
O21	O	0.936589	-0.441657	-0.174845
O22	O	1.436589	0.058343	0.325155
O23	O	0.826885	-0.441603	-0.284559
O24	O	1.326885	0.058397	0.215441
O25	O	0.936626	-0.570594	-0.477425
O26	O	1.436626	-0.070594	0.022575
O27	O	0.826875	-0.570622	-0.367684
O28	O	1.326875	-0.070622	0.132316
O29	O	1.019793	-0.441554	-0.477450
O30	O	1.519793	0.058446	0.022550
O31	O	1.019686	-0.740998	-0.284551
O32	O	1.519686	-0.240998	0.215449
O33	O	0.936565	-0.740957	-0.367679
O34	O	1.436565	-0.240957	0.132321
C35	C	0.802321	-0.506110	-0.326119
C36	C	1.302321	-0.006110	0.173881
C37	C	0.727089	-0.506127	-0.326126
C38	C	1.227089	-0.006127	0.173874
C39	C	0.691757	-0.573408	-0.369339
C40	C	1.191757	-0.073408	0.130661
C41	C	0.621069	-0.573410	-0.369348
C42	C	1.121069	-0.073410	0.130652
C43	C	0.585713	-0.506135	-0.326141
C44	C	1.085713	-0.006135	0.173859
C45	C	0.621050	-0.438847	-0.282926
C46	C	1.121050	0.061153	0.217074
C47	C	0.691737	-0.438840	-0.282920
C48	C	1.191737	0.061160	0.217080
C49	C	0.335977	-0.438870	-0.282948
C50	C	0.835977	0.061130	0.217052
C51	C	0.265285	-0.438884	-0.282956
C52	C	0.765285	0.061116	0.217044
C53	C	0.265308	-0.573440	-0.369376
C54	C	0.765308	-0.073440	0.130624
C55	C	0.335995	-0.573433	-0.369370
C56	C	0.835995	-0.073433	0.130630
C57	C	0.371326	-0.506141	-0.326158
C58	C	0.871326	-0.006141	0.173842
C59	C	0.447974	-0.506139	-0.326149
C60	C	0.947974	-0.006139	0.173851
C61	C	0.509066	-0.506143	-0.326146
C62	C	1.009066	-0.006143	0.173854
C63	C	0.978135	-0.779098	-0.326125
C64	C	1.478135	-0.279098	0.173875
C65	C	0.978180	-0.895875	-0.326141
C66	C	1.478180	-0.395875	0.173859
C67	C	1.021510	-0.950723	-0.282906
C68	C	1.521510	-0.450723	0.217094
C69	C	1.021554	-1.060447	-0.282928
C70	C	1.521554	-0.560447	0.217072
C71	C	0.934930	-1.060465	-0.369424
C72	C	1.434930	-0.560465	0.130576
C73	C	0.934891	-0.950743	-0.369405
C74	C	1.434891	-0.450743	0.130595
C75	C	1.101446	-1.210321	-0.258846
C76	C	1.601446	-0.710321	0.241154
C77	C	1.144771	-1.265173	-0.215599
C78	C	1.644771	-0.765173	0.284401
C79	C	1.155188	-1.229620	-0.149559
C80	C	1.655188	-0.729620	0.350441
C81	C	1.122271	-1.139217	-0.126751
C82	C	1.622271	-0.639217	0.373249
C83	C	1.078942	-1.084370	-0.169994
C84	C	1.578942	-0.584370	0.330006
C85	C	1.068537	-1.119922	-0.236044
C86	C	1.568537	-0.619922	0.263956
C87	C	0.854997	-0.800867	-0.393480
C88	C	1.354997	-0.300867	0.106520
C89	C	0.811663	-0.746018	-0.436720
C90	C	1.311663	-0.246018	0.063280
C91	C	0.801239	-0.781569	-0.502762
C92	C	1.301239	-0.281569	-0.002762
C93	C	0.834144	-0.871976	-0.525567
C94	C	1.334144	-0.371976	-0.025567
C95	C	0.877478	-0.926825	-0.482327
C96	C	1.377478	-0.426825	0.017673
C97	C	0.887903	-0.891266	-0.416286
C98	C	1.387903	-0.391266	0.083714
C99	C	1.154720	-0.506152	-0.326163
C100	C	1.654720	-0.006152	0.173837
C101	C	1.229952	-0.506160	-0.326173
C102	C	1.729952	-0.006160	0.173827
C103	C	0.978215	-0.506064	-0.502684
C104	C	1.478215	-0.006064	-0.002684
C105	C	0.978231	-0.506036	-0.577916
C106	C	1.478231	-0.006036	-0.077916
C107	C	0.978237	-0.232097	-0.326171
C108	C	1.478237	0.267903	0.173829
C109	C	0.978263	-0.115321	-0.326184
C110	C	1.478263	0.384679	0.173816
C111	C	1.021537	-0.438842	-0.613274
C112	C	1.521537	0.061158	-0.113274
C113	C	1.021544	-0.438811	-0.683962
C114	C	1.521544	0.061189	-0.183962
C115	C	0.978248	-0.505981	-0.719291
C116	C	1.478248	-0.005981	-0.219291
C117	C	0.934937	-0.573179	-0.683928
C118	C	1.434937	-0.073179	-0.183928
C119	C	0.934927	-0.573203	-0.613241
C120	C	1.434927	-0.073203	-0.113241
C121	C	0.934975	-0.573081	-0.969002
C122	C	1.434975	-0.073081	-0.469002
C123	C	0.934990	-0.573054	-1.039694
C124	C	1.434990	-0.073054	-0.539694
C125	C	1.021592	-0.438689	-1.039723
C126	C	1.521592	0.061311	-0.539723
C127	C	1.021582	-0.438713	-0.969036
C128	C	1.521582	0.061287	-0.469036
C129	C	0.978269	-0.505906	-0.933679
C130	C	1.478269	-0.005906	-0.433679
C131	C	0.978261	-0.505937	-0.857030
C132	C	1.478261	-0.005937	-0.357030
C133	C	0.978259	-0.505957	-0.795938
C134	C	1.478259	-0.005957	-0.295938
C135	C	0.978178	-0.506121	-0.150285
C136	C	1.478178	-0.006121	0.349715
C137	C	0.978293	-0.505853	-0.075053
C138	C	1.478293	-0.005853	0.424947
H139	H	0.592304	-0.628198	-0.404536
H140	H	1.092304	-0.128198	0.095464
H141	H	0.236500	-0.384094	-0.247771
H142	H	0.736500	0.115906	0.252229
O143	O	1.068213	-0.891539	-0.236261
O144	O	1.568213	-0.391539	0.263739
H145	H	1.037930	-0.841624	-0.201781
H146	H	1.537930	-0.341624	0.298219
H147	H	0.720538	-0.628195	-0.404521
H148	H	1.220538	-0.128195	0.095479
O149	O	1.068236	-0.366394	-0.575169
O150	O	1.568236	0.133606	-0.075169
H151	H	1.098345	-0.319657	-0.611635
H152	H	1.598345	0.180343	-0.111635
H153	H	0.720504	-0.384048	-0.247735
H154	H	1.220504	0.115952	0.252265
H155	H	0.863486	-0.771906	-0.339705
H156	H	1.363486	-0.271906	0.160295
H157	H	0.899656	-0.627909	-0.584453
H158	H	1.399656	-0.127909	-0.084453
O159	O	1.068290	-0.366191	-1.077866
O160	O	1.568290	0.133809	-0.577866
H161	H	1.102716	-0.413194	-1.110085
H162	H	1.602716	0.086806	-0.610085
H163	H	0.899685	-1.105151	-0.404647
H164	H	1.399685	-0.605151	0.095353
H165	H	0.899730	-0.627754	-1.068457
H166	H	1.399730	-0.127754	-0.568457
O167	O	1.090220	-1.248688	-0.330075
O168	O	1.590220	-0.748688	0.169925
H169	H	1.106200	-1.187118	-0.366324
H170	H	1.606200	-0.687118	0.133676
O171	O	0.374131	-0.645987	-0.415976
O172	O	0.874131	-0.145987	0.084024
H173	H	0.337686	-0.692765	-0.446033
H174	H	0.837686	-0.192765	0.053967
H175	H	0.364735	-0.384085	-0.247757
H176	H	0.864735	0.115915	0.252243
H177	H	1.052143	-1.010764	-0.151425
H178	H	1.552143	-0.510764	0.348575
H179	H	1.056810	-0.384097	-0.712748
H180	H	1.556810	0.115903	-0.212748
H181	H	0.765951	-0.736902	-0.537966
H182	H	1.265951	-0.236902	-0.037966
O183	O	0.888227	-0.645496	-0.930870
O184	O	1.388227	-0.145496	-0.430870
H185	H	0.858115	-0.692184	-0.967314
H186	H	1.358115	-0.192184	-0.467314
H187	H	0.899682	-0.627866	-0.712699
H188	H	1.399682	-0.127866	-0.212699
H189	H	0.904274	-1.000436	-0.500902
H190	H	1.404274	-0.500436	-0.000902
H191	H	0.236533	-0.628228	-0.404564
H192	H	0.736533	-0.128228	0.095436
H193	H	0.592258	-0.384066	-0.247749
H194	H	1.092258	0.115934	0.252251
H195	H	1.130751	-1.110283	-0.072972
H196	H	1.630751	-0.610283	0.427028
H197	H	1.190465	-1.274288	-0.114348
H198	H	1.690465	-0.774288	0.385652
O199	O	1.180280	-1.362671	-0.240196
O200	O	1.680280	-0.862671	0.259804
H201	H	1.165770	-1.378170	-0.293390
H202	H	1.665770	-0.878170	0.206610
O203	O	0.822909	-0.910329	-0.596799
O204	O	1.322909	-0.410329	-0.096799
H205	H	0.787255	-0.856996	-0.623038
H206	H	1.287255	-0.356996	-0.123038
H207	H	0.784874	-0.672399	-0.418148
H208	H	1.284874	-0.172399	0.081852
O209	O	1.068280	-0.366268	-0.930929
O210	O	1.568280	0.133732	-0.430929
H211	H	1.098392	-0.319530	-0.967392
H212	H	1.598392	0.180470	-0.467392
