data_functionalizedCrystal
_audit_creation_method	'MofGen! by Chris Wilmer'
_symmetry_space_group_name_H-M	'P1'
_symmetry_Int_Tables_number	1
_symmetry_cell_setting	triclinic
loop_
_symmetry_equiv_pos_as_xyz
  x,y,z
_cell_length_a	13.897449
_cell_length_b	16.625545
_cell_length_c	13.897441
_cell_angle_alpha	89.969815
_cell_angle_beta	89.978743
_cell_angle_gamma	90.026384
loop_
_atom_site_label
_atom_site_type_symbol
_atom_site_fract_x
_atom_site_fract_y
_atom_site_fract_z
Zn1	Zn	1.474630	-0.320966	-0.545446
Zn2	Zn	1.474507	-0.455814	-0.384146
Zn3	Zn	1.313325	-0.321001	-0.384157
Zn4	Zn	1.313278	-0.455762	-0.545391
O5	O	1.393935	-0.388386	-0.464785
O6	O	1.609595	-0.338861	-0.524068
O7	O	1.453095	-0.437967	-0.249165
O8	O	1.334793	-0.208164	-0.405580
O9	O	1.609505	-0.437933	-0.405561
O10	O	1.453303	-0.208138	-0.524078
O11	O	1.334674	-0.338920	-0.249174
O12	O	1.178337	-0.338870	-0.405526
O13	O	1.334714	-0.437845	-0.680380
O14	O	1.178303	-0.437879	-0.523984
O15	O	1.453258	-0.338811	-0.680420
O16	O	1.453050	-0.568639	-0.405508
O17	O	1.334595	-0.568601	-0.523974
C18	C	1.143321	-0.388373	-0.464751
C19	C	1.036107	-0.388387	-0.464760
C20	C	0.949037	-0.388390	-0.464776
C21	C	0.839804	-0.388396	-0.464805
C22	C	1.393830	-0.597877	-0.464754
C23	C	1.393874	-0.687498	-0.464774
C24	C	1.393911	-0.760280	-0.464793
C25	C	1.393967	-0.851589	-0.464814
C26	C	1.394017	-0.924365	-0.464826
C27	C	1.394072	-1.015679	-0.464846
C28	C	1.645528	-0.388399	-0.464819
C29	C	1.752742	-0.388404	-0.464834
C30	C	1.393994	-0.388318	-0.716378
C31	C	1.394019	-0.388289	-0.823592
C32	C	1.394066	-0.178077	-0.464836
C33	C	1.394123	-0.088456	-0.464858
C34	C	1.394039	-0.388266	-0.910662
C35	C	1.394067	-0.388230	-1.019894
C36	C	1.393932	-0.388395	-0.214170
C37	C	1.394093	-0.388197	-0.106957
