data_functionalizedCrystal
_audit_creation_method	'MofGen! by Chris Wilmer'
_symmetry_space_group_name_H-M	'P1'
_symmetry_Int_Tables_number	1
_symmetry_cell_setting	triclinic
loop_
_symmetry_equiv_pos_as_xyz
  x,y,z
_cell_length_a	8.559649
_cell_length_b	17.666332
_cell_length_c	8.559649
_cell_angle_alpha	90.005307
_cell_angle_beta	110.221336
_cell_angle_gamma	89.990460
loop_
_atom_site_label
_atom_site_type_symbol
_atom_site_fract_x
_atom_site_fract_y
_atom_site_fract_z
O1	O	2.126893	-0.062936	0.055034
O2	O	1.651408	-0.062939	-0.028747
O3	O	1.931041	-0.062937	0.250886
O4	O	1.847260	-0.062939	-0.224599
O5	O	1.930997	0.062960	0.250893
O6	O	1.651364	0.062957	-0.028740
O7	O	2.126849	0.062960	0.055041
Cu8	Cu	1.889103	0.074454	0.013151
Cu9	Cu	1.889155	-0.074433	0.013143
O10	O	1.847216	0.062958	-0.224592
C11	C	1.591077	0.000009	-0.035093
C12	C	1.411378	0.000007	-0.053992
N13	N	1.889078	0.179174	0.013160
C14	C	2.012929	0.218784	0.136931
C15	C	2.012938	0.298032	0.136940
C16	C	1.889109	0.337666	0.013150
C17	C	1.765237	0.298045	-0.110632
C18	C	1.765222	0.218799	-0.110628
N19	N	1.850842	0.462084	-0.132931
N20	N	1.850867	0.537364	-0.132929
C21	C	1.889146	0.576430	0.013131
N22	N	1.927431	0.537371	0.159198
N23	N	1.927414	0.462084	0.159196
C24	C	1.889111	0.423595	0.013132
C25	C	2.013013	0.701970	0.136922
C26	C	2.013012	0.781219	0.136931
C27	C	1.765317	0.781231	-0.110654
C28	C	1.765313	0.701983	-0.110650
C29	C	1.889169	0.662358	0.013137
C30	C	2.187180	0.000011	0.061387
C31	C	2.366879	0.000007	0.080286
C32	C	1.937369	0.000010	0.311198
C33	C	1.956268	0.000006	0.490898
N34	N	1.889180	0.820847	0.013143
C35	C	1.840889	0.000009	-0.284904
C36	C	1.821990	0.000008	-0.464604
H37	H	1.466258	0.000004	0.209705
O38	O	1.667500	-0.000098	0.417001
C39	C	1.405476	-0.065351	0.300926
C40	C	1.580373	-0.065316	0.435130
H41	H	1.334997	-0.118082	0.315515
H42	H	1.334731	-0.012699	0.315540
H43	H	1.417271	-0.065319	0.172278
H44	H	1.568731	-0.065374	0.563837
H45	H	1.651053	-0.117962	0.420369
H46	H	2.085696	0.000013	0.590286
O47	O	1.644912	0.336626	-0.230668
C48	C	1.419105	0.426091	-0.292262
C49	C	1.555338	0.382460	-0.156155
H50	H	1.346624	0.463147	-0.232073
H51	H	1.479109	0.463229	-0.364748
H52	H	1.330646	0.384151	-0.380754
H53	H	1.643841	0.424346	-0.067552
H54	H	1.495220	0.345312	-0.083794
H55	H	1.311990	0.000003	-0.183420
O56	O	2.133309	0.180411	0.257348
C57	C	2.379044	0.188766	0.502853
C58	C	2.242795	0.232320	0.366601
H59	H	2.467619	0.230716	0.591199
H60	H	2.319054	0.151701	0.575475
H61	H	2.451393	0.151628	0.442672
H62	H	2.170399	0.269499	0.426645
H63	H	2.302886	0.269337	0.293992
O64	O	2.133133	0.663363	0.257124
C65	C	2.195008	0.573851	0.482827
C66	C	2.058781	0.617525	0.346803
H67	H	2.134949	0.536793	0.555393
H68	H	2.267332	0.536713	0.422616
H69	H	2.283620	0.615764	0.571252
H70	H	1.970059	0.575668	0.258335
H71	H	1.986582	0.654675	0.407128
H72	H	2.113795	0.330289	0.237733
H73	H	1.664366	0.186547	-0.211419
O74	O	2.133493	0.819582	0.257248
C75	C	2.379134	0.811204	0.502846
C76	C	2.242807	0.767663	0.366666
H77	H	2.467530	0.769246	0.591365
H78	H	2.451683	0.848272	0.442783
H79	H	2.319032	0.848337	0.575273
H80	H	2.302773	0.730488	0.294192
H81	H	2.170272	0.730642	0.426830
O82	O	1.645148	0.663537	-0.231102
C83	C	1.515405	0.639326	-0.524811
C84	C	1.651597	0.682898	-0.388559
H85	H	1.520551	0.654976	-0.652148
H86	H	1.536640	0.575870	-0.503693
H87	H	1.388108	0.654915	-0.519455
H88	H	1.778951	0.667372	-0.393835
H89	H	1.630216	0.746344	-0.409723
H90	H	1.664488	0.813500	-0.211440
