data_functionalizedCrystal
_audit_creation_method	'MofGen! by Chris Wilmer'
_symmetry_space_group_name_H-M	'P1'
_symmetry_Int_Tables_number	1
_symmetry_cell_setting	triclinic
loop_
_symmetry_equiv_pos_as_xyz
  x,y,z
_cell_length_a	10.654546
_cell_length_b	10.540510
_cell_length_c	9.730223
_cell_angle_alpha	90.001116
_cell_angle_beta	89.998853
_cell_angle_gamma	84.498397
loop_
_atom_site_label
_atom_site_type_symbol
_atom_site_fract_x
_atom_site_fract_y
_atom_site_fract_z
O1	O	1.667880	0.178276	-0.114312
O2	O	1.302406	0.195269	-0.114307
O3	O	1.493501	0.002060	-0.114309
O4	O	1.476785	0.371484	-0.114310
O5	O	1.493498	0.002065	0.114271
O6	O	1.302403	0.195273	0.114273
O7	O	1.667878	0.178281	0.114268
Zn8	Zn	1.485140	0.186778	0.150562
Zn9	Zn	1.485143	0.186772	-0.150602
O10	O	1.476783	0.371489	0.114270
C11	C	1.255606	0.194024	-0.000017
C12	C	1.116162	0.190294	-0.000015
C13	C	1.050668	0.188527	-0.124620
C14	C	0.919646	0.185012	-0.124632
C15	C	0.919625	0.185027	0.124579
C16	C	1.050643	0.188551	0.124588
C17	C	1.050680	0.188512	-0.268500
C18	C	0.919658	0.184997	-0.268511
C19	C	1.492254	-0.045240	-0.000022
C20	C	1.488527	-0.186189	-0.000030
C21	C	1.621280	-0.403694	0.000492
C22	C	1.625255	-0.257100	-0.000031
C23	C	1.418537	-0.230924	-0.130557
C24	C	1.415530	-0.377684	-0.130659
C25	C	1.412680	-0.377486	0.129279
C26	C	1.419165	-0.231147	0.130997
C27	C	1.714678	0.179526	-0.000025
C28	C	1.854122	0.183256	-0.000036
C29	C	1.478030	0.418790	-0.000020
C30	C	1.481757	0.559739	-0.000021
N31	N	1.485148	0.186782	0.356099
N32	N	1.485146	0.186758	-0.356138
C33	C	1.569786	0.101258	0.428024
C34	C	1.569783	0.101243	0.571907
C35	C	1.400498	0.272285	0.571927
C36	C	1.400496	0.272294	0.428046
C37	C	1.667526	0.002512	0.428014
C38	C	1.667522	0.002497	0.571897
H39	H	0.867969	0.275402	-0.313170
C40	C	1.284305	-0.164816	0.141646
N41	N	1.182722	-0.114856	0.149655
H42	H	0.866263	0.183609	0.226027
C43	C	1.790723	0.044271	0.367717
N44	N	1.883517	0.075725	0.322301
H45	H	0.894822	0.095356	-0.323753
H46	H	1.103961	0.190005	0.226054
H47	H	1.680018	-0.227774	0.093534
H48	H	1.310024	-0.399598	0.130160
H49	H	1.674547	-0.445667	0.094099
H50	H	1.331566	0.341922	0.369486
H51	H	1.075521	0.278146	-0.323743
C52	C	1.120531	0.066379	-0.328804
N53	N	1.173143	-0.025614	-0.374222
H54	H	1.674242	-0.447221	-0.092588
C55	C	1.699664	-0.218749	-0.126660
N56	N	1.755709	-0.189865	-0.222045
C57	C	1.480170	-0.432046	-0.262463
N58	N	1.528865	-0.472985	-0.361737
H59	H	1.313265	-0.400641	-0.136572
C60	C	1.282557	-0.166845	-0.137125
N61	N	1.180137	-0.118576	-0.142070
C62	C	1.484210	-0.189280	-0.261790
N63	N	1.533685	-0.157919	-0.360632
C64	C	1.471067	-0.434834	0.262937
N65	N	1.515060	-0.478030	0.363601
H66	H	1.470093	-0.202552	0.227560
C67	C	1.307385	0.366342	0.651083
N68	N	1.237250	0.437187	0.710701
H69	H	1.646059	-0.095062	0.388960
H70	H	1.636987	-0.089710	0.616513
H71	H	1.764039	0.024246	0.610946
