data_functionalizedCrystal
_audit_creation_method	'MofGen! by Chris Wilmer'
_symmetry_space_group_name_H-M	'P1'
_symmetry_Int_Tables_number	1
_symmetry_cell_setting	triclinic
loop_
_symmetry_equiv_pos_as_xyz
  x,y,z
_cell_length_a	21.395362
_cell_length_b	21.395361
_cell_length_c	17.077396
_cell_angle_alpha	90.030789
_cell_angle_beta	89.961012
_cell_angle_gamma	89.953589
loop_
_atom_site_label
_atom_site_type_symbol
_atom_site_fract_x
_atom_site_fract_y
_atom_site_fract_z
Zn1	Zn	0.957830	0.249173	-0.444238
Zn2	Zn	1.457830	0.749173	0.055762
Zn3	Zn	0.957742	0.353954	-0.312967
Zn4	Zn	1.457742	0.853954	0.187033
Zn5	Zn	0.853054	0.249224	-0.312942
Zn6	Zn	1.353054	0.749224	0.187058
Zn7	Zn	0.853014	0.353946	-0.444146
Zn8	Zn	1.353014	0.853946	0.055854
O9	O	0.905410	0.301574	-0.378573
O10	O	1.405410	0.801574	0.121427
O11	O	1.045496	0.263055	-0.426874
O12	O	1.545496	0.763055	0.073126
O13	O	0.943834	0.340086	-0.203117
O14	O	1.443834	0.840086	0.296883
O15	O	0.867006	0.161539	-0.330387
O16	O	1.367006	0.661539	0.169613
O17	O	1.045431	0.340037	-0.330430
O18	O	1.545431	0.840037	0.169570
O19	O	0.943984	0.161502	-0.426850
O20	O	1.443984	0.661502	0.073150
O21	O	0.866920	0.263141	-0.203098
O22	O	1.366920	0.763141	0.296902
O23	O	0.765370	0.263133	-0.330297
O24	O	1.265370	0.763133	0.169703
O25	O	0.866938	0.340023	-0.554005
O26	O	1.366938	0.840023	-0.054005
O27	O	0.765341	0.340072	-0.426692
O28	O	1.265341	0.840072	0.073308
O29	O	0.943946	0.263046	-0.554073
O30	O	1.443946	0.763046	-0.054073
O31	O	0.943796	0.441631	-0.330340
O32	O	1.443796	0.941631	0.169660
O33	O	0.866853	0.441625	-0.426717
O34	O	1.366853	0.941625	0.073283
C35	C	0.742622	0.301607	-0.378482
C36	C	1.242622	0.801607	0.121518
C37	C	0.672981	0.301637	-0.378462
C38	C	1.172981	0.801637	0.121538
C39	C	0.640269	0.341752	-0.428580
C40	C	1.140269	0.841752	0.071420
C41	C	0.574834	0.341736	-0.428615
C42	C	1.074834	0.841736	0.071385
C43	C	0.542112	0.301612	-0.378518
C44	C	1.042112	0.801612	0.121482
C45	C	0.574832	0.261489	-0.328396
C46	C	1.074832	0.761489	0.171604
C47	C	0.640266	0.261501	-0.328369
C48	C	1.140266	0.761501	0.171631
C49	C	0.438393	0.296576	-0.307851
C50	C	0.938393	0.796576	0.192149
C51	C	0.372960	0.296569	-0.307877
C52	C	0.872960	0.796569	0.192123
C53	C	0.340292	0.301572	-0.378605
C54	C	0.840292	0.801572	0.121395
C55	C	0.373065	0.306595	-0.449307
C56	C	0.873065	0.806595	0.050693
C57	C	0.438499	0.306607	-0.449279
C58	C	0.938499	0.806607	0.050721
C59	C	0.471160	0.301595	-0.378543
C60	C	0.971160	0.801595	0.121457
C61	C	0.236627	0.341672	-0.428764
C62	C	0.736627	0.841672	0.071236
C63	C	0.171191	0.341652	-0.428801
C64	C	0.671191	0.841652	0.071199
C65	C	0.171191	0.261409	-0.328576
C66	C	0.671191	0.761409	0.171424
C67	C	0.236626	0.261425	-0.328546
C68	C	0.736626	0.761425	0.171454
C69	C	0.269341	0.301560	-0.378640
C70	C	0.769341	0.801560	0.121360
C71	C	0.905328	0.464362	-0.378538
C72	C	1.405328	0.964362	0.121462
C73	C	0.905350	0.534003	-0.378550
C74	C	1.405350	1.034003	0.121450
C75	C	0.945449	0.566699	-0.328420
C76	C	1.445449	1.066699	0.171580
C77	C	0.945479	0.632134	-0.328441
C78	C	1.445479	1.132134	0.171559
C79	C	0.905397	0.664871	-0.378584
C80	C	1.405397	1.164871	0.121416
C81	C	0.865295	0.632168	-0.428724
C82	C	1.365295	1.132168	0.071276
C83	C	0.865271	0.566734	-0.428707
C84	C	1.365271	1.066734	0.071293
C85	C	0.848982	0.768601	-0.384717
C86	C	1.348982	1.268601	0.115283
C87	C	0.849005	0.834034	-0.384728
C88	C	1.349005	1.334034	0.115272
C89	C	0.905471	0.866692	-0.378641
C90	C	1.405471	1.366692	0.121359
C91	C	0.961916	0.833909	-0.372525
C92	C	1.461916	1.333909	0.127475
C93	C	0.961892	0.768475	-0.372508
C94	C	1.461892	1.268475	0.127492
C95	C	0.905419	0.735824	-0.378608
C96	C	1.405419	1.235824	0.121392
C97	C	0.945606	0.970340	-0.328531
C98	C	1.445606	1.470340	0.171469
C99	C	0.945636	1.035777	-0.328557
C100	C	1.445636	1.535777	0.171443
C101	C	0.865446	1.035809	-0.428836
C102	C	1.365446	1.535809	0.071164
C103	C	0.865422	0.970374	-0.428814
C104	C	1.365422	1.470374	0.071186
C105	C	0.905500	0.937643	-0.378657
C106	C	1.405500	1.437643	0.121343
C107	C	1.068833	0.301541	-0.378665
C108	C	1.568833	0.801541	0.121335
C109	C	1.138474	0.301527	-0.378704
C110	C	1.638474	0.801527	0.121296
C111	C	0.905448	0.301528	-0.583318
C112	C	1.405448	0.801528	-0.083318
C113	C	0.905464	0.301508	-0.670568
C114	C	1.405464	0.801508	-0.170568
C115	C	0.905510	1.138151	-0.378639
C116	C	1.405510	1.638151	0.121361
C117	C	0.905555	1.068509	-0.378702
C118	C	1.405555	1.568509	0.121298
C119	C	0.945563	0.261423	-0.711594
C120	C	1.445563	0.761423	-0.211594
C121	C	0.945571	0.261403	-0.793575
C122	C	1.445571	0.761403	-0.293575
C123	C	0.905482	0.301470	-0.834527
C124	C	1.405482	0.801470	-0.334527
C125	C	0.865378	0.341557	-0.793495
C126	C	1.365378	0.841557	-0.293495
C127	C	0.865368	0.341574	-0.711516
C128	C	1.365368	0.841574	-0.211516
C129	C	0.865403	0.341519	-0.964365
C130	C	1.365403	0.841519	-0.464365
C131	C	0.865414	0.341503	-1.046349
C132	C	1.365414	0.841503	-0.546349
C133	C	0.945606	0.261348	-1.046424
C134	C	1.445606	0.761348	-0.546424
C135	C	0.945596	0.261365	-0.964445
C136	C	1.445596	0.761365	-0.464445
C137	C	0.905493	0.301452	-0.923418
C138	C	1.405493	0.801452	-0.423418
C139	C	0.905408	0.301575	-0.174625
C140	C	1.405408	0.801575	0.325375
C141	C	0.905513	0.301418	-0.087376
C142	C	1.405513	0.801418	0.412624
H143	H	0.263260	0.228762	-0.287731
H144	H	0.763260	0.728762	0.212269
O145	O	0.826382	0.380376	-0.924482
O146	O	1.326382	0.880376	-0.424482
C147	C	0.741795	0.388864	-0.831839
C148	C	1.241795	0.888864	-0.331839
C149	C	0.785932	0.344784	-0.876967
C150	C	1.285932	0.844784	-0.376967
H151	H	0.709089	0.360107	-0.793399
H152	H	1.209089	0.860107	-0.293399
H153	H	0.713105	0.417488	-0.875161
H154	H	1.213105	0.917488	-0.375161
H155	H	0.770552	0.421641	-0.793504
H156	H	1.270552	0.921641	-0.293504
H157	H	0.757224	0.311969	-0.915302
H158	H	1.257224	0.811969	-0.415302
H159	H	0.814625	0.316205	-0.833602
H160	H	1.314625	0.816205	-0.333602
H161	H	0.346281	0.292482	-0.250307
H162	H	0.846281	0.792482	0.249693
O163	O	0.139317	0.222506	-0.279917
O164	O	0.639317	0.722506	0.220083
C165	C	0.038512	0.186930	-0.235533
C166	C	0.538512	0.686930	0.264467
C167	C	0.074534	0.231023	-0.290676
C168	C	0.574534	0.731023	0.209324
H169	H	-0.013871	0.193792	-0.244224
H170	H	0.486129	0.693792	0.255776
H171	H	0.051278	0.197893	-0.172198
H172	H	0.551278	0.697893	0.327802
H173	H	0.051466	0.136425	-0.249391
H174	H	0.551466	0.636425	0.250609
H175	H	0.061599	0.281543	-0.276889
H176	H	0.561599	0.781543	0.223111
H177	H	0.061765	0.220006	-0.353994
H178	H	0.561765	0.720006	0.146006
O179	O	0.984620	0.222383	-1.086152
O180	O	1.484620	0.722383	-0.586152
C181	C	1.064134	0.142859	-1.077574
C182	C	1.564134	0.642859	-0.577574
C183	C	1.019993	0.186959	-1.032482
C184	C	1.519993	0.686959	-0.532482
H185	H	1.092736	0.114198	-1.034202
H186	H	1.592736	0.614198	-0.534202
H187	H	1.096923	0.171581	-1.115947
H188	H	1.596923	0.671581	-0.615947
H189	H	1.035385	0.110119	-1.115966
H190	H	1.535385	0.610119	-0.615966
H191	H	1.048693	0.219708	-0.994047
H192	H	1.548693	0.719708	-0.494047
H193	H	0.987203	0.158199	-0.994158
H194	H	1.487203	0.658199	-0.494158
H195	H	0.978210	0.228798	-0.678257
H196	H	1.478210	0.728798	-0.178257
O197	O	0.826411	0.380441	-1.086011
O198	O	1.326411	0.880441	-0.586011
C199	C	0.746890	0.459966	-1.077290
C200	C	1.246890	0.959966	-0.577290
C201	C	0.791018	0.415890	-1.032277
C202	C	1.291018	0.915890	-0.532277
H203	H	0.718273	0.488647	-1.033866
H204	H	1.218273	0.988647	-0.533866
H205	H	0.714114	0.431224	-1.115640
H206	H	1.214114	0.931224	-0.615640
H207	H	0.775650	0.492688	-1.115698
H208	H	1.275650	0.992688	-0.615698
H209	H	0.762309	0.383159	-0.993827
H210	H	1.262309	0.883159	-0.493827
H211	H	0.823796	0.444671	-0.993977
H212	H	1.323796	0.944671	-0.493977
H213	H	0.465180	0.310696	-0.506848
H214	H	0.965180	0.810696	-0.006848
H215	H	0.978225	0.228763	-0.826975
H216	H	1.478225	0.728763	-0.326975
O217	O	0.470026	0.291746	-0.239068
O218	O	0.970026	0.791746	0.260932
C219	C	0.463015	0.281785	-0.098793
C220	C	0.963015	0.781785	0.401207
C221	C	0.427114	0.287262	-0.176628
C222	C	0.927114	0.787262	0.323372
H223	H	0.428337	0.278145	-0.048292
H224	H	0.928337	0.778145	0.451708
H225	H	0.493579	0.324885	-0.090350
H226	H	0.993579	0.824885	0.409650
H227	H	0.493715	0.238222	-0.100126
H228	H	0.993715	0.738222	0.399874
H229	H	0.396380	0.330800	-0.175351
H230	H	0.896380	0.830800	0.324649
H231	H	0.396590	0.244132	-0.185042
H232	H	0.896590	0.744132	0.314958
H233	H	0.263265	0.374349	-0.469558
H234	H	0.763265	0.874349	0.030442
O235	O	0.984445	0.222402	-0.924584
O236	O	1.484445	0.722402	-0.424584
C237	C	0.992886	0.137787	-0.832118
C238	C	1.492886	0.637787	-0.332118
C239	C	0.948825	0.181891	-0.877192
C240	C	1.448825	0.681891	-0.377192
H241	H	0.964105	0.105014	-0.793803
H242	H	1.464105	0.605014	-0.293803
H243	H	1.025622	0.166506	-0.793687
H244	H	1.525622	0.666506	-0.293687
H245	H	1.021555	0.109161	-0.875545
H246	H	1.521555	0.609161	-0.375545
H247	H	0.920116	0.210527	-0.833821
H248	H	1.420116	0.710527	-0.333821
H249	H	0.916131	0.153137	-0.915634
H250	H	1.416131	0.653137	-0.415634
H251	H	0.548187	0.228819	-0.287609
H252	H	1.048187	0.728819	0.212391
O253	O	0.341373	0.311556	-0.518030
O254	O	0.841373	0.811556	-0.018030
C255	C	0.321418	0.373724	-0.632958
C256	C	0.821418	0.873724	-0.132958
C257	C	0.357337	0.368196	-0.555142
C258	C	0.857337	0.868196	-0.055142
H259	H	0.334321	0.419508	-0.662993
H260	H	0.834321	0.919508	-0.162993
H261	H	0.269013	0.372889	-0.620888
H262	H	0.769013	0.872889	-0.120888
H263	H	0.334362	0.332837	-0.672629
H264	H	0.834362	0.832837	-0.172629
H265	H	0.344445	0.409072	-0.515432
H266	H	0.844445	0.909072	-0.015432
H267	H	0.409733	0.369002	-0.567270
H268	H	0.909733	0.869002	-0.067270
O269	O	1.016750	0.736699	-0.366468
O270	O	1.516750	1.236699	0.133532
C271	C	1.108567	0.716579	-0.288797
C272	C	1.608567	1.216579	0.211203
C273	C	1.046462	0.752614	-0.295543
C274	C	1.546462	1.252614	0.204457
H275	H	1.132601	0.729423	-0.231451
H276	H	1.632601	1.229423	0.268549
H277	H	1.140218	0.729388	-0.340056
H278	H	1.640218	1.229388	0.159944
H279	H	1.098836	0.664206	-0.289872
H280	H	1.598836	1.164206	0.210128
H281	H	1.056135	0.804995	-0.294446
H282	H	1.556135	1.304995	0.205554
H283	H	1.014831	0.739753	-0.244287
H284	H	1.514831	1.239753	0.255713
O285	O	0.671949	0.222515	-0.279603
O286	O	1.171949	0.722515	0.220397
C287	C	0.665044	0.142898	-0.180232
C288	C	1.165044	0.642898	0.319768
C289	C	0.629084	0.187026	-0.235408
C290	C	1.129084	0.687026	0.264592
H291	H	0.630404	0.114184	-0.144497
H292	H	1.130404	0.614184	0.355503
H293	H	0.695596	0.171600	-0.139055
H294	H	1.195596	0.671600	0.360945
H295	H	0.695761	0.110208	-0.216343
H296	H	1.195761	0.610208	0.283657
H297	H	0.598333	0.219725	-0.199359
H298	H	1.098333	0.719725	0.300641
H299	H	0.598572	0.158285	-0.276587
H300	H	1.098572	0.658285	0.223413
H301	H	0.978242	0.943690	-0.287692
H302	H	1.478242	1.443690	0.212308
O303	O	0.826490	0.380607	-0.671690
O304	O	1.326490	0.880607	-0.171690
C305	C	0.795998	0.487197	-0.646577
C306	C	1.295998	0.987197	-0.146577
C307	C	0.840075	0.443063	-0.691715
C308	C	1.340075	0.943063	-0.191715
H309	H	0.806957	0.537702	-0.662763
H310	H	1.306957	1.037702	-0.162763
H311	H	0.802883	0.480379	-0.580942
H312	H	1.302883	0.980379	-0.080942
H313	H	0.745486	0.476175	-0.662650
H314	H	1.245486	0.976175	-0.162650
H315	H	0.890603	0.454058	-0.675708
H316	H	1.390603	0.954058	-0.175708
H317	H	0.833135	0.449890	-0.757339
H318	H	1.333135	0.949890	-0.257339
H319	H	0.803044	0.860721	-0.389700
H320	H	1.303044	1.360721	0.110300
H321	H	0.832734	0.374178	-0.826844
H322	H	1.332734	0.874178	-0.326844
H323	H	0.978294	1.062396	-0.287737
H324	H	1.478294	1.562396	0.212263
O325	O	0.139509	0.380683	-0.477512
O326	O	0.639509	0.880683	0.022488
C327	C	0.146418	0.460258	-0.576935
C328	C	0.646418	0.960258	-0.076935
C329	C	0.182375	0.416098	-0.521798
C330	C	0.682375	0.916098	-0.021798
H331	H	0.181059	0.488894	-0.612767
H332	H	0.681059	0.988894	-0.112767
H333	H	0.115737	0.493015	-0.540868
H334	H	0.615737	0.993015	-0.040868
H335	H	0.115830	0.431522	-0.618031
H336	H	0.615830	0.931522	-0.118031
H337	H	0.212998	0.444784	-0.480692
H338	H	0.712998	0.944784	0.019308
H339	H	0.213017	0.383340	-0.557914
H340	H	0.713017	0.883340	-0.057914
H341	H	0.548194	0.374403	-0.469430
H342	H	1.048194	0.874403	0.030570
H343	H	0.978085	0.540051	-0.287581
H344	H	1.478085	1.040051	0.212419
H345	H	0.978135	0.658760	-0.287619
H346	H	1.478135	1.158760	0.212381
O347	O	1.016767	0.865649	-0.366760
O348	O	1.516767	1.365649	0.133240
C349	C	1.086972	0.939421	-0.426922
C350	C	1.586972	1.439421	0.073078
C351	C	1.024846	0.903503	-0.433558
C352	C	1.524846	1.403503	0.066442
H353	H	1.093518	0.970045	-0.480912
H354	H	1.593518	1.470045	0.019088
H355	H	1.127333	0.904776	-0.422600
H356	H	1.627333	1.404776	0.077400
H357	H	1.086037	0.970067	-0.372303
H358	H	1.586037	1.470067	0.127697
H359	H	1.025720	0.872856	-0.488174
H360	H	1.525720	1.372856	0.011826
H361	H	0.984512	0.938182	-0.437836
H362	H	1.484512	1.438182	0.062164
O363	O	0.826446	0.664035	-0.477470
O364	O	1.326446	1.164035	0.022530
C365	C	0.817997	0.737832	-0.583486
C366	C	1.317997	1.237832	-0.083486
C367	C	0.862062	0.701794	-0.528312
C368	C	1.362062	1.201794	-0.028312
H369	H	0.846776	0.768359	-0.624616
H370	H	1.346776	1.268359	-0.124616
H371	H	0.785272	0.768568	-0.547446
H372	H	1.285272	1.268568	-0.047446
H373	H	0.789317	0.703209	-0.619278
H374	H	1.289317	1.203209	-0.119278
H375	H	0.890783	0.736372	-0.492508
H376	H	1.390783	1.236372	0.007492
H377	H	0.894746	0.671050	-0.564397
H378	H	1.394746	1.171050	-0.064397
O379	O	0.826533	1.067699	-0.477475
O380	O	1.326533	1.567699	0.022525
C381	C	0.791064	1.168519	-0.521987
C382	C	1.291064	1.668519	-0.021987
C383	C	0.835153	1.132478	-0.466845
C384	C	1.335153	1.632478	0.033155
H385	H	0.798027	1.220898	-0.513424
H386	H	1.298027	1.720898	-0.013424
H387	H	0.740529	1.155770	-0.508121
H388	H	1.240529	1.655770	-0.008121
H389	H	0.802029	1.155562	-0.585286
H390	H	1.302029	1.655562	-0.085286
H391	H	0.824245	1.145415	-0.403527
H392	H	1.324245	1.645415	0.096473
H393	H	0.885674	1.145229	-0.480778
H394	H	1.385674	1.645229	0.019222
O395	O	0.794070	0.736978	-0.390611
O396	O	1.294070	1.236978	0.109389
C397	C	0.682085	0.744008	-0.402778
C398	C	1.182085	1.244008	0.097222
C399	C	0.744223	0.779898	-0.396082
C400	C	1.244223	1.279898	0.103918
H401	H	0.641768	0.778693	-0.407219
H402	H	1.141768	1.278693	0.092781
H403	H	0.675435	0.713426	-0.348769
H404	H	1.175435	1.213426	0.151231
H405	H	0.683058	0.713326	-0.457365
H406	H	1.183058	1.213326	0.042635
H407	H	0.743294	0.810613	-0.341527
H408	H	1.243294	1.310613	0.158473
H409	H	0.750849	0.810440	-0.450130
H410	H	1.250849	1.310440	0.049870
H411	H	0.832766	0.943751	-0.469631
H412	H	1.332766	1.443751	0.030369
O413	O	0.671950	0.380754	-0.477318
O414	O	1.171950	0.880754	0.022682
C415	C	0.665041	0.460371	-0.576691
C416	C	1.165041	0.960371	-0.076691
C417	C	0.629083	0.416224	-0.521548
C418	C	1.129083	0.916224	-0.021548
H419	H	0.630399	0.489070	-0.612454
H420	H	1.130399	0.989070	-0.112454
H421	H	0.695719	0.431684	-0.617843
H422	H	1.195719	0.931684	-0.117843
H423	H	0.695632	0.493074	-0.540552
H424	H	1.195632	0.993074	-0.040552
H425	H	0.598459	0.383513	-0.557623
H426	H	1.098459	0.883513	-0.057623
H427	H	0.598444	0.444951	-0.480393
H428	H	1.098444	0.944951	0.019607
H429	H	0.832616	0.540112	-0.469529
H430	H	1.332616	1.040112	0.030471
