data_functionalizedCrystal
_audit_creation_method	'MofGen! by Chris Wilmer'
_symmetry_space_group_name_H-M	'P1'
_symmetry_Int_Tables_number	1
_symmetry_cell_setting	triclinic
loop_
_symmetry_equiv_pos_as_xyz
  x,y,z
_cell_length_a	12.759400
_cell_length_b	18.215407
_cell_length_c	18.215398
_cell_angle_alpha	89.982592
_cell_angle_beta	90.022020
_cell_angle_gamma	89.989695
loop_
_atom_site_label
_atom_site_type_symbol
_atom_site_fract_x
_atom_site_fract_y
_atom_site_fract_z
Zn1	Zn	-0.418426	-1.125121	0.416093
Zn2	Zn	0.081574	-0.625121	0.916093
Zn3	Zn	-0.594116	-1.125053	0.293034
Zn4	Zn	-0.094116	-0.625053	0.793034
Zn5	Zn	-0.418438	-1.002055	0.293045
Zn6	Zn	0.081562	-0.502055	0.793045
Zn7	Zn	-0.594050	-1.002042	0.416063
Zn8	Zn	-0.094050	-0.502042	0.916063
O9	O	-0.506257	-1.063568	0.354559
O10	O	-0.006257	-0.563568	0.854559
O11	O	-0.441754	-1.228097	0.399777
O12	O	0.058246	-0.728097	0.899777
O13	O	-0.570844	-1.108713	0.190051
O14	O	-0.070844	-0.608713	0.690051
O15	O	-0.271415	-1.018414	0.309384
O16	O	0.228585	-0.518414	0.809384
O17	O	-0.570833	-1.228046	0.309366
O18	O	-0.070833	-0.728046	0.809366
O19	O	-0.271407	-1.108831	0.399787
O20	O	0.228593	-0.608831	0.899787
O21	O	-0.441774	-1.018347	0.190059
O22	O	0.058226	-0.518347	0.690059
O23	O	-0.441711	-0.899069	0.309355
O24	O	0.058289	-0.399069	0.809355
O25	O	-0.570721	-1.018392	0.519051
O26	O	-0.070721	-0.518392	1.019051
O27	O	-0.570732	-0.899059	0.399737
O28	O	-0.070732	-0.399059	0.899737
O29	O	-0.441691	-1.108818	0.519073
O30	O	0.058309	-0.608818	1.019073
O31	O	-0.741128	-1.108701	0.309337
O32	O	-0.241128	-0.608701	0.809337
O33	O	-0.741080	-1.018325	0.399726
O34	O	-0.241080	-0.518325	0.899726
C35	C	-0.506216	-0.872361	0.354544
C36	C	-0.006216	-0.372361	0.854544
C37	C	-0.506224	-0.790562	0.354556
C38	C	-0.006224	-0.290562	0.854556
C39	C	-0.439143	-0.602394	0.401706
C40	C	0.060857	-0.102394	0.901706
C41	C	-0.439148	-0.525535	0.401708
C42	C	0.060852	-0.025535	0.901708
C43	C	-0.573356	-0.525493	0.307417
C44	C	-0.073356	-0.025493	0.807417
C45	C	-0.573344	-0.602351	0.307412
C46	C	-0.073344	-0.102351	0.807412
C47	C	-0.506239	-0.640799	0.354561
C48	C	-0.006239	-0.140799	0.854561
C49	C	-0.506257	-0.487083	0.354568
C50	C	-0.006257	0.012917	0.854568
C51	C	-0.506263	-0.403749	0.354569
C52	C	-0.006263	0.096251	0.854569
C53	C	-0.506231	-0.724138	0.354558
C54	C	-0.006231	-0.224138	0.854558
C55	C	-0.779225	-1.063524	0.354543
C56	C	-0.279225	-0.563524	0.854543
C57	C	-0.896001	-1.063573	0.354561
C58	C	-0.396001	-0.563573	0.854561
C59	C	-0.950854	-1.110683	0.307548
C60	C	-0.450854	-0.610683	0.807548
C61	C	-1.060578	-1.110728	0.307570
C62	C	-0.560578	-0.610728	0.807570
C63	C	-1.060588	-1.016546	0.401622
C64	C	-0.560588	-0.516546	0.901622
C65	C	-0.950866	-1.016505	0.401603
C66	C	-0.450866	-0.516505	0.901603
C67	C	-0.895989	-1.157751	0.260506
C68	C	-0.395989	-0.657751	0.760506
C69	C	-0.950842	-1.204865	0.213488
C70	C	-0.450842	-0.704865	0.713488
C71	C	-1.060566	-1.204910	0.213511
C72	C	-0.560566	-0.704910	0.713511
C73	C	-1.115438	-1.157841	0.260552
C74	C	-0.615438	-0.657841	0.760552
C75	C	-0.232224	-1.063632	0.354590
C76	C	0.267776	-0.563632	0.854590
C77	C	-0.115447	-1.063659	0.354604
C78	C	0.384553	-0.563659	0.854604
C79	C	-0.506197	-1.063611	0.546512
C80	C	-0.006197	-0.563611	1.046512
C81	C	-0.506171	-1.063630	0.628311
C82	C	-0.006171	-0.563630	1.128311
C83	C	-0.506288	-0.255521	0.354572
C84	C	-0.006288	0.244479	0.854572
C85	C	-0.506272	-0.337319	0.354573
C86	C	-0.006272	0.162681	0.854573
C87	C	-0.506242	-1.063567	0.163352
C88	C	-0.006242	-0.563567	0.663352
C89	C	-0.505971	-1.063691	0.081554
C90	C	-0.005971	-0.563691	0.581554
C91	C	-0.573248	-1.110717	0.893369
C92	C	-0.073248	-0.610717	1.393369
C93	C	-0.573285	-1.110706	0.816510
C94	C	-0.073285	-0.610706	1.316510
C95	C	-0.438892	-1.016598	0.816501
C96	C	0.061108	-0.516598	1.316501
C97	C	-0.438861	-1.016606	0.893359
C98	C	0.061139	-0.516606	1.393359
C99	C	-0.506038	-1.063670	0.931790
C100	C	-0.006038	-0.563670	1.431790
C101	C	-0.506105	-1.063651	0.778074
C102	C	-0.006105	-0.563651	1.278074
C103	C	-0.506144	-1.063638	0.694740
C104	C	-0.006144	-0.563638	1.194740
C105	C	-0.506001	-1.063682	1.015129
C106	C	-0.006001	-0.563682	1.515129
H107	H	-0.627992	-0.494179	0.269032
H108	H	-0.127992	0.005821	0.769032
H109	H	-0.806647	-1.157717	0.260480
H110	H	-0.306647	-0.657717	0.760480
H111	H	-1.204782	-1.157888	0.260572
H112	H	-0.704782	-0.657888	0.760572
H113	H	-1.105273	-0.978224	0.439920
H114	H	-0.605273	-0.478224	0.939920
O115	O	-0.638626	-0.639549	0.261590
O116	O	-0.138626	-0.139549	0.761590
C117	C	-0.771698	-0.631403	0.168035
C118	C	-0.271698	-0.131403	0.668035
C119	C	-0.697847	-0.589185	0.219903
C120	C	-0.197847	-0.089185	0.719903
H121	H	-0.819581	-0.590703	0.134307
H122	H	-0.319581	-0.090703	0.634307
H123	H	-0.826759	-0.667376	0.201721
H124	H	-0.326759	-0.167376	0.701721
H125	H	-0.723365	-0.667393	0.129642
H126	H	-0.223365	-0.167393	0.629642
H127	H	-0.746095	-0.553155	0.258306
H128	H	-0.246095	-0.053155	0.758306
H129	H	-0.642783	-0.553258	0.186171
H130	H	-0.142783	-0.053258	0.686171
H131	H	-0.627949	-1.149038	0.924657
H132	H	-0.127949	-0.649038	1.424657
H133	H	-0.906160	-1.243191	0.175193
H134	H	-0.406160	-0.743191	0.675193
O135	O	-1.113688	-1.250699	0.167774
O136	O	-0.613688	-0.750699	0.667774
C137	C	-1.102092	-1.344139	0.074514
C138	C	-0.602092	-0.844139	0.574514
C139	C	-1.041804	-1.292310	0.126266
C140	C	-0.541804	-0.792310	0.626266
H141	H	-1.043999	-1.377806	0.040952
H142	H	-0.543999	-0.877806	0.540952
H143	H	-1.153505	-1.310428	0.035966
H144	H	-0.653505	-0.810428	0.535966
H145	H	-1.153416	-1.382592	0.108355
H146	H	-0.653416	-0.882592	0.608355
H147	H	-0.990422	-1.253847	0.092485
H148	H	-0.490422	-0.753847	0.592485
H149	H	-0.990457	-1.326067	0.164816
H150	H	-0.490457	-0.826067	0.664816
H151	H	-0.906204	-0.978144	0.439886
H152	H	-0.406204	-0.478144	0.939886
O153	O	-0.373863	-0.488195	0.447402
O154	O	0.126137	0.011805	0.947402
C155	C	-0.232089	-0.401401	0.457484
C156	C	0.267911	0.098599	0.957484
C157	C	-0.305945	-0.443655	0.405649
C158	C	0.194055	0.056345	0.905649
H159	H	-0.177172	-0.365369	0.423748
H160	H	0.322828	0.134631	0.923748
H161	H	-0.184051	-0.442052	0.491166
H162	H	0.315949	0.057948	0.991166
H163	H	-0.280425	-0.365462	0.495922
H164	H	0.219575	0.134538	0.995922
H165	H	-0.257689	-0.479596	0.367166
H166	H	0.242311	0.020404	0.867166
H167	H	-0.353986	-0.402965	0.372018
H168	H	0.146014	0.097035	0.872018
O169	O	-0.638604	-1.156478	0.779301
O170	O	-0.138604	-0.656478	1.279301
C171	C	-0.771941	-1.249792	0.787426
C172	C	-0.271941	-0.749792	1.287426
C173	C	-0.697999	-1.198003	0.829655
C174	C	-0.197999	-0.698003	1.329655
H175	H	-0.819997	-1.283367	0.828118
H176	H	-0.319997	-0.783367	1.328118
H177	H	-0.723776	-1.288325	0.751472
H178	H	-0.223776	-0.788325	1.251472
H179	H	-0.826846	-1.215979	0.751414
H180	H	-0.326846	-0.715979	1.251414
H181	H	-0.643079	-1.231757	0.865706
H182	H	-0.143079	-0.731757	1.365706
H183	H	-0.746229	-1.159467	0.865562
H184	H	-0.246229	-0.659467	1.365562
O185	O	-0.373666	-0.970957	0.779054
O186	O	0.126334	-0.470957	1.279054
C187	C	-0.314189	-0.929210	0.660647
C188	C	0.185811	-0.429210	1.160647
C189	C	-0.388097	-0.980946	0.702962
C190	C	0.111903	-0.480946	1.202962
H191	H	-0.325846	-0.937257	0.599120
H192	H	0.174154	-0.437257	1.099120
H193	H	-0.229446	-0.942153	0.675715
H194	H	0.270554	-0.442153	1.175715
H195	H	-0.332612	-0.869874	0.675788
H196	H	0.167388	-0.369874	1.175788
H197	H	-0.369768	-1.040299	0.687844
H198	H	0.130232	-0.540299	1.187844
H199	H	-0.472818	-0.967940	0.687891
H200	H	0.027182	-0.467940	1.187891
H201	H	-0.384129	-0.978291	0.924643
H202	H	0.115871	-0.478291	1.424643
H203	H	-0.384498	-0.633696	0.440095
H204	H	0.115502	-0.133696	0.940095
