data_functionalizedCrystal
_audit_creation_method	'MofGen! by Chris Wilmer'
_symmetry_space_group_name_H-M	'P1'
_symmetry_Int_Tables_number	1
_symmetry_cell_setting	triclinic
loop_
_symmetry_equiv_pos_as_xyz
  x,y,z
_cell_length_a	15.624803
_cell_length_b	10.654541
_cell_length_c	9.730217
_cell_angle_alpha	90.003041
_cell_angle_beta	71.912615
_cell_angle_gamma	95.650927
loop_
_atom_site_label
_atom_site_type_symbol
_atom_site_fract_x
_atom_site_fract_y
_atom_site_fract_z
O1	O	1.197317	-0.163837	-0.711165
O2	O	0.934945	-0.183396	-0.580373
O3	O	1.072165	0.009186	-0.648768
O4	O	1.060098	-0.356419	-0.642770
O5	O	1.072160	0.009188	-0.420186
O6	O	0.934941	-0.183394	-0.351790
O7	O	1.197313	-0.163836	-0.482583
Zn8	Zn	1.066126	-0.173615	-0.380894
Zn9	Zn	1.066132	-0.173617	-0.682061
O10	O	1.060093	-0.356418	-0.414187
C11	C	0.901347	-0.182513	-0.449334
C12	C	0.801243	-0.179871	-0.399432
C13	C	0.472116	-0.171119	-0.858447
C14	C	0.378055	-0.168611	-0.811555
C15	C	0.378027	-0.168609	-0.562352
C16	C	0.472091	-0.171110	-0.609224
C17	C	0.519128	-0.172366	-0.757273
C18	C	0.519103	-0.172357	-0.508050
C19	C	0.613158	-0.174865	-0.554918
C20	C	0.660201	-0.176125	-0.702960
C21	C	0.613183	-0.174874	-0.804141
C22	C	0.472063	-0.171110	-0.360001
C23	C	0.519075	-0.172358	-0.258827
C24	C	0.613133	-0.174856	-0.305695
C25	C	0.660176	-0.176116	-0.453737
C26	C	0.660151	-0.176108	-0.204514
C27	C	0.754206	-0.178615	-0.251383
C28	C	0.754231	-0.178624	-0.500606
C29	C	1.071277	0.055976	-0.534037
C30	C	1.068628	0.195392	-0.532718
C31	C	1.230911	-0.164718	-0.613625
C32	C	1.331016	-0.167360	-0.663536
C33	C	1.060981	-0.403207	-0.528922
C34	C	1.063631	-0.542623	-0.530250
N35	N	1.066129	-0.173612	-0.175359
C36	C	1.232711	0.225084	-0.614497
C37	C	1.313504	0.305425	-0.654761
C38	C	1.311009	0.436417	-0.653521
C39	C	1.227712	0.487069	-0.612017
C40	C	1.146919	0.406727	-0.571753
C41	C	1.149423	0.275734	-0.572993
C42	C	0.982837	0.377035	-0.489986
C43	C	0.985330	0.246043	-0.491214
C44	C	0.899540	0.427687	-0.448482
C45	C	0.818745	0.347344	-0.408207
C46	C	0.821243	0.216345	-0.409447
C47	C	0.904537	0.165701	-0.450950
N48	N	1.066136	-0.173609	-0.887600
C49	C	1.187687	-0.003130	-0.235958
C50	C	1.248472	0.082107	-0.194321
C51	C	1.248482	0.082108	-0.050446
C52	C	1.187697	-0.003135	0.051800
C53	C	1.126912	-0.088373	0.010162
C54	C	1.126911	-0.088367	-0.133720
C55	C	1.005351	-0.258847	0.070763
C56	C	1.005345	-0.258856	-0.073114
C57	C	0.944567	-0.344090	0.173008
C58	C	0.883784	-0.429336	0.131369
C59	C	0.883778	-0.429334	-0.012517
C60	C	0.944559	-0.344093	-0.114752
H61	H	0.339717	-0.167591	-0.441810
H62	H	1.187701	-0.003119	0.168952
O63	O	0.522850	-0.172453	-1.018136
H64	H	0.573205	-0.088056	-1.049177
H65	H	0.339781	-0.167600	-0.893954
O66	O	0.818205	-0.521250	-0.057426
H67	H	0.856517	-0.582386	-0.142103
H68	H	0.395477	-0.169076	-0.321845
H69	H	0.480765	-0.171339	-0.138284
H70	H	0.750931	0.388596	-0.374427
H71	H	0.621838	-0.175097	-0.083972
O72	O	1.314030	0.174059	-0.304582
H73	H	1.301927	0.271982	-0.270910
O74	O	0.804918	-0.179968	-0.142263
H75	H	0.855289	-0.095592	-0.161407
O76	O	0.944576	-0.344105	0.328188
H77	H	0.997062	-0.270526	0.339964
H78	H	0.792531	-0.179643	-0.621162
O79	O	0.734101	0.129690	-0.366007
H80	H	0.675767	0.186924	-0.336930
O81	O	1.187678	-0.003129	-0.391138
H82	H	1.255150	-0.023386	-0.462722
O83	O	0.907229	0.024417	-0.452290
H84	H	0.978721	0.002699	-0.487925
O85	O	1.235399	0.083799	-0.615823
H86	H	1.306890	0.062075	-0.651452
H87	H	0.944563	-0.344089	-0.231908
H88	H	0.651483	-0.175892	-0.924697
O89	O	0.761646	-0.178835	-0.753535
H90	H	0.793961	-0.093963	-0.715864
H91	H	1.381324	0.264170	-0.688540
H92	H	1.376798	0.501833	-0.686319
H93	H	1.225688	0.593731	-0.611029
O94	O	1.314046	0.174030	-0.005524
H95	H	1.356317	0.233299	-0.100788
H96	H	0.834294	-0.498729	0.214626
O97	O	0.896841	0.568969	-0.447127
H98	H	0.967014	0.616330	-0.482078
