data_functionalizedCrystal
_audit_creation_method	'MofGen! by Chris Wilmer'
_symmetry_space_group_name_H-M	'P1'
_symmetry_Int_Tables_number	1
_symmetry_cell_setting	triclinic
loop_
_symmetry_equiv_pos_as_xyz
  x,y,z
_cell_length_a	18.101395
_cell_length_b	16.959455
_cell_length_c	16.959447
_cell_angle_alpha	89.975979
_cell_angle_beta	89.971805
_cell_angle_gamma	90.028124
loop_
_atom_site_label
_atom_site_type_symbol
_atom_site_fract_x
_atom_site_fract_y
_atom_site_fract_z
Zn1	Zn	-0.294883	1.208352	-0.447041
Zn2	Zn	0.205117	1.708352	0.052959
Zn3	Zn	-0.418733	1.208240	-0.314864
Zn4	Zn	0.081267	1.708240	0.185136
Zn5	Zn	-0.294904	1.076172	-0.314865
Zn6	Zn	0.205096	1.576172	0.185135
Zn7	Zn	-0.418681	1.076119	-0.446989
Zn8	Zn	0.081319	1.576119	0.053011
O9	O	-0.356800	1.142221	-0.380940
O10	O	0.143200	1.642221	0.119060
O11	O	-0.311325	1.318948	-0.429529
O12	O	0.188675	1.818948	0.070471
O13	O	-0.402338	1.190696	-0.204253
O14	O	0.097662	1.690696	0.295747
O15	O	-0.191268	1.093774	-0.332420
O16	O	0.308732	1.593774	0.167580
O17	O	-0.402318	1.318866	-0.332420
O18	O	0.097682	1.818866	0.167580
O19	O	-0.191253	1.190886	-0.429529
O20	O	0.308747	1.690886	0.070471
O21	O	-0.311361	1.093666	-0.204254
O22	O	0.188639	1.593666	0.295746
O23	O	-0.311310	0.965554	-0.332369
O24	O	0.188690	1.465554	0.167631
O25	O	-0.402228	1.093685	-0.557607
O26	O	0.097772	1.593685	-0.057607
O27	O	-0.402248	0.965515	-0.429441
O28	O	0.097752	1.465515	0.070559
O29	O	-0.311275	1.190835	-0.557645
O30	O	0.188725	1.690835	-0.057645
O31	O	-0.522359	1.190646	-0.332369
O32	O	-0.022359	1.690646	0.167631
O33	O	-0.522321	1.093577	-0.429441
O34	O	-0.022321	1.593577	0.070559
C35	C	-0.356776	0.936855	-0.380900
C36	C	0.143224	1.436855	0.119100
C37	C	-0.356784	0.848998	-0.380902
C38	C	0.143216	1.348998	0.119098
C39	C	-0.404133	0.477469	-0.330349
C40	C	0.095867	0.977469	0.169651
C41	C	-0.309529	0.477576	-0.431627
C42	C	0.190471	0.977576	0.068373
C43	C	-0.309517	0.560121	-0.431607
C44	C	0.190483	1.060121	0.068393
C45	C	-0.356814	0.601345	-0.380959
C46	C	0.143186	1.101345	0.119041
C47	C	-0.404124	0.560023	-0.330330
C48	C	0.095876	1.060023	0.169670
C49	C	-0.262213	0.601450	-0.482241
C50	C	0.237787	1.101450	0.017759
C51	C	-0.262200	0.684001	-0.482225
C52	C	0.237800	1.184001	0.017775
C53	C	-0.309494	0.725226	-0.431572
C54	C	0.190506	1.225226	0.068428
C55	C	-0.356805	0.683899	-0.380940
C56	C	0.143195	1.183899	0.119060
C57	C	-0.404102	0.725122	-0.330292
C58	C	0.095898	1.225122	0.169708
C59	C	-0.451410	0.683796	-0.279655
C60	C	0.048590	1.183796	0.220345
C61	C	-0.451418	0.601248	-0.279677
C62	C	0.048582	1.101248	0.220323
C63	C	-0.309486	0.807774	-0.431550
C64	C	0.190514	1.307774	0.068450
C65	C	-0.404093	0.807676	-0.330272
C66	C	0.095907	1.307676	0.169728
C67	C	-0.549211	1.142115	-0.380916
C68	C	-0.049211	1.642115	0.119084
C69	C	-0.631525	1.142142	-0.380933
C70	C	-0.131525	1.642142	0.119067
C71	C	-0.930616	1.142316	-0.380976
C72	C	-0.430616	1.642316	0.119024
C73	C	-0.899297	1.081384	-0.442202
C74	C	-0.399297	1.581384	0.057798
C75	C	-0.813679	1.081095	-0.442010
C76	C	-0.313679	1.581095	0.057990
C77	C	-0.782233	1.142229	-0.380955
C78	C	-0.282233	1.642229	0.119045
C79	C	-0.813385	1.119677	-0.297648
C80	C	-0.313385	1.619677	0.202352
C81	C	-0.899030	1.119285	-0.298015
C82	C	-0.399030	1.619285	0.201985
C83	C	-0.898963	1.225932	-0.402323
C84	C	-0.398963	1.725932	0.097677
C85	C	-0.813312	1.225441	-0.404150
C86	C	-0.313312	1.725441	0.095850
C87	C	-0.698374	1.142182	-0.380938
C88	C	-0.198374	1.642182	0.119062
C89	C	-1.014475	1.142361	-0.380987
C90	C	-0.514475	1.642361	0.119013
C91	C	-0.163638	1.142348	-0.380980
C92	C	0.336362	1.642348	0.119020
C93	C	-0.081324	1.142403	-0.380998
C94	C	0.418676	1.642403	0.119002
C95	C	-0.356743	1.142267	-0.587108
C96	C	0.143257	1.642267	-0.087108
C97	C	-0.356719	1.142286	-0.674965
C98	C	0.143281	1.642286	-0.174965
C99	C	-0.356825	1.348389	-0.380980
C100	C	0.143175	1.848389	0.119020
C101	C	-0.356836	1.436246	-0.380997
C102	C	0.143164	1.936246	0.119003
C103	C	-0.404074	1.192816	-0.716240
C104	C	0.095926	1.692816	-0.216240
C105	C	-0.309345	1.091771	-0.716243
C106	C	0.190655	1.591771	-0.216243
C107	C	-0.309323	1.091784	-0.798789
C108	C	0.190677	1.591784	-0.298789
C109	C	-0.356679	1.142313	-0.840064
C110	C	0.143321	1.642313	-0.340064
C111	C	-0.404055	1.192829	-0.798794
C112	C	0.095945	1.692829	-0.298794
C113	C	-0.261953	1.041264	-0.840065
C114	C	0.238047	1.541264	-0.340065
C115	C	-0.261930	1.041275	-0.922616
C116	C	0.238070	1.541275	-0.422616
C117	C	-0.309282	1.091809	-0.963893
C118	C	0.190718	1.591809	-0.463893
C119	C	-0.356660	1.142327	-0.922618
C120	C	0.143340	1.642327	-0.422618
C121	C	-0.404015	1.192856	-0.963893
C122	C	0.095985	1.692856	-0.463893
C123	C	-0.451390	1.243379	-0.922619
C124	C	0.048610	1.743379	-0.422619
C125	C	-0.451407	1.243363	-0.840071
C126	C	0.048593	1.743363	-0.340071
C127	C	-0.309264	1.091825	-1.046442
C128	C	0.190736	1.591825	-0.546442
C129	C	-0.403996	1.192870	-1.046447
C130	C	0.096004	1.692870	-0.546447
C131	C	-0.356804	1.142220	-0.175573
C132	C	0.143196	1.642220	0.324427
C133	C	-0.356619	1.142354	-0.087717
C134	C	0.143381	1.642354	0.412283
H135	H	-0.442607	0.841234	-0.289025
H136	H	0.057393	1.341234	0.210975
N137	N	-0.452465	0.435274	-0.278628
N138	N	0.047535	0.935274	0.221372
N139	N	-0.494691	0.472093	-0.233415
N140	N	0.005309	0.972093	0.266585
H141	H	-0.528827	0.442293	-0.196886
H142	H	-0.028827	0.942293	0.303114
N143	N	-0.499710	0.725910	-0.227909
N144	N	0.000290	1.225910	0.272091
N145	N	-0.494707	0.716657	-0.154983
N146	N	0.005293	1.216657	0.345017
H147	H	-0.528817	0.746403	-0.118436
H148	H	-0.028817	1.246403	0.381564
H149	H	-0.489933	0.567593	-0.238451
H150	H	0.010067	1.067593	0.261549
N151	N	-0.213575	0.989647	-0.797924
N152	N	0.286425	1.489647	-0.297924
N153	N	-0.218472	0.916708	-0.807121
N154	N	0.281528	1.416708	-0.307121
H155	H	-0.184298	0.880253	-0.777359
H156	H	0.315702	1.380253	-0.277359
N157	N	-0.213520	0.989689	-0.964770
N158	N	0.286480	1.489689	-0.464770
N159	N	-0.166316	1.017544	-1.010842
N160	N	0.333684	1.517544	-0.510842
H161	H	-0.132123	0.981114	-1.040614
H162	H	0.367877	1.481114	-0.540614
N163	N	-0.260879	1.040213	-1.088589
N164	N	0.239121	1.540213	-0.588589
N165	N	-0.218607	0.995096	-1.051727
N166	N	0.281393	1.495096	-0.551727
H167	H	-0.184432	0.958642	-1.081493
H168	H	0.315568	1.458642	-0.581493
H169	H	-0.919216	1.271328	-0.357729
H170	H	-0.419216	1.771328	0.142271
H171	H	-0.489978	1.284495	-0.806458
H172	H	0.010022	1.784495	-0.306458
H173	H	-0.792615	1.095204	-0.503781
H174	H	-0.292615	1.595204	-0.003781
N175	N	-0.261230	0.435458	-0.483362
N176	N	0.238770	0.935458	0.016638
N177	N	-0.261250	0.361754	-0.483376
N178	N	0.238750	0.861754	0.016624
H179	H	-0.227137	0.332005	-0.519916
H180	H	0.272863	0.832005	-0.019916
H181	H	-0.793253	1.019116	-0.427869
H182	H	-0.293253	1.519116	0.072131
H183	H	-0.920511	1.246493	-0.462035
H184	H	-0.420511	1.746493	0.037965
H185	H	-0.223711	0.567880	-0.523482
H186	H	0.276289	1.067880	-0.023482
N187	N	-0.925017	1.172526	-0.238818
N188	N	-0.425017	1.672526	0.261182
N189	N	-0.879899	1.209851	-0.197363
N190	N	-0.379899	1.709851	0.302637
H191	H	-0.898248	1.247443	-0.155547
H192	H	-0.398248	1.747443	0.344453
N193	N	-0.499749	1.294992	-0.964802
N194	N	0.000251	1.794992	-0.464802
N195	N	-0.473676	1.345371	-1.010892
N196	N	0.026324	1.845371	-0.510892
H197	H	-0.507827	1.381821	-1.040689
H198	H	-0.007827	1.881821	-0.540689
N199	N	-0.452476	1.244408	-0.674086
N200	N	0.047524	1.744408	-0.174086
N201	N	-0.520809	1.239123	-0.683285
N202	N	-0.020809	1.739123	-0.183285
H203	H	-0.554995	1.275560	-0.653513
H204	H	-0.054995	1.775560	-0.153513
N205	N	-0.260988	1.040156	-0.674072
N206	N	0.239012	1.540156	-0.174072
N207	N	-0.261016	1.040148	-0.600368
N208	N	0.238984	1.540148	-0.100368
H209	H	-0.226862	1.003693	-0.570581
H210	H	0.273138	1.503693	-0.070581
N211	N	-0.213876	0.726198	-0.533953
N212	N	0.286124	1.226198	-0.033953
N213	N	-0.171654	0.689381	-0.579172
N214	N	0.328346	1.189381	-0.079172
H215	H	-0.137524	0.719183	-0.615706
H216	H	0.362476	1.219183	-0.115706
H217	H	-0.919845	1.095354	-0.504173
H218	H	-0.419845	1.595354	-0.004173
N219	N	-0.261168	0.849975	-0.483276
N220	N	0.238832	1.349975	0.016724
N221	N	-0.218946	0.813159	-0.528497
N222	N	0.281054	1.313159	-0.028497
H223	H	-0.184817	0.842962	-0.565030
H224	H	0.315183	1.342962	-0.065030
N225	N	-0.452355	1.244499	-1.088608
N226	N	0.047645	1.744499	-0.588608
N227	N	-0.447440	1.317437	-1.079412
N228	N	0.052560	1.817437	-0.579412
H229	H	-0.481592	1.353902	-1.109189
H230	H	0.018408	1.853902	-0.609189
N231	N	-0.926381	1.004109	-0.424684
N232	N	-0.426381	1.504109	0.075316
N233	N	-0.968648	0.993716	-0.367303
N234	N	-0.468648	1.493716	0.132697
H235	H	-0.987778	0.939141	-0.354929
H236	H	-0.487778	1.439141	0.145071
N237	N	-0.924164	1.042606	-0.275325
N238	N	-0.424164	1.542606	0.224675
N239	N	-0.878453	0.989753	-0.259331
N240	N	-0.378453	1.489753	0.240669
H241	H	-0.896199	0.935596	-0.243305
H242	H	-0.396199	1.435596	0.256695
H243	H	-0.793017	1.162661	-0.250786
H244	H	-0.293017	1.662661	0.249214
H245	H	-0.791997	1.059201	-0.279242
H246	H	-0.291997	1.559201	0.220758
H247	H	-0.791903	1.273239	-0.362807
H248	H	-0.291903	1.773239	0.137193
H249	H	-0.792949	1.242447	-0.465459
H250	H	-0.292949	1.742447	0.034541
