data_functionalizedCrystal
_audit_creation_method	'MofGen! by Chris Wilmer'
_symmetry_space_group_name_H-M	'P1'
_symmetry_Int_Tables_number	1
_symmetry_cell_setting	triclinic
loop_
_symmetry_equiv_pos_as_xyz
  x,y,z
_cell_length_a	14.044220
_cell_length_b	15.995350
_cell_length_c	12.503572
_cell_angle_alpha	93.525550
_cell_angle_beta	86.164750
_cell_angle_gamma	88.340626
loop_
_atom_site_label
_atom_site_type_symbol
_atom_site_fract_x
_atom_site_fract_y
_atom_site_fract_z
O1	O	1.263165	0.197434	-0.089196
O2	O	1.763165	0.697434	0.410804
O3	O	0.987198	0.190148	-0.089224
O4	O	1.487198	0.690148	0.410776
O5	O	1.132725	0.072467	-0.089208
O6	O	1.632725	0.572467	0.410792
O7	O	1.117638	0.315115	-0.089212
O8	O	1.617638	0.815115	0.410788
O9	O	1.121781	0.081333	0.089432
O10	O	1.621781	0.581333	0.589432
O11	O	0.976253	0.199014	0.089417
O12	O	1.476253	0.699014	0.589417
O13	O	1.252221	0.206300	0.089445
O14	O	1.752221	0.706300	0.589445
Cu15	Cu	1.113237	0.203467	0.105742
Cu16	Cu	1.613237	0.703467	0.605742
Cu17	Cu	1.126181	0.192981	-0.105521
Cu18	Cu	1.626181	0.692981	0.394479
O19	O	1.106693	0.323981	0.089429
O20	O	1.606693	0.823981	0.589429
C21	C	0.946411	0.191392	0.000093
C22	C	1.446411	0.691392	0.500093
C23	C	0.841186	0.181881	0.000082
C24	C	1.341186	0.681881	0.500082
C25	C	0.648523	0.164494	0.000104
C26	C	1.148523	0.664494	0.500104
C27	C	0.590890	0.231950	0.000107
C28	C	1.090890	0.731950	0.500107
C29	C	0.483686	0.222276	0.000119
C30	C	0.983686	0.722276	0.500119
C31	C	0.755737	0.174167	0.000092
C32	C	1.255737	0.674167	0.500092
C33	C	1.126629	0.045658	0.000110
C34	C	1.626629	0.545658	0.500110
C35	C	1.124760	-0.047432	0.000104
C36	C	1.624760	0.452568	0.500104
C37	C	1.118044	-0.385681	0.000107
C38	C	1.618044	0.114319	0.500107
C39	C	1.014426	-0.346008	-0.000304
C40	C	1.514426	0.153992	0.499696
C41	C	1.016272	-0.249158	0.000099
C42	C	1.516272	0.250842	0.500099
C43	C	1.121375	-0.217872	0.000105
C44	C	1.621375	0.282128	0.500105
C45	C	1.166245	-0.250068	0.102120
C46	C	1.666245	0.249932	0.602120
C47	C	1.163636	-0.346894	0.102206
C48	C	1.663636	0.153106	0.602206
C49	C	1.178223	-0.357175	-0.100942
C50	C	1.678223	0.142825	0.399058
C51	C	1.178281	-0.260298	-0.102290
C52	C	1.678281	0.239702	0.397710
C53	C	1.123263	-0.123033	0.000107
C54	C	1.623263	0.376967	0.500107
C55	C	1.116158	-0.480519	0.000111
C56	C	1.616158	0.019481	0.500111
C57	C	1.293007	0.205055	0.000125
C58	C	1.793007	0.705055	0.500125
C59	C	1.398233	0.214567	0.000129
C60	C	1.898233	0.714567	0.500129
C61	C	1.112789	0.350789	0.000108
C62	C	1.612789	0.850789	0.500108
C63	C	1.114659	0.443879	0.000108
C64	C	1.614659	0.943879	0.500108
N65	N	1.104141	0.210842	0.254333
N66	N	1.604141	0.710842	0.754333
N67	N	1.135285	0.185600	-0.254113
N68	N	1.635285	0.685600	0.245887
C69	C	1.090759	0.221698	0.473447
C70	C	1.590759	0.721698	0.973447
C71	C	1.148663	0.174747	0.526780
C72	C	1.648663	0.674747	1.026780
C73	C	1.141218	0.180787	0.648703
C74	C	1.641218	0.680787	1.148703
C75	C	1.098204	0.215658	0.351514
C76	C	1.598204	0.715658	0.851514
H77	H	0.622061	0.296967	0.000101
H78	H	1.122061	0.796967	0.500101
H79	H	0.977483	-0.371265	-0.073462
H80	H	1.477483	0.128735	0.426538
C81	C	0.606414	0.076664	0.000103
C82	C	1.106414	0.576664	0.500103
N83	N	0.574687	0.010511	0.000097
N84	N	1.074687	0.510511	0.500097
C85	C	0.968030	-0.219717	-0.098691
C86	C	1.468030	0.280283	0.401309
N87	N	0.931687	-0.197545	-0.173100
N88	N	1.431687	0.302455	0.326900
C89	C	1.016237	0.282124	0.535462
C90	C	1.516237	0.782124	1.035462
N91	N	0.960108	0.327636	0.582185
N92	N	1.460108	0.827636	1.082185
H93	H	0.971331	-0.220680	0.073345
H94	H	1.471331	0.279320	0.573345
C95	C	0.952699	-0.371734	0.097990
C96	C	1.452699	0.128266	0.597990
N97	N	0.906212	-0.391103	0.172034
N98	N	1.406212	0.108897	0.672034
H99	H	1.203829	0.130016	0.480873
H100	H	1.703829	0.630016	0.980873
C101	C	1.106955	-0.370268	0.205215
C102	C	1.606955	0.129732	0.705215
N103	N	1.064258	-0.387870	0.282801
N104	N	1.564258	0.112130	0.782801
H105	H	1.254680	-0.383262	-0.101623
H106	H	1.754680	0.116738	0.398377
H107	H	1.243229	-0.229986	0.105919
H108	H	1.743229	0.270014	0.605919
C109	C	1.111991	-0.210226	0.204677
C110	C	1.611991	0.289774	0.704677
N111	N	1.071121	-0.180219	0.281920
N112	N	1.571121	0.319781	0.781920
C113	C	1.266047	-0.382472	0.108481
C114	C	1.766047	0.117528	0.608481
N115	N	1.343182	-0.409266	0.113215
N116	N	1.843182	0.090734	0.613215
H117	H	1.149075	-0.384083	-0.178264
H118	H	1.649075	0.115917	0.321736
C119	C	1.282340	-0.232230	-0.110602
C120	C	1.782340	0.267770	0.389398
N121	N	1.360722	-0.211092	-0.116853
N122	N	1.860722	0.288908	0.383147
C123	C	1.134083	-0.232266	-0.204249
C124	C	1.634083	0.267734	0.295751
N125	N	1.100783	-0.211156	-0.281043
N126	N	1.600783	0.288844	0.218957
