data_functionalizedCrystal
_audit_creation_method	'MofGen! by Chris Wilmer'
_symmetry_space_group_name_H-M	'P1'
_symmetry_Int_Tables_number	1
_symmetry_cell_setting	triclinic
loop_
_symmetry_equiv_pos_as_xyz
  x,y,z
_cell_length_a	19.077105
_cell_length_b	18.101395
_cell_length_c	19.076919
_cell_angle_alpha	87.727683
_cell_angle_beta	89.923776
_cell_angle_gamma	87.727498
loop_
_atom_site_label
_atom_site_type_symbol
_atom_site_fract_x
_atom_site_fract_y
_atom_site_fract_z
Zn1	Zn	1.058231	-0.358271	0.440421
Zn2	Zn	1.062857	-0.477344	0.322915
Zn3	Zn	0.945450	-0.348351	0.318214
Zn4	Zn	0.940679	-0.476897	0.435668
O5	O	1.001804	-0.415216	0.379305
O6	O	1.157176	-0.378405	0.428790
O7	O	1.051216	-0.456268	0.223960
O8	O	0.960470	-0.246037	0.334447
O9	O	1.160575	-0.465887	0.342459
O10	O	1.043330	-0.253326	0.424232
O11	O	0.964957	-0.361497	0.220507
O12	O	0.846486	-0.361064	0.329838
O13	O	0.952340	-0.465126	0.534630
O14	O	0.842981	-0.455506	0.416131
O15	O	1.038704	-0.377972	0.538122
O16	O	1.046590	-0.580914	0.337850
O17	O	0.956826	-0.580586	0.420689
C18	C	0.819237	-0.407161	0.371959
C19	C	0.741133	-0.403733	0.368833
C20	C	0.702636	-0.451363	0.412222
C21	C	0.629249	-0.448133	0.409288
C22	C	0.594361	-0.397276	0.362962
C23	C	0.632863	-0.349642	0.319571
C24	C	0.706248	-0.352869	0.322509
C25	C	0.375075	-0.382341	0.349369
C26	C	0.301684	-0.379119	0.346433
C27	C	0.298076	-0.477610	0.436152
C28	C	0.371463	-0.480836	0.439082
C29	C	0.409959	-0.433198	0.395694
N30	N	0.519348	-0.393975	0.359960
N31	N	0.484970	-0.436497	0.398700
C32	C	1.001711	-0.607621	0.379280
C33	C	1.001735	-0.689937	0.379296
C34	C	1.001887	-0.989036	0.379340
C35	C	0.945531	-0.957547	0.431600
C36	C	0.945280	-0.871910	0.431419
C37	C	1.001811	-0.840650	0.379319
C38	C	0.984741	-0.867911	0.304458
C39	C	0.984379	-0.953554	0.304770
C40	C	1.075459	-0.961424	0.401293
C41	C	1.074956	-0.875820	0.402900
C42	C	1.001770	-0.756788	0.379302
C43	C	1.001927	-1.072898	0.379351
C44	C	1.185084	-0.423303	0.386679
C45	C	1.263188	-0.426749	0.389822
C46	C	0.994474	-0.422606	0.562585
C47	C	0.991350	-0.425755	0.640688
C48	C	1.001916	-0.222060	0.379345
C49	C	1.001964	-0.139749	0.379363
C50	C	1.009146	-0.407803	0.196739
C51	C	1.012406	-0.404451	0.118642
C52	C	1.034846	-0.381860	0.679200
C53	C	1.031902	-0.384816	0.752586
C54	C	0.985466	-0.431671	0.787458
C55	C	0.941966	-0.475568	0.748941
C56	C	0.944906	-0.472608	0.675556
C57	C	0.971847	-0.445387	1.006740
C58	C	0.968911	-0.448346	1.080130
C59	C	1.058847	-0.357593	1.083770
C60	C	1.061786	-0.354640	1.010384
C61	C	1.018283	-0.398533	0.971872
N62	N	0.982458	-0.434696	0.862471
N63	N	1.021289	-0.395505	0.896861
H64	H	0.399864	-0.522250	0.476804
H65	H	0.406410	-0.343557	0.314034
H66	H	1.118927	-0.854786	0.367848
N67	N	1.131031	-0.988463	0.350926
H68	H	1.108699	-1.018454	0.314065
H69	H	1.167509	-1.020350	0.377486
N70	N	0.913262	-0.976077	0.280593
H71	H	0.882442	-0.930388	0.269835
H72	H	0.890927	-1.007376	0.318824
H73	H	0.604451	-0.308230	0.281854
N74	N	0.747773	-0.301492	0.275716
H75	H	0.714537	-0.268785	0.245923
H76	H	0.779507	-0.331604	0.244365
N77	N	1.092094	-0.852643	0.475887
H78	H	1.139196	-0.875428	0.490764
H79	H	1.054783	-0.870016	0.509615
H80	H	1.091602	-0.985932	0.455108
N81	N	1.037572	-0.840921	0.251296
H82	H	1.073165	-0.810690	0.275285
H83	H	1.012640	-0.809283	0.213524
H84	H	0.955615	-0.853628	0.486834
N85	N	0.891886	-0.526110	0.786552
H86	H	0.864777	-0.553467	0.751017
H87	H	0.858165	-0.495761	0.815698
N88	N	1.084939	-0.331333	0.641591
H89	H	1.057630	-0.294526	0.609994
H90	H	1.118690	-0.361701	0.612495
N91	N	1.078801	-0.337458	0.794124
H92	H	1.108663	-0.307325	0.760897
H93	H	1.110084	-0.370253	0.825886
N94	N	0.959035	-0.988453	0.505234
H95	H	1.001815	-1.023169	0.505435
H96	H	0.917022	-1.016287	0.522253
H97	H	0.909480	-0.508344	0.644200
H98	H	0.931095	-0.486502	1.108520
H99	H	0.273280	-0.337698	0.308713
N100	N	0.740264	-0.506221	0.462184
H101	H	0.704737	-0.535902	0.489226
H102	H	0.769431	-0.478783	0.495973
N103	N	0.914399	-0.835570	0.279932
H104	H	0.876721	-0.851824	0.313758
H105	H	0.903945	-0.853444	0.231708
N106	N	0.873648	-0.982272	0.412259
H107	H	0.877431	-1.013783	0.369792
H108	H	0.841782	-0.937449	0.401204
N109	N	0.872971	-0.840957	0.411838
H110	H	0.837699	-0.859713	0.447129
H111	H	0.860321	-0.857295	0.363609
H112	H	1.023807	-0.974230	0.264344
N113	N	1.111873	-0.304106	0.972772
H114	H	1.138981	-0.276746	1.008306
H115	H	1.084511	-0.267345	0.941178
H116	H	0.597908	-0.486918	0.444619
H117	H	1.094263	-0.321856	1.115133
H118	H	0.936434	-0.481139	0.975393
N119	N	0.256557	-0.528987	0.482946
H120	H	0.204773	-0.519229	0.474058
H121	H	0.267393	-0.520132	0.533664
