data_functionalizedCrystal
_audit_creation_method	'MofGen! by Chris Wilmer'
_symmetry_space_group_name_H-M	'P1'
_symmetry_Int_Tables_number	1
_symmetry_cell_setting	triclinic
loop_
_symmetry_equiv_pos_as_xyz
  x,y,z
_cell_length_a	18.627264
_cell_length_b	18.627226
_cell_length_c	18.627297
_cell_angle_alpha	90.003089
_cell_angle_beta	120.001953
_cell_angle_gamma	59.999880
loop_
_atom_site_label
_atom_site_type_symbol
_atom_site_fract_x
_atom_site_fract_y
_atom_site_fract_z
O1	O	0.513849	0.611879	0.021374
O2	O	0.366839	0.507484	-0.021241
O3	O	0.513844	0.507480	0.125765
O4	O	0.366843	0.611883	-0.125632
O5	O	0.633243	0.388080	0.125759
O6	O	0.486237	0.388084	-0.021247
O7	O	0.633247	0.492479	0.021368
Cu8	Cu	0.570644	0.429379	0.000060
Cu9	Cu	0.429442	0.570584	0.000067
O10	O	0.486241	0.492483	-0.125638
C11	C	0.644057	0.742976	0.031086
C12	C	0.593663	0.837672	0.024996
C13	C	0.731063	0.699375	0.031693
C14	C	0.644050	0.612979	0.031074
C15	C	0.593649	0.568680	0.024972
C16	C	0.731056	0.569574	0.031681
C17	C	0.774053	0.612978	0.031079
C18	C	0.862654	0.568678	0.024982
C19	C	0.601256	0.699376	0.031688
C20	C	0.356049	0.612982	-0.386932
C21	C	0.406445	0.568681	-0.431233
C22	C	0.269044	0.699380	-0.430334
C23	C	0.356047	0.612983	-0.256932
C24	C	0.406442	0.568684	-0.162236
C25	C	0.269043	0.699382	-0.300531
C26	C	0.226050	0.742983	-0.386929
C27	C	0.137452	0.837679	-0.431226
C28	C	0.398844	0.569579	-0.300535
C29	C	0.356052	0.256975	-0.030919
C30	C	0.406454	0.162275	-0.024813
C31	C	0.398847	0.300578	-0.031531
C32	C	0.226042	0.386982	-0.030933
C33	C	0.137438	0.431286	-0.024842
C34	C	0.269035	0.430387	-0.031545
C35	C	0.356044	0.386980	-0.030933
C36	C	0.406439	0.431282	-0.024841
C37	C	0.269042	0.300580	-0.031531
O38	O	1.104430	0.388090	-0.021251
O39	O	0.895653	0.492477	0.021377
O40	O	0.895629	0.492491	-0.125634
O41	O	1.104454	0.388076	0.125761
O42	O	0.895636	0.611890	-0.125623
O43	O	0.895660	0.611876	0.021389
O44	O	1.104436	0.507489	-0.021239
Cu45	Cu	1.000049	0.570584	0.000076
Cu46	Cu	1.000041	0.429381	0.000062
O47	O	1.104461	0.507474	0.125772
O48	O	0.486253	1.125675	-0.021218
O49	O	0.633261	0.874275	0.021392
O50	O	0.486249	1.021263	-0.125612
O51	O	0.633265	0.978686	0.125786
O52	O	0.366856	1.021259	-0.125597
O53	O	0.513868	0.874271	0.021407
O54	O	0.366860	1.125671	-0.021203
Cu55	Cu	0.429462	0.999970	0.000103
Cu56	Cu	0.570658	0.999975	0.000086
O57	O	0.513872	0.978682	0.125801
O58	O	-0.104344	1.125679	-0.492420
O59	O	0.104448	0.874282	-0.388026
O60	O	0.104456	1.021278	-0.388016
O61	O	-0.104353	0.978683	-0.492429
O62	O	0.104459	1.021275	-0.507417
O63	O	0.104451	0.874279	-0.507426
O64	O	-0.104341	1.125676	-0.611820
Cu65	Cu	0.000055	0.999977	-0.570525
Cu66	Cu	0.000052	0.999981	-0.429321
O67	O	-0.104349	0.978680	-0.611830
O68	O	0.513843	0.507481	-0.611835
O69	O	0.366846	0.611880	-0.507433
O70	O	0.513850	0.611878	-0.507427
O71	O	0.366840	0.507483	-0.611842
O72	O	0.633249	0.492477	-0.388030
O73	O	0.486246	0.492479	-0.388036
O74	O	0.633243	0.388080	-0.492438
Cu75	Cu	0.570646	0.429377	-0.429335
Cu76	Cu	0.429442	0.570583	-0.570536
O77	O	0.486239	0.388082	-0.492444
C78	C	0.774037	0.256979	0.387055
C79	C	0.862635	0.162282	0.431352
C80	C	0.731044	0.300580	0.430461
C81	C	0.644039	0.386979	0.257059
C82	C	0.593643	0.431279	0.162364
C83	C	0.601243	0.430383	0.300663
C84	C	0.644039	0.386979	0.387060
C85	C	0.593643	0.431279	0.431361
C86	C	0.731044	0.300580	0.300658
C87	C	0.643990	0.743016	-0.386905
C88	C	0.593593	0.837714	-0.431194
C89	C	0.601179	0.699422	-0.430312
C90	C	0.774005	0.613006	-0.256920
C91	C	0.862623	0.568696	-0.162228
C92	C	0.730998	0.569609	-0.300524
C93	C	0.643977	0.613022	-0.386916
C94	C	0.593567	0.568728	-0.431217
C95	C	0.731010	0.699406	-0.300513
C96	C	1.356108	0.386947	0.387055
C97	C	1.406513	0.431243	0.431358
C98	C	1.398910	0.300545	0.430450
C99	C	1.226084	0.386960	0.257058
C100	C	1.137467	0.431270	0.162366
C101	C	1.269084	0.300558	0.300649
C102	C	1.356104	0.256948	0.387042
C103	C	1.406505	0.162249	0.431330
C104	C	1.269088	0.430360	0.300663
C105	C	0.226047	1.030930	-0.386895
C106	C	0.137449	1.024828	-0.431188
C107	C	0.269036	1.031536	-0.430305
C108	C	0.356049	1.030944	-0.256902
C109	C	0.406450	1.024857	-0.162206
C110	C	0.398840	1.031550	-0.300510
C111	C	0.356040	1.030934	-0.386907
C112	C	0.406431	1.024835	-0.431213
C113	C	0.269045	1.031546	-0.300497
O114	O	0.366783	1.125721	-0.611761
O115	O	0.513781	0.874322	-0.507390
O116	O	0.366809	1.021312	-0.507351
O117	O	0.513755	0.978732	-0.611800
O118	O	0.486234	1.021300	-0.387955
O119	O	0.633206	0.874311	-0.387993
O120	O	0.486209	1.125710	-0.492365
Cu121	Cu	0.570612	1.000009	-0.429277
Cu122	Cu	0.429377	1.000023	-0.570478
O123	O	0.633181	0.978721	-0.492403
C124	C	0.644083	0.969011	0.387097
C125	C	0.593693	0.975110	0.431404
C126	C	0.731087	0.968410	0.430494
C127	C	0.644072	0.969001	0.257091
C128	C	0.593671	0.975089	0.162395
C129	C	0.731076	0.968400	0.300686
C130	C	0.774075	0.969015	0.387084
C131	C	0.862673	0.975118	0.431376
C132	C	0.601282	0.968396	0.300700
H133	H	0.767030	0.498588	0.032649
F134	F	0.509662	0.745182	-0.523095
H135	H	0.767044	0.734383	0.032673
F136	F	0.222006	0.745134	-0.254778
F137	F	0.490357	0.254821	-0.032807
H138	H	0.233059	0.265572	-0.032512
F139	F	0.509743	0.745132	0.032960
H140	H	0.468850	1.032532	-0.265506
H141	H	0.767031	0.265572	0.501450
H142	H	0.233109	1.032455	-0.265466
F143	F	0.222026	0.745140	-0.523113
F144	F	0.509774	0.967114	0.254952
F145	F	0.490357	0.476795	-0.254780
H146	H	0.233041	0.501380	-0.032533
F147	F	0.509698	0.523151	0.254892
H148	H	0.767012	0.265562	0.265645
H149	H	0.767062	0.967452	0.501479
F150	F	0.778043	0.476814	-0.254785
H151	H	0.766986	0.734417	-0.265501
F152	F	1.222047	0.254806	0.254888
F153	F	1.490396	0.254802	0.523248
F154	F	0.778098	0.967124	0.254923
F155	F	0.221996	1.032810	-0.523092
F156	F	1.222058	0.523146	0.254916
