data_functionalizedCrystal
_audit_creation_method	'MofGen! by Chris Wilmer'
_symmetry_space_group_name_H-M	'P1'
_symmetry_Int_Tables_number	1
_symmetry_cell_setting	triclinic
loop_
_symmetry_equiv_pos_as_xyz
  x,y,z
_cell_length_a	19.188930
_cell_length_b	12.837942
_cell_length_c	11.295501
_cell_angle_alpha	85.830212
_cell_angle_beta	85.374918
_cell_angle_gamma	88.986860
loop_
_atom_site_label
_atom_site_type_symbol
_atom_site_fract_x
_atom_site_fract_y
_atom_site_fract_z
O1	O	-0.939645	-0.135610	0.099413
O2	O	-0.439645	0.364390	0.599413
O3	O	-0.737525	-0.153022	0.099332
O4	O	-0.237525	0.346978	0.599332
O5	O	-0.834103	0.006567	0.099364
O6	O	-0.334103	0.506567	0.599364
O7	O	-0.843067	-0.295199	0.099382
O8	O	-0.343067	0.204801	0.599382
O9	O	-0.824876	0.018987	-0.098691
O10	O	-0.324876	0.518987	0.401309
O11	O	-0.728298	-0.140602	-0.098723
O12	O	-0.228298	0.359398	0.401277
O13	O	-0.930419	-0.123191	-0.098642
O14	O	-0.430419	0.376809	0.401358
Cu15	Cu	-0.828516	-0.130762	-0.116766
Cu16	Cu	-0.328516	0.369238	0.383234
Cu17	Cu	-0.839427	-0.145450	0.117457
Cu18	Cu	-0.339427	0.354550	0.617457
O19	O	-0.833841	-0.282779	-0.098673
O20	O	-0.333841	0.217221	0.401327
C21	C	-0.706861	-0.146247	0.000294
C22	C	-0.206861	0.353753	0.500294
C23	C	-0.629239	-0.144552	0.000263
C24	C	-0.129239	0.355448	0.500263
C25	C	-0.826462	0.051384	0.000336
C26	C	-0.326462	0.551384	0.500336
C27	C	-0.817431	0.166420	0.000334
C28	C	-0.317431	0.666420	0.500334
C29	C	-0.961082	-0.129965	0.000399
C30	C	-0.461082	0.370035	0.500399
C31	C	-1.038705	-0.131661	0.000438
C32	C	-0.538705	0.368339	0.500438
C33	C	-0.590739	-0.238196	0.000287
C34	C	-0.090739	0.261804	0.500287
C35	C	-0.517807	-0.236606	0.000300
C36	C	-0.017807	0.263394	0.500300
C37	C	-0.483379	-0.141369	0.000313
C38	C	0.016621	0.358631	0.500313
C39	C	-0.521887	-0.047712	0.000282
C40	C	-0.021887	0.452288	0.500282
C41	C	-0.594818	-0.049304	0.000257
C42	C	-0.094818	0.450696	0.500257
N43	N	-0.373547	-0.072800	0.067763
N44	N	0.126453	0.427200	0.567763
N45	N	-0.304267	-0.071295	0.067789
N46	N	0.195733	0.428705	0.567789
C47	C	-0.263644	-0.136567	0.000385
C48	C	0.236356	0.363433	0.500385
N49	N	-0.294919	-0.203418	-0.067031
N50	N	0.205081	0.296582	0.432969
N51	N	-0.364206	-0.204927	-0.067052
N52	N	0.135794	0.295073	0.432948
C53	C	-0.404298	-0.139632	0.000339
C54	C	0.095702	0.360368	0.500339
C55	C	-0.146062	-0.228494	0.000422
C56	C	0.353938	0.271506	0.500422
C57	C	-0.073128	-0.226900	0.000428
C58	C	0.426872	0.273100	0.500428
C59	C	-0.077210	-0.038003	0.000421
C60	C	0.422790	0.461997	0.500421
C61	C	-0.150142	-0.039599	0.000403
C62	C	0.349858	0.460401	0.500403
C63	C	-0.184564	-0.134848	0.000410
C64	C	0.315436	0.365152	0.500410
C65	C	-0.841482	-0.327596	0.000358
C66	C	-0.341482	0.172404	0.500358
C67	C	-0.850513	-0.442633	0.000367
C68	C	-0.350513	0.057367	0.500367
N69	N	-0.820847	-0.120431	-0.281506
N70	N	-0.320847	0.379569	0.218494
C71	C	-0.926001	0.407866	0.000402
C72	C	-0.426001	0.907866	0.500402
C73	C	-0.917519	0.515954	0.000401
C74	C	-0.417519	1.015954	0.500401
C75	C	-0.791985	0.490684	0.000338
C76	C	-0.291985	0.990684	0.500338
C77	C	-0.800467	0.382597	0.000340
C78	C	-0.300467	0.882597	0.500340
C79	C	-0.867477	0.341192	0.000370
C80	C	-0.367477	0.841192	0.500370
C81	C	-0.875959	0.233103	0.000363
C82	C	-0.375959	0.733103	0.500363
C83	C	-0.750425	0.207835	0.000309
C84	C	-0.250425	0.707835	0.500309
C85	C	-0.741943	0.315922	0.000307
C86	C	-0.241943	0.815922	0.500307
C87	C	-0.902306	-0.230192	-0.530758
C88	C	-0.402306	0.269808	-0.030758
C89	C	-0.896515	-0.222377	-0.655425
C90	C	-0.396515	0.277623	-0.155425
C91	C	-0.803478	-0.096978	-0.655507
C92	C	-0.303478	0.403022	-0.155507
C93	C	-0.809269	-0.104794	-0.530841
C94	C	-0.309269	0.395206	-0.030841
C95	C	-0.858683	-0.171405	-0.468471
C96	C	-0.358683	0.328595	0.031529
C97	C	-0.864471	-0.179226	-0.343802
C98	C	-0.364471	0.320774	0.156198
C99	C	-0.771437	-0.053822	-0.343887
C100	C	-0.271437	0.446178	0.156113
C101	C	-0.765646	-0.046006	-0.468553
C102	C	-0.265646	0.453994	0.031447
N103	N	-0.847102	-0.155773	0.282197
N104	N	-0.347102	0.344227	0.782197
H105	H	-0.618761	-0.315755	0.000294
H106	H	-0.118761	0.184245	0.500294
H107	H	-0.041782	-0.303159	0.000441
H108	H	0.458218	0.196841	0.500441
C109	C	-0.944495	-0.287049	-0.723937
C110	C	-0.444495	0.212951	-0.223937
H111	H	-0.974749	-0.327843	-0.668933
H112	H	-0.474749	0.172157	-0.168933
H113	H	-0.971535	-0.241418	-0.772553
H114	H	-0.471535	0.258582	-0.272553
H115	H	-0.916800	-0.331805	-0.772581
H116	H	-0.416800	0.168195	-0.272581
H117	H	-0.965176	0.570237	0.000431
H118	H	-0.465176	1.070237	0.500431
H119	H	-0.626164	0.026955	0.000238
H120	H	-0.126164	0.526955	0.500238
H121	H	-0.930521	0.199394	0.000383
H122	H	-0.430521	0.699394	0.500383
C123	C	-0.686047	0.134490	0.000283
C124	C	-0.186047	0.634490	0.500283
H125	H	-0.700694	0.064186	0.000296
H126	H	-0.200694	0.564186	0.500296
H127	H	-0.655649	0.151348	-0.068793
H128	H	-0.155649	0.651348	0.431207
H129	H	-0.662087	0.142678	0.069348
H130	H	-0.162087	0.642678	0.569348
C131	C	-0.668238	0.361474	0.000266
C132	C	-0.168238	0.861474	0.500266
H133	H	-0.671567	0.435397	0.000262
H134	H	-0.171567	0.935397	0.500262
H135	H	-0.647049	0.334233	0.069314
H136	H	-0.147049	0.834233	0.569314
H137	H	-0.640628	0.342906	-0.068827
H138	H	-0.140628	0.842906	0.431173
C139	C	-0.475445	-0.339616	0.000332
C140	C	0.024555	0.160384	0.500332
H141	H	-0.427081	-0.325024	0.000340
H142	H	0.072919	0.174976	0.500340
H143	H	-0.489794	-0.383010	0.069399
H144	H	0.010206	0.116990	0.569399
H145	H	-0.483321	-0.374356	-0.068742
H146	H	0.016679	0.125644	0.431258
C147	C	-0.718282	0.536242	0.000306
C148	C	-0.218282	1.036242	0.500306
H149	H	-0.721616	0.610165	0.000304
H150	H	-0.221616	1.110165	0.500304
H151	H	-0.697095	0.509002	0.069356
H152	H	-0.197095	1.009002	0.569356
H153	H	-0.690668	0.517680	-0.068785
H154	H	-0.190668	1.017680	0.431215
H155	H	-0.725416	0.008229	-0.519352
H156	H	-0.225416	0.508229	-0.019352
C157	C	-0.039348	0.066757	0.000442
C158	C	0.460652	0.566757	0.500442
H159	H	0.009600	0.054294	0.000469
H160	H	0.509600	0.554294	0.500469
H161	H	-0.048904	0.109639	-0.068626
H162	H	0.451096	0.609639	0.431374
H163	H	-0.055375	0.100962	0.069515
H164	H	0.444625	0.600962	0.569515
C165	C	-0.183928	-0.333260	0.000417
C166	C	0.316072	0.166740	0.500417
H167	H	-0.150550	-0.388804	0.000416
H168	H	0.349450	0.111196	0.500416
H169	H	-0.215526	-0.342139	0.069476
H170	H	0.284474	0.157861	0.569476
H171	H	-0.209060	-0.333474	-0.068665
H172	H	0.290940	0.166526	0.431335
C173	C	-0.918829	-0.252485	-0.275196
C174	C	-0.418829	0.247515	0.224804
H175	H	-0.943984	-0.286367	-0.330152
H176	H	-0.443984	0.213633	0.169848
H177	H	-0.895664	-0.303338	-0.226577
H178	H	-0.395664	0.196662	0.273423
H179	H	-0.950386	-0.212934	-0.226549
H180	H	-0.450386	0.287066	0.273451
C181	C	-0.956659	-0.303456	-0.462148
C182	C	-0.456659	0.196544	0.037852
H183	H	-0.981813	-0.337346	-0.517100
H184	H	-0.481813	0.162654	-0.017100
H185	H	-0.933489	-0.354303	-0.413527
H186	H	-0.433489	0.145697	0.086473
H187	H	-0.988219	-0.263908	-0.413501
H188	H	-0.488219	0.236092	0.086499
C189	C	-0.192495	0.063410	0.000395
C190	C	0.307505	0.563410	0.500395
H191	H	-0.161548	0.120359	0.000414
H192	H	0.338452	0.620359	0.500414
H193	H	-0.217797	0.071049	-0.068678
H194	H	0.282203	0.571049	0.431322
H195	H	-0.224263	0.062379	0.069463
H196	H	0.275737	0.562379	0.569463
C197	C	-0.749130	-0.023711	-0.724128
C198	C	-0.249130	0.476289	-0.224128
H199	H	-0.751930	-0.027482	-0.807295
H200	H	-0.251930	0.472518	-0.307295
H201	H	-0.758328	0.045962	-0.703694
H202	H	-0.258328	0.545962	-0.203694
H203	H	-0.703597	-0.044430	-0.703742
H204	H	-0.203597	0.455570	-0.203742
H205	H	-0.493852	0.029831	0.000308
H206	H	0.006148	0.529831	0.500308
C207	C	-0.723428	0.010808	-0.275369
C208	C	-0.223428	0.510808	0.224631
H209	H	-0.733947	-0.003393	-0.192189
H210	H	-0.233947	0.496607	0.307811
H211	H	-0.676010	-0.007375	-0.295862
H212	H	-0.176010	0.492625	0.204138
H213	H	-0.730711	0.083058	-0.295772
H214	H	-0.230711	0.583058	0.204228
H215	H	-0.980563	0.374155	0.000415
H216	H	-0.480563	0.874155	0.500415
