data_functionalizedCrystal
_audit_creation_method	'MofGen! by Chris Wilmer'
_symmetry_space_group_name_H-M	'P1'
_symmetry_Int_Tables_number	1
_symmetry_cell_setting	triclinic
loop_
_symmetry_equiv_pos_as_xyz
  x,y,z
_cell_length_a	6.817900
_cell_length_b	11.353959
_cell_length_c	12.257928
_cell_angle_alpha	76.576458
_cell_angle_beta	72.012007
_cell_angle_gamma	107.526623
loop_
_atom_site_label
_atom_site_type_symbol
_atom_site_fract_x
_atom_site_fract_y
_atom_site_fract_z
V1	V	-4.123859	-0.181220	0.393855
V2	V	-3.623859	0.318780	0.893855
O3	O	-4.062645	0.008413	0.349171
O4	O	-3.562645	0.508413	0.849171
O5	O	-4.119799	-0.359045	0.426927
O6	O	-3.619799	0.140955	0.926927
O7	O	-4.097236	-0.178562	0.549312
O8	O	-3.597236	0.321438	1.049312
O9	O	-4.085364	-0.173319	0.225938
O10	O	-3.585364	0.326681	0.725938
V11	V	-4.598920	-0.158523	0.369426
V12	V	-4.098920	0.341477	0.869426
O13	O	-4.403680	-0.231009	0.447442
O14	O	-3.903680	0.268991	0.947442
O15	O	-4.769296	-0.108733	0.315840
O16	O	-4.269296	0.391267	0.815840
O17	O	-4.379774	0.019302	0.336355
O18	O	-3.879774	0.519302	0.836355
O19	O	-4.777531	-0.348156	0.414111
O20	O	-4.277531	0.151844	0.914111
O21	O	-4.754812	-0.166423	0.537344
O22	O	-4.254812	0.333577	1.037344
O23	O	-4.402336	-0.161181	0.213970
O24	O	-3.902336	0.338819	0.713970
C25	C	-3.974882	-0.402391	0.429942
C26	C	-3.474882	0.097609	0.929942
C27	C	-4.052994	-0.547766	0.458019
C28	C	-3.552994	-0.047766	0.958019
C29	C	-4.030716	-0.594752	0.367143
C30	C	-3.530716	-0.094752	0.867143
C31	C	-4.111448	-0.745005	0.396158
C32	C	-3.611448	-0.245005	0.896158
C33	C	-3.946099	-0.172165	0.586055
C34	C	-3.446099	0.327835	1.086055
C35	C	-4.005909	-0.171169	0.713377
C36	C	-3.505909	0.328831	1.213377
C37	C	-4.115373	-0.169346	0.946486
C38	C	-3.615373	0.330654	1.446486
C39	C	-4.054451	-0.170360	0.816767
C40	C	-3.554451	0.329640	1.316767
C41	C	-4.188034	0.062641	0.333338
C42	C	-3.688034	0.562641	0.833338
C43	C	-4.089162	0.208015	0.305269
C44	C	-3.589162	0.708015	0.805269
C45	C	-4.223778	-0.167575	1.177219
C46	C	-3.723778	0.332425	1.677219
C47	C	-4.163951	-0.168543	1.049888
C48	C	-3.663951	0.331457	1.549888
H49	H	-4.010328	-0.720980	0.205979
H50	H	-3.510328	-0.220980	0.705979
H51	H	-3.951887	-0.523742	0.267860
H52	H	-3.451887	-0.023742	0.767860
C53	C	-4.159482	-0.643682	0.592144
C54	C	-3.659482	-0.143682	1.092144
H55	H	-4.199753	-0.732086	0.594049
H56	H	-3.699753	-0.232086	1.094049
H57	H	-4.290295	-0.633339	0.637085
H58	H	-3.790295	-0.133339	1.137085
H59	H	-4.054058	-0.624805	0.628039
H60	H	-3.554058	-0.124805	1.128039
H61	H	-4.190297	-0.816011	0.495449
H62	H	-3.690297	-0.316011	0.995449
