data_functionalizedCrystal
_audit_creation_method	'MofGen! by Chris Wilmer'
_symmetry_space_group_name_H-M	'P1'
_symmetry_Int_Tables_number	1
_symmetry_cell_setting	triclinic
loop_
_symmetry_equiv_pos_as_xyz
  x,y,z
_cell_length_a	11.169417
_cell_length_b	16.120444
_cell_length_c	11.169409
_cell_angle_alpha	92.861473
_cell_angle_beta	89.980487
_cell_angle_gamma	92.927659
loop_
_atom_site_label
_atom_site_type_symbol
_atom_site_fract_x
_atom_site_fract_y
_atom_site_fract_z
Zn1	Zn	1.810608	-0.331811	-0.702701
Zn2	Zn	2.143941	0.001522	-0.369368
Zn3	Zn	2.477274	0.334855	-0.036034
Zn4	Zn	1.800262	-0.471255	-0.512175
Zn5	Zn	2.133595	-0.137922	-0.178841
Zn6	Zn	2.466929	0.195412	0.154492
Zn7	Zn	1.609890	-0.331863	-0.502040
Zn8	Zn	1.943223	0.001470	-0.168707
Zn9	Zn	2.276556	0.334803	0.164626
Zn10	Zn	1.599671	-0.471188	-0.712816
Zn11	Zn	1.933004	-0.137855	-0.379482
Zn12	Zn	2.266338	0.195479	-0.046149
O13	O	1.705108	-0.401529	-0.607433
O14	O	2.038441	-0.068196	-0.274100
O15	O	2.371774	0.265137	0.059234
O16	O	1.977185	-0.350315	-0.677436
O17	O	2.310518	-0.016982	-0.344102
O18	O	2.643851	0.316351	-0.010769
O19	O	1.774956	-0.452814	-0.342884
O20	O	2.108289	-0.119481	-0.009551
O21	O	2.441622	0.213853	0.323783
O22	O	1.645122	-0.215191	-0.520184
O23	O	1.978455	0.118143	-0.186851
O24	O	2.311788	0.451476	0.146483
O25	O	1.969584	-0.452764	-0.537457
O26	O	2.302917	-0.119431	-0.204123
O27	O	2.636250	0.213903	0.129210
O28	O	1.792588	-0.215153	-0.667609
O29	O	2.125922	0.118181	-0.334275
O30	O	2.459255	0.451514	-0.000942
O31	O	1.635090	-0.350403	-0.335438
O32	O	1.968423	-0.017070	-0.002105
O33	O	2.301757	0.316263	0.331228
O34	O	1.440585	-0.350339	-0.529992
O35	O	1.773918	-0.017005	-0.196659
O36	O	2.107252	0.316328	0.136675
O37	O	1.627705	-0.452650	-0.879420
O38	O	1.961039	-0.119316	-0.546087
O39	O	2.294372	0.214017	-0.212754
O40	O	1.433077	-0.452700	-0.684848
O41	O	1.766411	-0.119367	-0.351514
O42	O	2.099744	0.213967	-0.018181
O43	O	1.782680	-0.350250	-0.871989
O44	O	2.116013	-0.016917	-0.538656
O45	O	2.449346	0.316416	-0.205322
O46	O	1.765047	-0.587912	-0.547264
O47	O	2.098380	-0.254578	-0.213931
O48	O	2.431714	0.078755	0.119402
O49	O	1.617674	-0.587863	-0.694675
O50	O	1.951007	-0.254529	-0.361341
O51	O	2.284340	0.078804	-0.028008
C52	C	1.393284	-0.401518	-0.607418
C53	C	1.726617	-0.068185	-0.274085
C54	C	2.059950	0.265148	0.059248
C55	C	1.259883	-0.401533	-0.607442
C56	C	1.593216	-0.068200	-0.274109
C57	C	1.926549	0.265133	0.059225
C58	C	1.689161	-0.618137	-0.623193
C59	C	2.022495	-0.284804	-0.289860
C60	C	2.355828	0.048529	0.043474
C61	C	1.682449	-0.710803	-0.629975
C62	C	2.015783	-0.377470	-0.296642
C63	C	2.349116	-0.044136	0.036691
C64	C	1.740221	-0.921749	-0.572507
C65	C	2.073554	-0.588415	-0.239174
C66	C	2.406888	-0.255082	0.094159
C67	C	1.670217	-0.880459	-0.642371
C68	C	2.003550	-0.547126	-0.309038
C69	C	2.336883	-0.213792	0.024296
C70	C	1.677025	-0.786054	-0.635472
C71	C	2.010358	-0.452720	-0.302139
C72	C	2.343692	-0.119387	0.031195
C73	C	1.733414	-1.016163	-0.579405
C74	C	2.066748	-0.682829	-0.246071
C75	C	2.400081	-0.349496	0.087262
C76	C	2.018149	-0.401541	-0.607448
C77	C	2.351482	-0.068208	-0.274115
C78	C	2.684816	0.265125	0.059218
C79	C	2.151549	-0.401546	-0.607455
C80	C	2.484882	-0.068213	-0.274122
C81	C	2.818215	0.265120	0.059212
C82	C	1.705207	-0.401437	-0.920469
C83	C	2.038540	-0.068104	-0.587135
C84	C	2.371873	0.265230	-0.253802
C85	C	1.705249	-0.401397	-1.053866
C86	C	2.038582	-0.068064	-0.720533
C87	C	2.371915	0.265269	-0.387199
C88	C	1.721149	-0.184076	-0.591638
C89	C	2.054482	0.149257	-0.258304
C90	C	2.387816	0.482591	0.075029
C91	C	1.727985	-0.091410	-0.584907
C92	C	2.061318	0.241923	-0.251573
C93	C	2.394651	0.575257	0.081760
C94	C	1.705083	-0.401562	-0.295611
C95	C	2.038416	-0.068228	0.037723
C96	C	2.371749	0.265105	0.371056
C97	C	1.705290	-0.401366	-0.162197
C98	C	2.038623	-0.068033	0.171136
C99	C	2.371957	0.265301	0.504470
H100	H	1.605171	-0.916010	-0.707364
H101	H	1.938504	-0.582677	-0.374031
H102	H	2.271838	-0.249343	-0.040697
H103	H	1.805261	-0.886201	-0.507518
H104	H	2.138595	-0.552868	-0.174184
H105	H	2.471928	-0.219535	0.159149
