data_functionalizedCrystal
_audit_creation_method	'MofGen! by Chris Wilmer'
_symmetry_space_group_name_H-M	'P1'
_symmetry_Int_Tables_number	1
_symmetry_cell_setting	triclinic
loop_
_symmetry_equiv_pos_as_xyz
  x,y,z
_cell_length_a	15.538191
_cell_length_b	9.730223
_cell_length_c	10.654550
_cell_angle_alpha	89.999807
_cell_angle_beta	65.878498
_cell_angle_gamma	89.998970
loop_
_atom_site_label
_atom_site_type_symbol
_atom_site_fract_x
_atom_site_fract_y
_atom_site_fract_z
O1	O	1.247250	-0.114313	-0.406667
O2	O	0.973935	-0.114310	-0.262093
O3	O	1.116877	-0.114307	-0.520057
O4	O	1.104309	-0.114317	-0.148703
O5	O	1.116875	0.114273	-0.520051
O6	O	0.973934	0.114270	-0.262087
O7	O	1.247248	0.114267	-0.406661
Zn8	Zn	1.110591	0.150560	-0.334373
Zn9	Zn	1.110593	-0.150604	-0.334381
O10	O	1.104307	0.114263	-0.148697
C11	C	0.938938	-0.000019	-0.246964
C12	C	0.834659	-0.000018	-0.201908
C13	C	1.115953	-0.000018	-0.566421
C14	C	1.113192	-0.000023	-0.704573
N15	N	1.110596	0.356097	-0.334372
C16	C	0.543944	-0.000027	-0.649529
C17	C	0.445955	-0.000030	-0.607160
C18	C	0.425069	-0.000036	-0.368846
C19	C	0.523058	-0.000027	-0.411195
C20	C	0.582488	-0.000024	-0.551538
C21	C	0.561602	-0.000024	-0.313204
C22	C	0.659583	-0.000022	-0.355550
C23	C	0.719019	-0.000024	-0.495887
C24	C	0.680469	-0.000023	-0.593884
C25	C	0.502170	-0.000036	-0.172861
C26	C	0.540715	-0.000033	-0.074870
C27	C	0.638697	-0.000021	-0.117216
C28	C	0.698133	-0.000023	-0.257553
C29	C	0.677248	-0.000022	-0.019219
C30	C	0.775228	-0.000021	-0.061564
C31	C	0.796114	-0.000021	-0.299898
C32	C	1.282246	-0.000027	-0.421790
C33	C	1.386525	-0.000037	-0.466847
N34	N	1.110595	-0.356140	-0.334395
C35	C	1.173907	0.428024	-0.448577
C36	C	1.173904	0.571907	-0.448592
C37	C	1.047277	0.571922	-0.220183
C38	C	1.047276	0.428042	-0.220174
C39	C	1.247017	0.428017	-0.580445
C40	C	1.247014	0.571899	-0.580459
C41	C	1.197354	-0.000020	-0.823402
C42	C	1.194754	-0.000030	-0.953208
C43	C	1.023824	-0.000039	-0.845338
C44	C	1.026424	-0.000040	-0.715536
C45	C	1.296039	-0.000008	-0.885681
C46	C	1.293439	-0.000018	-1.015486
C47	C	1.105231	-0.000028	-0.102334
C48	C	1.107991	-0.000032	0.035819
H49	H	0.844506	-0.000011	-0.414180
O50	O	1.342696	0.126688	-1.093820
H51	H	1.403017	0.095537	-1.189746
O52	O	0.824701	-0.000003	-0.541576
H53	H	0.846042	-0.093159	-0.501303
O54	O	1.225814	0.376243	-0.698401
H55	H	1.160763	0.312852	-0.657565
H56	H	1.323264	-0.098713	-1.075074
O57	O	0.930241	-0.000052	-0.857166
H58	H	0.889755	0.093108	-0.806381
H59	H	0.728861	-0.000012	-0.708165
O60	O	0.978991	0.649518	-0.097007
H61	H	0.989630	0.761652	-0.116194
H62	H	1.327463	0.098688	-0.864742
H63	H	0.592336	-0.000017	-0.763810
O64	O	1.347154	-0.126715	-0.870669
H65	H	1.370109	-0.188757	-0.966257
O66	O	0.404377	-0.000020	-0.712856
H67	H	0.462167	-0.000007	-0.817555
H68	H	1.319188	0.610949	-0.592681
H69	H	1.315206	0.383388	-0.581734
H70	H	0.376668	-0.000043	-0.254578
H71	H	0.422389	-0.000042	-0.138388
H72	H	0.492314	-0.000040	0.039397
H73	H	0.628845	-0.000038	0.095049
O74	O	0.816808	0.000001	0.044121
H75	H	0.792993	-0.093155	0.109404
H76	H	1.224196	0.616518	-0.661015
O77	O	0.978987	0.350456	-0.097002
H78	H	0.934966	0.424660	-0.017593
O79	O	0.935645	-0.000052	-0.587376
H80	H	0.932742	-0.093225	-0.525667
