data_functionalizedCrystal
_audit_creation_method	'MofGen! by Chris Wilmer'
_symmetry_space_group_name_H-M	'P1'
_symmetry_Int_Tables_number	1
_symmetry_cell_setting	triclinic
loop_
_symmetry_equiv_pos_as_xyz
  x,y,z
_cell_length_a	10.540510
_cell_length_b	10.489716
_cell_length_c	9.016244
_cell_angle_alpha	90.001835
_cell_angle_beta	89.992396
_cell_angle_gamma	84.521223
loop_
_atom_site_label
_atom_site_type_symbol
_atom_site_fract_x
_atom_site_fract_y
_atom_site_fract_z
O1	O	1.685921	0.179581	-0.123335
O2	O	1.316503	0.196558	-0.123335
O3	O	1.509634	0.002467	-0.123340
O4	O	1.492790	0.373671	-0.123329
O5	O	1.509606	0.002472	0.123341
O6	O	1.316475	0.196562	0.123346
O7	O	1.685892	0.179585	0.123346
Cu8	Cu	1.501181	0.188074	0.145870
Cu9	Cu	1.501215	0.188069	-0.145859
O10	O	1.492761	0.373675	0.123351
C11	C	1.269186	0.195295	0.000006
C12	C	1.128236	0.191510	0.000005
C13	C	0.910784	0.326343	-0.000558
C14	C	1.057380	0.330381	0.000007
C15	C	1.083457	0.120423	0.140866
C16	C	0.936696	0.117369	0.140975
C17	C	0.936922	0.114472	-0.139547
C18	C	1.083264	0.121059	-0.141399
C19	C	1.508354	-0.045062	-0.000004
C20	C	1.504568	-0.186693	-0.000018
C21	C	1.623002	-0.284393	-0.000004
C22	C	1.560433	-0.361742	-0.121627
C23	C	1.560377	-0.361702	0.121581
C24	C	1.442048	-0.262176	-0.121741
C25	C	1.442010	-0.262130	0.121576
C26	C	1.379354	-0.339429	-0.000076
C27	C	1.733210	0.180848	0.000002
C28	C	1.874160	0.184633	-0.000007
C29	C	1.494041	0.421205	0.000012
C30	C	1.497828	0.562835	0.000016
N31	N	1.501167	0.188077	0.351056
N32	N	1.501239	0.188056	-0.351045
C33	C	1.397537	0.291554	0.586092
C34	C	1.397767	0.291941	0.414200
C35	C	1.633892	0.218342	0.413395
C36	C	1.633327	0.219075	0.585340
C37	C	1.473388	0.053995	0.585596
C38	C	1.470343	0.054864	0.413642
H39	H	1.085774	0.386335	0.101155
H40	H	0.896469	0.165954	0.246274
Cl41	Cl	0.902721	-0.046504	-0.141019
H42	H	1.540868	-0.025853	0.370663
Cl43	Cl	1.590121	-0.064940	0.648357
H44	H	1.712967	0.146728	0.626921
Cl45	Cl	1.131071	0.196647	0.302724
H46	H	1.299148	0.273733	0.372056
Cl47	Cl	1.364897	-0.194885	0.280339
Cl48	Cl	1.755951	0.105134	0.350249
Cl49	Cl	1.102713	0.416251	-0.155889
H50	H	1.726019	-0.259740	-0.000128
H51	H	1.132329	0.019673	-0.149909
H52	H	0.868844	0.380444	-0.101578
H53	H	1.276259	-0.363836	-0.000141
H54	H	1.658794	0.315043	0.370320
Cl55	Cl	1.637582	-0.428831	0.280330
Cl56	Cl	1.244790	0.263858	0.649963
H57	H	1.372703	0.031924	0.372899
H58	H	0.867267	0.380136	0.099892
Cl59	Cl	1.424832	0.444253	0.652748
Cl60	Cl	1.425357	0.445517	0.350666
Cl61	Cl	1.670930	0.370080	0.647246
H62	H	1.610440	-0.405250	-0.224452
H63	H	1.378649	0.025187	0.629042
H64	H	1.130843	0.018189	0.146103
Cl65	Cl	0.871272	0.182100	-0.304388
Cl66	Cl	0.901180	-0.042984	0.150938
Cl67	Cl	1.127527	0.200870	-0.302296
H68	H	1.392092	-0.218862	-0.224677
