data_functionalizedCrystal
_audit_creation_method	'MofGen! by Chris Wilmer'
_symmetry_space_group_name_H-M	'P1'
_symmetry_Int_Tables_number	1
_symmetry_cell_setting	triclinic
loop_
_symmetry_equiv_pos_as_xyz
  x,y,z
_cell_length_a	11.026607
_cell_length_b	17.038272
_cell_length_c	9.482900
_cell_angle_alpha	100.012096
_cell_angle_beta	78.636152
_cell_angle_gamma	99.848786
loop_
_atom_site_label
_atom_site_type_symbol
_atom_site_fract_x
_atom_site_fract_y
_atom_site_fract_z
O1	O	1.662374	0.322506	-0.120910
O2	O	2.162374	0.822506	0.379090
O3	O	1.305163	0.284676	-0.120910
O4	O	1.805163	0.784676	0.379090
O5	O	1.481644	0.189477	-0.120899
O6	O	1.981644	0.689477	0.379101
O7	O	1.485893	0.417705	-0.120922
O8	O	1.985893	0.917705	0.379078
O9	O	1.445807	0.208914	0.120891
O10	O	1.945807	0.708914	0.620891
O11	O	1.269325	0.304112	0.120880
O12	O	1.769325	0.804112	0.620880
O13	O	1.626537	0.341943	0.120880
O14	O	2.126537	0.841943	0.620880
Cu15	Cu	1.444659	0.324802	0.142957
Cu16	Cu	1.944659	0.824802	0.642957
Cu17	Cu	1.487041	0.301816	-0.142988
Cu18	Cu	1.987041	0.801816	0.357012
O19	O	1.450056	0.437141	0.120868
O20	O	1.950056	0.937141	0.620868
C21	C	1.241313	0.287415	-0.000015
C22	C	1.741313	0.787415	0.499985
C23	C	1.104451	0.266610	-0.000015
C24	C	1.604451	0.766610	0.499985
C25	C	1.036577	0.324055	-0.000022
C26	C	1.536577	0.824055	0.499978
C27	C	0.895123	0.302554	-0.000021
C28	C	1.395123	0.802554	0.499979
C29	C	1.459863	0.169523	-0.000004
C30	C	1.959863	0.669523	0.499996
C31	C	1.448341	0.081107	-0.000004
C32	C	1.948341	0.581107	0.499996
C33	C	1.554125	0.045899	-0.000003
C34	C	2.054125	0.545899	0.499997
C35	C	1.543294	-0.037179	-0.000016
C36	C	2.043294	0.462821	0.499984
C37	C	1.426676	-0.085048	-0.000021
C38	C	1.926676	0.414952	0.499979
C39	C	1.320885	-0.049835	-0.000027
C40	C	1.820885	0.450165	0.499973
C41	C	1.331719	0.033241	-0.000024
C42	C	1.831719	0.533241	0.499976
C43	C	1.388403	-0.336201	-0.000041
C44	C	1.888403	0.163799	0.499959
C45	C	1.377576	-0.419281	-0.000040
C46	C	1.877576	0.080719	0.499960
C47	C	1.599987	-0.406621	-0.000032
C48	C	2.099987	0.093379	0.499968
C49	C	1.610809	-0.323543	-0.000020
C50	C	2.110809	0.176457	0.499980
C51	C	1.505019	-0.288338	-0.000034
C52	C	2.005019	0.211662	0.499966
C53	C	1.415602	-0.169967	-0.000031
C54	C	1.915602	0.330033	0.499969
C55	C	1.516096	-0.203421	-0.000034
C56	C	2.016096	0.296579	0.499966
C57	C	1.690388	0.339203	-0.000018
C58	C	2.190388	0.839203	0.499982
C59	C	1.827251	0.360008	-0.000028
C60	C	2.327251	0.860008	0.499972
C61	C	1.471837	0.457095	-0.000030
C62	C	1.971837	0.957095	0.499970
C63	C	1.483360	0.545511	-0.000039
C64	C	1.983360	1.045511	0.499961
N65	N	1.414859	0.340969	0.344075
N66	N	1.914859	0.840969	0.844075
N67	N	1.516850	0.285644	-0.344106
N68	N	2.016850	0.785644	0.155894
C69	C	1.478242	0.306580	0.416279
C70	C	1.978242	0.806580	0.916279
C71	C	1.453458	0.320039	0.583695
C72	C	1.953458	0.820039	1.083695
H73	H	1.649086	0.084868	0.000010
H74	H	2.149086	0.584868	0.500010
O75	O	1.613036	0.233435	0.573631
O76	O	2.113036	0.733435	1.073631
H77	H	1.617414	0.231056	0.455046
H78	H	2.117414	0.731056	0.955046
H79	H	0.873856	0.425112	-0.000025
H80	H	1.373856	0.925112	0.499975
O81	O	1.574423	0.254371	0.334018
O82	O	2.074423	0.754371	0.834018
H83	H	1.547767	0.192652	0.363173
H84	H	2.047767	0.692652	0.863173
O85	O	0.833402	0.216314	-0.000004
O86	O	1.333402	0.716314	0.499996
H87	H	0.789760	0.196168	-0.098556
H88	H	1.289760	0.696168	0.401444
O89	O	1.657384	-0.075155	0.000009
O90	O	2.157384	0.424845	0.500009
H91	H	1.740291	-0.027910	0.000040
H92	H	2.240291	0.472090	0.500040
H93	H	1.282604	-0.458253	-0.000021
H94	H	1.782604	0.041747	0.499979
O95	O	1.042725	0.180374	-0.000006
O96	O	1.542725	0.680374	0.499994
H97	H	0.941309	0.177018	-0.000016
H98	H	1.441309	0.677018	0.499984
O99	O	1.736594	-0.271916	-0.000050
O100	O	2.236594	0.228084	0.499950
H101	H	1.808338	-0.310358	-0.000073
H102	H	2.308338	0.189642	0.499927
O103	O	1.714087	-0.444590	-0.000027
O104	O	2.214087	0.055410	0.499973
H105	H	1.686969	-0.510401	-0.000040
H106	H	2.186969	-0.010401	0.499960
H107	H	1.302261	-0.307547	-0.000052
H108	H	1.802261	0.192453	0.499948
O109	O	1.357285	0.372252	0.665983
O110	O	1.857285	0.872252	1.165983
H111	H	1.383933	0.433972	0.636831
H112	H	1.883933	0.933972	1.136831
O113	O	1.195098	-0.101457	-0.000017
O114	O	1.695098	0.398543	0.499983
H115	H	1.205330	-0.165139	0.000002
H116	H	1.705330	0.334861	0.500002
O117	O	1.217624	0.071223	-0.000010
O118	O	1.717624	0.571223	0.499990
H119	H	1.134709	0.023984	0.000003
H120	H	1.634709	0.523984	0.500003
O121	O	1.318676	0.393174	0.426348
O122	O	1.818676	0.893174	0.926348
H123	H	1.314311	0.395559	0.544932
H124	H	1.814311	0.895559	1.044932
H125	H	1.320650	-0.208950	-0.000032
H126	H	1.820650	0.291050	0.499968
O127	O	1.098302	0.410291	-0.000029
O128	O	1.598302	0.910291	0.499971
H129	H	1.199721	0.413646	-0.000037
H130	H	1.699721	0.913646	0.499963
O131	O	1.641879	-0.151801	-0.000035
O132	O	2.141879	0.348199	0.499965
H133	H	1.637522	-0.105734	0.098521
H134	H	2.137522	0.394266	0.598521
