data_functionalizedCrystal
_audit_creation_method	'MofGen! by Chris Wilmer'
_symmetry_space_group_name_H-M	'P1'
_symmetry_Int_Tables_number	1
_symmetry_cell_setting	triclinic
loop_
_symmetry_equiv_pos_as_xyz
  x,y,z
_cell_length_a	10.489741
_cell_length_b	10.489741
_cell_length_c	9.565339
_cell_angle_alpha	89.994586
_cell_angle_beta	90.000576
_cell_angle_gamma	84.539174
loop_
_atom_site_label
_atom_site_type_symbol
_atom_site_fract_x
_atom_site_fract_y
_atom_site_fract_z
O1	O	0.179962	1.694041	0.116173
O2	O	0.196855	1.322845	0.116194
O3	O	0.002811	1.516889	0.116175
O4	O	0.374006	1.499997	0.116192
O5	O	0.002816	1.516898	-0.116345
O6	O	0.196861	1.322854	-0.116326
O7	O	0.179968	1.694050	-0.116347
Zn8	Zn	0.188415	1.508453	-0.153254
Zn9	Zn	0.188407	1.508442	0.153101
O10	O	0.374012	1.500005	-0.116328
C11	C	-0.044718	1.515618	-0.000084
C12	C	-0.186348	1.511801	-0.000082
C13	C	0.195582	1.275318	-0.000063
C14	C	0.191765	1.133688	-0.000055
C15	C	-0.254488	1.388336	-0.000064
C16	C	-0.346608	1.446664	-0.114712
C17	C	-0.346588	1.446685	0.114534
C18	C	-0.276602	1.570179	-0.114824
C19	C	-0.276573	1.570183	0.114525
C20	C	-0.368665	1.628600	-0.000150
C21	C	0.068300	1.065548	-0.000074
C22	C	0.126621	0.973417	0.114571
C23	C	0.126656	0.973460	-0.114676
C24	C	0.250136	1.043423	0.114684
C25	C	0.250154	1.043475	-0.114665
C26	C	0.308564	0.951371	0.000007
C27	C	0.421541	1.501277	-0.000066
C28	C	0.563170	1.505094	-0.000059
C29	C	0.181241	1.741577	-0.000087
C30	C	0.185058	1.883206	-0.000086
N31	N	0.188419	1.508470	-0.362334
C32	C	0.098687	1.598238	-0.453508
C33	C	0.072852	1.482742	-0.546673
C34	C	0.214171	1.623920	-0.546724
C35	C	0.162527	1.392916	-0.453447
C36	C	0.303897	1.534170	-0.453489
C37	C	0.278111	1.418591	-0.546612
N38	N	0.188393	1.508435	0.362180
H39	H	-0.204837	1.286824	-0.000174
H40	H	0.140624	1.295243	-0.412646
O41	O	0.312524	1.080321	0.230306
C42	C	0.420194	1.142102	0.189407
H43	H	0.405210	1.181086	0.078770
H44	H	0.433247	1.224454	0.264213
H45	H	0.509189	1.070728	0.192166
H46	H	-0.377554	1.394425	0.211470
O47	O	-0.052817	1.124743	0.000305
C48	C	-0.117446	1.089226	0.121392
H49	H	-0.044525	1.056481	0.205454
H50	H	-0.182261	1.174866	0.161409
H51	H	-0.177811	1.007614	0.095228
O52	O	0.368785	1.327988	-0.594919
C53	C	0.490136	1.354281	-0.545369
H54	H	0.478010	1.415222	-0.446737
H55	H	0.549803	1.260487	-0.520383
H56	H	0.540724	1.408393	-0.628918
H57	H	-0.377617	1.394427	-0.211633
H58	H	0.302354	1.074524	-0.211590
O59	O	-0.239314	1.632466	0.230045
C60	C	-0.105323	1.636174	0.227742
H61	H	-0.069328	1.625095	0.115543
H62	H	-0.080155	1.731704	0.271516
H63	H	-0.058139	1.554727	0.294304
O64	O	0.064214	0.936631	0.230236
C65	C	0.023087	1.045409	0.310763
H66	H	0.015037	1.133974	0.241070
H67	H	-0.074379	1.032629	0.358701
H68	H	0.095343	1.057586	0.397633
O69	O	0.429794	0.892455	0.000328
C70	C	0.494397	0.928161	0.121348
H71	H	0.421466	0.960751	0.205449
H72	H	0.559431	0.842667	0.161359
H73	H	0.554532	1.009934	0.095097
O74	O	-0.239691	1.632574	-0.230445
C75	C	-0.177913	1.740241	-0.189545
H76	H	-0.138941	1.725250	-0.078906
H77	H	-0.095553	1.753296	-0.264348
H78	H	-0.249286	1.829237	-0.192309
H79	H	0.074395	0.942485	-0.211599
O80	O	-0.427582	1.749829	-0.000475
C81	C	-0.391865	1.814440	-0.121494
H82	H	-0.359265	1.741514	-0.205593
H83	H	-0.477355	1.879475	-0.161510
H84	H	-0.310096	1.874575	-0.095241
H85	H	0.022763	1.674078	-0.412627
H86	H	0.401535	1.555966	-0.412527
H87	H	-0.024816	1.460981	-0.587605
O88	O	0.240059	1.740523	-0.595383
C89	C	0.145224	1.834882	-0.547943
H90	H	0.098150	1.799212	-0.449837
H91	H	0.191075	1.926440	-0.522781
H92	H	0.069764	1.855297	-0.632848
