data_functionalizedCrystal
_audit_creation_method	'MofGen! by Chris Wilmer'
_symmetry_space_group_name_H-M	'P1'
_symmetry_Int_Tables_number	1
_symmetry_cell_setting	triclinic
loop_
_symmetry_equiv_pos_as_xyz
  x,y,z
_cell_length_a	10.967926
_cell_length_b	14.044190
_cell_length_c	9.482900
_cell_angle_alpha	100.185237
_cell_angle_beta	92.549900
_cell_angle_gamma	88.857419
loop_
_atom_site_label
_atom_site_type_symbol
_atom_site_fract_x
_atom_site_fract_y
_atom_site_fract_z
O1	O	1.628190	0.167989	0.286996
O2	O	2.128190	0.667989	0.786996
O3	O	1.279200	0.170075	0.199560
O4	O	1.779200	0.670075	0.699560
O5	O	1.448449	0.030855	0.241992
O6	O	1.948449	0.530855	0.741992
O7	O	1.458942	0.307209	0.244564
O8	O	1.958942	0.807209	0.744564
O9	O	1.414083	0.059253	0.475169
O10	O	1.914083	0.559253	0.975169
O11	O	1.244835	0.198473	0.432737
O12	O	1.744835	0.698473	0.932737
O13	O	1.593825	0.196386	0.520173
O14	O	2.093825	0.696386	1.020173
Cu15	Cu	1.416192	0.200023	0.497746
Cu16	Cu	1.916192	0.700023	0.997746
Cu17	Cu	1.456833	0.166439	0.221987
Cu18	Cu	1.956833	0.666439	0.721987
O19	O	1.424577	0.335606	0.477741
O20	O	1.924577	0.835606	0.977741
C21	C	1.217085	0.181977	0.304891
C22	C	1.717085	0.681977	0.804891
C23	C	1.083197	0.175119	0.271348
C24	C	1.583197	0.675119	0.771348
C25	C	1.005703	0.186773	0.377186
C26	C	1.505703	0.686773	0.877186
C27	C	0.867323	0.179685	0.342520
C28	C	1.367323	0.679685	0.842520
C29	C	1.426678	0.009569	0.357435
C30	C	1.926678	0.509569	0.857435
C31	C	1.412994	-0.096165	0.354020
C32	C	1.912994	0.403835	0.854020
C33	C	1.485028	-0.343775	0.372010
C34	C	1.985028	0.156225	0.872010
C35	C	1.388005	-0.289759	0.347712
C36	C	1.888005	0.210241	0.847712
C37	C	1.401912	-0.182033	0.351222
C38	C	1.901912	0.317967	0.851222
C39	C	1.471122	-0.451511	0.368500
C40	C	1.971122	0.048489	0.868500
C41	C	1.655941	0.184485	0.414839
C42	C	2.155941	0.684485	0.914839
C43	C	1.789830	0.191341	0.448373
C44	C	2.289830	0.691341	0.948373
C45	C	1.446348	0.356892	0.362295
C46	C	1.946348	0.856892	0.862295
C47	C	1.460033	0.462625	0.365701
C48	C	1.960033	0.962625	0.865701
N49	N	1.387616	0.223643	0.691702
N50	N	1.887616	0.723643	1.191702
N51	N	1.485418	0.142811	0.028034
N52	N	1.985418	0.642811	0.528034
C53	C	1.448396	0.173401	0.779139
C54	C	1.948396	0.673401	1.279139
C55	C	1.424630	0.193061	0.940598
C56	C	1.924630	0.693061	1.440598
H57	H	1.294496	-0.324419	0.324276
H58	H	1.794496	0.175581	0.824276
C59	C	1.611341	-0.296961	0.403688
C60	C	2.111341	0.203039	0.903688
H61	H	1.670393	-0.345017	0.418469
H62	H	2.170393	0.154983	0.918469
H63	H	1.608787	-0.248609	0.487377
H64	H	2.108787	0.251391	0.987377
H65	H	1.632778	-0.268382	0.324744
H66	H	2.132778	0.231618	0.824744
C67	C	1.542459	0.095626	0.718802
C68	C	2.042459	0.595626	1.218802
H69	H	1.546098	0.092619	0.618199
H70	H	2.046098	0.592619	1.118199
H71	H	1.518850	0.034567	0.737778
H72	H	2.018850	0.534567	1.237778
H73	H	1.620475	0.111723	0.763195
H74	H	2.120475	0.611723	1.263195
H75	H	1.354990	0.250631	0.985263
H76	H	1.854990	0.750631	1.485263
H77	H	1.317981	0.281210	0.736373
H78	H	1.817981	0.781210	1.236373
C79	C	1.054461	0.207341	0.534267
C80	C	1.554461	0.707341	1.034267
H81	H	1.141071	0.209414	0.536959
H82	H	1.641071	0.709414	1.036959
H83	H	1.029445	0.157537	0.582204
H84	H	1.529445	0.657537	1.082204
H85	H	1.022956	0.267779	0.580543
H86	H	1.522956	0.767779	1.080543
C87	C	0.818571	0.159121	0.185431
C88	C	1.318571	0.659121	0.685431
H89	H	0.731960	0.157062	0.182739
H90	H	1.231960	0.657062	0.682739
H91	H	0.850077	0.098693	0.139142
H92	H	1.350077	0.598693	0.639142
H93	H	0.843584	0.208938	0.137506
H94	H	1.343584	0.708938	0.637506
C95	C	1.579488	0.065031	0.967713
C96	C	2.079488	0.565031	1.467713
H97	H	1.614531	0.036055	1.043509
H98	H	2.114531	0.536055	1.543509
H99	H	1.641793	0.094096	0.923921
H100	H	2.141793	0.594096	1.423921
H101	H	1.540161	0.016944	0.898508
H102	H	2.040161	0.516944	1.398508
C103	C	0.838579	0.211910	0.605463
C104	C	1.338579	0.711910	1.105463
H105	H	0.925190	0.213982	0.608158
H106	H	1.425190	0.713982	1.108158
H107	H	0.813561	0.162105	0.653398
H108	H	1.313561	0.662105	1.153398
H109	H	0.807073	0.272348	0.651739
H110	H	1.307073	0.772348	1.151739
H111	H	1.047096	0.159893	0.155072
H112	H	1.547096	0.659893	0.655072
