data_functionalizedCrystal
_audit_creation_method	'MofGen! by Chris Wilmer'
_symmetry_space_group_name_H-M	'P1'
_symmetry_Int_Tables_number	1
_symmetry_cell_setting	triclinic
loop_
_symmetry_equiv_pos_as_xyz
  x,y,z
_cell_length_a	19.188925
_cell_length_b	19.188924
_cell_length_c	14.421503
_cell_angle_alpha	90.002214
_cell_angle_beta	89.991449
_cell_angle_gamma	83.142256
loop_
_atom_site_label
_atom_site_type_symbol
_atom_site_fract_x
_atom_site_fract_y
_atom_site_fract_z
O1	O	0.926149	0.087140	-0.077136
O2	O	1.259483	0.420473	0.256198
O3	O	1.592816	0.753807	0.589531
O4	O	0.722837	0.098878	-0.077134
O5	O	1.056171	0.432212	0.256199
O6	O	1.389504	0.765545	0.589533
O7	O	0.830363	-0.008647	-0.077124
O8	O	1.163696	0.324686	0.256209
O9	O	1.497030	0.658020	0.589543
O10	O	0.818624	0.194665	-0.077146
O11	O	1.151957	0.527999	0.256188
O12	O	1.485290	0.861332	0.589521
O13	O	0.830345	-0.008631	0.077099
O14	O	1.163678	0.324702	0.410433
O15	O	1.497012	0.658036	0.743766
O16	O	0.722819	0.098894	0.077090
O17	O	1.056153	0.432228	0.410423
O18	O	1.389486	0.765561	0.743756
O19	O	0.926132	0.087156	0.077088
O20	O	1.259465	0.420489	0.410421
O21	O	1.592798	0.753823	0.743754
Cu22	Cu	0.824474	0.093027	0.091170
Cu23	Cu	1.157807	0.426360	0.424504
Cu24	Cu	1.491140	0.759693	0.757837
Cu25	Cu	0.824495	0.093008	-0.091217
Cu26	Cu	1.157828	0.426341	0.242117
Cu27	Cu	1.491162	0.759674	0.575450
O28	O	0.818606	0.194681	0.077078
O29	O	1.151939	0.528015	0.410411
O30	O	1.485272	0.861348	0.743744
C31	C	0.696817	0.098507	-0.000022
C32	C	1.030151	0.431840	0.333312
C33	C	1.363484	0.765174	0.666645
C34	C	0.619313	0.097368	-0.000021
C35	C	0.952646	0.430701	0.333313
C36	C	1.285979	0.764034	0.666646
C37	C	0.057541	0.152832	-0.000029
C38	C	0.390874	0.486165	0.333305
C39	C	0.724208	0.819499	0.666638
C40	C	0.130364	0.153908	-0.000034
C41	C	0.463697	0.487242	0.333299
C42	C	0.797031	0.820575	0.666633
C43	C	0.175300	0.090816	-0.000025
C44	C	0.508633	0.424149	0.333308
C45	C	0.841967	0.757483	0.666641
C46	C	0.147408	0.026642	-0.000036
C47	C	0.480741	0.359976	0.333298
C48	C	0.814074	0.693309	0.666631
C49	C	0.074586	0.025568	-0.000040
C50	C	0.407919	0.358901	0.333293
C51	C	0.741252	0.692234	0.666627
N52	N	0.295972	0.045145	0.052478
N53	N	0.629306	0.378478	0.385812
N54	N	0.962639	0.711812	0.719145
N55	N	0.365150	0.046170	0.052484
N56	N	0.698483	0.379504	0.385817
N57	N	1.031816	0.712837	0.719151
C58	C	0.394709	0.094050	-0.000015
C59	C	0.728043	0.427383	0.333319
C60	C	1.061376	0.760717	0.666652
N61	N	0.352477	0.140877	-0.052508
N62	N	0.685810	0.474210	0.280825
N63	N	1.019143	0.807543	0.614158
N64	N	0.283293	0.139853	-0.052510
N65	N	0.616626	0.473187	0.280823
N66	N	0.949960	0.806520	0.614157
C67	C	0.254264	0.091974	-0.000021
C68	C	0.587598	0.425308	0.333312
C69	C	0.920931	0.758641	0.666645
C70	C	0.501557	0.159387	-0.000017
C71	C	0.834890	0.492720	0.333317
C72	C	1.168223	0.826054	0.666650
C73	C	0.574381	0.160461	-0.000027
C74	C	0.907715	0.493794	0.333306
C75	C	1.241048	0.827127	0.666639
C76	C	0.591424	0.033193	-0.000020
C77	C	0.924757	0.366526	0.333313
C78	C	1.258091	0.699860	0.666647
C79	C	0.518600	0.032121	-0.000018
C80	C	0.851933	0.365454	0.333315
C81	C	1.185267	0.698788	0.666648
C82	C	0.473671	0.095220	-0.000012
C83	C	0.807004	0.428553	0.333321
C84	C	1.140337	0.761887	0.666654
C85	C	0.829975	-0.034650	-0.000011
C86	C	1.163308	0.298683	0.333322
C87	C	1.496641	0.632017	0.666655
C88	C	0.828836	-0.112155	-0.000009
C89	C	1.162169	0.221179	0.333324
C90	C	1.495503	0.554512	0.666658
C91	C	0.828314	-0.148562	-0.084076
C92	C	1.161647	0.184771	0.249257
C93	C	1.494981	0.518104	0.582590
C94	C	0.827234	-0.221385	-0.084083
C95	C	1.160568	0.111948	0.249250
C96	C	1.493901	0.445282	0.582583
C97	C	0.826690	-0.257799	-0.000018
C98	C	1.160023	0.075534	0.333315
C99	C	1.493357	0.408867	0.666648
C100	C	0.827208	-0.221382	0.084060
C101	C	1.160541	0.111951	0.417394
C102	C	1.493875	0.445284	0.750727
C103	C	0.828281	-0.148560	0.084065
C104	C	1.161614	0.184773	0.417398
C105	C	1.494948	0.518107	0.750732
N106	N	0.864731	-0.377457	0.062549
N107	N	1.198064	-0.044123	0.395882
N108	N	1.531397	0.289210	0.729216
N109	N	0.863713	-0.446635	0.062539
N110	N	1.197046	-0.113302	0.395872
N111	N	1.530380	0.220032	0.729206
C112	C	0.823456	-0.477208	-0.000027
C113	C	1.156789	-0.143875	0.333306
C114	C	1.490123	0.189458	0.666640
N115	N	0.784264	-0.435991	-0.062597
N116	N	1.117597	-0.102658	0.270736
N117	N	1.450931	0.230676	0.604070
N118	N	0.785285	-0.366807	-0.062589
N119	N	1.118618	-0.033474	0.270744
N120	N	1.451952	0.299860	0.604077
C121	C	0.825526	-0.336763	-0.000014
C122	C	1.158860	-0.003429	0.333319
C123	C	1.492193	0.329904	0.666653
C124	C	0.821762	-0.592578	-0.084108
C125	C	1.155096	-0.259245	0.249225
C126	C	1.488429	0.074088	0.582559
C127	C	0.820678	-0.665402	-0.084111
C128	C	1.154011	-0.332069	0.249222
C129	C	1.487345	0.001265	0.582555
C130	C	0.820659	-0.665399	0.084035
C131	C	1.153992	-0.332065	0.417368
C132	C	1.487326	0.001268	0.750701
C133	C	0.821736	-0.592576	0.084036
C134	C	1.155069	-0.259242	0.417369
C135	C	1.488403	0.074091	0.750702
C136	C	0.822291	-0.556170	-0.000038
C137	C	1.155624	-0.222837	0.333295
C138	C	1.488958	0.110496	0.666629
C139	C	0.952151	0.087528	-0.000027
C140	C	1.285485	0.420861	0.333307
C141	C	1.618818	0.754194	0.666640
C142	C	1.029656	0.088667	-0.000034
C143	C	1.362990	0.422000	0.333300
C144	C	1.696323	0.755333	0.666633
C145	C	0.818994	0.220684	-0.000037
C146	C	1.152327	0.554018	0.333296
C147	C	1.485661	0.887351	0.666630
C148	C	0.820133	0.298189	-0.000045
C149	C	1.153466	0.631522	0.333288
C150	C	1.486800	0.964856	0.666621
N151	N	0.824464	0.093040	0.219452
N152	N	1.157797	0.426373	0.552785
N153	N	1.491131	0.759706	0.886118
N154	N	0.824510	0.092989	-0.219498
N155	N	1.157844	0.426323	0.113835
N156	N	1.491177	0.759656	0.447169
C157	C	0.774736	0.142737	0.469101
C158	C	1.108069	0.476070	0.802434
C159	C	1.441402	0.809404	1.135767
C160	C	0.837784	0.156095	0.530901
C161	C	1.171117	0.489428	0.864234
C162	C	1.504450	0.822761	1.197568
C163	C	0.824481	0.093023	0.408613
C164	C	1.157815	0.426356	0.741946
C165	C	1.491148	0.759689	1.075280
C166	C	0.761449	0.079681	0.530907
C167	C	1.094783	0.413015	0.864240
C168	C	1.428116	0.746348	1.197573
C169	C	0.824492	0.093008	0.591335
C170	C	1.157825	0.426342	0.924668
C171	C	1.491159	0.759675	1.258001
C172	C	0.887561	0.106412	0.469053
C173	C	1.220894	0.439745	0.802386
C174	C	1.554228	0.773078	1.135719
C175	C	0.811185	0.029971	0.469053
C176	C	1.144519	0.363305	0.802386
C177	C	1.477852	0.696638	1.135719
C178	C	0.874279	0.043302	0.530825
C179	C	1.207612	0.376635	0.864159
C180	C	1.540946	0.709969	1.197492
C181	C	0.824474	0.093033	0.303352
C182	C	1.157807	0.426366	0.636685
C183	C	1.491141	0.759700	0.970019
C184	C	0.824506	0.092998	0.696593
C185	C	1.157840	0.426331	1.029927
C186	C	1.491173	0.759664	1.363260
H187	H	0.183999	-0.024728	-0.000031
H188	H	0.517333	0.308606	0.333302
H189	H	0.850666	0.641939	0.666635
H190	H	0.822210	-0.562935	-0.152566
H191	H	1.155543	-0.229602	0.180767
H192	H	1.488877	0.103732	0.514101
H193	H	0.828764	-0.118925	-0.152536
H194	H	1.162097	0.214408	0.180797
H195	H	1.495431	0.547741	0.514131
H196	H	0.597083	0.212714	-0.000031
H197	H	0.930416	0.546047	0.333302
H198	H	1.263749	0.879380	0.666636
H199	H	0.732710	0.184812	0.441999
H200	H	1.066043	0.518145	0.775332
H201	H	1.399377	0.851479	1.108666
F202	F	0.044908	-0.042729	-0.000048
F203	F	0.378242	0.290605	0.333285
F204	F	0.711575	0.623938	0.666619
H205	H	0.940882	0.117754	0.441997
H206	H	1.274215	0.451087	0.775330
H207	H	1.607548	0.784420	1.108664
F208	F	0.929329	-0.011660	0.566032
F209	F	1.262663	0.321673	0.899365
F210	F	1.595996	0.655006	1.232699
F211	F	0.820076	-0.704148	0.173504
F212	F	1.153410	-0.370815	0.506837
F213	F	1.486743	-0.037481	0.840171
H214	H	0.849039	0.209410	0.558067
H215	H	1.182373	0.542743	0.891401
H216	H	1.515706	0.876076	1.224734
F217	F	0.796448	-0.039693	0.433514
F218	F	1.129781	0.293640	0.766847
F219	F	1.463114	0.626973	1.100180
H220	H	0.826805	-0.251033	-0.152543
H221	H	1.160138	0.082300	0.180790
H222	H	1.493472	0.415633	0.514123
H223	H	0.708140	0.068404	0.558079
H224	H	1.041473	0.401737	0.891412
H225	H	1.374807	0.735071	1.224745
F226	F	0.828835	-0.109811	0.173545
F227	F	1.162168	0.223522	0.506878
F228	F	1.495502	0.556856	0.840212
F229	F	0.009728	0.219988	-0.000032
F230	F	0.343061	0.553321	0.333302
F231	F	0.676394	0.886655	0.666635
F232	F	0.639243	-0.033955	-0.000023
F233	F	0.972577	0.299378	0.333310
F234	F	1.305910	0.632711	0.666644
F235	F	0.826624	-0.260137	0.173528
F236	F	1.159958	0.073196	0.506862
F237	F	1.493291	0.406530	0.840195
F238	F	0.453737	0.226541	-0.000013
F239	F	0.787070	0.559874	0.333320
F240	F	1.120404	0.893208	0.666654
F241	F	0.160048	0.222204	-0.000027
F242	F	0.493382	0.555538	0.333306
F243	F	0.826715	0.888871	0.666640
H244	H	0.820250	-0.695043	-0.152572
H245	H	1.153583	-0.361710	0.180761
H246	H	1.486916	-0.028377	0.514095
F247	F	0.822291	-0.553826	0.173513
F248	F	1.155625	-0.220493	0.506846
F249	F	1.488958	0.112840	0.840180
H250	H	0.495897	-0.020129	-0.000017
H251	H	0.829230	0.313204	0.333316
H252	H	1.162564	0.646537	0.666650
