data_functionalizedCrystal
_audit_creation_method	'MofGen! by Chris Wilmer'
_symmetry_space_group_name_H-M	'P1'
_symmetry_Int_Tables_number	1
_symmetry_cell_setting	triclinic
loop_
_symmetry_equiv_pos_as_xyz
  x,y,z
_cell_length_a	17.699097
_cell_length_b	14.519731
_cell_length_c	16.176319
_cell_angle_alpha	89.992219
_cell_angle_beta	89.988988
_cell_angle_gamma	83.488642
loop_
_atom_site_label
_atom_site_type_symbol
_atom_site_fract_x
_atom_site_fract_y
_atom_site_fract_z
O1	O	1.004414	0.116682	-0.068817
O2	O	0.784081	0.131842	-0.068804
O3	O	0.900081	-0.010000	-0.068803
O4	O	0.888414	0.258523	-0.068818
O5	O	0.900065	-0.010009	0.068690
O6	O	0.784065	0.131833	0.068689
O7	O	1.004398	0.116673	0.068676
Cu8	Cu	0.894230	0.124252	0.081237
Cu9	Cu	0.894249	0.124262	-0.081365
O10	O	0.888398	0.258514	0.068676
C11	C	0.755875	0.131292	-0.000056
C12	C	0.671852	0.129656	-0.000050
C13	C	0.899526	-0.044362	-0.000056
C14	C	0.897888	-0.146735	-0.000056
C15	C	0.156114	0.119634	-0.075031
C16	C	0.235062	0.121164	-0.075027
C17	C	0.274522	0.121926	-0.000076
C18	C	0.235029	0.121148	0.074876
C19	C	0.156083	0.119611	0.074871
C20	C	0.553412	0.127347	0.074897
C21	C	0.632363	0.128887	0.074897
C22	C	0.632391	0.128901	-0.075000
C23	C	0.553444	0.127363	-0.075005
C24	C	0.513960	0.126580	-0.000054
C25	C	0.428355	0.124919	-0.000059
C26	C	0.360124	0.123595	-0.000070
C27	C	0.896557	-0.229874	-0.000058
C28	C	0.894894	-0.334175	-0.000064
C29	C	0.893574	-0.417309	-0.000069
C30	C	0.891911	-0.521617	-0.000074
C31	C	1.032604	0.117222	-0.000074
C32	C	1.116627	0.118858	-0.000085
C33	C	0.888953	0.292876	-0.000073
C34	C	0.890591	0.395249	-0.000079
N35	N	0.894222	0.124244	0.195602
N36	N	0.894263	0.124263	-0.195730
C37	C	0.945602	0.061462	0.238867
C38	C	0.945606	0.061461	0.325414
C39	C	0.894233	0.124247	0.368695
C40	C	0.842847	0.187032	0.325424
C41	C	0.842840	0.187028	0.238879
C42	C	0.842873	0.187049	0.674453
C43	C	0.842886	0.187050	0.761004
C44	C	0.945639	0.061482	0.760987
C45	C	0.945632	0.061478	0.674442
C46	C	0.894244	0.124259	0.631179
C47	C	0.894240	0.124258	0.537335
C48	C	0.894240	0.124253	0.462537
H49	H	0.123991	0.119020	-0.136065
H50	H	0.987480	0.010359	0.796221
H51	H	0.521274	0.126696	0.135927
H52	H	0.267164	0.121763	0.135902
H53	H	0.664549	0.129534	-0.136029
H54	H	0.123933	0.118989	0.135900
H55	H	0.521320	0.126747	-0.136038
H56	H	0.987440	0.010338	0.203633
H57	H	0.801048	0.238180	0.796242
H58	H	0.987468	0.010355	0.639205
H59	H	0.664489	0.129507	0.135934
H60	H	0.987443	0.010339	0.360639
H61	H	0.801014	0.238150	0.360669
H62	H	0.801033	0.238169	0.639235
H63	H	0.801000	0.238150	0.203654
H64	H	0.267209	0.121790	-0.136055
