data_functionalizedCrystal
_audit_creation_method	'MofGen! by Chris Wilmer'
_symmetry_space_group_name_H-M	'P1'
_symmetry_Int_Tables_number	1
_symmetry_cell_setting	triclinic
loop_
_symmetry_equiv_pos_as_xyz
  x,y,z
_cell_length_a	23.196402
_cell_length_b	14.395555
_cell_length_c	14.395555
_cell_angle_alpha	90.002623
_cell_angle_beta	60.002321
_cell_angle_gamma	60.000603
loop_
_atom_site_label
_atom_site_type_symbol
_atom_site_fract_x
_atom_site_fract_y
_atom_site_fract_z
Zr1	Zr	0.630978	0.894943	-0.121839
O2	O	0.751245	0.746619	-0.270168
O3	O	0.510711	0.940408	-0.076371
O4	O	0.630973	0.940415	-0.270161
O5	O	0.630988	0.746611	0.076489
O6	O	0.630968	1.093289	-0.270152
O7	O	0.630983	0.746612	-0.076378
O8	O	0.415843	1.093277	0.076502
O9	O	0.846114	0.746623	-0.270166
O10	O	0.560175	1.073891	-0.056970
O11	O	0.560182	0.959802	0.057107
O12	O	0.701774	0.959810	-0.171056
O13	O	0.701781	0.845721	-0.056979
Zr14	Zr	0.630978	1.138757	0.121979
Zr15	Zr	0.630971	1.138759	-0.121826
Zr16	Zr	0.630985	0.894941	0.121966
Zr17	Zr	0.782283	0.894949	-0.121836
Zr18	Zr	0.479674	1.138751	0.121975
O19	O	0.751245	1.093292	0.076511
O20	O	0.751235	1.093294	-0.270149
O21	O	0.751255	0.746616	0.076492
O22	O	0.510711	1.287081	0.270308
O23	O	0.510701	1.287084	-0.076352
O24	O	0.510721	0.940406	0.270289
O25	O	0.630968	1.287089	-0.076349
O26	O	0.630983	1.093285	0.270300
O27	O	0.630988	0.940411	0.270292
O28	O	0.630973	1.287088	0.076518
O29	O	0.846108	0.940424	-0.270155
O30	O	0.415848	1.093276	0.270295
O31	O	0.415843	1.287077	0.270305
O32	O	0.415837	1.287079	0.076512
O33	O	0.846119	0.746621	-0.076373
O34	O	0.846114	0.940423	-0.076362
O35	O	0.560182	1.073890	0.171196
O36	O	0.560175	1.187979	0.057119
O37	O	0.701774	1.073898	-0.056967
O38	O	0.701781	0.959809	0.057110
C39	C	0.441719	1.016842	0.000065
C40	C	0.377486	1.016839	0.000064
C41	C	0.630987	0.711873	0.000054
C42	C	0.630989	0.608366	0.000048
C43	C	-0.033096	0.932652	-0.084150
C44	C	0.027262	0.932642	-0.084149
C45	C	0.005180	1.016860	0.000069
C46	C	-0.077269	1.101076	0.084311
C47	C	-0.137624	1.101077	0.084314
C48	C	0.060756	1.119655	0.026320
C49	C	0.121112	1.119655	0.026309
C50	C	0.191332	1.016858	0.000065
C51	C	0.201198	0.914054	-0.026191
C52	C	0.140843	0.914055	-0.026188
C53	C	0.070619	1.016868	0.000075
C54	C	0.339217	0.932632	-0.084165
C55	C	0.399573	0.932622	-0.084157
C56	C	0.295040	1.101065	0.084299
C57	C	0.234686	1.101066	0.084295
C58	C	0.256780	1.016850	0.000057
C59	C	0.708195	0.485575	-0.062146
C60	C	0.669598	0.454738	-0.107222
C61	C	0.669584	0.454780	0.045115
C62	C	0.592392	0.578893	-0.045090
C63	C	0.592389	0.578931	0.107307
C64	C	0.553735	0.548167	0.062258
C65	C	0.820237	1.016858	0.000075
C66	C	0.884470	1.016861	0.000076
C67	C	0.630970	1.016852	-0.304894
C68	C	0.630967	1.016853	-0.408395
C69	C	0.630970	1.321827	0.000086
C70	C	0.630967	1.425334	0.000092
C71	C	0.553761	1.079061	-0.406780
C72	C	0.592358	0.971786	-0.499806
C73	C	0.592372	1.124101	-0.499797
C74	C	0.669565	0.909515	-0.500059
C75	C	0.669567	1.061908	-0.500036
C76	C	0.708221	0.954569	-0.593080
C77	C	0.630987	1.016848	0.305033
C78	C	0.630989	1.016847	0.408535
C79	C	0.441711	1.321819	0.000081
C80	C	0.377475	1.425323	0.000085
C81	C	0.441728	1.016839	0.305029
C82	C	0.377498	1.016836	0.408529
C83	C	0.441719	1.321817	0.305045
C84	C	0.377486	1.425320	0.408551
C85	C	0.820237	0.711883	-0.304905
C86	C	0.884470	0.608380	-0.408411
C87	C	0.820245	0.711881	0.000058
C88	C	0.884481	0.608377	0.000055
C89	C	0.820228	1.016860	-0.304889
C90	C	0.884458	1.016864	-0.408389
C91	C	0.347309	1.414377	-0.059476
C92	C	0.286961	1.511620	-0.059496
C93	C	0.256776	1.619808	0.000054
C94	C	0.286948	1.630752	0.059618
C95	C	0.347299	1.533510	0.059630
C96	C	0.347335	1.076387	0.516697
C97	C	0.286993	1.076379	0.613956
C98	C	0.256810	1.016827	0.603044
C99	C	0.286979	0.957268	0.494864
C100	C	0.347325	0.957270	0.397608
C101	C	0.347319	1.533489	0.397611
C102	C	0.286974	1.630751	0.494856
C103	C	0.256793	1.619840	0.603040
C104	C	0.286967	1.511659	0.613978
C105	C	0.347315	1.414400	0.516733
C106	C	0.914645	0.500211	-0.397471
C107	C	0.975009	0.402949	-0.494717
C108	C	1.005192	0.413860	-0.602900
C109	C	0.975015	0.522041	-0.613838
C110	C	0.914656	0.619300	-0.516594
C111	C	0.914653	0.619323	0.059606
C112	C	0.975018	0.522080	0.059598
C113	C	1.005205	0.413891	0.000045
C114	C	0.975030	0.402948	-0.059514
C115	C	0.914671	0.500190	-0.059512
C116	C	0.914621	1.076428	-0.397441
C117	C	0.974964	1.076454	-0.494681
C118	C	1.005147	1.016908	-0.602868
C119	C	0.974978	0.957342	-0.613815
C120	C	0.914632	0.957324	-0.516576
H121	H	-0.015099	0.864074	-0.152740
F122	F	0.254893	1.139775	0.729078
F123	F	0.275932	0.804640	-0.054132
H124	H	1.054340	0.334656	-0.682074
F125	F	0.254859	1.499949	-0.122890
F126	F	0.712186	0.790905	-0.498994
F127	F	0.712255	0.384846	0.094912
H128	H	0.702226	0.401223	-0.197912
H129	H	0.890079	0.707407	0.108109
F130	F	0.712181	1.111759	-0.498760
F131	F	0.793622	0.885712	-0.697163
H132	H	0.890088	0.707374	-0.525514
H133	H	0.262362	1.718852	0.108101
F134	F	0.549702	1.242654	-0.500978
F135	F	0.192544	1.723294	0.000033
F136	F	0.468431	1.147712	-0.302529
F137	F	0.379444	1.139779	0.528337
F138	F	0.549786	0.648618	-0.095046
H139	H	0.207673	1.016834	0.682246
H140	H	0.999576	0.531013	0.108103
F141	F	-0.100770	1.190703	0.173946
H142	H	0.999598	0.530911	-0.701933
F143	F	0.468355	0.581614	0.130959
H144	H	0.371870	1.326327	0.525657
F145	F	0.549778	0.648879	0.225820
F146	F	0.549713	0.921963	-0.501029
H147	H	0.773480	0.460135	-0.114823
F148	F	1.007164	0.287796	-0.122888
F149	F	0.379426	1.299244	-0.122866
F150	F	0.379393	1.545177	0.123034
H151	H	0.094392	0.864054	-0.152725
F152	F	1.069445	0.310406	0.000055
F153	F	0.254848	0.893893	0.483268
F154	F	0.379416	0.893890	0.282490
F155	F	1.007065	1.139849	-0.483007
F156	F	0.379432	1.545127	0.282483
H157	H	0.262385	1.502792	0.702074
H158	H	0.262412	1.718828	0.485931
F159	F	0.882510	1.139810	-0.282308
H160	H	0.207654	1.699044	0.682213
H161	H	0.890073	0.491305	-0.309391
F162	F	0.362728	0.843002	-0.173815
F163	F	1.007113	0.287826	-0.483052
F164	F	0.882562	0.488523	-0.122892
H165	H	1.054284	1.016932	-0.682037
H166	H	0.999562	0.908861	-0.701914
F167	F	0.882542	0.893914	-0.528246
F168	F	0.487313	0.842983	-0.173800
F169	F	0.151342	0.804647	-0.054125
H170	H	0.277059	1.169631	0.152877
H171	H	0.113075	1.203364	0.047680
F172	F	0.146948	1.190697	0.173938
H173	H	0.003580	1.203372	0.047697
H174	H	-0.204750	1.169652	0.152904
