data_functionalizedCrystal
_audit_creation_method	'MofGen! by Chris Wilmer'
_symmetry_space_group_name_H-M	'P1'
_symmetry_Int_Tables_number	1
_symmetry_cell_setting	triclinic
loop_
_symmetry_equiv_pos_as_xyz
  x,y,z
_cell_length_a	12.376457
_cell_length_b	11.026607
_cell_length_c	10.967829
_cell_angle_alpha	83.619437
_cell_angle_beta	90.447946
_cell_angle_gamma	76.186286
loop_
_atom_site_label
_atom_site_type_symbol
_atom_site_fract_x
_atom_site_fract_y
_atom_site_fract_z
O1	O	0.188665	-1.660922	0.485934
O2	O	0.177488	-1.304370	0.428548
O3	O	0.149352	-1.482512	0.284141
O4	O	0.216802	-1.482781	0.630341
O5	O	-0.031638	-1.437990	0.320184
O6	O	-0.003502	-1.259848	0.464591
O7	O	0.007676	-1.616400	0.521977
Zn8	Zn	-0.026649	-1.431055	0.499006
Zn9	Zn	0.211813	-1.489715	0.451519
O10	O	0.035812	-1.438259	0.666384
C11	C	0.084931	-1.236300	0.435983
C12	C	0.078784	-1.099801	0.404423
N13	N	-0.189392	-1.391031	0.531416
C14	C	0.050090	-1.456906	0.257152
C15	C	0.023967	-1.446927	0.123032
C16	C	-0.580924	-1.622658	0.343843
C17	C	-0.467004	-1.650665	0.321158
C18	C	-0.397596	-1.585758	0.373720
C19	C	-0.442118	-1.492841	0.448973
C20	C	-0.556048	-1.464839	0.471668
C21	C	-0.372719	-1.427939	0.501545
C22	C	-0.417242	-1.335022	0.576797
C23	C	-0.531160	-1.307023	0.599489
C24	C	-0.600569	-1.371930	0.546926
C25	C	-0.258790	-1.455941	0.478849
C26	C	-0.233914	-1.298122	0.606674
C27	C	-0.347833	-1.270115	0.629360
N28	N	0.374555	-1.529749	0.419101
C29	C	0.100235	-1.684471	0.514542
C30	C	0.106389	-1.820972	0.546100
C31	C	0.095762	-1.030925	0.491563
C32	C	0.089409	-0.889846	0.458947
C33	C	0.106080	-1.465542	0.044571
C34	C	0.079082	-1.455228	-0.094049
C35	C	0.135076	-1.463865	0.693373
C36	C	0.161206	-1.473846	0.827492
H37	H	-0.222550	-1.531595	0.417579
Br38	Br	-0.071414	-1.415922	-0.153119
H39	H	0.059572	-1.054330	0.305668
Br40	Br	0.256570	-1.504860	0.103649
Br41	Br	0.057327	-0.814063	0.294347
H42	H	-0.567408	-1.231375	0.660774
Br43	Br	0.311702	-1.513081	-0.113448
Br44	Br	-0.139723	-1.210037	0.678023
Br45	Br	-0.126523	-1.407622	0.063955
H46	H	0.114995	-1.076401	0.590314
Br47	Br	-0.242988	-1.623766	0.342931
H48	H	-0.430758	-1.726318	0.259889
H49	H	-0.637441	-1.675504	0.301061
Br50	Br	0.138438	-0.896744	0.710707
Br51	Br	-0.755183	-1.333909	0.577706
H52	H	-0.384098	-1.194460	0.690633
