data_functionalizedCrystal
_audit_creation_method	'MofGen! by Chris Wilmer'
_symmetry_space_group_name_H-M	'P1'
_symmetry_Int_Tables_number	1
_symmetry_cell_setting	triclinic
loop_
_symmetry_equiv_pos_as_xyz
  x,y,z
_cell_length_a	6.394989
_cell_length_b	14.971486
_cell_length_c	13.448316
_cell_angle_alpha	90.001801
_cell_angle_beta	90.003556
_cell_angle_gamma	85.055920
loop_
_atom_site_label
_atom_site_type_symbol
_atom_site_fract_x
_atom_site_fract_y
_atom_site_fract_z
O1	O	-0.272213	-1.189891	-0.082571
O2	O	-0.304810	-0.929844	-0.082597
O3	O	0.015543	-1.063559	-0.082584
O4	O	-0.592567	-1.056176	-0.082583
O5	O	0.015563	-1.063541	0.082800
O6	O	-0.304791	-0.929826	0.082787
O7	O	-0.272193	-1.189874	0.082813
Cu8	Cu	-0.288490	-1.059848	0.097901
Cu9	Cu	-0.288513	-1.059869	-0.097685
O10	O	-0.592547	-1.056159	0.082800
C11	C	-0.303343	-0.896494	0.000091
C12	C	-0.298974	-0.797150	0.000081
C13	C	-0.273661	-1.223223	0.000122
C14	C	-0.278029	-1.322567	0.000126
N15	N	-0.288472	-1.059840	0.235465
C16	C	0.093378	-1.062090	0.000104
C17	C	0.329624	-1.057629	0.000102
N18	N	-0.288515	-1.059884	-0.235249
C19	C	-0.487173	-0.741960	0.000083
C20	C	-0.483056	-0.648616	0.000098
C21	C	-0.290737	-0.610464	0.000104
C22	C	-0.102524	-0.665661	0.000105
C23	C	-0.106643	-0.759003	0.000097
C24	C	-0.093951	-0.471106	0.000119
C25	C	-0.089830	-0.377757	0.000125
C26	C	-0.470364	-0.360719	0.000119
C27	C	-0.474483	-0.454061	0.000111
C28	C	-0.286268	-0.509252	0.000111
C29	C	-0.146678	-1.119069	0.287511
C30	C	-0.146676	-1.119074	0.391614
C31	C	-0.288480	-1.059855	0.443670
C32	C	-0.430282	-1.000620	0.391616
C33	C	-0.430272	-1.000611	0.287515
C34	C	-0.430296	-1.000645	0.608596
C35	C	-0.430309	-1.000655	0.712705
C36	C	-0.146700	-1.119109	0.712696
C37	C	-0.146690	-1.119099	0.608594
C38	C	-0.288495	-1.059865	0.556548
H39	H	-0.636307	-0.603684	0.000098
H40	H	0.046608	-0.803939	0.000096
O41	O	-0.008435	-1.176403	0.558031
C42	C	0.277563	-1.191871	0.440919
C43	C	0.120791	-1.126943	0.498027
H44	H	0.382112	-1.151908	0.392408
H45	H	0.187955	-1.237692	0.391988
H46	H	0.378784	-1.234090	0.496150
H47	H	0.019529	-1.084666	0.442868
H48	H	0.210528	-1.081183	0.546973
H49	H	-0.631086	-0.485121	0.000097
H50	H	-0.031213	-1.167296	0.245135
O51	O	-0.653065	-0.307021	-0.000011
C52	C	-0.869326	-0.191784	-0.085723
C53	C	-0.662328	-0.252531	-0.085679
H54	H	-0.876902	-0.147727	-0.154988
H55	H	-0.876955	-0.147599	-0.016553
H56	H	-1.007447	-0.235108	-0.085688
H57	H	-0.524090	-0.209277	-0.085748
H58	H	-0.654882	-0.296721	-0.154842
H59	H	-0.031215	-1.167302	0.433990
H60	H	-0.031239	-1.167339	0.755078
H61	H	-0.545779	-0.952432	0.755083
O62	O	-0.568249	-0.943076	0.558192
C63	C	-0.849488	-0.825561	0.569181
C64	C	-0.693399	-0.890717	0.626388
H65	H	-0.950682	-0.783198	0.624292
H66	H	-0.954125	-0.865307	0.520460
H67	H	-0.759094	-0.779897	0.520426
H68	H	-0.783622	-0.936395	0.675197
H69	H	-0.588764	-0.850915	0.675045
O70	O	-0.568218	-0.943047	0.237108
C71	C	-0.849436	-0.825523	0.248097
C72	C	-0.693363	-0.890686	0.305305
H73	H	-0.950626	-0.783158	0.303209
H74	H	-0.954078	-0.865263	0.199374
H75	H	-0.759029	-0.779862	0.199346
H76	H	-0.783599	-0.936362	0.354110
H77	H	-0.588722	-0.850890	0.353965
O78	O	0.096860	-0.340594	0.000274
C79	C	0.322386	-0.245144	0.086011
C80	C	0.110864	-0.287153	0.085951
H81	H	0.333795	-0.201943	0.155284
H82	H	0.333877	-0.201809	0.016849
H83	H	0.456156	-0.300641	0.085971
H84	H	-0.023029	-0.231715	0.086027
H85	H	0.099555	-0.330510	0.155107
H86	H	0.059314	-0.516040	0.000120
H87	H	-0.643782	-0.773016	0.000077
H88	H	-0.545735	-0.952398	0.434006
H89	H	0.054066	-0.634590	0.000124
