data_functionalizedCrystal
_audit_creation_method	'MofGen! by Chris Wilmer'
_symmetry_space_group_name_H-M	'P1'
_symmetry_Int_Tables_number	1
_symmetry_cell_setting	triclinic
loop_
_symmetry_equiv_pos_as_xyz
  x,y,z
_cell_length_a	14.908571
_cell_length_b	29.839131
_cell_length_c	14.908308
_cell_angle_alpha	86.738717
_cell_angle_beta	89.824947
_cell_angle_gamma	86.737317
loop_
_atom_site_label
_atom_site_type_symbol
_atom_site_fract_x
_atom_site_fract_y
_atom_site_fract_z
Zn1	Zn	1.345126	-0.234441	0.587534
Zn2	Zn	1.845126	0.265559	1.087534
Zn3	Zn	1.353655	-0.305498	0.437159
Zn4	Zn	1.853655	0.194502	0.937159
Zn5	Zn	1.203447	-0.225812	0.428533
Zn6	Zn	1.703447	0.274188	0.928533
Zn7	Zn	1.194683	-0.304964	0.578811
Zn8	Zn	1.694683	0.195036	1.078811
O9	O	1.274228	-0.267679	0.508009
O10	O	1.774228	0.232321	1.008009
O11	O	1.472080	-0.247701	0.574847
O12	O	1.972080	0.252299	1.074847
O13	O	1.340967	-0.291540	0.310191
O14	O	1.840967	0.208460	0.810191
O15	O	1.222340	-0.164094	0.449665
O16	O	1.722340	0.335906	0.949665
O17	O	1.478346	-0.299907	0.464367
O18	O	1.978346	0.200093	0.964367
O19	O	1.326430	-0.170433	0.566482
O20	O	1.826430	0.329567	1.066482
O21	O	1.230610	-0.232995	0.303854
O22	O	1.730610	0.267005	0.803854
O23	O	1.076461	-0.232477	0.441208
O24	O	1.576461	0.267523	0.941208
O25	O	1.207402	-0.298997	0.705792
O26	O	1.707402	0.201003	1.205792
O27	O	1.070022	-0.290630	0.551616
O28	O	1.570022	0.209370	1.051616
O29	O	1.317932	-0.247184	0.712201
O30	O	1.817932	0.252816	1.212201
O31	O	1.332468	-0.368290	0.455909
O32	O	1.832468	0.131710	0.955909
O33	O	1.215672	-0.367898	0.559980
O34	O	1.715672	0.132102	1.059980
C35	C	1.040617	-0.260560	0.494530
C36	C	1.540617	0.239440	0.994530
C37	C	0.940676	-0.257526	0.488784
C38	C	1.440676	0.242474	0.988784
C39	C	0.746229	-0.312463	0.592802
C40	C	1.246229	0.187537	1.092802
C41	C	0.652326	-0.309614	0.587407
C42	C	1.152326	0.190386	1.087407
C43	C	0.658964	-0.248976	0.472604
C44	C	1.158964	0.251024	0.972604
C45	C	0.752867	-0.251825	0.477999
C46	C	1.252867	0.248175	0.977999
C47	C	0.796497	-0.283570	0.538099
C48	C	1.296497	0.216430	1.038099
C49	C	0.890402	-0.286422	0.543489
C50	C	1.390402	0.213578	1.043489
C51	C	0.897038	-0.225781	0.428692
C52	C	1.397038	0.274219	0.928692
C53	C	0.803135	-0.222932	0.423297
C54	C	1.303135	0.277068	0.923297
C55	C	1.274068	-0.384395	0.507955
C56	C	1.774068	0.115605	1.007955
C57	C	1.274080	-0.434330	0.507967
C58	C	1.774080	0.065670	1.007967
C59	C	1.335143	-0.744176	0.453910
C60	C	1.835143	-0.244176	0.953910
C61	C	1.335252	-0.931853	0.453951
C62	C	1.835252	-0.431853	0.953951
O63	O	1.387043	-0.956286	0.407948
O64	O	1.887043	-0.456286	0.907948
N65	N	1.274410	-0.955128	0.508088
N66	N	1.774410	-0.455128	1.008088
C67	C	1.213541	-0.931481	0.562223
C68	C	1.713541	-0.431481	1.062223
O69	O	1.161800	-0.955585	0.608278
O70	O	1.661800	-0.455585	1.108278
C71	C	1.213437	-0.743805	0.562186
C72	C	1.713437	-0.243805	1.062186
C73	C	1.274276	-0.720532	0.508038
C74	C	1.774276	-0.220532	1.008038
C75	C	1.395978	-0.720903	0.399768
C76	C	1.895978	-0.220903	0.899768
C77	C	1.395947	-0.673987	0.399754
C78	C	1.895947	-0.173987	0.899754
C79	C	1.335081	-0.650343	0.453883
C80	C	1.835081	-0.150343	0.953883
C81	C	1.274245	-0.673615	0.508025
C82	C	1.774245	-0.173615	1.008025
C83	C	1.152572	-0.720159	0.616325
C84	C	1.652572	-0.220159	1.116325
C85	C	1.152553	-0.673237	0.616312
C86	C	1.652553	-0.173237	1.116312
C87	C	1.213393	-0.649964	0.562165
C88	C	1.713393	-0.149964	1.062165
C89	C	1.213348	-0.603055	0.562140
C90	C	1.713348	-0.103055	1.062140
N91	N	1.274189	-0.579780	0.508003
N92	N	1.774189	-0.079780	1.008003
C93	C	1.335056	-0.603424	0.453875
C94	C	1.835056	-0.103424	0.953875
C95	C	1.213598	-1.030014	0.562237
C96	C	1.713598	-0.530014	1.062237
C97	C	1.213623	-1.076933	0.562245
C98	C	1.713623	-0.576933	1.062245
C99	C	1.335336	-1.077302	0.453975
C100	C	1.835336	-0.577302	0.953975
C101	C	1.335306	-1.030382	0.453962
C102	C	1.835306	-0.530382	0.953962
C103	C	1.274440	-1.006739	0.508100
C104	C	1.774440	-0.506739	1.008100
C105	C	1.334986	-0.504895	0.453850
C106	C	1.834986	-0.004895	0.953850
C107	C	1.334947	-0.457974	0.453839
C108	C	1.834947	0.042026	0.953839
C109	C	1.213238	-0.457609	0.562112
C110	C	1.713238	0.042391	1.062112
C111	C	1.213273	-0.504526	0.562121
C112	C	1.713273	-0.004526	1.062121
C113	C	1.274154	-0.528168	0.507987
C114	C	1.774154	-0.028168	1.007987
O115	O	1.161590	-0.578594	0.608127
O116	O	1.661590	-0.078594	1.108127
O117	O	1.386803	-0.579313	0.407842
O118	O	1.886803	-0.079313	0.907842
C119	C	1.335174	-0.791093	0.453923
C120	C	1.835174	-0.291093	0.953923
C121	C	1.274339	-0.814366	0.508065
C122	C	1.774339	-0.314366	1.008065
C123	C	1.213472	-0.790722	0.562194
C124	C	1.713472	-0.290722	1.062194
C125	C	1.274363	-0.861284	0.508074
C126	C	1.774363	-0.361284	1.008074
C127	C	1.335230	-0.884928	0.453945
C128	C	1.835230	-0.384928	0.953945
C129	C	1.396072	-0.861654	0.399808
C130	C	1.896072	-0.361654	0.899808
C131	C	1.396041	-0.814737	0.399794
C132	C	1.896041	-0.314737	0.899794
C133	C	1.152630	-0.813996	0.616331
C134	C	1.652630	-0.313996	1.116331
C135	C	1.152666	-0.860913	0.616339
C136	C	1.652666	-0.360913	1.116339
C137	C	1.213532	-0.884557	0.562211
C138	C	1.713532	-0.384557	1.062211
C139	C	1.508750	-0.274826	0.521542
C140	C	2.008750	0.225174	1.021542
C141	C	1.608690	-0.277872	0.527309
C142	C	2.108690	0.222128	1.027309
C143	C	1.260738	-0.273993	0.742533
C144	C	1.760738	0.226007	1.242533
C145	C	1.254989	-0.276684	0.842474
C146	C	1.754989	0.223316	1.342474
C147	C	1.274411	-0.150508	0.508085
C148	C	1.774411	0.349492	1.008085
C149	C	1.274490	-0.100577	0.508117
C150	C	1.774490	0.399423	1.008117
C151	C	1.287717	-0.261358	0.274401
C152	C	1.787717	0.238642	0.774401
C153	C	1.293639	-0.258546	0.174471
C154	C	1.793639	0.241454	0.674471
C155	C	1.359279	-0.227777	1.036946
C156	C	1.859279	0.272223	1.536946
C157	C	1.353881	-0.230304	1.130849
C158	C	1.853881	0.269696	1.630849
C159	C	1.238790	-0.284262	1.124184
C160	C	1.738790	0.215738	1.624184
C161	C	1.244189	-0.281735	1.030281
C162	C	1.744189	0.218265	1.530281
C163	C	1.304436	-0.253492	0.986666
C164	C	1.804436	0.246508	1.486666
C165	C	1.309839	-0.250968	0.892761
C166	C	1.809839	0.249032	1.392761
C167	C	1.194744	-0.304924	0.886097
C168	C	1.694744	0.195076	1.386097
C169	C	1.189345	-0.307450	0.980000
C170	C	1.689345	0.192550	1.480000
H171	H	0.937977	-0.202255	0.384147
H172	H	1.437977	0.297745	0.884147
N173	N	1.461583	-0.648890	0.341368
N174	N	1.961583	-0.148890	0.841368
H175	H	1.427480	-0.627215	0.297550
H176	H	1.927480	-0.127215	0.797550
H177	H	1.500127	-0.671025	0.307149
H178	H	2.000127	-0.171025	0.807149
H179	H	1.163678	-0.438351	0.606181
H180	H	1.663678	0.061649	1.106181
H181	H	0.767599	-0.197085	0.374367
H182	H	1.267599	0.302915	0.874367
H183	H	1.103026	-0.739099	0.660413
H184	H	1.603026	-0.239099	1.160413
N185	N	1.086906	-0.647737	0.674708
N186	N	1.586906	-0.147737	1.174708
H187	H	1.048373	-0.669602	0.709007
H188	H	1.548373	-0.169602	1.209007
H189	H	1.047416	-0.626047	0.635673
H190	H	1.547416	-0.126047	1.135673
N191	N	1.147988	-1.102027	0.620636
N192	N	1.647988	-0.602027	1.120636
H193	H	1.158201	-1.095995	0.685691
H194	H	1.658201	-0.595995	1.185691
H195	H	1.157261	-1.135329	0.612360
H196	H	1.657261	-0.635329	1.112360
H197	H	1.384490	-0.439027	0.409742
H198	H	1.884490	0.060973	0.909742
N199	N	0.598104	-0.340778	0.646401
N200	N	1.098104	0.159222	1.146401
H201	H	0.610772	-0.336078	0.711610
H202	H	1.110772	0.163922	1.211610
H203	H	0.615243	-0.372968	0.633181
H204	H	1.115243	0.127032	1.133181
H205	H	0.781753	-0.338314	0.641733
H206	H	1.281753	0.161686	1.141733
N207	N	1.424276	-0.197325	0.989907
N208	N	1.924276	0.302675	1.489907
H209	H	1.468152	-0.215810	0.953350
H210	H	1.968152	0.284190	1.453350
H211	H	1.458141	-0.181430	1.036071
H212	H	1.958141	0.318570	1.536071
N213	N	1.400649	-0.530391	0.395465
N214	N	1.900649	-0.030391	0.895465
H215	H	1.439177	-0.508522	0.361168
H216	H	1.939177	-0.008522	0.861168
H217	H	1.366492	-0.547650	0.351717
H218	H	1.866492	-0.047650	0.851717
N219	N	1.461634	-0.746401	0.341382
N220	N	1.961634	-0.246401	0.841382
H221	H	1.500163	-0.724531	0.307088
H222	H	2.000163	-0.224531	0.807088
H223	H	1.427474	-0.763657	0.297631
H224	H	1.927474	-0.263657	0.797631
H225	H	1.384847	-1.011436	0.409871
H226	H	1.884847	-0.511436	0.909871
H227	H	0.623424	-0.223127	0.423680
H228	H	1.123424	0.276873	0.923680
H229	H	1.384896	-1.096561	0.409901
H230	H	1.884896	-0.596561	0.909901
N231	N	1.147942	-1.004516	0.620628
N232	N	1.647942	-0.504516	1.120628
H233	H	1.109406	-1.026384	0.654916
H234	H	1.609406	-0.526384	1.154916
H235	H	1.108457	-0.982826	0.581589
H236	H	1.608457	-0.482826	1.081589
H237	H	1.163735	-0.523476	0.606215
H238	H	1.663735	-0.023476	1.106215
N239	N	1.413032	-0.202564	1.185073
N240	N	1.913032	0.297436	1.685073
H241	H	1.478205	-0.211055	1.172433
H242	H	1.978205	0.288945	1.672433
H243	H	1.400398	-0.208458	1.251160
H244	H	1.900398	0.291542	1.751160
H245	H	1.189739	-0.307256	1.159711
H246	H	1.689739	0.192744	1.659711
H247	H	1.358896	-0.227972	0.857251
H248	H	1.858896	0.272028	1.357251
H249	H	1.150089	-0.325864	0.845148
H250	H	1.650089	0.174136	1.345148
N251	N	1.461666	-0.789639	0.341398
N252	N	1.961666	-0.289639	0.841398
H253	H	1.500226	-0.811743	0.307118
H254	H	2.000226	-0.311743	0.807118
H255	H	1.501130	-0.772398	0.380429
H256	H	2.001130	-0.272398	0.880429
H257	H	1.445629	-0.880912	0.355732
H258	H	1.945629	-0.380912	0.855732
N259	N	1.087032	-0.886008	0.674741
N260	N	1.587032	-0.386008	1.174741
H261	H	1.097249	-0.879972	0.739794
H262	H	1.597249	-0.379972	1.239794
H263	H	1.096310	-0.919310	0.666471
H264	H	1.596310	-0.419310	1.166471
N265	N	0.937464	-0.320661	0.608303
N266	N	1.437464	0.179339	1.108303
H267	H	0.891366	-0.338531	0.642140
H268	H	1.391366	0.161469	1.142140
H269	H	0.974060	-0.304711	0.652218
H270	H	1.474060	0.195289	1.152218
H271	H	1.103066	-0.794749	0.660410
H272	H	1.603066	-0.294749	1.160410
N273	N	1.124349	-0.337901	1.027043
N274	N	1.624349	0.162099	1.527043
H275	H	1.129244	-0.335597	1.094160
H276	H	1.629244	0.164403	1.594160
H277	H	1.139228	-0.369972	1.011427
H278	H	1.639228	0.130028	1.511427
