data_functionalizedCrystal
_audit_creation_method	'MofGen! by Chris Wilmer'
_symmetry_space_group_name_H-M	'P1'
_symmetry_Int_Tables_number	1
_symmetry_cell_setting	triclinic
loop_
_symmetry_equiv_pos_as_xyz
  x,y,z
_cell_length_a	15.995292
_cell_length_b	15.995350
_cell_length_c	10.868271
_cell_angle_alpha	89.999184
_cell_angle_beta	90.005516
_cell_angle_gamma	83.480495
loop_
_atom_site_label
_atom_site_type_symbol
_atom_site_fract_x
_atom_site_fract_y
_atom_site_fract_z
O1	O	1.111016	0.107691	0.102349
O2	O	0.867234	0.121069	0.102344
O3	O	0.995789	-0.007509	0.102346
O4	O	0.982461	0.236269	0.102348
O5	O	0.995777	-0.007505	-0.102299
O6	O	0.867223	0.121073	-0.102301
O7	O	1.111005	0.107695	-0.102295
Zn8	Zn	0.989112	0.114385	-0.134790
Zn9	Zn	0.989127	0.114379	0.134838
O10	O	0.982450	0.236273	-0.102297
C11	C	0.836033	0.120527	0.000021
C12	C	0.743080	0.118894	0.000019
C13	C	0.995232	-0.038702	0.000026
C14	C	0.993580	-0.131652	0.000032
C15	C	0.405341	0.112893	0.000033
C16	C	0.428654	0.205697	0.000490
C17	C	0.525329	0.207461	0.000024
C18	C	0.572897	0.115871	0.000027
C19	C	0.543789	0.069476	-0.116832
C20	C	0.446998	0.068358	-0.116924
C21	C	0.447156	0.066458	0.115795
C22	C	0.543649	0.069898	0.117334
C23	C	0.667593	0.117549	0.000019
C24	C	0.310646	0.111212	0.000032
C25	C	0.987648	-0.469398	0.000028
C26	C	0.896094	-0.421945	0.000485
C27	C	0.897746	-0.325255	0.000024
C28	C	0.990591	-0.301838	0.000031
C29	C	1.035742	-0.342923	-0.116828
C30	C	1.033442	-0.439558	-0.116926
C31	C	1.035347	-0.439921	0.115794
C32	C	1.035325	-0.342976	0.117338
C33	C	0.992259	-0.207141	0.000029
C34	C	0.985983	-0.564095	0.000022
C35	C	1.142206	0.108237	0.000030
C36	C	1.235159	0.109870	0.000040
C37	C	0.983006	0.267466	0.000026
C38	C	0.984658	0.360416	0.000027
N39	N	0.989107	0.114388	-0.318804
C40	C	0.989114	0.114388	-0.430142
C41	C	0.989125	0.114380	-0.569819
N42	N	0.989138	0.114369	0.318852
H43	H	0.544361	0.243792	0.083796
Br44	Br	0.556003	0.268389	-0.139839
Br45	Br	0.985456	-0.474135	0.263422
H46	H	0.563843	0.101698	-0.203799
Br47	Br	0.402288	0.121921	-0.262520
H48	H	0.562223	0.103678	0.203785
Br49	Br	0.422740	-0.045047	-0.125846
H50	H	0.433163	-0.001852	0.116587
H51	H	0.575657	0.002077	-0.121175
Br52	Br	1.148174	-0.317391	0.129120
Br53	Br	0.835188	-0.454986	-0.137989
H54	H	0.862254	-0.296827	0.083793
H55	H	0.400662	0.241467	0.084295
H56	H	0.859505	-0.440471	0.084287
Br57	Br	1.147855	-0.492880	0.117114
Br58	Br	0.838170	-0.278788	-0.139833
Br59	Br	0.978547	-0.470052	-0.262526
H60	H	1.103952	-0.328811	-0.121169
H61	H	0.576619	0.003046	0.124394
Br62	Br	1.145471	-0.493335	-0.125770
Br63	Br	0.380277	0.264997	-0.138397
H64	H	1.004373	-0.314533	-0.203795
H65	H	1.002314	-0.315722	0.203787
H66	H	0.418834	0.095464	0.204367
