data_functionalizedCrystal
_audit_creation_method	'MofGen! by Chris Wilmer'
_symmetry_space_group_name_H-M	'P1'
_symmetry_Int_Tables_number	1
_symmetry_cell_setting	triclinic
loop_
_symmetry_equiv_pos_as_xyz
  x,y,z
_cell_length_a	10.654551
_cell_length_b	10.868271
_cell_length_c	10.654550
_cell_angle_alpha	89.996036
_cell_angle_beta	95.514913
_cell_angle_gamma	90.003732
loop_
_atom_site_label
_atom_site_type_symbol
_atom_site_fract_x
_atom_site_fract_y
_atom_site_fract_z
O1	O	1.667840	0.102303	-0.176405
O2	O	1.302362	0.102309	-0.193210
O3	O	1.493504	0.102301	-0.002068
O4	O	1.476698	0.102311	-0.367546
O5	O	1.493488	-0.102343	-0.002060
O6	O	1.302346	-0.102336	-0.193202
O7	O	1.667824	-0.102342	-0.176397
Zn8	Zn	1.485083	-0.134830	-0.184798
Zn9	Zn	1.485103	0.134798	-0.184808
O10	O	1.476682	-0.102334	-0.367539
C11	C	1.255556	-0.000013	-0.191972
C12	C	1.116113	-0.000011	-0.188279
N13	N	1.485077	-0.318845	-0.184791
C14	C	0.919572	-0.111564	-0.183057
C15	C	1.050593	-0.111564	-0.186538
C16	C	1.050604	0.111551	-0.186553
C17	C	0.919585	0.111550	-0.183082
C18	C	0.854060	-0.223125	-0.181303
C19	C	0.919560	-0.334687	-0.183032
C20	C	1.050580	-0.334687	-0.186512
C21	C	1.116101	-0.223126	-0.188264
C22	C	1.485097	-0.569851	-0.184806
C23	C	1.485082	-0.430173	-0.184801
C24	C	1.714630	-0.000017	-0.177635
C25	C	1.854073	-0.000011	-0.181327
C26	C	1.492262	-0.000020	0.044734
C27	C	1.488570	-0.000015	0.184177
N28	N	1.485118	0.318812	-0.184806
C29	C	1.477924	-0.000010	-0.414341
C30	C	1.481616	-0.000007	-0.553784
C31	C	1.601112	-0.000021	0.263662
C32	C	1.597635	-0.000012	0.394683
C33	C	1.369066	0.000002	0.366720
C34	C	1.372544	0.000003	0.235702
C35	C	1.717138	-0.000038	0.212137
C36	C	1.829689	-0.000045	0.291624
C37	C	1.826212	-0.000037	0.422645
C38	C	1.710185	-0.000021	0.474179
H39	H	0.866203	-0.425515	-0.181616
H40	H	1.707364	-0.000001	0.580866
H41	H	1.917857	-0.000030	0.487360
C42	C	1.955530	-0.000118	0.235436
C43	C	1.934492	-0.000157	0.103683
C44	C	2.050389	-0.000239	0.051884
H45	H	2.002022	0.071226	0.262504
H46	H	2.001922	-0.071512	0.262591
H47	H	1.888120	0.071229	0.076539
H48	H	1.888019	-0.071496	0.076580
H49	H	2.096781	-0.071632	0.079038
H50	H	2.096872	0.071106	0.078961
H51	H	2.036130	-0.000277	-0.037515
C52	C	1.121731	-0.455767	-0.188653
C53	C	1.183729	-0.462306	-0.298522
C54	C	1.249270	-0.573837	-0.300537
H55	H	1.181876	-0.460519	-0.116988
H56	H	1.063978	-0.522240	-0.187180
H57	H	1.241476	-0.395851	-0.299983
H58	H	1.123613	-0.457575	-0.370205
H59	H	1.191517	-0.640310	-0.299063
H60	H	1.309409	-0.578580	-0.228867
H61	H	1.291334	-0.578294	-0.375086
H62	H	1.274602	0.000013	0.408691
C63	C	0.848594	0.232752	-0.181406
C64	C	0.867301	0.300065	-0.290101
C65	C	0.801934	0.411730	-0.288602
H66	H	0.761155	0.216941	-0.179158
H67	H	0.879022	0.278661	-0.108909
H68	H	0.836867	0.254165	-0.362579
H69	H	0.954726	0.315909	-0.292371
H70	H	0.832362	0.457640	-0.216105
H71	H	0.714499	0.395907	-0.286351
H72	H	0.814627	0.457421	-0.362343
H73	H	0.747377	-0.223137	-0.178467
H74	H	1.280902	0.000005	0.170983
H75	H	1.103962	0.202378	-0.187978
H76	H	1.222785	-0.223135	-0.191113
H77	H	1.719982	-0.000049	0.105455
