data_functionalizedCrystal
_audit_creation_method	'MofGen! by Chris Wilmer'
_symmetry_space_group_name_H-M	'P1'
_symmetry_Int_Tables_number	1
_symmetry_cell_setting	triclinic
loop_
_symmetry_equiv_pos_as_xyz
  x,y,z
_cell_length_a	14.519731
_cell_length_b	9.065218
_cell_length_c	12.996460
_cell_angle_alpha	89.987569
_cell_angle_beta	89.993340
_cell_angle_gamma	95.647598
loop_
_atom_site_label
_atom_site_type_symbol
_atom_site_fract_x
_atom_site_fract_y
_atom_site_fract_z
O1	O	1.225257	-0.193547	0.085587
O2	O	1.475257	0.056453	0.335587
O3	O	1.725257	0.306453	0.585587
O4	O	1.975257	0.556453	0.835587
O5	O	0.956950	-0.216289	0.085590
O6	O	1.206950	0.033711	0.335590
O7	O	1.456950	0.283711	0.585590
O8	O	1.706950	0.533711	0.835590
O9	O	1.096649	0.009828	0.085562
O10	O	1.346649	0.259828	0.335562
O11	O	1.596649	0.509828	0.585562
O12	O	1.846649	0.759828	0.835562
O13	O	1.085558	-0.419664	0.085615
O14	O	1.335558	-0.169664	0.335615
O15	O	1.585558	0.080336	0.585615
O16	O	1.835558	0.330336	0.835615
O17	O	1.096667	0.009841	-0.085572
O18	O	1.346667	0.259841	0.164428
O19	O	1.596667	0.509841	0.414428
O20	O	1.846667	0.759841	0.664428
O21	O	0.956968	-0.216276	-0.085543
O22	O	1.206968	0.033724	0.164457
O23	O	1.456968	0.283724	0.414457
O24	O	1.706968	0.533724	0.664457
O25	O	1.225276	-0.193534	-0.085547
O26	O	1.475276	0.056466	0.164453
O27	O	1.725276	0.306466	0.414453
O28	O	1.975276	0.556466	0.664453
Cu29	Cu	1.091123	-0.204904	-0.101171
Cu30	Cu	1.341123	0.045096	0.148829
Cu31	Cu	1.591123	0.295096	0.398829
Cu32	Cu	1.841123	0.545096	0.648829
Cu33	Cu	1.091102	-0.204919	0.101214
Cu34	Cu	1.341102	0.045081	0.351214
Cu35	Cu	1.591102	0.295081	0.601214
Cu36	Cu	1.841102	0.545081	0.851214
O37	O	1.085576	-0.419651	-0.085519
O38	O	1.335576	-0.169651	0.164481
O39	O	1.585576	0.080349	0.414481
O40	O	1.835576	0.330349	0.664481
C41	C	0.922591	-0.215217	0.000023
C42	C	1.172591	0.034783	0.250023
C43	C	1.422591	0.284783	0.500023
C44	C	1.672591	0.534783	0.750023
C45	C	0.820188	-0.212024	0.000024
C46	C	1.070188	0.037976	0.250024
C47	C	1.320188	0.287976	0.500024
C48	C	1.570188	0.537976	0.750024
C49	C	0.737025	-0.209429	0.000027
C50	C	0.987025	0.040571	0.250027
C51	C	1.237025	0.290571	0.500027
C52	C	1.487025	0.540571	0.750027
C53	C	0.632692	-0.206187	0.000027
C54	C	0.882692	0.043813	0.250027
C55	C	1.132692	0.293813	0.500027
C56	C	1.382692	0.543813	0.750027
C57	C	0.549534	-0.203614	0.000027
C58	C	0.799534	0.046386	0.250027
C59	C	1.049534	0.296386	0.500027
C60	C	1.299534	0.546386	0.750027
C61	C	0.445195	-0.200372	0.000029
C62	C	0.695195	0.049628	0.250029
C63	C	0.945195	0.299628	0.500029
C64	C	1.195195	0.549628	0.750029
C65	C	1.095592	0.064801	-0.000009
C66	C	1.345592	0.314801	0.249991
C67	C	1.595592	0.564801	0.499991
C68	C	1.845592	0.814801	0.749991
C69	C	1.092405	0.228584	-0.000023
C70	C	1.342405	0.478584	0.249977
C71	C	1.592405	0.728584	0.499977
C72	C	1.842405	0.978584	0.749977
C73	C	1.259634	-0.194606	0.000022
C74	C	1.509634	0.055394	0.250022
C75	C	1.759634	0.305394	0.500022
C76	C	2.009634	0.555394	0.750022
C77	C	1.362037	-0.197799	0.000029
C78	C	1.612037	0.052201	0.250029
C79	C	1.862037	0.302201	0.500029
C80	C	2.112037	0.552201	0.750029
N81	N	1.091145	-0.204892	-0.243518
N82	N	1.341145	0.045108	0.006482
N83	N	1.591145	0.295108	0.256482
N84	N	1.841145	0.545108	0.506482
C85	C	1.086633	0.525376	0.000026
C86	C	1.336633	0.775376	0.250026
C87	C	1.586633	1.025376	0.500026
C88	C	1.836633	1.275376	0.750026
C89	C	1.089820	0.361592	-0.000038
C90	C	1.339820	0.611592	0.249962
C91	C	1.589820	0.861592	0.499962
C92	C	1.839820	1.111592	0.749962
N93	N	1.091087	-0.204919	0.243561
N94	N	1.341087	0.045081	0.493561
N95	N	1.591087	0.295081	0.743561
N96	N	1.841087	0.545081	0.993561
C97	C	1.091090	-0.204921	0.336667
C98	C	1.341090	0.045079	0.586667
C99	C	1.591090	0.295079	0.836667
C100	C	1.841090	0.545079	1.086667
C101	C	1.091103	-0.204918	0.453473
C102	C	1.341103	0.045082	0.703473
C103	C	1.591103	0.295082	0.953473
C104	C	1.841103	0.545082	1.203473
C105	C	1.091118	-0.204908	0.546571
C106	C	1.341118	0.045092	0.796571
C107	C	1.591118	0.295092	1.046571
C108	C	1.841118	0.545092	1.296571
C109	C	1.091130	-0.204902	0.663383
C110	C	1.341130	0.045098	0.913383
C111	C	1.591130	0.295098	1.163383
C112	C	1.841130	0.545098	1.413383
