data_functionalizedCrystal
_audit_creation_method	'MofGen! by Chris Wilmer'
_symmetry_space_group_name_H-M	'P1'
_symmetry_Int_Tables_number	1
_symmetry_cell_setting	triclinic
loop_
_symmetry_equiv_pos_as_xyz
  x,y,z
_cell_length_a	6.817900
_cell_length_b	17.982783
_cell_length_c	16.255661
_cell_angle_alpha	95.649221
_cell_angle_beta	103.488922
_cell_angle_gamma	102.448572
loop_
_atom_site_label
_atom_site_type_symbol
_atom_site_fract_x
_atom_site_fract_y
_atom_site_fract_z
V1	V	-4.021529	-0.106028	-0.264224
O2	O	-4.014408	0.004462	-0.258833
O3	O	-3.968017	-0.209627	-0.262765
O4	O	-3.973157	-0.104675	-0.379303
O5	O	-4.009233	-0.101217	-0.141488
V6	V	-4.505816	-0.092779	-0.249502
O7	O	-4.281112	-0.135090	-0.296519
O8	O	-4.696430	-0.063717	-0.217207
O9	O	-4.336122	0.010819	-0.250961
O10	O	-4.630334	-0.203269	-0.254893
O11	O	-4.635509	-0.097591	-0.372238
O12	O	-4.330981	-0.094133	-0.134423
C13	C	-3.811773	-0.234874	-0.258686
C14	C	-3.849308	-0.319569	-0.258260
C15	C	-3.827256	-0.348297	-0.180521
C16	C	-3.862543	-0.427878	-0.180124
C17	C	-3.919868	-0.478729	-0.257466
C18	C	-3.941927	-0.449995	-0.335211
C19	C	-3.906654	-0.370416	-0.335608
C20	C	-4.084182	-0.770930	-0.333612
C21	C	-4.119448	-0.850514	-0.333209
C22	C	-4.040071	-0.828392	-0.178128
C23	C	-4.004798	-0.748812	-0.178525
C24	C	-4.026870	-0.720086	-0.256270
C25	C	-3.988611	-0.633796	-0.256700
C26	C	-3.958113	-0.565018	-0.257036
C27	C	-3.818329	-0.100996	-0.407341
C28	C	-3.860030	-0.100575	-0.501421
C29	C	-3.770832	-0.095549	-0.724223
C30	C	-3.924077	-0.160419	-0.793915
C31	C	-3.936453	-0.099786	-0.673667
C32	C	-3.857534	-0.034174	-0.771610
C33	C	-4.010258	-0.099021	-0.840048
C34	C	-4.089177	-0.164714	-0.742130
C35	C	-4.022575	-0.038412	-0.719808
C36	C	-4.175956	-0.103300	-0.789481
C37	C	-3.893930	-0.100228	-0.577819
C38	C	-4.052798	-0.098585	-0.935895
C39	C	-4.155707	0.036062	-0.255038
C40	C	-4.097411	0.120756	-0.255469
C41	C	-4.149151	-0.097814	-0.106381
C42	C	-4.086690	-0.098231	-0.012300
H43	H	-3.958112	-0.707412	-0.115545
H44	H	-3.599234	-0.092356	-0.695732
O45	O	-3.840968	-0.455882	-0.104663
C46	C	-3.661866	-0.529193	-0.010163
C47	C	-3.686081	-0.497533	-0.095654
H48	H	-3.536614	-0.562861	-0.002843
H49	H	-3.816019	-0.568922	-0.009362
H50	H	-3.614942	-0.479179	0.045040
H51	H	-3.732934	-0.547498	-0.150905
H52	H	-3.531896	-0.457783	-0.096381
O53	O	-4.018839	-0.856428	-0.102683
C54	C	-4.037896	-0.969215	-0.033328
C55	C	-4.062065	-0.937571	-0.118827
H56	H	-4.072790	-1.034822	-0.046350
H57	H	-4.151108	-0.951151	0.001591
H58	H	-3.871732	-0.945087	0.008083
H59	H	-4.228159	-0.961684	-0.160304
H60	H	-3.948729	-0.955628	-0.153679
O61	O	-3.771939	-0.298941	-0.105377
C62	C	-3.866185	-0.259417	0.023043
C63	C	-3.929093	-0.315346	-0.062042
H64	H	-3.993188	-0.272671	0.058113
H65	H	-3.844862	-0.197591	0.009454
H66	H	-3.713834	-0.266617	0.064583
H67	H	-4.081470	-0.308215	-0.103624
H68	H	-3.950275	-0.377151	-0.048390
O69	O	-4.105289	-0.742929	-0.409066
C70	C	-3.938637	-0.662253	-0.495521
C71	C	-3.914454	-0.693898	-0.410022
H72	H	-3.784360	-0.622618	-0.496330
H73	H	-4.063676	-0.628487	-0.502840
H74	H	-3.985762	-0.712278	-0.550721
H75	H	-3.867257	-0.643919	-0.354772
H76	H	-3.789471	-0.727687	-0.402778
H77	H	-4.166130	-0.891916	-0.396194
O78	O	-3.928066	-0.342380	-0.411049
C79	C	-3.908796	-0.229583	-0.480391
C80	C	-3.884506	-0.261230	-0.394892
H81	H	-3.873547	-0.163969	-0.467356
H82	H	-4.074986	-0.253615	-0.521815
H83	H	-3.795686	-0.247743	-0.515301
H84	H	-3.997496	-0.243082	-0.359910
H85	H	-3.718255	-0.237202	-0.353530
H86	H	-3.988618	-0.491405	-0.398184
O87	O	-3.875130	-0.222039	-0.832327
C88	C	-3.939852	-0.360454	-0.860148
C89	C	-3.995464	-0.290743	-0.816593
H90	H	-4.037144	-0.416018	-0.847459
H91	H	-3.767587	-0.357149	-0.833183
H92	H	-3.973752	-0.359797	-0.932108
H93	H	-3.961693	-0.291355	-0.744631
H94	H	-4.167718	-0.294074	-0.843627
O95	O	-4.205299	-0.230579	-0.726143
C96	C	-4.296090	-0.304860	-0.618983
C97	C	-4.164445	-0.230245	-0.636970
H98	H	-4.263140	-0.304607	-0.546888
H99	H	-4.254476	-0.356831	-0.650209
H100	H	-4.468245	-0.308358	-0.646544
H101	H	-3.992253	-0.226672	-0.609409
H102	H	-4.206235	-0.178310	-0.605760
H103	H	-3.759995	0.020981	-0.785036
H104	H	-4.347667	-0.106595	-0.817839
H105	H	-4.063691	0.013174	-0.687528
