data_functionalizedCrystal
_audit_creation_method	'MofGen! by Chris Wilmer'
_symmetry_space_group_name_H-M	'P1'
_symmetry_Int_Tables_number	1
_symmetry_cell_setting	triclinic
loop_
_symmetry_equiv_pos_as_xyz
  x,y,z
_cell_length_a	19.805407
_cell_length_b	29.839125
_cell_length_c	19.805404
_cell_angle_alpha	89.982059
_cell_angle_beta	90.028597
_cell_angle_gamma	89.982174
loop_
_atom_site_label
_atom_site_type_symbol
_atom_site_fract_x
_atom_site_fract_y
_atom_site_fract_z
Zn1	Zn	1.034679	-0.254075	-0.269572
Zn2	Zn	1.534679	0.245925	0.230428
Zn3	Zn	1.034601	-0.178944	-0.382737
Zn4	Zn	1.534601	0.321056	0.117263
Zn5	Zn	0.921506	-0.178950	-0.269565
Zn6	Zn	1.421506	0.321050	0.230435
Zn7	Zn	0.921452	-0.254038	-0.382723
Zn8	Zn	1.421452	0.245962	0.117277
O9	O	0.978060	-0.216502	-0.326149
O10	O	1.478060	0.283498	0.173851
O11	O	1.129385	-0.244121	-0.284592
O12	O	1.629385	0.255879	0.215408
O13	O	1.019589	-0.116078	-0.367727
O14	O	1.519589	0.383922	0.132273
O15	O	0.936575	-0.188933	-0.174850
O16	O	1.436575	0.311067	0.325150
O17	O	1.129328	-0.188923	-0.367734
O18	O	1.629328	0.311077	0.132266
O19	O	1.019722	-0.244127	-0.174854
O20	O	1.519722	0.255873	0.325146
O21	O	0.936499	-0.116082	-0.284581
O22	O	1.436499	0.383918	0.215419
O23	O	0.826783	-0.188897	-0.284567
O24	O	1.326783	0.311103	0.215433
O25	O	0.936481	-0.316910	-0.367710
O26	O	1.436481	0.183090	0.132290
O27	O	0.826742	-0.244064	-0.367704
O28	O	1.326742	0.255936	0.132296
O29	O	1.019669	-0.316937	-0.284578
O30	O	1.519669	0.183063	0.215422
O31	O	1.019536	-0.188888	-0.477451
O32	O	1.519536	0.311112	0.022549
O33	O	0.936405	-0.244059	-0.477441
O34	O	1.436405	0.255941	0.022559
C35	C	0.802204	-0.216478	-0.326134
C36	C	1.302204	0.283522	0.173866
C37	C	0.726972	-0.216478	-0.326144
C38	C	1.226972	0.283522	0.173856
C39	C	0.265177	-0.245211	-0.369519
C40	C	0.765177	0.254789	0.130481
C41	C	0.335866	-0.245201	-0.369518
C42	C	0.835866	0.254799	0.130482
C43	C	0.371210	-0.216519	-0.326165
C44	C	0.871210	0.283481	0.173835
C45	C	0.335862	-0.187841	-0.282816
C46	C	0.835862	0.312159	0.217184
C47	C	0.265175	-0.187849	-0.282821
C48	C	0.765175	0.312151	0.217179
C49	C	0.620935	-0.187810	-0.282795
C50	C	1.120935	0.312190	0.217205
C51	C	0.691627	-0.187805	-0.282792
C52	C	1.191627	0.312195	0.217208
C53	C	0.691626	-0.245162	-0.369493
C54	C	1.191626	0.254838	0.130507
C55	C	0.620939	-0.245170	-0.369498
C56	C	1.120939	0.254830	0.130502
C57	C	0.585597	-0.216491	-0.326151
C58	C	1.085597	0.283509	0.173849
C59	C	0.508949	-0.216501	-0.326153
C60	C	1.008949	0.283499	0.173847
C61	C	0.447857	-0.216511	-0.326159
C62	C	0.947857	0.283489	0.173841
C63	C	0.978078	-0.333680	-0.326143
C64	C	1.478078	0.166320	0.173857
C65	C	0.978086	-0.383614	-0.326140
C66	C	1.478086	0.116386	0.173860
C67	C	1.021447	-0.693275	-0.282741
C68	C	1.521447	-0.193275	0.217259
C69	C	1.021481	-0.880948	-0.282683
C70	C	1.521481	-0.380948	0.217317
O71	O	1.058298	-0.905227	-0.245847
O72	O	1.558298	-0.405227	0.254153
N73	N	0.978175	-0.904400	-0.325959
N74	N	1.478175	-0.404400	0.174041
C75	C	0.934855	-0.880930	-0.369250
C76	C	1.434855	-0.380930	0.130750
O77	O	0.898018	-0.905184	-0.406053
O78	O	1.398018	-0.405184	0.093947
C79	C	0.934819	-0.693258	-0.369304
C80	C	1.434819	-0.193258	0.130696
C81	C	0.978132	-0.669809	-0.326029
C82	C	1.478132	-0.169809	0.173971
C83	C	1.064756	-0.669826	-0.239469
C84	C	1.564756	-0.169826	0.260531
C85	C	1.064750	-0.622910	-0.239487
C86	C	1.564750	-0.122910	0.260513
C87	C	1.021435	-0.599444	-0.282775
C88	C	1.521435	-0.099444	0.217225
C89	C	0.978126	-0.622893	-0.326047
C90	C	1.478126	-0.122893	0.173953
C91	C	0.891496	-0.669789	-0.412591
C92	C	1.391496	-0.169789	0.087409
C93	C	0.891490	-0.622868	-0.412599
C94	C	1.391490	-0.122868	0.087401
C95	C	0.934803	-0.599419	-0.369325
C96	C	1.434803	-0.099419	0.130675
C97	C	0.934804	-0.552512	-0.369353
C98	C	1.434804	-0.052512	0.130647
N99	N	0.978110	-0.529060	-0.326077
N100	N	1.478110	-0.029060	0.173923
C101	C	1.021425	-0.552526	-0.282788
C102	C	1.521425	-0.052526	0.217212
C103	C	0.934879	-0.979461	-0.369220
C104	C	1.434879	-0.479461	0.130780
C105	C	0.934888	-1.026379	-0.369207
C106	C	1.434888	-0.526379	0.130793
C107	C	1.021513	-1.026393	-0.282639
C108	C	1.521513	-0.526393	0.217361
C109	C	1.021506	-0.979475	-0.282655
C110	C	1.521506	-0.479475	0.217345
C111	C	0.978184	-0.956009	-0.325943
C112	C	1.478184	-0.456009	0.174057
C113	C	1.021409	-0.454000	-0.282828
C114	C	1.521409	0.046000	0.217172
C115	C	1.021401	-0.407081	-0.282852
C116	C	1.521401	0.092919	0.217148
C117	C	0.934774	-0.407070	-0.369417
C118	C	1.434774	0.092930	0.130583
C119	C	0.934784	-0.453986	-0.369396
C120	C	1.434784	0.046014	0.130604
C121	C	0.978104	-0.477450	-0.326097
C122	C	1.478104	0.022550	0.173903
O123	O	0.898001	-0.528203	-0.406165
O124	O	1.398001	-0.028203	0.093835
O125	O	1.058247	-0.528265	-0.245980
O126	O	1.558247	-0.028265	0.254020
C127	C	1.021453	-0.740190	-0.282723
C128	C	1.521453	-0.240190	0.217277
C129	C	0.978144	-0.763640	-0.325994
C130	C	1.478144	-0.263640	0.174006
C131	C	0.934829	-0.740173	-0.369283
C132	C	1.434829	-0.240173	0.130717
C133	C	0.978154	-0.810558	-0.325982
C134	C	1.478154	-0.310558	0.174018
C135	C	1.021469	-0.834024	-0.282693
C136	C	1.521469	-0.334024	0.217307
C137	C	1.064775	-0.810572	-0.239417
C138	C	1.564775	-0.310572	0.260583
C139	C	1.064769	-0.763657	-0.239434
C140	C	1.564769	-0.263657	0.260566
C141	C	0.891524	-0.763625	-0.412560
C142	C	1.391524	-0.263625	0.087440
C143	C	0.891534	-0.810541	-0.412539
C144	C	1.391534	-0.310541	0.087461
C145	C	0.934849	-0.834007	-0.369250
C146	C	1.434849	-0.334007	0.130750
C147	C	1.154602	-0.216526	-0.326165
C148	C	1.654602	0.283474	0.173835
C149	C	1.229834	-0.216536	-0.326172
C150	C	1.729834	0.283464	0.173828
C151	C	0.977974	-0.216479	-0.502005
C152	C	1.477974	0.283521	-0.002005
C153	C	0.978000	-0.216484	-0.577237
C154	C	1.478000	0.283516	-0.077237
C155	C	0.978080	-0.099779	-0.326106
C156	C	1.478080	0.400221	0.173894
C157	C	0.978204	-0.049845	-0.325918
C158	C	1.478204	0.450155	0.174082
C159	C	1.021446	-0.245304	-1.038972
C160	C	1.521446	0.254696	-0.538972
C161	C	1.021420	-0.245294	-0.968283
C162	C	1.521420	0.254706	-0.468283
C163	C	0.978150	-0.216529	-0.932999
C164	C	1.478150	0.283471	-0.432999
C165	C	0.934910	-0.187770	-0.968407
C166	C	1.434910	0.312230	-0.468407
C167	C	0.934941	-0.187779	-1.039094
C168	C	1.434941	0.312221	-0.539094
C169	C	0.934786	-0.187735	-0.683333
C170	C	1.434786	0.312265	-0.183333
C171	C	0.934757	-0.187730	-0.612641
C172	C	1.434757	0.312270	-0.112641
C173	C	1.021265	-0.245251	-0.612523
C174	C	1.521265	0.254749	-0.112523
C175	C	1.021296	-0.245259	-0.683210
C176	C	1.521296	0.254741	-0.183210
C177	C	0.978058	-0.216498	-0.718611
C178	C	1.478058	0.283502	-0.218611
C179	C	0.978089	-0.216509	-0.795260
C180	C	1.478089	0.283491	-0.295260
C181	C	0.978116	-0.216520	-0.856352
C182	C	1.478116	0.283480	-0.356352
C183	C	0.978164	-0.216534	-0.149606
C184	C	1.478164	0.283466	0.350394
C185	C	0.978208	-0.216548	-0.074374
C186	C	1.478208	0.283452	0.425626
H187	H	0.720410	-0.268513	-0.404789
H188	H	1.220410	0.231487	0.095211
H189	H	0.236405	-0.268570	-0.404819
H190	H	0.736405	0.231430	0.095181
H191	H	1.100018	-0.603822	-0.204247
H192	H	1.600018	-0.103822	0.295753
H193	H	0.364639	-0.268550	-0.404818
H194	H	0.864639	0.231450	0.095182
H195	H	1.100046	-0.829686	-0.204172
H196	H	1.600046	-0.329686	0.295828
H197	H	0.364645	-0.164486	-0.247520
H198	H	0.864645	0.335514	0.252480
H199	H	0.856265	-0.829629	-0.447785
H200	H	1.356265	-0.329629	0.052215
H201	H	0.856204	-0.603765	-0.447843
H202	H	1.356204	-0.103765	0.052157
H203	H	0.720402	-0.164448	-0.247486
H204	H	1.220402	0.335552	0.252514
H205	H	0.899510	-0.387955	-0.404664
H206	H	1.399510	0.112045	0.095336
H207	H	1.056474	-0.268668	-0.583691
H208	H	1.556474	0.231332	-0.083691
H209	H	1.100038	-0.744568	-0.204195
H210	H	1.600038	-0.244568	0.295805
H211	H	1.056628	-0.268709	-0.939458
H212	H	1.556628	0.231291	-0.439458
H213	H	0.856226	-0.688874	-0.447829
H214	H	1.356226	-0.188874	0.052171
H215	H	0.592165	-0.268527	-0.404798
H216	H	1.092165	0.231473	0.095202
H217	H	1.056527	-0.268684	-0.711935
H218	H	1.556527	0.231316	-0.211935
H219	H	0.592168	-0.164456	-0.247502
H220	H	1.092168	0.335544	0.252498
H221	H	0.899521	-0.164305	-0.583914
H222	H	1.399521	0.335695	-0.083914
H223	H	0.899601	-0.960360	-0.404474
H224	H	1.399601	-0.460360	0.095526
H225	H	0.236399	-0.164500	-0.247521
H226	H	0.736399	0.335500	0.252479
H227	H	1.056674	-0.387990	-0.247612
H228	H	1.556674	0.112010	0.252388
H229	H	0.856252	-0.744524	-0.447812
H230	H	1.356252	-0.244524	0.052188
H231	H	1.056682	-0.473099	-0.247567
H232	H	1.556682	0.026901	0.252433
H233	H	1.100029	-0.688927	-0.204214
H234	H	1.600029	-0.188927	0.295786
H235	H	1.056774	-0.960385	-0.247416
H236	H	1.556774	-0.460385	0.252584
H237	H	0.899579	-0.164316	-0.712149
H238	H	1.399579	0.335684	-0.212149
H239	H	1.056782	-1.045507	-0.247392
H240	H	1.556782	-0.545507	0.252608
H241	H	0.899626	-1.045467	-0.404453
H242	H	1.399626	-0.545467	0.095547
H243	H	0.899522	-0.473079	-0.404640
H244	H	1.399522	0.026921	0.095360
H245	H	1.056675	-0.268732	-1.067695
H246	H	1.556675	0.231268	-0.567695
H247	H	0.899682	-0.164347	-0.939674
H248	H	1.399682	0.335653	-0.439674
H249	H	0.899731	-0.164362	-1.067918
H250	H	1.399731	0.335638	-0.567918
