data_functionalizedCrystal
_audit_creation_method	'MofGen! by Chris Wilmer'
_symmetry_space_group_name_H-M	'P1'
_symmetry_Int_Tables_number	1
_symmetry_cell_setting	triclinic
loop_
_symmetry_equiv_pos_as_xyz
  x,y,z
_cell_length_a	12.759394
_cell_length_b	12.759395
_cell_length_c	17.077396
_cell_angle_alpha	90.017209
_cell_angle_beta	90.026316
_cell_angle_gamma	90.016374
loop_
_atom_site_label
_atom_site_type_symbol
_atom_site_fract_x
_atom_site_fract_y
_atom_site_fract_z
Zn1	Zn	-0.418223	1.606233	0.443807
Zn2	Zn	0.081777	2.106233	0.943807
Zn3	Zn	-0.593924	1.606134	0.312546
Zn4	Zn	-0.093924	2.106134	0.812546
Zn5	Zn	-0.418264	1.430542	0.312560
Zn6	Zn	0.081736	1.930542	0.812560
Zn7	Zn	-0.593866	1.430524	0.443774
Zn8	Zn	-0.093866	1.930524	0.943774
O9	O	-0.506069	1.518358	0.378172
O10	O	-0.006069	2.018358	0.878172
O11	O	-0.441538	1.753241	0.426402
O12	O	0.058462	2.253241	0.926402
O13	O	-0.570664	1.582807	0.202700
O14	O	-0.070664	2.082807	0.702700
O15	O	-0.271238	1.453897	0.329989
O16	O	0.228762	1.953897	0.829989
O17	O	-0.570624	1.753168	0.329965
O18	O	-0.070624	2.253168	0.829965
O19	O	-0.271208	1.582977	0.426416
O20	O	0.228792	2.082977	0.926416
O21	O	-0.441607	1.453800	0.202711
O22	O	0.058393	1.953800	0.702711
O23	O	-0.441551	1.283518	0.329958
O24	O	0.058449	1.783518	0.829958
O25	O	-0.570525	1.453866	0.553626
O26	O	-0.070525	1.953866	1.053626
O27	O	-0.570565	1.283505	0.426361
O28	O	-0.070565	1.783505	0.926361
O29	O	-0.441481	1.582959	0.553649
O30	O	0.058519	2.082959	1.053649
O31	O	-0.740937	1.582789	0.329934
O32	O	-0.240937	2.082789	0.829934
O33	O	-0.740895	1.453769	0.426347
O34	O	-0.240895	1.953769	0.926347
C35	C	-0.506057	1.245391	0.378158
C36	C	-0.006057	1.745391	0.878158
C37	C	-0.506076	1.128614	0.378171
C38	C	-0.006076	1.628614	0.878171
C39	C	-0.640636	1.128639	0.478393
C40	C	-0.140636	1.628639	0.978393
C41	C	-0.707923	1.073790	0.528506
C42	C	-0.207923	1.573790	1.028506
C43	C	-0.707936	0.964069	0.528516
C44	C	-0.207936	1.464069	1.028516
C45	C	-0.640652	0.909193	0.478408
C46	C	-0.140652	1.409193	0.978408
C47	C	-0.573364	0.964041	0.428295
C48	C	-0.073364	1.464041	0.928295
C49	C	-0.573361	1.073765	0.428289
C50	C	-0.073361	1.573765	0.928289
C51	C	-0.438801	0.964017	0.328078
C52	C	0.061199	1.464017	0.828078
C53	C	-0.438792	1.073738	0.328064
C54	C	0.061208	1.573738	0.828064
C55	C	-0.371516	0.909141	0.277971
C56	C	0.128484	1.409141	0.777971
C57	C	-0.304232	0.963989	0.227853
C58	C	0.195768	1.463989	0.727853
C59	C	-0.304223	1.073718	0.227845
C60	C	0.195777	1.573718	0.727845
C61	C	-0.371504	1.128587	0.277950
C62	C	0.128496	1.628587	0.777950
C63	C	-0.779037	1.518295	0.378153
C64	C	-0.279037	2.018295	0.878153
C65	C	-0.895814	1.518364	0.378171
C66	C	-0.395814	2.018364	0.878171
C67	C	-0.895805	1.652814	0.277851
C68	C	-0.395805	2.152814	0.777851
C69	C	-0.950661	1.720066	0.227700
C70	C	-0.450661	2.220066	0.727700
C71	C	-1.060383	1.720127	0.227721
C72	C	-0.560383	2.220127	0.727721
C73	C	-1.115250	1.652932	0.277900
C74	C	-0.615250	2.152932	0.777900
C75	C	-1.060394	1.585680	0.328051
C76	C	-0.560394	2.085680	0.828051
C77	C	-0.950670	1.585623	0.328023
C78	C	-0.450670	2.085623	0.828023
C79	C	-1.060403	1.451237	0.428374
C80	C	-0.560403	1.951237	0.928374
C81	C	-0.950681	1.451169	0.428350
C82	C	-0.450681	1.951169	0.928350
C83	C	-1.115270	1.384042	0.478553
C84	C	-0.615270	1.884042	0.978553
C85	C	-1.060414	1.316783	0.528701
C86	C	-0.560414	1.816783	1.028701
C87	C	-0.950686	1.316723	0.528677
C88	C	-0.450686	1.816723	1.028677
C89	C	-0.895825	1.383917	0.478501
C90	C	-0.395825	1.883917	0.978501
C91	C	-0.232036	1.518450	0.378208
C92	C	0.267964	2.018450	0.878208
C93	C	-0.115259	1.518489	0.378223
C94	C	0.384741	2.018489	0.878223
C95	C	-0.505992	1.518422	0.582916
C96	C	-0.005992	2.018422	1.082916
C97	C	-0.505959	1.518449	0.670166
C98	C	-0.005959	2.018449	1.170166
C99	C	-0.506083	1.792392	0.378186
C100	C	-0.006083	2.292392	0.878186
C101	C	-0.506089	1.909168	0.378192
C102	C	-0.006089	2.409168	0.878192
C103	C	-0.506071	1.518355	0.174224
C104	C	-0.006071	2.018355	0.674224
C105	C	-0.505808	1.518532	0.086974
C106	C	-0.005808	2.018532	0.586974
C107	C	-0.438760	1.585670	0.711169
C108	C	0.061240	2.085670	1.211169
C109	C	-0.438725	1.585683	0.793150
C110	C	0.061275	2.085683	1.293150
C111	C	-0.505895	1.518479	0.834125
C112	C	-0.005895	2.018479	1.334125
C113	C	-0.573097	1.451250	0.793116
C114	C	-0.073097	1.951250	1.293116
C115	C	-0.573126	1.451233	0.711137
C116	C	-0.073126	1.951233	1.211137
C117	C	-0.573034	1.451292	0.963986
C118	C	-0.073034	1.951292	1.463986
C119	C	-0.573006	1.451310	1.045971
C120	C	-0.073006	1.951310	1.545971
C121	C	-0.438633	1.585742	1.045999
C122	C	0.061367	2.085742	1.545999
C123	C	-0.438662	1.585725	0.964020
C124	C	0.061338	2.085725	1.464020
C125	C	-0.505865	1.518497	0.923016
C126	C	-0.005865	2.018497	1.423016
H127	H	-0.640640	1.217980	0.478384
H128	H	-0.140640	1.717980	0.978384
H129	H	-0.762703	1.118482	0.569303
H130	H	-0.262703	1.618482	1.069303
H131	H	-0.806464	1.652757	0.277818
H132	H	-0.306464	2.152757	0.777818
H133	H	-0.383912	1.640480	1.079388
H134	H	0.116088	2.140480	1.579388
H135	H	-0.249422	1.118369	0.187042
H136	H	0.250578	1.618369	0.687042
H137	H	-0.906027	1.261962	0.569519
H138	H	-0.406027	1.761962	1.069519
H139	H	-0.383973	1.640455	0.930660
H140	H	0.116027	2.140455	1.430660
H141	H	-0.905978	1.774778	0.186846
H142	H	-0.405978	2.274778	0.686846
H143	H	-0.762722	0.919411	0.569326
H144	H	-0.262722	1.419411	1.069326
H145	H	-0.640659	0.819852	0.478427
H146	H	-0.140659	1.319852	0.978427
H147	H	-1.105047	1.774895	0.186888
H148	H	-0.605047	2.274895	0.686888
H149	H	-0.384008	1.640424	0.826532
H150	H	0.115992	2.140424	1.326532
H151	H	-1.204592	1.652997	0.277920
H152	H	-0.704592	2.152997	0.777920
H153	H	-0.627741	1.396532	0.930603
H154	H	-0.127741	1.896532	1.430603
H155	H	-0.627699	1.396585	1.079330
H156	H	-0.127699	1.896585	1.579330
H157	H	-1.204612	1.384101	0.478570
H158	H	-0.704612	1.884101	0.978570
H159	H	-0.371527	0.819800	0.277986
H160	H	0.128473	1.319800	0.777986
H161	H	-0.806484	1.383868	0.478471
H162	H	-0.306484	1.883868	0.978471
H163	H	-0.384066	1.640399	0.677813
H164	H	0.115934	2.140399	1.177813
H165	H	-0.627784	1.396527	0.826484
H166	H	-0.127784	1.896527	1.326484
H167	H	-0.627835	1.396484	0.677753
H168	H	-0.127835	1.896484	1.177753
H169	H	-0.249450	0.919301	0.187063
H170	H	0.250550	1.419301	0.687063
H171	H	-1.105096	1.262083	0.569556
H172	H	-0.605096	1.762083	1.069556
H173	H	-0.371506	1.217928	0.277946
H174	H	0.128494	1.717928	0.777946
