data_functionalizedCrystal
_audit_creation_method	'MofGen! by Chris Wilmer'
_symmetry_space_group_name_H-M	'P1'
_symmetry_Int_Tables_number	1
_symmetry_cell_setting	triclinic
loop_
_symmetry_equiv_pos_as_xyz
  x,y,z
_cell_length_a	10.540539
_cell_length_b	11.792241
_cell_length_c	10.268362
_cell_angle_alpha	89.999574
_cell_angle_beta	89.999200
_cell_angle_gamma	95.640546
loop_
_atom_site_label
_atom_site_type_symbol
_atom_site_fract_x
_atom_site_fract_y
_atom_site_fract_z
O1	O	0.173985	-1.507363	0.108167
O2	O	0.191916	-1.177068	0.108197
O3	O	-0.001780	-1.349751	0.108180
O4	O	0.367682	-1.334680	0.108184
O5	O	-0.001774	-1.349734	-0.108421
O6	O	0.191923	-1.177052	-0.108404
O7	O	0.173991	-1.507346	-0.108433
Cu8	Cu	0.182958	-1.342197	-0.128196
Cu9	Cu	0.182950	-1.342217	0.127959
O10	O	0.367688	-1.334663	-0.108416
C11	C	0.190793	-1.134766	-0.000100
C12	C	0.187422	-1.008743	-0.000088
C13	C	-0.049076	-1.348612	-0.000118
C14	C	-0.190014	-1.345231	-0.000111
C15	C	0.175114	-1.549648	-0.000134
C16	C	0.178486	-1.675671	-0.000137
C17	C	-0.373018	-1.215660	0.000387
C18	C	-0.226411	-1.219087	-0.000101
C19	C	-0.251865	-1.405927	-0.123806
C20	C	-0.398396	-1.401622	-0.123910
C21	C	-0.398930	-1.404207	0.122405
C22	C	-0.251952	-1.405369	0.124041
C23	C	0.414984	-1.335802	-0.000116
C24	C	0.555921	-1.339183	-0.000114
N25	N	0.182963	-1.342192	-0.308362
C26	C	0.181223	-0.778015	-0.000126
C27	C	0.184667	-0.906409	-0.000105
C28	C	0.182963	-1.342200	-0.426204
C29	C	0.182952	-1.342214	-0.574042
N30	N	0.182935	-1.342231	0.308125
H31	H	-0.183655	-1.171328	0.088569
H32	H	-0.401459	-1.165837	0.089091
H33	H	-0.229813	-1.498563	-0.128413
H34	H	-0.446659	-1.492342	-0.129529
H35	H	-0.210951	-1.360958	0.215547
C36	C	-0.219636	-1.529614	0.134125
C37	C	-0.259929	-1.614934	0.024692
C38	C	-0.227611	-1.739184	0.034762
C39	C	-0.155000	-1.778113	0.154266
C40	C	-0.114703	-1.692791	0.263707
C41	C	-0.147020	-1.568541	0.253637
H42	H	-0.313684	-1.586118	-0.063780
H43	H	-0.257443	-1.802345	-0.046255
H44	H	-0.131077	-1.870090	0.161721
H45	H	-0.060948	-1.721607	0.352179
H46	H	-0.117189	-1.505380	0.334654
C47	C	-0.463121	-1.527296	0.123524
C48	C	-0.556047	-1.568658	0.013863
C49	C	-0.620239	-1.691743	0.014965
C50	C	-0.591505	-1.773466	0.125728
C51	C	-0.498574	-1.732106	0.235397
C52	C	-0.434382	-1.609021	0.234295
H53	H	-0.577322	-1.508161	-0.068138
H54	H	-0.689033	-1.722361	-0.066219
H55	H	-0.639024	-1.864581	0.126544
H56	H	-0.477300	-1.792603	0.317398
H57	H	-0.365588	-1.578403	0.315480
H58	H	-0.209125	-1.363751	-0.215848
C59	C	-0.441372	-1.349066	0.249064
C60	C	-0.517586	-1.244281	0.242854
C61	C	-0.560029	-1.189126	0.369504
C62	C	-0.526257	-1.238758	0.502364
C63	C	-0.450039	-1.343549	0.508579
C64	C	-0.407597	-1.398703	0.381929
H65	H	-0.542589	-1.207535	0.144499
H66	H	-0.616450	-1.111553	0.364902
H67	H	-0.557676	-1.197930	0.596117
H68	H	-0.425036	-1.380295	0.606934
H69	H	-0.351175	-1.476277	0.386531
H70	H	-0.403062	-1.166026	-0.087812
H71	H	-0.184496	-1.170979	-0.088910
H72	H	-0.426446	-1.356751	-0.216366
