data_functionalizedCrystal
_audit_creation_method	'MofGen! by Chris Wilmer'
_symmetry_space_group_name_H-M	'P1'
_symmetry_Int_Tables_number	1
_symmetry_cell_setting	triclinic
loop_
_symmetry_equiv_pos_as_xyz
  x,y,z
_cell_length_a	8.559649
_cell_length_b	10.654550
_cell_length_c	9.130313
_cell_angle_alpha	90.004369
_cell_angle_beta	89.996463
_cell_angle_gamma	102.868203
loop_
_atom_site_label
_atom_site_type_symbol
_atom_site_fract_x
_atom_site_fract_y
_atom_site_fract_z
O1	O	2.119654	0.042558	-0.121783
O2	O	1.655168	-0.022229	-0.121790
O3	O	1.898091	0.194007	-0.121777
O4	O	1.876732	-0.173678	-0.121796
O5	O	1.898074	0.194011	0.121822
O6	O	1.655151	-0.022225	0.121809
O7	O	2.119637	0.042562	0.121815
Cu8	Cu	1.887393	0.010169	0.144055
Cu9	Cu	1.887413	0.010164	-0.144029
O10	O	1.876715	-0.173674	0.121803
C11	C	1.896514	0.240645	0.000021
C12	C	1.891822	0.379603	0.000019
C13	C	1.595684	-0.027137	0.000009
C14	C	1.418466	-0.041751	0.000007
C15	C	2.179121	0.047469	0.000014
C16	C	2.356339	0.062084	0.000006
C17	C	1.878292	-0.220312	0.000001
C18	C	1.882984	-0.359271	-0.000006
N19	N	1.887391	0.010174	0.346677
C20	C	2.034851	0.473864	0.000020
C21	C	2.030432	0.604428	0.000003
C22	C	1.739944	0.546458	-0.000012
C23	C	1.744364	0.415896	-0.000005
N24	N	1.887428	0.010170	-0.346652
C25	C	1.994993	0.105891	0.423335
C26	C	1.995009	0.105892	0.576672
C27	C	1.779813	-0.085552	0.576680
C28	C	1.779792	-0.085547	0.423346
H29	H	2.438736	0.162168	0.000007
C30	C	2.111760	0.210005	0.659712
C31	C	2.084552	0.330803	0.622402
C32	C	2.192090	0.426749	0.698854
H33	H	2.096478	0.196488	0.762036
H34	H	2.218458	0.206678	0.634532
H35	H	1.977880	0.334128	0.647592
H36	H	2.099847	0.344362	0.520092
H37	H	2.298787	0.423421	0.673675
H38	H	2.176798	0.413219	0.801174
H39	H	2.173654	0.508721	0.673541
H40	H	1.692211	-0.163488	0.639119
H41	H	2.336078	-0.141829	-0.000009
C42	C	1.663145	-0.189663	0.340186
C43	C	1.690414	-0.310456	0.377426
C44	C	1.583007	-0.406388	0.300835
H45	H	1.556410	-0.186439	0.365273
H46	H	1.678548	-0.176032	0.237872
H47	H	1.674999	-0.324083	0.479718
H48	H	1.797128	-0.313723	0.352336
H49	H	1.598409	-0.392758	0.198520
H50	H	1.476278	-0.403152	0.325927
H51	H	1.601504	-0.488357	0.326081
C52	C	2.194783	0.434199	0.000103
C53	C	2.168049	0.299683	0.000148
C54	C	2.315344	0.263103	0.000238
H55	H	2.253864	0.467370	-0.084824
H56	H	2.253747	0.467445	0.085084
H57	H	2.109110	0.266451	-0.084824
H58	H	2.108993	0.266479	0.085069
H59	H	2.374308	0.296349	0.085220
H60	H	2.374414	0.296282	-0.084690
H61	H	2.297225	0.171832	0.000283
C62	C	2.185898	0.706576	0.000084
C63	C	2.315972	0.646840	0.000142
C64	C	2.459218	0.740898	0.000234
H65	H	2.190455	0.758754	-0.084846
H66	H	2.190289	0.758713	0.085062
H67	H	2.311584	0.594725	-0.084827
H68	H	2.311469	0.594670	0.085065
H69	H	2.463609	0.793035	0.085212
H70	H	2.463758	0.793071	-0.084698
H71	H	2.547490	0.700381	0.000287
H72	H	1.619888	0.576024	-0.000028
H73	H	1.627885	0.339143	-0.000010
H74	H	2.082605	0.183834	0.360915
