data_functionalizedCrystal
_audit_creation_method	'MofGen! by Chris Wilmer'
_symmetry_space_group_name_H-M	'P1'
_symmetry_Int_Tables_number	1
_symmetry_cell_setting	triclinic
loop_
_symmetry_equiv_pos_as_xyz
  x,y,z
_cell_length_a	11.026607
_cell_length_b	11.026607
_cell_length_c	10.065875
_cell_angle_alpha	79.268236
_cell_angle_beta	100.697662
_cell_angle_gamma	108.586017
loop_
_atom_site_label
_atom_site_type_symbol
_atom_site_fract_x
_atom_site_fract_y
_atom_site_fract_z
O1	O	-1.741286	-0.518966	-0.113490
O2	O	-1.374706	-0.458202	-0.113493
O3	O	-1.527614	-0.305294	-0.113487
O4	O	-1.588379	-0.671873	-0.113496
O5	O	-1.498489	-0.334601	0.113501
O6	O	-1.345582	-0.487509	0.113495
O7	O	-1.712161	-0.548273	0.113497
Zn8	Zn	-1.524247	-0.522544	0.149535
Zn9	Zn	-1.562620	-0.483931	-0.149531
O10	O	-1.559254	-0.701180	0.113491
C11	C	-1.312485	-0.461645	0.000001
C12	C	-1.170471	-0.428228	0.000000
C13	C	-1.774384	-0.544829	0.000001
C14	C	-1.916399	-0.578244	-0.000007
C15	C	-1.501842	-0.272288	0.000005
C16	C	-1.468426	-0.130273	0.000000
C17	C	-1.116822	-0.520498	-0.000003
C18	C	-0.970043	-0.485962	-0.000004
C19	C	-1.585026	-0.734186	-0.000004
C20	C	-1.618444	-0.876199	-0.000008
N21	N	-1.498068	-0.548898	0.353640
C22	C	-1.560695	-0.076624	-0.000001
C23	C	-1.526160	0.070155	-0.000006
N24	N	-1.588808	-0.457569	-0.353635
C25	C	-1.553502	-0.493090	0.421421
C26	C	-1.533366	-0.513385	0.578587
H27	H	-1.179554	-0.625061	0.000002
O28	O	-1.685466	-0.151339	0.000178
C29	C	-1.731372	-0.140216	0.117751
H30	H	-1.671591	-0.045473	0.156949
H31	H	-1.836892	-0.141674	0.091307
H32	H	-1.722755	-0.224506	0.200069
H33	H	-1.651173	-0.394755	0.588046
H34	H	-1.615864	-0.430280	0.363099
O35	O	-1.458845	-0.588147	0.648301
C36	C	-1.354601	-0.513484	0.730947
H37	H	-1.380584	-0.427444	0.752202
H38	H	-1.333396	-0.575239	0.831491
H39	H	-1.265531	-0.477396	0.675980
H40	H	-1.107742	-0.323661	-0.000032
O41	O	-1.423771	-0.623989	0.423057
C42	C	-1.476830	-0.750191	0.388263
H43	H	-1.539134	-0.747332	0.284470
H44	H	-1.395543	-0.791640	0.383537
H45	H	-1.538717	-0.813652	0.468643
H46	H	-0.907318	-0.381388	-0.000036
O47	O	-0.991300	-0.702949	-0.000269
C48	C	-1.084188	-0.712568	-0.117818
H49	H	-1.048668	-0.628517	-0.199968
H50	H	-1.099877	-0.807586	-0.157301
H51	H	-1.179130	-0.709381	-0.091241
O52	O	-1.743248	0.049065	-0.000245
C53	C	-1.819334	0.090586	-0.117785
H54	H	-1.755289	0.143904	-0.199955
H55	H	-1.896108	0.003258	-0.157242
H56	H	-1.868129	0.158169	-0.091206
H57	H	-1.421592	0.132886	-0.000016
O58	O	-1.343750	-0.055288	-0.000186
C59	C	-1.334016	0.037654	-0.117767
H60	H	-1.432310	0.053738	-0.156961
H61	H	-1.260920	0.132432	-0.091334
H62	H	-1.300946	0.001950	-0.200084
