data_functionalizedCrystal
_audit_creation_method	'MofGen! by Chris Wilmer'
_symmetry_space_group_name_H-M	'P1'
_symmetry_Int_Tables_number	1
_symmetry_cell_setting	triclinic
loop_
_symmetry_equiv_pos_as_xyz
  x,y,z
_cell_length_a	12.837943
_cell_length_b	10.540539
_cell_length_c	9.616153
_cell_angle_alpha	89.997886
_cell_angle_beta	90.002545
_cell_angle_gamma	89.677216
loop_
_atom_site_label
_atom_site_type_symbol
_atom_site_fract_x
_atom_site_fract_y
_atom_site_fract_z
O1	O	1.377898	0.330276	0.115608
O2	O	1.075971	0.313960	0.115617
O3	O	1.233823	0.138168	0.115610
O4	O	1.220046	0.506068	0.115614
O5	O	1.233811	0.138178	-0.115681
O6	O	1.075960	0.313970	-0.115675
O7	O	1.377886	0.330285	-0.115683
Zn8	Zn	1.226921	0.322129	-0.152402
Zn9	Zn	1.226937	0.322117	0.152335
O10	O	1.220035	0.506077	-0.115677
C11	C	1.037304	0.308453	-0.000028
C12	C	0.922106	0.292015	-0.000024
C13	C	0.682610	0.489634	-0.000042
C14	C	0.574370	0.474194	-0.000040
C15	C	0.597383	0.245698	-0.000027
C16	C	0.705623	0.261138	-0.000030
C17	C	0.748232	0.383109	-0.000035
C18	C	0.856475	0.398547	-0.000027
C19	C	0.879486	0.170052	-0.000025
C20	C	0.771246	0.154613	-0.000022
C21	C	1.232784	0.090757	-0.000033
C22	C	1.229693	-0.050531	-0.000025
C23	C	1.111250	-0.246971	0.000497
C24	C	1.114384	-0.100008	-0.000023
C25	C	1.285178	-0.106086	-0.132106
C26	C	1.281243	-0.253063	-0.132217
C27	C	1.283601	-0.253335	0.130805
C28	C	1.284664	-0.106236	0.132551
C29	C	1.416553	0.335792	-0.000036
C30	C	1.531752	0.352231	-0.000030
C31	C	1.221074	0.553489	-0.000031
C32	C	1.224165	0.694777	-0.000029
N33	N	1.226918	0.322138	-0.360376
C34	C	1.142441	0.416155	-0.419414
C35	C	1.142154	0.415826	-0.580582
C36	C	1.202763	0.186569	-0.581161
C37	C	1.202138	0.187129	-0.419944
C38	C	1.335836	0.362482	-0.419765
C39	C	1.335146	0.365383	-0.580993
N40	N	1.226948	0.322099	0.360309
H41	H	0.717303	0.588948	-0.000044
Cl42	Cl	1.414461	-0.054576	0.144872
Cl43	Cl	0.491876	0.608117	-0.000053
Cl44	Cl	1.081510	0.134154	-0.643526
Cl45	Cl	0.543798	0.092375	-0.000039
Cl46	Cl	0.910040	0.551881	-0.000030
Cl47	Cl	1.371491	0.512958	-0.357008
H48	H	1.366889	-0.291410	0.131691
Cl49	Cl	0.717669	0.001286	-0.000019
Cl50	Cl	0.961989	0.036128	0.000006
Cl51	Cl	1.046975	-0.041639	0.146155
Cl52	Cl	1.079474	0.135459	-0.361917
Cl53	Cl	1.040925	-0.298856	0.146735
Cl54	Cl	1.041004	-0.301862	-0.144485
Cl55	Cl	1.222508	-0.049242	0.283432
H56	H	1.070409	-0.063079	-0.094859
H57	H	1.240227	-0.285764	-0.230947
Cl58	Cl	1.409274	-0.313062	-0.141492
H59	H	1.353475	0.465163	-0.619226
H60	H	1.262644	0.114345	-0.619443
Cl61	Cl	1.164509	0.570691	-0.641690
Cl62	Cl	1.415918	-0.057213	-0.139700
Cl63	Cl	1.436840	0.268113	-0.643108
H64	H	1.061350	0.388625	-0.619174
Cl65	Cl	1.164428	0.571504	-0.359576
H66	H	1.246626	-0.067718	-0.230393
H67	H	1.246287	-0.288992	0.230913
H68	H	1.062083	0.389268	-0.378927
H69	H	1.261300	0.114362	-0.380885
Cl70	Cl	1.432908	0.256881	-0.360802
