data_functionalizedCrystal
_audit_creation_method	'MofGen! by Chris Wilmer'
_symmetry_space_group_name_H-M	'P1'
_symmetry_Int_Tables_number	1
_symmetry_cell_setting	triclinic
loop_
_symmetry_equiv_pos_as_xyz
  x,y,z
_cell_length_a	12.759401
_cell_length_b	19.121063
_cell_length_c	12.759393
_cell_angle_alpha	92.404035
_cell_angle_beta	89.979062
_cell_angle_gamma	92.470439
loop_
_atom_site_label
_atom_site_type_symbol
_atom_site_fract_x
_atom_site_fract_y
_atom_site_fract_z
Zn1	Zn	1.588334	-0.279551	-0.611809
Zn2	Zn	1.580690	-0.397017	-0.443603
Zn3	Zn	1.412630	-0.279588	-0.436146
Zn4	Zn	1.405092	-0.396968	-0.619238
O5	O	1.496686	-0.338281	-0.527699
O6	O	1.734340	-0.295138	-0.589508
O7	O	1.558352	-0.381476	-0.295595
O8	O	1.442291	-0.181299	-0.453218
O9	O	1.728724	-0.381440	-0.465928
O10	O	1.571380	-0.181271	-0.582277
O11	O	1.434879	-0.295201	-0.290117
O12	O	1.264609	-0.295154	-0.460422
O13	O	1.429444	-0.381356	-0.765271
O14	O	1.259071	-0.381393	-0.594938
O15	O	1.564071	-0.295090	-0.759813
O16	O	1.551042	-0.495295	-0.473132
O17	O	1.422032	-0.495259	-0.602169
C18	C	1.223720	-0.338272	-0.527678
C19	C	1.106942	-0.338286	-0.527694
C20	C	1.484918	-0.520761	-0.539289
C21	C	1.479980	-0.598827	-0.544282
C22	C	1.049220	-0.383259	-0.597636
C23	C	0.939495	-0.383261	-0.597657
C24	C	0.945226	-0.293316	-0.457786
C25	C	1.054948	-0.293311	-0.457771
C26	C	1.544881	-0.635498	-0.479500
C27	C	1.540243	-0.708849	-0.484203
C28	C	1.470697	-0.745528	-0.553682
C29	C	1.405794	-0.708852	-0.618471
C30	C	1.410438	-0.635502	-0.613773
C31	C	1.453316	-0.966997	-0.571229
C32	C	1.448675	-1.040352	-0.575920
C33	C	1.583126	-1.040344	-0.441653
C34	C	1.587759	-0.966993	-0.436957
C35	C	1.522860	-0.930323	-0.501749
C36	C	1.465952	-0.820504	-0.558488
C37	C	1.527611	-0.855348	-0.496948
C38	C	1.770719	-0.338290	-0.527721
C39	C	1.887495	-0.338294	-0.527731
C40	C	1.496769	-0.338214	-0.801728
C41	C	1.496805	-0.338185	-0.918503
C42	C	1.508529	-0.155088	-0.516087
C43	C	1.513576	-0.077023	-0.511139
C44	C	1.566910	-0.293259	-0.970524
C45	C	1.566930	-0.293229	-1.080246
C46	C	1.426735	-0.383056	-1.085917
C47	C	1.426711	-0.383083	-0.976196
C48	C	1.496667	-0.338298	-0.254733
C49	C	1.496848	-0.338128	-0.137946
H50	H	1.091550	-0.419879	-0.654575
H51	H	1.409326	-0.850376	-0.615056
H52	H	1.369615	-0.419666	-0.933840
Cl53	Cl	0.866934	-0.439800	-0.685589
H54	H	1.601508	-0.605639	-0.422919
Cl55	Cl	0.879855	-0.236781	-0.369885
Cl56	Cl	1.127520	-0.236764	-0.369844
Cl57	Cl	1.655023	-0.236813	-0.897999
H58	H	1.369670	-0.419612	-1.132904
Cl59	Cl	1.621840	-0.754947	-0.402762
Cl60	Cl	1.675206	-0.920888	-0.349623
Cl61	Cl	1.664716	-1.086447	-0.360212
Cl62	Cl	1.328848	-0.589401	-0.695220
H63	H	1.392055	-1.070214	-0.632517
Cl64	Cl	1.371725	-0.920907	-0.652682
H65	H	1.349173	-0.738721	-0.675047
H66	H	1.624015	-0.256644	-1.122597
H67	H	1.584239	-0.825482	-0.440382
