data_functionalizedCrystal
_audit_creation_method	'MofGen! by Chris Wilmer'
_symmetry_space_group_name_H-M	'P1'
_symmetry_Int_Tables_number	1
_symmetry_cell_setting	triclinic
loop_
_symmetry_equiv_pos_as_xyz
  x,y,z
_cell_length_a	14.853558
_cell_length_b	10.489716
_cell_length_c	13.330367
_cell_angle_alpha	89.999430
_cell_angle_beta	89.992972
_cell_angle_gamma	84.080135
loop_
_atom_site_label
_atom_site_type_symbol
_atom_site_fract_x
_atom_site_fract_y
_atom_site_fract_z
O1	O	1.197297	0.166473	-0.083402
O2	O	0.934947	0.186324	-0.083406
O3	O	1.072103	-0.009269	-0.083407
O4	O	1.060141	0.362066	-0.083400
O5	O	1.072083	-0.009273	0.083440
O6	O	0.934926	0.186319	0.083441
O7	O	1.197277	0.166469	0.083445
Cu8	Cu	1.066100	0.176394	0.098678
Cu9	Cu	1.066124	0.176399	-0.098638
O10	O	1.060120	0.362061	0.083447
C11	C	0.901343	0.185424	0.000017
C12	C	0.801244	0.182735	0.000015
C13	C	1.071194	-0.056793	0.000013
C14	C	1.068505	-0.198394	0.000004
C15	C	0.754227	0.181477	-0.090937
C16	C	0.754204	0.181457	0.090966
C17	C	0.660156	0.178924	0.090968
C18	C	0.613140	0.177665	0.000016
C19	C	0.660171	0.178939	-0.090938
C20	C	0.613119	0.177636	0.181920
C21	C	0.519065	0.175101	0.181925
C22	C	0.472047	0.173852	0.090972
C23	C	0.519084	0.175128	0.000015
C24	C	0.472067	0.173869	-0.090938
C25	C	0.519102	0.175154	-0.181896
C26	C	0.613153	0.177690	-0.181891
C27	C	0.377996	0.171316	0.090967
C28	C	0.378011	0.171332	-0.090939
C29	C	1.152614	-0.297016	0.000014
C30	C	1.108179	-0.373873	-0.082248
C31	C	1.108139	-0.373841	0.082250
C32	C	1.024105	-0.273386	-0.082326
C33	C	1.024078	-0.273349	0.082246
C34	C	0.979581	-0.350157	-0.000037
C35	C	1.230881	0.167368	0.000020
C36	C	1.330980	0.170057	0.000015
C37	C	1.061029	0.409586	0.000024
C38	C	1.063718	0.551186	0.000027
N39	N	1.066090	0.176389	0.237459
N40	N	1.066141	0.176393	-0.237420
C41	C	1.005388	0.262973	0.710083
C42	C	1.126884	0.089815	0.710049
C43	C	1.126873	0.089811	0.605031
C44	C	1.066120	0.176391	0.552534
C45	C	1.005378	0.262974	0.605055
C46	C	1.187621	0.003237	0.552502
C47	C	1.187614	0.003231	0.447477
C48	C	1.126856	0.089806	0.394978
C49	C	1.066110	0.176392	0.447506
C50	C	1.005357	0.262972	0.395008
C51	C	0.944606	0.349553	0.447534
C52	C	0.944620	0.349549	0.552556
C53	C	1.126843	0.089809	0.289957
C54	C	1.005347	0.262973	0.289980
H55	H	0.339737	0.170315	-0.165004
Br56	Br	1.167330	-0.446970	0.198163
H57	H	0.895144	0.420053	0.404779
Br58	Br	0.862179	0.467045	0.623841
H59	H	0.955871	0.333473	0.247243
Br60	Br	0.857553	-0.389506	-0.000105
H61	H	1.143693	-0.417767	-0.151796
Br62	Br	0.964957	-0.200115	0.198169
H63	H	0.480810	0.174122	-0.255949
Br64	Br	1.209340	-0.027671	0.781291
Br65	Br	0.922937	0.380464	0.781360
H66	H	1.237089	-0.067248	0.595249
Br67	Br	0.818055	0.183226	-0.214375
H68	H	0.792491	0.182471	0.165016
H69	H	0.651457	0.178734	-0.255945
H70	H	1.237080	-0.067269	0.404717
H71	H	1.176309	0.019322	0.247195
Br72	Br	0.676929	0.179345	0.305348
H73	H	0.480778	0.174053	0.255989
H74	H	0.339704	0.170281	0.165024
H75	H	0.988627	-0.229680	-0.151950
H76	H	1.225774	-0.273164	-0.000068
