data_functionalizedCrystal
_audit_creation_method	'MofGen! by Chris Wilmer'
_symmetry_space_group_name_H-M	'P1'
_symmetry_Int_Tables_number	1
_symmetry_cell_setting	triclinic
loop_
_symmetry_equiv_pos_as_xyz
  x,y,z
_cell_length_a	11.792254
_cell_length_b	11.792254
_cell_length_c	9.730223
_cell_angle_alpha	89.998472
_cell_angle_beta	89.999834
_cell_angle_gamma	84.198598
loop_
_atom_site_label
_atom_site_type_symbol
_atom_site_fract_x
_atom_site_fract_y
_atom_site_fract_z
O1	O	1.506901	0.155631	-0.114289
O2	O	2.006901	0.655631	0.385711
O3	O	1.176562	0.171648	-0.114292
O4	O	1.676562	0.671648	0.385708
O5	O	1.349740	-0.001530	-0.114281
O6	O	1.849740	0.498470	0.385719
O7	O	1.333723	0.328809	-0.114301
O8	O	1.833723	0.828809	0.385699
O9	O	1.349738	-0.001525	0.114299
O10	O	1.849738	0.498475	0.614299
O11	O	1.176560	0.171653	0.114287
O12	O	1.676560	0.671653	0.614287
O13	O	1.506899	0.155635	0.114291
O14	O	2.006899	0.655635	0.614291
Zn15	Zn	1.341729	0.163644	0.150581
Zn16	Zn	1.841729	0.663644	0.650581
Zn17	Zn	1.341732	0.163639	-0.150583
Zn18	Zn	1.841732	0.663639	0.349417
O19	O	1.333721	0.328813	0.114279
O20	O	1.833721	0.828813	0.614279
C21	C	1.134271	0.170642	-0.000003
C22	C	1.634271	0.670642	0.499997
C23	C	1.008257	0.167621	-0.000004
C24	C	1.508257	0.667621	0.499996
C25	C	1.348730	-0.043818	0.000008
C26	C	1.848730	0.456182	0.500008
C27	C	1.345710	-0.169832	0.000007
C28	C	1.845710	0.330168	0.500007
C29	C	0.905921	0.165168	-0.000009
C30	C	1.405921	0.665168	0.499991
C31	C	0.777534	0.162099	-0.000010
C32	C	1.277534	0.662099	0.499990
C33	C	1.343256	-0.272168	0.000002
C34	C	1.843256	0.227832	0.500002
C35	C	1.340188	-0.400555	-0.000010
C36	C	1.840188	0.099445	0.499990
C37	C	1.549190	0.156642	-0.000002
C38	C	2.049190	0.656642	0.499998
C39	C	1.675204	0.159662	-0.000010
C40	C	2.175204	0.659662	0.499990
C41	C	1.334731	0.371102	-0.000013
C42	C	1.834731	0.871102	0.499987
C43	C	1.337751	0.497115	-0.000021
C44	C	1.837751	0.997115	0.499979
N45	N	1.341736	0.163648	0.356117
N46	N	1.841736	0.663648	0.856117
N47	N	1.341734	0.163627	-0.356119
N48	N	1.841734	0.663627	0.143881
C49	C	1.418439	0.086991	0.428048
C50	C	1.918439	0.586991	0.928048
C51	C	1.418436	0.086977	0.571931
C52	C	1.918436	0.586977	1.071931
C53	C	1.265023	0.240287	0.571940
C54	C	1.765023	0.740287	1.071940
C55	C	1.265021	0.240295	0.428059
C56	C	1.765021	0.740295	0.928059
C57	C	1.507014	-0.001519	0.428045
C58	C	2.007014	0.498481	0.928045
C59	C	1.507011	-0.001533	0.571928
C60	C	2.007011	0.498467	1.071928
H61	H	1.202554	0.302705	0.369494
H62	H	1.702554	0.802705	0.869494
N63	N	1.616078	0.034810	0.368911
N64	N	2.116078	0.534810	0.868911
H65	H	1.598152	0.105128	0.310477
H66	H	2.098152	0.605128	0.810477
H67	H	1.668725	0.052298	0.446241
H68	H	2.168725	0.552298	0.946241
N69	N	1.182282	0.322950	0.649534
N70	N	1.682282	0.822950	1.149534
H71	H	1.193917	0.311312	0.751597
H72	H	1.693917	0.811312	1.251597
H73	H	1.195882	0.403563	0.624393
H74	H	1.695882	0.903563	1.124393
H75	H	1.487854	-0.088711	0.388996
H76	H	1.987854	0.411289	0.888996
H77	H	1.479642	-0.083906	0.616548
H78	H	1.979642	0.416094	1.116548
H79	H	1.594184	0.017695	0.610978
H80	H	2.094184	0.517695	1.110978
