data_functionalizedCrystal
_audit_creation_method	'MofGen! by Chris Wilmer'
_symmetry_space_group_name_H-M	'P1'
_symmetry_Int_Tables_number	1
_symmetry_cell_setting	triclinic
loop_
_symmetry_equiv_pos_as_xyz
  x,y,z
_cell_length_a	10.489741
_cell_length_b	15.944551
_cell_length_c	8.965430
_cell_angle_alpha	89.999468
_cell_angle_beta	89.998843
_cell_angle_gamma	84.018956
loop_
_atom_site_label
_atom_site_type_symbol
_atom_site_fract_x
_atom_site_fract_y
_atom_site_fract_z
O1	O	1.692411	0.118500	-0.123951
O2	O	1.321061	0.129624	-0.123974
O3	O	1.516876	0.001848	-0.123948
O4	O	1.496595	0.246276	-0.123977
O5	O	1.516860	0.001857	0.124130
O6	O	1.321044	0.129633	0.124105
O7	O	1.692394	0.118509	0.124128
Cu8	Cu	1.506718	0.124071	0.146768
Cu9	Cu	1.506737	0.124061	-0.146614
O10	O	1.496578	0.246285	0.124102
C11	C	1.273532	0.128788	0.000062
C12	C	1.131938	0.126275	0.000054
C13	C	1.064925	0.044975	0.000077
C14	C	0.972274	0.083376	-0.122240
C15	C	0.972291	0.083403	0.122346
C16	C	1.041152	0.164709	-0.122364
C17	C	1.041179	0.164726	0.122332
C18	C	0.948554	0.203186	-0.000015
C19	C	1.516026	-0.029446	0.000091
C20	C	1.513502	-0.122708	0.000092
C21	C	1.386093	-0.338330	0.000063
C22	C	1.445249	-0.398988	0.122385
C23	C	1.508935	-0.293461	0.000080
C24	C	1.445294	-0.398979	-0.122201
C25	C	1.504515	-0.458400	0.000062
C26	C	1.568126	-0.352890	0.122503
C27	C	1.568154	-0.352875	-0.122193
C28	C	1.627399	-0.413515	0.000158
C29	C	1.511478	-0.198443	0.000092
C30	C	1.501982	-0.553417	0.000061
C31	C	1.739922	0.119345	0.000088
C32	C	1.881517	0.121858	0.000087
C33	C	1.497429	0.277579	0.000059
C34	C	1.499953	0.370841	0.000049
N35	N	1.506713	0.124078	0.353117
N36	N	1.506752	0.124048	-0.352963
C37	C	1.416127	0.183150	0.450411
C38	C	1.531388	0.200146	0.549830
C39	C	1.391501	0.107089	0.549826
C40	C	1.622032	0.141112	0.450347
C41	C	1.482069	0.048022	0.450334
C42	C	1.597413	0.064986	0.549708
H43	H	1.071510	0.199079	-0.225891
H44	H	1.620032	-0.332584	0.226030
O45	O	1.383469	-0.423411	0.245854
C46	C	1.467990	-0.478824	0.331126
H47	H	1.571138	-0.467985	0.303803
H48	H	1.449144	-0.466534	0.454839
H49	H	1.452033	-0.546761	0.303690
O50	O	1.125330	-0.034751	0.000211
C51	C	1.201762	-0.047040	0.129300
H52	H	1.163548	-0.000447	0.219159
H53	H	1.198660	-0.114184	0.171796
H54	H	1.304881	-0.036427	0.101332
H55	H	1.729454	-0.446060	0.000234
O56	O	0.888531	0.283014	-0.000360
C57	C	0.923660	0.325551	-0.129480
H58	H	0.956925	0.277526	-0.219206
H59	H	0.837578	0.368375	-0.172170
H60	H	1.004882	0.365150	-0.101474
H61	H	0.941743	0.048972	-0.225644
O62	O	1.629908	-0.328508	-0.245711
C63	C	1.564835	-0.351758	-0.374429
H64	H	1.460844	-0.359148	-0.345130
H65	H	1.567957	-0.300816	-0.463190
H66	H	1.613081	-0.414110	-0.419054
O67	O	1.383129	-0.423207	-0.245530
C68	C	1.255950	-0.384576	-0.245048
H69	H	1.249832	-0.325212	-0.173440
H70	H	1.225384	-0.367054	-0.364005
H71	H	1.189794	-0.430224	-0.197314
O72	O	1.077621	0.205611	0.245845
C73	C	1.042913	0.162547	0.374568
H74	H	1.032639	0.094004	0.345270
H75	H	1.120243	0.165066	0.463322
H76	H	0.947793	0.193747	0.419199
O77	O	1.456977	-0.028599	0.397961
C78	C	1.345399	-0.018994	0.309297
H79	H	1.329557	0.048462	0.265758
H80	H	1.357023	-0.064626	0.211177
H81	H	1.259393	-0.033052	0.379257
O82	O	1.264535	-0.299188	0.000118
C83	C	1.268543	-0.211077	-0.001167
H84	H	1.364201	-0.195870	-0.048911
H85	H	1.187058	-0.180393	-0.073175
H86	H	1.257610	-0.185718	0.117544
H87	H	0.941783	0.048992	0.225756
H88	H	1.294052	0.092733	0.593526
H89	H	1.339592	0.233152	0.406812
O90	O	1.556073	0.276918	0.601911
C91	C	1.460346	0.339035	0.551300
H92	H	1.369846	0.308371	0.523403
H93	H	1.438143	0.388331	0.642308
H94	H	1.495640	0.370635	0.447267
H95	H	1.719502	0.155545	0.406834
H96	H	1.674119	0.015015	0.593033
