data_functionalizedCrystal
_audit_creation_method	'MofGen! by Chris Wilmer'
_symmetry_space_group_name_H-M	'P1'
_symmetry_Int_Tables_number	1
_symmetry_cell_setting	triclinic
loop_
_symmetry_equiv_pos_as_xyz
  x,y,z
_cell_length_a	17.038272
_cell_length_b	16.109301
_cell_length_c	14.586319
_cell_angle_alpha	89.996198
_cell_angle_beta	90.002130
_cell_angle_gamma	87.286570
loop_
_atom_site_label
_atom_site_type_symbol
_atom_site_fract_x
_atom_site_fract_y
_atom_site_fract_z
O1	O	-1.037364	-0.180538	0.076126
O2	O	-0.704031	0.152795	0.409459
O3	O	-0.370698	0.486128	0.742793
O4	O	-0.809734	-0.177672	0.076153
O5	O	-0.476400	0.155662	0.409486
O6	O	-0.143067	0.488995	0.742820
O7	O	-0.929802	-0.058518	0.076133
O8	O	-0.596469	0.274815	0.409466
O9	O	-0.263136	0.608148	0.742799
O10	O	-0.917296	-0.299692	0.076146
O11	O	-0.583963	0.033641	0.409480
O12	O	-0.250629	0.366975	0.742813
O13	O	-0.929794	-0.058516	-0.076348
O14	O	-0.596461	0.274818	0.256985
O15	O	-0.263127	0.608151	0.590319
O16	O	-0.809725	-0.177669	-0.076328
O17	O	-0.476392	0.155664	0.257005
O18	O	-0.143059	0.488997	0.590339
O19	O	-1.037356	-0.180536	-0.076355
O20	O	-0.704023	0.152797	0.256979
O21	O	-0.370689	0.486131	0.590312
Cu22	Cu	-0.923540	-0.179102	-0.090264
Cu23	Cu	-0.590207	0.154231	0.243069
Cu24	Cu	-0.256873	0.487564	0.576403
Cu25	Cu	-0.923550	-0.179105	0.090062
Cu26	Cu	-0.590217	0.154228	0.423396
Cu27	Cu	-0.256883	0.487561	0.756729
O28	O	-0.917288	-0.299689	-0.076335
O29	O	-0.583954	0.033644	0.256999
O30	O	-0.250621	0.366977	0.590332
C31	C	-0.780601	-0.175063	-0.000084
C32	C	-0.447268	0.158270	0.333249
C33	C	-0.113935	0.491604	0.666583
C34	C	-0.693808	-0.167284	-0.000074
C35	C	-0.360475	0.166049	0.333259
C36	C	-0.027142	0.499383	0.666593
C37	C	-1.066488	-0.183145	-0.000116
C38	C	-0.733155	0.150189	0.333218
C39	C	-0.399822	0.483522	0.666551
C40	C	-1.153281	-0.190924	-0.000120
C41	C	-0.819948	0.142410	0.333213
C42	C	-0.486615	0.475743	0.666547
C43	C	-0.643694	-0.238705	-0.000071
C44	C	-0.310360	0.094629	0.333263
C45	C	0.022973	0.427962	0.666596
C46	C	-0.562143	-0.231391	-0.000084
C47	C	-0.228810	0.101943	0.333250
C48	C	0.104523	0.435276	0.666583
C49	C	-0.530709	-0.152655	-0.000093
C50	C	-0.197376	0.180678	0.333240
C51	C	0.135958	0.514012	0.666573
C52	C	-0.580830	-0.081229	-0.000100
C53	C	-0.247497	0.252104	0.333234
C54	C	0.085836	0.585438	0.666567
C55	C	-0.662379	-0.088544	-0.000093
C56	C	-0.329046	0.244789	0.333240
C57	C	0.004288	0.578123	0.666574
C58	C	-0.284951	-0.126813	-0.000119
C59	C	0.048382	0.206521	0.333214
C60	C	0.381715	0.539854	0.666547
C61	C	-0.203396	-0.119503	-0.000123
C62	C	0.129937	0.213830	0.333210
C63	C	0.463271	0.547164	0.666543
C64	C	-0.184715	-0.269665	-0.000109
C65	C	0.148619	0.063668	0.333224
C66	C	0.481952	0.397001	0.666558
C67	C	-0.266266	-0.276973	-0.000097
C68	C	0.067067	0.056360	0.333236
C69	C	0.400401	0.389693	0.666570
C70	C	-0.316380	-0.205547	-0.000108
C71	C	0.016953	0.127786	0.333225
C72	C	0.350287	0.461119	0.666559
C73	C	-0.447352	-0.145177	-0.000104
C74	C	-0.114018	0.188157	0.333229
C75	C	0.219315	0.521490	0.666563
C76	C	-0.399736	-0.213026	-0.000104
C77	C	-0.066403	0.120307	0.333229
C78	C	0.266931	0.453640	0.666563
C79	C	-0.929291	-0.027506	-0.000107
C80	C	-0.595958	0.305827	0.333226
C81	C	-0.262625	0.639161	0.666559
C82	C	-0.927773	0.064897	-0.000106
C83	C	-0.594439	0.398230	0.333227
C84	C	-0.261106	0.731564	0.666561
C85	C	-0.917798	-0.330702	-0.000093
C86	C	-0.584465	0.002632	0.333241
C87	C	-0.251132	0.335965	0.666574
C88	C	-0.919317	-0.423105	-0.000088
C89	C	-0.585984	-0.089771	0.333245
C90	C	-0.252651	0.243562	0.666579
C91	C	-0.994054	0.369188	-0.000098
C92	C	-0.660720	0.702521	0.333235
C93	C	-0.327387	1.035855	0.666569
C94	C	-0.995488	0.282366	-0.000103
C95	C	-0.662155	0.615699	0.333230
C96	C	-0.328821	0.949033	0.666563
C97	C	-0.853031	0.272610	-0.000099
C98	C	-0.519697	0.605943	0.333235
C99	C	-0.186364	0.939277	0.666568
C100	C	-0.851597	0.359430	-0.000100
C101	C	-0.518264	0.692764	0.333234
C102	C	-0.184930	1.026097	0.666567
C103	C	-0.922111	0.407717	-0.000095
C104	C	-0.588778	0.741051	0.333239
C105	C	-0.255444	1.074384	0.666572
C106	C	-0.924979	0.234075	-0.000099
C107	C	-0.591646	0.567408	0.333234
C108	C	-0.258312	0.900741	0.666568
C109	C	-0.926534	0.139938	-0.000105
C110	C	-0.593200	0.473272	0.333228
C111	C	-0.259867	0.806605	0.666562
C112	C	-0.920556	0.501860	-0.000091
C113	C	-0.587223	0.835193	0.333243
C114	C	-0.253890	1.168527	0.666576
N115	N	-0.923539	-0.179100	-0.217096
N116	N	-0.590205	0.154233	0.116238
N117	N	-0.256872	0.487566	0.449571
C118	C	-0.976723	-0.126359	-0.452111
C119	C	-0.643389	0.206974	-0.118778
C120	C	-0.310056	0.540307	0.214555
C121	C	-0.976725	-0.126357	-0.548092
C122	C	-0.643392	0.206976	-0.214759
C123	C	-0.310058	0.540309	0.118574
C124	C	-0.870368	-0.231845	-0.548084
C125	C	-0.537034	0.101489	-0.214751
C126	C	-0.203701	0.434822	0.118583
C127	C	-0.870362	-0.231842	-0.452104
C128	C	-0.537029	0.101492	-0.118771
C129	C	-0.203696	0.434825	0.214562
C130	C	-0.923544	-0.179100	-0.404121
C131	C	-0.590211	0.154233	-0.070787
C132	C	-0.256878	0.487566	0.262546
C133	C	-0.923552	-0.179101	-0.596081
C134	C	-0.590219	0.154232	-0.262748
C135	C	-0.256885	0.487565	0.070585
C136	C	-0.923554	-0.179100	-0.700148
C137	C	-0.590221	0.154234	-0.366815
C138	C	-0.256887	0.487567	-0.033482
C139	C	-0.923541	-0.179100	-0.300047
C140	C	-0.590208	0.154233	0.033287
C141	C	-0.256875	0.487566	0.366620
N142	N	-0.923557	-0.179101	0.216894
N143	N	-0.590224	0.154232	0.550227
N144	N	-0.256891	0.487565	0.883561
H145	H	-0.669281	-0.302820	-0.000062
H146	H	-0.335947	0.030514	0.333271
H147	H	-0.002614	0.363847	0.666605
H148	H	-1.020025	-0.083413	-0.413045
H149	H	-0.686692	0.249921	-0.079712
H150	H	-0.353359	0.583254	0.253622
H151	H	-0.793009	0.390801	-0.000101
H152	H	-0.459676	0.724135	0.333232
H153	H	-0.126343	1.057468	0.666565
H154	H	-0.555230	-0.017121	-0.000121
H155	H	-0.221897	0.316213	0.333213
H156	H	0.111436	0.649546	0.666546
H157	H	-0.827054	-0.274790	-0.413028
H158	H	-0.493721	0.058544	-0.079694
H159	H	-0.160388	0.391877	0.253639
F160	F	-0.777989	0.221212	-0.000099
F161	F	-0.444656	0.554546	0.333235
F162	F	-0.111323	0.887879	0.666568
H163	H	-0.521343	-0.289549	-0.000080
H164	H	-0.188009	0.043784	0.333253
H165	H	0.145324	0.377117	0.666587
H166	H	-1.020027	-0.083410	-0.587164
H167	H	-0.686693	0.249923	-0.253830
H168	H	-0.353360	0.583257	0.079503
H169	H	-0.291853	-0.341088	-0.000078
H170	H	0.041480	-0.007755	0.333255
H171	H	0.374814	0.325579	0.666588
F172	F	-0.131375	-0.345676	-0.000099
F173	F	0.201959	-0.012343	0.333234
F174	F	0.535292	0.320990	0.666567
F175	F	-0.715715	-0.012528	-0.000100
F176	F	-0.382382	0.320805	0.333234
F177	F	-0.049048	0.654139	0.666567
F178	F	-0.169944	-0.035698	-0.000150
F179	F	0.163389	0.297635	0.333184
F180	F	0.496723	0.630969	0.666517
F181	F	-0.813772	-0.287975	-0.599158
F182	F	-0.480439	0.045358	-0.265825
F183	F	-0.147106	0.378691	0.067509
F184	F	-0.413890	-0.061382	-0.000111
F185	F	-0.080556	0.271951	0.333222
F186	F	0.252777	0.605284	0.666556
H187	H	-0.325745	-0.068652	-0.000129
H188	H	0.007588	0.264681	0.333204
H189	H	0.340922	0.598015	0.666538
H190	H	-0.425333	-0.277132	-0.000101
H191	H	-0.092000	0.056201	0.333232
H192	H	0.241334	0.389534	0.666566
H193	H	-1.051471	0.408501	-0.000094
H194	H	-0.718137	0.741835	0.333240
H195	H	-0.384804	1.075168	0.666573
F196	F	-1.072059	0.241364	-0.000105
F197	F	-0.738726	0.574698	0.333229
F198	F	-0.405393	0.908031	0.666562
