data_functionalizedCrystal
_audit_creation_method	'MofGen! by Chris Wilmer'
_symmetry_space_group_name_H-M	'P1'
_symmetry_Int_Tables_number	1
_symmetry_cell_setting	triclinic
loop_
_symmetry_equiv_pos_as_xyz
  x,y,z
_cell_length_a	6.394989
_cell_length_b	8.634740
_cell_length_c	7.681481
_cell_angle_alpha	96.618947
_cell_angle_beta	84.093919
_cell_angle_gamma	93.534009
loop_
_atom_site_label
_atom_site_type_symbol
_atom_site_fract_x
_atom_site_fract_y
_atom_site_fract_z
O1	O	0.700590	2.045099	-0.146397
O2	O	0.643261	1.595032	-0.146404
O3	O	0.369147	1.826454	-0.146402
O4	O	0.974704	1.813678	-0.146399
O5	O	0.335319	1.854936	0.146456
O6	O	0.609432	1.623515	0.146454
O7	O	0.666761	2.073581	0.146461
Zn8	Zn	0.632726	1.853070	0.192955
Zn9	Zn	0.677296	1.815543	-0.192898
O10	O	0.940875	1.842160	0.146459
C11	C	0.613359	1.551571	0.000024
C12	C	0.574636	1.379635	0.000021
C13	C	1.036120	1.830444	0.000022
C14	C	1.273909	1.838164	0.000017
C15	C	0.696663	2.117043	0.000029
C16	C	0.735388	2.288978	0.000020
N17	N	0.602309	1.878693	0.456289
N18	N	0.707699	1.789933	-0.456232
H19	H	0.407391	1.325710	-0.000025
H20	H	0.902648	1.342906	0.000033
Cl21	Cl	0.873784	1.650040	0.427671
Cl22	Cl	0.436241	2.018609	0.572393
