data_functionalizedCrystal
_audit_creation_method	'MofGen! by Chris Wilmer'
_symmetry_space_group_name_H-M	'P1'
_symmetry_Int_Tables_number	1
_symmetry_cell_setting	triclinic
loop_
_symmetry_equiv_pos_as_xyz
  x,y,z
_cell_length_a	16.974800
_cell_length_b	15.538191
_cell_length_c	16.053802
_cell_angle_alpha	91.543625
_cell_angle_beta	91.074188
_cell_angle_gamma	65.370814
loop_
_atom_site_label
_atom_site_type_symbol
_atom_site_fract_x
_atom_site_fract_y
_atom_site_fract_z
O1	O	1.014750	0.119994	-0.000831
O2	O	0.781166	0.134404	-0.016620
O3	O	0.943427	-0.009817	-0.005656
O4	O	0.852488	0.264215	-0.011795
O5	O	0.934505	-0.001911	0.132600
O6	O	0.772244	0.142310	0.121636
O7	O	1.005828	0.127900	0.137425
Zn8	Zn	0.887619	0.136360	0.151482
Zn9	Zn	0.899374	0.125944	-0.030677
O10	O	0.843566	0.272121	0.126461
C11	C	0.747540	0.137664	0.050536
C12	C	0.660641	0.135589	0.044662
C13	C	0.614958	0.138920	0.117267
C14	C	0.533313	0.136955	0.111750
C15	C	0.497350	0.131665	0.033627
C16	C	0.543041	0.128330	-0.038984
C17	C	0.624687	0.130288	-0.033466
C18	C	0.253689	0.125339	0.009043
C19	C	0.172036	0.123383	0.003530
C20	C	0.162315	0.132007	0.154265
C21	C	0.243961	0.133971	0.159776
C22	C	0.289646	0.130631	0.087166
N23	N	0.413895	0.129659	0.027986
N24	N	0.373102	0.132630	0.092808
C25	C	0.948481	-0.040936	0.064112
C26	C	0.976822	-0.145439	0.066020
C27	C	0.695264	-0.433933	0.047006
C28	C	0.721914	-0.532132	0.048809
C29	C	0.871815	-0.554200	0.058941
C30	C	0.845178	-0.456001	0.057135
C31	C	0.756901	-0.395875	0.051168
C32	C	0.906815	-0.417943	0.061297
C33	C	0.880180	-0.319752	0.059495
C34	C	0.791907	-0.259620	0.053531
C35	C	0.730266	-0.297684	0.049366
C36	C	0.995091	-0.478070	0.067270
C37	C	1.056728	-0.440012	0.071432
C38	C	1.030093	-0.341820	0.069624
C39	C	0.941820	-0.281688	0.063660
C40	C	1.091734	-0.303756	0.073789
C41	C	1.065099	-0.205565	0.071987
C42	C	0.915185	-0.183497	0.061858
C43	C	1.039454	0.124640	0.070267
C44	C	1.126353	0.126715	0.076136
C45	C	0.838513	0.303240	0.056691
C46	C	0.810172	0.407743	0.054778
N47	N	0.879603	0.143468	0.275800
N48	N	0.907399	0.118829	-0.154995
C49	C	0.948658	0.082124	0.324160
C50	C	0.943055	0.087105	0.411188
C51	C	0.868399	0.153435	0.449855
C52	C	0.799337	0.214782	0.401488
C53	C	0.804939	0.209796	0.314462
C54	C	0.843939	0.175189	0.709612
C55	C	0.838344	0.180173	0.796645
C56	C	0.982062	0.052494	0.806339
C57	C	0.987658	0.047517	0.719311
C58	C	0.918595	0.108861	0.670951
N59	N	0.862671	0.158530	0.538812
N60	N	0.924321	0.103760	0.581996
H61	H	0.843301	-0.134539	0.056993
H62	H	0.661881	0.127577	-0.092589
H63	H	0.273237	0.138274	0.223393
H64	H	0.623381	-0.384974	0.042140
H65	H	0.125110	0.134725	0.213381
H66	H	1.038289	0.002549	0.845721
H67	H	1.115290	-0.174578	0.075377
H68	H	0.770221	-0.179667	0.052068
H69	H	0.671714	-0.563113	0.045431
O70	O	1.020938	-0.573456	0.068867
C71	C	1.022625	-0.712403	-0.002941
C72	C	0.993318	-0.604381	-0.004863
H73	H	1.000291	-0.737436	-0.062537
H74	H	1.096306	-0.748890	0.001990
H75	H	0.992921	-0.730845	0.053187
H76	H	1.022960	-0.585852	-0.060985
H77	H	0.919632	-0.567952	-0.009751
O78	O	1.060225	-0.017004	0.681885
C79	C	1.202202	-0.143082	0.700689
C80	C	1.120060	-0.070075	0.743179
H81	H	1.250608	-0.185996	0.750226
H82	H	1.184342	-0.192614	0.658595
H83	H	1.232489	-0.104630	0.661780
H84	H	1.089733	-0.108447	0.782131
H85	H	1.137973	-0.020546	0.785224
O86	O	0.726815	0.279091	0.439140
C87	C	0.607199	0.304410	0.529729
C88	C	0.689323	0.231479	0.487156
H89	H	0.576853	0.265943	0.568545
H90	H	0.625075	0.353870	0.571901
H91	H	0.558834	0.347417	0.480201
H92	H	0.737725	0.188406	0.536626
H93	H	0.671381	0.182084	0.444966
H94	H	1.009453	0.028114	0.292684
H95	H	0.999284	0.037153	0.450563
H96	H	0.748706	0.259748	0.275087
O97	O	0.137136	0.118371	-0.072412
C98	C	0.088159	0.191919	-0.205085
C99	C	0.127712	0.197693	-0.119126
H100	H	0.080511	0.256051	-0.242871
H101	H	0.132645	0.124401	-0.239470
H102	H	0.021975	0.191057	-0.196525
H103	H	0.193888	0.198593	-0.127611
H104	H	0.083165	0.265202	-0.084771
H105	H	0.943690	-0.603167	0.063803
O106	O	0.765736	0.244628	0.834072
C107	C	0.623787	0.370759	0.815279
C108	C	0.705952	0.297803	0.772785
H109	H	0.575437	0.413784	0.765748
H110	H	0.593406	0.332359	0.854135
H111	H	0.641721	0.420194	0.857425
H112	H	0.688091	0.248348	0.730599
H113	H	0.736312	0.336265	0.733980
H114	H	0.658382	-0.248725	0.044501
H115	H	1.128603	-0.488980	0.076294
H116	H	0.496127	0.139653	0.170874
O117	O	1.177450	-0.362304	0.079551
C118	C	1.284916	-0.523350	0.086884
C119	C	1.187818	-0.457156	0.080335
H120	H	1.293329	-0.600051	0.087538
H121	H	1.320413	-0.512878	0.031156
H122	H	1.312891	-0.506112	0.146872
H123	H	1.159766	-0.474353	0.020381
H124	H	1.152383	-0.467640	0.136106
H125	H	0.787706	0.225140	0.670245
H126	H	0.290878	0.122616	-0.050082
H127	H	0.644229	0.143236	0.180884
O128	O	0.507967	0.123233	-0.114809
C129	C	0.386519	0.116342	-0.190113
C130	C	0.426128	0.122134	-0.104188
H131	H	0.320354	0.115432	-0.181555
H132	H	0.378863	0.180432	-0.227969
H133	H	0.431055	0.048800	-0.224431
H134	H	0.381629	0.189636	-0.069800
H135	H	0.433802	0.057997	-0.066394
