data_functionalizedCrystal
_audit_creation_method	'MofGen! by Chris Wilmer'
_symmetry_space_group_name_H-M	'P1'
_symmetry_Int_Tables_number	1
_symmetry_cell_setting	triclinic
loop_
_symmetry_equiv_pos_as_xyz
  x,y,z
_cell_length_a	16.992694
_cell_length_b	11.792241
_cell_length_c	15.455313
_cell_angle_alpha	92.683265
_cell_angle_beta	87.142206
_cell_angle_gamma	87.430819
loop_
_atom_site_label
_atom_site_type_symbol
_atom_site_fract_x
_atom_site_fract_y
_atom_site_fract_z
O1	O	1.044827	0.236106	-0.072022
O2	O	0.816531	0.233463	-0.072048
O3	O	0.936219	0.070068	-0.072029
O4	O	0.925139	0.399501	-0.072042
O5	O	0.929374	0.079370	0.072232
O6	O	0.809687	0.242766	0.072213
O7	O	1.037982	0.245409	0.072239
Cu8	Cu	0.923210	0.244937	0.085398
Cu9	Cu	0.931304	0.233935	-0.085207
O10	O	0.918295	0.408804	0.072219
C11	C	0.783882	0.234716	0.000079
C12	C	0.696795	0.224578	0.000070
C13	C	0.932101	0.032371	0.000102
C14	C	0.930017	-0.093813	0.000101
C15	C	0.646971	0.322395	0.000066
C16	C	0.565143	0.312864	0.000079
C17	C	0.533142	0.205513	0.000088
C18	C	0.582973	0.107688	0.000094
C19	C	0.664799	0.117221	0.000088
C20	C	0.289375	0.166002	0.000113
C21	C	0.207543	0.156476	0.000117
C22	C	0.189719	0.361652	0.000103
C23	C	0.271548	0.371176	0.000091
C24	C	0.321371	0.273351	0.000102
N25	N	0.449501	0.195767	0.000098
N26	N	0.405010	0.283098	0.000098
C27	C	0.926187	-0.324840	0.000086
C28	C	0.928315	-0.196280	0.000094
C29	C	1.070631	0.244155	0.000109
C30	C	1.157718	0.254293	0.000113
C31	C	0.922413	0.446501	0.000087
C32	C	0.924497	0.572684	0.000082
N33	N	0.917522	0.252674	0.205393
N34	N	0.936998	0.226189	-0.205202
C35	C	0.968388	0.183287	0.250795
C36	C	0.964094	0.189150	0.341602
C37	C	0.908938	0.264406	0.387005
C38	C	0.858067	0.333796	0.341597
C39	C	0.862358	0.327927	0.250791
C40	C	0.890417	0.289710	0.658584
C41	C	0.886132	0.295576	0.749396
C42	C	0.992158	0.150928	0.749395
C43	C	0.996447	0.145070	0.658588
C44	C	0.945574	0.214455	0.613187
N45	N	0.904549	0.270403	0.479825
N46	N	0.949959	0.208452	0.520369
H47	H	0.673020	0.409812	0.000058
C48	C	0.547773	-0.010395	0.000103
H49	H	0.491905	-0.002066	0.000097
H50	H	0.562465	-0.047742	0.050410
H51	H	0.567228	-0.054225	-0.050210
C52	C	1.048107	0.074599	0.799337
H53	H	1.037649	0.088863	0.859920
H54	H	1.101211	0.090754	0.784447
H55	H	1.039962	-0.002922	0.784464
H56	H	1.013305	0.122010	0.213834
C57	C	1.057153	0.062343	0.608646
H58	H	1.052439	0.068810	0.548063
H59	H	1.047653	-0.013274	0.623515
H60	H	1.108836	0.080492	0.623542
C61	C	1.020043	0.112824	0.391545
H62	H	1.009583	0.127085	0.452128
H63	H	1.073147	0.128986	0.376658
H64	H	1.011904	0.035302	0.376670
H65	H	0.848996	0.346209	0.621625
C66	C	0.806409	0.404253	0.200844
H67	H	0.816859	0.389972	0.140262
H68	H	0.814541	0.481773	0.215713
H69	H	0.753304	0.388082	0.215736
C70	C	0.306743	0.489262	0.000094
H71	H	0.265348	0.546156	0.000103
H72	H	0.340675	0.494008	-0.050213
H73	H	0.335910	0.500482	0.050407
C74	C	0.797398	0.416579	0.391537
H75	H	0.802132	0.410147	0.452121
H76	H	0.745700	0.398497	0.376667
H77	H	0.806946	0.492177	0.376642
C78	C	0.344174	0.058402	0.000112
H79	H	0.397491	0.079447	0.000115
H80	H	0.336804	0.011448	-0.050194
H81	H	0.332045	0.017933	0.050427
H82	H	0.524579	0.392517	0.000075
H83	H	0.149144	0.441295	0.000096
C84	C	0.825416	0.378298	0.799338
H85	H	0.795715	0.418756	0.759294
H86	H	0.852116	0.430458	0.834773
H87	H	0.790939	0.336684	0.834748
H88	H	0.705366	0.037568	0.000090
C89	C	0.172343	0.038385	0.000129
H90	H	0.213734	-0.018511	0.000141
H91	H	0.143175	0.027157	-0.050177
H92	H	0.138411	0.033655	0.050443
