data_functionalizedCrystal
_audit_creation_method	'MofGen! by Chris Wilmer'
_symmetry_space_group_name_H-M	'P1'
_symmetry_Int_Tables_number	1
_symmetry_cell_setting	triclinic
loop_
_symmetry_equiv_pos_as_xyz
  x,y,z
_cell_length_a	14.044220
_cell_length_b	14.044191
_cell_length_c	10.868271
_cell_angle_alpha	89.998192
_cell_angle_beta	89.993930
_cell_angle_gamma	93.190327
loop_
_atom_site_label
_atom_site_type_symbol
_atom_site_fract_x
_atom_site_fract_y
_atom_site_fract_z
O1	O	0.230200	1.277172	-0.102268
O2	O	0.480200	1.527172	0.147732
O3	O	0.730200	1.777172	0.397732
O4	O	0.980200	2.027172	0.647732
O5	O	0.221888	1.000500	-0.102284
O6	O	0.471888	1.250500	0.147716
O7	O	0.721888	1.500500	0.397716
O8	O	0.971888	1.750500	0.647716
O9	O	0.087708	1.134683	-0.102264
O10	O	0.337708	1.384683	0.147736
O11	O	0.587708	1.634683	0.397736
O12	O	0.837708	1.884683	0.647736
O13	O	0.364380	1.142989	-0.102288
O14	O	0.614380	1.392989	0.147712
O15	O	0.864380	1.642989	0.397712
O16	O	1.114380	1.892989	0.647712
O17	O	0.087702	1.134671	0.102381
O18	O	0.337702	1.384671	0.352381
O19	O	0.587702	1.634671	0.602381
O20	O	0.837702	1.884671	0.852381
O21	O	0.221881	1.000487	0.102361
O22	O	0.471881	1.250487	0.352361
O23	O	0.721881	1.500487	0.602361
O24	O	0.971881	1.750487	0.852361
O25	O	0.230194	1.277160	0.102376
O26	O	0.480194	1.527160	0.352376
O27	O	0.730194	1.777160	0.602376
O28	O	0.980194	2.027160	0.852376
Zn29	Zn	0.226036	1.138821	0.134860
Zn30	Zn	0.476036	1.388821	0.384860
Zn31	Zn	0.726036	1.638821	0.634860
Zn32	Zn	0.976036	1.888821	0.884860
Zn33	Zn	0.226045	1.138838	-0.134768
Zn34	Zn	0.476045	1.388838	0.115232
Zn35	Zn	0.726045	1.638838	0.365232
Zn36	Zn	0.976045	1.888838	0.615232
O37	O	0.364373	1.142976	0.102357
O38	O	0.614373	1.392976	0.352357
O39	O	0.864373	1.642976	0.602357
O40	O	1.114373	1.892976	0.852357
C41	C	0.218248	0.964872	0.000037
C42	C	0.468248	1.214872	0.250037
C43	C	0.718248	1.464872	0.500037
C44	C	0.968248	1.714872	0.750037
C45	C	0.207401	0.858728	0.000031
C46	C	0.457401	1.108728	0.250031
C47	C	0.707401	1.358728	0.500031
C48	C	0.957401	1.608728	0.750031
C49	C	0.052083	1.131041	0.000059
C50	C	0.302083	1.381041	0.250059
C51	C	0.552083	1.631041	0.500059
C52	C	0.802083	1.881041	0.750059
C53	C	-0.054060	1.120197	0.000060
C54	C	0.195940	1.370197	0.250060
C55	C	0.445940	1.620197	0.500060
C56	C	0.695940	1.870197	0.750060
C57	C	0.264501	0.613270	0.000039
C58	C	0.514501	0.863270	0.250039
C59	C	0.764501	1.113270	0.500039
C60	C	1.014501	1.363270	0.750039
C61	C	0.187585	0.664395	0.000043
C62	C	0.437585	0.914395	0.250043
C63	C	0.687585	1.164395	0.500043
C64	C	0.937585	1.414395	0.750043
C65	C	0.198613	0.772532	0.000037
C66	C	0.448613	1.022532	0.250037
C67	C	0.698613	1.272532	0.500037
C68	C	0.948613	1.522532	0.750037
C69	C	0.253474	0.505123	0.000045
C70	C	0.503474	0.755123	0.250045
C71	C	0.753474	1.005123	0.500045
C72	C	1.003474	1.255123	0.750045
C73	C	-0.248398	1.100370	0.000041
C74	C	0.001602	1.350370	0.250041
C75	C	0.251602	1.600370	0.500041
C76	C	0.501602	1.850370	0.750041
C77	C	-0.299526	1.177285	0.000041
C78	C	-0.049526	1.427285	0.250041
C79	C	0.200474	1.677285	0.500041
C80	C	0.450474	1.927285	0.750041
C81	C	-0.407663	1.166253	0.000031
C82	C	-0.157663	1.416253	0.250031
C83	C	0.092337	1.666253	0.500031
C84	C	0.342337	1.916253	0.750031
C85	C	-0.140252	1.111400	0.000051
C86	C	0.109748	1.361400	0.250051
C87	C	0.359748	1.611400	0.500051
C88	C	0.609748	1.861400	0.750051
C89	C	0.399998	1.146618	0.000031
C90	C	0.649998	1.396618	0.250031
C91	C	0.899998	1.646618	0.500031
C92	C	1.149998	1.896618	0.750031
C93	C	0.506142	1.157463	0.000022
C94	C	0.756142	1.407463	0.250022
C95	C	1.006142	1.657463	0.500022
C96	C	1.256142	1.907463	0.750022
C97	C	0.233834	1.312788	0.000053
C98	C	0.483834	1.562788	0.250053
C99	C	0.733834	1.812788	0.500053
C100	C	0.983834	2.062788	0.750053
C101	C	0.244681	1.418931	0.000051
C102	C	0.494681	1.668931	0.250051
C103	C	0.744681	1.918931	0.500051
C104	C	0.994681	2.168931	0.750051
N105	N	0.226030	1.138817	0.318875
N106	N	0.476030	1.388817	0.568875
N107	N	0.726030	1.638817	0.818875
N108	N	0.976030	1.888817	1.068875
N109	N	0.226044	1.138849	-0.318782
N110	N	0.476044	1.388849	-0.068782
N111	N	0.726044	1.638849	0.181218
N112	N	0.976044	1.888849	0.431218
C113	C	0.226043	1.138833	0.569881
C114	C	0.476043	1.388833	0.819881
C115	C	0.726043	1.638833	1.069881
C116	C	0.976043	1.888833	1.319881
C117	C	0.226038	1.138821	0.430203
C118	C	0.476038	1.388821	0.680203
C119	C	0.726038	1.638821	0.930203
C120	C	0.976038	1.888821	1.180203
H121	H	0.113452	0.626952	-0.000037
H122	H	0.363452	0.876952	0.249963
H123	H	0.613452	1.126952	0.499963
H124	H	0.863452	1.376952	0.749963
H125	H	0.338628	0.650711	0.000029
H126	H	0.588628	0.900711	0.250029
H127	H	0.838628	1.150711	0.500029
H128	H	1.088628	1.400711	0.750029
O129	O	-0.254716	1.265659	0.000113
O130	O	-0.004716	1.515659	0.250113
O131	O	0.245284	1.765659	0.500113
O132	O	0.495284	2.015659	0.750113
C133	C	-0.155157	1.257146	0.000092
C134	C	0.094843	1.507146	0.250092
C135	C	0.344843	1.757146	0.500092
C136	C	0.594843	2.007146	0.750092
H137	H	-0.138199	1.184580	0.038824
H138	H	0.111801	1.434580	0.288824
H139	H	0.361801	1.684580	0.538824
H140	H	0.611801	1.934580	0.788824
H141	H	-0.127023	1.264086	-0.098082
H142	H	0.122977	1.514086	0.151918
H143	H	0.372977	1.764086	0.401918
H144	H	0.622977	2.014086	0.651918
C145	C	-0.128146	1.425627	0.032795
C146	C	0.121854	1.675627	0.282795
C147	C	0.371854	1.925627	0.532795
C148	C	0.621854	2.175627	0.782795
C149	C	-0.107317	1.336502	0.080376
C150	C	0.142683	1.586502	0.330376
C151	C	0.392683	1.836502	0.580376
C152	C	0.642683	2.086502	0.830376
H153	H	-0.098635	1.474579	0.082313
H154	H	0.151365	1.724579	0.332313
H155	H	0.401365	1.974579	0.582313
H156	H	0.651365	2.224579	0.832313
H157	H	-0.195220	1.431363	0.032805
H158	H	0.054780	1.681363	0.282805
H159	H	0.304780	1.931363	0.532805
H160	H	0.554780	2.181363	0.782805
H161	H	-0.104700	1.431396	-0.049015
H162	H	0.145300	1.681396	0.200985
H163	H	0.395300	1.931396	0.450985
H164	H	0.645300	2.181396	0.700985
H165	H	-0.130774	1.330730	0.162179
H166	H	0.119226	1.580730	0.412179
H167	H	0.369226	1.830730	0.662179
H168	H	0.619226	2.080730	0.912179
H169	H	-0.040246	1.330767	0.080382
H170	H	0.209754	1.580767	0.330382
H171	H	0.459754	1.830767	0.580382
H172	H	0.709754	2.080767	0.830382
H173	H	-0.285837	1.026242	0.000034
H174	H	-0.035837	1.276242	0.250034
H175	H	0.214163	1.526242	0.500034
H176	H	0.464163	1.776242	0.750034
