data_functionalizedCrystal
_audit_creation_method	'MofGen! by Chris Wilmer'
_symmetry_space_group_name_H-M	'P1'
_symmetry_Int_Tables_number	1
_symmetry_cell_setting	triclinic
loop_
_symmetry_equiv_pos_as_xyz
  x,y,z
_cell_length_a	12.759401
_cell_length_b	25.639239
_cell_length_c	12.759393
_cell_angle_alpha	90.041898
_cell_angle_beta	89.979062
_cell_angle_gamma	89.958593
loop_
_atom_site_label
_atom_site_type_symbol
_atom_site_fract_x
_atom_site_fract_y
_atom_site_fract_z
Zn1	Zn	1.606083	0.208104	-0.593937
Zn2	Zn	1.605896	0.295549	-0.418222
Zn3	Zn	1.430381	0.208132	-0.418272
Zn4	Zn	1.430296	0.295513	-0.593859
O5	O	1.518164	0.251825	-0.506073
O6	O	1.753079	0.219708	-0.570639
O7	O	1.582572	0.283980	-0.271207
O8	O	1.453802	0.134963	-0.441628
O9	O	1.752942	0.283953	-0.441542
O10	O	1.582889	0.134943	-0.570688
O11	O	1.453622	0.219755	-0.271244
O12	O	1.283349	0.219720	-0.441552
O13	O	1.453657	0.283891	-0.740891
O14	O	1.283286	0.283918	-0.570556
O15	O	1.582806	0.219672	-0.740948
O16	O	1.582489	0.368710	-0.441467
O17	O	1.453476	0.368683	-0.570507
C18	C	1.245197	0.251818	-0.506052
C19	C	1.128420	0.251828	-0.506068
C20	C	1.073553	0.285307	-0.573134
C21	C	0.963829	0.285309	-0.573155
C22	C	0.963849	0.218352	-0.439034
C23	C	1.073571	0.218347	-0.439019
C24	C	0.813916	0.304070	-0.697008
C25	C	0.759045	0.337557	-0.764065
C26	C	0.794598	0.388581	-0.779992
C27	C	0.885020	0.406129	-0.728847
C28	C	0.939885	0.372645	-0.661782
C29	C	0.904334	0.321613	-0.645875
C30	C	1.223485	0.199592	-0.315165
C31	C	1.278353	0.166110	-0.248094
C32	C	1.242802	0.115085	-0.232156
C33	C	1.152377	0.097539	-0.283282
C34	C	1.097510	0.131021	-0.350353
C35	C	1.133068	0.182046	-0.366293
C36	C	1.517982	0.387667	-0.505996
C37	C	1.518000	0.445781	-0.505999
C38	C	1.585275	0.806095	-0.573420
C39	C	1.585292	0.860699	-0.573444
O40	O	1.642384	0.888894	-0.630671
N41	N	1.518151	0.888064	-0.506202
C42	C	1.450981	0.860821	-0.438940
O43	O	1.393873	0.889110	-0.381749
C44	C	1.450959	0.806217	-0.438922
C45	C	1.518112	0.778856	-0.506161
C46	C	1.652421	0.778734	-0.640654
C47	C	1.652405	0.724133	-0.640628
C48	C	1.585242	0.696894	-0.573369
C49	C	1.518095	0.724256	-0.506135
C50	C	1.383784	0.778976	-0.371666
C51	C	1.383767	0.724368	-0.371655
C52	C	1.450920	0.697007	-0.438893
C53	C	1.450916	0.642416	-0.438851
N54	N	1.518057	0.615052	-0.506092
C55	C	1.585220	0.642291	-0.573351
C56	C	1.451030	0.975491	-0.438984
C57	C	1.451057	1.030094	-0.438995
C58	C	1.585367	1.029969	-0.573500
C59	C	1.585345	0.975365	-0.573483
C60	C	1.518171	0.948127	-0.506225
C61	C	1.585182	0.527626	-0.573292
C62	C	1.585163	0.473020	-0.573258
C63	C	1.450849	0.473150	-0.438757
C64	C	1.450872	0.527751	-0.438787
C65	C	1.518041	0.554987	-0.506063
O66	O	1.393850	0.614186	-0.381656
O67	O	1.642309	0.613995	-0.630543
C68	C	1.792197	0.251831	-0.506094
C69	C	1.908974	0.251834	-0.506103
C70	C	1.518313	1.115452	-0.506183
C71	C	1.518216	1.057338	-0.506259
C72	C	1.518243	0.251774	-0.780106
C73	C	1.518276	0.251753	-0.896883
C74	C	1.585529	0.218309	-0.951776
C75	C	1.585547	0.218286	-1.061500
C76	C	1.451056	0.285156	-1.061428
C77	C	1.451033	0.285176	-0.951706
C78	C	1.623214	0.156599	-1.211503
C79	C	1.690483	0.123160	-1.266400
C80	C	1.793003	0.115142	-1.230812
C81	C	1.828274	0.140572	-1.140328
C82	C	1.761010	0.174015	-1.085437
C83	C	1.658476	0.182023	-1.121024
C84	C	1.413378	0.346864	-0.801701
C85	C	1.346118	0.380310	-0.746808
C86	C	1.243596	0.388333	-0.782394
C87	C	1.208329	0.362913	-0.872881
C88	C	1.275589	0.329466	-0.927774
C89	C	1.378109	0.321443	-0.892181
C90	C	1.518146	0.251837	-0.233105
C91	C	1.518316	0.251711	-0.116329
H92	H	1.351981	0.180401	-0.206464
H93	H	1.329101	0.801244	-0.316913
N94	N	1.653951	1.057800	-0.642228
N95	N	1.646920	1.051665	-0.739165
H96	H	1.695354	1.071322	-0.787702
H97	H	1.013504	0.386932	-0.620141
H98	H	1.023886	0.116729	-0.391990
N99	N	0.666696	0.319639	-0.816331
N100	N	0.617718	0.349541	-0.876203
H101	H	0.552495	0.336890	-0.913116
N102	N	1.382378	0.319292	-1.117447
N103	N	1.382406	0.319271	-1.215412
H104	H	1.333902	0.343380	-1.254976
N105	N	1.797017	0.199980	-0.993002
N106	N	1.751793	0.192464	-0.907422
H107	H	1.777223	0.210799	-0.842133
N108	N	0.777595	0.251946	-0.680766
N109	N	0.696861	0.236290	-0.726430
H110	H	0.671203	0.199477	-0.714960
N111	N	1.518107	0.338657	-0.765362
N112	N	1.547941	0.293825	-0.741044
H113	H	1.621907	0.288030	-0.715381
H114	H	1.639871	0.549795	-0.628082
N115	N	1.298851	0.080892	-0.163628
N116	N	1.379577	0.096563	-0.117969
H117	H	1.419159	0.072414	-0.069573
N118	N	1.103604	0.371114	-0.909229
N119	N	1.043562	0.400976	-0.860208
H120	H	0.969599	0.406771	-0.885877
N121	N	1.861709	0.080975	-1.286871
N122	N	1.899423	0.041822	-1.242341
H123	H	1.947941	0.017688	-1.281933
N124	N	0.907803	0.184157	-0.370556
N125	N	0.809838	0.184165	-0.370577
H126	H	0.770256	0.160015	-0.322212
H127	H	1.118208	0.312568	-0.627732
H128	H	1.661756	0.102455	-1.340072
H129	H	1.639850	0.450744	-0.628011
H130	H	1.329063	0.702194	-0.316887
H131	H	1.539732	0.163120	-1.240482
H132	H	0.913953	0.447681	-0.741812
N133	N	1.653923	0.947417	-0.642178
N134	N	1.616918	0.916936	-0.709091
H135	H	1.665353	0.897199	-0.757609
N136	N	1.116064	0.045417	-0.266988
N137	N	1.165060	0.015528	-0.207103
H138	H	1.139416	-0.021284	-0.195589
N139	N	0.738535	0.422783	-0.848485
N140	N	0.657803	0.407112	-0.894133
H141	H	0.618204	0.431264	-0.942510
N142	N	1.721025	0.696180	-0.709274
N143	N	1.721039	0.647428	-0.709232
H144	H	1.769520	0.627688	-0.757702
N145	N	1.259814	0.251715	-0.331432
N146	N	1.340540	0.267377	-0.285763
H147	H	1.366196	0.304189	-0.297243
H148	H	1.911760	0.134045	-1.111365
N149	N	1.721034	0.806544	-0.709375
N150	N	1.780973	0.782097	-0.769396
H151	H	1.829440	0.801735	-0.817932
N152	N	1.382474	1.058031	-0.370288
N153	N	1.322521	1.033697	-0.310238
H154	H	1.274078	1.053426	-0.261712
N155	N	1.174882	0.422502	-0.726341
N156	N	1.137166	0.461653	-0.770878
H157	H	1.088635	0.485783	-0.731294
H158	H	1.396333	0.953317	-0.384206
N159	N	1.382130	0.406271	-0.654365
N160	N	1.336894	0.398763	-0.568789
H161	H	1.362324	0.417097	-0.503500
H162	H	1.396199	0.550030	-0.384028
N163	N	1.382265	0.445312	-0.370051
N164	N	1.382270	0.396560	-0.370046
H165	H	1.333831	0.376897	-0.321524
N166	N	1.654219	0.184166	-0.895791
N167	N	1.714260	0.154307	-0.944822
H168	H	1.762773	0.130191	-0.905286
N169	N	1.239552	0.303505	-1.020207
N170	N	1.148012	0.310672	-1.051977
H171	H	1.122561	0.292338	-1.117257
