data_functionalizedCrystal
_audit_creation_method	'MofGen! by Chris Wilmer'
_symmetry_space_group_name_H-M	'P1'
_symmetry_Int_Tables_number	1
_symmetry_cell_setting	triclinic
loop_
_symmetry_equiv_pos_as_xyz
  x,y,z
_cell_length_a	17.077404
_cell_length_b	17.077402
_cell_length_c	17.077396
_cell_angle_alpha	89.972568
_cell_angle_beta	90.018362
_cell_angle_gamma	89.977697
loop_
_atom_site_label
_atom_site_type_symbol
_atom_site_fract_x
_atom_site_fract_y
_atom_site_fract_z
Zn1	Zn	1.200047	0.312551	0.443825
Zn2	Zn	1.199950	0.443826	0.312561
Zn3	Zn	1.068779	0.312573	0.312575
Zn4	Zn	1.068743	0.443774	0.443787
O5	O	1.134380	0.378181	0.378187
O6	O	1.309881	0.329977	0.426422
O7	O	1.182525	0.426446	0.202716
O8	O	1.086247	0.202723	0.330007
O9	O	1.309810	0.426424	0.329983
O10	O	1.182689	0.202707	0.426436
O11	O	1.086153	0.330015	0.202726
O12	O	0.958927	0.329965	0.329971
O13	O	1.086186	0.426336	0.553639
O14	O	0.958901	0.426357	0.426372
O15	O	1.182654	0.329927	0.553667
O16	O	1.182490	0.553666	0.329947
O17	O	1.086093	0.553628	0.426358
C18	C	0.930432	0.378159	0.378169
C19	C	0.843182	0.378168	0.378180
C20	C	0.802229	0.328037	0.428473
C21	C	0.720249	0.328042	0.428476
C22	C	0.679223	0.378183	0.378191
C23	C	0.720181	0.428315	0.327893
C24	C	0.802160	0.428306	0.327886
C25	C	0.549311	0.428333	0.327913
C26	C	0.467326	0.428344	0.327920
C27	C	0.467400	0.328070	0.428503
C28	C	0.549379	0.328060	0.428496
C29	C	0.590332	0.378194	0.378199
C30	C	1.134299	0.582129	0.378164
C31	C	1.134336	0.669378	0.378180
C32	C	1.134427	0.378123	0.582931
C33	C	1.134447	0.378098	0.670181
C34	C	1.339124	0.378204	0.378205
C35	C	1.426374	0.378213	0.378213
C36	C	1.184580	0.710362	0.328035
C37	C	1.184617	0.792343	0.328058
C38	C	1.134404	0.833338	0.378224
C39	C	1.084157	0.792348	0.428375
C40	C	1.084126	0.710369	0.428355
C41	C	1.084226	0.963218	0.428412
C42	C	1.084256	1.045203	0.428431
C43	C	1.184717	1.045192	0.328115
C44	C	1.184685	0.963213	0.328095
C45	C	1.134437	0.922229	0.378245
C46	C	1.134476	1.173436	0.378237
C47	C	1.134501	1.086187	0.378285
C48	C	1.134378	0.378182	0.174239
C49	C	1.134509	0.377985	0.086990
C50	C	1.184680	0.327894	0.711187
C51	C	1.184690	0.327868	0.793167
C52	C	1.134470	0.378051	0.834141
C53	C	1.084231	0.428257	0.793129
C54	C	1.084219	0.428279	0.711150
C55	C	1.084263	0.428210	0.963999
C56	C	1.084277	0.428190	1.045984
C57	C	1.184734	0.327799	1.046017
C58	C	1.184721	0.327821	0.964038
C59	C	1.134484	0.378028	0.923032
H60	H	0.433925	0.469173	0.286974
Cl61	Cl	1.247822	0.264807	0.659686
Cl62	Cl	1.021122	1.096739	0.491489
H63	H	1.043213	0.677001	0.469190
H64	H	0.686771	0.469137	0.286946
H65	H	0.582780	0.287236	0.469447
H66	H	1.043306	0.469152	0.677764
H67	H	1.043342	0.469082	0.930615
Cl68	Cl	0.600793	0.491366	0.264686
Cl69	Cl	1.021057	0.911697	0.491461
Cl70	Cl	1.247877	0.264785	0.844714
H71	H	1.043277	0.825733	0.469224
H72	H	0.835503	0.469127	0.286932
H73	H	1.043381	0.469051	1.079342
Cl74	Cl	1.247861	0.264737	0.912529
Cl75	Cl	1.247704	0.658834	0.264960
H76	H	1.225530	0.825708	0.287224
H77	H	1.225633	1.078565	0.287283
Cl78	Cl	1.247810	0.911677	0.265028
Cl79	Cl	1.247891	0.264682	1.097566
H80	H	1.043339	0.469114	0.826496
Cl81	Cl	0.853797	0.265003	0.491696
H82	H	0.686909	0.287222	0.469431
Cl83	Cl	0.415917	0.265042	0.491731
