data_functionalizedCrystal
_audit_creation_method	'MofGen! by Chris Wilmer'
_symmetry_space_group_name_H-M	'P1'
_symmetry_Int_Tables_number	1
_symmetry_cell_setting	triclinic
loop_
_symmetry_equiv_pos_as_xyz
  x,y,z
_cell_length_a	14.519731
_cell_length_b	14.519709
_cell_length_c	9.730223
_cell_angle_alpha	89.999758
_cell_angle_beta	89.993443
_cell_angle_gamma	83.684499
loop_
_atom_site_label
_atom_site_type_symbol
_atom_site_fract_x
_atom_site_fract_y
_atom_site_fract_z
O1	O	0.120891	1.223878	-0.114114
O2	O	0.454224	1.557212	0.219219
O3	O	0.787558	1.890545	0.552553
O4	O	0.135127	0.955403	-0.114156
O5	O	0.468461	1.288736	0.219177
O6	O	0.801794	1.622069	0.552510
O7	O	-0.006228	1.096749	-0.114122
O8	O	0.327105	1.430082	0.219212
O9	O	0.660439	1.763415	0.552545
O10	O	0.262246	1.082533	-0.114149
O11	O	0.595580	1.415866	0.219184
O12	O	0.928913	1.749199	0.552518
O13	O	-0.006234	1.096733	0.114458
O14	O	0.327099	1.430066	0.447792
O15	O	0.660432	1.763400	0.781125
O16	O	0.135121	0.955387	0.114423
O17	O	0.468454	1.288720	0.447757
O18	O	0.801788	1.622054	0.781090
O19	O	0.120885	1.223863	0.114466
O20	O	0.454218	1.557196	0.447799
O21	O	0.787551	1.890529	0.781133
Zn22	Zn	0.128002	1.089622	0.150737
Zn23	Zn	0.461335	1.422956	0.484070
Zn24	Zn	0.794669	1.756289	0.817403
Zn25	Zn	0.128010	1.089643	-0.150427
Zn26	Zn	0.461343	1.422976	0.182906
Zn27	Zn	0.794677	1.756310	0.516239
O28	O	0.262240	1.082517	0.114431
O29	O	0.595573	1.415850	0.447764
O30	O	0.928907	1.749184	0.781098
C31	C	0.134461	0.921035	0.000128
C32	C	0.467794	1.254368	0.333462
C33	C	0.801127	1.587702	0.666795
C34	C	0.132473	0.818654	0.000112
C35	C	0.465806	1.151987	0.333446
C36	C	0.799139	1.485320	0.666779
C37	C	0.125153	0.443757	0.000176
C38	C	0.458486	0.777091	0.333509
C39	C	0.791820	1.110424	0.666842
C40	C	0.127186	0.548065	0.000158
C41	C	0.460519	0.881399	0.333491
C42	C	0.793852	1.214732	0.666824
C43	C	0.128813	0.631202	0.000143
C44	C	0.462146	0.964535	0.333476
C45	C	0.795479	1.297869	0.666809
C46	C	0.130846	0.735517	0.000127
C47	C	0.464179	1.068850	0.333461
C48	C	0.797512	1.402183	0.666794
C49	C	-0.040591	1.096075	0.000169
C50	C	0.292743	1.429408	0.333502
C51	C	0.626076	1.762741	0.666835
C52	C	-0.142971	1.094079	0.000169
C53	C	0.190363	1.427412	0.333502
C54	C	0.523696	1.760745	0.666836
C55	C	-0.226115	1.092457	0.000166
C56	C	0.107218	1.425790	0.333499
C57	C	0.440552	1.759123	0.666832
C58	C	-0.330424	1.090430	0.000155
C59	C	0.002910	1.423763	0.333488
C60	C	0.336243	1.757097	0.666821
C61	C	-0.413563	1.088822	0.000146
C62	C	-0.080229	1.422155	0.333479
C63	C	0.253104	1.755488	0.666812
C64	C	-0.517878	1.086795	0.000137
C65	C	-0.184545	1.420129	0.333471
C66	C	0.148789	1.753462	0.666804
C67	C	0.296603	1.083191	0.000138
C68	C	0.629936	1.416524	0.333471
C69	C	0.963269	1.749858	0.666805
C70	C	0.398983	1.085187	0.000128
C71	C	0.732316	1.418520	0.333462
C72	C	1.065649	1.751854	0.666795
C73	C	0.121551	1.258230	0.000178
C74	C	0.454885	1.591564	0.333512
C75	C	0.788218	1.924897	0.666845
C76	C	0.123539	1.360612	0.000185
C77	C	0.456873	1.693945	0.333518
C78	C	0.790206	2.027279	0.666852
N79	N	0.127996	1.089615	0.356273
N80	N	0.461329	1.422948	0.689606
N81	N	0.794662	1.756282	1.022940
N82	N	0.128009	1.089658	-0.355964
N83	N	0.461342	1.422991	-0.022630
N84	N	0.794676	1.756324	0.310703
C85	C	0.190577	1.027047	0.572103
C86	C	0.523910	1.360381	0.905436
C87	C	0.857244	1.693714	1.238770
C88	C	0.190569	1.027024	0.428220
C89	C	0.523902	1.360357	0.761553
C90	C	0.857235	1.693690	1.094887
C91	C	0.065421	1.152228	0.428217
C92	C	0.398754	1.485562	0.761550
C93	C	0.732088	1.818895	1.094883
C94	C	0.065426	1.152247	0.572097
C95	C	0.398759	1.485580	0.905430
C96	C	0.732092	1.818914	1.238764
C97	C	0.253160	0.964458	0.644042
C98	C	0.586494	1.297792	0.977376
C99	C	0.919827	1.631125	1.310709
C100	C	0.315734	0.901844	0.572109
C101	C	0.649067	1.235177	0.905442
C102	C	0.982401	1.568510	1.238776
C103	C	0.315726	0.901820	0.428226
C104	C	0.649059	1.235153	0.761559
C105	C	0.982392	1.568486	1.094893
C106	C	0.253143	0.964410	0.356276
C107	C	0.586477	1.297744	0.689610
C108	C	0.919810	1.631077	1.022943
H109	H	0.253175	0.964474	0.761199
H110	H	0.586508	1.297807	1.094532
H111	H	0.919841	1.631140	1.427866
H112	H	0.366669	0.850831	0.369659
H113	H	0.700003	1.184164	0.702992
H114	H	1.033336	1.517497	1.036326
H115	H	0.014470	1.203188	0.369626
H116	H	0.347803	1.536521	0.702959
H117	H	0.681136	1.869855	1.036293
H118	H	0.253136	0.964379	0.239117
H119	H	0.586469	1.297713	0.572451
H120	H	0.919802	1.631046	0.905784
H121	H	0.366682	0.850879	0.630697
H122	H	0.700015	1.184212	0.964031
H123	H	1.033348	1.517546	1.297364
C124	C	-0.003394	1.221130	0.651228
C125	C	0.329939	1.554463	0.984562
C126	C	0.663272	1.887796	1.317895
N127	N	-0.055231	1.273014	0.710830
N128	N	0.278103	1.606348	1.044163
N129	N	0.611436	1.939681	1.377497
