data_functionalizedCrystal
_audit_creation_method	'MofGen! by Chris Wilmer'
_symmetry_space_group_name_H-M	'P1'
_symmetry_Int_Tables_number	1
_symmetry_cell_setting	triclinic
loop_
_symmetry_equiv_pos_as_xyz
  x,y,z
_cell_length_a	15.944545
_cell_length_b	23.532357
_cell_length_c	15.021413
_cell_angle_alpha	89.998468
_cell_angle_beta	89.995468
_cell_angle_gamma	83.162232
loop_
_atom_site_label
_atom_site_type_symbol
_atom_site_fract_x
_atom_site_fract_y
_atom_site_fract_z
O1	O	1.113894	0.073427	-0.073986
O2	O	0.869265	0.082486	-0.074001
O3	O	0.998978	-0.004948	-0.073975
O4	O	0.984181	0.160862	-0.074012
O5	O	0.998957	-0.004936	0.074090
O6	O	0.869244	0.082499	0.074063
O7	O	1.113873	0.073439	0.074079
Zn8	Zn	0.991556	0.077971	0.097579
Zn9	Zn	0.991583	0.077955	-0.097502
O10	O	0.984160	0.160874	0.074052
C11	C	0.837964	0.082117	0.000029
C12	C	0.744727	0.080992	0.000024
C13	C	0.474595	0.023432	0.000046
C14	C	0.524925	0.051189	0.073046
C15	C	0.409118	0.076977	0.000040
C16	C	0.524926	0.051191	-0.072934
C17	C	0.574015	0.078947	0.000031
C18	C	0.458220	0.104720	0.073100
C19	C	0.458218	0.104714	-0.072946
C20	C	0.508515	0.132510	0.000071
C21	C	0.314126	0.075841	0.000046
C22	C	0.669004	0.080087	0.000031
C23	C	0.998598	-0.026160	0.000060
C24	C	0.997485	-0.089383	0.000068
C25	C	0.990510	-0.481428	-0.080690
C26	C	0.989452	-0.540832	-0.080695
O27	O	0.988886	-0.571556	-0.149336
N28	N	0.988916	-0.570538	0.000014
C29	C	0.989430	-0.540837	0.080733
O30	O	0.988876	-0.571559	0.149381
C31	C	0.990482	-0.481434	0.080737
C32	C	0.991026	-0.451732	0.000023
C33	C	0.991053	-0.451725	-0.161397
C34	C	0.992113	-0.392326	-0.161392
C35	C	0.992629	-0.362630	-0.080679
C36	C	0.992085	-0.392332	0.000029
C37	C	0.990989	-0.451734	0.161455
C38	C	0.992040	-0.392327	0.161452
C39	C	0.992585	-0.362624	0.080738
C40	C	0.993661	-0.303236	0.080747
N41	N	0.994196	-0.273530	0.000038
C42	C	0.993681	-0.303227	-0.080675
C43	C	0.987220	-0.665587	0.080718
C44	C	0.986174	-0.724990	0.080715
C45	C	0.986195	-0.724980	-0.080714
C46	C	0.987246	-0.665577	-0.080709
C47	C	0.987755	-0.635881	0.000009
C48	C	0.995906	-0.178484	-0.080657
C49	C	0.996969	-0.119080	-0.080644
C50	C	0.996944	-0.119094	0.080783
C51	C	0.995885	-0.178494	0.080771
C52	C	0.995364	-0.208187	0.000044
O53	O	0.994224	-0.272474	0.149352
O54	O	0.994223	-0.272496	-0.149312
C55	C	1.145174	0.073809	0.000046
C56	C	1.238411	0.074934	0.000046
C57	C	0.984541	0.182086	0.000015
C58	C	0.985653	0.245309	0.000001
N59	N	0.991543	0.077982	0.230717
N60	N	0.991602	0.077939	-0.230639
C61	C	0.931555	0.118393	0.470388
C62	C	1.007359	0.129448	0.529724
C63	C	0.991565	0.077968	0.412324
C64	C	0.915781	0.066925	0.529729
C65	C	0.991579	0.077955	0.587748
C66	C	1.067407	0.089049	0.470354
C67	C	0.975779	0.026503	0.470353
C68	C	1.051639	0.037537	0.529663
C69	C	0.991555	0.077976	0.311266
C70	C	0.991597	0.077946	0.688803
H71	H	0.429084	0.127303	-0.134673
O72	O	0.454363	-0.037644	0.000146
H73	H	0.514028	-0.067224	0.000824
O74	O	0.985606	-0.757021	0.167773
H75	H	0.984793	-0.803319	0.154221
H76	H	1.102448	0.003343	0.555526
H77	H	0.851686	0.057591	0.555812
H78	H	0.995477	-0.202653	-0.146393
H79	H	0.992553	-0.368147	-0.227117
H80	H	0.554044	0.028580	0.134771
H81	H	1.020724	0.172965	0.555802
O82	O	0.992598	-0.360302	0.248519
H83	H	0.935820	-0.328161	0.252387
H84	H	0.880857	0.152607	0.444362
O85	O	1.152329	0.101486	0.435964
H86	H	1.151645	0.101417	0.362077
H87	H	0.987688	-0.641397	-0.146434
O88	O	0.987791	-0.633560	0.167783
H89	H	0.987253	-0.664202	0.223898
O90	O	0.958051	-0.031121	0.435770
H91	H	0.895070	-0.040184	0.459506
H92	H	0.429206	0.127322	0.134881
H93	H	0.523606	0.178660	0.000104
H94	H	0.995450	-0.202679	0.146495
H95	H	0.990547	-0.475908	0.227181
H96	H	0.554048	0.028563	-0.134646
O97	O	0.997543	-0.087044	-0.167706
H98	H	1.054596	-0.103528	-0.206413
O99	O	0.990476	-0.483749	-0.248459
H100	H	0.991027	-0.453106	-0.304569
H101	H	0.985772	-0.749169	-0.146435
O102	O	0.997499	-0.087060	0.167837
H103	H	0.998317	-0.040763	0.154272
