data_functionalizedCrystal
_audit_creation_method	'MofGen! by Chris Wilmer'
_symmetry_space_group_name_H-M	'P1'
_symmetry_Int_Tables_number	1
_symmetry_cell_setting	triclinic
loop_
_symmetry_equiv_pos_as_xyz
  x,y,z
_cell_length_a	12.594517
_cell_length_b	13.897449
_cell_length_c	13.897441
_cell_angle_alpha	90.020733
_cell_angle_beta	89.976768
_cell_angle_gamma	89.992087
loop_
_atom_site_label
_atom_site_type_symbol
_atom_site_fract_x
_atom_site_fract_y
_atom_site_fract_z
Zn1	Zn	0.423672	1.474777	0.545431
Zn2	Zn	0.923672	1.974777	1.045431
Zn3	Zn	0.601683	1.474702	0.384153
Zn4	Zn	1.101683	1.974702	0.884153
Zn5	Zn	0.423722	1.313466	0.384149
Zn6	Zn	0.923722	1.813466	0.884149
Zn7	Zn	0.601613	1.313479	0.545405
Zn8	Zn	1.101613	1.813479	1.045405
O9	O	0.512672	1.394106	0.464784
O10	O	1.012672	1.894106	0.964784
O11	O	0.447293	1.609748	0.524049
O12	O	0.947293	2.109748	1.024049
O13	O	0.578126	1.453277	0.249171
O14	O	1.078126	1.953277	0.749171
O15	O	0.274770	1.334890	0.405552
O16	O	0.774770	1.834890	0.905552
O17	O	0.578077	1.609693	0.405559
O18	O	1.078077	2.109693	0.905559
O19	O	0.274733	1.453404	0.524045
O20	O	0.774733	1.953404	1.024045
O21	O	0.447380	1.334817	0.249168
O22	O	0.947380	1.834817	0.749168
O23	O	0.447312	1.178486	0.405528
O24	O	0.947312	1.678486	0.905528
O25	O	0.577958	1.334912	0.680390
O26	O	1.077958	1.834912	1.180390
O27	O	0.578007	1.178495	0.524002
O28	O	1.078007	1.678495	1.024002
O29	O	0.447226	1.453417	0.680409
O30	O	0.947226	1.953417	1.180409
O31	O	0.750619	1.453289	0.405534
O32	O	1.250619	1.953289	0.905534
O33	O	0.750568	1.334839	0.524006
O34	O	1.250568	1.834839	1.024006
C35	C	0.512658	1.143491	0.464762
C36	C	1.012658	1.643491	0.964762
C37	C	0.512678	1.036278	0.464776
C38	C	1.012678	1.536278	0.964776
C39	C	0.512681	0.839982	0.464801
C40	C	1.012681	1.339982	0.964801
C41	C	0.512676	0.949215	0.464784
C42	C	1.012676	1.449215	0.964784
C43	C	0.235052	1.394154	0.464801
C44	C	0.735052	1.894154	0.964801
C45	C	0.116746	1.394175	0.464808
C46	C	0.616746	1.894175	0.964808
C47	C	0.047473	1.458627	0.529260
C48	C	0.547473	1.958627	1.029260
C49	C	-0.023284	1.482195	0.441264
C50	C	0.476716	1.982195	0.941264
C51	C	-0.023296	1.370638	0.552810
C52	C	0.476704	1.870638	1.052810
C53	C	0.047548	1.417788	0.376765
C54	C	0.547548	1.917788	0.876765
C55	C	0.047541	1.306190	0.488371
C56	C	0.547541	1.806190	0.988371
C57	C	-0.023183	1.329724	0.400313
C58	C	0.476817	1.829724	0.900313
C59	C	0.789213	1.394084	0.464789
C60	C	1.289213	1.894084	0.964789
C61	C	0.907519	1.394163	0.464823
C62	C	1.407519	1.894163	0.964823
C63	C	0.512578	1.394174	0.716377
C64	C	1.012578	1.894174	1.216377
C65	C	0.512538	1.394203	0.823591
C66	C	1.012538	1.894203	1.323591
C67	C	0.512687	1.645699	0.464807
C68	C	1.012687	2.145699	0.964807
C69	C	0.512694	1.752913	0.464817
C70	C	1.012694	2.252913	0.964817
C71	C	0.512689	1.394093	0.214170
C72	C	1.012689	1.894093	0.714170
C73	C	0.512429	1.394251	0.106957
C74	C	1.012429	1.894251	0.606957
C75	C	0.512466	1.394230	1.019887
C76	C	1.012466	1.894230	1.519887
C77	C	0.512509	1.394212	0.910654
C78	C	1.012509	1.894212	1.410654
H79	H	0.078497	1.513180	0.583692
H80	H	0.578497	2.013180	1.083692
H81	H	0.078672	1.231810	0.508325
H82	H	0.578672	1.731810	1.008325
H83	H	-0.054393	1.556596	0.421334
H84	H	0.445607	2.056596	0.921334
H85	H	-0.054417	1.350737	0.627226
H86	H	0.445583	1.850737	1.127226
H87	H	-0.054012	1.275213	0.345751
H88	H	0.445988	1.775213	0.845751
O89	O	0.084684	1.441653	0.288026
O90	O	0.584684	1.941653	0.788026
C91	C	0.238546	1.468358	0.188444
C92	C	0.738546	1.968358	0.688444
C93	C	0.196631	1.441345	0.288989
C94	C	0.696631	1.941345	0.788989
H95	H	0.329058	1.468099	0.189183
H96	H	0.829058	1.968099	0.689183
H97	H	0.208824	1.543145	0.168201
H98	H	0.708824	2.043145	0.668201
H99	H	0.208773	1.413757	0.133486
H100	H	0.708773	1.913757	0.633486
H101	H	0.226386	1.495882	0.344013
H102	H	0.726386	1.995882	0.844013
H103	H	0.226344	1.366535	0.309149
H104	H	0.726344	1.866535	0.809149
