data_functionalizedCrystal
_audit_creation_method	'MofGen! by Chris Wilmer'
_symmetry_space_group_name_H-M	'P1'
_symmetry_Int_Tables_number	1
_symmetry_cell_setting	triclinic
loop_
_symmetry_equiv_pos_as_xyz
  x,y,z
_cell_length_a	12.837943
_cell_length_b	12.837942
_cell_length_c	11.892052
_cell_angle_alpha	93.963740
_cell_angle_beta	93.959273
_cell_angle_gamma	94.828940
loop_
_atom_site_label
_atom_site_type_symbol
_atom_site_fract_x
_atom_site_fract_y
_atom_site_fract_z
O1	O	1.408895	0.278704	0.093983
O2	O	1.105761	0.265261	0.093990
O3	O	1.250606	0.120416	0.093980
O4	O	1.264050	0.423550	0.093994
O5	O	1.237471	0.107279	-0.094029
O6	O	1.092627	0.252124	-0.094019
O7	O	1.395760	0.265567	-0.094026
Zn8	Zn	1.242108	0.256760	-0.123873
Zn9	Zn	1.259413	0.274069	0.123837
O10	O	1.250915	0.410413	-0.094016
C11	C	1.060125	0.254152	-0.000014
C12	C	0.943710	0.240607	-0.000011
C13	C	0.718835	0.403436	-0.000020
C14	C	0.609453	0.390715	-0.000019
C15	C	0.615561	0.202444	-0.000015
C16	C	0.724943	0.215165	-0.000017
C17	C	0.776576	0.315664	-0.000017
C18	C	0.885961	0.328385	-0.000011
C19	C	0.892066	0.140115	-0.000015
C20	C	0.782684	0.127394	-0.000014
C21	C	1.239497	0.074778	-0.000024
C22	C	1.225953	-0.041637	-0.000022
C23	C	1.388784	-0.266510	-0.000002
C24	C	1.376062	-0.375892	0.000000
C25	C	1.187791	-0.369785	-0.000007
C26	C	1.200512	-0.260403	-0.000009
C27	C	1.301011	-0.208769	-0.000008
C28	C	1.313731	-0.099385	-0.000019
C29	C	1.125461	-0.093280	-0.000018
C30	C	1.112740	-0.202663	-0.000016
C31	C	1.441396	0.276677	-0.000020
C32	C	1.557812	0.290222	-0.000015
C33	C	1.262024	0.456051	-0.000009
C34	C	1.275569	0.572466	-0.000004
N35	N	1.230305	0.244948	-0.292929
C36	C	1.148183	0.162765	-0.470476
C37	C	1.156424	0.171018	-0.352133
C38	C	1.295951	0.310627	-0.352076
C39	C	1.287710	0.302374	-0.470419
C40	C	1.213823	0.228442	-0.529615
C41	C	1.205577	0.220194	-0.647960
C42	C	1.345109	0.359798	-0.647900
C43	C	1.353350	0.368051	-0.529557
N44	N	1.271224	0.285874	0.292893
H45	H	0.573495	0.120615	-0.000108
O46	O	1.076542	0.090902	-0.528108
C47	C	1.047223	-0.060407	-0.661699
C48	C	1.128468	0.020926	-0.596526
H49	H	1.089175	-0.117017	-0.717012
H50	H	0.990644	-0.018585	-0.717184
H51	H	1.001700	-0.105877	-0.599077
H52	H	1.174065	0.066420	-0.659066
H53	H	1.184977	-0.020957	-0.541025
O54	O	0.732361	0.029852	0.000038
C55	C	0.566555	-0.073192	-0.000027
C56	C	0.623410	0.037336	-0.000063
H57	H	0.478456	-0.067180	-0.000133
H58	H	0.594985	-0.111628	0.078677
H59	H	0.584138	-0.122607	-0.078686
H60	H	0.605853	0.086835	0.078543
H61	H	0.594973	0.075689	-0.078819
H62	H	1.105969	-0.411844	0.000004
H63	H	1.447536	-0.422900	0.000009
H64	H	1.398551	0.413283	-0.696064
H65	H	1.030916	-0.244717	-0.000012
H66	H	1.102974	0.117537	-0.303987
H67	H	1.053990	-0.046257	-0.000033
H68	H	1.145411	0.159998	-0.696156
O69	O	1.367668	0.382568	-0.294682
C70	C	1.428439	0.565346	-0.258335
C71	C	1.347170	0.483984	-0.323427
H72	H	1.411881	0.647361	-0.281534
H73	H	1.510494	0.549011	-0.281608
H74	H	1.423063	0.559895	-0.163602
H75	H	1.352450	0.489389	-0.418175
H76	H	1.265149	0.500345	-0.300060
H77	H	0.928000	0.410217	-0.000013
O78	O	0.769062	0.501047	0.000184
C79	C	0.895870	0.631450	0.097554
C80	C	0.839049	0.520895	0.097477
H81	H	0.952484	0.647524	0.176195
H82	H	0.835863	0.692053	0.097630
H83	H	0.941382	0.636591	0.018835
H84	H	0.793538	0.515652	0.176182
H85	H	0.899107	0.460344	0.097341
H86	H	0.562444	0.462188	-0.000024
O87	O	0.948123	0.054827	0.000186
C88	C	0.993553	-0.095420	0.097562
C89	C	0.930036	0.001143	0.097482
H90	H	0.978935	-0.138862	0.176205
H91	H	1.080622	-0.069126	0.097637
H92	H	0.968066	-0.149801	0.018846
H93	H	0.955433	0.055566	0.176185
H94	H	0.842980	-0.025226	0.097348
H95	H	1.413510	0.428241	-0.481344
O96	O	1.486480	-0.216508	0.000048
C97	C	1.671872	-0.234109	-0.000018
C98	C	1.561292	-0.290865	-0.000050
H99	H	1.732387	-0.294203	-0.000121
H100	H	1.688098	-0.177582	0.078683
H101	H	1.676986	-0.188519	-0.078680
H102	H	1.556099	-0.336513	0.078559
H103	H	1.545115	-0.347331	-0.078803
H104	H	1.395563	-0.057347	-0.000022
