data_functionalizedCrystal
_audit_creation_method	'MofGen! by Chris Wilmer'
_symmetry_space_group_name_H-M	'P1'
_symmetry_Int_Tables_number	1
_symmetry_cell_setting	triclinic
loop_
_symmetry_equiv_pos_as_xyz
  x,y,z
_cell_length_a	19.288840
_cell_length_b	13.185407
_cell_length_c	17.766277
_cell_angle_alpha	89.992547
_cell_angle_beta	89.983415
_cell_angle_gamma	67.549750
loop_
_atom_site_label
_atom_site_type_symbol
_atom_site_fract_x
_atom_site_fract_y
_atom_site_fract_z
O1	O	0.896205	0.136038	-0.062715
O2	O	0.690540	0.154435	-0.062688
O3	O	0.828609	-0.013690	-0.062703
O4	O	0.758136	0.304163	-0.062699
O5	O	0.828592	-0.013699	0.062485
O6	O	0.690522	0.154427	0.062501
O7	O	0.896188	0.136029	0.062474
Cu8	Cu	0.793354	0.145227	0.073918
Cu9	Cu	0.793374	0.145237	-0.074132
O10	O	0.758119	0.304155	0.062489
C11	C	0.664763	0.153844	-0.000090
C12	C	0.587985	0.152080	-0.000080
C13	C	0.551947	0.151238	-0.068322
C14	C	0.479809	0.149569	-0.068332
C15	C	0.443717	0.148720	-0.000095
C16	C	0.479761	0.149569	0.068156
C17	C	0.551895	0.151249	0.068164
C18	C	0.346698	0.082120	0.052173
C19	C	0.274568	0.080434	0.052163
C20	C	0.221230	0.143544	-0.000115
C21	C	0.240037	0.208327	-0.052394
C22	C	0.312171	0.210007	-0.052387
C23	C	0.365499	0.146900	-0.000095
C24	C	0.106972	0.140893	-0.068371
C25	C	0.034831	0.139231	-0.068378
C26	C	0.034788	0.139220	0.068112
C27	C	0.106925	0.140894	0.068117
C28	C	0.143014	0.141725	-0.000127
C29	C	0.835745	-0.054359	-0.000111
C30	C	0.857025	-0.175527	-0.000116
C31	C	0.653936	-0.463755	-0.000097
C32	C	0.633940	-0.349912	-0.000099
C33	C	0.689709	-0.306310	-0.000103
C34	C	0.765478	-0.376563	-0.000105
C35	C	0.785476	-0.490418	-0.000109
C36	C	0.821250	-0.332972	-0.000115
C37	C	0.897018	-0.403225	-0.000118
C38	C	0.917013	-0.517069	-0.000121
C39	C	0.861243	-0.560671	-0.000117
C40	C	0.801252	-0.219117	-0.000112
C41	C	0.932792	-0.245780	-0.000124
C42	C	0.952788	-0.359623	-0.000122
C43	C	0.921965	0.136621	-0.000125
C44	C	0.998743	0.138384	-0.000140
C45	C	0.750983	0.344824	-0.000105
C46	C	0.729703	0.465992	-0.000104
N47	N	0.793345	0.145220	0.178048
N48	N	0.793390	0.145237	-0.178262
C49	C	0.854490	0.070810	0.217428
C50	C	0.854495	0.070805	0.296230
C51	C	0.793358	0.145228	0.335649
C52	C	0.732202	0.219644	0.296259
C53	C	0.732196	0.219639	0.217459
C54	C	0.765665	0.244686	0.460489
C55	C	0.765676	0.244692	0.539288
C56	C	0.793374	0.145241	0.578695
C57	C	0.821076	0.045781	0.539294
C58	C	0.821069	0.045777	0.460494
C59	C	0.793358	0.145241	0.421095
C60	C	0.854528	0.070820	0.703521
C61	C	0.854529	0.070814	0.782324
C62	C	0.732237	0.219662	0.782352
C63	C	0.732235	0.219659	0.703550
C64	C	0.793384	0.145239	0.664140
H65	H	0.136354	0.141582	-0.123940
F66	F	-0.003622	0.138327	0.140736
H67	H	1.014480	-0.416839	-0.000124
F68	F	0.441447	0.148672	-0.140967
F69	F	0.992150	-0.199382	-0.000132
H70	H	0.608537	-0.499268	-0.000099
F71	F	0.667167	0.298862	0.824300
F72	F	0.667158	0.298861	0.661636
F73	F	0.850546	-0.060073	0.418563
H74	H	0.978708	-0.574267	-0.000130
H75	H	0.743124	0.325678	0.571362
H76	H	0.904280	0.010211	0.185343
F77	F	0.736233	0.350544	0.418556
H78	H	0.904289	0.010209	0.328299
H79	H	0.581326	0.151915	-0.123892
H80	H	0.904320	0.010215	0.814388
F81	F	0.667114	0.298840	0.175546
F82	F	0.145281	0.141784	0.140750
H83	H	0.259264	0.027678	0.094728
F84	F	0.332183	0.278954	-0.108023
F85	F	0.553305	-0.275152	-0.000102
H86	H	0.390122	0.030726	0.094747
F87	F	0.667133	0.298847	0.338212
H88	H	0.843630	-0.035201	0.571378
F89	F	0.720615	-0.144362	-0.000109
F90	F	0.882521	-0.681837	-0.000110
H91	H	0.196609	0.259722	-0.094961
F92	F	-0.003525	0.138343	-0.141015
H93	H	0.904318	0.010220	0.671432
H94	H	0.581236	0.151936	0.123736
F95	F	0.441347	0.148672	0.140779
F96	F	0.668426	-0.185146	-0.000105
