data_functionalizedCrystal
_audit_creation_method	'MofGen! by Chris Wilmer'
_symmetry_space_group_name_H-M	'P1'
_symmetry_Int_Tables_number	1
_symmetry_cell_setting	triclinic
loop_
_symmetry_equiv_pos_as_xyz
  x,y,z
_cell_length_a	17.077404
_cell_length_b	19.076808
_cell_length_c	17.077396
_cell_angle_alpha	87.669711
_cell_angle_beta	89.982756
_cell_angle_gamma	92.323651
loop_
_atom_site_label
_atom_site_type_symbol
_atom_site_fract_x
_atom_site_fract_y
_atom_site_fract_z
Zn1	Zn	1.187469	-0.280207	-0.431272
Zn2	Zn	1.520802	0.053126	-0.097938
Zn3	Zn	1.854135	0.386460	0.235395
Zn4	Zn	1.182101	-0.397919	-0.294725
Zn5	Zn	1.515434	-0.064586	0.038609
Zn6	Zn	1.848767	0.268747	0.371942
Zn7	Zn	1.056204	-0.280234	-0.300018
Zn8	Zn	1.389538	0.053100	0.033315
Zn9	Zn	1.722871	0.386433	0.366648
Zn10	Zn	1.050890	-0.397876	-0.425950
Zn11	Zn	1.384224	-0.064542	-0.092617
Zn12	Zn	1.717557	0.268791	0.240716
O13	O	1.119166	-0.339059	-0.362991
O14	O	1.452499	-0.005726	-0.029658
O15	O	1.785833	0.327608	0.303675
O16	O	1.296603	-0.295829	-0.413170
O17	O	1.629936	0.037504	-0.079837
O18	O	1.963270	0.370838	0.253497
O19	O	1.165378	-0.382337	-0.185579
O20	O	1.498711	-0.049004	0.147755
O21	O	1.832045	0.284329	0.481088
O22	O	1.078087	-0.181733	-0.321872
O23	O	1.411420	0.151600	0.011461
O24	O	1.744754	0.484933	0.344795
O25	O	1.292659	-0.382312	-0.312850
O26	O	1.625993	-0.048978	0.020484
O27	O	1.959326	0.284355	0.353817
O28	O	1.174526	-0.181714	-0.418303
O29	O	1.507860	0.151619	-0.084970
O30	O	1.841193	0.484953	0.248364
O31	O	1.072882	-0.295874	-0.189468
O32	O	1.406216	0.037459	0.143865
O33	O	1.739549	0.370793	0.477199
O34	O	0.945653	-0.295832	-0.316712
O35	O	1.278986	0.037501	0.016621
O36	O	1.612319	0.370835	0.349955
O37	O	1.069030	-0.382238	-0.536504
O38	O	1.402364	-0.048904	-0.203171
O39	O	1.735697	0.284429	0.130162
O40	O	0.941749	-0.382263	-0.409234
O41	O	1.275082	-0.048930	-0.075900
O42	O	1.608415	0.284404	0.257433
O43	O	1.169374	-0.295787	-0.540414
O44	O	1.502707	0.037546	-0.207081
O45	O	1.836040	0.370880	0.126253
O46	O	1.160225	-0.496410	-0.307690
O47	O	1.493558	-0.163077	0.025644
O48	O	1.826892	0.170257	0.358977
O49	O	1.063825	-0.496378	-0.404100
O50	O	1.397159	-0.163045	-0.070767
O51	O	1.730492	0.170289	0.262566
C52	C	0.915219	-0.339046	-0.362970
C53	C	1.248552	-0.005713	-0.029637
C54	C	1.581885	0.327621	0.303696
C55	C	0.827968	-0.339058	-0.362979
C56	C	1.161302	-0.005724	-0.029646
C57	C	1.494635	0.327609	0.303688
C58	C	1.110887	-0.521933	-0.354760
C59	C	1.444221	-0.188600	-0.021427
C60	C	1.777554	0.144733	0.311906
C61	C	1.107418	-0.600168	-0.351265
C62	C	1.440751	-0.266834	-0.017932
C63	C	1.774084	0.066499	0.315401
C64	C	0.784963	-0.384130	-0.411071
C65	C	1.118296	-0.050797	-0.077738
C66	C	1.451629	0.282536	0.255595
C67	C	0.702982	-0.384132	-0.411084
C68	C	1.036316	-0.050798	-0.077751
C69	C	1.369649	0.282535	0.255583
C70	C	0.664009	-0.339064	-0.362999
C71	C	0.997342	-0.005730	-0.029666
C72	C	1.330675	0.327603	0.303667
C73	C	0.707020	-0.293986	-0.314905
C74	C	1.040354	0.039347	0.018428
C75	C	1.373687	0.372681	0.351762
C76	C	0.788999	-0.293982	-0.314897
C77	C	1.122333	0.039352	0.018436
C78	C	1.455666	0.372685	0.351770
C79	C	0.536150	-0.294000	-0.314923
C80	C	0.869483	0.039333	0.018410
C81	C	1.202816	0.372667	0.351743
C82	C	0.454165	-0.294005	-0.314930
C83	C	0.787498	0.039328	0.018404
C84	C	1.120831	0.372661	0.351737
C85	C	0.450132	-0.384150	-0.411110
C86	C	0.783466	-0.050817	-0.077777
C87	C	1.116799	0.282516	0.255557
C88	C	0.532112	-0.384146	-0.411102
C89	C	0.865445	-0.050812	-0.077769
C90	C	1.198778	0.282521	0.255564
C91	C	0.575117	-0.339069	-0.363006
C92	C	0.908451	-0.005735	-0.029673
C93	C	1.241784	0.327598	0.303660
C94	C	1.155961	-0.636852	-0.399870
C95	C	1.489294	-0.303518	-0.066537
C96	C	1.822627	0.029815	0.266796
C97	C	1.152697	-0.710361	-0.396588
C98	C	1.486031	-0.377028	-0.063254
C99	C	1.819364	-0.043694	0.270079
C100	C	1.100894	-0.747185	-0.344696
C101	C	1.434228	-0.413852	-0.011362
C102	C	1.767561	-0.080519	0.321971
C103	C	1.052346	-0.710496	-0.296088
C104	C	1.385679	-0.377163	0.037245
C105	C	1.719013	-0.043829	0.370578
C106	C	1.055606	-0.636988	-0.299375
C107	C	1.388939	-0.303655	0.033958
C108	C	1.722273	0.029679	0.367291
C109	C	1.085761	-0.967039	-0.329480
C110	C	1.419094	-0.633705	0.003853
C111	C	1.752427	-0.300372	0.337187
C112	C	1.082506	-1.040552	-0.326195
C113	C	1.415839	-0.707219	0.007138
C114	C	1.749173	-0.373885	0.340472
C115	C	1.182857	-1.040412	-0.426696
C116	C	1.516190	-0.707079	-0.093363
C117	C	1.849523	-0.373745	0.239971
C118	C	1.186115	-0.966902	-0.429975
C119	C	1.519449	-0.633569	-0.096642
C120	C	1.852782	-0.300236	0.236692
C121	C	1.137564	-0.930220	-0.381371
C122	C	1.470898	-0.596886	-0.048038
C123	C	1.804231	-0.263553	0.285296
N124	N	1.097559	-0.822324	-0.341337
N125	N	1.430892	-0.488990	-0.008004
N126	N	1.764226	-0.155657	0.325329
N127	N	1.140896	-0.855083	-0.384734
N128	N	1.474229	-0.521749	-0.051400
N129	N	1.807563	-0.188416	0.281933
C130	C	1.323910	-0.339072	-0.363013
C131	C	1.657243	-0.005739	-0.029680
C132	C	1.990576	0.327594	0.303654
C133	C	1.411159	-0.339078	-0.363022
C134	C	1.744493	-0.005745	-0.029689
C135	C	2.077826	0.327589	0.303645
C136	C	1.119208	-0.339004	-0.567738
C137	C	1.452541	-0.005671	-0.234405
C138	C	1.785875	0.327662	0.098929
C139	C	1.119226	-0.338981	-0.654989
C140	C	1.452559	-0.005648	-0.321656
C141	C	1.785892	0.327686	0.011678
C142	C	1.127498	-0.155471	-0.371272
C143	C	1.460832	0.177863	-0.037938
C144	C	1.794165	0.511196	0.295395
C145	C	1.131049	-0.077236	-0.374800
C146	C	1.464382	0.256097	-0.041467
C147	C	1.797716	0.589431	0.291866
C148	C	1.071079	-0.293954	-0.698004
C149	C	1.404412	0.039379	-0.364671
C150	C	1.737745	0.372712	-0.031337
C151	C	1.071092	-0.293938	-0.779985
C152	C	1.404426	0.039395	-0.446652
C153	C	1.737759	0.372728	-0.113318
C154	C	1.119257	-0.338946	-0.818950
C155	C	1.452591	-0.005613	-0.485617
C156	C	1.785924	0.327721	-0.152283
C157	C	1.167406	-0.383978	-0.775929
C158	C	1.500740	-0.050645	-0.442596
C159	C	1.834073	0.282689	-0.109262
C160	C	1.167388	-0.383997	-0.693949
C161	C	1.500721	-0.050664	-0.360616
C162	C	1.834055	0.282670	-0.027283
C163	C	1.167442	-0.383934	-0.946801
C164	C	1.500776	-0.050601	-0.613468
C165	C	1.834109	0.282733	-0.280135
C166	C	1.167462	-0.383914	-1.028787
C167	C	1.500795	-0.050581	-0.695453
C168	C	1.834128	0.282753	-0.362120
C169	C	1.071146	-0.293875	-1.032837
C170	C	1.404480	0.039458	-0.699504
C171	C	1.737813	0.372791	-0.366170
C172	C	1.071128	-0.293894	-0.950857
C173	C	1.404462	0.039439	-0.617524
C174	C	1.737795	0.372772	-0.284191
C175	C	1.119278	-0.338925	-0.907842
C176	C	1.452612	-0.005592	-0.574509
C177	C	1.785945	0.327741	-0.241175
C178	C	1.119172	-0.339062	-0.159043
C179	C	1.452505	-0.005729	0.174290
C180	C	1.785838	0.327604	0.507623
C181	C	1.119315	-0.338887	-0.071802
C182	C	1.452648	-0.005554	0.261532
C183	C	1.785982	0.327779	0.594865
H184	H	0.816689	-0.420832	-0.450225
H185	H	1.150022	-0.087499	-0.116892
H186	H	1.483356	0.245834	0.216442
H187	H	0.675282	-0.257288	-0.275757
H188	H	1.008615	0.076045	0.057576
H189	H	1.341948	0.409379	0.390910
H190	H	0.563841	-0.420848	-0.450252
H191	H	0.897175	-0.087515	-0.116919
H192	H	1.230508	0.245819	0.216414
C193	C	0.836305	-0.244400	-0.261990
C194	C	1.169638	0.088934	0.071343
C195	C	1.502972	0.422267	0.404677
N196	N	0.871935	-0.207052	-0.222140
N197	N	1.205268	0.126282	0.111194
N198	N	1.538602	0.459615	0.444527
H199	H	1.031912	-0.257242	-0.919135
H200	H	1.365245	0.076091	-0.585801
H201	H	1.698578	0.409425	-0.252468
H202	H	1.198148	-0.606874	-0.442123
H203	H	1.531481	-0.273541	-0.108790
H204	H	1.864814	0.059792	0.224543
H205	H	1.040318	-1.070532	-0.283937
H206	H	1.373651	-0.737199	0.049396
H207	H	1.706985	-0.403866	0.382729
H208	H	1.046230	-0.937177	-0.289903
H209	H	1.379563	-0.603844	0.043430
H210	H	1.712896	-0.270511	0.376764
H211	H	0.422435	-0.257298	-0.275785
H212	H	0.755768	0.076035	0.057549
H213	H	1.089102	0.409368	0.390882
H214	H	0.667971	-0.420835	-0.450245
H215	H	1.001304	-0.087502	-0.116912
H216	H	1.334637	0.245832	0.216422
H217	H	1.016076	-0.607120	-0.259797
H218	H	1.349409	-0.273787	0.073536
H219	H	1.682743	0.059546	0.406870
C220	C	1.206109	-0.750710	-0.450047
C221	C	1.539443	-0.417377	-0.116714
C222	C	1.872776	-0.084044	0.216619
N223	N	1.246345	-0.781101	-0.490313
N224	N	1.579678	-0.447767	-0.156979
N225	N	1.913011	-0.114434	0.176354
H226	H	1.031862	-0.257300	-0.666285
H227	H	1.365195	0.076034	-0.332952
H228	H	1.698528	0.409367	0.000382
C229	C	1.220203	-0.433646	-0.818786
C230	C	1.553536	-0.100313	-0.485453
C231	C	1.886870	0.233020	-0.152119
N232	N	1.259906	-0.471113	-0.851062
N233	N	1.593240	-0.137780	-0.517729
N234	N	1.926573	0.195554	-0.184396
H235	H	0.415113	-0.420851	-0.450274
H236	H	0.748447	-0.087518	-0.116940
H237	H	1.081780	0.245815	0.216393
H238	H	1.228298	-0.936922	-0.472230
H239	H	1.561631	-0.603588	-0.138897
H240	H	1.894964	-0.270255	0.194437
H241	H	1.206600	-0.420657	-0.658928
H242	H	1.539934	-0.087324	-0.325594
H243	H	1.873267	0.246010	0.007739
C244	C	1.236254	-1.080769	-0.480162
C245	C	1.569587	-0.747436	-0.146829
C246	C	1.902921	-0.414102	0.186504
N247	N	1.276472	-1.111166	-0.520438
N248	N	1.609806	-0.777833	-0.187105
N249	N	1.943139	-0.444499	0.146229
H250	H	1.010163	-0.740484	-0.253840
H251	H	1.343497	-0.407151	0.079494
H252	H	1.676830	-0.073817	0.412827
C253	C	1.018135	-0.244398	-0.827298
C254	C	1.351468	0.088935	-0.493965
C255	C	1.684802	0.422269	-0.160632
N256	N	0.978248	-0.207080	-0.862934
N257	N	1.311581	0.126253	-0.529601
N258	N	1.644914	0.459587	-0.196268
H259	H	1.031942	-0.257209	-1.067864
H260	H	1.365275	0.076125	-0.734531
H261	H	1.698608	0.409458	-0.401197
H262	H	1.206682	-0.420563	-1.060510
H263	H	1.540015	-0.087230	-0.727176
H264	H	1.873349	0.246103	-0.393843
H265	H	1.206659	-0.420597	-0.911781
H266	H	1.539992	-0.087263	-0.578448
H267	H	1.873325	0.246070	-0.245114
H268	H	0.571163	-0.257287	-0.275766
H269	H	0.904496	0.076046	0.057568
H270	H	1.237830	0.409379	0.390901
