data_functionalizedCrystal
_audit_creation_method	'MofGen! by Chris Wilmer'
_symmetry_space_group_name_H-M	'P1'
_symmetry_Int_Tables_number	1
_symmetry_cell_setting	triclinic
loop_
_symmetry_equiv_pos_as_xyz
  x,y,z
_cell_length_a	10.654550
_cell_length_b	13.930277
_cell_length_c	10.654550
_cell_angle_alpha	89.995626
_cell_angle_beta	95.515069
_cell_angle_gamma	90.003973
loop_
_atom_site_label
_atom_site_type_symbol
_atom_site_fract_x
_atom_site_fract_y
_atom_site_fract_z
O1	O	1.667846	0.079759	-0.176398
O2	O	1.302368	0.079777	-0.193204
O3	O	1.493510	0.079761	-0.002062
O4	O	1.476704	0.079774	-0.367540
O5	O	1.493483	-0.079901	-0.002058
O6	O	1.302341	-0.079885	-0.193200
O7	O	1.667819	-0.079903	-0.176394
Zn8	Zn	1.485076	-0.105244	-0.184796
Zn9	Zn	1.485111	0.105118	-0.184802
O10	O	1.476677	-0.079888	-0.367536
C11	C	1.255556	-0.000052	-0.191968
C12	C	1.116113	-0.000046	-0.188276
N13	N	1.485061	-0.248810	-0.184792
C14	C	1.036628	-0.000044	-0.300818
C15	C	0.905607	-0.000061	-0.297341
C16	C	0.933570	-0.000076	-0.068772
C17	C	1.064588	-0.000066	-0.072250
C18	C	1.400470	-0.701072	-0.269406
C19	C	1.569787	-0.701055	-0.100188
C20	C	1.569772	-0.600560	-0.100184
C21	C	1.485106	-0.550316	-0.184794
C22	C	1.400455	-0.600567	-0.269407
C23	C	1.654430	-0.550300	-0.015581
C24	C	1.654420	-0.449798	-0.015574
C25	C	1.569747	-0.399553	-0.100179
C26	C	1.485091	-0.449811	-0.184795
C27	C	1.400425	-0.399567	-0.269404
C28	C	1.315762	-0.449823	-0.354015
C29	C	1.315782	-0.550322	-0.354012
C30	C	1.569727	-0.299054	-0.100182
C31	C	1.400410	-0.299062	-0.269405
C32	C	1.714631	-0.000072	-0.177630
C33	C	1.854074	-0.000072	-0.181322
C34	C	1.492263	-0.000069	0.044738
C35	C	1.488571	-0.000067	0.184181
N36	N	1.485136	0.248684	-0.184797
C37	C	1.477925	-0.000055	-0.414336
C38	C	1.481616	-0.000051	-0.553779
C39	C	1.601112	-0.000072	0.263667
C40	C	1.597636	-0.000061	0.394688
C41	C	1.369066	-0.000043	0.366725
C42	C	1.372544	-0.000048	0.235706
H43	H	0.840894	-0.000062	-0.388984
H44	H	1.689279	-0.000063	0.459401
O45	O	1.251147	-0.000049	0.149972
H46	H	1.247271	0.065029	0.089610
H47	H	1.723369	-0.591212	0.053300
H48	H	0.891602	-0.000099	0.025693
O49	O	1.745712	-0.395600	0.075700
H50	H	1.807210	-0.349798	0.022278
O51	O	1.243926	-0.000042	0.422296
H52	H	1.260412	-0.000053	0.526756
H53	H	1.331459	-0.258159	-0.338300
O54	O	1.092208	-0.000042	-0.425953
H55	H	1.014920	-0.000056	-0.503625
H56	H	1.129309	-0.000070	0.019401
O57	O	1.224423	-0.395630	-0.445253
H58	H	1.238634	-0.317305	-0.431023
O59	O	1.224486	-0.604523	-0.445280
H60	H	1.238736	-0.682846	-0.431075
O61	O	1.661025	-0.244845	-0.008933
H62	H	1.719898	-0.296667	0.049903
H63	H	1.331535	-0.741994	-0.338292
H64	H	1.638726	-0.741967	-0.031307
H65	H	1.695588	-0.000087	0.221720
