data_functionalizedCrystal
_audit_creation_method	'MofGen! by Chris Wilmer'
_symmetry_space_group_name_H-M	'P1'
_symmetry_Int_Tables_number	1
_symmetry_cell_setting	triclinic
loop_
_symmetry_equiv_pos_as_xyz
  x,y,z
_cell_length_a	11.792254
_cell_length_b	16.992695
_cell_length_c	15.455313
_cell_angle_alpha	92.847427
_cell_angle_beta	87.300348
_cell_angle_gamma	87.433410
loop_
_atom_site_label
_atom_site_type_symbol
_atom_site_fract_x
_atom_site_fract_y
_atom_site_fract_z
O1	O	1.520364	0.104150	-0.072131
O2	O	1.190930	0.115220	-0.072133
O3	O	1.354326	-0.004463	-0.072125
O4	O	1.356968	0.223833	-0.072139
O5	O	1.344980	0.002352	0.072136
O6	O	1.181584	0.122035	0.072129
O7	O	1.511017	0.110965	0.072131
Cu8	Cu	1.345447	0.117123	0.085302
Cu9	Cu	1.356500	0.109062	-0.085304
O10	O	1.347622	0.230648	0.072123
C11	C	1.346255	-0.030283	0.000005
C12	C	1.336117	-0.117370	0.000005
C13	C	1.143909	0.117930	-0.000002
C14	C	1.017726	0.115843	-0.000003
C15	C	1.433934	-0.167192	0.000007
C16	C	1.424403	-0.249019	-0.000002
C17	C	1.317052	-0.281024	-0.000005
C18	C	1.219227	-0.231196	-0.000009
C19	C	1.228761	-0.149370	-0.000007
C20	C	1.277540	-0.524791	-0.000017
C21	C	1.268014	-0.606624	-0.000017
C22	C	1.473190	-0.624441	-0.000011
C23	C	1.482714	-0.542613	-0.000003
C24	C	1.384890	-0.492793	-0.000012
N25	N	1.307306	-0.364665	-0.000011
N26	N	1.394637	-0.409154	-0.000013
C27	C	0.915251	0.114147	-0.000007
C28	C	0.786691	0.112026	-0.000007
C29	C	1.558038	0.108255	-0.000002
C30	C	1.684223	0.110342	-0.000007
C31	C	1.355693	0.256468	-0.000010
C32	C	1.365831	0.343555	-0.000015
N33	N	1.337681	0.122791	0.205297
N34	N	1.364275	0.103387	-0.205300
C35	C	1.407125	0.071965	0.250694
C36	C	1.401263	0.076259	0.341502
C37	C	1.325963	0.131384	0.386910
C38	C	1.256511	0.182213	0.341507
C39	C	1.262368	0.177914	0.250701
C40	C	1.300680	0.149918	0.658491
C41	C	1.294831	0.154214	0.749303
C42	C	1.439582	0.048259	0.749292
C43	C	1.445437	0.043968	0.658484
C44	C	1.375982	0.094794	0.613089
N45	N	1.319972	0.135777	0.479730
N46	N	1.381968	0.090397	0.520270
H47	H	1.521351	-0.141140	0.000015
H48	H	1.457809	0.034872	0.378464
H49	H	1.197884	-0.484237	-0.000024
Br50	Br	1.154306	0.257022	0.403129
Br51	Br	1.073536	-0.274630	-0.000029
Br52	Br	1.547636	-0.030842	0.596857
H53	H	1.570130	-0.516561	-0.000000
Br54	Br	1.557161	-0.316632	0.000000
H55	H	1.552833	-0.665014	-0.000005
H56	H	1.180591	-0.632677	-0.000006
Br57	Br	1.168111	0.246892	0.189090
Br58	Br	1.096003	-0.081754	-0.000016
Br59	Br	1.509333	-0.002846	0.189078
H60	H	1.496128	0.006878	0.786262
Br61	Br	1.192633	0.229037	0.810923
Br62	Br	1.206425	0.218895	0.596887
