data_functionalizedCrystal
_audit_creation_method	'MofGen! by Chris Wilmer'
_symmetry_space_group_name_H-M	'P1'
_symmetry_Int_Tables_number	1
_symmetry_cell_setting	triclinic
loop_
_symmetry_equiv_pos_as_xyz
  x,y,z
_cell_length_a	17.699104
_cell_length_b	17.699083
_cell_length_c	16.776229
_cell_angle_alpha	90.001567
_cell_angle_beta	90.008015
_cell_angle_gamma	83.287266
loop_
_atom_site_label
_atom_site_type_symbol
_atom_site_fract_x
_atom_site_fract_y
_atom_site_fract_z
O1	O	1.004069	0.095781	0.066306
O2	O	1.504069	0.595781	0.566306
O3	O	0.783693	0.108217	0.066304
O4	O	1.283693	0.608217	0.566304
O5	O	0.900107	-0.008189	0.066298
O6	O	1.400107	0.491811	0.566298
O7	O	0.887655	0.212188	0.066312
O8	O	1.387655	0.712188	0.566312
O9	O	0.900090	-0.008183	-0.066278
O10	O	1.400090	0.491817	0.433722
O11	O	0.783676	0.108224	-0.066272
O12	O	1.283676	0.608224	0.433728
O13	O	1.004052	0.095788	-0.066271
O14	O	1.504052	0.595788	0.433729
Zn15	Zn	0.893862	0.102006	-0.087321
Zn16	Zn	1.393862	0.602006	0.412679
Zn17	Zn	0.893884	0.101998	0.087354
Zn18	Zn	1.393884	0.601998	0.587354
O19	O	0.887638	0.212194	-0.066264
O20	O	1.387638	0.712194	0.433736
C21	C	0.755488	0.107772	0.000016
C22	C	1.255488	0.607772	0.500016
C23	C	0.671471	0.106427	0.000015
C24	C	1.171471	0.606427	0.500015
C25	C	0.899653	-0.036383	0.000010
C26	C	1.399653	0.463617	0.500010
C27	C	0.898314	-0.120402	0.000009
C28	C	1.398314	0.379598	0.500009
C29	C	0.146600	0.167171	0.000027
C30	C	0.646600	0.667171	0.500027
C31	C	0.225543	0.168430	0.000029
C32	C	0.725543	0.668430	0.500029
C33	C	0.274161	0.100095	0.000025
C34	C	0.774161	0.600095	0.500025
C35	C	0.243831	0.030496	0.000026
C36	C	0.743831	0.530496	0.500026
C37	C	0.164889	0.029238	0.000029
C38	C	0.664889	0.529238	0.500029
C39	C	0.562197	0.035569	0.000014
C40	C	1.062197	0.535569	0.500014
C41	C	0.641144	0.036833	0.000008
C42	C	1.141144	0.536833	0.500008
C43	C	0.622852	0.174762	0.000014
C44	C	1.122852	0.674762	0.500014
C45	C	0.543909	0.173503	0.000017
C46	C	1.043909	0.673503	0.500017
C47	C	0.513587	0.103905	0.000022
C48	C	1.013587	0.603905	0.500022
C49	C	0.427987	0.102541	0.000021
C50	C	0.927987	0.602541	0.500021
C51	C	0.359759	0.101459	0.000020
C52	C	0.859759	0.601459	0.500020
C53	C	0.966647	-0.169017	0.000009
C54	C	1.466647	0.330983	0.500009
C55	C	0.965385	-0.247961	0.000016
C56	C	1.465385	0.252039	0.500016
C57	C	0.895789	-0.278287	0.000018
C58	C	1.395789	0.221713	0.500018
C59	C	0.827451	-0.229665	0.000021
C60	C	1.327451	0.270335	0.500021
C61	C	0.828714	-0.150723	0.000019
C62	C	1.328714	0.349277	0.500019
C63	C	0.822356	-0.548028	0.000027
C64	C	1.322356	-0.048028	0.500027
C65	C	0.821098	-0.626976	0.000026
C66	C	1.321098	-0.126976	0.500026
C67	C	0.959026	-0.645266	0.000024
C68	C	1.459026	-0.145266	0.500024
C69	C	0.960289	-0.566324	0.000022
C70	C	1.460289	-0.066324	0.500022
C71	C	0.891952	-0.517709	0.000029
C72	C	1.391952	-0.017709	0.500029
C73	C	0.893321	-0.432110	0.000023
C74	C	1.393321	0.067890	0.500023
C75	C	0.894419	-0.363885	0.000018
C76	C	1.394419	0.136115	0.500018
C77	C	1.032258	0.096233	0.000020
C78	C	1.532258	0.596233	0.500020
C79	C	1.116275	0.097578	0.000026
C80	C	1.616275	0.597578	0.500026
C81	C	0.888093	0.240388	0.000026
C82	C	1.388093	0.740388	0.500026
C83	C	0.889431	0.324406	0.000031
C84	C	1.389431	0.824406	0.500031
N85	N	0.893852	0.102012	-0.206532
N86	N	1.393852	0.602012	0.293468
C87	C	0.945454	0.050461	-0.751700
C88	C	1.445454	0.550461	-0.251700
C89	C	0.945450	0.050466	-0.668247
C90	C	1.445450	0.550466	-0.168247
C91	C	0.893888	0.101995	-0.626531
C92	C	1.393888	0.601995	-0.126531
C93	C	0.842331	0.153527	-0.668272
C94	C	1.342331	0.653527	-0.168272
C95	C	0.842339	0.153524	-0.751723
C96	C	1.342339	0.653524	-0.251723
C97	C	0.842299	0.153538	-0.331725
C98	C	1.342299	0.653538	0.168275
C99	C	0.842293	0.153535	-0.248268
C100	C	1.342293	0.653535	0.251732
C101	C	0.945410	0.050480	-0.248249
C102	C	1.445410	0.550480	0.251751
C103	C	0.945418	0.050478	-0.331700
C104	C	1.445418	0.550478	0.168300
C105	C	0.893864	0.102012	-0.373434
C106	C	1.393864	0.602012	0.126566
C107	C	0.893870	0.102006	-0.463922
C108	C	1.393870	0.602006	0.036078
C109	C	0.893878	0.101997	-0.536045
C110	C	1.393878	0.601997	-0.036045
N111	N	0.893900	0.101987	0.206566
N112	N	1.393900	0.601987	0.706566
H113	H	0.250230	0.225100	0.000038
H114	H	0.750230	0.725100	0.500038
H115	H	1.021028	-0.287541	0.000014
H116	H	1.521028	0.212459	0.500014
H117	H	0.537518	-0.021102	0.000016
H118	H	1.037518	0.478898	0.500016
H119	H	0.800359	0.195483	-0.785703
H120	H	1.300359	0.695483	-0.285703
H121	H	1.014670	-0.684858	0.000022
H122	H	1.514670	-0.184858	0.500022
H123	H	0.647550	0.231432	0.000013
H124	H	1.147550	0.731432	0.500013
H125	H	0.283422	-0.025143	0.000027
H126	H	0.783422	0.474857	0.500027
H127	H	0.773070	-0.111140	0.000020
H128	H	1.273070	0.388860	0.500020
C129	C	1.047370	-0.051411	-0.676611
C130	C	1.547370	0.448589	-0.176611
C131	C	1.002117	-0.006177	-0.622373
C132	C	1.502117	0.493823	-0.122373
H133	H	1.082351	-0.086385	-0.648288
H134	H	1.582351	0.413615	-0.148288
H135	H	1.074538	-0.019942	-0.709151
H136	H	1.574538	0.480058	-0.209151
H137	H	1.015909	-0.078595	-0.709168
H138	H	1.515909	0.421405	-0.209168
H139	H	1.033577	0.021011	-0.589819
H140	H	1.533577	0.521011	-0.089819
H141	H	0.974947	-0.037651	-0.589818
H142	H	1.474947	0.462349	-0.089818
H143	H	0.140200	-0.027432	0.000030
H144	H	0.640200	0.472568	0.500030
C145	C	0.047204	0.245786	-0.068120
C146	C	0.547204	0.745786	0.431880
C147	C	0.093164	0.242289	0.000031
C148	C	0.593164	0.742289	0.500031
H149	H	0.014221	0.292165	-0.068115
H150	H	0.514221	0.792165	0.431885
H151	H	0.017845	0.204165	-0.068116
H152	H	0.517845	0.704165	0.431884
H153	H	0.078381	0.243411	-0.114348
H154	H	0.578381	0.743411	0.385652
H155	H	0.061987	0.244658	0.046260
H156	H	0.561987	0.744658	0.546260
H157	H	0.122525	0.283921	0.000035
H158	H	0.622525	0.783921	0.500035
C159	C	0.711229	0.198135	-0.642618
C160	C	1.211229	0.698135	-0.142618
C161	C	0.785651	0.210171	-0.622423
C162	C	1.285651	0.710171	-0.122423
H163	H	0.676237	0.233108	-0.614318
H164	H	1.176237	0.733108	-0.114318
H165	H	0.703108	0.147638	-0.628940
H166	H	1.203108	0.647638	-0.128940
H167	H	0.703868	0.205508	-0.698293
H168	H	1.203868	0.705508	-0.198293
H169	H	0.793014	0.202792	-0.566749
H170	H	1.293014	0.702792	-0.066749
H171	H	0.793776	0.260680	-0.636096
H172	H	1.293776	0.760680	-0.136096
H173	H	0.680728	-0.018817	0.000006
H174	H	1.180728	0.481183	0.500006
C175	C	0.684876	-0.600971	0.000051
C176	C	1.184876	-0.100971	0.500051
C177	C	0.744592	-0.660312	0.000039
C178	C	1.244592	-0.160312	0.500039
H179	H	0.637649	-0.621553	0.000063
H180	H	1.137649	-0.121553	0.500063
H181	H	0.688222	-0.570562	-0.046179
H182	H	1.188222	-0.070562	0.453821
H183	H	0.688253	-0.570560	0.046286
H184	H	1.188253	-0.070560	0.546286
H185	H	0.741218	-0.690719	-0.046200
H186	H	1.241218	-0.190719	0.453800
H187	H	0.741245	-0.690733	0.046273
H188	H	1.241245	-0.190733	0.546273
H189	H	1.023320	-0.144333	0.000002
H190	H	1.523320	0.355667	0.500002
C191	C	0.504025	0.290675	0.068183
C192	C	1.004025	0.790675	0.568183
C193	C	0.490469	0.248619	0.000026
C194	C	0.990469	0.748619	0.500026
H195	H	0.471030	0.337046	0.068192
H196	H	0.971030	0.837046	0.568192
H197	H	0.555374	0.301383	0.068175
H198	H	1.055374	0.801383	0.568175
H199	H	0.494852	0.262118	0.114408
H200	H	0.994852	0.762118	0.614408
H201	H	0.499648	0.277173	-0.046198
H202	H	0.999648	0.777173	0.453802
H203	H	0.439108	0.237912	0.000028
H204	H	0.939108	0.737912	0.500028
C205	C	1.096504	-0.592335	0.000030
C206	C	1.596504	-0.092335	0.500030
C207	C	1.036791	-0.532991	0.000024
C208	C	1.536791	-0.032991	0.500024
H209	H	1.143733	-0.571755	0.000038
H210	H	1.643733	-0.071755	0.500038
H211	H	1.093141	-0.622743	-0.046200
H212	H	1.593141	-0.122743	0.453800
H213	H	1.093141	-0.622745	0.046265
H214	H	1.593141	-0.122745	0.546265
H215	H	1.040151	-0.502584	-0.046214
H216	H	1.540151	-0.002584	0.453786
H217	H	1.040156	-0.502570	0.046259
H218	H	1.540156	-0.002570	0.546259
H219	H	0.766711	-0.508455	0.000033
H220	H	1.266711	-0.008455	0.500033
C221	C	0.764268	-0.342554	0.000015
C222	C	1.264268	0.157446	0.500015
C223	C	0.750949	-0.262997	0.000020
C224	C	1.250949	0.237003	0.500020
H225	H	0.717037	-0.363129	0.000007
H226	H	1.217037	0.136871	0.500007
H227	H	0.792398	-0.359246	0.046245
H228	H	1.292398	0.140754	0.546245
H229	H	0.792394	-0.359241	-0.046220
H230	H	1.292394	0.140759	0.453780
H231	H	0.722828	-0.246309	0.046258
H232	H	1.222828	0.253691	0.546258
H233	H	0.722808	-0.246299	-0.046215
H234	H	1.222808	0.253701	0.453785
H235	H	0.987439	0.008497	-0.785659
H236	H	1.487439	0.508497	-0.285659
H237	H	0.987402	0.008516	-0.365663
H238	H	1.487402	0.508516	0.134337
H239	H	0.800320	0.195497	-0.365698
H240	H	1.300320	0.695497	0.134302
C241	C	0.961983	-0.052575	-0.154440
C242	C	1.461983	0.447425	0.345560
C243	C	1.002069	-0.006197	-0.202393
C244	C	1.502069	0.493803	0.297607
H245	H	0.996956	-0.087571	-0.126135
H246	H	1.496956	0.412429	0.373865
H247	H	0.930520	-0.079726	-0.187016
H248	H	1.430520	0.420274	0.312984
H249	H	0.931297	-0.021879	-0.117639
H250	H	1.431297	0.478121	0.382361
H251	H	1.032752	-0.036892	-0.239198
H252	H	1.532752	0.463108	0.260802
H253	H	1.033546	0.020957	-0.169814
H254	H	1.533546	0.520957	0.330186
C255	C	0.740372	0.255423	-0.256665
C256	C	1.240372	0.755423	0.243335
C257	C	0.785618	0.210186	-0.202412
C258	C	1.285618	0.710186	0.297588
H259	H	0.705389	0.290396	-0.228353
H260	H	1.205389	0.790396	0.271647
H261	H	0.713206	0.223955	-0.289220
H262	H	1.213206	0.723955	0.210780
H263	H	0.771837	0.282606	-0.289207
H264	H	1.271837	0.782606	0.210793
H265	H	0.754152	0.182998	-0.169874
H266	H	1.254152	0.682998	0.330126
H267	H	0.812785	0.241657	-0.169844
H268	H	1.312785	0.741657	0.330156
