data_functionalizedCrystal
_audit_creation_method	'MofGen! by Chris Wilmer'
_symmetry_space_group_name_H-M	'P1'
_symmetry_Int_Tables_number	1
_symmetry_cell_setting	triclinic
loop_
_symmetry_equiv_pos_as_xyz
  x,y,z
_cell_length_a	27.440280
_cell_length_b	19.902436
_cell_length_c	19.902436
_cell_angle_alpha	90.004623
_cell_angle_beta	59.999061
_cell_angle_gamma	60.005534
loop_
_atom_site_label
_atom_site_type_symbol
_atom_site_fract_x
_atom_site_fract_y
_atom_site_fract_z
Zr1	Zr	0.533349	0.647428	-0.088182
O2	O	0.635015	0.540156	-0.195482
O3	O	0.431683	0.680298	-0.055280
O4	O	0.533337	0.680319	-0.195459
O5	O	0.533370	0.540136	0.055262
O6	O	0.533327	0.790898	-0.195450
O7	O	0.533361	0.540136	-0.055304
O8	O	0.351487	0.790861	0.055305
O9	O	0.715210	0.540172	-0.195492
O10	O	0.473493	0.776858	-0.041251
O11	O	0.473507	0.694334	0.041256
O12	O	0.593191	0.694358	-0.123786
O13	O	0.593205	0.611835	-0.041279
Zr14	Zr	0.533349	0.823788	0.088172
Zr15	Zr	0.533334	0.823788	-0.088167
Zr16	Zr	0.533364	0.647428	0.088158
Zr17	Zr	0.661252	0.647454	-0.088197
Zr18	Zr	0.405446	0.823762	0.088188
O19	O	0.635015	0.790918	0.055270
O20	O	0.634993	0.790918	-0.195462
O21	O	0.635036	0.540156	0.055250
O22	O	0.431683	0.931060	0.195473
O23	O	0.431662	0.931060	-0.055259
O24	O	0.431705	0.680298	0.195452
O25	O	0.533327	0.931080	-0.055272
O26	O	0.533361	0.790897	0.195449
O27	O	0.533370	0.680319	0.195440
O28	O	0.533337	0.931080	0.055294
O29	O	0.715198	0.680355	-0.195481
O30	O	0.351499	0.790861	0.195471
O31	O	0.351487	0.931044	0.195482
O32	O	0.351475	0.931044	0.055316
O33	O	0.715222	0.540172	-0.055326
O34	O	0.715210	0.680355	-0.055314
O35	O	0.473507	0.776858	0.123777
O36	O	0.473493	0.859382	0.041270
O37	O	0.593191	0.776882	-0.041266
O38	O	0.593205	0.694358	0.041242
C39	C	0.373362	0.735576	0.000015
C40	C	0.319064	0.735565	0.000021
C41	C	0.040180	0.796526	0.060921
C42	C	0.091202	0.796518	0.060924
O43	O	0.080026	0.848331	0.112719
N44	N	0.160893	0.735600	0.000005
C45	C	0.179562	0.674690	-0.060926
O46	O	0.243525	0.622874	-0.112743
C47	C	0.128541	0.674702	-0.060932
C48	C	0.058850	0.735619	-0.000004
C49	C	-0.029507	0.857439	0.121843
C50	C	-0.080526	0.857446	0.121841
C51	C	-0.061856	0.796539	0.060916
C52	C	0.007831	0.735626	-0.000007
C53	C	0.147211	0.613796	-0.121866
C54	C	0.096182	0.613813	-0.121867
C55	C	0.026491	0.674731	-0.060939
C56	C	-0.024517	0.674725	-0.060934
N57	N	-0.094208	0.735644	-0.000015
C58	C	-0.112878	0.796550	0.060910
C59	C	0.286708	0.674671	-0.060910
C60	C	0.337729	0.674655	-0.060902
C61	C	0.249365	0.796485	0.060948
C62	C	0.198343	0.796497	0.060942
C63	C	0.217017	0.735589	0.000009
C64	C	-0.220016	0.796559	0.060900
C65	C	-0.271035	0.796558	0.060894
C66	C	-0.182667	0.674731	-0.060957
C67	C	-0.131653	0.674729	-0.060949
C68	C	-0.150332	0.735650	-0.000017
O69	O	-0.013392	0.622941	-0.112705
O70	O	-0.176840	0.848364	0.112711
C71	C	0.533368	0.515008	-0.000023
C72	C	0.533374	0.440138	-0.000029
C73	C	0.533330	0.735608	-0.220579
C74	C	0.533324	0.735608	-0.295440
C75	C	0.693336	0.735640	-0.000024
C76	C	0.747634	0.735651	-0.000031
C77	C	0.533340	0.168137	0.000003
C78	C	0.608848	0.144585	-0.051812
C79	C	0.608896	0.222422	-0.052100
C80	C	0.533357	0.303080	-0.000013
C81	C	0.495853	0.300661	-0.037966
C82	C	0.496336	0.222433	-0.038349
C83	C	0.494796	0.223420	0.089795
C84	C	0.496215	0.300342	0.089657
C85	C	0.533363	0.379346	-0.000021
C86	C	0.533332	0.091871	0.000008
C87	C	0.533330	0.956208	0.000013
C88	C	0.533324	1.031078	0.000019
C89	C	0.533357	0.735608	-0.567488
C90	C	0.457849	0.787898	-0.486933
C91	C	0.457802	0.787671	-0.409030
C92	C	0.533340	0.735609	-0.432521
C93	C	0.570845	0.645948	-0.486653
C94	C	0.570362	0.646234	-0.564215
C95	C	0.571902	0.772255	-0.565344
C96	C	0.570483	0.774070	-0.486466
C97	C	0.533334	0.735604	-0.356247
C98	C	0.533365	0.735606	-0.643764
C99	C	0.533368	0.735608	0.220569
C100	C	0.533374	0.735608	0.295430
C101	C	0.373343	0.956176	0.000032
C102	C	0.319038	1.031035	0.000045
C103	C	0.373381	0.735576	0.220589
C104	C	0.319089	0.735565	0.295456
C105	C	0.373362	0.956176	0.220607
C106	C	0.319064	1.031034	0.295480
C107	C	0.693336	0.515040	-0.220616
C108	C	0.747634	0.440182	-0.295490
C109	C	0.693355	0.515040	-0.000042
C110	C	0.747659	0.440182	-0.000055
C111	C	0.693317	0.735640	-0.220598
C112	C	0.747609	0.735651	-0.295465
C113	C	0.293536	1.023112	-0.043031
C114	C	0.242519	1.093443	-0.043036
C115	C	0.217000	1.171696	0.000041
C116	C	0.242507	1.179616	0.043119
C117	C	0.293528	1.109286	0.043118
C118	C	0.293593	0.778636	0.373697
C119	C	0.242587	0.778623	0.444049
C120	C	0.217075	0.735542	0.436159
C121	C	0.242576	0.692466	0.357910
C122	C	0.293584	0.692475	0.287559
C123	C	0.293557	1.109273	0.287573
C124	C	0.242545	1.179617	0.357918
C125	C	0.217037	1.171721	0.436169
C126	C	0.242549	1.093475	0.444074
C127	C	0.293563	1.023132	0.373730
C128	C	0.773147	0.361943	-0.287583
C129	C	0.824174	0.291599	-0.357928
C130	C	0.849685	0.299495	-0.436178
C131	C	0.824170	0.377741	-0.444083
C132	C	0.773147	0.448084	-0.373739
C133	C	0.773167	0.448104	0.043014
C134	C	0.824199	0.377773	0.043000
C135	C	0.849719	0.299520	-0.000080
C136	C	0.824209	0.291600	-0.043154
C137	C	0.773182	0.361930	-0.043144
C138	C	0.773105	0.778740	-0.287549
C139	C	0.824111	0.778767	-0.357888
C140	C	0.849624	0.735699	-0.436143
C141	C	0.824122	0.692609	-0.444058
C142	C	0.773114	0.692588	-0.373719
H143	H	-0.044721	0.907041	0.171457
N144	N	0.850146	0.822793	-0.349790
N145	N	0.810271	0.898735	-0.313066
H146	H	0.828656	0.929830	-0.307345
N147	N	0.216504	0.648467	0.349873
N148	N	0.170958	0.648476	0.412699
H149	H	0.152541	0.617406	0.407025
N150	N	0.164960	0.735543	0.508017
N151	N	0.142177	0.697086	0.500970
H152	H	0.105369	0.697091	0.551721
H153	H	0.141600	0.846101	0.110555
H154	H	0.625590	0.739945	-0.504995
N155	N	0.216462	1.085357	-0.087035
N156	N	0.222156	1.114983	-0.143760
H157	H	0.203754	1.109272	-0.174833
H158	H	0.518963	0.187113	0.121500
N159	N	0.901726	0.735736	-0.507979
N160	N	0.924481	0.774214	-0.500890
H161	H	0.961280	0.774242	-0.551622
N162	N	-0.239088	0.858782	0.123132
N163	N	-0.220478	0.905687	0.103431
H164	H	-0.233946	0.949629	0.147384
N165	N	0.216530	0.822649	0.523971
N166	N	0.153896	0.879360	0.572842
H167	H	0.135492	0.910456	0.629286
N168	N	0.901806	0.227629	-0.508021
N169	N	0.924574	0.157780	-0.500940
H170	H	0.961383	0.107020	-0.551676
H171	H	0.314336	0.657404	0.223855
H172	H	0.844940	0.227894	-0.351475
N173	N	0.218395	0.551575	-0.184094
N174	N	0.256726	0.504661	-0.164392
H175	H	0.307003	0.460716	-0.208343
H176	H	0.752361	0.657496	-0.380177
N177	N	0.319581	1.117370	0.087120
N178	N	0.382211	1.087748	0.049634
H179	H	0.400611	1.093461	0.080711
H180	H	0.891269	0.242260	-0.000082
N181	N	0.319612	0.943179	-0.087045
N182	N	0.365169	0.880383	-0.087052
H183	H	0.383587	0.823931	-0.118143
N184	N	0.850242	0.385785	-0.524023
N185	N	0.895797	0.322966	-0.586816
H186	H	0.914210	0.328643	-0.643277
H187	H	0.111395	0.564216	-0.171489
H188	H	0.752375	0.511787	-0.380187
N189	N	0.426844	0.246672	0.005937
N190	N	0.403076	0.226996	0.068225
H191	H	0.353998	0.244116	0.099500
H192	H	0.314318	1.115717	0.223864
N193	N	0.216501	1.259531	0.349817
N194	N	0.239279	1.266561	0.279943
H195	H	0.220887	1.322998	0.274219
H196	H	0.627532	0.734337	-0.622113
N197	N	0.850266	0.211663	-0.087132
N198	N	0.810407	0.190662	-0.068847
H199	H	0.828807	0.134204	-0.099899
H200	H	0.844903	0.657544	-0.507782
H201	H	0.440312	0.357463	-0.002041
N202	N	0.747111	0.528024	0.087030
N203	N	0.769902	0.535071	0.125474
H204	H	0.751505	0.591513	0.156560
N205	N	-0.151705	0.919694	0.184074
N206	N	-0.175564	0.993783	0.191549
H207	H	-0.225833	1.037754	0.235503
H208	H	0.394472	0.625041	-0.110506
H209	H	0.234171	0.846079	0.110556
N210	N	-0.342221	0.858789	0.123143
N211	N	-0.358876	0.913165	0.177534
H212	H	-0.409149	0.957115	0.221497
H213	H	0.441106	0.357790	0.131512
H214	H	0.175498	1.229006	0.493441
H215	H	0.638335	0.104679	-0.117650
N216	N	0.850242	0.385889	0.087004
N217	N	0.827441	0.455765	0.125470
H218	H	0.845833	0.461501	0.156548
H219	H	0.221773	1.087058	0.507795
H220	H	0.314359	0.813718	0.380137
N221	N	0.747127	0.353815	-0.087130
N222	N	0.718676	0.317094	-0.068855
H223	H	0.700277	0.311356	-0.099922
N224	N	0.305799	0.612443	-0.123160
N225	N	0.368028	0.558061	-0.177544
H226	H	0.381514	0.514112	-0.221509
N227	N	-0.060466	0.612501	-0.123192
N228	N	-0.043809	0.558129	-0.177588
H229	H	0.006464	0.514185	-0.221556
N230	N	0.747059	0.822740	-0.207626
N231	N	0.769834	0.861212	-0.200584
H232	H	0.751439	0.892294	-0.144140
H233	H	0.314324	0.959430	0.380179
H234	H	-0.167477	0.625140	-0.110558
N235	N	0.645808	0.220952	-0.020164
N236	N	0.671716	0.162295	0.002492
H237	H	0.697789	0.161250	0.025046
N238	N	0.529774	0.176581	-0.121238
N239	N	0.582751	0.104551	-0.153804
H240	H	0.606369	0.072168	-0.212347
H241	H	0.752379	0.355499	-0.223874
N242	N	0.645941	0.095367	-0.019983
N243	N	0.654516	0.027802	-0.017338
H244	H	0.680677	-0.006992	0.005168
N245	N	0.646039	0.220187	-0.135195
N246	N	0.672003	0.161069	-0.193157
H247	H	0.698238	0.159487	-0.251847
N248	N	0.528521	0.302616	-0.120065
N249	N	0.579415	0.305789	-0.150783
H250	H	0.602490	0.307168	-0.208766
H251	H	0.523561	0.299970	0.118010
H252	H	0.439173	0.243326	0.128585
N253	N	0.420673	0.755772	-0.360057
N254	N	0.368435	0.799225	-0.288051
H255	H	0.342214	0.776689	-0.253468
N256	N	0.420931	0.870512	-0.359673
N257	N	0.358971	0.921086	-0.332238
H258	H	0.332947	0.979601	-0.297409
N259	N	0.420668	0.870933	-0.484807
N260	N	0.411947	0.885639	-0.540410
H261	H	0.385689	0.944285	-0.538914
N262	N	0.420863	0.756304	-0.486002
N263	N	0.449872	0.695444	-0.544408
H264	H	0.423753	0.673129	-0.543755
H265	H	0.543718	0.616896	-0.564019
H266	H	0.175455	1.228956	0.000036
N267	N	0.541596	0.853826	-0.569099
N268	N	0.539857	0.866291	-0.629662
H269	H	0.518450	0.923900	-0.632314
H270	H	0.625761	0.605152	-0.621261
H271	H	0.221723	1.243338	0.078191
H272	H	0.544806	0.616402	-0.449198
N273	N	0.640524	0.594946	-0.511474
N274	N	0.681477	0.613224	-0.553393
H275	H	0.730689	0.577206	-0.570924
N276	N	0.536173	0.856935	-0.439626
N277	N	0.484558	0.887605	-0.366784
H278	H	0.460324	0.946129	-0.333697
