data_functionalizedCrystal
_audit_creation_method	'MofGen! by Chris Wilmer'
_symmetry_space_group_name_H-M	'P1'
_symmetry_Int_Tables_number	1
_symmetry_cell_setting	triclinic
loop_
_symmetry_equiv_pos_as_xyz
  x,y,z
_cell_length_a	15.625020
_cell_length_b	15.538191
_cell_length_c	14.750522
_cell_angle_alpha	107.525257
_cell_angle_beta	121.741241
_cell_angle_gamma	66.738808
loop_
_atom_site_label
_atom_site_type_symbol
_atom_site_fract_x
_atom_site_fract_y
_atom_site_fract_z
O1	O	1.229105	0.239034	0.507735
O2	O	0.947727	0.231279	0.409773
O3	O	1.143190	0.102457	0.477828
O4	O	1.033643	0.367857	0.439681
O5	O	1.118996	0.064013	0.309749
O6	O	0.923533	0.192836	0.241694
O7	O	1.204912	0.200591	0.339656
Zn8	Zn	1.060381	0.190609	0.263989
Zn9	Zn	1.092257	0.241261	0.485441
O10	O	1.009449	0.329413	0.271601
C11	C	0.900497	0.208597	0.313502
C12	C	0.795818	0.198276	0.277059
C13	C	0.635089	0.162773	0.134079
C14	C	0.733452	0.172474	0.168334
C15	C	0.759839	0.214381	0.351572
C16	C	0.661478	0.204679	0.317333
C17	C	0.599109	0.178875	0.208585
C18	C	0.625498	0.220781	0.391839
C19	C	0.527143	0.211084	0.357601
C20	C	0.464767	0.185285	0.248858
C21	C	0.500754	0.169178	0.174348
C22	C	0.687865	0.246591	0.500585
C23	C	0.651886	0.262694	0.575091
C24	C	0.553532	0.252990	0.540855
C25	C	0.491156	0.227191	0.432111
C26	C	0.517546	0.269096	0.615365
C27	C	0.419190	0.259399	0.581127
C28	C	0.392801	0.217494	0.397874
C29	C	1.142554	0.049067	0.397782
C30	C	1.176695	-0.052744	0.409678
C31	C	0.837525	-0.367961	0.291575
C32	C	0.869628	-0.463632	0.302750
C33	C	1.050201	-0.471476	0.365617
C34	C	1.018114	-0.375803	0.354452
C35	C	0.911774	-0.324053	0.317430
C36	C	1.092363	-0.331894	0.380307
C37	C	1.060278	-0.236231	0.369138
C38	C	0.953943	-0.184475	0.332115
C39	C	0.879689	-0.228389	0.306261
C40	C	1.198701	-0.383647	0.417322
C41	C	1.272951	-0.339739	0.443177
C42	C	1.240867	-0.244072	0.432016
C43	C	1.134532	-0.192317	0.394992
C44	C	1.315121	-0.200158	0.457869
C45	C	1.283035	-0.104494	0.446700
C46	C	1.102446	-0.096653	0.383823
C47	C	1.252141	0.223273	0.435929
C48	C	1.356822	0.233596	0.472380
C49	C	1.010084	0.382804	0.351649
C50	C	0.975944	0.484616	0.339760
N51	N	1.038634	0.156041	0.112856
C52	C	1.174665	0.372385	-0.191568
C53	C	1.159454	0.348149	-0.297367
C54	C	1.083765	0.227705	-0.323700
C55	C	1.098966	0.251933	-0.217903
C56	C	1.144418	0.324273	-0.151844
C57	C	1.068718	0.203822	-0.178179
C58	C	1.083923	0.228045	-0.072389
C59	C	1.129376	0.300380	-0.006323
C60	C	1.159622	0.348497	-0.046055
C61	C	1.023274	0.131478	-0.244237
C62	C	0.993026	0.083367	-0.204513
C63	C	1.008224	0.107594	-0.098723
C64	C	1.053677	0.179929	-0.032658
C65	C	0.977977	0.059478	-0.058992
C66	C	0.993182	0.083701	0.046798
C67	C	1.068881	0.204153	0.073132
N68	N	1.114015	0.275822	0.636577
H69	H	0.384678	0.177395	0.220982
H70	H	0.810631	0.235394	0.440114
H71	H	1.141757	0.320100	0.079818
H72	H	1.343496	-0.068744	0.467753
H73	H	0.702677	0.283706	0.663633
H74	H	0.449964	0.148178	0.085793
C75	C	1.432089	-0.257097	0.498584
N76	N	1.520192	-0.299984	0.529251
H77	H	0.767948	0.254492	0.528456
H78	H	0.568336	0.290115	0.703906
C79	C	0.927985	-0.020096	-0.131668
N80	N	0.890329	-0.080031	-0.186409
C81	C	0.720546	-0.311031	0.250850
N82	N	0.632440	-0.268152	0.220172
C83	C	0.787939	-0.511926	0.274310
N84	N	0.726412	-0.548301	0.252889
H85	H	0.389895	0.272514	0.641797
H86	H	1.015855	-0.054513	0.353683
C87	C	0.959904	0.030779	0.090495
N88	N	0.934840	-0.009085	0.123409
C89	C	1.118874	0.283735	0.145801
N90	N	1.156528	0.343673	0.200535
C91	C	0.324195	0.189098	0.278247
N92	N	0.272521	0.167711	0.188148
C93	C	0.566482	0.134377	0.014452
N94	N	0.514808	0.112990	-0.075647
C95	C	0.773026	0.154753	0.086363
N96	N	0.802833	0.141407	0.024624
C97	C	0.918648	-0.079241	0.319830
N98	N	0.892064	0.000022	0.310580
C99	C	0.762710	-0.171459	0.265536
N100	N	0.674604	-0.128580	0.234858
H101	H	1.184088	0.387334	-0.329705
C102	C	1.224658	0.451967	-0.118900
N103	N	1.262312	0.511905	-0.064166
H104	H	1.046762	0.168803	-0.377497
C105	C	1.209615	0.428079	0.026614
N106	N	1.247270	0.488017	0.081348
C107	C	1.167172	-0.528411	0.406341
N108	N	1.255276	-0.571292	0.437019
H109	H	1.224823	-0.461540	0.426424
C110	C	1.389922	-0.396674	0.483902
N111	N	1.478026	-0.439555	0.514580
H112	H	1.010903	0.111752	-0.330374
H113	H	0.956023	0.024464	-0.258310
