data_functionalizedCrystal
_audit_creation_method	'MofGen! by Chris Wilmer'
_symmetry_space_group_name_H-M	'P1'
_symmetry_Int_Tables_number	1
_symmetry_cell_setting	triclinic
loop_
_symmetry_equiv_pos_as_xyz
  x,y,z
_cell_length_a	10.540535
_cell_length_b	10.540539
_cell_length_c	14.586319
_cell_angle_alpha	89.998343
_cell_angle_beta	89.998875
_cell_angle_gamma	84.524567
loop_
_atom_site_label
_atom_site_type_symbol
_atom_site_fract_x
_atom_site_fract_y
_atom_site_fract_z
O1	O	1.685889	0.178872	-0.076185
O2	O	2.185889	0.678872	0.423815
O3	O	1.316475	0.195733	-0.076198
O4	O	1.816475	0.695733	0.423802
O5	O	1.509610	0.002596	-0.076190
O6	O	2.009610	0.502596	0.423810
O7	O	1.492754	0.372009	-0.076193
O8	O	1.992754	0.872009	0.423807
O9	O	1.509596	0.002593	0.076291
O10	O	2.009596	0.502593	0.576291
O11	O	1.316462	0.195730	0.076283
O12	O	1.816462	0.695730	0.576283
O13	O	1.685875	0.178869	0.076295
O14	O	2.185875	0.678869	0.576295
Cu15	Cu	1.501167	0.187299	0.090212
Cu16	Cu	2.001167	0.687299	0.590212
Cu17	Cu	1.501183	0.187303	-0.090114
Cu18	Cu	2.001183	0.687303	0.409886
O19	O	1.492741	0.372006	0.076288
O20	O	1.992741	0.872006	0.576288
C21	C	1.269165	0.194469	0.000041
C22	C	1.769165	0.694469	0.500041
C23	C	1.128217	0.190689	0.000036
C24	C	1.628217	0.690689	0.500036
C25	C	1.091546	0.049675	0.000041
C26	C	1.591546	0.549675	0.500041
C27	C	0.944946	0.045698	0.000396
C28	C	1.444946	0.545698	0.500396
C29	C	0.918873	0.255058	0.086951
C30	C	1.418873	0.755058	0.586951
C31	C	1.065639	0.258058	0.087015
C32	C	1.565639	0.758058	0.587015
C33	C	1.065538	0.260113	-0.086390
C34	C	1.565538	0.760113	0.413610
C35	C	0.919192	0.253592	-0.087523
C36	C	1.419192	0.753592	0.412477
C37	C	1.508339	-0.044709	0.000048
C38	C	2.008339	0.455291	0.500048
C39	C	1.504557	-0.185657	0.000043
C40	C	2.004557	0.314343	0.500043
C41	C	1.359640	-0.369081	-0.000304
C42	C	1.859640	0.130919	0.499696
C43	C	1.363474	-0.222463	0.000040
C44	C	1.863474	0.277537	0.500040
C45	C	1.572445	-0.247317	0.087120
C46	C	2.072445	0.252683	0.587120
C47	C	1.567630	-0.393862	0.087193
C48	C	2.067630	0.106138	0.587193
C49	C	1.570515	-0.394376	-0.086206
C50	C	2.070515	0.105624	0.413794
C51	C	1.571815	-0.247395	-0.087357
C52	C	2.071815	0.252605	0.412643
C53	C	1.733185	0.180133	0.000055
C54	C	2.233185	0.680133	0.500055
C55	C	1.874134	0.183913	0.000053
C56	C	2.374134	0.683913	0.500053
C57	C	1.494011	0.419311	0.000047
C58	C	1.994011	0.919311	0.500047
C59	C	1.497793	0.560259	0.000046
C60	C	1.997793	1.060259	0.500046
N61	N	1.501165	0.187296	0.217044
N62	N	2.001165	0.687296	0.717044
N63	N	1.501195	0.187296	-0.216946
N64	N	2.001195	0.687296	0.283054
C65	C	1.586714	0.101804	0.452053
C66	C	2.086714	0.601804	0.952053
C67	C	1.586718	0.101801	0.548035
C68	C	2.086718	0.601801	1.048035
C69	C	1.415637	0.272792	0.548037
C70	C	1.915637	0.772792	1.048037
C71	C	1.415628	0.272788	0.452058
C72	C	1.915628	0.772788	0.952058
C73	C	1.501174	0.187295	0.404068
C74	C	2.001174	0.687295	0.904068
C75	C	1.501186	0.187297	0.596029
C76	C	2.001186	0.687297	1.096029
C77	C	1.501190	0.187294	0.700096
C78	C	2.001190	0.687294	1.200096
C79	C	1.501170	0.187296	0.299995
C80	C	2.001170	0.687296	0.799995
H81	H	0.916488	-0.009672	0.063057
H82	H	1.416488	0.490328	0.563057
H83	H	1.524859	-0.425927	-0.152204
H84	H	2.024859	0.074073	0.347796
H85	H	1.522142	-0.206534	-0.151774
H86	H	2.022142	0.293466	0.348226
H87	H	1.303914	-0.397679	-0.062748
H88	H	1.803914	0.102321	0.437252
H89	H	0.871517	0.356823	0.089937
H90	H	1.371517	0.856823	0.589937
H91	H	1.656369	0.032189	0.412983
H92	H	2.156369	0.532189	0.912983
H93	H	1.345990	0.342400	0.587120
H94	H	1.845990	0.842400	1.087120
H95	H	0.887965	0.206244	0.151870
H96	H	1.387965	0.706244	0.651870
H97	H	0.870144	0.354465	-0.093042
H98	H	1.370144	0.854465	0.406958
H99	H	1.656371	0.032184	0.587101
H100	H	2.156371	0.532184	1.087101
H101	H	1.108003	0.216112	-0.152279
H102	H	1.608003	0.716112	0.347721
H103	H	1.105804	0.210009	0.152222
H104	H	1.605804	0.710009	0.652222
H105	H	0.915614	-0.009942	-0.061883
H106	H	1.415614	0.490058	0.438117
H107	H	1.345965	0.342406	0.412986
H108	H	1.845965	0.842406	0.912986
H109	H	1.674676	-0.223175	-0.092612
H110	H	2.174676	0.276825	0.407388
H111	H	1.088669	0.361432	0.090727
H112	H	1.588669	0.861432	0.590727
H113	H	1.672419	-0.441604	-0.086788
H114	H	2.172419	0.058396	0.413212
H115	H	1.133521	-0.004474	-0.062266
H116	H	1.633521	0.495526	0.437734
H117	H	0.890595	0.201817	-0.151812
H118	H	1.390595	0.701817	0.348188
H119	H	1.134999	-0.003570	0.062266
H120	H	1.634999	0.496430	0.562266
H121	H	1.310055	-0.179858	-0.062380
H122	H	1.810055	0.320142	0.437620
H123	H	1.304130	-0.399289	0.061787
H124	H	1.804130	0.100711	0.561787
H125	H	1.087723	0.363865	-0.087232
H126	H	1.587723	0.863865	0.412768
H127	H	1.309670	-0.180707	0.062560
H128	H	1.809670	0.319293	0.562560
H129	H	1.517446	-0.422062	0.152281
H130	H	2.017446	0.077938	0.652281
H131	H	1.669095	-0.441832	0.091147
H132	H	2.169095	0.058168	0.591147
H133	H	1.525275	-0.204718	0.151916
H134	H	2.025275	0.295282	0.651916
H135	H	1.676053	-0.224965	0.090361
H136	H	2.176053	0.275035	0.590361
