data_functionalizedCrystal
_audit_creation_method	'MofGen! by Chris Wilmer'
_symmetry_space_group_name_H-M	'P1'
_symmetry_Int_Tables_number	1
_symmetry_cell_setting	triclinic
loop_
_symmetry_equiv_pos_as_xyz
  x,y,z
_cell_length_a	14.519731
_cell_length_b	19.188900
_cell_length_c	12.996460
_cell_angle_alpha	89.990587
_cell_angle_beta	90.007160
_cell_angle_gamma	96.589329
loop_
_atom_site_label
_atom_site_type_symbol
_atom_site_fract_x
_atom_site_fract_y
_atom_site_fract_z
O1	O	0.115004	-0.926571	0.085769
O2	O	0.448338	-0.593237	0.419102
O3	O	0.781671	-0.259904	0.752435
O4	O	0.130533	-0.723313	0.085727
O5	O	0.463866	-0.389979	0.419061
O6	O	0.797199	-0.056646	0.752394
O7	O	-0.011503	-0.830323	0.085740
O8	O	0.321831	-0.496990	0.419073
O9	O	0.655164	-0.163656	0.752406
O10	O	0.257040	-0.819560	0.085756
O11	O	0.590373	-0.486227	0.419090
O12	O	0.923706	-0.152894	0.752423
O13	O	-0.011512	-0.830321	-0.085394
O14	O	0.321821	-0.496988	0.247939
O15	O	0.655155	-0.163654	0.581273
O16	O	0.130523	-0.723311	-0.085406
O17	O	0.463857	-0.389977	0.247927
O18	O	0.797190	-0.056644	0.581260
O19	O	0.114995	-0.926569	-0.085365
O20	O	0.448329	-0.593235	0.247968
O21	O	0.781662	-0.259902	0.581302
Cu22	Cu	0.122758	-0.824940	-0.101012
Cu23	Cu	0.456092	-0.491606	0.232322
Cu24	Cu	0.789425	-0.158273	0.565655
Cu25	Cu	0.122769	-0.824942	0.101374
Cu26	Cu	0.456103	-0.491608	0.434707
Cu27	Cu	0.789436	-0.158275	0.768041
O28	O	0.257031	-0.819558	-0.085377
O29	O	0.590364	-0.486225	0.247956
O30	O	0.923697	-0.152892	0.581289
C31	C	0.130030	-0.697298	0.000155
C32	C	0.463363	-0.363965	0.333488
C33	C	0.796696	-0.030632	0.666822
C34	C	0.128534	-0.619787	0.000139
C35	C	0.461867	-0.286454	0.333472
C36	C	0.795201	0.046879	0.666806
C37	C	-0.045864	-0.829818	0.000173
C38	C	0.287470	-0.496484	0.333506
C39	C	0.620803	-0.163151	0.666839
C40	C	-0.148234	-0.828307	0.000172
C41	C	0.185099	-0.494973	0.333505
C42	C	0.518432	-0.161640	0.666838
C43	C	0.127821	-0.583394	0.093425
C44	C	0.461154	-0.250061	0.426759
C45	C	0.794487	0.083273	0.760092
C46	C	0.126405	-0.510565	0.093436
C47	C	0.459739	-0.177232	0.426769
C48	C	0.793072	0.156102	0.760102
C49	C	0.125684	-0.474134	0.000154
C50	C	0.459018	-0.140801	0.333488
C51	C	0.792351	0.192533	0.666821
C52	C	0.126403	-0.510536	-0.093145
C53	C	0.459736	-0.177203	0.240189
C54	C	0.793070	0.156131	0.573522
C55	C	0.127828	-0.583363	-0.093152
C56	C	0.461161	-0.250029	0.240181
C57	C	0.794495	0.083304	0.573514
N58	N	0.070963	-0.364915	-0.069272
N59	N	0.404296	-0.031582	0.264061
N60	N	0.737630	0.301752	0.597394
N61	N	0.069607	-0.295733	-0.069259
N62	N	0.402941	0.037601	0.264075
N63	N	0.736274	0.370934	0.597408
C64	C	0.121394	-0.254711	0.000172
C65	C	0.454727	0.078622	0.333505
C66	C	0.788060	0.411955	0.666838
N67	N	0.174575	-0.285487	0.069604
N68	N	0.507908	0.047847	0.402937
N69	N	0.841241	0.381180	0.736270
N70	N	0.175926	-0.354676	0.069593
N71	N	0.509260	-0.021342	0.402926
N72	N	0.842593	0.311991	0.736260
C73	C	0.124140	-0.395166	0.000152
C74	C	0.457473	-0.061833	0.333486
C75	C	0.790807	0.271501	0.666819
C76	C	0.119147	-0.139348	0.093476
C77	C	0.452480	0.193985	0.426809
C78	C	0.785813	0.527318	0.760143
C79	C	0.117737	-0.066518	0.093482
C80	C	0.451070	0.266816	0.426816
C81	C	0.784403	0.600149	0.760149
C82	C	0.117725	-0.066491	-0.093101
C83	C	0.451059	0.266843	0.240233
C84	C	0.784392	0.600176	0.573566
C85	C	0.119145	-0.139319	-0.093104
C86	C	0.452478	0.194014	0.240229
C87	C	0.785811	0.527347	0.573562
C88	C	0.119851	-0.175744	0.000187
C89	C	0.453184	0.157589	0.333520
C90	C	0.786517	0.490923	0.666853
C91	C	-0.231371	-0.827079	0.000174
C92	C	0.101963	-0.493745	0.333507
C93	C	0.435296	-0.160412	0.666840
C94	C	-0.335670	-0.825544	0.000181
C95	C	-0.002336	-0.492211	0.333515
C96	C	0.330997	-0.158878	0.666848
C97	C	-0.418801	-0.824327	0.000188
C98	C	-0.085468	-0.490993	0.333521
C99	C	0.247866	-0.157660	0.666854
C100	C	-0.523107	-0.822792	0.000193
C101	C	-0.189773	-0.489459	0.333527
C102	C	0.143560	-0.156126	0.666860
C103	C	0.291391	-0.820064	0.000192
C104	C	0.624725	-0.486730	0.333525
C105	C	0.958058	-0.153397	0.666859
C106	C	0.393762	-0.821575	0.000200
C107	C	0.727095	-0.488241	0.333533
C108	C	1.060429	-0.154908	0.666866
C109	C	0.115504	0.047418	0.000201
C110	C	0.448837	0.380751	0.333535
C111	C	0.782171	0.714084	0.666868
C112	C	0.117018	-0.030092	0.000200
C113	C	0.450351	0.303242	0.333533
C114	C	0.783684	0.636575	0.666867
N115	N	0.122770	-0.824944	0.243721
N116	N	0.456104	-0.491610	0.577054
N117	N	0.789437	-0.158277	0.910388
N118	N	0.122750	-0.824943	-0.243359
N119	N	0.456083	-0.491610	0.089975
N120	N	0.789417	-0.158277	0.423308
C121	C	0.122761	-0.824940	0.663535
C122	C	0.456095	-0.491607	0.996869
C123	C	0.789428	-0.158274	1.330202
C124	C	0.122767	-0.824939	0.546730
C125	C	0.456100	-0.491605	0.880064
C126	C	0.789433	-0.158272	1.213397
C127	C	0.122765	-0.824941	0.453632
C128	C	0.456099	-0.491608	0.786965
C129	C	0.789432	-0.158275	1.120299
C130	C	0.122772	-0.824941	0.336819
C131	C	0.456105	-0.491608	0.670153
C132	C	0.789438	-0.158274	1.003486
H133	H	0.128396	-0.613047	0.169390
H134	H	0.461729	-0.279713	0.502724
H135	H	0.795062	0.053620	0.836057
H136	H	0.125826	-0.480927	0.169403
H137	H	0.459159	-0.147594	0.502737
H138	H	0.792492	0.185739	0.836070
H139	H	0.125819	-0.480869	-0.169095
H140	H	0.459152	-0.147536	0.164238
H141	H	0.792485	0.185798	0.497572
Cl142	Cl	0.116848	-0.020764	0.210768
Cl143	Cl	0.450181	0.312569	0.544102
Cl144	Cl	0.783515	0.645903	0.877435
H145	H	0.128410	-0.612994	-0.169120
H146	H	0.461743	-0.279660	0.164214
H147	H	0.795076	0.053673	0.497547
H148	H	0.119731	-0.169006	0.169439
H149	H	0.453065	0.164327	0.502772
H150	H	0.786398	0.497661	0.836106
Cl151	Cl	0.116829	-0.020698	-0.210371
Cl152	Cl	0.450162	0.312635	0.122963
Cl153	Cl	0.783495	0.645969	0.456296
Cl154	Cl	0.120036	-0.185074	-0.210386
Cl155	Cl	0.453369	0.148259	0.122947
Cl156	Cl	0.786702	0.481592	0.456281
