data_functionalizedCrystal
_audit_creation_method	'MofGen! by Chris Wilmer'
_symmetry_space_group_name_H-M	'P1'
_symmetry_Int_Tables_number	1
_symmetry_cell_setting	triclinic
loop_
_symmetry_equiv_pos_as_xyz
  x,y,z
_cell_length_a	10.654550
_cell_length_b	16.109301
_cell_length_c	9.130313
_cell_angle_alpha	89.994060
_cell_angle_beta	89.999724
_cell_angle_gamma	83.973206
loop_
_atom_site_label
_atom_site_type_symbol
_atom_site_fract_x
_atom_site_fract_y
_atom_site_fract_z
O1	O	1.666255	0.116774	-0.121695
O2	O	1.300626	0.127899	-0.121723
O3	O	1.493485	0.001365	-0.121693
O4	O	1.473396	0.243308	-0.121725
O5	O	1.493472	0.001362	0.121906
O6	O	1.300613	0.127896	0.121876
O7	O	1.666242	0.116770	0.121904
Cu8	Cu	1.483426	0.122333	0.144132
Cu9	Cu	1.483442	0.122337	-0.143951
O10	O	1.473383	0.243304	0.121874
C11	C	1.253832	0.127081	0.000073
C12	C	1.114422	0.124637	0.000063
C13	C	1.033926	0.199138	0.000058
C14	C	0.902936	0.196836	0.000084
C15	C	0.932952	0.045526	0.000114
C16	C	1.063939	0.047828	0.000099
C17	C	1.492664	-0.029616	0.000107
C18	C	1.490225	-0.121926	0.000109
C19	C	1.598991	-0.343552	0.000094
C20	C	1.596689	-0.430286	0.000081
C21	C	1.367868	-0.411772	0.000070
C22	C	1.370172	-0.325039	0.000072
C23	C	1.485737	-0.290932	0.000091
C24	C	1.481131	-0.464398	0.000077
C25	C	1.478634	-0.558439	0.000064
C26	C	1.488234	-0.196885	0.000101
C27	C	1.713036	0.117589	0.000104
C28	C	1.852446	0.120033	0.000105
C29	C	1.474203	0.274286	0.000071
C30	C	1.476643	0.366596	0.000059
N31	N	1.483424	0.122329	0.346755
N32	N	1.483453	0.122334	-0.346574
C33	C	1.568851	0.066324	0.423420
C34	C	1.568863	0.066324	0.576757
C35	C	1.398018	0.178342	0.576750
C36	C	1.398001	0.178337	0.423416
H37	H	1.075024	0.261680	0.000040
H38	H	1.328470	0.223944	0.639183
H39	H	1.638423	0.020718	0.639173
C40	C	0.878065	-0.037837	-0.000165
C41	C	0.803762	-0.043586	-0.125504
C42	C	0.753197	-0.120375	-0.125826
H43	H	0.827508	-0.041964	0.084688
H44	H	0.944734	-0.081904	-0.000241
H45	H	0.737103	0.000468	-0.125415
H46	H	0.854291	-0.039475	-0.210377
H47	H	0.819865	-0.164441	-0.125902
H48	H	0.702646	-0.124494	-0.040968
H49	H	0.702786	-0.124289	-0.210873
H50	H	1.129483	-0.012843	0.000108
C51	C	1.719555	-0.487516	0.000314
C52	C	1.724900	-0.537877	0.125614
C53	C	1.838062	-0.590616	0.125864
H54	H	1.788811	-0.454883	0.000399
H55	H	1.723425	-0.521775	-0.084596
H56	H	1.721043	-0.503622	0.210501
H57	H	1.655670	-0.570528	0.125556
H58	H	1.841932	-0.624875	0.040954
H59	H	1.907309	-0.557976	0.125944
H60	H	1.841698	-0.624797	0.210871
C61	C	1.724585	-0.306680	0.000019
C62	C	1.823274	-0.371331	-0.000025
C63	C	1.938992	-0.337399	-0.000122
H64	H	1.730426	-0.273246	0.084943
H65	H	1.730304	-0.273249	-0.084965
H66	H	1.817558	-0.404747	0.084950
H67	H	1.817475	-0.404769	-0.084943
H68	H	1.944711	-0.303969	-0.085106
H69	H	1.944819	-0.303966	0.084803
H70	H	2.005966	-0.381259	-0.000165
C71	C	1.242531	-0.448966	0.000140
C72	C	1.264750	-0.536185	0.000183
C73	C	1.149317	-0.570474	0.000273
H74	H	1.195802	-0.431037	-0.084785
H75	H	1.195889	-0.430999	0.085122
H76	H	1.311372	-0.554145	-0.084791
H77	H	1.311459	-0.554137	0.085102
H78	H	1.102675	-0.552507	0.085255
H79	H	1.102598	-0.552539	-0.084654
H80	H	1.164377	-0.629655	0.000315
C81	C	1.247105	-0.268001	-0.000159
C82	C	1.177510	-0.283521	-0.125469
C83	C	1.064134	-0.231002	-0.125728
H84	H	1.264851	-0.211435	-0.000236
H85	H	1.199646	-0.278427	0.084744
H86	H	1.224960	-0.273089	-0.210349
H87	H	1.159731	-0.340077	-0.125419
H88	H	1.016675	-0.241428	-0.040826
H89	H	1.081892	-0.174439	-0.125801
H90	H	1.016895	-0.241530	-0.210742
H91	H	0.837401	0.257503	0.000082
H92	H	1.638406	0.020717	0.361006
H93	H	1.328430	0.223944	0.360992
