data_functionalizedCrystal
_audit_creation_method	'MofGen! by Chris Wilmer'
_symmetry_space_group_name_H-M	'P1'
_symmetry_Int_Tables_number	1
_symmetry_cell_setting	triclinic
loop_
_symmetry_equiv_pos_as_xyz
  x,y,z
_cell_length_a	15.944551
_cell_length_b	9.065218
_cell_length_c	8.140239
_cell_angle_alpha	89.996474
_cell_angle_beta	90.004082
_cell_angle_gamma	84.257312
loop_
_atom_site_label
_atom_site_type_symbol
_atom_site_fract_x
_atom_site_fract_y
_atom_site_fract_z
O1	O	-1.115961	-0.190274	0.136435
O2	O	-0.871589	-0.213733	0.136475
O3	O	-0.998826	0.012757	0.136451
O4	O	-0.988723	-0.416764	0.136459
O5	O	-0.998825	0.012769	-0.136776
O6	O	-0.871588	-0.213721	-0.136752
O7	O	-1.115960	-0.190262	-0.136792
Zn8	Zn	-0.993773	-0.201990	-0.180152
Zn9	Zn	-0.993775	-0.202005	0.179836
O10	O	-0.988722	-0.416752	-0.136768
C11	C	-0.840287	-0.212753	-0.000133
C12	C	-0.747019	-0.209833	-0.000118
C13	C	-0.997854	0.067727	-0.000160
C14	C	-0.994951	0.231502	-0.000151
C15	C	-1.147261	-0.191242	-0.000180
C16	C	-1.240530	-0.194162	-0.000185
C17	C	-0.531045	-0.062466	-0.000152
C18	C	-0.470544	-0.130904	0.134564
C19	C	-0.576253	-0.204551	-0.000137
C20	C	-0.470566	-0.130926	-0.134816
C21	C	-0.411301	-0.199439	-0.000163
C22	C	-0.516980	-0.273029	0.134691
C23	C	-0.517008	-0.273031	-0.134811
C24	C	-0.456525	-0.341573	-0.000061
C25	C	-0.671277	-0.207493	-0.000121
C26	C	-0.316278	-0.196509	-0.000168
C27	C	-0.989694	-0.471722	-0.000153
C28	C	-0.992597	-0.635497	-0.000151
N29	N	-0.993779	-0.201979	-0.425835
N30	N	-0.993776	-0.202005	0.425519
H31	H	-0.449979	-0.070812	0.248456
H32	H	-0.537594	-0.333073	-0.248707
H33	H	-0.537423	-0.333085	0.248707
H34	H	-0.424261	-0.459614	0.000016
O35	O	-0.446170	-0.059005	-0.270639
C36	C	-0.484448	0.088098	-0.270099
H37	H	-0.543795	0.095166	-0.191238
H38	H	-0.501886	0.123473	-0.401113
H39	H	-0.438616	0.164606	-0.217513
H40	H	-0.563485	0.055454	0.000012
