data_functionalizedCrystal
_audit_creation_method	'MofGen! by Chris Wilmer'
_symmetry_space_group_name_H-M	'P1'
_symmetry_Int_Tables_number	1
_symmetry_cell_setting	triclinic
loop_
_symmetry_equiv_pos_as_xyz
  x,y,z
_cell_length_a	11.792241
_cell_length_b	14.853567
_cell_length_c	13.330367
_cell_angle_alpha	89.994658
_cell_angle_beta	89.993162
_cell_angle_gamma	83.914173
loop_
_atom_site_label
_atom_site_type_symbol
_atom_site_fract_x
_atom_site_fract_y
_atom_site_fract_z
O1	O	-1.506137	-0.123561	-0.083302
O2	O	-1.175717	-0.136296	-0.083328
O3	O	-1.349753	0.001267	-0.083317
O4	O	-1.332101	-0.261123	-0.083313
O5	O	-1.349757	0.001257	0.083530
O6	O	-1.175721	-0.136306	0.083519
O7	O	-1.506141	-0.123571	0.083545
Cu8	Cu	-1.340931	-0.129939	0.098767
Cu9	Cu	-1.340926	-0.129927	-0.098549
O10	O	-1.332105	-0.261134	0.083535
C11	C	-1.133433	-0.135501	0.000092
C12	C	-1.007434	-0.133106	0.000082
C13	C	-0.776749	-0.128704	0.000109
C14	C	-0.905119	-0.131150	0.000094
C15	C	-0.548425	-0.124366	0.000120
C16	C	-0.674424	-0.126760	0.000116
C17	C	-1.348955	0.034854	0.000103
C18	C	-1.346558	0.134947	0.000094
C19	C	-1.332903	-0.294720	0.000112
C20	C	-1.335300	-0.394813	0.000114
N21	N	-1.340923	-0.129912	-0.237331
C22	C	-1.233046	0.547923	0.000105
C23	C	-1.439804	0.568399	0.000121
C24	C	-1.442058	0.474356	0.000115
C25	C	-1.339804	0.417093	0.000106
C26	C	-1.235296	0.453871	0.000102
C27	C	-1.546563	0.437570	0.000129
C28	C	-1.548821	0.343522	0.000124
C29	C	-1.446566	0.286257	0.000108
C30	C	-1.342054	0.323041	0.000103
C31	C	-1.239800	0.265777	0.000094
C32	C	-1.135287	0.302559	0.000082
C33	C	-1.133041	0.396606	0.000085
C34	C	-1.448812	0.192211	0.000104
C35	C	-1.242051	0.171726	0.000091
C36	C	-1.272170	-0.074779	-0.709961
C37	C	-1.409713	-0.185107	-0.709914
C38	C	-1.409709	-0.185102	-0.604896
C39	C	-1.340935	-0.129934	-0.552405
C40	C	-1.272166	-0.074771	-0.604933
C41	C	-1.478486	-0.240258	-0.552361
C42	C	-1.478485	-0.240254	-0.447336
C43	C	-1.409705	-0.185090	-0.394843
C44	C	-1.340932	-0.129925	-0.447377
C45	C	-1.272158	-0.074757	-0.394887
C46	C	-1.203378	-0.019597	-0.447419
C47	C	-1.203385	-0.019607	-0.552440
C48	C	-1.409697	-0.185080	-0.289822
C49	C	-1.272154	-0.074748	-0.289858
N50	N	-1.340943	-0.129948	0.237548
H51	H	-1.158782	0.125107	0.000079
H52	H	-1.534485	-0.285166	-0.595106
N53	N	-1.129209	0.039905	-0.390793
H54	H	-1.046634	0.022684	-0.409067
H55	H	-1.151743	0.105338	-0.409103
N56	N	-1.025011	0.240781	0.000074
H57	H	-0.979416	0.252663	-0.061780
H58	H	-0.979511	0.252689	0.061962
N59	N	-1.550079	0.630166	0.000130
H60	H	-1.595665	0.618287	-0.061719
H61	H	-1.595583	0.618243	0.062023
N62	N	-1.197982	-0.015237	-0.233250
H63	H	-1.208417	-0.023596	-0.158747
H64	H	-1.115443	-0.032490	-0.251611
N65	N	-1.656845	0.499329	0.000157
H66	H	-1.639559	0.564488	0.000155
H67	H	-1.702393	0.487372	-0.061686
N68	N	-1.661538	0.303853	0.000137
H69	H	-1.725972	0.354401	0.000145
H70	H	-1.666975	0.265288	-0.061718
H71	H	-1.533905	0.162267	0.000120
N72	N	-1.197999	-0.015281	-0.766615
H73	H	-1.154435	0.019669	-0.717423
H74	H	-1.142493	-0.054219	-0.810187
H75	H	-1.147390	0.025304	-0.595221
H76	H	-1.465712	-0.230017	-0.752659
H77	H	-1.534489	-0.285170	-0.404573
N78	N	-1.483883	-0.244563	-0.233169
H79	H	-1.461451	-0.310020	-0.251438
H80	H	-1.473417	-0.236115	-0.158691
N81	N	-1.020325	0.436277	0.000077
H82	H	-1.034418	0.504544	0.000086
H83	H	-0.975578	0.415358	0.061926
N84	N	-1.120325	0.587587	0.000087
H85	H	-1.134408	0.655854	0.000087
H86	H	-1.075576	0.566671	0.061936
