data_functionalizedCrystal
_audit_creation_method	'MofGen! by Chris Wilmer'
_symmetry_space_group_name_H-M	'P1'
_symmetry_Int_Tables_number	1
_symmetry_cell_setting	triclinic
loop_
_symmetry_equiv_pos_as_xyz
  x,y,z
_cell_length_a	8.597314
_cell_length_b	7.088929
_cell_length_c	8.597304
_cell_angle_alpha	103.972562
_cell_angle_beta	93.640319
_cell_angle_gamma	103.953409
loop_
_atom_site_label
_atom_site_type_symbol
_atom_site_fract_x
_atom_site_fract_y
_atom_site_fract_z
O1	O	-2.101061	-0.150956	0.219224
O2	O	-1.636344	-0.070122	0.245276
O3	O	-1.881722	-0.150964	-0.000120
O4	O	-1.855682	-0.070114	0.464619
O5	O	-1.914515	-0.479755	-0.032989
O6	O	-1.669136	-0.398914	0.212407
O7	O	-2.133853	-0.479747	0.186355
Cu8	Cu	-1.904489	-0.469352	0.196380
Cu9	Cu	-1.865708	-0.080518	0.235251
O10	O	-1.888475	-0.398906	0.431751
C11	C	-1.593279	-0.224884	0.227874
C12	C	-1.416102	-0.196179	0.224972
N13	N	-1.931777	-0.742838	0.169039
C14	C	-1.897149	-0.324992	-0.076018
C15	C	-1.894242	-0.353690	-0.253202
C16	C	-1.176919	-0.324990	0.203755
C17	C	-1.354097	-0.353705	0.206653
N18	N	-1.838433	0.192964	0.262579
C19	C	-1.873047	-0.224873	0.507649
C20	C	-1.875953	-0.196162	0.684835
H21	H	-1.436560	-0.510538	0.193178
H22	H	-2.028536	-0.856399	0.072109
O23	O	-1.858151	0.011593	-0.205892
H24	H	-1.957773	0.072160	-0.243548
O25	O	-1.912051	-0.561460	-0.362479
H26	H	-1.906911	-0.552178	-0.489171
H27	H	-1.333631	-0.039337	0.238436
H28	H	-1.741692	-0.693487	0.359514
