data_functionalizedCrystal
_audit_creation_method	'MofGen! by Chris Wilmer'
_symmetry_space_group_name_H-M	'P1'
_symmetry_Int_Tables_number	1
_symmetry_cell_setting	triclinic
loop_
_symmetry_equiv_pos_as_xyz
  x,y,z
_cell_length_a	11.169417
_cell_length_b	12.645330
_cell_length_c	11.169417
_cell_angle_alpha	90.007551
_cell_angle_beta	90.000863
_cell_angle_gamma	90.018570
loop_
_atom_site_label
_atom_site_type_symbol
_atom_site_fract_x
_atom_site_fract_y
_atom_site_fract_z
Zn1	Zn	1.834676	-0.422187	0.678543
Zn2	Zn	1.834606	-0.599422	0.477860
Zn3	Zn	1.634029	-0.422175	0.477877
Zn4	Zn	1.633944	-0.599412	0.678505
O5	O	1.734314	-0.510799	0.578196
O6	O	2.002617	-0.445707	0.651930
O7	O	1.808006	-0.575909	0.309913
O8	O	1.660710	-0.273830	0.504519
O9	O	2.002565	-0.575920	0.504490
O10	O	1.808125	-0.273839	0.651947
O11	O	1.660642	-0.445687	0.309925
O12	O	1.466068	-0.445677	0.504482
O13	O	1.660565	-0.575904	0.846459
O14	O	1.466006	-0.575892	0.651882
O15	O	1.808043	-0.445697	0.846487
O16	O	1.807923	-0.747768	0.504453
O17	O	1.660498	-0.747761	0.651865
C18	C	1.422489	-0.510783	0.578181
C19	C	1.289089	-0.510802	0.578202
C20	C	1.734226	-0.786229	0.578179
C21	C	1.734299	-0.904059	0.578212
C22	C	1.641935	-1.071663	0.671236
C23	C	1.641463	-0.949103	0.670937
C24	C	1.700097	-0.948620	0.451730
C25	C	1.699533	-1.071218	0.452294
C26	C	1.861429	-1.071155	0.610646
C27	C	1.860649	-0.948549	0.613411
C28	C	2.047356	-0.510816	0.578212
C29	C	2.180756	-0.510823	0.578219
C30	C	1.734302	-0.510801	0.891238
C31	C	1.734297	-0.510801	1.024638
C32	C	1.734434	-0.234294	0.578239
C33	C	1.734486	-0.116464	0.578258
C34	C	1.734311	-0.510817	1.266371
C35	C	1.734301	-0.510803	1.132971
H36	H	1.662857	-0.918974	0.764723
Br37	Br	1.677256	-1.120727	0.828072
Br38	Br	1.808889	-0.899995	0.333104
H39	H	1.548413	-1.102559	0.650053
H40	H	1.930381	-1.100124	0.542926
Br41	Br	1.547043	-0.897597	0.405166
H42	H	1.606738	-1.099904	0.424856
H43	H	1.764020	-1.100855	0.380656
H44	H	1.892635	-1.102023	0.701309
H45	H	1.886442	-0.919423	0.706496
Br46	Br	1.981635	-0.897425	0.508770
H47	H	1.547353	-0.919864	0.649480
