data_functionalizedCrystal
_audit_creation_method	'MofGen! by Chris Wilmer'
_symmetry_space_group_name_H-M	'P1'
_symmetry_Int_Tables_number	1
_symmetry_cell_setting	triclinic
loop_
_symmetry_equiv_pos_as_xyz
  x,y,z
_cell_length_a	10.723023
_cell_length_b	11.792241
_cell_length_c	9.198806
_cell_angle_alpha	90.003595
_cell_angle_beta	90.003822
_cell_angle_gamma	84.330482
loop_
_atom_site_label
_atom_site_type_symbol
_atom_site_fract_x
_atom_site_fract_y
_atom_site_fract_z
O1	O	1.656767	0.159188	0.120889
O2	O	2.156767	0.659188	0.620889
O3	O	1.293574	0.174427	0.120893
O4	O	1.793574	0.674427	0.620893
O5	O	1.483984	0.001657	0.120881
O6	O	1.983984	0.501657	0.620881
O7	O	1.466357	0.331959	0.120901
O8	O	1.966357	0.831959	0.620901
O9	O	1.483969	0.001655	-0.120904
O10	O	1.983969	0.501655	0.379096
O11	O	1.293559	0.174426	-0.120892
O12	O	1.793559	0.674426	0.379108
O13	O	1.656752	0.159187	-0.120896
O14	O	2.156752	0.659187	0.379104
Cu15	Cu	1.475154	0.166806	-0.142971
Cu16	Cu	1.975154	0.666806	0.357029
Cu17	Cu	1.475172	0.166808	0.142968
Cu18	Cu	1.975172	0.666808	0.642968
O19	O	1.466342	0.331958	-0.120884
O20	O	1.966342	0.831958	0.379116
C21	C	1.247070	0.173318	0.000001
C22	C	1.747070	0.673318	0.500001
C23	C	1.108525	0.170000	0.000002
C24	C	1.608525	0.670000	0.500002
C25	C	0.903562	0.165092	-0.125245
C26	C	1.403562	0.665092	0.374755
C27	C	1.046756	0.168521	-0.125249
C28	C	1.546756	0.668521	0.374751
C29	C	1.482870	-0.040638	-0.000011
C30	C	1.982870	0.459362	0.499989
C31	C	1.479555	-0.166658	-0.000010
C32	C	1.979555	0.333342	0.499990
C33	C	1.473461	-0.397384	0.000015
C34	C	1.973461	0.102616	0.500015
C35	C	1.476847	-0.268991	0.000001
C36	C	1.976847	0.231009	0.500001
C37	C	1.703256	0.160296	-0.000001
C38	C	2.203256	0.660296	0.499999
C39	C	1.841802	0.163614	0.000008
C40	C	2.341802	0.663614	0.500008
C41	C	1.467457	0.374252	0.000012
C42	C	1.967457	0.874252	0.500012
C43	C	1.470771	0.500273	0.000020
C44	C	1.970771	1.000273	0.500020
N45	N	1.475151	0.166804	-0.344085
N46	N	1.975151	0.666804	0.155915
C47	C	1.547741	0.232620	-0.416279
C48	C	2.047741	0.732620	0.083721
C49	C	1.547761	0.232618	-0.583692
C50	C	2.047761	0.732618	-0.083692
N51	N	1.475185	0.166801	0.344082
N52	N	1.975185	0.666801	0.844082
H53	H	0.894937	0.164893	0.107238
H54	H	1.394937	0.664893	0.607238
H55	H	1.609880	0.288963	-0.354147
H56	H	2.109880	0.788963	0.145853
N57	N	1.630080	0.307269	-0.665914
N58	N	2.130080	0.807269	-0.165914
H59	H	1.618423	0.296689	-0.773852
H60	H	2.118423	0.796689	-0.273852
H61	H	1.720658	0.285392	-0.639369
H62	H	2.220658	0.785392	-0.139369
H63	H	1.055421	0.168726	0.107241
H64	H	1.555421	0.668726	0.607241
H65	H	1.413029	0.110456	-0.593842
H66	H	1.913029	0.610456	-0.093842
H67	H	1.413021	0.110454	-0.406217
H68	H	1.913021	0.610454	0.093783
H69	H	0.850425	0.163825	-0.232475
H70	H	1.350425	0.663825	0.267525
H71	H	1.099868	0.169787	-0.232482
H72	H	1.599868	0.669787	0.267518
