data_functionalizedCrystal
_audit_creation_method	'MofGen! by Chris Wilmer'
_symmetry_space_group_name_H-M	'P1'
_symmetry_Int_Tables_number	1
_symmetry_cell_setting	triclinic
loop_
_symmetry_equiv_pos_as_xyz
  x,y,z
_cell_length_a	23.532407
_cell_length_b	23.532407
_cell_length_c	9.730217
_cell_angle_alpha	89.992119
_cell_angle_beta	90.003937
_cell_angle_gamma	82.848678
loop_
_atom_site_label
_atom_site_type_symbol
_atom_site_fract_x
_atom_site_fract_y
_atom_site_fract_z
O1	O	0.755257	0.069134	-0.114132
O2	O	0.589394	0.079137	-0.114175
O3	O	0.677327	-0.008796	-0.114127
O4	O	0.667324	0.157067	-0.114180
O5	O	0.677324	-0.008797	0.114453
O6	O	0.589391	0.079136	0.114405
O7	O	0.755254	0.069133	0.114448
Zn8	Zn	0.672322	0.074135	0.150719
Zn9	Zn	0.672326	0.074136	-0.150445
O10	O	0.667321	0.157066	0.114400
C11	C	0.568176	0.078882	0.000110
C12	C	0.504959	0.078116	0.000095
C13	C	0.105856	0.125350	0.000143
C14	C	0.046456	0.124638	0.000151
O15	O	0.009711	0.168424	0.000187
N16	N	0.023830	0.072362	0.000166
C17	C	0.060607	0.020794	0.000185
O18	O	0.035908	-0.023737	0.000200
C19	C	0.120006	0.021506	0.000187
C20	C	0.142629	0.073785	0.000158
C21	C	0.128479	0.177625	0.000116
C22	C	0.187876	0.178336	0.000105
C23	C	0.224649	0.126772	0.000120
C24	C	0.202025	0.074496	0.000147
C25	C	0.156783	-0.030062	0.000216
C26	C	0.216185	-0.029345	0.000218
C27	C	0.238808	0.022934	0.000190
C28	C	0.298194	0.023643	0.000151
N29	N	0.320820	0.075920	0.000137
C30	C	0.284048	0.127484	0.000121
C31	C	-0.064135	0.019302	0.000185
C32	C	-0.123533	0.018589	0.000174
C33	C	-0.137680	0.122434	0.000143
C34	C	-0.078281	0.123146	0.000144
C35	C	-0.041509	0.071578	0.000171
C36	C	0.408784	0.128974	0.000097
C37	C	0.468186	0.129680	0.000080
C38	C	0.482329	0.025836	0.000119
C39	C	0.422932	0.025129	0.000128
C40	C	0.386160	0.076702	0.000122
O41	O	0.334974	-0.020119	0.000121
O42	O	0.308755	0.172007	0.000125
C43	C	0.677071	-0.030013	0.000167
C44	C	0.676305	-0.093230	0.000177
C45	C	0.723539	-0.492333	0.000114
C46	C	0.722827	-0.551733	0.000103
O47	O	0.766613	-0.588478	0.000063
N48	N	0.670551	-0.574359	0.000091
C49	C	0.618983	-0.537582	0.000075
O50	O	0.574452	-0.562281	0.000062
C51	C	0.619695	-0.478182	0.000076
C52	C	0.671974	-0.455560	0.000102
C53	C	0.775814	-0.469710	0.000138
C54	C	0.776525	-0.410313	0.000152
C55	C	0.724961	-0.373540	0.000140
C56	C	0.672685	-0.396164	0.000115
C57	C	0.568127	-0.441406	0.000050
C58	C	0.568844	-0.382004	0.000050
C59	C	0.621123	-0.359381	0.000076
C60	C	0.621832	-0.299995	0.000117
N61	N	0.674109	-0.277368	0.000129
C62	C	0.725673	-0.314141	0.000141
C63	C	0.617491	-0.662324	0.000071
C64	C	0.616778	-0.721722	0.000080
C65	C	0.720623	-0.735869	0.000105
C66	C	0.721335	-0.676470	0.000106
C67	C	0.669767	-0.639698	0.000083
C68	C	0.727163	-0.189405	0.000170
C69	C	0.727869	-0.130003	0.000188
C70	C	0.624025	-0.115860	0.000156
C71	C	0.623318	-0.175257	0.000144
C72	C	0.674891	-0.212029	0.000146
O73	O	0.578070	-0.263215	0.000151
O74	O	0.770196	-0.289433	0.000135
C75	C	0.776472	0.069388	0.000160
C76	C	0.839689	0.070154	0.000166
C77	C	0.667577	0.178283	0.000104
C78	C	0.668343	0.241500	0.000084
N79	N	0.672324	0.074133	0.356255
N80	N	0.672329	0.074132	-0.355982
C81	C	0.750220	-0.003709	0.356288
C82	C	0.789172	-0.042629	0.428244
C83	C	0.789178	-0.042630	0.572124
C84	C	0.750227	-0.003707	0.644051
C85	C	0.711275	0.035213	0.572095
C86	C	0.711274	0.035210	0.428211
C87	C	0.633377	0.113052	0.572062
C88	C	0.633373	0.113056	0.428182
C89	C	0.594425	0.151974	0.643989
C90	C	0.555475	0.190898	0.572032
C91	C	0.555471	0.190897	0.428144
C92	C	0.594421	0.151976	0.356226
H93	H	0.486602	0.172255	0.000056
H94	H	0.378852	0.170970	0.000096
H95	H	0.820894	-0.074323	0.630711
C96	C	0.783892	-0.229845	0.000184
H97	H	0.815123	-0.207856	0.000213
H98	H	0.785782	-0.253306	-0.079527
H99	H	0.785772	-0.253314	0.079905
C100	C	0.750224	-0.003713	0.802314
H101	H	0.721446	0.025037	0.834845
H102	H	0.786575	0.003896	0.834879
H103	H	0.742635	-0.040079	0.834857
C104	C	-0.148414	-0.038916	0.000181
H105	H	-0.189057	-0.031961	0.000171
H106	H	-0.135767	-0.060136	0.079893
H107	H	-0.135774	-0.060128	-0.079539
H108	H	0.770444	-0.111587	0.000213
H109	H	0.763906	-0.658056	0.000126
H110	H	0.594429	0.151970	0.761143
C111	C	0.256634	-0.086070	0.000245
H112	H	0.295252	-0.078163	0.000246
H113	H	0.249801	-0.107522	-0.079453
H114	H	0.249809	-0.107516	0.079979
C115	C	0.088038	0.234351	0.000087
H116	H	0.110027	0.265581	0.000060
H117	H	0.064570	0.236242	0.079790
H118	H	0.064574	0.236232	-0.079641
C119	C	0.834033	-0.385436	0.000154
H120	H	0.864637	-0.415850	0.000143
H121	H	0.836478	-0.362563	0.079862
H122	H	0.836469	-0.362557	-0.079570
C123	C	0.512117	-0.341557	0.000030
H124	H	0.480883	-0.363542	0.000024
H125	H	0.510237	-0.318084	-0.079676
H126	H	0.510233	-0.318099	0.079756
H127	H	0.523750	0.222588	0.369564
H128	H	0.523761	0.222583	0.630604
H129	H	0.138375	-0.072634	0.000240
C130	C	0.398045	-0.032377	0.000145
H131	H	0.428456	-0.062984	0.000156
H132	H	0.375160	-0.034814	-0.079556
H133	H	0.375176	-0.034813	0.079876
H134	H	0.512280	-0.016146	0.000126
C135	C	0.559271	-0.746601	0.000062
H136	H	0.528666	-0.716188	0.000047
H137	H	0.556829	-0.769486	0.079765
H138	H	0.556835	-0.769468	-0.079667
H139	H	0.817806	-0.499645	0.000143
C140	C	0.777344	-0.776327	0.000092
H141	H	0.769428	-0.814942	0.000069
H142	H	0.798801	-0.769513	0.079802
H143	H	0.798789	-0.769493	-0.079629
C144	C	0.510618	-0.466278	0.000010
H145	H	0.480016	-0.435863	-0.000015
H146	H	0.508171	-0.489162	0.079712
H147	H	0.508184	-0.489146	-0.079720
C148	C	0.212753	0.235844	0.000100
H149	H	0.182339	0.266448	0.000109
H150	H	0.235629	0.238291	-0.079606
H151	H	0.235629	0.238279	0.079826
C152	C	-0.053402	0.180653	0.000125
H153	H	-0.083814	0.211258	0.000122
H154	H	-0.030525	0.183093	-0.079583
H155	H	-0.030525	0.183091	0.079849
H156	H	0.575496	-0.632386	0.000064
C157	C	0.565812	-0.200144	0.000112
H158	H	0.535205	-0.169733	0.000098
H159	H	0.563369	-0.223034	0.079806
H160	H	0.563382	-0.223008	-0.079625
C161	C	0.567309	-0.075403	0.000135
H162	H	0.575225	-0.036789	0.000129
H163	H	0.545851	-0.082232	0.079831
H164	H	0.545864	-0.082224	-0.079600
H165	H	0.750224	-0.003708	0.239134
H166	H	0.820885	-0.074321	0.369669
H167	H	-0.167632	0.164421	0.000136
C168	C	-0.023690	-0.037426	0.000185
H169	H	-0.045677	-0.068658	0.000179
H170	H	-0.000219	-0.039315	0.079891
H171	H	-0.000230	-0.039306	-0.079541
C172	C	0.594418	0.151973	0.197962
H173	H	0.623191	0.123216	0.165437
H174	H	0.601997	0.188334	0.165392
H175	H	0.558063	0.144352	0.165419
