data_functionalizedCrystal
_audit_creation_method	'MofGen! by Chris Wilmer'
_symmetry_space_group_name_H-M	'P1'
_symmetry_Int_Tables_number	1
_symmetry_cell_setting	triclinic
loop_
_symmetry_equiv_pos_as_xyz
  x,y,z
_cell_length_a	19.288864
_cell_length_b	19.288865
_cell_length_c	18.366186
_cell_angle_alpha	89.988521
_cell_angle_beta	89.977106
_cell_angle_gamma	83.136245
loop_
_atom_site_label
_atom_site_type_symbol
_atom_site_fract_x
_atom_site_fract_y
_atom_site_fract_z
O1	O	-0.921353	-0.086649	0.060791
O2	O	-0.719092	-0.098337	0.060743
O3	O	-0.826067	0.008637	0.060754
O4	O	-0.814378	-0.193623	0.060780
O5	O	-0.826049	0.008643	-0.060345
O6	O	-0.719074	-0.098332	-0.060357
O7	O	-0.921335	-0.086643	-0.060308
Zn8	Zn	-0.820201	-0.092487	-0.079559
Zn9	Zn	-0.820225	-0.092494	0.079994
O10	O	-0.814360	-0.193618	-0.060319
C11	C	-0.693207	-0.097959	0.000187
C12	C	-0.616103	-0.096830	0.000167
C13	C	-0.947220	-0.087022	0.000250
C14	C	-1.024324	-0.088151	0.000274
C15	C	-0.825682	0.034516	0.000202
C16	C	-0.824553	0.111620	0.000195
C17	C	-0.814745	-0.219497	0.000234
C18	C	-0.815874	-0.296601	0.000246
C19	C	-0.571407	-0.159598	0.000187
C20	C	-0.498960	-0.158537	0.000195
C21	C	-0.471212	-0.094705	0.000198
C22	C	-0.515918	-0.031929	0.000174
C23	C	-0.588364	-0.032991	0.000159
C24	C	-0.362956	-0.044527	0.042642
C25	C	-0.290512	-0.043468	0.042662
C26	C	-0.247767	-0.091425	0.000241
C27	C	-0.277473	-0.140454	-0.042189
C28	C	-0.349918	-0.141517	-0.042205
C29	C	-0.392658	-0.093546	0.000214
C30	C	-0.124514	-0.153047	0.000269
C31	C	-0.052066	-0.151984	0.000272
C32	C	-0.069026	-0.025374	0.000259
C33	C	-0.141473	-0.026439	0.000248
C34	C	-0.169212	-0.090278	0.000256
N35	N	-0.820190	-0.092482	-0.188451
C36	C	-0.887321	0.156316	0.000207
C37	C	-0.886260	0.228763	0.000218
C38	C	-0.822428	0.256511	0.000203
C39	C	-0.759652	0.211805	0.000196
C40	C	-0.760714	0.139359	0.000192
C41	C	-0.772242	0.364800	-0.042227
C42	C	-0.771182	0.437245	-0.042228
C43	C	-0.819148	0.479956	0.000219
C44	C	-0.868186	0.450216	0.042657
C45	C	-0.869248	0.377771	0.042653
C46	C	-0.821269	0.335065	0.000208
C47	C	-0.880770	0.603209	0.000244
C48	C	-0.879707	0.675657	0.000259
C49	C	-0.753097	0.658697	0.000230
C50	C	-0.754162	0.586250	0.000221
C51	C	-0.818001	0.558511	0.000225
C52	C	-0.867574	-0.045137	-0.226546
C53	C	-0.867578	-0.045134	-0.302774
C54	C	-0.820206	-0.092488	-0.340903
C55	C	-0.772813	-0.139836	-0.302799
C56	C	-0.772805	-0.139834	-0.226572
C57	C	-0.810907	-0.155775	-0.461657
C58	C	-0.810920	-0.155779	-0.537882
C59	C	-0.820225	-0.092496	-0.576011
C60	C	-0.829533	-0.029207	-0.537905
C61	C	-0.829525	-0.029204	-0.461679
C62	C	-0.820208	-0.092496	-0.423558
C63	C	-0.867617	-0.045144	-0.696761
C64	C	-0.867616	-0.045140	-0.772990
C65	C	-0.772854	-0.139849	-0.773014
C66	C	-0.772851	-0.139847	-0.696786
C67	C	-0.820236	-0.092495	-0.658664
N68	N	-0.820242	-0.092493	0.188885
H69	H	-0.593987	-0.211580	0.000195
C70	C	-0.800676	-0.225391	-0.419722
H71	H	-0.795146	-0.263083	-0.453331
H72	H	-0.760227	-0.226904	-0.390005
H73	H	-0.840355	-0.229138	-0.389967
C74	C	-0.691666	0.090191	0.000172
H75	H	-0.653497	0.117090	0.000162
H76	H	-0.689455	0.061564	0.042397
H77	H	-0.689445	0.061592	-0.042068
C78	C	-0.002897	-0.221030	0.000294
H79	H	0.044223	-0.211256	0.000294
H80	H	-0.011308	-0.247213	0.042528
H81	H	-0.011263	-0.247216	-0.041938
H82	H	-0.939303	0.133736	0.000212
C83	C	-0.720744	-0.191937	-0.814947
H84	H	-0.727537	-0.185161	-0.865802
H85	H	-0.674413	-0.184513	-0.802480
H86	H	-0.728144	-0.238278	-0.802439
H87	H	-0.906198	-0.006585	-0.665721
H88	H	-0.266331	-0.003548	0.077215
H89	H	-0.374102	-0.181436	-0.076756
H90	H	-0.734240	-0.178392	-0.333848
C91	C	-0.800687	-0.225393	-0.579791
H92	H	-0.795133	-0.263082	-0.546167
H93	H	-0.840365	-0.229150	-0.609502
H94	H	-0.760240	-0.226900	-0.609550
H95	H	-0.046435	0.026600	0.000306
C96	C	-0.720742	-0.191938	-0.654876
H97	H	-0.727521	-0.185154	-0.604018
H98	H	-0.728145	-0.238275	-0.667356
H99	H	-0.674408	-0.184515	-0.667390
H100	H	-0.932751	0.580622	0.000250
C101	C	-0.920956	0.497187	0.089349
H102	H	-0.950314	0.469100	0.114615
H103	H	-0.896537	0.522225	0.123463
H104	H	-0.948582	0.529211	0.058763
C105	C	-0.409969	0.008224	0.089315
H106	H	-0.381902	0.037566	0.114596
H107	H	-0.441974	0.035860	0.058726
H108	H	-0.435027	-0.016217	0.123428
H109	H	-0.493322	0.020044	0.000187
H110	H	-0.734219	-0.178388	-0.195554
H111	H	-0.733180	0.330029	-0.076796
C112	C	-0.955307	0.277938	0.000226
H113	H	-0.993478	0.251041	0.000223
H114	H	-0.957535	0.306546	0.042455
H115	H	-0.957509	0.306557	-0.042010
H116	H	-0.930822	0.712049	0.000273
H117	H	-0.909175	0.353560	0.077208
H118	H	-0.624756	0.018124	0.000144
C119	C	-0.919688	0.006955	-0.184616
H120	H	-0.947905	0.035157	-0.218226
H121	H	-0.948518	-0.017953	-0.154855
H122	H	-0.894786	0.035811	-0.154905
C123	C	-0.682883	0.689210	0.000216
H124	H	-0.691238	0.738758	0.000217
H125	H	-0.657053	0.673842	0.042439
H126	H	-0.657041	0.673865	-0.042027
C127	C	-0.685116	0.537082	0.000196
H128	H	-0.646947	0.563981	0.000183
H129	H	-0.682903	0.508456	0.042422
H130	H	-0.682896	0.508481	-0.042043
H131	H	-0.707679	0.234401	0.000185
C132	C	-0.449785	-0.227584	0.000227
H133	H	-0.476682	-0.265755	0.000236
H134	H	-0.421141	-0.229807	-0.041992
H135	H	-0.421202	-0.229791	0.042473
C136	C	-0.919742	0.006941	-0.814896
H137	H	-0.947964	0.035136	-0.781271
H138	H	-0.894858	0.035796	-0.844652
H139	H	-0.948576	-0.017982	-0.844609
H140	H	-0.837110	0.022324	-0.568948
H141	H	-0.177866	0.024674	0.000236
H142	H	-0.906165	-0.006578	-0.333797
C143	C	-0.230462	-0.193214	-0.088850
H144	H	-0.183062	-0.185558	-0.082771
H145	H	-0.236189	-0.239342	-0.073926
H146	H	-0.243125	-0.187282	-0.138642
C147	C	-0.839752	0.040407	-0.419764
H148	H	-0.845391	0.078097	-0.453382
H149	H	-0.880138	0.041875	-0.389924
H150	H	-0.800023	0.044198	-0.390132
H151	H	-0.147101	-0.205028	0.000265
C152	C	-0.717243	0.469956	-0.088903
H153	H	-0.723484	0.519219	-0.082828
H154	H	-0.671467	0.451925	-0.073990
H155	H	-0.723511	0.458911	-0.138691
