data_functionalizedCrystal
_audit_creation_method	'MofGen! by Chris Wilmer'
_symmetry_space_group_name_H-M	'P1'
_symmetry_Int_Tables_number	1
_symmetry_cell_setting	triclinic
loop_
_symmetry_equiv_pos_as_xyz
  x,y,z
_cell_length_a	10.654550
_cell_length_b	9.616153
_cell_length_c	10.654550
_cell_angle_alpha	90.002080
_cell_angle_beta	84.484931
_cell_angle_gamma	90.003640
loop_
_atom_site_label
_atom_site_type_symbol
_atom_site_fract_x
_atom_site_fract_y
_atom_site_fract_z
O1	O	1.667846	0.115541	0.176394
O2	O	1.302368	0.115567	0.193200
O3	O	1.493510	0.115545	0.002058
O4	O	1.476704	0.115564	0.367536
O5	O	1.493483	-0.115747	0.002062
O6	O	1.302341	-0.115724	0.193204
O7	O	1.667820	-0.115750	0.176398
Zn8	Zn	1.485076	-0.152460	0.184802
Zn9	Zn	1.485111	0.152277	0.184796
O10	O	1.476677	-0.115728	0.367540
C11	C	1.255556	-0.000076	0.191968
C12	C	1.116113	-0.000066	0.188276
C13	C	1.036628	-0.000064	0.300818
C14	C	0.905607	-0.000089	0.297341
C15	C	0.933570	-0.000111	0.068772
C16	C	1.064588	-0.000096	0.072250
N17	N	1.485062	-0.360434	0.184805
C18	C	1.382501	-0.580792	0.286710
C19	C	1.382727	-0.419625	0.287092
C20	C	1.616359	-0.418891	0.214570
C21	C	1.615800	-0.580109	0.215291
C22	C	1.457633	-0.580350	0.052799
C23	C	1.454618	-0.419123	0.053656
C24	C	1.714631	-0.000104	0.177630
C25	C	1.854074	-0.000105	0.181322
C26	C	1.492263	-0.000100	-0.044738
C27	C	1.488571	-0.000098	-0.184181
N28	N	1.485135	0.360251	0.184784
C29	C	1.601112	-0.000105	-0.263667
C30	C	1.597636	-0.000088	-0.394688
C31	C	1.369066	-0.000062	-0.366725
C32	C	1.372544	-0.000069	-0.235706
C33	C	1.477925	-0.000080	0.414336
C34	C	1.481616	-0.000073	0.553779
H35	H	0.891602	-0.000144	-0.025693
C36	C	1.648287	-0.630891	0.345372
H37	H	1.661695	-0.552992	0.397281
H38	H	1.722639	-0.685886	0.335439
H39	H	1.580546	-0.685103	0.383663
C40	C	1.248746	-0.000054	-0.148261
H41	H	1.267437	-0.000045	-0.062853
H42	H	1.201199	-0.080700	-0.163984
H43	H	1.201238	0.080623	-0.163986
H44	H	1.284638	-0.619598	0.269082
C45	C	1.093308	-0.000042	0.428437
H46	H	1.182722	-0.000020	0.414394
H47	H	1.066094	-0.080697	0.474828
H48	H	1.066087	0.080626	0.474817
H49	H	1.129309	-0.000102	-0.019401
C50	C	1.250931	-0.366228	0.262931
H51	H	1.196768	-0.443067	0.252799
H52	H	1.257170	-0.311158	0.188576
H53	H	1.217531	-0.311537	0.332538
H54	H	0.840894	-0.000090	0.388984
H55	H	1.399945	-0.621287	0.384077
H56	H	1.400400	-0.381042	0.385014
C57	C	1.722142	-0.632799	0.118899
H58	H	1.765501	-0.555671	0.079481
H59	H	1.687080	-0.687706	0.056880
H60	H	1.779470	-0.687508	0.160883
C61	C	1.728735	-0.000121	-0.206993
H62	H	1.795262	-0.000110	-0.273101
H63	H	1.734838	-0.080779	-0.156468
H64	H	1.734851	0.080544	-0.156461
C65	C	1.649601	-0.364336	0.343177
H66	H	1.729225	-0.400286	0.360345
H67	H	1.586942	-0.393418	0.407254
H68	H	1.653161	-0.265637	0.341266
H69	H	1.363917	-0.621082	0.024459
H70	H	1.274601	-0.000041	-0.408693
H71	H	1.358029	-0.380917	0.031093
H72	H	1.694596	-0.380547	0.142357
C73	C	1.548922	-0.364721	-0.053730
H74	H	1.608365	-0.305244	-0.019833
H75	H	1.504833	-0.314391	-0.112415
H76	H	1.591777	-0.440980	-0.095175
C77	C	1.721428	-0.000091	-0.482122
H78	H	1.702745	-0.000064	-0.567533
H79	H	1.768948	-0.080752	-0.466406
H80	H	1.768959	0.080571	-0.466381
C81	C	1.558711	-0.631862	-0.049690
H82	H	1.617395	-0.689290	-0.012297
H83	H	1.601533	-0.554335	-0.088969
H84	H	1.519561	-0.683774	-0.111019
