data_functionalizedCrystal
_audit_creation_method	'MofGen! by Chris Wilmer'
_symmetry_space_group_name_H-M	'P1'
_symmetry_Int_Tables_number	1
_symmetry_cell_setting	triclinic
loop_
_symmetry_equiv_pos_as_xyz
  x,y,z
_cell_length_a	15.995292
_cell_length_b	15.995300
_cell_length_c	15.186229
_cell_angle_alpha	90.000802
_cell_angle_beta	89.995469
_cell_angle_gamma	83.470212
loop_
_atom_site_label
_atom_site_type_symbol
_atom_site_fract_x
_atom_site_fract_y
_atom_site_fract_z
O1	O	1.110995	0.107696	-0.073243
O2	O	1.610995	0.607696	0.426757
O3	O	0.867211	0.121075	-0.073239
O4	O	1.367211	0.621075	0.426761
O5	O	0.995789	-0.007506	-0.073246
O6	O	1.495789	0.492494	0.426754
O7	O	0.982417	0.236277	-0.073237
O8	O	1.482417	0.736277	0.426763
O9	O	0.995780	-0.007508	0.073212
O10	O	1.495780	0.492492	0.573212
O11	O	0.867202	0.121073	0.073218
O12	O	1.367202	0.621073	0.573218
O13	O	1.110987	0.107694	0.073214
O14	O	1.610987	0.607694	0.573214
Zn15	Zn	0.989093	0.114383	0.096469
Zn16	Zn	1.489093	0.614383	0.596469
Zn17	Zn	0.989104	0.114386	-0.096494
Zn18	Zn	1.489104	0.614386	0.403506
O19	O	0.982408	0.236276	0.073221
O20	O	1.482408	0.736276	0.573221
C21	C	0.995239	-0.038703	-0.000020
C22	C	1.495239	0.461297	0.499980
C23	C	0.993604	-0.131655	-0.000029
C24	C	1.493604	0.368345	0.499971
C25	C	0.836011	0.120530	-0.000010
C26	C	1.336011	0.620530	0.499990
C27	C	0.743058	0.118897	-0.000008
C28	C	1.243058	0.618897	0.499992
C29	C	0.990585	-0.301837	-0.000020
C30	C	1.490585	0.198163	0.499980
C31	C	1.082135	-0.349322	-0.000024
C32	C	1.582135	0.150678	0.499976
C33	C	1.080465	-0.446010	0.000312
C34	C	1.580465	0.053990	0.500312
C35	C	0.987613	-0.469393	-0.000013
C36	C	1.487613	0.030607	0.499987
C37	C	0.942187	-0.428250	0.083457
C38	C	1.442187	0.071750	0.583457
C39	C	0.944503	-0.331618	0.083524
C40	C	1.444503	0.168382	0.583524
C41	C	0.943157	-0.331340	-0.083031
C42	C	1.443157	0.168660	0.416969
C43	C	0.943166	-0.428284	-0.084125
C44	C	1.443166	0.071716	0.415875
C45	C	0.985928	-0.564088	-0.000005
C46	C	1.485928	-0.064088	0.499995
C47	C	0.992266	-0.207142	-0.000021
C48	C	1.492266	0.292858	0.499979
C49	C	0.405321	0.112896	-0.000019
C50	C	0.905321	0.612896	0.499981
C51	C	0.428617	0.205702	-0.000342
C52	C	0.928617	0.705702	0.499658
C53	C	0.525292	0.207466	-0.000008
C54	C	1.025292	0.707466	0.499992
C55	C	0.572876	0.115874	-0.000014
C56	C	1.072876	0.615874	0.499986
C57	C	0.543778	0.069474	0.083616
C58	C	1.043778	0.569474	0.583616
C59	C	0.446988	0.068356	0.083682
C60	C	0.946988	0.568356	0.583682
C61	C	0.447142	0.066463	-0.082868
C62	C	0.947142	0.566463	0.417132
C63	C	0.543634	0.069903	-0.083969
C64	C	1.043634	0.569903	0.416031
C65	C	0.667572	0.117552	-0.000009
C66	C	1.167572	0.617552	0.499991
C67	C	0.310626	0.111215	-0.000018
C68	C	0.810626	0.611215	0.499982
C69	C	1.142186	0.108240	-0.000017
C70	C	1.642186	0.608240	0.499983
C71	C	1.235139	0.109872	-0.000024
C72	C	1.735139	0.609872	0.499976
C73	C	0.982958	0.267472	-0.000007
C74	C	1.482958	0.767472	0.499993
C75	C	0.984593	0.360424	-0.000004
C76	C	1.484593	0.860424	0.499996
N77	N	0.989091	0.114381	0.228162
N78	N	1.489091	0.614381	0.728162
N79	N	0.989113	0.114381	-0.228187
N80	N	1.489113	0.614381	0.271813
C81	C	1.046045	0.057465	0.453882
C82	C	1.546045	0.557465	0.953882
C83	C	1.046048	0.057463	0.546072
C84	C	1.546048	0.557463	1.046072
C85	C	0.932153	0.171301	0.546087
C86	C	1.432153	0.671301	1.046087
C87	C	0.932147	0.171298	0.453899
C88	C	1.432147	0.671298	0.953899
C89	C	0.989098	0.114381	0.407799
C90	C	1.489098	0.614381	0.907799
C91	C	0.989106	0.114382	0.592176
C92	C	1.489106	0.614382	1.092176
C93	C	0.989109	0.114380	0.692132
C94	C	1.489109	0.614380	1.192132
C95	C	0.989094	0.114381	0.307836
C96	C	1.489094	0.614381	0.807836
H97	H	1.116159	-0.474481	-0.059508
H98	H	1.616159	0.025519	0.440492
H99	H	0.875473	-0.443614	-0.089415
H100	H	1.375473	0.056386	0.410585
H101	H	0.544315	0.243800	-0.059959
H102	H	1.044315	0.743800	0.440041
H103	H	0.576617	0.003050	-0.089025
H104	H	1.076617	0.503050	0.410975
H105	H	1.118925	-0.330851	-0.059880
H106	H	1.618925	0.169149	0.440120
H107	H	0.433162	-0.001848	-0.083437
H108	H	0.933162	0.498152	0.416563
H109	H	1.092419	0.011115	0.583590
H110	H	1.592419	0.511115	1.083590
Br111	Br	1.123334	-0.019781	0.391321
Br112	Br	1.623334	0.480219	0.891321
H113	H	0.562201	0.103687	-0.145838
H114	H	1.062201	0.603687	0.354162
H115	H	0.563828	0.101694	0.145857
H116	H	1.063828	0.601694	0.645857
H117	H	0.885786	0.217642	0.583630
H118	H	1.385786	0.717642	1.083630
Br119	Br	0.854849	0.248540	0.391350
Br120	Br	1.354849	0.748540	0.891350
H121	H	0.977234	-0.313305	0.146155
H122	H	1.477234	0.186695	0.646155
H123	H	1.118400	-0.329662	0.059698
H124	H	1.618400	0.170338	0.559698
H125	H	1.115997	-0.473864	0.060495
H126	H	1.615997	0.026136	0.560495
H127	H	0.877277	-0.299330	0.087088
H128	H	1.377277	0.200670	0.587088
H129	H	0.399588	0.241275	0.059298
H130	H	0.899588	0.741275	0.559298
H131	H	0.873961	-0.442336	0.086328
H132	H	1.373961	0.057664	0.586328
H133	H	0.973300	-0.310844	-0.146317
H134	H	1.473300	0.189156	0.353683
Br135	Br	0.994119	-0.475522	0.187384
Br136	Br	1.494119	0.024478	0.687384
H137	H	0.543685	0.244022	0.060045
H138	H	1.043685	0.744022	0.560045
Br139	Br	0.402270	0.121916	0.187882
Br140	Br	0.902270	0.621916	0.687882
Br141	Br	0.998451	-0.473864	-0.187054
Br142	Br	1.498451	0.026136	0.312946
H143	H	0.418814	0.095472	-0.146254
H144	H	0.918814	0.595472	0.353746
H145	H	0.400618	0.241475	-0.060317
H146	H	0.900618	0.741475	0.439683
Br147	Br	0.830655	-0.278349	-0.084368
Br148	Br	1.330655	0.221651	0.415632
H149	H	0.432449	0.000310	0.087477
H150	H	0.932449	0.500310	0.587477
Br151	Br	0.596900	-0.042870	0.088790
Br152	Br	1.096900	0.457130	0.588790
