data_functionalizedCrystal
_audit_creation_method	'MofGen! by Chris Wilmer'
_symmetry_space_group_name_H-M	'P1'
_symmetry_Int_Tables_number	1
_symmetry_cell_setting	triclinic
loop_
_symmetry_equiv_pos_as_xyz
  x,y,z
_cell_length_a	17.038272
_cell_length_b	10.540539
_cell_length_c	9.616153
_cell_angle_alpha	89.993339
_cell_angle_beta	89.998568
_cell_angle_gamma	87.818524
loop_
_atom_site_label
_atom_site_type_symbol
_atom_site_fract_x
_atom_site_fract_y
_atom_site_fract_z
O1	O	0.110246	1.696179	-0.115581
O2	O	0.120633	1.327735	-0.115599
O3	O	0.001612	1.509767	-0.115579
O4	O	0.229267	1.514147	-0.115601
O5	O	0.001616	1.509734	0.115712
O6	O	0.120638	1.327702	0.115693
O7	O	0.110250	1.696146	0.115710
Zn8	Zn	0.115445	1.511919	0.152424
Zn9	Zn	0.115439	1.511963	-0.152313
O10	O	0.229272	1.514114	0.115690
C11	C	0.119857	1.280343	0.000045
C12	C	0.117526	1.139177	0.000039
C13	C	-0.027537	1.505768	0.000066
C14	C	-0.114398	1.493883	0.000065
C15	C	0.028219	0.947420	0.000587
C16	C	0.030581	1.094259	0.000051
C17	C	0.159365	1.081427	-0.132039
C18	C	0.156397	0.934605	-0.132135
C19	C	0.158172	0.934244	0.130886
C20	C	0.158972	1.081301	0.132618
C21	C	-0.163886	1.602994	0.000072
C22	C	-0.245501	1.591820	0.000058
C23	C	-0.277626	1.471534	0.000048
C24	C	-0.228133	1.362416	0.000037
C25	C	-0.146519	1.373591	0.000041
C26	C	-0.523611	1.432055	0.000027
C27	C	-0.605231	1.420888	0.000027
C28	C	-0.622593	1.650293	0.000046
C29	C	-0.540977	1.661457	0.000058
C30	C	-0.491491	1.552339	0.000040
C31	C	-0.361050	1.460110	0.000038
C32	C	-0.408069	1.563764	0.000040
C33	C	0.258421	1.518114	0.000042
C34	C	0.345282	1.529998	0.000034
C35	C	0.111027	1.743538	0.000063
C36	C	0.113358	1.884704	0.000061
N37	N	0.115449	1.511898	0.360398
C38	C	0.178906	1.414181	0.580758
C39	C	0.179142	1.414436	0.419590
C40	C	0.134019	1.646352	0.418852
C41	C	0.134470	1.645824	0.580070
C42	C	0.033217	1.476449	0.580316
C43	C	0.033749	1.473457	0.419089
N44	N	0.115438	1.511963	0.639713
H45	H	-0.002339	1.133788	0.094731
H46	H	0.089054	1.721213	0.380507
F47	F	-0.298166	1.707951	0.000068
H48	H	0.130036	0.900059	0.231000
F49	F	0.115974	0.893977	-0.261172
F50	F	0.010128	1.350444	0.633519
H51	H	-0.631384	1.322932	0.000041
F52	F	-0.016674	0.905846	0.124395
H53	H	0.167968	1.314778	0.380072
F54	F	-0.506793	1.789481	0.000034
H55	H	0.220971	0.892875	0.131773
H56	H	-0.662893	1.739130	0.000058
H57	H	-0.015750	1.539367	0.378802
F58	F	-0.016494	0.903778	-0.122513
F59	F	0.258880	1.445229	0.369151
H60	H	-0.106227	1.284741	0.000035
F61	F	0.076336	1.744283	0.631045
H62	H	0.223214	1.109736	-0.136959
H63	H	-0.483328	1.343202	0.000013
H64	H	0.167904	1.314228	0.619566
H65	H	-0.381909	1.661700	0.000017
H66	H	0.239561	1.437504	0.621252
H67	H	0.128408	1.119398	0.230328
F68	F	-0.395248	1.332096	0.000021
H69	H	0.194456	1.675773	0.617653
F70	F	-0.262325	1.234398	0.000010
H71	H	0.193327	1.676783	0.378457
F72	F	0.015348	1.344120	0.369158
F73	F	0.241828	1.120685	0.143032
F74	F	-0.028528	1.569516	0.630146
H75	H	-0.002575	1.132925	-0.094786
H76	H	0.218926	0.892470	-0.138136
F77	F	-0.129703	1.731019	0.000096
F78	F	0.121372	1.133563	-0.260513
