data_functionalizedCrystal
_audit_creation_method	'MofGen! by Chris Wilmer'
_symmetry_space_group_name_H-M	'P1'
_symmetry_Int_Tables_number	1
_symmetry_cell_setting	triclinic
loop_
_symmetry_equiv_pos_as_xyz
  x,y,z
_cell_length_a	12.784905
_cell_length_b	12.837932
_cell_length_c	7.540329
_cell_angle_alpha	89.999620
_cell_angle_beta	89.996504
_cell_angle_gamma	83.968511
loop_
_atom_site_label
_atom_site_type_symbol
_atom_site_fract_x
_atom_site_fract_y
_atom_site_fract_z
O1	O	1.410964	0.006435	-0.147492
O2	O	1.744298	0.339768	0.185841
O3	O	2.077631	0.673101	0.519174
O4	O	1.105966	0.050427	-0.147490
O5	O	1.439299	0.383760	0.185844
O6	O	1.772632	0.717094	0.519177
O7	O	1.251701	-0.121862	-0.147492
O8	O	1.585034	0.211471	0.185841
O9	O	1.918368	0.544804	0.519174
O10	O	1.265229	0.178724	-0.147490
O11	O	1.598562	0.512057	0.185844
O12	O	1.931896	0.845391	0.519177
O13	O	1.251691	-0.121863	0.147473
O14	O	1.585024	0.211470	0.480806
O15	O	1.918358	0.544803	0.814139
O16	O	1.105956	0.050426	0.147475
O17	O	1.439289	0.383759	0.480809
O18	O	1.772622	0.717093	0.814142
O19	O	1.410955	0.006434	0.147473
O20	O	1.744288	0.339767	0.480806
O21	O	2.077621	0.673100	0.814140
Cu22	Cu	1.258454	0.028430	0.174407
Cu23	Cu	1.591788	0.361763	0.507740
Cu24	Cu	1.925121	0.695096	0.841073
Cu25	Cu	1.258466	0.028431	-0.174424
Cu26	Cu	1.591799	0.361764	0.158910
Cu27	Cu	1.925133	0.695098	0.492243
O28	O	1.265219	0.178723	0.147475
O29	O	1.598553	0.512056	0.480809
O30	O	1.931886	0.845390	0.814142
C31	C	1.066651	0.053288	-0.000007
C32	C	1.399984	0.386621	0.333326
C33	C	1.733318	0.719954	0.666660
C34	C	0.949520	0.061801	-0.000006
C35	C	1.282853	0.395134	0.333327
C36	C	1.616186	0.728467	0.666660
C37	C	0.735567	-0.111642	-0.000040
C38	C	1.068901	0.221691	0.333294
C39	C	1.402234	0.555024	0.666627
C40	C	0.625512	-0.103648	-0.000039
C41	C	0.958846	0.229685	0.333294
C42	C	1.292179	0.563018	0.666627
C43	C	0.619352	0.085781	-0.000018
C44	C	0.952685	0.419115	0.333315
C45	C	1.286018	0.752448	0.666649
C46	C	0.729407	0.077787	-0.000018
C47	C	1.062740	0.411121	0.333315
C48	C	1.396074	0.744454	0.666648
C49	C	0.787511	-0.020928	-0.000027
C50	C	1.120844	0.312406	0.333307
C51	C	1.454178	0.645739	0.666640
C52	C	0.897568	-0.028921	-0.000014
C53	C	1.230902	0.304413	0.333319
C54	C	1.564235	0.637746	0.666652
C55	C	0.891406	0.160508	-0.000006
C56	C	1.224739	0.493841	0.333328
C57	C	1.558073	0.827175	0.666661
C58	C	0.781351	0.168502	-0.000005
C59	C	1.114684	0.501835	0.333328
C60	C	1.448017	0.835168	0.666661
C61	C	1.247126	-0.160072	-0.000014
C62	C	1.580460	0.173262	0.333320
C63	C	1.913793	0.506595	0.666653
C64	C	1.233498	-0.273920	-0.000026
C65	C	1.566831	0.059413	0.333307
C66	C	1.900165	0.392746	0.666641
C67	C	1.119588	-0.413496	-0.000023
C68	C	1.452922	-0.080162	0.333311
C69	C	1.786255	0.253171	0.666644
C70	C	1.132387	-0.306523	-0.000026
C71	C	1.465720	0.026810	0.333308
C72	C	1.799054	0.360144	0.666641
C73	C	1.321817	-0.348299	-0.000028
C74	C	1.655150	-0.014966	0.333305
C75	C	1.988484	0.318367	0.666638
C76	C	1.309018	-0.455272	-0.000025
C77	C	1.642352	-0.121939	0.333308
C78	C	1.975685	0.211395	0.666641
C79	C	1.207901	-0.487865	-0.000020
C80	C	1.541234	-0.154532	0.333314
C81	C	1.874568	0.178801	0.666647
C82	C	1.195103	-0.594840	-0.000004
C83	C	1.528437	-0.261507	0.333329
C84	C	1.861770	0.071827	0.666663
C85	C	1.384532	-0.636614	-0.000019
C86	C	1.717866	-0.303281	0.333314
C87	C	2.051199	0.030052	0.666647
C88	C	1.397331	-0.529642	-0.000022
C89	C	1.730664	-0.196308	0.333311
C90	C	2.063998	0.137025	0.666644
C91	C	1.450269	0.003573	-0.000014
C92	C	1.783602	0.336906	0.333320
C93	C	2.116936	0.670240	0.666653
C94	C	1.567401	-0.004940	-0.000026
C95	C	1.900734	0.328393	0.333307
C96	C	2.234067	0.661727	0.666641
C97	C	1.269794	0.216932	-0.000007
C98	C	1.603127	0.550266	0.333326
C99	C	1.936460	0.883599	0.666660
C100	C	1.283422	0.330781	-0.000006
C101	C	1.616756	0.664114	0.333327
C102	C	1.950089	0.997448	0.666660
N103	N	1.258454	0.028427	0.419755
N104	N	1.591787	0.361761	0.753089
N105	N	1.925120	0.695094	1.086422
N106	N	1.258474	0.028424	-0.419772
N107	N	1.591807	0.361758	-0.086439
N108	N	1.925141	0.695091	0.246895
H109	H	0.583224	-0.177517	-0.000053
H110	H	0.916557	0.155816	0.333280
H111	H	1.249891	0.489149	0.666613
Br112	Br	0.814428	-0.245607	-0.000018
Br113	Br	1.147761	0.087726	0.333315
Br114	Br	1.481095	0.421059	0.666648
Br115	Br	1.057875	-0.639075	0.000017
Br116	Br	1.391208	-0.305741	0.333350
Br117	Br	1.724542	0.027592	0.666683
H118	H	1.479658	-0.503089	-0.000020
H119	H	1.812991	-0.169755	0.333313
H120	H	2.146325	0.163578	0.666647
H121	H	0.572025	0.166150	-0.000035
H122	H	0.905358	0.499483	0.333299
H123	H	1.238691	0.832816	0.666632
H124	H	0.734027	0.248872	-0.000006
H125	H	1.067361	0.582206	0.333327
H126	H	1.400694	0.915539	0.666661
Br127	Br	0.961906	0.283628	0.000051
Br128	Br	1.295239	0.616962	0.333384
Br129	Br	1.628573	0.950295	0.666718
Br130	Br	0.982363	-0.457736	0.000023
Br131	Br	1.315696	-0.124403	0.333357
Br132	Br	1.649029	0.208931	0.666690
Br133	Br	1.012529	-0.205593	-0.000042
Br134	Br	1.345862	0.127740	0.333291
Br135	Br	1.679196	0.461073	0.666624
Br136	Br	1.459037	-0.304045	-0.000076
Br137	Br	1.792370	0.029288	0.333258
Br138	Br	2.125704	0.362622	0.666591
H139	H	1.456443	-0.697179	-0.000014
H140	H	1.789776	-0.363846	0.333319
H141	H	2.123110	-0.030513	0.666653
H142	H	0.944875	-0.109300	-0.000018
H143	H	1.278209	0.224034	0.333315
H144	H	1.611542	0.557367	0.666649
