data_functionalizedCrystal
_audit_creation_method	'MofGen! by Chris Wilmer'
_symmetry_space_group_name_H-M	'P1'
_symmetry_Int_Tables_number	1
_symmetry_cell_setting	triclinic
loop_
_symmetry_equiv_pos_as_xyz
  x,y,z
_cell_length_a	14.044220
_cell_length_b	10.540539
_cell_length_c	13.101039
_cell_angle_alpha	93.398267
_cell_angle_beta	86.340132
_cell_angle_gamma	88.857185
loop_
_atom_site_label
_atom_site_type_symbol
_atom_site_fract_x
_atom_site_fract_y
_atom_site_fract_z
O1	O	1.264944	0.299850	-0.085096
O2	O	1.764944	0.799850	0.414904
O3	O	0.988901	0.288796	-0.085123
O4	O	1.488901	0.788796	0.414877
O5	O	1.133220	0.110253	-0.085108
O6	O	1.633220	0.610253	0.414892
O7	O	1.120625	0.478393	-0.085111
O8	O	1.620625	0.978393	0.414889
O9	O	1.122866	0.123087	0.085321
O10	O	1.622866	0.623087	0.585321
O11	O	0.978547	0.301630	0.085306
O12	O	1.478547	0.801630	0.585306
O13	O	1.254589	0.312683	0.085332
O14	O	1.754589	0.812683	0.585332
Zn15	Zn	1.114924	0.309194	0.112379
Zn16	Zn	1.614924	0.809194	0.612379
Zn17	Zn	1.128566	0.292285	-0.112169
Zn18	Zn	1.628566	0.792285	0.387831
O19	O	1.110270	0.491226	0.085317
O20	O	1.610270	0.991226	0.585317
C21	C	0.948377	0.290375	0.000088
C22	C	1.448377	0.790375	0.500088
C23	C	0.843054	0.275945	0.000078
C24	C	1.343054	0.775945	0.500078
C25	C	0.650213	0.249565	0.000099
C26	C	1.150213	0.749565	0.500099
C27	C	0.593272	0.351908	0.000102
C28	C	1.093272	0.851908	0.500102
C29	C	0.485969	0.337230	0.000114
C30	C	0.985969	0.837230	0.500114
C31	C	0.757526	0.264241	0.000087
C32	C	1.257526	0.764241	0.500087
C33	C	1.127098	0.069271	0.000105
C34	C	1.627098	0.569271	0.500105
C35	C	1.124273	-0.071963	0.000099
C36	C	1.624273	0.428037	0.500099
C37	C	1.016007	-0.266367	-0.000294
C38	C	1.516007	0.233633	0.499706
C39	C	1.018849	-0.119430	0.000090
C40	C	1.518849	0.380570	0.500090
C41	C	1.169094	-0.121162	0.097427
C42	C	1.669094	0.378838	0.597427
C43	C	1.165492	-0.268064	0.097509
C44	C	1.665492	0.231936	0.597509
C45	C	1.179411	-0.282960	-0.096300
C46	C	1.679411	0.217040	0.403700
C47	C	1.180460	-0.135977	-0.097587
C48	C	1.680460	0.364023	0.402413
C49	C	1.295114	0.311104	0.000119
C50	C	1.795114	0.811104	0.500119
C51	C	1.400437	0.325534	0.000123
C52	C	1.900437	0.825534	0.500123
C53	C	1.116392	0.532208	0.000103
C54	C	1.616392	1.032208	0.500103
C55	C	1.119218	0.673442	0.000102
C56	C	1.619218	1.173442	0.500102
N57	N	1.105620	0.320734	0.265626
N58	N	1.605620	0.820734	0.765626
N59	N	1.137878	0.280737	-0.265416
N60	N	1.637878	0.780737	0.234584
C61	C	1.092962	0.336445	0.474667
C62	C	1.592962	0.836445	0.974667
C63	C	1.150533	0.265029	0.525549
C64	C	1.650533	0.765029	1.025549
C65	C	1.143490	0.273771	0.641867
C66	C	1.643490	0.773771	1.141867
C67	C	1.100004	0.327705	0.358339
C68	C	1.600004	0.827705	0.858339
H69	H	0.983167	-0.086117	-0.069679
H70	H	1.483167	0.413883	0.430321
N71	N	1.277337	-0.096421	-0.104939
N72	N	1.777337	0.403579	0.395061
N73	N	1.343962	-0.176880	-0.105182
N74	N	1.843962	0.323120	0.394818
H75	H	1.412386	-0.148944	-0.110364
H76	H	1.912386	0.351056	0.389636
N77	N	0.610282	0.125823	0.000076
N78	N	1.110282	0.625823	0.500076
N79	N	0.632642	0.045273	-0.071774
N80	N	1.132642	0.545273	0.428226
H81	H	0.604431	-0.042120	-0.071795
H82	H	1.104431	0.457880	0.428205
H83	H	0.625112	0.450550	0.000096
H84	H	1.125112	0.950550	0.500096
H85	H	1.038389	0.404149	0.518459
H86	H	1.538389	0.904149	1.018459
H87	H	0.978603	-0.304433	-0.070090
H88	H	1.478603	0.195567	0.429910
N89	N	1.219036	0.180155	0.470598
N90	N	1.719036	0.680155	0.970598
N91	N	1.306028	0.192633	0.482482
N92	N	1.806028	0.692633	0.982482
H93	H	1.354417	0.132712	0.443662
H94	H	1.854417	0.632712	0.943662
N95	N	0.958692	-0.302975	0.086765
N96	N	1.458692	0.197025	0.586765
N97	N	0.993528	-0.373202	0.149099
N98	N	1.493528	0.126798	0.649099
H99	H	0.953052	-0.399060	0.210586
H100	H	1.453052	0.100940	0.710586
N101	N	1.260260	-0.318218	0.103096
N102	N	1.760260	0.181782	0.603096
N103	N	1.280150	-0.382128	0.176583
N104	N	1.780150	0.117872	0.676583
H105	H	1.347078	-0.417546	0.180536
H106	H	1.847078	0.082454	0.680536
H107	H	0.974402	-0.076477	0.069968
H108	H	1.474402	0.423523	0.569968
H109	H	1.255598	-0.322536	-0.096948
H110	H	1.755598	0.177464	0.403052
H111	H	1.123576	-0.294577	0.170256
H112	H	1.623576	0.205423	0.670256
H113	H	1.246295	-0.090708	0.101053
H114	H	1.746295	0.409292	0.601053
N115	N	1.119357	-0.065347	0.188274
N116	N	1.619357	0.434653	0.688274
N117	N	1.050896	0.010668	0.181591
N118	N	1.550896	0.510668	0.681591
H119	H	1.015762	0.050086	0.245749
H120	H	1.515762	0.550086	0.745749
H121	H	1.149772	-0.323517	-0.170068
H122	H	1.649772	0.176483	0.329932
H123	H	1.147712	-0.104293	-0.169588
H124	H	1.647712	0.395707	0.330412
