data_functionalizedCrystal
_audit_creation_method	'MofGen! by Chris Wilmer'
_symmetry_space_group_name_H-M	'P1'
_symmetry_Int_Tables_number	1
_symmetry_cell_setting	triclinic
loop_
_symmetry_equiv_pos_as_xyz
  x,y,z
_cell_length_a	19.288840
_cell_length_b	15.944545
_cell_length_c	17.766277
_cell_angle_alpha	89.991536
_cell_angle_beta	89.983415
_cell_angle_gamma	83.311094
loop_
_atom_site_label
_atom_site_type_symbol
_atom_site_fract_x
_atom_site_fract_y
_atom_site_fract_z
O1	O	0.921638	0.104684	-0.062723
O2	O	0.719412	0.118841	-0.062698
O3	O	0.826049	-0.010535	-0.062702
O4	O	0.815000	0.234059	-0.062719
O5	O	0.826031	-0.010541	0.062486
O6	O	0.719393	0.118834	0.062491
O7	O	0.921619	0.104677	0.062465
Cu8	Cu	0.820504	0.111755	0.073909
Cu9	Cu	0.820527	0.111763	-0.074141
O10	O	0.814982	0.234053	0.062470
C11	C	0.693525	0.118386	-0.000100
C12	C	0.616416	0.117029	-0.000090
C13	C	0.580221	0.116380	-0.068332
C14	C	0.507771	0.115096	-0.068341
C15	C	0.471521	0.114443	-0.000104
C16	C	0.507724	0.115096	0.068147
C17	C	0.580172	0.116389	0.068154
C18	C	0.362051	0.063193	0.052168
C19	C	0.289605	0.061895	0.052158
C20	C	0.248066	0.110460	-0.000124
C21	C	0.278984	0.160311	-0.052408
C22	C	0.351432	0.161604	-0.052401
C23	C	0.392963	0.113042	-0.000105
C24	C	0.133312	0.108420	-0.068381
C25	C	0.060860	0.107141	-0.068387
C26	C	0.060815	0.107133	0.068103
C27	C	0.133265	0.108420	0.068107
C28	C	0.169510	0.109060	-0.000136
C29	C	0.825582	-0.041830	-0.000107
C30	C	0.824209	-0.135071	-0.000105
C31	C	0.754008	-0.405426	-0.000111
C32	C	0.787863	-0.354971	-0.061841
C33	C	0.819313	-0.470696	-0.000126
C34	C	0.787862	-0.355005	0.061586
C35	C	0.821715	-0.305792	-0.000114
C36	C	0.853151	-0.421469	-0.061906
C37	C	0.853140	-0.421506	0.061576
C38	C	0.887043	-0.371084	-0.000169
C39	C	0.817928	-0.565692	-0.000133
C40	C	0.823106	-0.210798	-0.000113
C41	C	0.947506	0.105132	-0.000134
C42	C	1.024615	0.106489	-0.000149
C43	C	0.815449	0.265348	-0.000127
C44	C	0.816822	0.358589	-0.000134
N45	N	0.820494	0.111749	0.178039
N46	N	0.820543	0.111762	-0.178272
C47	C	0.867728	0.054490	0.217424
C48	C	0.867732	0.054486	0.296226
C49	C	0.820509	0.111756	0.335639
C50	C	0.773265	0.169020	0.296245
C51	C	0.773258	0.169016	0.217445
C52	C	0.811410	0.188290	0.460473
C53	C	0.811422	0.188295	0.539272
C54	C	0.820527	0.111766	0.578686
C55	C	0.829635	0.035229	0.539291
C56	C	0.829628	0.035226	0.460491
C57	C	0.820511	0.111765	0.421085
C58	C	0.867769	0.054497	0.703517
C59	C	0.867768	0.054492	0.782320
C60	C	0.773304	0.169034	0.782338
C61	C	0.773301	0.169031	0.703536
C62	C	0.820537	0.111764	0.664130
H63	H	0.376602	0.202197	-0.094970
O64	O	0.918684	-0.007291	0.660999
H65	H	0.952447	0.027940	0.625071
O66	O	0.889629	-0.460008	0.130697
H67	H	0.944536	-0.445532	0.131161
O68	O	0.918683	-0.007273	0.338718
H69	H	0.952432	0.027992	0.374601
O70	O	0.021830	0.106417	-0.142002
H71	H	0.029556	0.163889	-0.174747
H72	H	0.760290	-0.325925	-0.114021
H73	H	0.760263	-0.325984	0.113771
O74	O	0.889661	-0.459754	-0.131117
H75	H	0.888334	-0.529159	-0.130595
O76	O	0.839315	-0.047369	0.418074
H77	H	0.792864	-0.052536	0.382261
H78	H	0.906189	0.007857	0.185342
H79	H	0.734814	0.215649	0.328340
H80	H	0.697766	-0.420856	-0.000165
H81	H	0.609641	0.116918	0.123727
H82	H	0.943328	-0.355816	-0.000211
O83	O	0.234201	0.212717	-0.108797
H84	H	0.205686	0.170656	-0.144102
O85	O	0.021667	0.106551	0.141675
H86	H	-0.005192	0.048765	0.144990
O87	O	0.172310	0.109132	0.141712
H88	H	0.134933	0.108464	0.189161
H89	H	0.837049	-0.027088	0.571380
H90	H	0.264438	0.021299	0.094727
O91	O	0.918723	-0.007260	0.824806
H92	H	0.951572	-0.047070	0.784162
O93	O	0.468726	0.114380	-0.141951
H94	H	0.476444	0.171857	-0.174691
H95	H	0.734841	0.215661	0.671467
H96	H	0.734851	0.215661	0.814428
O97	O	0.801613	0.270839	0.581761
H98	H	0.795271	0.324054	0.541117
H99	H	0.734793	0.215645	0.185377
O100	O	0.619315	0.117081	-0.141934
H101	H	0.581968	0.116422	-0.189390
O102	O	0.172412	0.109125	-0.141981
H103	H	0.135066	0.108474	-0.189438
H104	H	0.803983	0.250613	0.428389
O105	O	0.406855	0.010811	0.108559
H106	H	0.400262	-0.056880	0.100825
O107	O	0.468588	0.114798	0.141747
H108	H	0.412114	0.113931	0.130277
