data_functionalizedCrystal
_audit_creation_method	'MofGen! by Chris Wilmer'
_symmetry_space_group_name_H-M	'P1'
_symmetry_Int_Tables_number	1
_symmetry_cell_setting	triclinic
loop_
_symmetry_equiv_pos_as_xyz
  x,y,z
_cell_length_a	10.654556
_cell_length_b	10.654551
_cell_length_c	9.730223
_cell_angle_alpha	90.001469
_cell_angle_beta	89.999363
_cell_angle_gamma	84.486385
loop_
_atom_site_label
_atom_site_type_symbol
_atom_site_fract_x
_atom_site_fract_y
_atom_site_fract_z
O1	O	1.667830	0.176430	-0.114294
O2	O	1.302353	0.193228	-0.114293
O3	O	1.493494	0.002090	-0.114295
O4	O	1.476689	0.367568	-0.114293
O5	O	1.493492	0.002095	0.114285
O6	O	1.302351	0.193233	0.114287
O7	O	1.667828	0.176435	0.114286
Zn8	Zn	1.485089	0.184834	0.150578
Zn9	Zn	1.485092	0.184828	-0.150586
O10	O	1.476687	0.367573	0.114287
C11	C	1.255554	0.191995	-0.000003
C12	C	1.116111	0.188300	-0.000003
C13	C	0.919582	0.183098	-0.124613
C14	C	1.050604	0.186562	-0.124607
C15	C	1.050590	0.186561	0.124603
C16	C	0.919571	0.183087	0.124596
C17	C	0.919590	0.183104	-0.268493
C18	C	1.050613	0.186569	-0.268487
C19	C	1.492259	-0.044706	-0.000008
C20	C	1.488566	-0.184149	-0.000017
C21	C	1.486835	-0.249664	-0.124613
C22	C	1.483355	-0.380684	-0.124607
C23	C	1.483342	-0.380664	0.124603
C24	C	1.486813	-0.249645	0.124596
C25	C	1.486848	-0.249677	-0.268493
C26	C	1.483368	-0.380697	-0.268487
C27	C	1.714627	0.177667	-0.000008
C28	C	1.854070	0.181362	-0.000017
C29	C	1.477922	0.414368	-0.000003
C30	C	1.481615	0.553811	-0.000003
N31	N	1.485096	0.184838	0.356114
N32	N	1.485094	0.184815	-0.356122
C33	C	1.569755	0.100231	0.428040
C34	C	1.569752	0.100216	0.571923
C35	C	1.400426	0.269426	0.571942
C36	C	1.400424	0.269434	0.428062
C37	C	1.667518	0.002543	0.428030
C38	C	1.667515	0.002527	0.571913
H39	H	0.866239	0.181648	0.226054
H40	H	1.103937	0.187965	0.226058
C41	C	1.790698	0.043853	0.367733
H42	H	1.845557	0.062238	0.440445
H43	H	1.772187	0.116985	0.312786
H44	H	1.830358	-0.022196	0.312782
H45	H	1.331478	0.338316	0.369501
H46	H	1.764026	0.024048	0.610963
H47	H	1.488216	-0.196307	0.226054
H48	H	0.894767	0.094429	-0.323742
H49	H	1.331488	0.338300	0.630537
C50	C	1.626318	-0.120709	0.632195
H51	H	1.607979	-0.175582	0.559478
H52	H	1.553179	-0.102268	0.687153
H53	H	1.692401	-0.160318	0.687133
H54	H	0.867886	0.272547	-0.313137
C55	C	1.369606	-0.187150	-0.343116
H56	H	1.319024	-0.250344	-0.373789
H57	H	1.395284	-0.140746	-0.419822
H58	H	1.322164	-0.131797	-0.281753
C59	C	1.120473	0.065745	-0.328808
H60	H	1.060919	0.009544	-0.355683
H61	H	1.175474	0.026440	-0.261360
H62	H	1.168112	0.086715	-0.406615
C63	C	1.359635	-0.420655	-0.328808
H64	H	1.306945	-0.347787	-0.355683
H65	H	1.317676	-0.465719	-0.261359
H66	H	1.377956	-0.473100	-0.406614
C67	C	1.084172	0.306363	-0.343094
H68	H	1.009062	0.353285	-0.373768
H69	H	1.136542	0.283306	-0.419798
H70	H	1.127600	0.356415	-0.281721
H71	H	1.481913	-0.434007	0.226058
H72	H	1.646075	-0.093990	0.388976
H73	H	1.578447	-0.220109	-0.313135
C74	C	1.600613	-0.443241	-0.343102
H75	H	1.651200	-0.380055	-0.373779
H76	H	1.574934	-0.489651	-0.419805
H77	H	1.648049	-0.498591	-0.281736
