data_functionalizedCrystal
_audit_creation_method	'MofGen! by Chris Wilmer'
_symmetry_space_group_name_H-M	'P1'
_symmetry_Int_Tables_number	1
_symmetry_cell_setting	triclinic
loop_
_symmetry_equiv_pos_as_xyz
  x,y,z
_cell_length_a	17.077404
_cell_length_b	17.637651
_cell_length_c	17.077396
_cell_angle_alpha	78.755281
_cell_angle_beta	89.981638
_cell_angle_gamma	101.217007
loop_
_atom_site_label
_atom_site_type_symbol
_atom_site_fract_x
_atom_site_fract_y
_atom_site_fract_z
Zn1	Zn	1.136902	-0.314803	-0.380553
Zn2	Zn	1.110284	-0.447024	-0.222715
Zn3	Zn	1.005629	-0.314826	-0.249299
Zn4	Zn	0.979087	-0.446972	-0.353952
O5	O	1.057976	-0.380907	-0.301630
O6	O	1.243215	-0.332355	-0.359623
O7	O	1.096370	-0.429519	-0.116388
O8	O	1.045290	-0.204184	-0.288969
O9	O	1.223659	-0.429497	-0.243660
O10	O	1.141736	-0.204168	-0.385401
O11	O	1.019480	-0.332394	-0.135920
O12	O	0.892264	-0.332343	-0.263175
O13	O	1.000053	-0.429409	-0.467334
O14	O	0.872764	-0.429430	-0.340062
O15	O	1.115999	-0.332305	-0.486878
O16	O	1.070633	-0.557656	-0.217866
O17	O	0.974243	-0.557618	-0.314285
C18	C	0.854032	-0.380884	-0.301617
C19	C	0.766780	-0.380894	-0.301626
C20	C	0.735956	-0.330402	-0.362067
C21	C	0.653974	-0.330407	-0.362069
C22	C	0.602818	-0.380908	-0.301634
C23	C	0.633648	-0.431403	-0.241187
C24	C	0.715629	-0.431393	-0.241182
C25	C	0.462774	-0.431421	-0.241203
C26	C	0.380788	-0.431431	-0.241209
C27	C	0.401120	-0.330434	-0.362090
C28	C	0.483101	-0.330425	-0.362085
C29	C	0.513925	-0.380920	-0.301639
C30	C	1.016691	-0.586324	-0.260321
C31	C	0.999101	-0.674203	-0.242675
C32	C	1.192115	-0.962887	-0.435932
C33	C	1.175561	-1.045463	-0.419337
C34	C	1.075199	-1.045587	-0.318826
C35	C	1.091747	-0.963010	-0.335409
C36	C	1.150205	-0.921667	-0.393964
C37	C	1.049837	-0.921790	-0.293441
C38	C	1.066381	-0.839220	-0.310027
C39	C	1.124834	-0.797871	-0.368580
C40	C	1.166749	-0.839097	-0.410549
C41	C	0.991376	-0.963135	-0.234891
C42	C	0.949466	-0.921914	-0.192923
C43	C	0.966013	-0.839343	-0.209504
C44	C	1.024467	-0.797993	-0.268058
C45	C	0.924099	-0.798116	-0.167535
C46	C	0.940643	-0.715547	-0.184120
C47	C	1.041011	-0.715424	-0.284643
C48	C	1.262715	-0.380930	-0.301643
C49	C	1.349963	-0.380939	-0.301649
C50	C	1.058035	-0.380848	-0.506386
C51	C	1.058060	-0.380823	-0.593641
C52	C	1.099443	-0.174687	-0.343118
C53	C	1.117114	-0.086808	-0.360797
C54	C	1.118436	-0.330257	-0.644810
C55	C	1.118450	-0.330231	-0.726796
C56	C	1.058092	-0.380775	-0.757610
C57	C	0.997710	-0.431344	-0.706435
C58	C	0.997693	-0.431366	-0.624452
C59	C	0.997751	-0.431296	-0.877315
C60	C	0.997769	-0.431276	-0.959304
C61	C	1.118509	-0.330162	-0.979659
C62	C	1.118491	-0.330183	-0.897675
C63	C	1.058110	-0.380753	-0.846506
C64	C	1.057973	-0.380908	-0.097682
C65	C	1.058145	-0.380710	-0.010472
H66	H	0.740724	-0.472508	-0.191965
H67	H	0.339137	-0.472555	-0.191997
H68	H	0.487868	-0.472537	-0.191980
H69	H	0.948619	-0.472432	-0.984390
O70	O	1.248995	-0.922687	-0.492706
C71	C	1.373636	-0.829352	-0.522109
C72	C	1.309293	-0.874841	-0.457734
H73	H	1.422394	-0.790645	-0.493863
H74	H	1.400816	-0.872963	-0.549247
H75	H	1.345295	-0.790729	-0.570897
H76	H	1.337573	-0.913465	-0.408899
H77	H	1.282118	-0.831188	-0.430660
O78	O	0.892629	-0.962166	-0.136135
C79	C	0.767938	-1.055425	-0.106739
C80	C	0.832254	-1.009906	-0.171129
H81	H	0.719101	-1.094021	-0.135010
H82	H	0.796206	-1.094139	-0.057967
H83	H	0.740867	-1.011764	-0.079575
H84	H	0.859349	-1.053510	-0.198355
H85	H	0.803944	-0.971180	-0.219851
O86	O	1.177109	-0.281218	-0.776571
C87	C	1.285263	-0.270559	-0.871271
C88	C	1.218854	-0.326160	-0.814941
H89	H	1.319043	-0.306873	-0.902296
H90	H	1.257575	-0.229219	-0.918009
H91	H	1.328372	-0.234416	-0.835161
H92	H	1.175723	-0.362354	-0.850985
H93	H	1.246597	-0.367449	-0.768202
H94	H	0.628881	-0.289292	-0.411287
O95	O	0.583904	-0.480544	-0.182575
C96	C	0.469875	-0.587255	-0.150391
C97	C	0.526161	-0.531661	-0.216845
H98	H	0.423165	-0.628586	-0.178075
H99	H	0.505943	-0.623400	-0.107191
H100	H	0.438815	-0.550892	-0.116707
H101	H	0.557234	-0.567964	-0.250589
H102	H	0.490051	-0.495514	-0.259990
O103	O	0.867363	-0.838404	-0.110662
C104	C	0.797353	-0.965664	-0.040605
C105	C	0.861641	-0.920138	-0.105021
H106	H	0.792695	-1.031753	-0.036036
H107	H	0.814411	-0.949524	0.019455
H108	H	0.737316	-0.949408	-0.057588
H109	H	0.921702	-0.936369	-0.088114
H110	H	0.844515	-0.936282	-0.165064
O111	O	0.939068	-0.480507	-0.827711
C112	C	0.819315	-0.580798	-0.816168
C113	C	0.885723	-0.525111	-0.872433
H114	H	0.776159	-0.616863	-0.852306
H115	H	0.847005	-0.622199	-0.769496
H116	H	0.785588	-0.544511	-0.785050
H117	H	0.919474	-0.561335	-0.903606
H118	H	0.857985	-0.483708	-0.919056
H119	H	0.948523	-0.472534	-0.582792
O120	O	1.141051	-0.717662	-0.384690
C121	C	1.240056	-0.599136	-0.388358
C122	C	1.221805	-0.689971	-0.370103
H123	H	1.305340	-0.576720	-0.376555
H124	H	1.228288	-0.576650	-0.453652
H125	H	1.200025	-0.576792	-0.348325
H126	H	1.261823	-0.712382	-0.410084
H127	H	1.233549	-0.712404	-0.304792
O128	O	0.785739	-0.281305	-0.420675
C129	C	0.899707	-0.174529	-0.452874
C130	C	0.843401	-0.230097	-0.386420
H131	H	0.946331	-0.133102	-0.425206
H132	H	0.930865	-0.210831	-0.486546
H133	H	0.863567	-0.138478	-0.496081
H134	H	0.879483	-0.266159	-0.343160
H135	H	0.812241	-0.193749	-0.352809
O136	O	0.899882	-0.675622	-0.143259
C137	C	0.798542	-0.684450	-0.041849
C138	C	0.844665	-0.729763	-0.088046
H139	H	0.753877	-0.728204	0.002789
H140	H	0.842305	-0.645813	-0.008546
H141	H	0.765261	-0.645779	-0.085639
H142	H	0.877949	-0.768477	-0.044311
H143	H	0.800863	-0.768351	-0.121362
H144	H	1.167588	-0.289100	-0.619727
O145	O	1.097705	-0.675288	-0.341629
C146	C	1.140833	-0.649940	-0.480277
C147	C	1.076567	-0.695431	-0.415826
H148	H	1.123774	-0.666222	-0.540277
H149	H	1.145448	-0.583837	-0.484988
H150	H	1.200892	-0.666126	-0.463261
H151	H	1.016473	-0.679312	-0.432794
H152	H	1.072022	-0.761524	-0.411127
H153	H	1.214357	-0.805433	-0.458224
H154	H	1.209682	-1.079021	-0.453528
H155	H	1.027601	-1.079260	-0.271152
H156	H	0.977901	-1.030368	-0.221397
H157	H	0.948563	-0.472495	-0.731531
H158	H	1.167672	-0.288985	-1.021325
O159	O	1.177017	-0.281033	-0.867673
C160	C	1.208998	-0.174262	-0.796656
C161	C	1.142642	-0.229899	-0.830570
H162	H	1.181232	-0.132895	-0.766665
H163	H	1.242743	-0.210514	-0.750927
H164	H	1.252155	-0.138151	-0.847326
H165	H	1.099432	-0.266022	-0.779954
H166	H	1.108958	-0.193602	-0.876320
O167	O	0.532689	-0.281294	-0.420831
C168	C	0.544203	-0.181149	-0.540753
C169	C	0.487958	-0.236739	-0.474264
H170	H	0.508058	-0.145124	-0.583980
H171	H	0.590871	-0.139707	-0.513147
H172	H	0.575320	-0.217510	-0.574388
H173	H	0.456786	-0.200441	-0.440605
H174	H	0.441339	-0.278183	-0.501919
H175	H	0.376020	-0.289317	-0.411306
