data_functionalizedCrystal
_audit_creation_method	'MofGen! by Chris Wilmer'
_symmetry_space_group_name_H-M	'P1'
_symmetry_Int_Tables_number	1
_symmetry_cell_setting	triclinic
loop_
_symmetry_equiv_pos_as_xyz
  x,y,z
_cell_length_a	18.215405
_cell_length_b	18.215407
_cell_length_c	18.215399
_cell_angle_alpha	89.979405
_cell_angle_beta	90.026474
_cell_angle_gamma	89.978057
loop_
_atom_site_label
_atom_site_type_symbol
_atom_site_fract_x
_atom_site_fract_y
_atom_site_fract_z
Zn1	Zn	-0.292993	-1.125087	0.416138
Zn2	Zn	-0.416065	-1.125001	0.293075
Zn3	Zn	-0.293016	-1.002019	0.293084
Zn4	Zn	-0.416023	-1.001991	0.416099
O5	O	-0.354524	-1.063525	0.354599
O6	O	-0.309327	-1.228060	0.399827
O7	O	-0.399769	-1.108663	0.190092
O8	O	-0.190029	-1.018392	0.309428
O9	O	-0.399747	-1.227997	0.309413
O10	O	-0.190012	-1.108809	0.399835
O11	O	-0.309366	-1.018309	0.190099
O12	O	-0.309325	-0.899031	0.309389
O13	O	-0.399675	-1.018344	0.519088
O14	O	-0.399697	-0.899011	0.399767
O15	O	-0.309286	-1.108782	0.519117
O16	O	-0.519043	-1.108636	0.309374
O17	O	-0.519012	-1.018261	0.399759
C18	C	-0.354510	-0.872318	0.354575
C19	C	-0.354521	-0.790519	0.354583
C20	C	-0.401650	-0.602334	0.401581
C21	C	-0.401652	-0.525475	0.401589
C22	C	-0.307402	-0.525467	0.307620
C23	C	-0.307397	-0.602324	0.307616
C24	C	-0.354526	-0.640756	0.354595
C25	C	-0.354532	-0.487040	0.354608
C26	C	-0.354533	-0.403706	0.354616
C27	C	-0.354524	-0.724095	0.354588
C28	C	-0.545730	-1.063456	0.354577
C29	C	-0.627529	-1.063495	0.354593
C30	C	-0.892520	-1.110619	0.401740
C31	C	-0.815662	-1.110594	0.401728
C32	C	-0.815787	-1.016525	0.307501
C33	C	-0.892644	-1.016553	0.307509
C34	C	-0.931009	-1.063599	0.354633
C35	C	-0.777293	-1.063546	0.354613
C36	C	-0.693959	-1.063519	0.354601
C37	C	-1.014348	-1.063628	0.354644
C38	C	-0.162571	-1.063613	0.354637
C39	C	-0.080772	-1.063651	0.354653
C40	C	-0.354473	-1.063569	0.546552
C41	C	-0.354452	-1.063588	0.628351
C42	C	-0.354537	-0.255477	0.354620
C43	C	-0.354536	-0.337276	0.354620
C44	C	-0.354522	-1.063522	0.163393
C45	C	-0.354336	-1.063646	0.081594
C46	C	-0.307342	-1.110696	0.816561
C47	C	-0.307321	-1.110705	0.893420
C48	C	-0.401448	-1.016533	0.893379
C49	C	-0.401465	-1.016521	0.816521
C50	C	-0.354413	-1.063607	0.778115
C51	C	-0.354375	-1.063627	0.931831
C52	C	-0.354352	-1.063637	1.015164
C53	C	-0.354435	-1.063597	0.694776
H54	H	-0.440024	-0.633623	0.439837
H55	H	-0.268990	-1.149049	0.924720
O56	O	-0.256589	-1.161477	0.775140
H57	H	-0.289537	-1.198906	0.740131
H58	H	-0.439757	-0.978199	0.924658
O59	O	-0.934165	-0.965836	0.256700
H60	H	-0.894577	-0.933109	0.223939
H61	H	-0.439795	-0.978170	0.785217
O62	O	-0.774146	-1.161308	0.452535
H63	H	-0.739130	-1.198761	0.419624
O64	O	-0.256568	-0.643776	0.256938
H65	H	-0.289462	-0.678772	0.219446
H66	H	-0.440025	-0.494196	0.439851
O67	O	-0.256596	-0.484017	0.256926
H68	H	-0.264528	-0.424118	0.264809
O69	O	-0.774409	-0.965781	0.256678
H70	H	-0.739408	-0.928298	0.289574
O71	O	-0.933904	-1.161365	0.452556
H72	H	-0.894224	-1.194061	0.485305
