data_functionalizedCrystal
_audit_creation_method	'MofGen! by Chris Wilmer'
_symmetry_space_group_name_H-M	'P1'
_symmetry_Int_Tables_number	1
_symmetry_cell_setting	triclinic
loop_
_symmetry_equiv_pos_as_xyz
  x,y,z
_cell_length_a	19.188930
_cell_length_b	19.288864
_cell_length_c	17.766277
_cell_angle_alpha	90.023209
_cell_angle_beta	89.988508
_cell_angle_gamma	96.859488
loop_
_atom_site_label
_atom_site_type_symbol
_atom_site_fract_x
_atom_site_fract_y
_atom_site_fract_z
O1	O	0.087099	-0.921360	-0.062844
O2	O	0.587099	-0.421360	0.437156
O3	O	0.098849	-0.719100	-0.062794
O4	O	0.598849	-0.219100	0.437206
O5	O	-0.008682	-0.826066	-0.062806
O6	O	0.491318	-0.326066	0.437194
O7	O	0.194630	-0.814393	-0.062832
O8	O	0.694630	-0.314393	0.437168
O9	O	-0.008688	-0.826048	0.062383
O10	O	0.491312	-0.326048	0.562383
O11	O	0.098843	-0.719081	0.062395
O12	O	0.598843	-0.219081	0.562395
O13	O	0.087094	-0.921341	0.062345
O14	O	0.587094	-0.421341	0.562345
Cu15	Cu	0.092968	-0.820209	0.073800
Cu16	Cu	0.592968	-0.320209	0.573800
Cu17	Cu	0.092974	-0.820231	-0.074250
Cu18	Cu	0.592974	-0.320231	0.425750
O19	O	0.194625	-0.814374	0.062356
O20	O	0.694625	-0.314374	0.562356
C21	C	0.098468	-0.693214	-0.000193
C22	C	0.598468	-0.193214	0.499807
C23	C	0.097333	-0.616110	-0.000173
C24	C	0.597333	-0.116110	0.499827
C25	C	-0.034696	-0.825679	-0.000209
C26	C	0.465304	-0.325679	0.499791
C27	C	-0.112200	-0.824544	-0.000202
C28	C	0.387800	-0.324544	0.499798
C29	C	0.087475	-0.947227	-0.000258
C30	C	0.587475	-0.447227	0.499742
C31	C	0.088609	-1.024330	-0.000283
C32	C	0.588609	-0.524330	0.499717
C33	C	-0.157129	-0.887309	-0.000214
C34	C	0.342871	-0.387309	0.499786
C35	C	-0.229953	-0.886243	-0.000226
C36	C	0.270047	-0.386243	0.499774
C37	C	-0.257844	-0.822408	-0.000211
C38	C	0.242156	-0.322408	0.499789
C39	C	-0.212906	-0.759636	-0.000203
C40	C	0.287094	-0.259636	0.499797
C41	C	-0.140084	-0.760704	-0.000199
C42	C	0.359916	-0.260704	0.499801
N43	N	-0.365848	-0.773608	0.042405
N44	N	0.134152	-0.273608	0.542405
N45	N	-0.435026	-0.772598	0.042403
N46	N	0.064974	-0.272598	0.542403
C47	C	-0.477253	-0.819187	-0.000225
C48	C	0.022747	-0.319187	0.499775
N49	N	-0.447689	-0.866835	-0.042841
N50	N	0.052311	-0.366835	0.457159
N51	N	-0.378504	-0.867847	-0.042836
N52	N	0.121496	-0.367847	0.457164
C53	C	-0.336807	-0.821243	-0.000216
C54	C	0.163193	-0.321243	0.499784
C55	C	-0.601146	-0.880800	-0.000251
C56	C	-0.101146	-0.380800	0.499749
C57	C	-0.673971	-0.879731	-0.000268
C58	C	-0.173971	-0.379731	0.499732
C59	C	-0.656922	-0.753122	-0.000237
C60	C	-0.156922	-0.253122	0.499763
C61	C	-0.584099	-0.754193	-0.000228
C62	C	-0.084099	-0.254193	0.499772
C63	C	-0.556216	-0.818034	-0.000231
C64	C	-0.056216	-0.318034	0.499769
C65	C	0.220638	-0.814762	-0.000242
C66	C	0.720638	-0.314762	0.499758
C67	C	0.298143	-0.815896	-0.000253
C68	C	0.798143	-0.315896	0.499747
N69	N	0.092963	-0.820199	0.177931
N70	N	0.592963	-0.320199	0.677931
C71	C	0.160427	-0.571419	-0.000193
C72	C	0.660427	-0.071419	0.499807
C73	C	0.159361	-0.498972	-0.000201
C74	C	0.659361	0.001028	0.499799
C75	C	0.095197	-0.471219	-0.000204
C76	C	0.595197	0.028781	0.499796
C77	C	0.032095	-0.515921	-0.000180
C78	C	0.532095	-0.015921	0.499820
C79	C	0.033163	-0.588366	-0.000164
C80	C	0.533163	-0.088366	0.499836
C81	C	0.044759	-0.362960	-0.044082
C82	C	0.544759	0.137040	0.455918
C83	C	0.043694	-0.290515	-0.044103
C84	C	0.543694	0.209485	0.455897
C85	C	0.091900	-0.247773	-0.000249
C86	C	0.591900	0.252227	0.499751
C87	C	0.141184	-0.277483	0.043614
C88	C	0.641184	0.222517	0.543614
C89	C	0.142252	-0.349929	0.043630
C90	C	0.642252	0.150071	0.543630
C91	C	0.094032	-0.392665	-0.000221
C92	C	0.594032	0.107335	0.499779
C93	C	0.153843	-0.124526	-0.000277
C94	C	0.653843	0.375474	0.499723
C95	C	0.152774	-0.052078	-0.000281
C96	C	0.652774	0.447922	0.499719
C97	C	0.025506	-0.069028	-0.000267
C98	C	0.525506	0.430972	0.499733
C99	C	0.026576	-0.141475	-0.000256
C100	C	0.526576	0.358525	0.499744
C101	C	0.090747	-0.169219	-0.000265
C102	C	0.590747	0.330781	0.499735
N103	N	0.092974	-0.820247	-0.178380
N104	N	0.592974	-0.320247	0.321620
C105	C	0.045372	-0.867579	0.217312
C106	C	0.545372	-0.367579	0.717312
C107	C	0.045368	-0.867583	0.296114
C108	C	0.545368	-0.367583	0.796114
C109	C	0.092969	-0.820213	0.335531
C110	C	0.592969	-0.320213	0.835531
C111	C	0.140564	-0.772824	0.296140
C112	C	0.640564	-0.272824	0.796140
C113	C	0.140561	-0.772817	0.217340
C114	C	0.640561	-0.272817	0.717340
C115	C	0.156585	-0.810919	0.460362
C116	C	0.656585	-0.310919	0.960362
C117	C	0.156589	-0.810931	0.539161
C118	C	0.656589	-0.310931	1.039161
C119	C	0.092977	-0.820232	0.578578
C120	C	0.592977	-0.320232	1.078578
C121	C	0.029359	-0.829535	0.539185
C122	C	0.529359	-0.329535	1.039185
C123	C	0.029356	-0.829528	0.460385
C124	C	0.529356	-0.329528	0.960385
C125	C	0.092977	-0.820216	0.420977
C126	C	0.592977	-0.320216	0.920977
C127	C	0.045378	-0.867619	0.703405
C128	C	0.545378	-0.367619	1.203405
C129	C	0.045374	-0.867618	0.782208
C130	C	0.545374	-0.367618	1.282208
C131	C	0.140575	-0.772863	0.782233
C132	C	0.640575	-0.272863	1.282233
C133	C	0.140573	-0.772861	0.703431
C134	C	0.640573	-0.272861	1.203431
C135	C	0.092976	-0.820242	0.664022
C136	C	0.592976	-0.320242	1.164022
H137	H	-0.266541	-0.937355	-0.000239
H138	H	0.233459	-0.437355	0.499761
H139	H	0.180439	-0.242684	0.079324
H140	H	0.680439	0.257316	0.579324
N141	N	-0.009463	-0.258477	-0.091407
N142	N	0.490537	0.241523	0.408593
H143	H	-0.002823	-0.206097	-0.084767
H144	H	0.497177	0.293903	0.415233
H145	H	-0.002752	-0.270303	-0.146112
H146	H	0.497248	0.229697	0.353888
H147	H	-0.022440	-0.837108	0.571277
H148	H	0.477560	-0.337108	1.071277
N149	N	-0.686997	-0.684272	-0.000208
N150	N	-0.186997	-0.184272	0.499792
H151	H	-0.647481	-0.644672	-0.000194
H152	H	-0.147481	-0.144672	0.499806
H153	H	-0.716831	-0.681073	-0.046616
H154	H	-0.216831	-0.181073	0.453384
N155	N	-0.242984	-0.690785	-0.000190
N156	N	0.257016	-0.190785	0.499810
H157	H	-0.295934	-0.699632	-0.000193
H158	H	0.204066	-0.199632	0.499807
H159	H	-0.226542	-0.663320	0.046224
H160	H	0.273458	-0.163320	0.546224
H161	H	0.206094	-0.147116	-0.000273
H162	H	0.706094	0.352884	0.499727
H163	H	0.005502	-0.397756	-0.079797
H164	H	0.505502	0.102244	0.420203
N165	N	-0.005955	-0.918733	0.824682
N166	N	0.494045	-0.418733	1.324682
H167	H	-0.036812	-0.892302	0.857398
H168	H	0.463188	-0.392302	1.357398
H169	H	-0.036052	-0.948732	0.787702
H170	H	0.463948	-0.448732	1.287702
H171	H	-0.578442	-0.932783	-0.000257
H172	H	-0.078442	-0.432783	0.499743
H173	H	-0.020148	-0.493320	-0.000193
H174	H	0.479852	0.006680	0.499807
N175	N	0.227416	-0.450759	-0.000235
N176	N	0.727416	0.049241	0.499765
H177	H	0.217001	-0.400655	-0.000246
H178	H	0.717001	0.099345	0.499754
H179	H	0.255396	-0.459690	0.046169
H180	H	0.755396	0.040310	0.546169
H181	H	-0.103502	-0.709591	-0.000189
H182	H	0.396498	-0.209591	0.499811
H183	H	0.204155	-0.015690	-0.000293
H184	H	0.704155	0.484310	0.499707
N185	N	0.229638	-0.601340	-0.000185
N186	N	0.729638	-0.101340	0.499815
H187	H	0.220743	-0.654016	-0.000170
H188	H	0.720743	-0.154016	0.499830
H189	H	0.257242	-0.585004	-0.046599
H190	H	0.757242	-0.085004	0.453401
H191	H	-0.710552	-0.930844	-0.000281
H192	H	-0.210552	-0.430844	0.499719
H193	H	0.179319	-0.734254	0.328238
H194	H	0.679319	-0.234254	0.828238
N195	N	-0.535635	-0.686496	-0.000211
N196	N	-0.035635	-0.186496	0.499789
H197	H	-0.564352	-0.645895	-0.000202
H198	H	-0.064352	-0.145895	0.499798
H199	H	-0.505059	-0.684175	0.046201
H200	H	-0.005059	-0.184175	0.546201
N201	N	0.195401	-0.381975	0.090939
N202	N	0.695401	0.118025	0.590939
H203	H	0.225780	-0.343911	0.118719
H204	H	0.725780	0.156089	0.618719
H205	H	0.170145	-0.415434	0.128408
H206	H	0.670145	0.084566	0.628408
N207	N	-0.043702	-0.039107	-0.000262
N208	N	0.456298	0.460893	0.499738
H209	H	-0.034806	0.013570	-0.000273
H210	H	0.465194	0.513570	0.499727
H211	H	-0.071302	-0.055494	-0.046665
H212	H	0.428698	0.444506	0.453335
N213	N	-0.005980	-0.918708	0.660908
N214	N	0.494020	-0.418708	1.160908
H215	H	-0.036825	-0.892251	0.628242
H216	H	0.463175	-0.392251	1.128242
H217	H	0.020653	-0.949376	0.628230
H218	H	0.520653	-0.449376	1.128230
H219	H	0.006612	-0.906167	0.328185
H220	H	0.506612	-0.406167	0.828185
H221	H	-0.024802	-0.177864	-0.000244
H222	H	0.475198	0.322136	0.499756
N223	N	0.191912	-0.721765	0.824735
N224	N	0.691912	-0.221765	1.324735
H225	H	0.184691	-0.728957	0.880632
H226	H	0.684691	-0.228957	1.380632
H227	H	0.241424	-0.729632	0.810946
H228	H	0.741424	-0.229632	1.310946
N229	N	-0.034892	-0.636575	-0.000139
N230	N	0.465108	-0.136575	0.499861
H231	H	-0.075703	-0.608004	-0.000139
H232	H	0.424297	-0.108004	0.499861
H233	H	-0.037220	-0.667027	-0.046542
H234	H	0.462780	-0.167027	0.453458
N235	N	-0.005966	-0.918679	0.174807
N236	N	0.494034	-0.418679	0.674807
H237	H	-0.036116	-0.948694	0.211717
H238	H	0.463884	-0.448694	0.711717
H239	H	-0.036768	-0.892182	0.142137
H240	H	0.463232	-0.392182	0.642137
N241	N	0.191904	-0.721757	0.660949
N242	N	0.691904	-0.221757	1.160949
H243	H	0.222058	-0.691747	0.697875
H244	H	0.722058	-0.191747	1.197875
H245	H	0.222703	-0.748246	0.628230
H246	H	0.722703	-0.248246	1.128230
N247	N	-0.039254	-0.839559	0.417896
N248	N	0.460746	-0.339559	0.917896
H249	H	-0.079555	-0.845453	0.454818
H250	H	0.420445	-0.345453	0.954818
H251	H	-0.043222	-0.797373	0.385227
H252	H	0.456778	-0.297373	0.885227
H253	H	0.179316	-0.734234	0.185275
H254	H	0.679316	-0.234234	0.685275
H255	H	0.208389	-0.803334	0.428276
H256	H	0.708389	-0.303334	0.928276
N257	N	-0.127054	-0.956162	-0.000220
N258	N	0.372946	-0.456162	0.499780
H259	H	-0.166571	-0.995762	-0.000229
H260	H	0.333429	-0.495762	0.499771
H261	H	-0.097202	-0.959373	-0.046628
H262	H	0.402798	-0.459373	0.453372
N263	N	0.225201	-0.800892	0.581645
N264	N	0.725201	-0.300892	1.081645
H265	H	0.254221	-0.839403	0.567901
H266	H	0.754221	-0.339403	1.067901
H267	H	0.251745	-0.754215	0.567931
H268	H	0.751745	-0.254215	1.067931
