data_functionalizedCrystal
_audit_creation_method	'MofGen! by Chris Wilmer'
_symmetry_space_group_name_H-M	'P1'
_symmetry_Int_Tables_number	1
_symmetry_cell_setting	triclinic
loop_
_symmetry_equiv_pos_as_xyz
  x,y,z
_cell_length_a	23.096457
_cell_length_b	14.809374
_cell_length_c	23.096457
_cell_angle_alpha	52.847422
_cell_angle_beta	60.000612
_cell_angle_gamma	89.998510
loop_
_atom_site_label
_atom_site_type_symbol
_atom_site_fract_x
_atom_site_fract_y
_atom_site_fract_z
Zr1	Zr	0.548255	-0.135016	0.652798
O2	O	0.444222	-0.299262	0.796760
O3	O	0.580145	-0.084668	0.524907
O4	O	0.565008	-0.299273	0.675976
O5	O	0.471303	0.084631	0.621804
O6	O	0.660287	-0.299279	0.675978
O7	O	0.459360	-0.084657	0.645691
O8	O	0.687365	0.084611	0.405744
O9	O	0.444225	-0.299259	0.892038
O10	O	0.664854	-0.063197	0.571560
O11	O	0.602661	0.063145	0.553732
O12	O	0.584839	-0.189525	0.731596
O13	O	0.522645	-0.063184	0.713768
Zr14	Zr	0.719264	0.134968	0.614705
Zr15	Zr	0.700216	-0.135026	0.652802
Zr16	Zr	0.567303	0.134978	0.614702
Zr17	Zr	0.548259	-0.135012	0.804757
Zr18	Zr	0.719259	0.134964	0.462747
O19	O	0.687374	0.084620	0.742597
O20	O	0.660291	-0.299276	0.796765
O21	O	0.471306	0.084634	0.742591
O22	O	0.823296	0.299214	0.470744
O23	O	0.796213	-0.084682	0.524913
O24	O	0.607228	0.299228	0.470738
O25	O	0.796216	-0.084678	0.645700
O26	O	0.702511	0.299225	0.591528
O27	O	0.607231	0.299232	0.591525
O28	O	0.808159	0.084609	0.621813
O29	O	0.565013	-0.299267	0.892042
O30	O	0.702506	0.299219	0.375462
O31	O	0.823294	0.299212	0.375465
O32	O	0.808153	0.084603	0.405747
O33	O	0.459365	-0.084651	0.861757
O34	O	0.580154	-0.084658	0.861760
O35	O	0.682680	0.189477	0.535908
O36	O	0.744874	0.063136	0.553736
O37	O	0.664858	-0.063193	0.713772
O38	O	0.602665	0.063149	0.695943
C39	C	0.443680	-0.000012	0.633747
C40	C	0.379169	-0.000007	0.633745
C41	C	0.633754	-0.000029	0.443674
C42	C	0.633753	-0.000031	0.379164
C43	C	0.657585	0.337697	0.586099
C44	C	0.665672	0.452316	0.569926
C45	C	0.390629	0.065923	0.550212
C46	C	0.330014	0.065928	0.550210
C47	C	0.257937	-0.000021	0.633749
C48	C	0.246479	-0.065954	0.717292
C49	C	0.307095	-0.065947	0.717290
N50	N	0.127571	-0.107352	0.704149
N51	N	0.069991	-0.107356	0.704146
C52	C	0.075303	-0.000043	0.633760
N53	N	0.140376	0.107272	0.563365
N54	N	0.197962	0.107274	0.563366
C55	C	0.192205	-0.000035	0.633760
C56	C	0.021041	0.065899	0.550218
C57	C	-0.039577	0.065908	0.550219
C58	C	-0.123113	-0.065987	0.717305
C59	C	-0.062495	-0.065984	0.717301
C60	C	0.009579	-0.000044	0.633755
C61	C	0.823839	-0.000036	0.633757
C62	C	0.888350	-0.000040	0.633758
C63	C	0.609934	-0.337745	0.681405
C64	C	0.601847	-0.452364	0.697578
C65	C	0.629584	0.440749	0.642104
C66	C	0.637940	0.559213	0.625390
C67	C	0.574702	-0.093282	-0.015710
C68	C	0.574696	-0.093281	0.044909
C69	C	0.633765	-0.000025	0.009573
C70	C	0.692835	0.093257	-0.086394
C71	C	0.692836	0.093261	-0.147011
N72	N	0.698004	0.028208	0.061692
N73	N	0.698000	0.028197	0.119280
C74	C	0.633765	-0.000029	0.192204
N75	N	0.569529	-0.028268	0.205376
N76	N	0.569533	-0.028262	0.147785
C77	C	0.633770	-0.000018	0.075294
C78	C	0.574689	-0.093299	0.353888
C79	C	0.574684	-0.093290	0.414505
C80	C	0.692828	0.093244	0.283200
C81	C	0.692829	0.093239	0.222586
C82	C	0.633759	-0.000038	0.257936
C83	C	0.633765	-0.000019	0.823829
C84	C	0.633766	-0.000017	0.888340
C85	C	0.823834	-0.000041	0.443679
C86	C	0.888343	-0.000047	0.379171
C87	C	0.657580	0.337692	0.396021
C88	C	0.665665	0.452309	0.315338
C89	C	0.847660	0.337679	0.396026
C90	C	0.920255	0.452292	0.315345
C91	C	0.419859	-0.337727	0.871477
C92	C	0.347264	-0.452340	0.952159
C93	C	0.443685	-0.000006	0.823824
C94	C	0.379176	-0.000000	0.888333
C95	C	0.609939	-0.337739	0.871482
C96	C	0.601854	-0.452357	0.952166
C97	C	0.876868	-0.066006	0.358182
C98	C	0.937473	-0.066037	0.297581
C99	C	1.009555	-0.000101	0.257965
C100	C	1.021029	0.065859	0.278958
C101	C	0.960424	0.065882	0.339564
C102	C	0.711231	0.572090	0.268142
C103	C	0.718826	0.679796	0.192339
C104	C	0.680857	0.667718	0.163728
C105	C	0.635285	0.547924	0.210931
C106	C	0.627687	0.440221	0.286738
C107	C	0.986818	0.440167	0.286762
C108	C	1.055034	0.547848	0.210962
C109	C	1.056687	0.667653	0.163743
C110	C	0.990117	0.679776	0.192332
C111	C	0.921902	0.572097	0.268134
C112	C	0.280701	-0.440215	0.980749
C113	C	0.212485	-0.547896	1.056567
C114	C	0.210832	-0.667701	1.103790
C115	C	0.277402	-0.679824	1.075197
C116	C	0.345617	-0.572144	0.999384
C117	C	0.390651	0.065947	0.909329
C118	C	0.330043	0.065948	0.969951
C119	C	0.257961	0.000008	1.009571
C120	C	0.246487	-0.065947	0.988573
C121	C	0.307093	-0.065955	0.927957
C122	C	0.639833	-0.440238	0.980752
C123	C	0.632251	-0.547923	1.056553
C124	C	0.586686	-0.667726	1.103771
C125	C	0.548707	-0.679842	1.075179
C126	C	0.556293	-0.572158	0.999375
H127	H	0.449311	0.119608	0.482184
H128	H	0.928116	-0.119749	0.280497
H129	H	0.187789	-0.119650	0.785310
C130	C	0.674032	-0.534567	1.087993
N131	N	0.705500	-0.524504	1.111672
C132	C	0.757817	0.195817	0.117036
N133	N	0.806771	0.273079	0.037533
C134	C	0.342619	0.138454	0.458314
N135	N	0.352115	0.193078	0.389099
H136	H	0.702751	0.549921	0.495758
C137	C	-0.202395	-0.138530	0.809199
N138	N	-0.262114	-0.193168	0.878415
H139	H	0.687050	0.755427	0.102000
H140	H	0.818179	-0.119714	0.390441
C141	C	0.985018	0.308391	0.338695
N142	N	0.983669	0.209140	0.377811
H143	H	0.339400	0.119661	0.987035
C144	C	0.578348	-0.786170	1.187158
N145	N	0.572069	-0.875378	1.249966
H146	H	1.058898	-0.000129	0.208617
C147	C	0.593527	0.534659	0.179443
N148	N	0.562080	0.524671	0.155720
H149	H	0.297757	-0.119633	0.785315
H150	H	1.109231	0.537955	0.187694
H151	H	0.208617	0.000025	1.058926
H152	H	0.526601	-0.169233	0.013081
C153	C	0.282501	-0.308439	0.928823
N154	N	0.283850	-0.209187	0.889720
H155	H	0.590584	0.342694	0.325157
H156	H	1.112237	0.755323	0.102021
H157	H	0.079729	0.119617	0.482187
C158	C	0.498616	-0.811637	1.127101
N159	N	0.460896	-0.910908	1.166203
H160	H	0.158288	-0.538001	1.079834
C161	C	-0.075106	-0.138533	0.809198
N162	N	-0.084607	-0.193182	0.878419
H163	H	0.991474	0.777336	0.153875
H164	H	1.079726	0.119541	0.246694
C165	C	0.509720	-0.195890	0.150470
N166	N	0.460782	-0.273177	0.229977
H167	H	0.187790	-0.119633	1.020840
C168	C	0.418833	-0.585504	0.967935
N169	N	0.473978	-0.595576	0.944250
H170	H	0.969778	0.119601	0.356642
H171	H	0.742152	0.581949	0.291427
H172	H	0.526591	-0.169249	0.382673
C173	C	0.688082	0.691071	0.525184
N174	N	0.725864	0.790387	0.449710
C175	C	0.768967	0.811557	0.140420
N176	N	0.806735	0.910796	0.101315
H177	H	0.867707	0.581987	0.291396
C178	C	0.579485	0.308892	0.742305
N179	N	0.541750	0.209576	0.817778
C180	C	0.275571	-0.811622	1.127145
N181	N	0.274190	-0.910896	1.166269
C182	C	0.551746	0.415779	0.797785
N183	N	0.514011	0.316465	0.873259
H184	H	0.525362	-0.582043	0.976110
H185	H	0.155282	-0.755371	1.165520
C186	C	0.757813	0.195835	-0.125261
N187	N	0.806757	0.273100	-0.154539
H188	H	0.449339	0.119651	0.877073
H189	H	0.297740	-0.119653	0.910865
H190	H	0.740935	0.169211	-0.225143
C191	C	0.757804	0.195830	0.244326
N192	N	0.806745	0.273103	0.215046
H193	H	-0.030238	0.119605	0.482193
C194	C	0.509705	-0.195895	0.520059
N195	N	0.460762	-0.273182	0.599565
H196	H	0.676936	-0.342699	0.942316
