data_functionalizedCrystal
_audit_creation_method	'MofGen! by Chris Wilmer'
_symmetry_space_group_name_H-M	'P1'
_symmetry_Int_Tables_number	1
_symmetry_cell_setting	triclinic
loop_
_symmetry_equiv_pos_as_xyz
  x,y,z
_cell_length_a	10.654556
_cell_length_b	9.130313
_cell_length_c	10.654550
_cell_angle_alpha	90.004369
_cell_angle_beta	84.486234
_cell_angle_gamma	90.001865
loop_
_atom_site_label
_atom_site_type_symbol
_atom_site_fract_x
_atom_site_fract_y
_atom_site_fract_z
O1	O	1.667835	0.121744	0.176437
O2	O	1.302357	0.121759	0.193235
O3	O	1.493499	0.121742	0.002097
O4	O	1.476693	0.121761	0.367575
O5	O	1.493486	-0.121857	0.002091
O6	O	1.302344	-0.121840	0.193229
O7	O	1.667822	-0.121855	0.176431
Cu8	Cu	1.485082	-0.144090	0.184830
Cu9	Cu	1.485097	0.143994	0.184836
O10	O	1.476680	-0.121838	0.367569
C11	C	1.255553	-0.000039	0.191997
C12	C	1.116110	-0.000033	0.188302
N13	N	1.485080	-0.346713	0.184824
C14	C	0.919572	0.132741	0.183102
C15	C	1.050594	0.132750	0.186566
C16	C	1.050598	-0.132835	0.186560
C17	C	0.919580	-0.132843	0.183087
C18	C	1.569746	-0.423372	0.100224
C19	C	1.569758	-0.576709	0.100225
C20	C	1.400433	-0.576714	0.269436
C21	C	1.400416	-0.423380	0.269428
C22	C	1.714626	-0.000054	0.177669
C23	C	1.854069	-0.000050	0.181364
C24	C	1.492258	-0.000057	-0.044704
C25	C	1.488567	-0.000055	-0.184147
N26	N	1.485109	0.346616	0.184832
C27	C	1.601108	-0.000059	-0.263630
C28	C	1.597631	-0.000041	-0.394651
C29	C	1.369063	-0.000021	-0.366693
C30	C	1.372540	-0.000028	-0.235675
C31	C	1.477920	-0.000036	0.414370
C32	C	1.481612	-0.000029	0.553813
H33	H	0.866237	0.240869	0.181698
H34	H	1.638700	-0.639121	0.031334
H35	H	1.103921	0.240882	0.187979
H36	H	0.866246	-0.240984	0.181670
H37	H	1.695584	-0.000077	-0.221681
O38	O	1.706921	0.000212	-0.471911
C39	C	1.711750	0.126365	-0.548537
H40	H	1.647952	0.214546	-0.501111
H41	H	1.812791	0.168703	-0.562376
H42	H	1.678413	0.097857	-0.644085
O43	O	1.114397	-0.261728	0.188081
C44	C	1.203443	-0.269694	0.081498
H45	H	1.227495	-0.154403	0.045819
H46	H	1.292590	-0.325885	0.108364
H47	H	1.162251	-0.335236	0.004128
H48	H	1.638683	-0.360954	0.031333
O49	O	1.318151	-0.651356	0.351449
C50	C	1.240085	-0.740053	0.283468
H51	H	1.289258	-0.763028	0.185657
H52	H	1.220687	-0.847875	0.335708
H53	H	1.147186	-0.680984	0.274066
O54	O	1.318121	-0.349130	0.351736
C55	C	1.243385	-0.449674	0.426398
H56	H	1.294895	-0.558967	0.428310
H57	H	1.225085	-0.405350	0.526514
H58	H	1.149743	-0.466007	0.384744
H59	H	1.280890	-0.000021	-0.170956
O60	O	1.256468	-0.000074	-0.416958
C61	C	1.277528	-0.000036	-0.549643
H62	H	1.375266	-0.046159	-0.579555
H63	H	1.203215	-0.070755	-0.590514
H64	H	1.271130	0.116831	-0.586152
