data_functionalizedCrystal
_audit_creation_method	'MofGen! by Chris Wilmer'
_symmetry_space_group_name_H-M	'P1'
_symmetry_Int_Tables_number	1
_symmetry_cell_setting	triclinic
loop_
_symmetry_equiv_pos_as_xyz
  x,y,z
_cell_length_a	10.723024
_cell_length_b	11.792240
_cell_length_c	9.798715
_cell_angle_alpha	89.987502
_cell_angle_beta	90.003391
_cell_angle_gamma	95.669357
loop_
_atom_site_label
_atom_site_type_symbol
_atom_site_fract_x
_atom_site_fract_y
_atom_site_fract_z
O1	O	1.656766	-0.159192	0.113514
O2	O	1.293573	-0.174430	0.113521
O3	O	1.483983	-0.001660	0.113476
O4	O	1.466356	-0.331962	0.113559
O5	O	1.483969	-0.001659	-0.113506
O6	O	1.293559	-0.174430	-0.113461
O7	O	1.656752	-0.159192	-0.113469
Zn8	Zn	1.475153	-0.166811	-0.149503
Zn9	Zn	1.475172	-0.166811	0.149556
O10	O	1.466342	-0.331962	-0.113423
C11	C	1.247070	-0.173321	0.000030
C12	C	1.108524	-0.170003	0.000031
C13	C	1.033286	-0.266676	0.000057
C14	C	0.890091	-0.263250	0.000058
C15	C	1.482869	0.040634	-0.000023
C16	C	1.479555	0.166655	-0.000046
C17	C	1.473461	0.397380	-0.000068
C18	C	1.476847	0.268988	-0.000055
C19	C	1.703256	-0.160301	0.000025
C20	C	1.841801	-0.163619	0.000033
C21	C	1.467456	0.625745	0.000030
C22	C	1.470770	0.499724	-0.000083
N23	N	1.475150	-0.166810	-0.353603
C24	C	1.555098	-0.093948	-0.421399
C25	C	1.555118	-0.093944	-0.578562
N26	N	1.475186	-0.166803	0.353655
H27	H	0.906445	-0.080854	0.000020
F28	F	1.385719	-0.248349	-0.570152
F29	F	1.644324	-0.012213	-0.345192
H30	H	1.623571	-0.031569	-0.636863
F31	F	1.385694	-0.248337	-0.429810
H32	H	0.825440	-0.346009	0.000085
F33	F	1.054162	-0.058503	-0.000006
F34	F	1.087648	-0.378177	0.000080
