data_functionalizedCrystal
_audit_creation_method	'MofGen! by Chris Wilmer'
_symmetry_space_group_name_H-M	'P1'
_symmetry_Int_Tables_number	1
_symmetry_cell_setting	triclinic
loop_
_symmetry_equiv_pos_as_xyz
  x,y,z
_cell_length_a	11.792241
_cell_length_b	10.540539
_cell_length_c	10.868271
_cell_angle_alpha	89.997005
_cell_angle_beta	89.999893
_cell_angle_gamma	84.359454
loop_
_atom_site_label
_atom_site_type_symbol
_atom_site_fract_x
_atom_site_fract_y
_atom_site_fract_z
O1	O	1.507361	0.173992	-0.102197
O2	O	1.177067	0.191924	-0.102225
O3	O	1.349750	-0.001773	-0.102208
O4	O	1.334679	0.367689	-0.102213
O5	O	1.349735	-0.001781	0.102436
O6	O	1.177053	0.191916	0.102420
O7	O	1.507347	0.173984	0.102448
Zn8	Zn	1.342198	0.182949	0.134926
Zn9	Zn	1.342216	0.182959	-0.134702
O10	O	1.334664	0.367681	0.102432
C11	C	1.134766	0.190793	0.000094
C12	C	1.008743	0.187422	0.000083
C13	C	0.778015	0.181223	0.000119
C14	C	0.906409	0.184667	0.000099
C15	C	1.348612	-0.049076	0.000112
C16	C	1.345231	-0.190014	0.000105
C17	C	1.215660	-0.373018	-0.000366
C18	C	1.219087	-0.226411	0.000095
C19	C	1.405929	-0.251873	0.116972
C20	C	1.401623	-0.398404	0.117070
C21	C	1.404205	-0.398922	-0.115649
C22	C	1.405367	-0.251943	-0.117194
C23	C	1.549648	0.175114	0.000127
C24	C	1.675671	0.178486	0.000130
C25	C	1.335802	0.414984	0.000109
C26	C	1.339183	0.555921	0.000108
N27	N	1.342193	0.182941	0.318940
N28	N	1.342230	0.182957	-0.318716
C29	C	1.342211	0.182956	0.569946
C30	C	1.342197	0.182952	0.430268
H31	H	1.165836	-0.401453	-0.084174
H32	H	1.363753	-0.209140	0.203933
C33	C	1.154117	-0.169788	0.113454
H34	H	1.125532	-0.236402	0.159409
H35	H	1.092483	-0.111130	0.087397
H36	H	1.204268	-0.126917	0.163512
C37	C	1.529621	-0.219670	-0.126707
H38	H	1.563818	-0.258300	-0.198358
H39	H	1.570732	-0.250956	-0.056029
H40	H	1.530973	-0.129845	-0.131615
C41	C	1.349060	-0.441351	-0.235311
H42	H	1.285857	-0.487006	-0.215788
H43	H	1.403390	-0.494755	-0.280937
H44	H	1.323881	-0.368453	-0.283017
C45	C	1.531068	-0.222079	0.122867
H46	H	1.547446	-0.171522	0.053944
H47	H	1.579653	-0.299496	0.121789
H48	H	1.543300	-0.176809	0.196501
H49	H	1.492344	-0.446668	0.122379
H50	H	1.171327	-0.183649	-0.083680
C51	C	1.345462	-0.196441	-0.233994
H52	H	1.284061	-0.135773	-0.211382
H53	H	1.317047	-0.263188	-0.279883
H54	H	1.398321	-0.156089	-0.282765
C55	C	1.527284	-0.463128	-0.116713
H56	H	1.539034	-0.517200	-0.046997
H57	H	1.579075	-0.399612	-0.114146
H58	H	1.539663	-0.512214	-0.189647
C59	C	1.148609	-0.413593	0.112210
H60	H	1.195568	-0.473648	0.159501
H61	H	1.082973	-0.451254	0.085338
H62	H	1.125941	-0.340901	0.161261
H63	H	1.356753	-0.426460	0.204423
