data_functionalizedCrystal
_audit_creation_method	'MofGen! by Chris Wilmer'
_symmetry_space_group_name_H-M	'P1'
_symmetry_Int_Tables_number	1
_symmetry_cell_setting	triclinic
loop_
_symmetry_equiv_pos_as_xyz
  x,y,z
_cell_length_a	19.288864
_cell_length_b	11.026607
_cell_length_c	18.366186
_cell_angle_alpha	89.996969
_cell_angle_beta	89.977106
_cell_angle_gamma	95.861131
loop_
_atom_site_label
_atom_site_type_symbol
_atom_site_fract_x
_atom_site_fract_y
_atom_site_fract_z
O1	O	0.940539	0.151279	-0.060786
O2	O	0.740867	0.171686	-0.060737
O3	O	0.824154	-0.015080	-0.060755
O4	O	0.857252	0.338045	-0.060768
O5	O	0.824135	-0.015089	0.060345
O6	O	0.740847	0.171677	0.060363
O7	O	0.940520	0.151270	0.060313
Zn8	Zn	0.840681	0.161472	0.079565
Zn9	Zn	0.840706	0.161484	-0.079988
O10	O	0.857232	0.338036	0.060331
C11	C	0.714897	0.171025	-0.000181
C12	C	0.637544	0.169054	-0.000161
C13	C	0.818039	-0.060262	-0.000204
C14	C	0.799837	-0.194876	-0.000202
C15	C	0.606746	0.278640	-0.000177
C16	C	0.534064	0.276788	-0.000185
C17	C	0.492182	0.165344	-0.000192
C18	C	0.522988	0.055744	-0.000172
C19	C	0.595669	0.057599	-0.000157
C20	C	0.372816	0.077740	-0.042640
C21	C	0.300137	0.075890	-0.042659
C22	C	0.268011	0.159618	-0.000236
C23	C	0.308573	0.245218	0.042198
C24	C	0.381254	0.247073	0.042213
C25	C	0.413372	0.163320	-0.000208
C26	C	0.158403	0.267204	-0.000259
C27	C	0.085720	0.265347	-0.000263
C28	C	0.074645	0.044300	-0.000257
C29	C	0.147327	0.046159	-0.000246
C30	C	0.189202	0.157615	-0.000251
C31	C	0.850095	-0.268957	-0.000216
C32	C	0.831284	-0.408088	-0.000214
C33	C	0.966489	0.151931	-0.000244
C34	C	1.043843	0.153902	-0.000268
C35	C	0.863348	0.383218	-0.000221
C36	C	0.881550	0.517833	-0.000227
N37	N	0.840668	0.161463	0.188456
N38	N	0.840723	0.161484	-0.188880
C39	C	0.877569	0.078804	0.226549
C40	C	0.877572	0.078798	0.302777
C41	C	0.840685	0.161473	0.340909
C42	C	0.803777	0.244139	0.302807
C43	C	0.803768	0.244134	0.226581
C44	C	0.845400	0.271967	0.461667
C45	C	0.845414	0.271974	0.537891
C46	C	0.840707	0.161488	0.576017
C47	C	0.836000	0.050992	0.537907
C48	C	0.835992	0.050987	0.461681
C49	C	0.840689	0.161487	0.423564
C50	C	0.877613	0.078816	0.696764
C51	C	0.877611	0.078809	0.772993
C52	C	0.803820	0.244161	0.773023
C53	C	0.803817	0.244157	0.696795
C54	C	0.840717	0.161486	0.658670
H55	H	0.640837	0.369396	-0.000182
H56	H	0.938508	-0.442594	-0.000296
H57	H	0.907613	0.011485	0.195510
C58	C	0.722895	-0.248333	-0.000184
H59	H	0.720346	-0.334833	-0.000180
H60	H	0.700442	-0.221570	-0.042407
H61	H	0.700432	-0.221587	0.042058
C62	C	0.918166	-0.012128	0.344687
H63	H	0.940143	-0.061360	0.311064
H64	H	0.886890	-0.062498	0.374444
H65	H	0.952519	0.031386	0.374400
H66	H	0.907657	0.011491	0.804009
C67	C	0.629551	-0.062947	-0.000145
H68	H	0.678835	-0.045880	-0.000133
H69	H	0.615387	-0.108662	-0.042375
H70	H	0.615343	-0.108662	0.042091
C71	C	0.754339	-0.461539	-0.000196
H72	H	0.751789	-0.548039	-0.000192
H73	H	0.731885	-0.434776	-0.042418
H74	H	0.731875	-0.434793	0.042047
H75	H	0.773783	0.311471	0.804069
C76	C	0.927037	-0.215500	-0.000232
H77	H	0.929586	-0.129000	-0.000226
H78	H	0.949505	-0.242249	-0.042467
H79	H	0.949486	-0.242261	0.041999
C80	C	0.830816	-0.070549	0.579834
H81	H	0.831485	-0.054726	0.630690
H82	H	0.869188	-0.113994	0.567327
H83	H	0.788566	-0.117899	0.567361
C84	C	0.918191	-0.012128	0.654824
H85	H	0.940160	-0.061373	0.688431
H86	H	0.952539	0.031363	0.625068
H87	H	0.886901	-0.062501	0.625107
H88	H	0.172402	-0.043078	-0.000238
H89	H	0.040545	-0.046440	-0.000308
C90	C	0.255525	-0.018268	-0.089331
H91	H	0.285065	-0.067884	-0.114583
H92	H	0.229291	0.022924	-0.123457
H93	H	0.224702	-0.067955	-0.058738
C94	C	0.763235	0.335097	0.654891
H95	H	0.741271	0.384343	0.688517
H96	H	0.728883	0.291604	0.625173
H97	H	0.794520	0.385469	0.625139
C98	C	0.850591	0.393509	0.579808
H99	H	0.849931	0.377691	0.630666
H100	H	0.812212	0.436940	0.567336
H101	H	0.892835	0.440871	0.567289
H102	H	0.398967	0.009556	-0.077190
C103	C	0.850584	0.393509	0.419736
H104	H	0.853400	0.459314	0.453348
H105	H	0.810470	0.396150	0.390019
H106	H	0.891092	0.400050	0.389982
C107	C	0.763204	0.335083	0.344750
H108	H	0.768500	0.323256	0.395604
H109	H	0.715228	0.322119	0.332286
H110	H	0.780864	0.415987	0.332242
H111	H	0.773719	0.311447	0.195565
H112	H	0.414277	0.316767	0.076767
C113	C	0.500178	0.397337	-0.000213
H114	H	0.535527	0.463980	-0.000220
H115	H	0.472027	0.401218	0.042006
H116	H	0.472084	0.401190	-0.042459
C117	C	0.273248	0.337325	0.088869
H118	H	0.307815	0.388572	0.114138
H119	H	0.242777	0.294674	0.122981
H120	H	0.247365	0.385573	0.058272
C121	C	0.204471	0.389794	-0.000255
H122	H	0.252169	0.375204	-0.000254
H123	H	0.194814	0.434897	0.041972
H124	H	0.194857	0.434902	-0.042493
C125	C	0.051842	0.385898	-0.000280
H126	H	0.087193	0.452537	-0.000287
H127	H	0.023697	0.389775	0.041945
H128	H	0.023743	0.389763	-0.042521
C129	C	0.476922	-0.066841	-0.000184
H130	H	0.429224	-0.052252	-0.000204
H131	H	0.486530	-0.111955	0.042049
H132	H	0.486584	-0.111939	-0.042416
H133	H	0.832158	-0.038983	0.430655
