data_functionalizedCrystal
_audit_creation_method	'MofGen! by Chris Wilmer'
_symmetry_space_group_name_H-M	'P1'
_symmetry_Int_Tables_number	1
_symmetry_cell_setting	triclinic
loop_
_symmetry_equiv_pos_as_xyz
  x,y,z
_cell_length_a	18.215407
_cell_length_b	16.625545
_cell_length_c	18.215399
_cell_angle_alpha	90.026887
_cell_angle_beta	90.019833
_cell_angle_gamma	90.026006
loop_
_atom_site_label
_atom_site_type_symbol
_atom_site_fract_x
_atom_site_fract_y
_atom_site_fract_z
Zn1	Zn	1.125069	-0.321000	0.416121
Zn2	Zn	1.124975	-0.455841	0.293057
Zn3	Zn	1.002001	-0.321027	0.293069
Zn4	Zn	1.001966	-0.455796	0.416082
O5	O	1.063503	-0.388416	0.354582
O6	O	1.228040	-0.338895	0.399808
O7	O	1.108639	-0.437987	0.190074
O8	O	1.018380	-0.208191	0.309413
O9	O	1.227972	-0.437961	0.309394
O10	O	1.108797	-0.208171	0.399819
O11	O	1.018290	-0.338940	0.190083
O12	O	0.899012	-0.338896	0.309375
O13	O	1.018319	-0.437885	0.519072
O14	O	0.898986	-0.437910	0.399753
O15	O	1.108763	-0.338851	0.519100
O16	O	1.108604	-0.568667	0.309356
O17	O	1.018229	-0.568634	0.399742
C18	C	0.872296	-0.388402	0.354561
C19	C	0.790497	-0.388415	0.354570
C20	C	0.602309	-0.440053	0.401570
C21	C	0.525450	-0.440056	0.401579
C22	C	0.525448	-0.336793	0.307611
C23	C	0.602305	-0.336787	0.307606
C24	C	0.640734	-0.388422	0.354584
C25	C	0.487018	-0.388430	0.354598
C26	C	0.403684	-0.388433	0.354608
C27	C	0.724073	-0.388418	0.354576
C28	C	1.063423	-0.597907	0.354559
C29	C	1.063456	-0.687528	0.354574
C30	C	1.063484	-0.760310	0.354589
C31	C	1.063527	-0.851619	0.354605
C32	C	1.063565	-0.924395	0.354614
C33	C	1.063608	-1.015709	0.354629
C34	C	1.255456	-0.388430	0.354604
C35	C	1.337254	-0.388436	0.354613
C36	C	1.063547	-0.388360	0.546535
C37	C	1.063567	-0.388336	0.628334
C38	C	1.063603	-0.178107	0.354622
C39	C	1.063646	-0.088486	0.354639
C40	C	1.063500	-0.388413	0.163376
C41	C	1.063624	-0.388210	0.081578
C42	C	1.110677	-0.336721	0.816544
C43	C	1.110686	-0.336698	0.893403
C44	C	1.016508	-0.439827	0.893362
C45	C	1.016496	-0.439846	0.816505
C46	C	1.063585	-0.388294	0.778098
C47	C	1.063606	-0.388252	0.931814
C48	C	1.063615	-0.388227	1.015148
C49	C	1.063575	-0.388318	0.694759
H50	H	0.633592	-0.294737	0.269344
C51	C	0.483815	-0.280787	0.256484
C52	C	0.502489	-0.298229	0.183642
C53	C	0.464160	-0.246647	0.136523
H54	H	0.432528	-0.288136	0.263116
H55	H	0.496448	-0.226611	0.267295
H56	H	0.489851	-0.352391	0.172835
H57	H	0.553770	-0.290875	0.176987
H58	H	0.476793	-0.192471	0.147333
H59	H	0.412874	-0.254000	0.143161
H60	H	0.476829	-0.258468	0.087095
H61	H	0.978142	-0.481842	0.785201
H62	H	0.494168	-0.482098	0.439841
C63	C	1.161823	-0.280659	0.774978
C64	C	1.203051	-0.235473	0.825102
C65	C	1.250166	-0.183809	0.786840
H66	H	1.193937	-0.311418	0.744992
H67	H	1.133697	-0.245491	0.745014
H68	H	1.231175	-0.270636	0.855053
H69	H	1.170956	-0.204697	0.855089
H70	H	1.222040	-0.148641	0.756877
H71	H	1.282276	-0.214575	0.756856
H72	H	1.278140	-0.153139	0.820843
H73	H	1.149032	-0.294701	0.924703
C74	C	0.965470	-0.495769	0.935196
C75	C	0.975573	-0.484731	1.010733
C76	C	0.928576	-0.536261	1.049291
H77	H	0.915996	-0.484021	0.922682
H78	H	0.976221	-0.549965	0.922631
H79	H	0.964816	-0.430548	1.023293
H80	H	1.025036	-0.496485	1.023268
H81	H	0.939328	-0.590457	1.036727
H82	H	0.879105	-0.524509	1.036772
H83	H	0.935429	-0.528784	1.100547
H84	H	0.633595	-0.482096	0.439825
