data_functionalizedCrystal
_audit_creation_method	'MofGen! by Chris Wilmer'
_symmetry_space_group_name_H-M	'P1'
_symmetry_Int_Tables_number	1
_symmetry_cell_setting	triclinic
loop_
_symmetry_equiv_pos_as_xyz
  x,y,z
_cell_length_a	16.098571
_cell_length_b	8.559649
_cell_length_c	8.559649
_cell_angle_alpha	110.221336
_cell_angle_beta	86.637432
_cell_angle_gamma	93.365462
loop_
_atom_site_label
_atom_site_type_symbol
_atom_site_fract_x
_atom_site_fract_y
_atom_site_fract_z
O1	O	0.069243	-2.121189	-0.060713
O2	O	0.069246	-1.645704	0.023068
O3	O	0.069243	-1.925337	-0.256565
O4	O	0.069246	-1.841556	0.218920
O5	O	-0.069269	-1.936703	-0.245212
O6	O	-0.069266	-1.657070	0.034421
O7	O	-0.069269	-2.132555	-0.049360
Zn8	Zn	-0.091259	-1.896617	-0.005667
Zn9	Zn	0.091236	-1.881642	-0.020625
O10	O	-0.069266	-1.852922	0.230273
C11	C	-0.000009	-1.591078	0.035094
C12	C	-0.000008	-1.411379	0.053993
C13	C	-0.000011	-1.937369	-0.311197
C14	C	-0.000007	-1.956268	-0.490897
N15	N	-0.215808	-1.906849	0.004539
C16	C	-0.740624	-1.954149	0.051957
C17	C	-0.653436	-1.947000	0.044804
C18	C	-0.609840	-1.857137	-0.045161
C19	C	-0.653437	-1.774403	-0.127966
C20	C	-0.740624	-1.781542	-0.120803
C21	C	-0.346592	-1.831254	-0.071102
C22	C	-0.259399	-1.824125	-0.078263
C23	C	-0.259404	-1.996721	0.094510
C24	C	-0.346592	-2.003861	0.101657
C25	C	-0.390182	-1.921119	0.018860
C26	C	-0.520719	-1.849832	-0.052479
C27	C	-0.479301	-1.928415	0.026188
N28	N	0.215785	-1.871425	-0.030846
C29	C	-0.000012	-2.187181	-0.061386
C30	C	-0.000008	-2.366880	-0.080285
C31	C	-0.000010	-1.840890	0.284905
C32	C	-0.000009	-1.821991	0.464604
H33	H	-0.617948	-2.014366	0.112229
O34	O	-0.217023	-2.076808	0.175162
C35	C	-0.166567	-1.960178	0.293762
H36	H	-0.192834	-1.831117	0.329089
H37	H	-0.165577	-1.996916	0.409565
H38	H	-0.100491	-1.958190	0.238539
H39	H	-0.000003	-1.311990	0.183420
O40	O	-0.783098	-1.701223	-0.201087
C41	C	-0.869400	-1.726820	-0.175509
H42	H	-0.881306	-1.758946	-0.057300
H43	H	-0.902529	-1.608458	-0.162031
H44	H	-0.894152	-1.833751	-0.286511
O45	O	-0.000040	-1.667468	-0.417059
C46	C	-0.000020	-1.546415	-0.494507
H47	H	-0.026249	-1.605093	-0.623712
H48	H	-0.040229	-1.439607	-0.416099
H49	H	0.066432	-1.496656	-0.506336
O50	O	-0.782840	-2.041461	0.139483
C51	C	-0.725665	-2.112974	0.210998
H52	H	-0.663513	-2.039570	0.223556
H53	H	-0.750850	-2.109430	0.339412
H54	H	-0.716399	-2.247745	0.127860
O55	O	-0.388809	-2.091157	0.189198
C56	C	-0.331638	-2.162673	0.260719
H57	H	-0.269483	-2.089277	0.273274
H58	H	-0.356824	-2.159120	0.389135
H59	H	-0.322376	-2.297447	0.177586
H60	H	-0.223905	-1.750938	-0.151522
H61	H	-0.000014	-2.085697	-0.590285
H62	H	-0.617934	-1.701226	-0.201210
O63	O	-0.388894	-1.751112	-0.151807
C64	C	-0.367586	-1.814512	-0.323710
H65	H	-0.343625	-1.945284	-0.357330
H66	H	-0.424928	-1.819560	-0.397657
H67	H	-0.316976	-1.729961	-0.355149
O68	O	-0.521554	-2.015944	0.113446
C69	C	-0.500279	-2.184375	0.046608
H70	H	-0.436976	-2.193886	-0.022355
H71	H	-0.497303	-2.236624	0.151833
H72	H	-0.549354	-2.258810	-0.043698
O73	O	-0.478273	-1.762437	-0.139656
C74	C	-0.427844	-1.635450	-0.031367
H75	H	-0.414791	-1.670054	0.081791
H76	H	-0.366531	-1.620402	-0.099412
H77	H	-0.461430	-1.513212	0.011085
H78	H	-0.000004	-1.466258	-0.209705
