data_functionalizedCrystal
_audit_creation_method	'MofGen! by Chris Wilmer'
_symmetry_space_group_name_H-M	'P1'
_symmetry_Int_Tables_number	1
_symmetry_cell_setting	triclinic
loop_
_symmetry_equiv_pos_as_xyz
  x,y,z
_cell_length_a	23.096457
_cell_length_b	12.970454
_cell_length_c	12.970454
_cell_angle_alpha	59.999776
_cell_angle_beta	89.998137
_cell_angle_gamma	59.999719
loop_
_atom_site_label
_atom_site_type_symbol
_atom_site_fract_x
_atom_site_fract_y
_atom_site_fract_z
Zr1	Zr	0.557765	1.128537	-0.135341
O2	O	0.465317	1.343624	-0.299960
O3	O	0.586105	0.913447	-0.084876
O4	O	0.586106	1.128537	-0.299967
O5	O	0.465316	1.128535	0.084797
O6	O	0.681387	1.128540	-0.299973
O7	O	0.465317	1.128534	-0.084869
O8	O	0.681385	0.743784	0.084785
O9	O	0.465317	1.513292	-0.299961
O10	O	0.669299	1.001920	-0.063359
O11	O	0.598192	1.001918	0.063266
O12	O	0.598193	1.255159	-0.189976
O13	O	0.527086	1.255157	-0.063351
Zr14	Zr	0.709725	1.128543	0.135247
Zr15	Zr	0.709727	1.128541	-0.135351
Zr16	Zr	0.557764	1.128538	0.135257
Zr17	Zr	0.557765	1.399137	-0.135343
Zr18	Zr	0.709725	0.857943	0.135249
O19	O	0.681385	1.343633	0.084782
O20	O	0.681387	1.343631	-0.299974
O21	O	0.465316	1.343626	0.084796
O22	O	0.802173	0.913456	0.299866
O23	O	0.802175	0.913454	-0.084890
O24	O	0.586104	0.913449	0.299880
O25	O	0.802175	1.128545	-0.084891
O26	O	0.681384	1.128543	0.299873
O27	O	0.586104	1.128540	0.299879
O28	O	0.802174	1.128545	0.084775
O29	O	0.586106	1.513295	-0.299969
O30	O	0.681384	0.743785	0.299875
O31	O	0.802173	0.743788	0.299867
O32	O	0.802174	0.743787	0.084777
O33	O	0.465317	1.513293	-0.084871
O34	O	0.586106	1.513296	-0.084879
O35	O	0.669298	1.001921	0.189882
O36	O	0.740405	1.001923	0.063257
O37	O	0.669299	1.255162	-0.063360
O38	O	0.598192	1.255160	0.063265
C39	C	0.633745	0.790061	-0.000045
C40	C	0.633745	0.675184	-0.000045
C41	C	0.443665	1.128534	-0.000035
C42	C	0.379154	1.128532	-0.000030
C43	C	0.385964	0.996348	0.066050
C44	C	0.325349	0.996346	0.066056
C45	C	0.257923	1.128536	-0.000044
C46	C	0.251114	1.260737	-0.066128
C47	C	0.311730	1.260736	-0.066121
N48	N	0.135128	1.226931	-0.107618
N49	N	0.077548	1.226924	-0.107622
C50	C	0.075290	1.128549	-0.000067
N51	N	0.132793	1.030159	0.107491
N52	N	0.190379	1.030162	0.107493
C53	C	0.192192	1.128552	-0.000058
C54	C	0.016378	0.996353	0.066026
C55	C	-0.044241	0.996357	0.066035
C56	C	-0.118475	1.260752	-0.066161
C57	C	-0.057857	1.260744	-0.066157
C58	C	0.009567	1.128541	-0.000067
C59	C	0.823826	1.128546	-0.000059
C60	C	0.888337	1.128548	-0.000064
C61	C	0.633747	1.128538	-0.338525
C62	C	0.633747	1.128538	-0.453401
C63	C	0.633745	1.467019	-0.000049
C64	C	0.633745	1.581896	-0.000049
C65	C	0.633744	1.128542	0.338430
C66	C	0.633744	1.128542	0.453307
C67	C	0.823826	0.790066	-0.000058
C68	C	0.888337	0.675192	-0.000061
C69	C	0.633744	0.790062	0.338432
C70	C	0.633744	0.675186	0.453309
C71	C	0.823824	0.790068	0.338420
C72	C	0.888335	0.675194	0.453292
C73	C	0.443666	1.467012	-0.338514
C74	C	0.379155	1.581886	-0.453386
C75	C	0.443665	1.467013	-0.000036
C76	C	0.379154	1.581888	-0.000033
C77	C	0.633747	1.467017	-0.338526
C78	C	0.633747	1.581894	-0.453403
C79	C	0.881516	0.621244	-0.066166
C80	C	0.942125	0.513322	-0.066195
C81	C	1.009556	0.459342	-0.000111
C82	C	1.016376	0.513300	0.065996
C83	C	0.955767	0.621228	0.066017
C84	C	0.955754	0.621249	0.441141
C85	C	1.016375	0.513327	0.549065
C86	C	1.009575	0.459346	0.669140
C87	C	0.942150	0.513302	0.681289
C88	C	0.881530	0.621229	0.573366
C89	C	0.311737	1.635844	-0.441235
C90	C	0.251116	1.743799	-0.549160
C91	C	0.257915	1.797787	-0.669234
C92	C	0.325341	1.743824	-0.681384
C93	C	0.385960	1.635878	-0.573460
C94	C	0.385975	1.635847	0.066061
C95	C	0.325365	1.743799	0.066060
C96	C	0.257935	1.797783	-0.000028
C97	C	0.251115	1.743819	-0.066130
C98	C	0.311724	1.635877	-0.066136
H99	H	0.440860	0.888698	0.119858
F100	F	0.193392	1.912672	-0.784087
F101	F	0.963007	0.678687	0.313358
F102	F	0.332595	0.855652	0.136386
H103	H	-0.063406	1.368383	-0.119976
F104	F	-0.036987	0.855660	0.136384
H105	H	1.071286	0.469334	0.119800
H106	H	0.826637	0.665137	0.583278
F107	F	0.457711	1.578454	-0.586412
F108	F	0.304453	1.578453	-0.136479
F109	F	1.088127	0.455918	0.536109
H110	H	0.330932	1.787718	0.119893
H111	H	0.196205	1.787789	-0.119938
F112	F	1.074099	0.344478	0.783993
F113	F	0.304478	1.401430	-0.136457
H114	H	0.196212	1.368367	-0.119946
F115	F	0.457734	1.578417	0.136403
H116	H	0.961331	0.665139	0.119855
F117	F	0.934924	0.455835	0.809092
H118	H	0.306187	1.591894	-0.343474
F119	F	0.179363	1.801207	-0.536203
F120	F	1.074056	0.344473	-0.000142
F121	F	0.193435	1.912665	-0.000010
H122	H	0.071278	0.888705	0.119867
H123	H	-0.173373	1.368383	-0.119981
H124	H	0.826616	0.665193	-0.119996
H125	H	0.330869	1.787794	-0.779161
H126	H	0.936558	0.469402	-0.120027
