data_functionalizedCrystal
_audit_creation_method	'MofGen! by Chris Wilmer'
_symmetry_space_group_name_H-M	'P1'
_symmetry_Int_Tables_number	1
_symmetry_cell_setting	triclinic
loop_
_symmetry_equiv_pos_as_xyz
  x,y,z
_cell_length_a	14.519709
_cell_length_b	10.723024
_cell_length_c	9.798715
_cell_angle_alpha	89.998925
_cell_angle_beta	89.998072
_cell_angle_gamma	95.925993
loop_
_atom_site_label
_atom_site_type_symbol
_atom_site_fract_x
_atom_site_fract_y
_atom_site_fract_z
O1	O	-1.224702	0.163572	-0.113307
O2	O	-0.724702	0.663572	0.386693
O3	O	-0.956324	0.182835	-0.113348
O4	O	-0.456324	0.682835	0.386652
O5	O	-1.096703	-0.008431	-0.113324
O6	O	-0.596703	0.491569	0.386676
O7	O	-1.084322	0.354837	-0.113330
O8	O	-0.584322	0.854837	0.386670
O9	O	-1.096693	-0.008431	0.113658
O10	O	-0.596693	0.491569	0.613658
O11	O	-0.956313	0.182834	0.113634
O12	O	-0.456313	0.682834	0.613634
O13	O	-1.224692	0.163571	0.113675
O14	O	-0.724692	0.663571	0.613675
Zn15	Zn	-1.090501	0.173203	0.149693
Zn16	Zn	-0.590501	0.673203	0.649693
Zn17	Zn	-1.090515	0.173203	-0.149366
Zn18	Zn	-0.590515	0.673203	0.350634
O19	O	-1.084312	0.354837	0.113652
O20	O	-0.584312	0.854837	0.613652
C21	C	-0.921954	0.181937	0.000138
C22	C	-0.421954	0.681937	0.500138
C23	C	-0.819559	0.179246	0.000122
C24	C	-0.319559	0.679246	0.500122
C25	C	-1.095797	-0.054922	0.000164
C26	C	-0.595797	0.445078	0.500164
C27	C	-1.093101	-0.193451	0.000157
C28	C	-0.593101	0.306549	0.500157
C29	C	-1.259061	0.164469	0.000187
C30	C	-0.759061	0.664469	0.500187
C31	C	-1.361456	0.167159	0.000193
C32	C	-0.861456	0.667159	0.500193
C33	C	-0.444613	0.169343	0.000184
C34	C	0.055387	0.669343	0.500184
C35	C	-0.548935	0.172093	0.000167
C36	C	-0.048935	0.672093	0.500167
C37	C	-0.632082	0.174294	0.000152
C38	C	-0.132082	0.674294	0.500152
C39	C	-0.736411	0.177045	0.000137
C40	C	-0.236411	0.677045	0.500137
C41	C	-1.085218	0.401328	0.000160
C42	C	-0.585218	0.901328	0.500160
C43	C	-1.087914	0.539857	0.000159
C44	C	-0.587914	1.039857	0.500159
N45	N	-1.090498	0.173201	0.353793
N46	N	-0.590498	0.673201	0.853793
C47	C	-1.009365	0.615574	0.000146
C48	C	-0.509365	1.115574	0.500146
C49	C	-1.012149	0.758752	0.000145
C50	C	-0.512149	1.258752	0.500145
N51	N	-1.090525	0.173194	-0.353465
N52	N	-0.590525	0.673194	0.146535
C53	C	-1.149440	0.092543	0.421580
C54	C	-0.649440	0.592543	0.921580
C55	C	-1.149454	0.092538	0.578742
C56	C	-0.649454	0.592538	1.078742
H57	H	-0.944905	0.823813	0.000143
H58	H	-0.444905	1.323813	0.500143
H59	H	-1.157224	0.581031	0.000120
H60	H	-0.657224	1.081031	0.500120
H61	H	-0.940055	0.574400	0.000129
H62	H	-0.440055	1.074400	0.500129
C63	C	-1.201790	-0.123422	0.622987
C64	C	-0.701790	0.376578	1.122987
C65	C	-1.217579	-0.000693	0.657425
C66	C	-0.717579	0.499307	1.157425
H67	H	-1.243853	-0.180980	0.671560
H68	H	-0.743853	0.319020	1.171560
H69	H	-1.140106	-0.136889	0.646352
H70	H	-0.640106	0.363111	1.146352
H71	H	-1.210720	-0.135635	0.527691
H72	H	-0.710720	0.364365	1.027691
H73	H	-1.208642	0.011522	0.752719
H74	H	-0.708642	0.511522	1.252719
H75	H	-1.279278	0.012779	0.634069
H76	H	-0.779278	0.512779	1.134069
H77	H	-1.199888	0.023486	0.363265
H78	H	-0.699888	0.523486	0.863265
C79	C	-1.187493	0.643009	-0.116518
C80	C	-0.687493	1.143009	0.383482
C81	C	-1.183890	0.718738	0.000166
C82	C	-0.683890	1.218738	0.500166
H83	H	-1.243546	0.588799	-0.116514
H84	H	-0.743546	1.088799	0.383486
H85	H	-1.136352	0.594465	-0.116511
H86	H	-0.636352	1.094465	0.383489
H87	H	-1.185041	0.694408	-0.195662
H88	H	-0.685041	1.194408	0.304338
H89	H	-1.186336	0.667339	0.079311
H90	H	-0.686336	1.167339	0.579311
H91	H	-1.235045	0.767286	0.000172
H92	H	-0.735045	1.267286	0.500172
H93	H	-1.040063	0.242258	0.588250
H94	H	-0.540063	0.742258	1.088250
C95	C	-0.965305	0.200219	0.514678
C96	C	-0.465305	0.700219	1.014678
C97	C	-1.022387	0.266422	0.432509
C98	C	-0.522387	0.766422	0.932509
H99	H	-0.923259	0.257774	0.563276
H100	H	-0.423259	0.757774	1.063276
H101	H	-0.931649	0.148384	0.458936
H102	H	-0.431649	0.648384	0.958936
H103	H	-1.002297	0.149617	0.577563
H104	H	-0.502297	0.649617	1.077563
H105	H	-0.985395	0.317018	0.369616
H106	H	-0.485395	0.817018	0.869616
H107	H	-1.056045	0.318280	0.488255
H108	H	-0.556045	0.818280	0.988255
