data_functionalizedCrystal
_audit_creation_method	'MofGen! by Chris Wilmer'
_symmetry_space_group_name_H-M	'P1'
_symmetry_Int_Tables_number	1
_symmetry_cell_setting	triclinic
loop_
_symmetry_equiv_pos_as_xyz
  x,y,z
_cell_length_a	14.519710
_cell_length_b	10.654550
_cell_length_c	9.730223
_cell_angle_alpha	90.004253
_cell_angle_beta	89.997653
_cell_angle_gamma	95.917462
loop_
_atom_site_label
_atom_site_type_symbol
_atom_site_fract_x
_atom_site_fract_y
_atom_site_fract_z
O1	O	1.224719	-0.164623	-0.114259
O2	O	1.724719	0.335377	0.385741
O3	O	0.956343	-0.184009	-0.114269
O4	O	1.456343	0.315991	0.385731
O5	O	1.096702	0.008483	-0.114255
O6	O	1.596702	0.508483	0.385745
O7	O	1.084361	-0.357114	-0.114273
O8	O	1.584361	0.142886	0.385727
O9	O	1.096693	0.008488	0.114325
O10	O	1.596693	0.508488	0.614325
O11	O	0.956334	-0.184004	0.114311
O12	O	1.456334	0.315996	0.614311
O13	O	1.224710	-0.164617	0.114320
O14	O	1.724710	0.335383	0.614320
Zn15	Zn	1.090521	-0.174310	0.150608
Zn16	Zn	1.590521	0.325690	0.650608
Zn17	Zn	1.090533	-0.174317	-0.150556
Zn18	Zn	1.590533	0.325683	0.349444
O19	O	1.084352	-0.357109	0.114307
O20	O	1.584352	0.142891	0.614307
C21	C	1.095791	0.055275	0.000034
C22	C	1.595791	0.555275	0.500034
C23	C	1.093080	0.194692	0.000032
C24	C	1.593080	0.694692	0.500032
C25	C	0.921974	-0.183103	0.000020
C26	C	1.421974	0.316897	0.500020
C27	C	0.819579	-0.180396	0.000017
C28	C	1.319579	0.319604	0.500017
C29	C	1.259079	-0.165524	0.000029
C30	C	1.759079	0.334476	0.500029
C31	C	1.361475	-0.168231	0.000023
C32	C	1.861475	0.331769	0.500023
C33	C	1.736422	-0.178198	0.000022
C34	C	2.236422	0.321802	0.500022
C35	C	1.632100	-0.175430	0.000022
C36	C	2.132100	0.324570	0.500022
C37	C	1.548952	-0.173215	0.000021
C38	C	2.048952	0.326785	0.500021
C39	C	1.444623	-0.170446	0.000024
C40	C	1.944623	0.329554	0.500024
C41	C	1.085262	-0.403901	0.000015
C42	C	1.585262	0.096099	0.500015
C43	C	1.087973	-0.543318	0.000008
C44	C	1.587973	-0.043318	0.500008
N45	N	1.090519	-0.174304	0.356144
N46	N	1.590519	0.325696	0.856144
C47	C	1.175721	0.274972	0.000034
C48	C	1.675721	0.774972	0.500034
C49	C	1.173168	0.405968	0.000017
C50	C	1.673168	0.905968	0.500017
C51	C	1.005326	0.376391	0.000001
C52	C	1.505326	0.876391	0.500001
C53	C	1.007880	0.245397	0.000008
C54	C	1.507880	0.745397	0.500008
N55	N	1.090541	-0.174312	-0.356092
N56	N	1.590541	0.325688	0.143908
C57	C	1.152691	-0.089105	0.428076
C58	C	1.652691	0.410895	0.928076
C59	C	1.152701	-0.089105	0.571959
C60	C	1.652701	0.410895	1.071959
C61	C	1.028363	-0.259516	0.571966
C62	C	1.528363	0.240484	1.071966
C63	C	1.028350	-0.259508	0.428085
C64	C	1.528350	0.240492	0.928085
H65	H	1.245096	0.233692	0.000050
H66	H	1.745096	0.733692	0.500050
H67	H	1.240463	0.471328	0.000016
H68	H	1.740463	0.971328	0.500016
O69	O	0.927659	0.167276	0.000189
O70	O	1.427659	0.667276	0.500189
C71	C	0.924098	0.090648	0.118590
C72	C	1.424098	0.590648	0.618590
H73	H	0.997339	0.083874	0.158069
H74	H	1.497339	0.583874	0.658069
H75	H	0.890384	-0.007730	0.091960
H76	H	1.390384	0.492270	0.591960
H77	H	0.881690	0.133835	0.201480
H78	H	1.381690	0.633835	0.701480
H79	H	0.935959	0.417692	-0.000015
H80	H	1.435959	0.917692	0.499985
H81	H	1.203326	-0.019727	0.630522
H82	H	1.703326	0.480273	1.130522
O83	O	0.968069	-0.342240	0.642065
O84	O	1.468069	0.157760	1.142065
C85	C	0.981397	-0.323961	0.784483
C86	C	1.481397	0.176039	1.284483
H87	H	1.054419	-0.277248	0.804121
H88	H	1.554419	0.222752	1.304121
H89	H	0.971747	-0.419040	0.839150
H90	H	1.471747	0.080960	1.339150
H91	H	0.928803	-0.260816	0.825341
H92	H	1.428803	0.239184	1.325341
O93	O	1.213003	-0.006404	0.357979
O94	O	1.713003	0.493596	0.857979
C95	C	1.199627	-0.024614	0.215560
C96	C	1.699627	0.475386	0.715560
H97	H	1.165848	-0.124378	0.195879
H98	H	1.665848	0.375622	0.695879
H99	H	1.269358	-0.010757	0.160832
H100	H	1.769358	0.489243	0.660832
H101	H	1.152863	0.046566	0.174805
H102	H	1.652863	0.546566	0.674805
O103	O	0.967919	-0.342399	0.358414
O104	O	1.467919	0.157601	0.858414
C105	C	0.913039	-0.417590	0.452761
C106	C	1.413039	0.082410	0.952761
H107	H	0.950864	-0.419138	0.555315
H108	H	1.450864	0.080862	1.055315
H109	H	0.899601	-0.517836	0.411170
H110	H	1.399601	-0.017836	0.911170
H111	H	0.844276	-0.376600	0.468088
H112	H	1.344276	0.123400	0.968088
