data_functionalizedCrystal
_audit_creation_method	'MofGen! by Chris Wilmer'
_symmetry_space_group_name_H-M	'P1'
_symmetry_Int_Tables_number	1
_symmetry_cell_setting	triclinic
loop_
_symmetry_equiv_pos_as_xyz
  x,y,z
_cell_length_a	14.853569
_cell_length_b	16.109301
_cell_length_c	15.186229
_cell_angle_alpha	90.005167
_cell_angle_beta	89.998615
_cell_angle_gamma	96.451477
loop_
_atom_site_label
_atom_site_type_symbol
_atom_site_fract_x
_atom_site_fract_y
_atom_site_fract_z
O1	O	1.196183	-0.108553	-0.073191
O2	O	0.933703	-0.121482	-0.073202
O3	O	1.072153	0.006004	-0.073187
O4	O	1.057732	-0.236038	-0.073206
O5	O	1.072144	0.006005	0.073270
O6	O	0.933693	-0.121480	0.073255
O7	O	1.196174	-0.108551	0.073266
Zn8	Zn	1.064932	-0.115015	0.096514
Zn9	Zn	1.064944	-0.115017	-0.096450
O10	O	1.057723	-0.236036	0.073251
C11	C	0.900110	-0.120895	0.000025
C12	C	0.800030	-0.119139	0.000021
C13	C	0.763779	-0.042586	0.000024
C14	C	0.742240	-0.194042	0.000022
C15	C	0.648208	-0.192394	0.000024
C16	C	0.611958	-0.115841	0.000026
C17	C	0.669740	-0.040936	0.000028
C18	C	0.590420	-0.267298	0.000031
C19	C	0.496382	-0.265654	0.000033
C20	C	0.460131	-0.189100	0.000029
C21	C	0.517918	-0.114191	0.000030
C22	C	0.481668	-0.037638	0.000033
C23	C	0.539454	0.037271	0.000027
C24	C	0.633488	0.035618	0.000024
C25	C	0.366097	-0.187447	0.000032
C26	C	0.387628	-0.035988	0.000037
C27	C	1.071565	0.036980	0.000042
C28	C	1.069813	0.129278	0.000043
C29	C	1.229766	-0.109138	0.000037
C30	C	1.329847	-0.110894	0.000035
C31	C	1.058312	-0.267013	0.000020
C32	C	1.060063	-0.359311	0.000013
N33	N	1.064930	-0.115013	0.228207
C34	C	1.147895	0.351440	0.000032
C35	C	1.146243	0.438163	0.000025
C36	C	0.981975	0.418520	0.000021
C37	C	0.983629	0.331799	0.000022
C38	C	1.066591	0.298262	0.000032
C39	C	1.063285	0.471706	0.000024
C40	C	1.061493	0.565734	0.000016
C41	C	1.068384	0.204227	0.000039
N42	N	1.064953	-0.115013	-0.228143
C43	C	1.126257	-0.058581	0.453936
C44	C	1.126260	-0.058579	0.546126
C45	C	1.003620	-0.171447	0.546122
C46	C	1.003613	-0.171445	0.453934
C47	C	1.064937	-0.115013	0.407843
C48	C	1.064946	-0.115013	0.592221
C49	C	1.064949	-0.115012	0.692177
C50	C	1.064934	-0.115013	0.307881
H51	H	0.680545	0.096606	0.000022
H52	H	0.449340	-0.326650	0.000036
Cl53	Cl	1.248458	0.505013	0.000023
H54	H	0.914430	0.445837	0.000015
Cl55	Cl	0.342065	0.060256	0.000033
Cl56	Cl	0.926515	-0.242388	0.395983
H57	H	0.917417	0.288499	0.000020
Cl58	Cl	0.926534	-0.242390	0.604068
Cl59	Cl	0.493871	0.133506	0.000039
Cl60	Cl	0.836421	0.051582	0.000015
H61	H	1.215449	0.324137	0.000038
H62	H	0.771761	-0.256368	0.000026
H63	H	1.176190	-0.012630	0.416411
H64	H	0.619942	-0.329624	0.000034
Cl65	Cl	1.203350	0.012367	0.604068
H66	H	0.319052	-0.248437	0.000045
