data_functionalizedCrystal
_audit_creation_method	'MofGen! by Chris Wilmer'
_symmetry_space_group_name_H-M	'P1'
_symmetry_Int_Tables_number	1
_symmetry_cell_setting	triclinic
loop_
_symmetry_equiv_pos_as_xyz
  x,y,z
_cell_length_a	14.908783
_cell_length_b	18.101395
_cell_length_c	14.908308
_cell_angle_alpha	93.266316
_cell_angle_beta	89.788727
_cell_angle_gamma	93.322007
loop_
_atom_site_label
_atom_site_type_symbol
_atom_site_fract_x
_atom_site_fract_y
_atom_site_fract_z
Zn1	Zn	1.345256	-0.259024	-0.587829
Zn2	Zn	1.353810	-0.375350	-0.437469
Zn3	Zn	1.203569	-0.258223	-0.428800
Zn4	Zn	1.194832	-0.389531	-0.579091
O5	O	1.274367	-0.320532	-0.508297
O6	O	1.472220	-0.268856	-0.575168
O7	O	1.341117	-0.353542	-0.310496
O8	O	1.222441	-0.154694	-0.449925
O9	O	1.478504	-0.354319	-0.464699
O10	O	1.326537	-0.155283	-0.566763
O11	O	1.230735	-0.267490	-0.304127
O12	O	1.076581	-0.281241	-0.441452
O13	O	1.207550	-0.378489	-0.706073
O14	O	1.070162	-0.377712	-0.551869
O15	O	1.318065	-0.282607	-0.712493
O16	O	1.332645	-0.480866	-0.456226
O17	O	1.215845	-0.491285	-0.560275
C18	C	1.040746	-0.330929	-0.494772
C19	C	0.940800	-0.335395	-0.489007
C20	C	1.274248	-0.512947	-0.508264
C21	C	1.274278	-0.595260	-0.508284
C22	C	0.746436	-0.254934	-0.593382
C23	C	0.652528	-0.259128	-0.587968
C24	C	0.659075	-0.347974	-0.472763
C25	C	0.752983	-0.343780	-0.478176
C26	C	0.796660	-0.297259	-0.538489
C27	C	0.890569	-0.293069	-0.543906
C28	C	0.897115	-0.381910	-0.428697
C29	C	0.803207	-0.386105	-0.423283
C30	C	1.274472	-0.894345	-0.508344
C31	C	1.201136	-0.869607	-0.573991
C32	C	1.200819	-0.783993	-0.573754
C33	C	1.274376	-0.745965	-0.508315
C34	C	1.254192	-0.773515	-0.412072
C35	C	1.253721	-0.859201	-0.412463
C36	C	1.368192	-0.859665	-0.538115
C37	C	1.367513	-0.774143	-0.540161
C38	C	1.274323	-0.662107	-0.508293
C39	C	1.274523	-0.978203	-0.508360
C40	C	1.508900	-0.310095	-0.521876
C41	C	1.608844	-0.305648	-0.527662
C42	C	1.260879	-0.332219	-0.742820
C43	C	1.255131	-0.337199	-0.842759
C44	C	1.274509	-0.127366	-0.508352
C45	C	1.274570	-0.045050	-0.508375
C46	C	1.359408	-0.246699	-1.037243
C47	C	1.354010	-0.251375	-1.131145
C48	C	1.238934	-0.351226	-1.124468
C49	C	1.244332	-0.346549	-1.030565
C50	C	1.304572	-0.294284	-0.986957
C51	C	1.309973	-0.289612	-0.893053
C52	C	1.194893	-0.389458	-0.886376
C53	C	1.189496	-0.394135	-0.980279
C54	C	1.287854	-0.308835	-0.274690
C55	C	1.293776	-0.303638	-0.174761
H56	H	0.926129	-0.255190	-0.593017
C57	C	1.107703	-0.901904	-0.547071
H58	H	1.113192	-0.930396	-0.495997
H59	H	1.082738	-0.932624	-0.595553
H60	H	1.069539	-0.862609	-0.533035
C61	C	0.794487	-0.203771	-0.659725
H62	H	0.857608	-0.207339	-0.655091
H63	H	0.779872	-0.154031	-0.645791
H64	H	0.775633	-0.218390	-0.719230
H65	H	1.398661	-0.212624	-1.172085
C66	C	0.952359	-0.428471	-0.368310
H67	H	0.912894	-0.456780	-0.331622
H68	H	0.991252	-0.396511	-0.331305
H69	H	0.987004	-0.460860	-0.404758
H70	H	1.131241	-0.765907	-0.553600
H71	H	1.422763	-0.875073	-0.490369
H72	H	1.212813	-0.765732	-0.644945
H73	H	0.623498	-0.385840	-0.423650
H74	H	1.408462	-0.204146	-1.001737
C75	C	1.172669	-0.408703	-1.172447
H76	H	1.177311	-0.404671	-1.235574
H77	H	1.113148	-0.399787	-1.153561
H78	H	1.186679	-0.457116	-1.157818
C79	C	0.597284	-0.212576	-0.648356
H80	H	0.636749	-0.184275	-0.685054
H81	H	0.562630	-0.180191	-0.611920
H82	H	0.558399	-0.244546	-0.685366
H83	H	1.140448	-0.436685	-1.015798
C84	C	1.134562	-0.441800	-0.831063
H85	H	1.097917	-0.473597	-0.870487
H86	H	1.097511	-0.413389	-0.792171
H87	H	1.171044	-0.470717	-0.796416
C88	C	0.755158	-0.437276	-0.356949
H89	H	0.692036	-0.433717	-0.361590
H90	H	0.774012	-0.422673	-0.297444
H91	H	0.769773	-0.487017	-0.370903
H92	H	1.212958	-0.892976	-0.645400
H93	H	1.185375	-0.881313	-0.387882
H94	H	1.305115	-0.875079	-0.361588
H95	H	1.306167	-0.748296	-0.361587
H96	H	1.186603	-0.754148	-0.387165
H97	H	1.387661	-0.883571	-0.607389
H98	H	1.382833	-0.756409	-0.611018
H99	H	1.424604	-0.747951	-0.496270
H100	H	1.359025	-0.247056	-0.857548
