data_functionalizedCrystal
_audit_creation_method	'MofGen! by Chris Wilmer'
_symmetry_space_group_name_H-M	'P1'
_symmetry_Int_Tables_number	1
_symmetry_cell_setting	triclinic
loop_
_symmetry_equiv_pos_as_xyz
  x,y,z
_cell_length_a	13.897449
_cell_length_b	16.625545
_cell_length_c	16.625539
_cell_angle_alpha	90.026370
_cell_angle_beta	90.021254
_cell_angle_gamma	90.023964
loop_
_atom_site_label
_atom_site_type_symbol
_atom_site_fract_x
_atom_site_fract_y
_atom_site_fract_z
Zn1	Zn	-1.474614	0.321017	-0.456000
Zn2	Zn	-1.224614	0.571017	-0.206000
Zn3	Zn	-0.974614	0.821017	0.044000
Zn4	Zn	-0.724614	1.071017	0.294000
Zn5	Zn	-1.474504	0.455855	-0.321167
Zn6	Zn	-1.224504	0.705855	-0.071167
Zn7	Zn	-0.974504	0.955855	0.178833
Zn8	Zn	-0.724504	1.205855	0.428833
Zn9	Zn	-1.313317	0.321040	-0.321171
Zn10	Zn	-1.063317	0.571040	-0.071171
Zn11	Zn	-0.813317	0.821040	0.178829
Zn12	Zn	-0.563317	1.071040	0.428829
Zn13	Zn	-1.313267	0.455811	-0.455947
Zn14	Zn	-1.063267	0.705811	-0.205947
Zn15	Zn	-0.813267	0.955811	0.044053
Zn16	Zn	-0.563267	1.205811	0.294053
O17	O	-1.393926	0.388431	-0.388571
O18	O	-1.143926	0.638431	-0.138571
O19	O	-0.893926	0.888431	0.111429
O20	O	-0.643926	1.138431	0.361429
O21	O	-1.609581	0.338912	-0.438135
O22	O	-1.359581	0.588912	-0.188135
O23	O	-1.109581	0.838912	0.061865
O24	O	-0.859581	1.088912	0.311865
O25	O	-1.453097	0.438000	-0.208335
O26	O	-1.203097	0.688000	0.041665
O27	O	-0.953097	0.938000	0.291665
O28	O	-0.703097	1.188000	0.541665
O29	O	-1.334780	0.208205	-0.339080
O30	O	-1.084780	0.458205	-0.089080
O31	O	-0.834780	0.708205	0.160920
O32	O	-0.584780	0.958205	0.410920
O33	O	-1.609500	0.437977	-0.339074
O34	O	-1.359500	0.687977	-0.089074
O35	O	-1.109500	0.937977	0.160926
O36	O	-0.859500	1.187977	0.410926
O37	O	-1.453285	0.208187	-0.438138
O38	O	-1.203285	0.458187	-0.188138
O39	O	-0.953285	0.708187	0.061862
O40	O	-0.703285	0.958187	0.311862
O41	O	-1.334673	0.338952	-0.208338
O42	O	-1.084673	0.588952	0.041662
O43	O	-0.834673	0.838952	0.291662
O44	O	-0.584673	1.088952	0.541662
O45	O	-1.178329	0.338909	-0.339028
O46	O	-0.928329	0.588909	-0.089028
O47	O	-0.678329	0.838909	0.160972
O48	O	-0.428329	1.088909	0.410972
O49	O	-1.334696	0.437901	-0.568787
O50	O	-1.084696	0.687901	-0.318787
O51	O	-0.834696	0.937901	-0.068787
O52	O	-0.584696	1.187901	0.181213
O53	O	-1.178292	0.437924	-0.438048
O54	O	-0.928292	0.687924	-0.188048
O55	O	-0.678292	0.937924	0.061952
O56	O	-0.428292	1.187924	0.311952
O57	O	-1.453237	0.338869	-0.568826
O58	O	-1.203237	0.588869	-0.318826
O59	O	-0.953237	0.838869	-0.068826
O60	O	-0.703237	1.088869	0.181174
O61	O	-1.453049	0.568682	-0.339023
O62	O	-1.203049	0.818682	-0.089023
O63	O	-0.953049	1.068682	0.160977
O64	O	-0.703049	1.318682	0.410977
O65	O	-1.334589	0.568649	-0.438045
O66	O	-1.084589	0.818649	-0.188045
O67	O	-0.834589	1.068649	0.061955
O68	O	-0.584589	1.318649	0.311955
C69	C	-1.143311	0.388415	-0.388534
C70	C	-0.893311	0.638415	-0.138534
C71	C	-0.643311	0.888415	0.111466
C72	C	-0.393311	1.138415	0.361466
C73	C	-1.036097	0.388428	-0.388536
C74	C	-0.786097	0.638428	-0.138536
C75	C	-0.536097	0.888428	0.111464
C76	C	-0.286097	1.138428	0.361464
C77	C	-1.393827	0.597922	-0.388546
C78	C	-1.143827	0.847922	-0.138546
C79	C	-0.893827	1.097922	0.111454
C80	C	-0.643827	1.347922	0.361454
C81	C	-1.393874	0.687543	-0.388561
C82	C	-1.143874	0.937543	-0.138561
C83	C	-0.893874	1.187543	0.111439
C84	C	-0.643874	1.437543	0.361439
C85	C	-0.949028	0.388429	-0.388546
C86	C	-0.699028	0.638429	-0.138546
C87	C	-0.449028	0.888429	0.111454
C88	C	-0.199028	1.138429	0.361454
C89	C	-0.839795	0.388433	-0.388567
C90	C	-0.589795	0.638433	-0.138567
C91	C	-0.339795	0.888433	0.111433
C92	C	-0.089795	1.138433	0.361433
C93	C	-0.645519	0.388444	-0.388600
C94	C	-0.395519	0.638444	-0.138600
C95	C	-0.145519	0.888444	0.111400
C96	C	0.104481	1.138444	0.361400
C97	C	-0.752732	0.388441	-0.388587
C98	C	-0.502732	0.638441	-0.138587
C99	C	-0.252732	0.888441	0.111413
C100	C	-0.002732	1.138441	0.361413
C101	C	-1.394031	1.015718	-0.388658
C102	C	-1.144031	1.265718	-0.138658
C103	C	-0.894031	1.515718	0.111342
C104	C	-0.644031	1.765718	0.361342
C105	C	-1.393984	0.924410	-0.388633
C106	C	-1.143984	1.174410	-0.138633
C107	C	-0.893984	1.424410	0.111367
C108	C	-0.643984	1.674410	0.361367
C109	C	-1.393952	0.851633	-0.388609
C110	C	-1.143952	1.101633	-0.138609
C111	C	-0.893952	1.351633	0.111391
C112	C	-0.643952	1.601633	0.361391
C113	C	-1.393906	0.760319	-0.388585
C114	C	-1.143906	1.010319	-0.138585
C115	C	-0.893906	1.260319	0.111415
C116	C	-0.643906	1.510319	0.361415
C117	C	-1.393973	0.388377	-0.598880
C118	C	-1.143973	0.638377	-0.348880
C119	C	-0.893973	0.888377	-0.098880
C120	C	-0.643973	1.138377	0.151120
C121	C	-1.393993	0.388355	-0.688502
C122	C	-1.143993	0.638355	-0.438502
C123	C	-0.893993	0.888355	-0.188502
C124	C	-0.643993	1.138355	0.061498
C125	C	-1.394042	1.178122	-0.388624
C126	C	-1.144042	1.428122	-0.138624
C127	C	-0.894042	1.678122	0.111376
C128	C	-0.644042	1.928122	0.361376
C129	C	-1.394071	1.088501	-0.388671
C130	C	-1.144071	1.338501	-0.138671
C131	C	-0.894071	1.588501	0.111329
C132	C	-0.644071	1.838501	0.361329
C133	C	-1.394009	0.388337	-0.761284
C134	C	-1.144009	0.638337	-0.511284
C135	C	-0.894009	0.888337	-0.261284
C136	C	-0.644009	1.138337	-0.011284
C137	C	-1.394031	0.388307	-0.852593
C138	C	-1.144031	0.638307	-0.602593
C139	C	-0.894031	0.888307	-0.352593
C140	C	-0.644031	1.138307	-0.102593
C141	C	-1.394054	0.388279	-0.925369
C142	C	-1.144054	0.638279	-0.675369
C143	C	-0.894054	0.888279	-0.425369
C144	C	-0.644054	1.138279	-0.175369
C145	C	-1.394078	0.388249	-1.016683
C146	C	-1.144078	0.638249	-0.766683
C147	C	-0.894078	0.888249	-0.516683
C148	C	-0.644078	1.138249	-0.266683
C149	C	-1.393934	0.388426	-0.179081
C150	C	-1.143934	0.638426	0.070919
C151	C	-0.893934	0.888426	0.320919
C152	C	-0.643934	1.138426	0.570919
C153	C	-1.394101	0.388221	-0.089460
C154	C	-1.144101	0.638221	0.160540
C155	C	-0.894101	0.888221	0.410540
C156	C	-0.644101	1.138221	0.660540
