data_functionalizedCrystal
_audit_creation_method	'MofGen! by Chris Wilmer'
_symmetry_space_group_name_H-M	'P1'
_symmetry_Int_Tables_number	1
_symmetry_cell_setting	triclinic
loop_
_symmetry_equiv_pos_as_xyz
  x,y,z
_cell_length_a	18.050589
_cell_length_b	16.120542
_cell_length_c	16.120256
_cell_angle_alpha	89.872789
_cell_angle_beta	92.877403
_cell_angle_gamma	92.880229
loop_
_atom_site_label
_atom_site_type_symbol
_atom_site_fract_x
_atom_site_fract_y
_atom_site_fract_z
Zn1	Zn	-0.376345	-1.247408	-0.534617
Zn2	Zn	-0.043011	-0.914074	-0.201284
Zn3	Zn	0.290322	-0.580741	0.132050
Zn4	Zn	-0.494566	-1.254347	-0.395566
Zn5	Zn	-0.161233	-0.921014	-0.062233
Zn6	Zn	0.172101	-0.587681	0.271101
Zn7	Zn	-0.363783	-1.115399	-0.388531
Zn8	Zn	-0.030449	-0.782066	-0.055197
Zn9	Zn	0.302884	-0.448732	0.278136
Zn10	Zn	-0.493876	-1.108303	-0.527532
Zn11	Zn	-0.160543	-0.774970	-0.194199
Zn12	Zn	0.172791	-0.441637	0.139134
O13	O	-0.432142	-1.181364	-0.461561
O14	O	-0.098809	-0.848031	-0.128228
O15	O	0.234524	-0.514698	0.205105
O16	O	-0.397573	-1.364694	-0.522081
O17	O	-0.064240	-1.031361	-0.188747
O18	O	0.269094	-0.698028	0.144586
O19	O	-0.472249	-1.241789	-0.278267
O20	O	-0.138915	-0.908456	0.055067
O21	O	0.194418	-0.575123	0.388400
O22	O	-0.261528	-1.132976	-0.407930
O23	O	0.071805	-0.799642	-0.074596
O24	O	0.405138	-0.466309	0.258737
O25	O	-0.484430	-1.369793	-0.419920
O26	O	-0.151096	-1.036460	-0.086587
O27	O	0.182237	-0.703126	0.246746
O28	O	-0.270758	-1.229962	-0.515259
O29	O	0.062576	-0.896629	-0.181925
O30	O	0.395909	-0.563295	0.151408
O31	O	-0.376163	-1.139705	-0.273098
O32	O	-0.042829	-0.806371	0.060236
O33	O	0.290504	-0.473038	0.393569
O34	O	-0.375494	-0.998092	-0.401060
O35	O	-0.042160	-0.664758	-0.067727
O36	O	0.291173	-0.331425	0.265606
O37	O	-0.483254	-1.120882	-0.644838
O38	O	-0.149921	-0.787549	-0.311505
O39	O	0.183413	-0.454215	0.021828
O40	O	-0.471073	-0.992878	-0.503184
O41	O	-0.137740	-0.659545	-0.169851
O42	O	0.195594	-0.326212	0.163482
O43	O	-0.396904	-1.223081	-0.650043
O44	O	-0.063571	-0.889748	-0.316710
O45	O	0.269763	-0.556415	0.016623
O46	O	-0.598395	-1.234909	-0.413051
O47	O	-0.265062	-0.901576	-0.079718
O48	O	0.068271	-0.568242	0.253616
O49	O	-0.597888	-1.127611	-0.510006
O50	O	-0.264555	-0.794278	-0.176673
O51	O	0.068778	-0.460944	0.156660
C52	C	-0.421846	-0.965313	-0.450591
C53	C	-0.088512	-0.631979	-0.117257
C54	C	0.244821	-0.298646	0.216076
C55	C	-0.417460	-0.872884	-0.445917
C56	C	-0.084126	-0.539550	-0.112584
C57	C	0.249207	-0.206217	0.220750
C58	C	-0.454871	-0.659919	-0.485759
C59	C	-0.121537	-0.326585	-0.152426
C60	C	0.211796	0.006748	0.180907
C61	C	-0.409458	-0.703660	-0.437383
C62	C	-0.076125	-0.370327	-0.104050
C63	C	0.257208	-0.036993	0.229284
C64	C	-0.413912	-0.797825	-0.442133
C65	C	-0.080578	-0.464491	-0.108800
C66	C	0.252755	-0.131158	0.224534
C67	C	-0.450419	-0.565745	-0.481011
C68	C	-0.117085	-0.232412	-0.147677
C69	C	0.216248	0.100921	0.185656
C70	C	-0.625089	-1.181265	-0.461543
C71	C	-0.291756	-0.847931	-0.128209
C72	C	0.041578	-0.514598	0.205124
C73	C	-0.707637	-1.181297	-0.461566
C74	C	-0.374304	-0.847963	-0.128233
C75	C	-0.040971	-0.514630	0.205101
C76	C	-0.906841	-1.123004	-0.514274
C77	C	-0.573508	-0.789670	-0.180940
C78	C	-0.240174	-0.456337	0.152393
C79	C	-0.952060	-1.106581	-0.437367
C80	C	-0.618727	-0.773247	-0.104034
C81	C	-0.285393	-0.439914	0.229299
C82	C	-0.858772	-1.181378	-0.461581
C83	C	-0.525439	-0.848044	-0.128248
C84	C	-0.192105	-0.514711	0.205086
C85	C	-0.960637	-1.197841	-0.538498
C86	C	-0.627304	-0.864508	-0.205165
C87	C	-0.293971	-0.531174	0.128168
C88	C	-1.004762	-1.181454	-0.461602
C89	C	-0.671428	-0.848121	-0.128269
C90	C	-0.338095	-0.514788	0.205064
C91	C	-0.902900	-1.164917	-0.384633
C92	C	-0.569567	-0.831584	-0.051299
C93	C	-0.236233	-0.498250	0.282034
C94	C	-0.911477	-1.256210	-0.485816
C95	C	-0.578144	-0.922877	-0.152483
C96	C	-0.244810	-0.589544	0.180850
C97	C	-0.956673	-1.239819	-0.408859
C98	C	-0.623339	-0.906485	-0.075526
C99	C	-0.290006	-0.573152	0.257807
C100	C	-0.774671	-1.181332	-0.461570
C101	C	-0.441338	-0.847998	-0.128237
C102	C	-0.108005	-0.514665	0.205097
C103	C	-1.088860	-1.181501	-0.461605
C104	C	-0.755527	-0.848168	-0.128271
C105	C	-0.422194	-0.514834	0.205062
C106	C	-0.238444	-1.181486	-0.461600
C107	C	0.094889	-0.848153	-0.128266
C108	C	0.428223	-0.514819	0.205067
C109	C	-0.155901	-1.181538	-0.461616
C110	C	0.177432	-0.848205	-0.128283
C111	C	0.510765	-0.514871	0.205051
C112	C	-0.441403	-1.170416	-0.678457
C113	C	-0.108070	-0.837083	-0.345123
C114	C	0.225263	-0.503749	-0.011790
C115	C	-0.445350	-1.165751	-0.770885
C116	C	-0.112016	-0.832417	-0.437551
C117	C	0.221317	-0.499084	-0.104218
C118	C	-0.442475	-0.398260	-0.472564
C119	C	-0.109142	-0.064927	-0.139231
C120	C	0.224191	0.268406	0.194103
C121	C	-0.446867	-0.490690	-0.477223
C122	C	-0.113534	-0.157357	-0.143889
C123	C	0.219799	0.175977	0.189444
C124	C	-0.411543	-1.205693	-0.983868
C125	C	-0.078210	-0.872359	-0.650534
C126	C	0.255124	-0.539026	-0.317201
C127	C	-0.452523	-1.157205	-0.940105
C128	C	-0.119189	-0.823871	-0.606772
C129	C	0.214144	-0.490538	-0.273438
C130	C	-0.448530	-1.161961	-0.845942
C131	C	-0.115197	-0.828628	-0.512609
C132	C	0.218136	-0.495294	-0.179275
C133	C	-0.415534	-1.200937	-1.078039
C134	C	-0.082201	-0.867604	-0.744706
C135	C	0.251132	-0.534271	-0.411372
C136	C	-0.422866	-1.192318	-0.245512
C137	C	-0.089533	-0.858984	0.087821
C138	C	0.243800	-0.525651	0.421154
C139	C	-0.418718	-1.197144	-0.153093
C140	C	-0.085385	-0.863811	0.180240
C141	C	0.247948	-0.530478	0.513574
H142	H	-0.497091	-0.693188	-0.530738
H143	H	-0.163758	-0.359855	-0.197405
H144	H	0.169575	-0.026522	0.135928
C145	C	-0.897614	-0.978004	-0.548760
C146	C	-0.564281	-0.644670	-0.215427
C147	C	-0.230947	-0.311337	0.117906
C148	C	-0.877298	-1.056279	-0.574333
C149	C	-0.543964	-0.722946	-0.241000
C150	C	-0.210631	-0.389612	0.092333
H151	H	-0.879369	-0.936811	-0.585833
H152	H	-0.546036	-0.603478	-0.252500
H153	H	-0.212703	-0.270145	0.080833
H154	H	-0.950198	-0.977244	-0.548816
H155	H	-0.616865	-0.643911	-0.215483
H156	H	-0.283531	-0.310578	0.117851
H157	H	-0.877041	-0.966866	-0.494291
H158	H	-0.543708	-0.633533	-0.160957
H159	H	-0.210374	-0.300199	0.172376
H160	H	-0.897875	-1.067420	-0.628801
H161	H	-0.564542	-0.734086	-0.295467
H162	H	-0.231209	-0.400753	0.037866
H163	H	-0.824703	-1.057040	-0.574286
H164	H	-0.491370	-0.723707	-0.240953
H165	H	-0.158036	-0.390374	0.092380
H166	H	-0.373464	-1.250774	-0.950617
H167	H	-0.040131	-0.917440	-0.617284
H168	H	0.293202	-0.584107	-0.283951
H169	H	-0.893489	-1.319442	-0.506332
H170	H	-0.560156	-0.986108	-0.172999
H171	H	-0.226823	-0.652775	0.160334
H172	H	-0.978407	-1.289219	-0.364254
H173	H	-0.645073	-0.955886	-0.030920
H174	H	-0.311740	-0.622553	0.302413
H175	H	-0.490601	-1.112116	-0.973357
H176	H	-0.157267	-0.778783	-0.640024
H177	H	0.176066	-0.445449	-0.306690
C178	C	-0.359064	-0.572811	-0.383594
C179	C	-0.025731	-0.239477	-0.050261
C180	C	0.307602	0.093856	0.283073
C181	C	-0.352486	-0.658753	-0.376621
C182	C	-0.019153	-0.325419	-0.043288
C183	C	0.314181	0.007914	0.290046
H184	H	-0.323904	-0.545087	-0.346070
H185	H	0.009429	-0.211754	-0.012736
H186	H	0.342762	0.121580	0.320597
H187	H	-0.349970	-0.555810	-0.438767
H188	H	-0.016637	-0.222476	-0.105434
H189	H	0.316696	0.110857	0.227899
H190	H	-0.407779	-0.559250	-0.370659
H191	H	-0.074445	-0.225917	-0.037326
H192	H	0.258888	0.107416	0.296007
H193	H	-0.303773	-0.672314	-0.389561
H194	H	0.029561	-0.338981	-0.056228
H195	H	0.362894	-0.005647	0.277105
H196	H	-0.361574	-0.675760	-0.321435
H197	H	-0.028241	-0.342427	0.011898
H198	H	0.305092	-0.009093	0.345232
C199	C	-1.053929	-1.022390	-0.409284
C200	C	-0.720595	-0.689057	-0.075950
C201	C	-0.387262	-0.355723	0.257383
C202	C	-0.976329	-1.021199	-0.409699
C203	C	-0.642996	-0.687865	-0.076365
C204	C	-0.309662	-0.354532	0.256968
H205	H	-1.068907	-0.969678	-0.392202
H206	H	-0.735574	-0.636345	-0.058868
H207	H	-0.402241	-0.303012	0.274465
H208	H	-1.074524	-1.034455	-0.463551
H209	H	-0.741190	-0.701122	-0.130218
H210	H	-0.407857	-0.367789	0.203115
H211	H	-1.070980	-1.063837	-0.371804
H212	H	-0.737646	-0.730504	-0.038471
H213	H	-0.404313	-0.397170	0.294862
H214	H	-0.959278	-0.979755	-0.447183
H215	H	-0.625945	-0.646422	-0.113850
H216	H	-0.292611	-0.313089	0.219484
H217	H	-0.955726	-1.009123	-0.355423
H218	H	-0.622393	-0.675790	-0.022089
H219	H	-0.289059	-0.342457	0.311244
C220	C	-0.791444	-1.146146	-0.297595
C221	C	-0.458111	-0.812813	0.035738
C222	C	-0.124778	-0.479479	0.369071
C223	C	-0.868974	-1.146053	-0.296802
C224	C	-0.535641	-0.812719	0.036531
C225	C	-0.202308	-0.479386	0.369865
H226	H	-0.770501	-1.134493	-0.243375
H227	H	-0.437167	-0.801159	0.089959
H228	H	-0.103834	-0.467826	0.423292
H229	H	-0.777251	-1.199100	-0.314877
H230	H	-0.443917	-0.865767	0.018457
H231	H	-0.110584	-0.532433	0.351790
H232	H	-0.774002	-1.104897	-0.335065
H233	H	-0.440669	-0.771564	-0.001731
H234	H	-0.107335	-0.438230	0.331602
H235	H	-0.886417	-1.187306	-0.259337
H236	H	-0.553084	-0.853973	0.073996
H237	H	-0.219751	-0.520640	0.407330
H238	H	-0.883174	-1.093092	-0.279510
H239	H	-0.549841	-0.759758	0.053823
H240	H	-0.216508	-0.426425	0.387157
C241	C	-0.969504	-1.155355	-0.681351
C242	C	-0.636171	-0.822021	-0.348018
C243	C	-0.302837	-0.488688	-0.014684
C244	C	-0.994683	-1.216606	-0.626298
C245	C	-0.661350	-0.883273	-0.292964
C246	C	-0.328017	-0.549940	0.040369
H247	H	-0.990518	-1.166939	-0.735556
H248	H	-0.657184	-0.833606	-0.402222
H249	H	-0.323851	-0.500273	-0.068889
H250	H	-0.984020	-1.102631	-0.663783
H251	H	-0.650687	-0.769297	-0.330449
H252	H	-0.317354	-0.435964	0.002884
H253	H	-0.916896	-1.154965	-0.682061
H254	H	-0.583563	-0.821631	-0.348727
H255	H	-0.250230	-0.488298	-0.015394
H256	H	-1.047291	-1.216992	-0.625584
H257	H	-0.713958	-0.883659	-0.292250
H258	H	-0.380624	-0.550325	0.041083
H259	H	-0.980172	-1.269344	-0.643871
H260	H	-0.646839	-0.936011	-0.310538
H261	H	-0.313505	-0.602677	0.022796
