data_functionalizedCrystal
_audit_creation_method	'MofGen! by Chris Wilmer'
_symmetry_space_group_name_H-M	'P1'
_symmetry_Int_Tables_number	1
_symmetry_cell_setting	triclinic
loop_
_symmetry_equiv_pos_as_xyz
  x,y,z
_cell_length_a	20.919309
_cell_length_b	21.606444
_cell_length_c	21.606444
_cell_angle_alpha	59.991153
_cell_angle_beta	90.000567
_cell_angle_gamma	57.444550
loop_
_atom_site_label
_atom_site_type_symbol
_atom_site_fract_x
_atom_site_fract_y
_atom_site_fract_z
Zr1	Zr	0.641765	0.629150	-0.057159
O2	O	0.535389	0.766301	-0.160015
O3	O	0.674374	0.497561	-0.025614
O4	O	0.674368	0.626697	-0.154758
O5	O	0.535401	0.637160	0.070983
O6	O	0.783998	0.618436	-0.150628
O7	O	0.535395	0.637165	-0.030871
O8	O	0.784009	0.387435	0.080388
O9	O	0.535389	0.868161	-0.160032
O10	O	0.770098	0.543460	-0.009096
O11	O	0.688287	0.549622	0.063835
O12	O	0.688279	0.701663	-0.088216
O13	O	0.606468	0.707825	-0.015285
Zr14	Zr	0.816621	0.615966	0.111873
Zr15	Zr	0.816612	0.615974	-0.050572
Zr16	Zr	0.641774	0.629142	0.105287
Zr17	Zr	0.641766	0.791605	-0.057186
Zr18	Zr	0.816620	0.453511	0.111901
O19	O	0.784011	0.747555	0.080328
O20	O	0.783999	0.747566	-0.150650
O21	O	0.535401	0.766290	0.070962
O22	O	0.922997	0.478815	0.214729
O23	O	0.922984	0.478826	-0.016248
O24	O	0.674387	0.497550	0.205364
O25	O	0.922985	0.607956	-0.016269
O26	O	0.784018	0.618419	0.209472
O27	O	0.674388	0.626680	0.205342
O28	O	0.922990	0.607951	0.085585
O29	O	0.674369	0.857688	-0.154797
O30	O	0.784016	0.387428	0.209511
O31	O	0.922996	0.376955	0.214746
O32	O	0.922989	0.376961	0.085623
O33	O	0.535396	0.868155	-0.030909
O34	O	0.674376	0.857682	-0.025674
O35	O	0.770106	0.543453	0.142930
O36	O	0.851918	0.537291	0.069999
O37	O	0.770099	0.695494	-0.009121
O38	O	0.688288	0.701656	0.063810
C39	C	0.729192	0.419351	0.027391
C40	C	0.729191	0.350385	0.027403
C41	C	0.668790	0.378674	-0.031001
C42	C	0.668792	0.313885	-0.031017
C43	C	0.729193	0.220807	0.027375
C44	C	0.789600	0.192518	0.085782
C45	C	0.789601	0.257306	0.085794
C46	C	0.789600	-0.068769	0.085734
C47	C	0.789593	-0.133557	0.085719
C48	C	0.668791	-0.012191	-0.031076
C49	C	0.668792	0.052598	-0.031064
C50	C	0.729201	0.024303	0.027340
C51	C	0.729199	0.094556	0.027355
C52	C	0.729192	0.150555	0.027363
C53	C	0.510486	0.639040	0.019118
C54	C	0.436259	0.644633	0.016322
C55	C	0.444093	0.564683	0.056304
C56	C	0.374346	0.569944	0.053675
C57	C	0.296766	0.655157	0.011058
C58	C	0.288933	0.735113	-0.028925
C59	C	0.358679	0.729851	-0.026291
C60	C	0.084040	0.675177	0.001043
C61	C	0.014292	0.680433	-0.001590
C62	C	0.099711	0.515263	0.081012
C63	C	0.169454	0.510009	0.083638
C64	C	0.161616	0.589965	0.043658
C65	C	0.225472	0.660537	0.008368
C66	C	0.232909	0.584584	0.046353
C67	C	0.947900	0.606076	0.035596
C68	C	1.022127	0.600483	0.038393
C69	C	0.729182	0.622568	-0.175838
C70	C	0.729178	0.622571	-0.244801
C71	C	0.729194	0.825765	0.027323
C72	C	0.729194	0.894731	0.027312
C73	C	0.686469	0.705151	-0.318499
C74	C	0.686476	0.705148	-0.383294
C75	C	0.729188	0.622564	-0.374388
C76	C	0.771902	0.539978	-0.300682
C77	C	0.771899	0.539981	-0.235889
C78	C	0.771915	0.539962	-0.561984
C79	C	0.771912	0.539965	-0.626785
C80	C	0.686492	0.705128	-0.709389
C81	C	0.686489	0.705132	-0.644596
C82	C	0.729206	0.622546	-0.570896
C83	C	0.729200	0.622550	-0.500638
C84	C	0.729190	0.622560	-0.444644
C85	C	0.729204	0.622548	0.230552
C86	C	0.729208	0.622545	0.299515
C87	C	0.947898	0.402870	0.035630
C88	C	1.022125	0.328310	0.038438
C89	C	0.729203	0.419342	0.230586
C90	C	0.729206	0.350372	0.299560
C91	C	0.947910	0.402860	0.238825
C92	C	1.022140	0.328297	0.310596
C93	C	0.510476	0.842256	-0.184111
C94	C	0.436246	0.916819	-0.255882
C95	C	0.510487	0.842246	0.019084
C96	C	0.436260	0.916807	0.016276
C97	C	0.729183	0.825774	-0.175872
C98	C	0.729180	0.894744	-0.244846
C99	C	1.014274	0.296516	-0.001537
C100	C	1.084011	0.226468	0.001086
C101	C	1.161599	0.188211	0.043689
C102	C	1.169448	0.220011	0.083665
C103	C	1.099712	0.290062	0.081037
C104	C	0.771917	0.314763	0.373245
C105	C	0.771917	0.249968	0.438059
C106	C	0.729210	0.220779	0.429188
C107	C	0.686495	0.256394	0.355495
C108	C	0.686490	0.321193	0.290682
C109	C	1.099711	0.290064	0.306231
C110	C	1.169465	0.220012	0.373661
C111	C	1.161646	0.188190	0.445455
C112	C	1.084067	0.226430	0.449817
C113	C	1.014314	0.296485	0.382388
C114	C	0.358674	0.955060	-0.251517
C115	C	0.288920	1.025132	-0.318947
C116	C	0.296739	1.056957	-0.390741
C117	C	0.374319	1.018713	-0.395103
C118	C	0.444071	0.948647	-0.327674
C119	C	0.444112	0.948607	0.056244
C120	C	0.374375	1.018673	0.053604
C121	C	0.296787	1.056932	0.010999
C122	C	0.288937	1.025129	-0.028974
C123	C	0.358674	0.955069	-0.026338
C124	C	0.771894	0.923912	-0.235950
C125	C	0.771907	0.988707	-0.300752
C126	C	0.729200	1.024337	-0.374449
C127	C	0.686484	0.995162	-0.383343
C128	C	0.686476	0.930364	-0.318542
H129	H	0.838789	-0.091818	0.133290
H130	H	1.077603	0.200585	-0.031468
H131	H	-0.048879	0.749827	-0.036297
H132	H	0.806683	0.472737	-0.293435
H133	H	1.218450	0.131146	0.500354
H134	H	0.077647	0.740283	-0.031525
O135	O	0.640430	0.794202	-0.788886
H136	H	0.574787	0.837202	-0.797965
O137	O	0.640462	0.224875	0.345945
H138	H	0.593269	0.240847	0.371799
H139	H	1.218376	0.131171	0.045822
H140	H	1.106093	0.315963	0.247779
H141	H	1.106116	0.315940	0.113594
H142	H	0.806704	0.220977	0.498056
H143	H	0.651705	0.772380	-0.651855
H144	H	0.507259	0.495294	0.091010
H145	H	0.352269	0.929179	-0.058883
O146	O	0.141791	0.752439	-0.037603
H147	H	0.134686	0.791034	-0.014948
H148	H	0.951155	0.327606	0.385953
O149	O	0.527792	0.907351	0.102197
H150	H	0.561606	0.917233	0.063406
H151	H	0.651713	1.024182	-0.443356
H152	H	0.729212	1.077099	-0.427208
O153	O	0.640397	0.794228	-0.328113
H154	H	0.593186	0.801589	-0.302281
O155	O	1.075648	0.192088	0.527258
H156	H	1.041792	0.249019	0.532586
H157	H	0.806696	0.472711	-0.619526
O158	O	0.640409	0.794215	-0.462785
H159	H	0.610699	0.851642	-0.458093
O160	O	0.817976	0.450892	-0.482499
H161	H	0.847665	0.393470	-0.487195
O162	O	0.603645	0.344395	-0.094009
H163	H	0.542752	0.388312	-0.093537
H164	H	0.806677	0.472736	-0.175880
O165	O	0.382748	1.053036	-0.472540
H166	H	0.321208	1.108173	-0.518688
H167	H	0.619605	0.010842	-0.078634
O168	O	0.817970	0.885479	-0.156466
H169	H	0.847680	0.916645	-0.161179
O170	O	0.817977	0.346243	0.382822
H171	H	0.847665	0.310596	0.444953
H172	H	0.951104	0.327664	-0.036238
H173	H	0.380732	0.504840	0.086234
H174	H	0.352292	0.929152	-0.193065
O175	O	0.527738	0.907392	-0.332385
H176	H	0.521448	0.941291	-0.393638
O177	O	0.640392	0.898917	-0.328141
H178	H	0.610691	0.934592	-0.390276
O179	O	0.205251	1.066358	-0.314233
H180	H	0.211539	1.032437	-0.252981
O181	O	1.253135	0.178746	0.129612
H182	H	1.260237	0.148682	0.190870
H183	H	0.729221	0.168015	0.481969
H184	H	0.651713	0.350178	0.230687
H185	H	1.232628	0.188884	0.370095
H186	H	0.239936	1.114010	-0.445640
H187	H	0.806690	1.012454	-0.293494
H188	H	0.380782	1.044555	0.086158
O189	O	0.205259	0.827025	-0.074900
H190	H	0.158075	0.817254	-0.070025
H191	H	0.240010	1.113979	0.008858
O192	O	0.205251	1.066397	-0.074926
H193	H	0.158086	1.120449	-0.070033
H194	H	0.619596	0.454461	-0.078543
H195	H	0.838782	-0.209350	0.133271
O196	O	0.603650	0.152987	-0.094052
H197	H	0.542751	0.172052	-0.093604
O198	O	0.854749	0.092129	0.148765
H199	H	0.844597	0.051828	0.138951
H200	H	0.838785	0.234266	0.133352
H201	H	0.106083	0.450168	0.113562
O202	O	0.253131	0.418101	0.129600
H203	H	0.246862	0.363389	0.156964
H204	H	0.352295	0.794955	-0.058840
H205	H	0.296078	0.515205	0.081055
