data_functionalizedCrystal
_audit_creation_method	'MofGen! by Chris Wilmer'
_symmetry_space_group_name_H-M	'P1'
_symmetry_Int_Tables_number	1
_symmetry_cell_setting	triclinic
loop_
_symmetry_equiv_pos_as_xyz
  x,y,z
_cell_length_a	14.519709
_cell_length_b	15.944551
_cell_length_c	13.596369
_cell_angle_alpha	89.993059
_cell_angle_beta	90.000291
_cell_angle_gamma	83.589442
loop_
_atom_site_label
_atom_site_type_symbol
_atom_site_fract_x
_atom_site_fract_y
_atom_site_fract_z
O1	O	1.223676	0.110109	-0.081665
O2	O	1.473676	0.360109	0.168335
O3	O	1.723676	0.610109	0.418335
O4	O	1.973676	0.860109	0.668335
O5	O	0.955176	0.123076	-0.081696
O6	O	1.205176	0.373076	0.168304
O7	O	1.455176	0.623076	0.418304
O8	O	1.705176	0.873076	0.668304
O9	O	1.096758	-0.005672	-0.081671
O10	O	1.346758	0.244328	0.168329
O11	O	1.596758	0.494328	0.418329
O12	O	1.846758	0.744328	0.668329
O13	O	1.082094	0.238856	-0.081690
O14	O	1.332094	0.488856	0.168310
O15	O	1.582094	0.738856	0.418310
O16	O	1.832094	0.988856	0.668310
O17	O	1.096744	-0.005679	0.081912
O18	O	1.346744	0.244321	0.331912
O19	O	1.596744	0.494321	0.581912
O20	O	1.846744	0.744321	0.831912
O21	O	0.955162	0.123069	0.081887
O22	O	1.205162	0.373069	0.331887
O23	O	1.455162	0.623069	0.581887
O24	O	1.705162	0.873069	0.831887
O25	O	1.223662	0.110102	0.081917
O26	O	1.473662	0.360102	0.331917
O27	O	1.723662	0.610102	0.581917
O28	O	1.973662	0.860102	0.831917
Zn29	Zn	1.089410	0.116584	0.107875
Zn30	Zn	1.339410	0.366584	0.357875
Zn31	Zn	1.589410	0.616584	0.607875
Zn32	Zn	1.839410	0.866584	0.857875
Zn33	Zn	1.089428	0.116593	-0.107653
Zn34	Zn	1.339428	0.366593	0.142347
Zn35	Zn	1.589428	0.616593	0.392347
Zn36	Zn	1.839428	0.866593	0.642347
O37	O	1.082080	0.238850	0.081893
O38	O	1.332080	0.488850	0.331893
O39	O	1.582080	0.738850	0.581893
O40	O	1.832080	0.988850	0.831893
C41	C	0.920810	0.122468	0.000092
C42	C	1.170810	0.372468	0.250092
C43	C	1.420810	0.622468	0.500092
C44	C	1.670810	0.872468	0.750092
C45	C	0.818432	0.120657	0.000081
C46	C	1.068432	0.370657	0.250081
C47	C	1.318432	0.620657	0.500081
C48	C	1.568432	0.870657	0.750081
C49	C	0.443548	0.113990	0.000126
C50	C	0.693548	0.363990	0.250126
C51	C	0.943548	0.613990	0.500126
C52	C	1.193548	0.863990	0.750126
C53	C	0.547853	0.115842	0.000113
C54	C	0.797853	0.365842	0.250113
C55	C	1.047853	0.615842	0.500113
C56	C	1.297853	0.865842	0.750113
C57	C	0.630987	0.117323	0.000102
C58	C	0.880987	0.367323	0.250102
C59	C	1.130987	0.617323	0.500102
C60	C	1.380987	0.867323	0.750102
C61	C	0.735298	0.119175	0.000091
C62	C	0.985298	0.369175	0.250091
C63	C	1.235298	0.619175	0.500091
C64	C	1.485298	0.869175	0.750091
C65	C	1.096142	-0.036970	0.000121
C66	C	1.346142	0.213030	0.250121
C67	C	1.596142	0.463030	0.500121
C68	C	1.846142	0.713030	0.750121
C69	C	1.094317	-0.130219	0.000121
C70	C	1.344317	0.119781	0.250121
C71	C	1.594317	0.369781	0.500121
C72	C	1.844317	0.619781	0.750121
C73	C	1.002196	-0.345209	0.000097
C74	C	1.252196	-0.095209	0.250097
C75	C	1.502196	0.154791	0.500097
C76	C	1.752196	0.404791	0.750097
C77	C	1.044967	-0.406168	0.080758
C78	C	1.294967	-0.156168	0.330758
C79	C	1.544967	0.093832	0.580758
C80	C	1.794967	0.343832	0.830758
C81	C	1.091015	-0.300950	0.000113
C82	C	1.341015	-0.050950	0.250113
C83	C	1.591015	0.199050	0.500113
C84	C	1.841015	0.449050	0.750113
C85	C	1.045002	-0.406144	-0.080522
C86	C	1.295002	-0.156144	0.169478
C87	C	1.545002	0.093856	0.419478
C88	C	1.795002	0.343856	0.669478
C89	C	1.087820	-0.465867	0.000101
C90	C	1.337820	-0.215867	0.250101
C91	C	1.587820	0.034133	0.500101
C92	C	1.837820	0.284133	0.750101
C93	C	1.133811	-0.360680	0.080841
C94	C	1.383811	-0.110680	0.330841
C95	C	1.633811	0.139320	0.580841
C96	C	1.883811	0.389320	0.830841
C97	C	1.133833	-0.360650	-0.080512
C98	C	1.383833	-0.110650	0.169488
C99	C	1.633833	0.139350	0.419488
C100	C	1.883833	0.389350	0.669488
C101	C	1.176669	-0.421591	0.000169
C102	C	1.426669	-0.171591	0.250169
C103	C	1.676669	0.078409	0.500169
C104	C	1.926669	0.328409	0.750169
C105	C	1.092854	-0.205945	0.000121
C106	C	1.342854	0.044055	0.250121
C107	C	1.592854	0.294055	0.500121
C108	C	1.842854	0.544055	0.750121
C109	C	1.085988	-0.560871	0.000100
C110	C	1.335988	-0.310871	0.250100
C111	C	1.585988	-0.060871	0.500100
C112	C	1.835988	0.189129	0.750100
C113	C	1.258028	0.110710	0.000128
C114	C	1.508028	0.360710	0.250128
C115	C	1.758028	0.610710	0.500128
C116	C	2.008028	0.860710	0.750128
C117	C	1.360406	0.112521	0.000132
C118	C	1.610406	0.362521	0.250132
C119	C	1.860406	0.612521	0.500132
C120	C	2.110406	0.862521	0.750132
C121	C	1.082696	0.270148	0.000099
C122	C	1.332696	0.520148	0.250099
C123	C	1.582696	0.770148	0.500099
C124	C	1.832696	1.020148	0.750099
C125	C	1.084521	0.363397	0.000092
C126	C	1.334521	0.613397	0.250092
C127	C	1.584521	0.863397	0.500092
C128	C	1.834521	1.113397	0.750092
N129	N	1.089404	0.116578	0.254966
N130	N	1.339404	0.366578	0.504966
N131	N	1.589404	0.616578	0.754966
N132	N	1.839404	0.866578	1.004966
N133	N	1.089442	0.116593	-0.254745
N134	N	1.339442	0.366593	-0.004745
N135	N	1.589442	0.616593	0.245255
N136	N	1.839442	0.866593	0.495255
C137	C	1.089427	0.116594	0.656257
C138	C	1.339427	0.366594	0.906257
C139	C	1.589427	0.616594	1.156257
C140	C	1.839427	0.866594	1.406257
C141	C	1.089418	0.116592	0.544606
C142	C	1.339418	0.366592	0.794606
C143	C	1.589418	0.616592	1.044606
C144	C	1.839418	0.866592	1.294606
C145	C	1.089416	0.116587	0.455615
C146	C	1.339416	0.366587	0.705615
C147	C	1.589416	0.616587	0.955615
C148	C	1.839416	0.866587	1.205615
C149	C	1.089406	0.116584	0.343957
C150	C	1.339406	0.366584	0.593957
C151	C	1.589406	0.616584	0.843957
C152	C	1.839406	0.866584	1.093957
H153	H	0.928471	-0.312009	0.000169
H154	H	1.178471	-0.062009	0.250169
H155	H	1.428471	0.187991	0.500169
H156	H	1.678471	0.437991	0.750169
H157	H	1.250458	-0.454643	0.000223
H158	H	1.500458	-0.204643	0.250223
H159	H	1.750458	0.045357	0.500223
H160	H	2.000458	0.295357	0.750223
C161	C	1.184545	-0.333368	-0.172624
C162	C	1.434545	-0.083368	0.077376
C163	C	1.684545	0.166632	0.327376
C164	C	1.934545	0.416632	0.577376
H165	H	1.152902	-0.348755	-0.229882
H166	H	1.402902	-0.098755	0.020118
H167	H	1.652902	0.151245	0.270118
H168	H	1.902902	0.401245	0.520118
H169	H	1.246178	-0.360574	-0.173198
H170	H	1.496178	-0.110574	0.076802
H171	H	1.746178	0.139426	0.326802
H172	H	1.996178	0.389426	0.576802
H173	H	1.185819	-0.273934	-0.171631
H174	H	1.435819	-0.023934	0.078369
H175	H	1.685819	0.226066	0.328369
H176	H	1.935819	0.476066	0.578369
C177	C	0.994213	-0.433416	0.172866
C178	C	1.244213	-0.183416	0.422866
C179	C	1.494213	0.066584	0.672866
C180	C	1.744213	0.316584	0.922866
H181	H	0.932234	-0.407005	0.172762
H182	H	1.182234	-0.157005	0.422762
H183	H	1.432234	0.092995	0.672762
H184	H	1.682234	0.342995	0.922762
H185	H	1.025164	-0.417091	0.230144
H186	H	1.275164	-0.167091	0.480144
H187	H	1.525164	0.082909	0.730144
H188	H	1.775164	0.332909	0.980144
H189	H	0.993912	-0.492966	0.172501
H190	H	1.243912	-0.242966	0.422501
H191	H	1.493912	0.007034	0.672501
H192	H	1.743912	0.257034	0.922501
C193	C	0.994246	-0.433347	-0.172644
C194	C	1.244246	-0.183347	0.077356
C195	C	1.494246	0.066653	0.327356
C196	C	1.744246	0.316653	0.577356
H197	H	0.932273	-0.406920	-0.172545
H198	H	1.182273	-0.156920	0.077455
H199	H	1.432273	0.093080	0.327455
H200	H	1.682273	0.343080	0.577455
H201	H	0.993940	-0.492892	-0.172307
H202	H	1.243940	-0.242892	0.077693
H203	H	1.493940	0.007108	0.327693
H204	H	1.743940	0.257108	0.577693
H205	H	1.025202	-0.416991	-0.229914
H206	H	1.275202	-0.166991	0.020086
H207	H	1.525202	0.083009	0.270086
H208	H	1.775202	0.333009	0.520086
H209	H	1.171341	-0.340638	0.149108
H210	H	1.421341	-0.090638	0.399108
H211	H	1.671341	0.159362	0.649108
H212	H	1.921341	0.409362	0.899108
