data_functionalizedCrystal
_audit_creation_method	'MofGen! by Chris Wilmer'
_symmetry_space_group_name_H-M	'P1'
_symmetry_Int_Tables_number	1
_symmetry_cell_setting	triclinic
loop_
_symmetry_equiv_pos_as_xyz
  x,y,z
_cell_length_a	15.538191
_cell_length_b	10.654550
_cell_length_c	9.730223
_cell_angle_alpha	90.000043
_cell_angle_beta	89.998968
_cell_angle_gamma	114.121488
loop_
_atom_site_label
_atom_site_type_symbol
_atom_site_fract_x
_atom_site_fract_y
_atom_site_fract_z
O1	O	0.131915	-1.606172	-0.114176
O2	O	0.144484	-1.234818	-0.114201
O3	O	0.001542	-1.492782	-0.114190
O4	O	0.274857	-1.348208	-0.114187
O5	O	0.001538	-1.492771	0.114390
O6	O	0.144480	-1.234807	0.114379
O7	O	0.131912	-1.606161	0.114404
Zn8	Zn	0.138195	-1.420483	0.150683
Zn9	Zn	0.138200	-1.420496	-0.150480
O10	O	0.274853	-1.348197	0.114393
C11	C	-0.033456	-1.507903	0.000096
C12	C	-0.137736	-1.552959	0.000085
C13	C	0.143559	-1.188446	0.000086
C14	C	0.140798	-1.050293	0.000077
C15	C	0.132836	-1.652533	0.000114
C16	C	0.135597	-1.790685	0.000114
C17	C	-0.428451	-1.105338	0.000086
C18	C	-0.526440	-1.147707	0.000092
C19	C	-0.547326	-1.386021	0.000107
C20	C	-0.449336	-1.343672	0.000094
C21	C	-0.389906	-1.203329	0.000085
C22	C	-0.410792	-1.441663	0.000093
C23	C	-0.312811	-1.399317	0.000088
C24	C	-0.253375	-1.258980	0.000083
C25	C	-0.291926	-1.160983	0.000080
C26	C	-0.470224	-1.582005	0.000112
C27	C	-0.431679	-1.679996	0.000111
C28	C	-0.333697	-1.637651	0.000096
C29	C	-0.274261	-1.497314	0.000091
C30	C	-0.295147	-1.735648	0.000100
C31	C	-0.197166	-1.693302	0.000094
C32	C	-0.176280	-1.454968	0.000086
C33	C	0.309851	-1.333076	0.000104
C34	C	0.414131	-1.288020	0.000106
N35	N	0.138191	-1.420482	0.356220
C36	C	0.224959	-0.931464	0.000082
C37	C	0.222359	-0.801659	0.000105
C38	C	0.051429	-0.909528	0.000114
C39	C	0.054030	-1.039330	0.000100
N40	N	0.138197	-1.420510	-0.356017
C41	C	0.074923	-1.534725	0.428150
C42	C	0.074924	-1.534738	0.572033
C43	C	0.201467	-1.306256	0.572043
C44	C	0.201462	-1.306241	0.428162
H45	H	-0.127888	-1.340687	0.000069
H46	H	0.295611	-0.940383	0.000073
H47	H	0.023405	-1.627764	0.630595
H48	H	0.290892	-0.704908	0.000112
H49	H	0.023403	-1.627746	0.369578
O50	O	-0.042154	-0.897705	0.000128
H51	H	-0.029825	-0.787482	0.000126
O52	O	-0.036748	-1.167513	0.000097
H53	H	-0.097520	-1.138086	0.000097
O54	O	0.269719	-1.183051	0.649635
H55	H	0.259103	-1.202259	0.761770
O56	O	-0.364345	-0.953964	0.000073
H57	H	-0.289739	-0.940988	0.000064
O58	O	-0.227818	-1.009610	0.000073
H59	H	-0.182683	-0.984622	-0.093098
O60	O	-0.568017	-1.042011	0.000080
H61	H	-0.510227	-0.937312	0.000062
O62	O	-0.611427	-1.537386	0.000126
H63	H	-0.656567	-1.562389	-0.093039
O64	O	-0.575906	-1.627695	0.000122
H65	H	-0.597240	-1.587446	-0.093055
O66	O	-0.495779	-1.831362	0.000125
H67	H	-0.570388	-1.844349	0.000123
H68	H	-0.343549	-1.849915	0.000120
H69	H	-0.165783	-1.773096	0.000095
O70	O	0.269698	-1.183019	0.350556
H71	H	0.343033	-1.165586	0.378136
H72	H	-0.173593	-1.224505	0.000087
