data_functionalizedCrystal
_audit_creation_method	'MofGen! by Chris Wilmer'
_symmetry_space_group_name_H-M	'P1'
_symmetry_Int_Tables_number	1
_symmetry_cell_setting	triclinic
loop_
_symmetry_equiv_pos_as_xyz
  x,y,z
_cell_length_a	15.944551
_cell_length_b	23.532407
_cell_length_c	15.021413
_cell_angle_alpha	89.999348
_cell_angle_beta	89.997174
_cell_angle_gamma	83.173708
loop_
_atom_site_label
_atom_site_type_symbol
_atom_site_fract_x
_atom_site_fract_y
_atom_site_fract_z
O1	O	1.113910	0.073442	-0.073949
O2	O	0.869284	0.082498	-0.073972
O3	O	0.998974	-0.004933	-0.073943
O4	O	0.984220	0.160873	-0.073977
O5	O	0.998953	-0.004921	0.074121
O6	O	0.869263	0.082510	0.074092
O7	O	1.113889	0.073455	0.074116
Zn8	Zn	0.991573	0.077985	0.097612
Zn9	Zn	0.991600	0.077968	-0.097469
O10	O	0.984200	0.160886	0.074087
C11	C	0.837983	0.082128	0.000057
C12	C	0.744746	0.081001	0.000049
C13	C	0.530369	0.024113	0.000078
C14	C	0.469137	0.050524	-0.072931
C15	C	0.574038	0.078962	0.000060
C16	C	0.469138	0.050549	0.073049
C17	C	0.409142	0.076989	0.000075
C18	C	0.514033	0.105388	-0.073009
C19	C	0.514041	0.105405	0.073036
C20	C	0.452826	0.131856	0.000010
C21	C	0.669030	0.080097	0.000051
C22	C	0.314150	0.075858	0.000077
C23	C	0.998588	-0.026144	0.000091
C24	C	0.997458	-0.089366	0.000098
C25	C	1.067121	-0.488199	0.000056
C26	C	1.066072	-0.547603	0.000049
O27	O	1.130650	-0.584098	0.000022
N28	N	0.988971	-0.570528	0.000042
C29	C	0.912915	-0.534045	0.000033
O30	O	0.847239	-0.558999	0.000026
C31	C	0.913965	-0.474642	0.000034
C32	C	0.991071	-0.451721	0.000049
C33	C	1.144220	-0.465277	0.000070
C34	C	1.145269	-0.405877	0.000079
C35	C	1.069219	-0.369399	0.000073
C36	C	0.992120	-0.392320	0.000058
C37	C	0.837910	-0.438160	0.000018
C38	C	0.838967	-0.378754	0.000018
C39	C	0.916072	-0.355832	0.000034
C40	C	0.917118	-0.296442	0.000060
N41	N	0.994219	-0.273517	0.000067
C42	C	1.070269	-0.309995	0.000073
C43	C	0.910716	-0.658796	0.000031
C44	C	0.909664	-0.718198	0.000037
C45	C	1.062821	-0.731752	0.000050
C46	C	1.063872	-0.672349	0.000051
C47	C	0.987816	-0.635871	0.000037
C48	C	1.072466	-0.185250	0.000092
C49	C	1.073508	-0.125844	0.000104
C50	C	0.920352	-0.112295	0.000085
C51	C	0.919309	-0.171696	0.000078
C52	C	0.995373	-0.208173	0.000078
O53	O	0.852574	-0.259913	0.000083
O54	O	1.135935	-0.285033	0.000069
C55	C	1.145190	0.073824	0.000084
C56	C	1.238427	0.074951	0.000087
C57	C	0.984586	0.182097	0.000051
C58	C	0.985715	0.245318	0.000038
N59	N	0.991561	0.077995	0.230750
N60	N	0.991619	0.077953	-0.230606
C61	C	0.931583	0.118404	0.470420
C62	C	1.007390	0.129461	0.529759
C63	C	0.991582	0.077981	0.412357
C64	C	0.915796	0.066938	0.529760
C65	C	0.991596	0.077969	0.587781
C66	C	1.067428	0.089063	0.470389
C67	C	0.975783	0.026518	0.470385
C68	C	1.051645	0.037552	0.529697
C69	C	0.991573	0.077990	0.311300
C70	C	0.991614	0.077960	0.688836
H71	H	0.533834	0.128564	-0.134800
H72	H	0.564086	-0.021407	-0.000003
O73	O	0.537708	0.133141	0.146636
C74	C	0.496663	0.189617	0.147249
H75	H	0.436881	0.191935	0.105129
H76	H	0.479262	0.202803	0.218541
H77	H	0.540653	0.219781	0.118574
O78	O	0.412840	0.186224	-0.000203
C79	C	0.435738	0.214919	-0.077269
H80	H	0.457923	0.182219	-0.130818
H81	H	0.378803	0.244303	-0.102754
H82	H	0.489001	0.241437	-0.060555
O83	O	1.112179	-0.003231	0.560710
C84	C	1.111085	-0.003093	0.654564
H85	H	1.046282	0.016363	0.679005
H86	H	1.124733	-0.048878	0.680101
H87	H	1.161356	0.023345	0.680480
H88	H	0.449239	0.027346	0.134770
H89	H	0.449230	0.027320	-0.134645
H90	H	1.136300	-0.107185	0.000119
O91	O	1.146431	-0.220597	0.000135
C92	C	1.214697	-0.187616	0.000128
H93	H	1.192978	-0.143287	0.028160
H94	H	1.267947	-0.209516	0.043122
H95	H	1.238366	-0.183378	-0.070901
O96	O	0.846557	-0.076773	0.000039
C97	C	0.864027	-0.019430	0.000067
H98	H	0.929990	-0.017148	-0.027950
H99	H	0.815535	0.007480	-0.042929
H100	H	0.860681	-0.002251	0.071101
O101	O	1.220244	-0.383710	0.000047
C102	C	1.287133	-0.428654	0.000072
H103	H	1.263927	-0.469008	-0.027962
H104	H	1.341003	-0.416238	-0.042911
H105	H	1.310559	-0.437059	0.071107
O106	O	1.138718	-0.650018	-0.000060
C107	C	1.143932	-0.616077	-0.076757
H108	H	1.077607	-0.601289	-0.102330
H109	H	1.177085	-0.577176	-0.059511
H110	H	1.181320	-0.642320	-0.130449
H111	H	0.962383	-0.016985	0.444284
H112	H	1.206153	-0.494973	0.000072
H113	H	1.131539	0.098450	0.444420
H114	H	0.851698	0.057603	0.555841
H115	H	0.775123	-0.456812	0.000000
O116	O	1.136622	-0.767275	0.000006
C117	C	1.119153	-0.824619	0.000019
H118	H	1.053197	-0.826898	-0.028012
H119	H	1.167656	-0.851525	-0.042972
H120	H	1.122479	-0.841802	0.071050
H121	H	0.846878	-0.736855	0.000039
O122	O	0.836752	-0.623445	0.000070
C123	C	0.768485	-0.656423	0.000042
H124	H	0.790193	-0.700754	0.028072
H125	H	0.715222	-0.634525	0.043027
H126	H	0.744835	-0.660657	-0.070994
H127	H	0.777032	-0.349056	0.000006
H128	H	0.856524	-0.190359	0.000090
O129	O	0.871202	0.159291	0.439401
C130	C	0.888184	0.213473	0.469674
H131	H	0.958182	0.211869	0.486314
H132	H	0.871058	0.246693	0.415401
H133	H	0.849044	0.225670	0.531785
O134	O	1.023230	0.181372	0.560988
C135	C	0.954869	0.205129	0.613921
H136	H	0.918985	0.169443	0.639942
H137	H	0.979689	0.229046	0.672460
H138	H	0.910655	0.236108	0.572166
