data_functionalizedCrystal
_audit_creation_method	'MofGen! by Chris Wilmer'
_symmetry_space_group_name_H-M	'P1'
_symmetry_Int_Tables_number	1
_symmetry_cell_setting	triclinic
loop_
_symmetry_equiv_pos_as_xyz
  x,y,z
_cell_length_a	10.489741
_cell_length_b	10.540539
_cell_length_c	9.016244
_cell_angle_alpha	90.005301
_cell_angle_beta	89.998079
_cell_angle_gamma	95.467667
loop_
_atom_site_label
_atom_site_type_symbol
_atom_site_fract_x
_atom_site_fract_y
_atom_site_fract_z
O1	O	0.179759	-1.685915	-0.123270
O2	O	0.196697	-1.316504	-0.123288
O3	O	0.002629	-1.509615	-0.123269
O4	O	0.373827	-1.492803	-0.123288
O5	O	0.002634	-1.509586	0.123411
O6	O	0.196701	-1.316475	0.123393
O7	O	0.179764	-1.685886	0.123411
Cu8	Cu	0.188233	-1.501178	0.145926
Cu9	Cu	0.188228	-1.501212	-0.145803
O10	O	0.373831	-1.492775	0.123393
C11	C	0.195429	-1.269186	0.000050
C12	C	0.191629	-1.128238	0.000044
C13	C	-0.044900	-1.508331	0.000070
C14	C	-0.186529	-1.504532	0.000067
C15	C	0.181032	-1.733203	0.000070
C16	C	0.184832	-1.874152	0.000067
C17	C	-0.254654	-1.381661	0.000050
C18	C	-0.346782	-1.439690	0.121680
C19	C	-0.346761	-1.439747	-0.121528
C20	C	-0.276791	-1.562612	0.121797
C21	C	-0.276760	-1.562652	-0.121520
C22	C	-0.368860	-1.620770	0.000139
C23	C	0.421361	-1.494059	0.000050
C24	C	0.562990	-1.497858	0.000043
N25	N	0.188236	-1.501164	0.351112
C26	C	0.046011	-0.944793	0.000627
C27	C	0.049864	-1.091412	0.000055
C28	C	0.259849	-1.066589	-0.140821
C29	C	0.255011	-0.920044	-0.140924
C30	C	0.257900	-0.919524	0.139598
C31	C	0.259206	-1.066506	0.141445
N32	N	0.188215	-1.501236	-0.350989
C33	C	0.291701	-1.397545	0.586135
C34	C	0.292088	-1.397774	0.414244
C35	C	0.218515	-1.633890	0.413455
C36	C	0.219248	-1.633325	0.585400
C37	C	0.054153	-1.473374	0.585661
C38	C	0.055022	-1.470329	0.413706
H39	H	-0.204991	-1.280637	0.000168
H40	H	-0.377720	-1.387754	-0.224366
C41	C	-0.235162	-1.632766	0.260869
H42	H	-0.308399	-1.659666	0.318873
H43	H	-0.177908	-1.576937	0.317722
H44	H	-0.193513	-1.704994	0.231802
H45	H	-0.003815	-1.134008	0.101034
C46	C	0.396225	-0.855745	0.140893
H47	H	0.439896	-0.883540	0.225451
H48	H	0.394923	-0.765809	0.144520
H49	H	0.439199	-0.878558	0.053500
H50	H	0.146910	-1.712958	0.626990
H51	H	-0.009992	-0.916190	0.101649
C52	C	-0.435659	-1.757358	0.000235
H53	H	-0.411709	-1.800782	0.086714
H54	H	-0.410626	-1.801344	-0.085342
H55	H	-0.525864	-1.754207	-0.000575
C56	C	-0.023144	-1.147827	-0.136595
H57	H	-0.021044	-1.237732	-0.137407
H58	H	0.016093	-1.112583	-0.224212
H59	H	-0.109536	-1.127984	-0.132460
C60	C	-0.234817	-1.632838	-0.260428
H61	H	-0.258513	-1.589072	-0.346771
H62	H	-0.275501	-1.717300	-0.261301
H63	H	-0.144545	-1.635412	-0.258929
H64	H	-0.025687	-1.540846	0.370738
H65	H	0.363958	-1.088955	-0.146067
H66	H	0.317055	-1.657690	0.625486
C67	C	0.267501	-1.264546	0.357297
H68	H	0.257191	-1.209793	0.439250
H69	H	0.191984	-1.270817	0.298563
H70	H	0.338186	-1.230820	0.298969
H71	H	-0.377785	-1.387689	0.224503
C72	C	0.195823	-1.124115	-0.282441
H73	H	0.127526	-1.185685	-0.256024
H74	H	0.257099	-1.163695	-0.339441
H75	H	0.163314	-1.058446	-0.339215
C76	C	0.186883	-0.881937	-0.283154
H77	H	0.162412	-0.955987	-0.340323
H78	H	0.243345	-0.824890	-0.339473
H79	H	0.112837	-0.841445	-0.257404
C80	C	-0.029339	-0.903992	-0.135066
H81	H	0.023437	-0.844097	-0.192062
H82	H	-0.103103	-0.866107	-0.102665
H83	H	-0.054815	-0.976605	-0.194205
H84	H	0.356966	-0.872088	-0.147322
C85	C	0.191880	-1.121805	0.282229
H86	H	0.122879	-1.182268	0.254964
H87	H	0.159943	-1.054964	0.337556
H88	H	0.251287	-1.162333	0.341011
C89	C	0.015248	-1.345359	0.644286
H90	H	0.080411	-1.307704	0.707952
H91	H	-0.062801	-1.359481	0.697841
H92	H	0.004166	-1.289900	0.563219
H93	H	0.315217	-1.658800	0.370374
C94	C	0.425317	-1.421447	0.644416
H95	H	0.487273	-1.358386	0.605888
H96	H	0.445393	-1.503412	0.613644
H97	H	0.425722	-1.417276	0.749670
H98	H	0.212023	-0.887960	0.246373
H99	H	0.273762	-1.298617	0.627525
H100	H	0.362562	-1.090743	0.149945
C101	C	0.426448	-1.421977	0.358642
H102	H	0.481003	-1.431719	0.441141
H103	H	0.460462	-1.351790	0.300165
H104	H	0.420772	-1.497379	0.300334
C105	C	0.119485	-1.740682	0.358202
H106	H	0.058652	-1.705186	0.296468
H107	H	0.076915	-1.781572	0.440742
H108	H	0.161799	-1.801162	0.303277
H109	H	0.032071	-1.372688	0.372961
H110	H	-0.022872	-1.548976	0.626320
