data_functionalizedCrystal
_audit_creation_method	'MofGen! by Chris Wilmer'
_symmetry_space_group_name_H-M	'P1'
_symmetry_Int_Tables_number	1
_symmetry_cell_setting	triclinic
loop_
_symmetry_equiv_pos_as_xyz
  x,y,z
_cell_length_a	17.699083
_cell_length_b	14.519709
_cell_length_c	16.776229
_cell_angle_alpha	89.992406
_cell_angle_beta	89.998886
_cell_angle_gamma	83.481580
loop_
_atom_site_label
_atom_site_type_symbol
_atom_site_fract_x
_atom_site_fract_y
_atom_site_fract_z
O1	O	1.004412	0.116624	-0.066178
O2	O	1.337746	0.449958	0.267155
O3	O	1.671079	0.783291	0.600489
O4	O	0.784077	0.131797	-0.066204
O5	O	1.117411	0.465131	0.267129
O6	O	1.450744	0.798464	0.600462
O7	O	0.900087	-0.010052	-0.066183
O8	O	1.233420	0.323281	0.267150
O9	O	1.566753	0.656614	0.600483
O10	O	0.888403	0.258474	-0.066199
O11	O	1.221736	0.591807	0.267134
O12	O	1.555070	0.925141	0.600468
O13	O	0.900071	-0.010061	0.066393
O14	O	1.233405	0.323272	0.399726
O15	O	1.566738	0.656606	0.733060
O16	O	0.784062	0.131789	0.066372
O17	O	1.117395	0.465122	0.399705
O18	O	1.450729	0.798455	0.733039
O19	O	1.004397	0.116616	0.066398
O20	O	1.337730	0.449949	0.399732
O21	O	1.671064	0.783282	0.733065
Zn22	Zn	0.894227	0.124201	0.087435
Zn23	Zn	1.227560	0.457534	0.420768
Zn24	Zn	1.560894	0.790867	0.754101
Zn25	Zn	0.894247	0.124212	-0.087241
Zn26	Zn	1.227581	0.457546	0.246093
Zn27	Zn	1.560914	0.790879	0.579426
O28	O	0.888388	0.258465	0.066377
O29	O	1.221721	0.591799	0.399711
O30	O	1.555054	0.925132	0.733044
C31	C	0.755871	0.131249	0.000080
C32	C	1.089204	0.464583	0.333414
C33	C	1.422538	0.797916	0.666747
C34	C	0.671848	0.129618	0.000071
C35	C	1.005182	0.462952	0.333404
C36	C	1.338515	0.796285	0.666737
C37	C	0.623466	0.212881	0.000066
C38	C	0.956799	0.546214	0.333399
C39	C	1.290132	0.879548	0.666733
C40	C	0.544518	0.211343	0.000076
C41	C	0.877851	0.544676	0.333410
C42	C	1.211185	0.878010	0.666743
C43	C	0.513954	0.126541	0.000086
C44	C	0.847288	0.459875	0.333419
C45	C	1.180621	0.793208	0.666752
C46	C	0.562343	0.043272	0.000093
C47	C	0.895677	0.376605	0.333426
C48	C	1.229010	0.709939	0.666759
C49	C	0.641289	0.044811	0.000088
C50	C	0.974623	0.378144	0.333421
C51	C	1.307956	0.711478	0.666755
C52	C	0.243962	0.037064	0.000113
C53	C	0.577296	0.370397	0.333446
C54	C	0.910629	0.703730	0.666780
C55	C	0.165010	0.035531	0.000115
C56	C	0.498343	0.368864	0.333449
C57	C	0.831677	0.702198	0.666782
C58	C	0.147191	0.203596	0.000101
C59	C	0.480524	0.536929	0.333435
C60	C	0.813858	0.870262	0.666768
C61	C	0.226137	0.205135	0.000097
C62	C	0.559471	0.538468	0.333430
C63	C	0.892804	0.871801	0.666763
C64	C	0.274519	0.121866	0.000108
C65	C	0.607852	0.455199	0.333441
C66	C	0.941186	0.788533	0.666774
C67	C	0.360123	0.123535	0.000098
C68	C	0.693456	0.456868	0.333431
C69	C	1.026790	0.790201	0.666765
C70	C	0.428352	0.124872	0.000090
C71	C	0.761685	0.458205	0.333423
C72	C	1.095019	0.791538	0.666757
C73	C	0.899534	-0.044414	0.000105
C74	C	1.232868	0.288919	0.333438
C75	C	1.566201	0.622252	0.666772
C76	C	0.897903	-0.146789	0.000105
C77	C	1.231236	0.186545	0.333438
C78	C	1.564569	0.519878	0.666772
C79	C	0.891896	-0.521659	0.000084
C80	C	1.225229	-0.188326	0.333417
C81	C	1.558563	0.145008	0.666750
C82	C	0.893564	-0.417358	0.000090
C83	C	1.226897	-0.084025	0.333423
C84	C	1.560231	0.249309	0.666757
C85	C	0.894899	-0.334227	0.000095
C86	C	1.228232	-0.000894	0.333429
C87	C	1.561566	0.332440	0.666762
C88	C	0.896568	-0.229920	0.000100
C89	C	1.229901	0.103414	0.333433
C90	C	1.563234	0.436747	0.666767
C91	C	1.032603	0.117164	0.000112
C92	C	1.365937	0.450497	0.333445
C93	C	1.699270	0.783830	0.666778
C94	C	1.116626	0.118795	0.000116
C95	C	1.449959	0.452128	0.333450
C96	C	1.783293	0.785461	0.666783
C97	C	0.888940	0.292827	0.000087
C98	C	1.222273	0.626161	0.333421
C99	C	1.555607	0.959494	0.666754
C100	C	0.890572	0.395202	0.000082
C101	C	1.223905	0.728535	0.333415
C102	C	1.557238	1.061868	0.666748
N103	N	0.894219	0.124192	0.206646
N104	N	1.227552	0.457526	0.539979
N105	N	1.560885	0.790859	0.873312
N106	N	0.894262	0.124213	-0.206452
N107	N	1.227595	0.457547	0.126881
N108	N	1.560928	0.790880	0.460215
C109	C	0.945603	0.061407	0.248372
C110	C	1.278937	0.394740	0.581706
C111	C	1.612270	0.728074	0.915039
C112	C	0.945607	0.061406	0.331824
C113	C	1.278941	0.394740	0.665158
C114	C	1.612274	0.728073	0.998491
C115	C	0.894230	0.124196	0.373549
C116	C	1.227563	0.457529	0.706882
C117	C	1.560897	0.790863	1.040215
C118	C	0.842840	0.186984	0.331816
C119	C	1.176173	0.520318	0.665150
C120	C	1.509507	0.853651	0.998483
C121	C	0.842833	0.186980	0.248366
C122	C	1.176166	0.520313	0.581699
C123	C	1.509499	0.853647	0.915032
C124	C	0.842867	0.187002	0.668364
C125	C	1.176201	0.520336	1.001697
C126	C	1.509534	0.853669	1.335030
C127	C	0.842880	0.187004	0.751820
C128	C	1.176213	0.520337	1.085154
C129	C	1.509547	0.853670	1.418487
C130	C	0.945642	0.061429	0.751822
C131	C	1.278975	0.394762	1.085156
C132	C	1.612309	0.728095	1.418489
C133	C	0.945635	0.061424	0.668372
C134	C	1.278968	0.394758	1.001705
C135	C	1.612302	0.728091	1.335038
C136	C	0.894242	0.124209	0.626647
C137	C	1.227576	0.457542	0.959980
C138	C	1.560909	0.790876	1.293313
C139	C	0.894238	0.124208	0.536158
C140	C	1.227571	0.457541	0.869492
C141	C	1.560904	0.790875	1.202825
C142	C	0.894238	0.124202	0.464036
C143	C	1.227571	0.457536	0.797369
C144	C	1.560905	0.790869	1.130702
H145	H	0.251017	0.274189	0.000085
H146	H	0.584351	0.607522	0.333419
H147	H	0.917684	0.940856	0.666752
H148	H	0.505128	0.279144	0.000072
H149	H	0.838461	0.612478	0.333405
H150	H	1.171794	0.945811	0.666738
H151	H	0.987444	0.010280	0.214406
H152	H	1.320777	0.343614	0.547739
H153	H	1.654110	0.676947	0.881072
H154	H	0.801040	0.238137	0.785791
H155	H	1.134373	0.571470	1.119124
H156	H	1.467706	0.904803	1.452457
O157	O	0.135284	-0.046828	-0.000012
O158	O	0.468617	0.286506	0.333322
O159	O	0.801951	0.619839	0.666655
C160	C	0.090136	-0.052736	-0.068663
C161	C	0.423470	0.280597	0.264671
C162	C	0.756803	0.613930	0.598004
H163	H	0.108874	-0.004590	-0.116662
H164	H	0.442207	0.328743	0.216672
H165	H	0.775541	0.662076	0.550005
H166	H	0.097119	-0.127079	-0.091699
H167	H	0.430452	0.206255	0.241634
H168	H	0.763785	0.539588	0.574968
H169	H	0.027911	-0.031319	-0.053142
H170	H	0.361244	0.302014	0.280192
H171	H	0.694577	0.635348	0.613525
H172	H	0.283346	-0.030739	0.000123
H173	H	0.616679	0.302594	0.333456
H174	H	0.950013	0.635927	0.666789
H175	H	0.801023	0.238126	0.634398
H176	H	1.134357	0.571459	0.967731
H177	H	1.467690	0.904792	1.301064
O178	O	0.100222	0.284510	-0.000043
O179	O	0.433556	0.617844	0.333290
O180	O	0.766889	0.951177	0.666624
C181	C	0.114103	0.336018	-0.068703
C182	C	0.447436	0.669351	0.264630
C183	C	0.780770	1.002684	0.597964
H184	H	0.141015	0.287270	-0.116691
H185	H	0.474349	0.620603	0.216643
H186	H	0.807682	0.953936	0.549976
H187	H	0.058142	0.373127	-0.091750
H188	H	0.391475	0.706460	0.241583
H189	H	0.724809	1.039793	0.574916
H190	H	0.154374	0.389306	-0.053190
H191	H	0.487707	0.722639	0.280144
H192	H	0.821041	1.055973	0.613477
O193	O	0.995604	0.000392	0.372234
O194	O	1.328938	0.333725	0.705567
O195	O	1.662271	0.667059	1.038900
C196	C	1.040944	-0.055035	0.317512
C197	C	1.374277	0.278299	0.650845
C198	C	1.707610	0.611632	0.984179
H199	H	1.041832	-0.017228	0.258018
H200	H	1.375165	0.316105	0.591352
H201	H	1.708498	0.649439	0.924685
H202	H	1.101370	-0.069177	0.341615
H203	H	1.434703	0.264156	0.674948
H204	H	1.768037	0.597490	1.008282
H205	H	1.016293	-0.123517	0.308654
H206	H	1.349627	0.209816	0.641988
H207	H	1.682960	0.543149	0.975321
H208	H	0.537452	-0.025775	0.000112
H209	H	0.870786	0.307558	0.333445
H210	H	1.204119	0.640891	0.666779
O211	O	0.995630	0.000391	0.792232
O212	O	1.328964	0.333724	1.125565
O213	O	1.662297	0.667058	1.458898
C214	C	1.040962	-0.055042	0.737508
C215	C	1.374295	0.278291	1.070842
C216	C	1.707628	0.611624	1.404175
H217	H	1.041864	-0.017229	0.678019
H218	H	1.375197	0.316104	1.011352
H219	H	1.708530	0.649438	1.344686
H220	H	1.101385	-0.069210	0.761616
H221	H	1.434718	0.264124	1.094949
H222	H	1.768052	0.597457	1.428282
H223	H	1.016295	-0.123513	0.728640
H224	H	1.349628	0.209821	1.061974
H225	H	1.682961	0.543154	1.395307
H226	H	0.680683	-0.022990	0.000091
H227	H	1.014016	0.310343	0.333425
H228	H	1.347349	0.643676	0.666758
O229	O	0.793004	0.247944	0.372468
O230	O	1.126338	0.581277	0.705802
O231	O	1.459671	0.914611	1.039135
C232	C	0.804017	0.234473	0.455072
C233	C	1.137350	0.567806	0.788406
C234	C	1.470683	0.901140	1.121739
H235	H	0.864143	0.199914	0.466468
H236	H	1.197476	0.533247	0.799801
H237	H	1.530810	0.866580	1.133134
H238	H	0.795691	0.304330	0.486776
H239	H	1.129025	0.637663	0.820109
H240	H	1.462358	0.970997	1.153443
H241	H	0.761122	0.188285	0.478769
H242	H	1.094455	0.521618	0.812102
H243	H	1.427788	0.854952	1.145435
H244	H	0.800989	0.238105	0.214393
H245	H	1.134323	0.571438	0.547726
H246	H	1.467656	0.904772	0.881060
O247	O	0.995402	0.000383	0.627718
O248	O	1.328735	0.333716	0.961052
O249	O	1.662069	0.667050	1.294385
C250	C	0.984303	0.013754	0.545115
C251	C	1.317636	0.347087	0.878448
C252	C	1.650969	0.680420	1.211782
H253	H	0.956271	0.087181	0.533667
H254	H	1.289604	0.420515	0.867000
H255	H	1.622937	0.753848	1.200334
H256	H	1.041558	0.003155	0.513326
H257	H	1.374892	0.336489	0.846659
H258	H	1.708225	0.669822	1.179993
H259	H	0.946105	-0.038263	0.521557
H260	H	1.279438	0.295071	0.854890
H261	H	1.612772	0.628404	1.188223
O262	O	0.653026	0.295340	0.000091
O263	O	0.986359	0.628673	0.333425
O264	O	1.319693	0.962007	0.666758
C265	C	0.593389	0.368499	0.000071
C266	C	0.926722	0.701832	0.333404
C267	C	1.260056	1.035165	0.666737
H268	H	0.539728	0.342763	0.025175
H269	H	0.873061	0.676096	0.358509
H270	H	1.206395	1.009429	0.691842
H271	H	0.609966	0.427714	0.038556
H272	H	0.943300	0.761048	0.371889
H273	H	1.276633	1.094381	0.705223
H274	H	0.582249	0.394178	-0.063534
H275	H	0.915582	0.727511	0.269799
H276	H	1.248916	1.060845	0.603133
