data_functionalizedCrystal
_audit_creation_method	'MofGen! by Chris Wilmer'
_symmetry_space_group_name_H-M	'P1'
_symmetry_Int_Tables_number	1
_symmetry_cell_setting	triclinic
loop_
_symmetry_equiv_pos_as_xyz
  x,y,z
_cell_length_a	16.120484
_cell_length_b	16.625548
_cell_length_c	16.625539
_cell_angle_alpha	90.022345
_cell_angle_beta	92.868615
_cell_angle_gamma	87.074492
loop_
_atom_site_label
_atom_site_type_symbol
_atom_site_fract_x
_atom_site_fract_y
_atom_site_fract_z
Zn1	Zn	-0.331909	-1.216387	-0.472206
Zn2	Zn	0.001424	-0.883053	-0.138873
Zn3	Zn	0.334758	-0.549720	0.194461
Zn4	Zn	-0.471333	-1.209445	-0.344203
Zn5	Zn	-0.138000	-0.876112	-0.010869
Zn6	Zn	0.195333	-0.542779	0.322464
Zn7	Zn	-0.331938	-1.081547	-0.337384
Zn8	Zn	0.001396	-0.748214	-0.004050
Zn9	Zn	0.334729	-0.414880	0.329283
Zn10	Zn	-0.471282	-1.074677	-0.478986
Zn11	Zn	-0.137949	-0.741344	-0.145653
Zn12	Zn	0.195384	-0.408010	0.187681
O13	O	-0.401616	-1.145514	-0.408194
O14	O	-0.068282	-0.812181	-0.074861
O15	O	0.265051	-0.478847	0.258472
O16	O	-0.350413	-1.328298	-0.455242
O17	O	-0.017080	-0.994964	-0.121909
O18	O	0.316254	-0.661631	0.211424
O19	O	-0.452875	-1.192450	-0.230467
O20	O	-0.119542	-0.859116	0.102866
O21	O	0.213791	-0.525783	0.436199
O22	O	-0.215268	-1.105214	-0.349577
O23	O	0.118065	-0.771881	-0.016243
O24	O	0.451398	-0.438547	0.317090
O25	O	-0.452848	-1.323198	-0.361199
O26	O	-0.119514	-0.989865	-0.027866
O27	O	0.213819	-0.656531	0.305468
O28	O	-0.215247	-1.204280	-0.448630
O29	O	0.118086	-0.870947	-0.115297
O30	O	0.451420	-0.537613	0.218037
O31	O	-0.350462	-1.098483	-0.225457
O32	O	-0.017129	-0.765150	0.107876
O33	O	0.316204	-0.431817	0.441209
O34	O	-0.350413	-0.967804	-0.356151
O35	O	-0.017080	-0.634470	-0.022818
O36	O	0.316254	-0.301137	0.310516
O37	O	-0.452761	-1.093505	-0.590917
O38	O	-0.119428	-0.760171	-0.257584
O39	O	0.213906	-0.426838	0.075749
O40	O	-0.452789	-0.962756	-0.460186
O41	O	-0.119456	-0.629423	-0.126852
O42	O	0.213878	-0.296090	0.206481
O43	O	-0.350364	-1.197618	-0.585936
O44	O	-0.017031	-0.864285	-0.252603
O45	O	0.316303	-0.530952	0.080731
O46	O	-0.587992	-1.185788	-0.367773
O47	O	-0.254659	-0.852455	-0.034440
O48	O	0.078674	-0.519121	0.298893
O49	O	-0.587955	-1.086774	-0.466798
O50	O	-0.254622	-0.753441	-0.133464
O51	O	0.078712	-0.420107	0.199869
C52	C	-0.401599	-0.936024	-0.408165
C53	C	-0.068266	-0.602691	-0.074831
C54	C	0.265068	-0.269357	0.258502
C55	C	-0.401612	-0.846402	-0.408172
C56	C	-0.068279	-0.513069	-0.074839
C57	C	0.265055	-0.179736	0.258495
C58	C	-0.401610	-0.518227	-0.408196
C59	C	-0.068277	-0.184893	-0.074863
C60	C	0.265056	0.148440	0.258470
C61	C	-0.401609	-0.609535	-0.408187
C62	C	-0.068275	-0.276202	-0.074853
C63	C	0.265058	0.057131	0.258480
C64	C	-0.401612	-0.682312	-0.408183
C65	C	-0.068278	-0.348978	-0.074850
C66	C	0.265055	-0.015645	0.258483
C67	C	-0.401609	-0.773626	-0.408175
C68	C	-0.068276	-0.440293	-0.074842
C69	C	0.265058	-0.106959	0.258491
C70	C	-0.618224	-1.134804	-0.418779
C71	C	-0.284890	-0.801471	-0.085445
C72	C	0.048443	-0.468138	0.247888
C73	C	-0.710890	-1.130296	-0.423334
C74	C	-0.377556	-0.796963	-0.090000
C75	C	-0.044223	-0.463630	0.243333
C76	C	-0.880551	-1.122071	-0.431666
C77	C	-0.547218	-0.788737	-0.098333
C78	C	-0.213885	-0.455404	0.235000
C79	C	-0.921839	-1.169102	-0.384736
C80	C	-0.588506	-0.835769	-0.051402
C81	C	-0.255173	-0.502435	0.281931
C82	C	-1.016245	-1.164525	-0.389372
C83	C	-0.682912	-0.831192	-0.056039
C84	C	-0.349578	-0.497858	0.277294
C85	C	-0.786137	-1.126646	-0.427031
C86	C	-0.452804	-0.793313	-0.093698
C87	C	-0.119471	-0.459980	0.239636
C88	C	-0.184162	-1.156288	-0.397587
C89	C	0.149172	-0.822954	-0.064253
C90	C	0.482505	-0.489621	0.269080
C91	C	-0.091496	-1.160879	-0.393066
C92	C	0.241838	-0.827545	-0.059733
C93	C	0.575171	-0.494212	0.273601
C94	C	-0.401554	-1.145569	-0.618500
C95	C	-0.068220	-0.812236	-0.285167
C96	C	0.265113	-0.478903	0.048166
C97	C	-0.401527	-1.145593	-0.708120
C98	C	-0.068194	-0.812260	-0.374787
C99	C	0.265140	-0.478926	-0.041454
C100	C	-0.401627	-0.355822	-0.408217
C101	C	-0.068294	-0.022489	-0.074884
C102	C	0.265039	0.310844	0.258450
C103	C	-0.401618	-0.445444	-0.408206
C104	C	-0.068285	-0.112111	-0.074873
C105	C	0.265048	0.221223	0.258461
C106	C	-0.401434	-1.145635	-1.036292
C107	C	-0.068100	-0.812302	-0.702958
C108	C	0.265233	-0.478968	-0.369625
C109	C	-0.401462	-1.145621	-0.944984
C110	C	-0.068129	-0.812288	-0.611651
C111	C	0.265204	-0.478954	-0.278318
C112	C	-0.401481	-1.145614	-0.872209
C113	C	-0.068148	-0.812281	-0.538876
C114	C	0.265186	-0.478948	-0.205542
C115	C	-0.401508	-1.145600	-0.780896
C116	C	-0.068175	-0.812266	-0.447563
C117	C	0.265158	-0.478933	-0.114229
C118	C	-0.401617	-1.145508	-0.198704
C119	C	-0.068284	-0.812175	0.134630
C120	C	0.265049	-0.478841	0.467963
C121	C	-0.401409	-1.145652	-0.109073
C122	C	-0.068076	-0.812319	0.224260
C123	C	0.265258	-0.478986	0.557594
H124	H	-0.916102	-1.078371	-0.475323
H125	H	-0.582769	-0.745038	-0.141990
H126	H	-0.249435	-0.411705	0.191344
H127	H	-0.886286	-1.212803	-0.341075
H128	H	-0.552953	-0.879470	-0.007741
H129	H	-0.219620	-0.546137	0.325592
