data_functionalizedCrystal
_audit_creation_method	'MofGen! by Chris Wilmer'
_symmetry_space_group_name_H-M	'P1'
_symmetry_Int_Tables_number	1
_symmetry_cell_setting	triclinic
loop_
_symmetry_equiv_pos_as_xyz
  x,y,z
_cell_length_a	13.930277
_cell_length_b	8.559649
_cell_length_c	8.559649
_cell_angle_alpha	69.778664
_cell_angle_beta	89.996782
_cell_angle_gamma	89.993094
loop_
_atom_site_label
_atom_site_type_symbol
_atom_site_fract_x
_atom_site_fract_y
_atom_site_fract_z
O1	O	0.079816	-2.126888	0.055037
O2	O	0.079820	-1.651403	-0.028744
O3	O	0.079816	-1.931036	0.250889
O4	O	0.079819	-1.847255	-0.224596
O5	O	-0.079845	-1.931002	0.250890
O6	O	-0.079842	-1.651369	-0.028743
O7	O	-0.079846	-2.126854	0.055038
Zn8	Zn	-0.105194	-1.889106	0.013148
Zn9	Zn	0.105167	-1.889151	0.013146
O10	O	-0.079843	-1.847221	-0.224595
C11	C	-0.000011	-1.591077	-0.035093
C12	C	-0.000009	-1.411378	-0.053992
C13	C	-0.000013	-1.937369	0.311198
C14	C	-0.000008	-1.956268	0.490898
N15	N	-0.248760	-1.889088	0.013151
C16	C	-0.701028	-1.765331	-0.110632
C17	C	-0.701000	-2.013018	0.136943
C18	C	-0.600504	-2.012999	0.136946
C19	C	-0.550266	-1.889146	0.013156
C20	C	-0.600523	-1.765311	-0.110636
C21	C	-0.550240	-2.136841	0.260726
C22	C	-0.449738	-2.136829	0.260733
C23	C	-0.399497	-2.012967	0.136949
C24	C	-0.449761	-1.889126	0.013152
C25	C	-0.399522	-1.765273	-0.110638
C26	C	-0.449784	-1.641424	-0.234429
C27	C	-0.550282	-1.641449	-0.234421
C28	C	-0.298999	-2.012941	0.136941
C29	C	-0.299017	-1.765253	-0.110641
N30	N	0.248733	-1.889184	0.013157
C31	C	-0.000014	-2.187180	0.061387
C32	C	-0.000009	-2.366879	0.080286
C33	C	-0.000012	-1.840889	-0.284904
C34	C	-0.000010	-1.821990	-0.464604
H35	H	-0.408868	-1.540587	-0.335226
C36	C	-0.605026	-1.507196	-0.368728
C37	C	-0.703791	-1.533758	-0.342257
C38	C	-0.754253	-1.410138	-0.465962
H39	H	-0.588694	-1.401008	-0.364456
H40	H	-0.588603	-1.511532	-0.474881
H41	H	-0.720207	-1.529407	-0.236132
H42	H	-0.720151	-1.639923	-0.346545
H43	H	-0.737831	-1.414473	-0.572115
H44	H	-0.737913	-1.303958	-0.461680
H45	H	-0.821270	-1.428152	-0.448027
C46	C	-0.244354	-1.631029	-0.245098
C47	C	-0.186630	-1.705236	-0.333837
C48	C	-0.136252	-1.581645	-0.457696
H49	H	-0.288573	-1.557215	-0.318978
H50	H	-0.205100	-1.570684	-0.195030
H51	H	-0.225880	-1.765554	-0.383904
H52	H	-0.142393	-1.779038	-0.260003
H53	H	-0.096998	-1.521300	-0.407628
H54	H	-0.180478	-1.507838	-0.531564
H55	H	-0.097074	-1.631977	-0.517911
H56	H	-0.741953	-1.664490	-0.211418
C57	C	0.000192	-1.278942	-0.226618
C58	C	0.082346	-1.297280	-0.312940
C59	C	0.082572	-1.175298	-0.471955
H60	H	-0.055420	-1.290997	-0.285656
H61	H	0.000247	-1.171688	-0.216888
H62	H	0.082283	-1.404507	-0.322677
H63	H	0.137972	-1.285208	-0.253953
H64	H	0.082627	-1.068045	-0.462224
H65	H	0.026956	-1.187364	-0.530977
H66	H	0.138316	-1.187715	-0.530538
C67	C	-0.395169	-2.270889	0.395518
C68	C	-0.337617	-2.196373	0.484179
C69	C	-0.287378	-2.319748	0.608493
H70	H	-0.439471	-2.344528	0.469359
H71	H	-0.355810	-2.331475	0.345850
H72	H	-0.376973	-2.135814	0.533846
H73	H	-0.293298	-2.122746	0.410384
H74	H	-0.248019	-2.380334	0.558826
H75	H	-0.331686	-2.393380	0.682322
H76	H	-0.248317	-2.269206	0.668655
H77	H	-0.000013	-1.692570	0.436018
C78	C	-0.244293	-2.147157	0.271335
C79	C	-0.186579	-2.072969	0.360082
C80	C	-0.136156	-2.196568	0.483874
H81	H	-0.288485	-2.221015	0.345223
H82	H	-0.205029	-2.207453	0.221209
H83	H	-0.225840	-2.012702	0.410206
H84	H	-0.142369	-1.999123	0.286240
H85	H	-0.096892	-2.256863	0.433748
H86	H	-0.180355	-2.270418	0.557750
H87	H	-0.096984	-2.146248	0.544094
H88	H	-0.000005	-1.466258	0.209705
H89	H	-0.741908	-2.113863	0.237722
H90	H	-0.591147	-2.237686	0.361506
H91	H	-0.000016	-2.085696	0.590286
