data_functionalizedCrystal
_audit_creation_method	'MofGen! by Chris Wilmer'
_symmetry_space_group_name_H-M	'P1'
_symmetry_Int_Tables_number	1
_symmetry_cell_setting	triclinic
loop_
_symmetry_equiv_pos_as_xyz
  x,y,z
_cell_length_a	16.109301
_cell_length_b	14.586319
_cell_length_c	16.109301
_cell_angle_alpha	89.998390
_cell_angle_beta	83.461481
_cell_angle_gamma	89.996867
loop_
_atom_site_label
_atom_site_type_symbol
_atom_site_fract_x
_atom_site_fract_y
_atom_site_fract_z
O1	O	-1.103134	0.076185	-0.106861
O2	O	-0.603134	0.576185	0.393139
O3	O	-0.861072	0.076200	-0.120161
O4	O	-0.361072	0.576200	0.379839
O5	O	-0.988753	0.076183	0.007520
O6	O	-0.488753	0.576183	0.507520
O7	O	-0.975454	0.076203	-0.234542
O8	O	-0.475454	0.576203	0.265458
O9	O	-0.988737	-0.076298	0.007512
O10	O	-0.488737	0.423702	0.507512
O11	O	-0.861057	-0.076281	-0.120168
O12	O	-0.361057	0.423719	0.379832
O13	O	-1.103119	-0.076295	-0.106869
O14	O	-0.603119	0.423705	0.393131
Cu15	Cu	-0.982086	-0.090211	-0.113519
Cu16	Cu	-0.482086	0.409789	0.386481
Cu17	Cu	-0.982105	0.090115	-0.113510
Cu18	Cu	-0.482105	0.590115	0.386490
O19	O	-0.975438	-0.076278	-0.234550
O20	O	-0.475438	0.423722	0.265450
C21	C	-0.830090	-0.000038	-0.119626
C22	C	-0.330090	0.499962	0.380374
C23	C	-0.737794	-0.000033	-0.118011
C24	C	-0.237794	0.499967	0.381989
N25	N	-0.982079	-0.217042	-0.113525
N26	N	-0.482079	0.282958	0.386475
C27	C	-0.988206	-0.000058	0.038491
C28	C	-0.488206	0.499942	0.538491
C29	C	-0.986591	-0.000059	0.130786
C30	C	-0.486591	0.499941	0.630786
C31	C	-1.134101	-0.000055	-0.107404
C32	C	-0.634101	0.499945	0.392596
C33	C	-1.226397	-0.000054	-0.109019
C34	C	-0.726397	0.499946	0.390981
C35	C	-0.515522	-0.000038	-0.190018
C36	C	-0.015522	0.499962	0.309982
C37	C	-0.428801	-0.000044	-0.188494
C38	C	0.071199	0.499956	0.311506
C39	C	-0.448676	-0.000052	-0.037006
C40	C	0.051324	0.499948	0.462994
C41	C	-0.535394	-0.000053	-0.038530
C42	C	-0.035394	0.499947	0.461470
C43	C	-0.568815	-0.000041	-0.115039
C44	C	-0.068815	0.499959	0.384961
C45	C	-0.395376	-0.000046	-0.111990
C46	C	0.104624	0.499954	0.388010
C47	C	-0.301350	-0.000053	-0.110337
C48	C	0.198650	0.499947	0.389663
C49	C	-0.662847	-0.000036	-0.116693
C50	C	-0.162847	0.499964	0.383307
C51	C	-1.032502	-0.452048	-0.163954
C52	C	-0.532502	0.047952	0.336046
C53	C	-1.032511	-0.548029	-0.163948
C54	C	-0.532511	-0.048029	0.336052
C55	C	-0.931693	-0.548041	-0.063064
C56	C	-0.431693	-0.048041	0.436936
C57	C	-0.931690	-0.452061	-0.063066
C58	C	-0.431690	0.047939	0.436934
C59	C	-0.982093	-0.404067	-0.113515
C60	C	-0.482093	0.095933	0.386485
C61	C	-0.982105	-0.596028	-0.113508
C62	C	-0.482105	-0.096028	0.386492
C63	C	-0.982114	-0.700095	-0.113501
C64	C	-0.482114	-0.200095	0.386499
C65	C	-0.982085	-0.299993	-0.113521
C66	C	-0.482085	0.200007	0.386479
N67	N	-0.982118	0.216947	-0.113498
N68	N	-0.482118	0.716947	0.386502
C69	C	-0.975984	-0.000035	-0.265521
C70	C	-0.475984	0.499965	0.234479
C71	C	-0.977600	-0.000028	-0.357816
C72	C	-0.477600	0.499972	0.142184
C73	C	-1.058599	-0.000049	0.353059
C74	C	-0.558599	0.499951	0.853059
C75	C	-1.057075	-0.000041	0.439779
C76	C	-0.557075	0.499959	0.939779
C77	C	-0.905586	-0.000036	0.419905
C78	C	-0.405586	0.499964	0.919905
C79	C	-0.907111	-0.000037	0.333186
C80	C	-0.407111	0.499963	0.833186
C81	C	-0.983620	-0.000048	0.299766
C82	C	-0.483620	0.499952	0.799766
C83	C	-0.980571	-0.000039	0.473205
C84	C	-0.480571	0.499961	0.973205
C85	C	-0.978918	-0.000031	0.567231
C86	C	-0.478918	0.499969	1.067231
C87	C	-0.985273	-0.000055	0.205734
C88	C	-0.485273	0.499945	0.705734
H89	H	-0.385413	-0.000043	-0.249550
H90	H	0.114587	0.499957	0.250450
H91	H	-0.421454	-0.000067	0.025285
H92	H	0.078546	0.499933	0.525285
N93	N	-0.877319	-0.400309	-0.008655
N94	N	-0.377319	0.099691	0.491345
H95	H	-0.816825	-0.417013	-0.025036
H96	H	-0.316825	0.082987	0.474964
H97	H	-0.885038	-0.332240	-0.016331
H98	H	-0.385038	0.167760	0.483669
N99	N	-1.086865	-0.400281	-0.218361
N100	N	-0.586865	0.099719	0.281639
H101	H	-1.118802	-0.445244	-0.250311
H102	H	-0.618802	0.054756	0.249689
H103	H	-1.127515	-0.360454	-0.182121
H104	H	-0.627515	0.139546	0.317879
H105	H	-1.120897	-0.000056	0.325851
H106	H	-0.620897	0.499944	0.825851
H107	H	-0.542730	-0.000035	-0.252317
H108	H	-0.042730	0.499965	0.247683
N109	N	-0.592883	-0.000067	0.042343
N110	N	-0.092883	0.499933	0.542343
H111	H	-0.558554	-0.000069	0.091043
H112	H	-0.058554	0.499931	0.591043
H113	H	-0.629303	0.056456	0.045013
H114	H	-0.129303	0.556456	0.545013
H115	H	-1.073560	-0.587091	-0.205019
H116	H	-0.573560	-0.087091	0.294981
N117	N	-1.137945	-0.000042	0.497261
N118	N	-0.637945	0.499958	0.997261
H119	H	-1.186640	-0.000050	0.462927
H120	H	-0.686640	0.499950	0.962927
H121	H	-1.140605	-0.056567	0.533677
H122	H	-0.640605	0.443433	1.033677
H123	H	-0.843295	-0.000028	0.447127
H124	H	-0.343295	0.499972	0.947127
N125	N	-0.826237	-0.000029	0.275698
N126	N	-0.326237	0.499971	0.775698
H127	H	-0.777538	-0.000028	0.310026
H128	H	-0.277538	0.499972	0.810026
H129	H	-0.823567	-0.056554	0.239284
H130	H	-0.323567	0.443446	0.739284
N131	N	-0.877332	-0.599806	-0.008653
N132	N	-0.377332	-0.099806	0.491347
H133	H	-0.884981	-0.667889	-0.016305
H134	H	-0.384981	-0.167889	0.483695
H135	H	-0.816862	-0.583034	-0.025062
H136	H	-0.316862	-0.083034	0.474938
