data_functionalizedCrystal
_audit_creation_method	'MofGen! by Chris Wilmer'
_symmetry_space_group_name_H-M	'P1'
_symmetry_Int_Tables_number	1
_symmetry_cell_setting	triclinic
loop_
_symmetry_equiv_pos_as_xyz
  x,y,z
_cell_length_a	15.944480
_cell_length_b	15.944499
_cell_length_c	10.268362
_cell_angle_alpha	90.002038
_cell_angle_beta	89.996335
_cell_angle_gamma	96.526272
loop_
_atom_site_label
_atom_site_type_symbol
_atom_site_fract_x
_atom_site_fract_y
_atom_site_fract_z
O1	O	-1.114541	0.108053	0.108263
O2	O	-0.869981	0.121471	0.108270
O3	O	-0.998962	-0.007518	0.108269
O4	O	-0.985560	0.237041	0.108265
O5	O	-0.998951	-0.007523	-0.108332
O6	O	-0.869970	0.121466	-0.108330
O7	O	-1.114530	0.108047	-0.108338
Cu8	Cu	-0.992249	0.114756	-0.128111
Cu9	Cu	-0.992262	0.114762	0.128044
O10	O	-0.985549	0.237036	-0.108336
C11	C	-0.838680	0.120922	-0.000029
C12	C	-0.745432	0.119283	-0.000026
C13	C	-0.509656	0.195216	-0.000024
C14	C	-0.459100	0.154274	-0.106824
C15	C	-0.574710	0.116247	-0.000026
C16	C	-0.459115	0.154261	0.106728
C17	C	-0.409800	0.113320	-0.000022
C18	C	-0.525382	0.075326	-0.106914
C19	C	-0.525401	0.075324	0.106733
C20	C	-0.474877	0.034324	-0.000093
C21	C	-0.669710	0.117935	-0.000030
C22	C	-0.314803	0.111625	-0.000027
C23	C	-0.998408	-0.038815	-0.000028
C24	C	-0.996763	-0.132063	-0.000019
C25	C	-1.071697	-0.423618	-0.000028
C26	C	-1.032739	-0.362585	-0.106827
C27	C	-0.990786	-0.467698	-0.000034
C28	C	-1.032728	-0.362586	0.106724
C29	C	-0.993727	-0.302790	-0.000024
C30	C	-0.951805	-0.407893	-0.106921
C31	C	-0.951806	-0.407901	0.106727
C32	C	-0.912789	-0.346886	-0.000098
C33	C	-0.989095	-0.562697	-0.000040
C34	C	-0.995413	-0.207791	-0.000027
C35	C	-0.145829	0.108608	-0.000033
C36	C	-0.239073	0.110281	-0.000021
C37	C	-0.986103	0.268333	-0.000036
C38	C	-0.987748	0.361581	-0.000038
N39	N	-0.992246	0.114751	-0.308277
C40	C	-0.992258	0.114761	-0.573948
C41	C	-0.992248	0.114758	-0.426110
N42	N	-0.992272	0.114761	0.308210
H43	H	-0.459424	-0.033748	-0.000154
H44	H	-1.066958	-0.342506	-0.197117
N45	N	-0.906503	-0.434342	-0.226648
H46	H	-0.905674	-0.497585	-0.225934
H47	H	-0.936857	-0.417423	-0.307148
N48	N	-0.563761	0.031177	0.226332
H49	H	-0.539534	0.061074	0.306963
H50	H	-0.626978	0.032153	0.224881
N51	N	-0.906516	-0.434537	0.226324
H52	H	-0.937138	-0.418251	0.306956
H53	H	-0.905254	-0.497717	0.224851
H54	H	-1.066969	-0.342512	0.197006
N55	N	-0.530339	0.285314	-0.000143
H56	H	-0.506085	0.315045	-0.080892
H57	H	-0.593628	0.285741	0.000740
N58	N	-0.420758	0.198437	-0.226432
H59	H	-0.433115	0.259176	-0.226357
H60	H	-0.357674	0.196442	-0.225918
N61	N	-0.823771	-0.302902	-0.000184
H62	H	-0.825383	-0.239763	0.000577
H63	H	-0.793011	-0.320175	0.079700
H64	H	-0.554211	0.041994	-0.197296
H65	H	-0.430175	0.187629	0.197007
N66	N	-1.160639	-0.467794	-0.000153
H67	H	-1.191090	-0.451442	-0.080903
H68	H	-1.158810	-0.530900	0.000725
