data_functionalizedCrystal
_audit_creation_method	'MofGen! by Chris Wilmer'
_symmetry_space_group_name_H-M	'P1'
_symmetry_Int_Tables_number	1
_symmetry_cell_setting	triclinic
loop_
_symmetry_equiv_pos_as_xyz
  x,y,z
_cell_length_a	19.805407
_cell_length_b	12.759400
_cell_length_c	19.805407
_cell_angle_alpha	90.010402
_cell_angle_beta	90.007417
_cell_angle_gamma	90.014685
loop_
_atom_site_label
_atom_site_type_symbol
_atom_site_fract_x
_atom_site_fract_y
_atom_site_fract_z
Zn1	Zn	1.034710	-0.418424	0.382740
Zn2	Zn	1.034672	-0.594078	0.269560
Zn3	Zn	0.921548	-0.418413	0.269565
Zn4	Zn	0.921511	-0.594061	0.382707
O5	O	0.978110	-0.506244	0.326143
O6	O	1.129421	-0.441736	0.367738
O7	O	1.019665	-0.570778	0.174844
O8	O	0.936591	-0.271394	0.284593
O9	O	1.129393	-0.570788	0.284586
O10	O	1.019730	-0.271401	0.367742
O11	O	0.936554	-0.441718	0.174847
O12	O	0.826827	-0.441702	0.284561
O13	O	0.936527	-0.570760	0.477428
O14	O	0.826799	-0.570750	0.367686
O15	O	1.019694	-0.441720	0.477452
O16	O	1.019629	-0.741097	0.284554
O17	O	0.936490	-0.741084	0.367682
C18	C	0.802254	-0.506224	0.326121
C19	C	0.727022	-0.506241	0.326128
C20	C	0.691681	-0.573537	0.369341
C21	C	0.620993	-0.573539	0.369351
C22	C	0.585647	-0.506249	0.326143
C23	C	0.620992	-0.438945	0.282928
C24	C	0.691679	-0.438939	0.282922
C25	C	0.335919	-0.438968	0.282950
C26	C	0.265227	-0.438982	0.282958
C27	C	0.265233	-0.573568	0.369379
C28	C	0.335920	-0.573562	0.369373
C29	C	0.371259	-0.506255	0.326161
C30	C	0.447908	-0.506252	0.326152
C31	C	0.508999	-0.506256	0.326148
C32	C	0.978070	-0.779211	0.326129
C33	C	0.978115	-0.895988	0.326145
C34	C	1.021453	-0.950821	0.282908
C35	C	1.021495	-1.060545	0.282929
C36	C	0.934854	-1.060593	0.369426
C37	C	0.934816	-0.950871	0.369408
C38	C	1.064752	-0.895939	0.239646
C39	C	1.108093	-0.950772	0.196404
C40	C	1.108134	-1.060496	0.196425
C41	C	1.064835	-1.115387	0.239687
C42	C	1.154653	-0.506265	0.326165
C43	C	1.229885	-0.506274	0.326175
C44	C	0.978111	-0.506239	0.502686
C45	C	0.978111	-0.506237	0.577918
C46	C	0.978169	-0.232211	0.326172
C47	C	0.978194	-0.115434	0.326184
C48	C	0.934841	-0.439043	0.613263
C49	C	0.934839	-0.439050	0.683951
C50	C	0.978110	-0.506246	0.719293
C51	C	1.021381	-0.573448	0.683943
C52	C	1.021380	-0.573446	0.613256
C53	C	1.021388	-0.573460	0.969016
C54	C	1.021388	-0.573455	1.039708
C55	C	0.934847	-0.439064	1.039712
C56	C	0.934845	-0.439062	0.969025
C57	C	0.978114	-0.506267	0.933681
C58	C	0.978115	-0.506260	0.857032
C59	C	0.978113	-0.506249	0.795940
C60	C	0.978107	-0.506270	1.150287
C61	C	0.978114	-0.506265	1.075055
H62	H	0.592222	-0.628339	0.404538
H63	H	0.364695	-0.628360	0.404555
Br64	Br	1.080117	-0.664655	1.087672
H65	H	0.236451	-0.628369	0.404567
H66	H	0.899602	-0.384338	0.712726
H67	H	0.899601	-1.105293	0.404647
H68	H	0.899612	-0.384340	0.940253
Br69	Br	0.217257	-0.347655	0.224314
H70	H	1.064721	-0.806596	0.239622
Br71	Br	0.876002	-0.876447	0.428091
H72	H	1.064877	-1.204731	0.239706
Br73	Br	0.876123	-0.347857	1.087682
Br74	Br	0.383871	-0.347617	0.224308
Br75	Br	0.739643	-0.347599	0.224277
Br76	Br	1.166862	-0.876282	0.137703
H77	H	1.056613	-0.628194	0.940248
Br78	Br	0.876118	-0.347835	0.565306
Br79	Br	1.080101	-0.664654	0.731906
H80	H	1.143430	-1.105139	0.161221
H81	H	0.720455	-0.628336	0.404524
Br82	Br	0.573023	-0.347612	0.224294
Br83	Br	1.080100	-0.664649	0.565286
