data_functionalizedCrystal
_audit_creation_method	'MofGen! by Chris Wilmer'
_symmetry_space_group_name_H-M	'P1'
_symmetry_Int_Tables_number	1
_symmetry_cell_setting	triclinic
loop_
_symmetry_equiv_pos_as_xyz
  x,y,z
_cell_length_a	8.634740
_cell_length_b	8.597249
_cell_length_c	15.455313
_cell_angle_alpha	100.404067
_cell_angle_beta	86.904091
_cell_angle_gamma	92.880205
loop_
_atom_site_label
_atom_site_type_symbol
_atom_site_fract_x
_atom_site_fract_y
_atom_site_fract_z
O1	O	2.056934	0.510103	-0.034004
O2	O	1.607633	0.466835	-0.037239
O3	O	1.842713	0.259955	-0.052698
O4	O	1.821855	0.716983	-0.018546
O5	O	1.829269	0.271728	0.092444
O6	O	1.594190	0.478608	0.107902
O7	O	2.043491	0.521876	0.111137
Cu8	Cu	1.817613	0.501317	0.122773
Cu9	Cu	1.833511	0.487394	-0.048874
O10	O	1.808411	0.728756	0.126596
C11	C	1.543382	0.462920	0.034599
C12	C	1.371963	0.433694	0.032414
C13	C	1.834500	0.206724	0.015453
C14	C	1.830037	0.030570	0.002284
C15	C	2.107742	0.525792	0.039297
C16	C	2.279161	0.555017	0.041476
C17	C	1.816625	0.781987	0.058443
C18	C	1.821088	0.958141	0.071606
N19	N	1.806442	0.511111	0.243500
N20	N	1.844694	0.477590	-0.169603
C21	C	1.906347	0.423264	0.282330
C22	C	1.897914	0.430687	0.373692
C23	C	1.789581	0.525967	0.426224
C24	C	1.689665	0.613816	0.387388
C25	C	1.698093	0.606383	0.296026
C26	C	1.753206	0.558007	0.700200
C27	C	1.744789	0.565437	0.791567
C28	C	1.953036	0.382304	0.777865
C29	C	1.961460	0.374887	0.686503
C30	C	1.861539	0.462731	0.647675
N31	N	1.780961	0.533560	0.519612
N32	N	1.870153	0.455127	0.554288
H33	H	1.816841	0.030895	0.141025
H34	H	2.034386	0.310785	0.809488
C35	C	1.708708	-0.034052	-0.136563
C36	C	1.835762	-0.067648	-0.091437
H37	H	1.712245	-0.094685	-0.194422
H38	H	1.615156	-0.060103	-0.106171
H39	H	1.712575	0.075416	-0.139711
H40	H	1.831889	-0.177114	-0.088283
H41	H	1.929338	-0.041608	-0.121836
H42	H	1.994570	0.345685	0.239564
H43	H	1.320270	0.307456	0.022956
H44	H	1.979263	0.359154	0.405307
H45	H	1.656567	0.643030	0.834336
C46	C	2.166442	0.194596	0.682139
C47	C	2.080535	0.270143	0.628762
H48	H	2.239949	0.129927	0.646489
H49	H	2.219218	0.271862	0.723316
H50	H	2.098418	0.130743	0.712799
H51	H	2.148558	0.334005	0.598106
H52	H	2.027756	0.192867	0.587569
C53	C	1.546533	0.739784	0.722934
C54	C	1.643385	0.654578	0.657528
H55	H	1.478740	0.799412	0.696587
H56	H	1.487189	0.668314	0.753021
H57	H	1.607990	0.809431	0.763545
H58	H	1.581928	0.584921	0.616921
H59	H	1.702734	0.726056	0.627427
C60	C	1.584292	0.706539	0.533522
C61	C	1.570586	0.718554	0.445129
H62	H	1.510784	0.771214	0.569167
H63	H	1.565292	0.599583	0.540418
H64	H	1.686093	0.740700	0.550931
H65	H	1.468788	0.684382	0.427718
H66	H	1.589575	0.825533	0.438229
C67	C	1.491419	0.788163	0.318742
C68	C	1.588281	0.702956	0.253342
H69	H	1.423629	0.847787	0.292390
H70	H	1.432072	0.716695	0.348829
H71	H	1.552870	0.857815	0.359354
H72	H	1.526830	0.633295	0.212733
H73	H	1.647633	0.774432	0.223241
H74	H	1.330849	0.681245	0.050917
