data_functionalizedCrystal
_audit_creation_method	'MofGen! by Chris Wilmer'
_symmetry_space_group_name_H-M	'P1'
_symmetry_Int_Tables_number	1
_symmetry_cell_setting	triclinic
loop_
_symmetry_equiv_pos_as_xyz
  x,y,z
_cell_length_a	10.686220
_cell_length_b	18.050589
_cell_length_c	18.050583
_cell_angle_alpha	89.968090
_cell_angle_beta	94.355416
_cell_angle_gamma	94.409750
loop_
_atom_site_label
_atom_site_type_symbol
_atom_site_fract_x
_atom_site_fract_y
_atom_site_fract_z
Zn1	Zn	1.928980	-0.208408	-0.332940
Zn2	Zn	1.928824	-0.332628	-0.208767
Zn3	Zn	1.717981	-0.217987	-0.218280
Zn4	Zn	1.717897	-0.342103	-0.342428
O5	O	1.823421	-0.275282	-0.275604
O6	O	2.105537	-0.216912	-0.308516
O7	O	1.900825	-0.317465	-0.106105
O8	O	1.746071	-0.112788	-0.233501
O9	O	2.105422	-0.308176	-0.217287
O10	O	1.901091	-0.105750	-0.317741
O11	O	1.745920	-0.233239	-0.113095
O12	O	1.541393	-0.242426	-0.242701
O13	O	1.745928	-0.324324	-0.445093
O14	O	1.541331	-0.333613	-0.333911
O15	O	1.901009	-0.226099	-0.438122
O16	O	1.900744	-0.437814	-0.226486
O17	O	1.745776	-0.444775	-0.324687
C18	C	1.495577	-0.290087	-0.290368
C19	C	1.355324	-0.296439	-0.296702
C20	C	1.823268	-0.468241	-0.275598
C21	C	1.823319	-0.550784	-0.275616
C22	C	1.739130	-0.754043	-0.328996
C23	C	1.708378	-0.804884	-0.262615
C24	C	1.823443	-0.701909	-0.275620
C25	C	1.854257	-0.798147	-0.342005
C26	C	1.823560	-0.847889	-0.275630
C27	C	1.792630	-0.751665	-0.209206
C28	C	1.938562	-0.744922	-0.288639
C29	C	1.907854	-0.795738	-0.222210
C30	C	1.823372	-0.617814	-0.275615
C31	C	1.823631	-0.931982	-0.275627
C32	C	2.152544	-0.260419	-0.260782
C33	C	2.292797	-0.254085	-0.254466
C34	C	1.823476	-0.275200	-0.469307
C35	C	1.823500	-0.275165	-0.551852
C36	C	1.823608	-0.081567	-0.275624
C37	C	1.823688	0.000982	-0.275633
C38	C	1.907918	-0.221723	-0.747508
C39	C	1.792832	-0.208749	-0.802092
C40	C	1.823551	-0.275150	-0.702980
C41	C	1.938683	-0.288075	-0.795476
C42	C	1.823610	-0.275133	-0.848962
C43	C	1.708404	-0.262144	-0.756479
C44	C	1.854332	-0.341498	-0.749855
C45	C	1.739167	-0.328553	-0.804420
C46	C	1.823518	-0.275157	-0.618883
C47	C	1.823629	-0.275127	-0.933058
C48	C	1.823438	-0.275306	-0.082651
C49	C	1.823658	-0.275121	-0.000096
H50	H	1.667725	-0.735614	-0.374080
F51	F	1.581131	-0.247769	-0.733988
F52	F	1.645838	-0.387599	-0.836758
H53	H	1.301553	-0.337567	-0.337707
F54	F	1.758481	-0.725041	-0.135815
H55	H	1.766815	-0.152633	-0.824992
H56	H	1.880273	-0.818614	-0.398142
F57	F	2.001117	-0.819650	-0.163155
F58	F	1.363069	-0.200337	-0.200865
H59	H	1.611080	-0.831066	-0.251614
H60	H	2.035838	-0.718743	-0.299674
F61	F	2.001025	-0.162642	-0.715011
F62	F	1.888384	-0.414821	-0.719899
F63	F	2.065914	-0.302375	-0.818090
