data_functionalizedCrystal
_audit_creation_method	'MofGen! by Chris Wilmer'
_symmetry_space_group_name_H-M	'P1'
_symmetry_Int_Tables_number	1
_symmetry_cell_setting	triclinic
loop_
_symmetry_equiv_pos_as_xyz
  x,y,z
_cell_length_a	10.654550
_cell_length_b	16.109301
_cell_length_c	14.586319
_cell_angle_alpha	90.000787
_cell_angle_beta	89.997374
_cell_angle_gamma	96.026808
loop_
_atom_site_label
_atom_site_type_symbol
_atom_site_fract_x
_atom_site_fract_y
_atom_site_fract_z
O1	O	0.161419	-1.104091	-0.076180
O2	O	0.181507	-0.862148	-0.076194
O3	O	-0.011352	-0.988682	-0.076183
O4	O	0.354278	-0.977557	-0.076191
O5	O	-0.011354	-0.988673	0.076297
O6	O	0.181504	-0.862139	0.076287
O7	O	0.161416	-1.104082	0.076301
Cu8	Cu	0.171460	-0.983110	0.090216
Cu9	Cu	0.171463	-0.983120	-0.090110
O10	O	0.354275	-0.977548	0.076290
C11	C	0.180692	-0.831164	0.000044
C12	C	0.178253	-0.738854	0.000039
C13	C	-0.058140	-0.987861	0.000056
C14	C	-0.197550	-0.985417	0.000053
N15	N	0.171457	-0.983108	0.217048
C16	C	-0.278046	-1.059918	0.000060
C17	C	-0.409036	-1.057616	0.000053
C18	C	-0.379020	-0.906306	0.000036
C19	C	-0.248033	-0.908608	0.000036
C20	C	-0.227564	-1.136726	0.000076
C21	C	-0.308061	-1.211233	0.000084
C22	C	-0.439051	-1.208932	0.000078
C23	C	-0.489543	-1.132123	0.000063
C24	C	0.401063	-0.978369	0.000049
C25	C	0.540473	-0.980813	0.000046
C26	C	0.162231	-1.135066	0.000060
C27	C	0.164671	-1.227376	0.000060
C28	C	0.287019	-0.517228	0.000047
C29	C	0.284717	-0.430494	0.000053
C30	C	0.055896	-0.449008	0.000054
C31	C	0.058199	-0.535741	0.000055
C32	C	0.173764	-0.569848	0.000047
C33	C	0.169159	-0.396382	0.000052
C34	C	0.166662	-0.302341	0.000058
C35	C	0.176262	-0.663895	0.000042
N36	N	0.171457	-0.983128	-0.216942
C37	C	0.086088	-1.039156	0.452059
C38	C	0.086084	-1.039159	0.548041
C39	C	0.256830	-0.927074	0.548040
C40	C	0.256826	-0.927068	0.452061
C41	C	0.171456	-0.983114	0.404073
C42	C	0.171457	-0.983122	0.596034
C43	C	0.171455	-0.983124	0.700101
C44	C	0.171457	-0.983111	0.299999
H45	H	-0.266942	-1.273768	0.000073
H46	H	-0.596205	-1.130255	0.000048
N47	N	-0.063959	-0.592503	0.000065
H48	H	-0.137518	-0.557736	0.000065
H49	H	-0.067987	-0.628897	-0.056459
N50	N	-0.433478	-0.823469	0.000041
H51	H	-0.362606	-0.776620	0.000038
H52	H	-0.487174	-0.819219	-0.056483
N53	N	-0.006005	-1.099581	0.400289
H54	H	0.041986	-1.136668	0.360456
H55	H	-0.060077	-1.135027	0.445306
H56	H	-0.504589	-1.269599	0.000075
H57	H	0.326344	-0.881428	0.412988
N58	N	-0.005974	-1.099616	0.599799
H59	H	-0.060045	-1.135121	0.554831
H60	H	0.042144	-1.136640	0.639609
N61	N	0.348904	-0.866627	0.599799
H62	H	0.335956	-0.875135	0.667884
H63	H	0.437998	-0.876741	0.583015
H64	H	-0.120907	-1.138609	0.000084
H65	H	-0.182490	-0.847943	0.000031
N66	N	0.411660	-0.554015	0.000055
H67	H	0.395938	-0.616944	0.000054
H68	H	0.461225	-0.534812	-0.056469
N69	N	-0.068741	-0.412217	0.000044
H70	H	-0.140138	-0.458715	0.000045
H71	H	-0.074689	-0.376631	0.056568
N72	N	0.406869	-0.373739	0.000105
H73	H	0.480422	-0.408510	0.000116
H74	H	0.410946	-0.337327	-0.056404
