data_functionalizedCrystal
_audit_creation_method	'MofGen! by Chris Wilmer'
_symmetry_space_group_name_H-M	'P1'
_symmetry_Int_Tables_number	1
_symmetry_cell_setting	triclinic
loop_
_symmetry_equiv_pos_as_xyz
  x,y,z
_cell_length_a	29.839131
_cell_length_b	29.839134
_cell_length_c	13.032268
_cell_angle_alpha	97.163839
_cell_angle_beta	82.859460
_cell_angle_gamma	89.980268
loop_
_atom_site_label
_atom_site_type_symbol
_atom_site_fract_x
_atom_site_fract_y
_atom_site_fract_z
Zn1	Zn	-0.211343	-0.654467	0.590854
Zn2	Zn	0.288657	-0.154467	1.090854
Zn3	Zn	-0.276941	-0.663938	0.416102
Zn4	Zn	0.223059	-0.163938	0.916102
Zn5	Zn	-0.201799	-0.588888	0.416127
Zn6	Zn	0.298201	-0.088888	0.916127
Zn7	Zn	-0.286415	-0.579302	0.590783
Zn8	Zn	0.213585	-0.079302	1.090783
O9	O	-0.244125	-0.621649	0.503467
O10	O	0.255875	-0.121649	1.003467
O11	O	-0.220075	-0.718590	0.567692
O12	O	0.279925	-0.218590	1.067692
O13	O	-0.259015	-0.661958	0.269877
O14	O	0.240985	-0.161958	0.769877
O15	O	-0.140200	-0.597635	0.439345
O16	O	0.359800	-0.097635	0.939345
O17	O	-0.268269	-0.725548	0.439303
O18	O	0.231731	-0.225548	0.939303
O19	O	-0.147212	-0.645816	0.567716
O20	O	0.352788	-0.145816	1.067716
O21	O	-0.203808	-0.606819	0.269896
O22	O	0.296192	-0.106819	0.769896
O23	O	-0.212994	-0.524750	0.439277
O24	O	0.287006	-0.024750	0.939277
O25	O	-0.284415	-0.581297	0.737020
O26	O	0.215585	-0.081297	1.237020
O27	O	-0.275161	-0.517707	0.567595
O28	O	0.224839	-0.017707	1.067595
O29	O	-0.229260	-0.636521	0.737073
O30	O	0.270740	-0.136521	1.237073
O31	O	-0.341063	-0.652663	0.439234
O32	O	0.158937	-0.152663	0.939234
O33	O	-0.348023	-0.590481	0.567571
O34	O	0.151977	-0.090481	1.067571
C35	C	-0.244070	-0.504928	0.503432
C36	C	0.255930	-0.004928	1.003432
C37	C	-0.244059	-0.454993	0.503441
C38	C	0.255941	0.045007	1.003441
C39	C	-0.219075	-0.094772	0.570423
C40	C	0.280925	0.405228	1.070423
C41	C	-0.219045	-0.282445	0.570409
C42	C	0.280955	0.217555	1.070409
O43	O	-0.197759	-0.303619	0.627372
O44	O	0.302241	0.196381	1.127372
N45	N	-0.244083	-0.309547	0.503459
N46	N	0.255917	0.190453	1.003459
C47	C	-0.269133	-0.289727	0.436512
C48	C	0.230867	0.210273	0.936512
O49	O	-0.290433	-0.317085	0.379573
O50	O	0.209567	0.182915	0.879573
C51	C	-0.269165	-0.102054	0.436532
C52	C	0.230835	0.397946	0.936532
C53	C	-0.244121	-0.074955	0.503480
C54	C	0.255879	0.425045	1.003480
C55	C	-0.194033	-0.067673	0.637366
C56	C	0.305967	0.432327	1.137366
C57	C	-0.194039	-0.020757	0.637365
C58	C	0.305961	0.479243	1.137365
C59	C	-0.219086	-0.000941	0.570421
C60	C	0.280914	0.499059	1.070421
C61	C	-0.244127	-0.028040	0.503479
C62	C	0.255873	0.471960	1.003479
C63	C	-0.294217	-0.082235	0.369591
C64	C	0.205783	0.417765	0.869591
C65	C	-0.294224	-0.035313	0.369604
C66	C	0.205776	0.464687	0.869604
C67	C	-0.269180	-0.008214	0.436552
C68	C	0.230820	0.491786	0.936552
C69	C	-0.269180	0.038692	0.436534
C70	C	0.230820	0.538692	0.936534
N71	N	-0.244141	0.065794	0.503484
N72	N	0.255859	0.565794	1.003484
C73	C	-0.219094	0.045977	0.570428
C74	C	0.280906	0.545977	1.070428
C75	C	-0.269114	-0.388258	0.436504
C76	C	0.230886	0.111742	0.936504
C77	C	-0.269106	-0.435177	0.436498
C78	C	0.230894	0.064823	0.936498
C79	C	-0.219018	-0.427891	0.570397
C80	C	0.280982	0.072109	1.070397
C81	C	-0.219024	-0.380973	0.570397
C82	C	0.280976	0.119027	1.070397
C83	C	-0.244076	-0.361157	0.503455
C84	C	0.255924	0.138843	1.003455
C85	C	-0.219108	0.144503	0.570420
C86	C	0.280892	0.644503	1.070420
C87	C	-0.219114	0.191422	0.570410
C88	C	0.280886	0.691422	1.070410
C89	C	-0.269204	0.184133	0.436515
C90	C	0.230796	0.684133	0.936515
C91	C	-0.269196	0.137218	0.436521
C92	C	0.230804	0.637218	0.936521
C93	C	-0.244147	0.117404	0.503482
C94	C	0.255853	0.617404	1.003482
O95	O	-0.290459	0.059897	0.379609
O96	O	0.209541	0.559897	0.879609
O97	O	-0.197806	0.073343	0.627374
O98	O	0.302194	0.573343	1.127374
C99	C	-0.219069	-0.141687	0.570425
C100	C	0.280931	0.358313	1.070425
C101	C	-0.244110	-0.168786	0.503482
C102	C	0.255890	0.331214	1.003482
C103	C	-0.269157	-0.148969	0.436538
C104	C	0.230843	0.351031	0.936538
C105	C	-0.244102	-0.215704	0.503475
C106	C	0.255898	0.284296	1.003475
C107	C	-0.219055	-0.235521	0.570419
C108	C	0.280945	0.264479	1.070419
C109	C	-0.194016	-0.208419	0.637369
C110	C	0.305984	0.291581	1.137369
C111	C	-0.194022	-0.161504	0.637368
C112	C	0.305978	0.338496	1.137368
C113	C	-0.294195	-0.176071	0.369587
C114	C	0.205805	0.323929	0.869587
C115	C	-0.294187	-0.222986	0.369593
C116	C	0.205813	0.277014	0.869593
C117	C	-0.269140	-0.242803	0.436537
C118	C	0.230860	0.257197	0.936537
C119	C	-0.360844	-0.621571	0.503415
C120	C	0.139156	-0.121571	1.003415
C121	C	-0.410779	-0.621576	0.503428
C122	C	0.089221	-0.121576	1.003428
C123	C	-0.716794	-0.654074	0.436739
C124	C	-0.216794	-0.154074	0.936739
C125	C	-0.904469	-0.654127	0.436780
C126	C	-0.404469	-0.154127	0.936780
O127	O	-0.925646	-0.681696	0.380039
O128	O	-0.425646	-0.181696	0.880039
N129	N	-0.931571	-0.621738	0.503545
N130	N	-0.431571	-0.121738	1.003545
C131	C	-0.911752	-0.589334	0.570311
C132	C	-0.411752	-0.089334	1.070311
O133	O	-0.939110	-0.561789	0.627107
O134	O	-0.439110	-0.061789	1.127107
C135	C	-0.724078	-0.589283	0.570275
C136	C	-0.224078	-0.089283	1.070275
C137	C	-0.696977	-0.621672	0.503497
C138	C	-0.196977	-0.121672	1.003497
C139	C	-0.689694	-0.686461	0.369968
C140	C	-0.189694	-0.186461	0.869968
C141	C	-0.642778	-0.686445	0.369954
C142	C	-0.142778	-0.186445	0.869954
C143	C	-0.622961	-0.654044	0.436712
C144	C	-0.122961	-0.154044	0.936712
C145	C	-0.650061	-0.621657	0.503483
C146	C	-0.150061	-0.121657	1.003483
C147	C	-0.704260	-0.556882	0.637044
C148	C	-0.204260	-0.056882	1.137044
C149	C	-0.657338	-0.556873	0.637031
C150	C	-0.157338	-0.056873	1.137031
C151	C	-0.630238	-0.589262	0.570254
C152	C	-0.130238	-0.089262	1.070254
C153	C	-0.583329	-0.589240	0.570228
C154	C	-0.083329	-0.089240	1.070228
N155	N	-0.556227	-0.621630	0.503462
N156	N	-0.056227	-0.121630	1.003462
C157	C	-0.576043	-0.654032	0.436704
C158	C	-0.076043	-0.154032	0.936704
C159	C	-1.010283	-0.589363	0.570323
C160	C	-0.510283	-0.089363	1.070323
C161	C	-1.057201	-0.589375	0.570331
C162	C	-0.557201	-0.089375	1.070331
C163	C	-1.049915	-0.654168	0.436801
C164	C	-0.549915	-0.154168	0.936801
C165	C	-1.002996	-0.654154	0.436789
C166	C	-0.502996	-0.154154	0.936789
C167	C	-0.983181	-0.621752	0.503558
C168	C	-0.483181	-0.121752	1.003558
C169	C	-0.477516	-0.653997	0.436680
C170	C	0.022484	-0.153997	0.936680
C171	C	-0.430596	-0.653978	0.436670
C172	C	0.069404	-0.153978	0.936670
C173	C	-0.437886	-0.589186	0.570203
C174	C	0.062114	-0.089186	1.070203
C175	C	-0.484802	-0.589203	0.570210
C176	C	0.015198	-0.089203	1.070210
C177	C	-0.504616	-0.621613	0.503445
C178	C	-0.004616	-0.121613	1.003445
O179	O	-0.562122	-0.561689	0.626947
O180	O	-0.062122	-0.061689	1.126947
O181	O	-0.548678	-0.681579	0.379932
O182	O	-0.048678	-0.181579	0.879932
C183	C	-0.763710	-0.654089	0.436753
C184	C	-0.263710	-0.154089	0.936753
C185	C	-0.790810	-0.621703	0.503524
C186	C	-0.290810	-0.121703	1.003524
C187	C	-0.770994	-0.589301	0.570282
C188	C	-0.270994	-0.089301	1.070282
C189	C	-0.837728	-0.621715	0.503532
C190	C	-0.337728	-0.121715	1.003532
C191	C	-0.857544	-0.654116	0.436774
C192	C	-0.357544	-0.154116	0.936774
C193	C	-0.830442	-0.686506	0.370008
C194	C	-0.330442	-0.186506	0.870008
C195	C	-0.783526	-0.686491	0.369995
C196	C	-0.283526	-0.186491	0.869995
C197	C	-0.798096	-0.556911	0.637047
C198	C	-0.298096	-0.056911	1.137047
C199	C	-0.845011	-0.556929	0.637055
C200	C	-0.345011	-0.056929	1.137055
C201	C	-0.864828	-0.589330	0.570297
C202	C	-0.364828	-0.089330	1.070297
C203	C	-0.126950	-0.621738	0.503541
C204	C	0.373050	-0.121738	1.003541
C205	C	-0.077018	-0.621777	0.503573
C206	C	0.422982	-0.121777	1.003573
C207	C	-0.258959	-0.606783	0.776022
C208	C	0.241041	-0.106783	1.276022
C209	C	-0.265280	-0.600449	0.892169
C210	C	0.234720	-0.100449	1.392169
C211	C	-0.244169	0.261174	0.503489
C212	C	0.255831	0.761174	1.003489
C213	C	-0.244161	0.211238	0.503466
C214	C	0.255839	0.711238	1.003466
C215	C	-0.229316	-0.636482	0.231972
C216	C	0.270684	-0.136482	0.731972
C217	C	-0.222868	-0.642904	0.115825
C218	C	0.277132	-0.142904	0.615825
C219	C	-0.240809	-0.624948	0.943976
C220	C	0.259191	-0.124948	1.443976
C221	C	-0.247342	-0.618401	1.064020
C222	C	0.252658	-0.118401	1.564020
H223	H	-0.173637	-0.083802	0.691885
H224	H	0.326363	0.416198	1.191885
O225	O	-0.299437	-0.566240	0.951122
O226	O	0.200563	-0.066240	1.451122
H227	H	-0.324992	-0.583635	1.000837
H228	H	0.175008	-0.083635	1.500837
O229	O	-0.296129	-0.366892	0.364279
O230	O	0.203871	0.133108	0.864279
H231	H	-0.332365	-0.374929	0.382039
H232	H	0.167635	0.125071	0.882039
H233	H	-0.273128	-0.592575	1.108534
H234	H	0.226872	-0.092575	1.608534
O235	O	-1.071291	-0.689119	0.364798
O236	O	-0.571291	-0.189119	0.864798
H237	H	-1.063238	-0.723386	0.382803
H238	H	-0.563238	-0.223386	0.882803
O239	O	-0.635971	-0.521920	0.709046
O240	O	-0.135971	-0.021920	1.209046
H241	H	-0.617471	-0.539097	0.762259
H242	H	-0.117471	-0.039097	1.262259
H243	H	-0.314579	-0.245047	0.315067
H244	H	0.185421	0.254953	0.815067
H245	H	-0.198719	0.213484	0.624926
H246	H	0.301281	0.713484	1.124926
H247	H	-0.314626	-0.019182	0.315093
H248	H	0.185374	0.480818	0.815093
O249	O	-0.874236	-0.521989	0.709080
O250	O	-0.374236	-0.021989	1.209080
H251	H	-0.910192	-0.527436	0.697877
H252	H	-0.410192	-0.027436	1.197877
O253	O	-0.401369	-0.688917	0.364648
O254	O	0.098631	-0.188917	0.864648
H255	H	-0.382518	-0.709195	0.411467
H256	H	0.117482	-0.209195	0.911467
H257	H	-0.215021	-0.650768	0.899459
H258	H	0.284979	-0.150768	1.399459
O259	O	-0.416510	-0.554238	0.642206
O260	O	0.083490	-0.054238	1.142206
H261	H	-0.398012	-0.571423	0.695409
H262	H	0.101988	-0.071423	1.195409
H263	H	-1.079262	-0.562997	0.624699
H264	H	-0.579262	-0.062997	1.124699
O265	O	-0.188708	-0.677114	1.056879
O266	O	0.311292	-0.177114	1.556879
H267	H	-0.188939	-0.676892	0.971842
H268	H	0.311061	-0.176892	1.471842
O269	O	-0.711065	-0.721413	0.297968
O270	O	-0.211065	-0.221413	0.797968
H271	H	-0.729568	-0.704235	0.244763
H272	H	-0.229568	-0.204235	0.744763
O273	O	-0.192086	0.123135	0.642628
O274	O	0.307914	0.623135	1.142628
H275	H	-0.174672	0.149866	0.689162
H276	H	0.325328	0.649866	1.189162
H277	H	-0.289584	0.115152	0.381998
H278	H	0.210416	0.615152	0.881998
O279	O	-0.167031	0.008469	0.709580
O280	O	0.332969	0.508469	1.209580
H281	H	-0.149619	-0.013199	0.756130
H282	H	0.350381	0.486801	1.256130
H283	H	-0.198631	-0.358911	0.624911
H284	H	0.301369	0.141089	1.124911
H285	H	-0.198623	-0.444034	0.624902
H286	H	0.301377	0.055966	1.124902
H287	H	-0.506868	-0.562831	0.624589
H288	H	-0.006868	-0.062831	1.124589
O289	O	-0.296110	-0.464404	0.364278
O290	O	0.203890	0.035596	0.864278
H291	H	-0.313530	-0.442737	0.317739
H292	H	0.186470	0.057263	0.817739
O293	O	-0.851823	-0.721453	0.298004
O294	O	-0.351823	-0.221453	0.798004
H295	H	-0.825099	-0.743973	0.251561
H296	H	-0.325099	-0.243973	0.751561
H297	H	-0.994153	-0.562976	0.624696
H298	H	-0.494153	-0.062976	1.124696
H299	H	-0.314610	-0.104291	0.315076
H300	H	0.185390	0.395709	0.815076
O301	O	-0.973767	-0.689091	0.364777
O302	O	-0.473767	-0.189091	0.864777
H303	H	-0.995435	-0.711624	0.318367
H304	H	-0.495435	-0.211624	0.818367
H305	H	-0.761464	-0.712865	0.315618
H306	H	-0.261464	-0.212865	0.815618
H307	H	-0.289594	0.200276	0.382007
H308	H	0.210406	0.700276	0.882007
O309	O	-0.733483	-0.521949	0.709072
O310	O	-0.233483	-0.021949	1.209072
H311	H	-0.728922	-0.525158	0.791094
H312	H	-0.228922	-0.025158	1.291094
O313	O	-0.167011	-0.132277	0.709576
O314	O	0.332989	0.367723	1.209576
H315	H	-0.179233	-0.136815	0.791555
H316	H	0.320767	0.363185	1.291555
O317	O	-0.167001	-0.229796	0.709578
O318	O	0.332999	0.270204	1.209578
H319	H	-0.171210	-0.266973	0.698328
H320	H	0.328790	0.233027	1.198328
O321	O	-0.321205	-0.154701	0.297368
O322	O	0.178795	0.345299	0.797368
H323	H	-0.338609	-0.181433	0.250811
H324	H	0.161391	0.318567	0.750811
H325	H	-0.620715	-0.712820	0.315581
H326	H	-0.120715	-0.212820	0.815581
O327	O	-0.498883	-0.688948	0.364664
O328	O	0.001117	-0.188948	0.864664
H329	H	-0.472150	-0.711460	0.318229
H330	H	0.027850	-0.211460	0.818229
H331	H	-0.781965	-0.530526	0.691411
H332	H	-0.281965	-0.030526	1.191411
