data_functionalizedCrystal
_audit_creation_method	'MofGen! by Chris Wilmer'
_symmetry_space_group_name_H-M	'P1'
_symmetry_Int_Tables_number	1
_symmetry_cell_setting	triclinic
loop_
_symmetry_equiv_pos_as_xyz
  x,y,z
_cell_length_a	12.645331
_cell_length_b	12.645330
_cell_length_c	12.827885
_cell_angle_alpha	89.968887
_cell_angle_beta	89.985491
_cell_angle_gamma	90.011881
loop_
_atom_site_label
_atom_site_type_symbol
_atom_site_fract_x
_atom_site_fract_y
_atom_site_fract_z
Zn1	Zn	1.620755	-0.422010	-0.590706
Zn2	Zn	1.620657	-0.599310	-0.415962
Zn3	Zn	1.443474	-0.422059	-0.415994
Zn4	Zn	1.443467	-0.599229	-0.590677
O5	O	1.532088	-0.510652	-0.503335
O6	O	1.769090	-0.445542	-0.567525
O7	O	1.597114	-0.575852	-0.269731
O8	O	1.467035	-0.273705	-0.439196
O9	O	1.769017	-0.575804	-0.439142
O10	O	1.597283	-0.273669	-0.567556
O11	O	1.466939	-0.445626	-0.269754
O12	O	1.295126	-0.445548	-0.439168
O13	O	1.467024	-0.575666	-0.736917
O14	O	1.295121	-0.575714	-0.567506
O15	O	1.597277	-0.445464	-0.736938
O16	O	1.597108	-0.747647	-0.439113
O17	O	1.466928	-0.747587	-0.567475
C18	C	1.256659	-0.510628	-0.503338
C19	C	1.138829	-0.510643	-0.503364
C20	C	0.971297	-0.592980	-0.583680
C21	C	1.093857	-0.592714	-0.584016
C22	C	1.094340	-0.398986	-0.533455
C23	C	0.971742	-0.399489	-0.534020
C24	C	0.971588	-0.539065	-0.392701
C25	C	1.094194	-0.541506	-0.393298
C26	C	1.532035	-0.786082	-0.503310
C27	C	1.532110	-0.903912	-0.503335
C28	C	1.613874	-1.071469	-0.422418
C29	C	1.614141	-0.948909	-0.422616
C30	C	1.562407	-0.948286	-0.613486
C31	C	1.563056	-1.070884	-0.613056
C32	C	1.420015	-1.071240	-0.475186
C33	C	1.420552	-0.948636	-0.472715
C34	C	1.808594	-0.510677	-0.503333
C35	C	1.926424	-0.510688	-0.503332
C36	C	1.532160	-0.510550	-0.775905
C37	C	1.532191	-0.510507	-0.892059
C38	C	1.532171	-0.234147	-0.503383
C39	C	1.532206	-0.116317	-0.503403
C40	C	1.596651	-0.446066	-0.943854
C41	C	1.596685	-0.446020	-1.063904
C42	C	1.532077	-0.510677	-0.231825
C43	C	1.532252	-0.510422	-0.115672
H44	H	1.124807	-0.485917	-0.330220
Cl45	Cl	0.926779	-0.446524	-0.300270
Cl46	Cl	0.923843	-0.662619	-0.350465
Cl47	Cl	1.385272	-0.903869	-0.347566
H48	H	1.123468	-0.336006	-0.476761
Cl49	Cl	1.139089	-0.668369	-0.358262
H50	H	1.643487	-0.917498	-0.637787
Cl51	Cl	1.584805	-0.902590	-0.296531
H52	H	1.651810	-0.390926	-0.899321
H53	H	1.123203	-0.573933	-0.665990
H54	H	1.651875	-0.390853	-1.108447
H55	H	1.125061	-0.374479	-0.613455
Cl56	Cl	1.321532	-0.901366	-0.557108
Cl57	Cl	1.475197	-1.116686	-0.709381
H58	H	1.477066	-0.565599	-1.071136
Cl59	Cl	1.447015	-0.595631	-0.960805
H60	H	0.943163	-0.375420	-0.614897
H61	H	1.697236	-0.919501	-0.441279
Cl62	Cl	1.140303	-0.720561	-0.554944
Cl63	Cl	1.741483	-1.118906	-0.450908
Cl64	Cl	0.925768	-0.721244	-0.554896
H65	H	0.940503	-0.574442	-0.665177
H66	H	0.942057	-0.335977	-0.478182
H67	H	1.595155	-1.101028	-0.340504
H68	H	1.645062	-1.099396	-0.636959
H69	H	1.504734	-0.919135	-0.675442
H70	H	1.392463	-1.102254	-0.396263
H71	H	1.359165	-1.100242	-0.534170
