data_functionalizedCrystal
_audit_creation_method	'MofGen! by Chris Wilmer'
_symmetry_space_group_name_H-M	'P1'
_symmetry_Int_Tables_number	1
_symmetry_cell_setting	triclinic
loop_
_symmetry_equiv_pos_as_xyz
  x,y,z
_cell_length_a	19.188930
_cell_length_b	10.540539
_cell_length_c	9.016244
_cell_angle_alpha	90.000067
_cell_angle_beta	90.021209
_cell_angle_gamma	83.835136
loop_
_atom_site_label
_atom_site_type_symbol
_atom_site_fract_x
_atom_site_fract_y
_atom_site_fract_z
O1	O	-0.927204	-0.158464	-0.123811
O2	O	-0.427204	0.341536	0.376189
O3	O	-0.724035	-0.179797	-0.123708
O4	O	-0.224035	0.320203	0.376292
O5	O	-0.830255	0.015678	-0.123760
O6	O	-0.330255	0.515678	0.376240
O7	O	-0.820985	-0.353939	-0.123759
O8	O	-0.320985	0.146061	0.376241
O9	O	-0.830239	0.015673	0.122921
O10	O	-0.330239	0.515673	0.622921
O11	O	-0.724020	-0.179802	0.122972
O12	O	-0.224020	0.320198	0.622972
O13	O	-0.927189	-0.158469	0.122870
O14	O	-0.427189	0.341531	0.622870
Cu15	Cu	-0.825603	-0.169136	0.145445
Cu16	Cu	-0.325603	0.330864	0.645445
Cu17	Cu	-0.825621	-0.169130	-0.146283
Cu18	Cu	-0.325621	0.330870	0.353717
O19	O	-0.820969	-0.353944	0.122922
O20	O	-0.320969	0.146056	0.622922
C21	C	-0.698012	-0.179108	-0.000355
C22	C	-0.198012	0.320892	0.499645
C23	C	-0.620493	-0.177035	-0.000316
C24	C	-0.120493	0.322965	0.499684
C25	C	-0.829552	0.062963	-0.000422
C26	C	-0.329552	0.562963	0.499578
C27	C	-0.827472	0.203866	-0.000429
C28	C	-0.327472	0.703866	0.499571
C29	C	-0.953212	-0.159157	-0.000487
C30	C	-0.453212	0.340843	0.499513
C31	C	-1.030731	-0.161231	-0.000535
C32	C	-0.530731	0.338769	0.499465
C33	C	-0.576334	-0.291733	-0.000339
C34	C	-0.076334	0.208267	0.499661
C35	C	-0.503497	-0.289785	-0.000355
C36	C	-0.003497	0.210215	0.499645
C37	C	-0.474823	-0.173132	-0.000378
C38	C	0.025177	0.326868	0.499622
C39	C	-0.518992	-0.058418	-0.000347
C40	C	-0.018992	0.441582	0.499653
C41	C	-0.591827	-0.060370	-0.000316
C42	C	-0.091827	0.439630	0.499684
N43	N	-0.366254	-0.083963	-0.084395
N44	N	0.133746	0.416037	0.415605
N45	N	-0.297063	-0.082117	-0.084427
N46	N	0.202937	0.417883	0.415573
C47	C	-0.255375	-0.167245	-0.000469
C48	C	0.244625	0.332755	0.499531
N49	N	-0.285491	-0.254307	0.083505
N50	N	0.214509	0.245693	0.583505
N51	N	-0.354688	-0.256157	0.083531
N52	N	0.145312	0.243843	0.583531
C53	C	-0.395846	-0.171003	-0.000411
C54	C	0.104154	0.328997	0.499589
C55	C	-0.132237	-0.279839	-0.000508
C56	C	0.367763	0.220161	0.499492
C57	C	-0.059400	-0.277885	-0.000515
C58	C	0.440600	0.222115	0.499485
C59	C	-0.074896	-0.046516	-0.000521
C60	C	0.425104	0.453484	0.499479
C61	C	-0.147732	-0.048472	-0.000499
C62	C	0.352268	0.451528	0.499501
C63	C	-0.176398	-0.165137	-0.000500
C64	C	0.323602	0.334863	0.499500
C65	C	-0.821672	-0.401229	-0.000420
C66	C	-0.321672	0.098771	0.499580
C67	C	-0.823752	-0.542131	-0.000422
C68	C	-0.323752	-0.042131	0.499578
N69	N	-0.825595	-0.169139	0.350631
N70	N	-0.325595	0.330861	0.850631
C71	C	-0.747771	0.385536	-0.000942
C72	C	-0.247771	0.885536	0.499058
C73	C	-0.749879	0.238965	-0.000388
C74	C	-0.249879	0.738965	0.499612
C75	C	-0.864804	0.266343	0.140419
C76	C	-0.364804	0.766343	0.640419
C77	C	-0.862156	0.412830	0.140539
C78	C	-0.362156	0.912830	0.640539
C79	C	-0.863752	0.413388	-0.139984
C80	C	-0.363752	0.913388	0.360016
C81	C	-0.864467	0.266422	-0.141847
C82	C	-0.364467	0.766422	0.358153
N83	N	-0.825635	-0.169117	-0.351470
N84	N	-0.325635	0.330883	0.148530
C85	C	-0.768600	-0.273362	0.585692
C86	C	-0.268600	0.226638	1.085692
C87	C	-0.768726	-0.273745	0.413800
C88	C	-0.268726	0.226255	0.913800
C89	C	-0.898590	-0.197664	0.412933
C90	C	-0.398590	0.302336	0.912933
C91	C	-0.898278	-0.198400	0.584878
C92	C	-0.398278	0.301600	1.084878
C93	C	-0.810320	-0.036037	0.585184
C94	C	-0.310320	0.463963	1.085184
C95	C	-0.808645	-0.036938	0.413231
C96	C	-0.308645	0.463062	0.913231
H97	H	-0.599669	-0.386731	-0.000342
H98	H	-0.099669	0.113269	0.499658
H99	H	-0.917959	0.462028	0.146902
H100	H	-0.417959	0.962028	0.646902
C101	C	-0.487449	0.069901	-0.000374
C102	C	0.012551	0.569901	0.499626
N103	N	-0.463691	0.166554	-0.000390
N104	N	0.036309	0.666554	0.499610
C105	C	-0.941780	0.237816	0.147480
C106	C	-0.441780	0.737816	0.647480
N107	N	-0.999756	0.216317	0.152802
N108	N	-0.499756	0.716317	0.652802
H109	H	-0.627783	0.033035	-0.000298
H110	H	-0.127783	0.533035	0.499702
C111	C	-0.695451	-0.250888	0.356899
C112	C	-0.195451	0.249112	0.856899
N113	N	-0.640255	-0.233680	0.314049
N114	N	-0.140255	0.266320	0.814049
H115	H	-0.467536	-0.383189	-0.000370
H116	H	0.032464	0.116811	0.499630
H117	H	-0.183688	0.044928	-0.000489
H118	H	0.316312	0.544928	0.499511
H119	H	-0.714193	-0.256708	0.627113
H120	H	-0.214193	0.243292	1.127113
C121	C	-0.163773	-0.408171	-0.000489
C122	C	0.336227	0.091829	0.499511
N123	N	-0.187523	-0.504832	-0.000473
N124	N	0.312477	-0.004832	0.499527
C125	C	-0.010823	-0.404070	-0.000518
C126	C	0.489177	0.095930	0.499482
N127	N	0.025765	-0.499114	-0.000517
N128	N	0.525765	0.000886	0.499483
C129	C	-0.829749	0.208030	0.282058
C130	C	-0.329749	0.708030	0.782058
N131	N	-0.803341	0.164110	0.388738
N132	N	-0.303341	0.664110	0.888738
H133	H	-0.051551	0.048466	-0.000632
H134	H	0.448449	0.548466	0.499368
H135	H	-0.834553	0.440419	0.245854
H136	H	-0.334553	0.940419	0.745854
H137	H	-0.778570	-0.372512	0.372648
H138	H	-0.278570	0.127488	0.872648
H139	H	-0.720285	0.196555	0.100774
H140	H	-0.220285	0.696555	0.600774
H141	H	-0.720504	0.195716	-0.101352
H142	H	-0.220504	0.695716	0.398648
H143	H	-0.778316	-0.371572	0.628879
H144	H	-0.278316	0.128428	1.128879
C145	C	-0.706530	0.425393	0.134816
C146	C	-0.206530	0.925393	0.634816
N147	N	-0.675472	0.455403	0.237082
N148	N	-0.175472	0.955403	0.737082
C149	C	-0.939464	0.478864	-0.141309
C150	C	-0.439464	0.978864	0.358691
N151	N	-0.996488	0.528188	-0.142298
N152	N	-0.496488	1.028188	0.357702
H153	H	-0.838646	0.444389	-0.246739
H154	H	-0.338646	0.944389	0.253261
H155	H	-0.837151	0.224963	-0.246042
H156	H	-0.337151	0.724963	0.253958
C157	C	-0.861057	0.072726	0.355179
C158	C	-0.361057	0.572726	0.855179
N159	N	-0.900545	0.155322	0.311467
N160	N	-0.400545	0.655322	0.811467
H161	H	-0.717126	0.413463	-0.101945
H162	H	-0.217126	0.913463	0.398055
C163	C	-0.940896	0.235395	-0.153373
C164	C	-0.440896	0.735395	0.346627
N165	N	-0.998466	0.212031	-0.162041
N166	N	-0.498466	0.712031	0.337959
C167	C	-0.916360	-0.329508	0.639029
C168	C	-0.416360	0.170492	1.139029
N169	N	-0.929974	-0.428266	0.679809
N170	N	-0.429974	0.071734	1.179809
H171	H	-0.851905	0.041534	0.625816
H172	H	-0.351905	0.541534	1.125816
C173	C	-0.957397	-0.099732	0.641029
C174	C	-0.457397	0.400268	1.141029
N175	N	-1.001932	-0.025433	0.683316
N176	N	-0.501932	0.474567	1.183316
C177	C	-0.957330	-0.097803	0.357642
C178	C	-0.457330	0.402197	0.857642
N179	N	-1.001572	-0.022587	0.315994
N180	N	-0.501572	0.477413	0.815994
H181	H	-0.912283	-0.293600	0.369847
H182	H	-0.412283	0.206400	0.869847
H183	H	-0.758216	-0.008506	0.628658
H184	H	-0.258216	0.491494	1.128658
C185	C	-0.736097	-0.007682	0.358238
C186	C	-0.236097	0.492318	0.858238
N187	N	-0.681453	0.014350	0.316810
N188	N	-0.181453	0.514350	0.816810
