data_functionalizedCrystal
_audit_creation_method	'MofGen! by Chris Wilmer'
_symmetry_space_group_name_H-M	'P1'
_symmetry_Int_Tables_number	1
_symmetry_cell_setting	triclinic
loop_
_symmetry_equiv_pos_as_xyz
  x,y,z
_cell_length_a	18.050589
_cell_length_b	18.050591
_cell_length_c	18.050583
_cell_angle_alpha	90.022021
_cell_angle_beta	89.968090
_cell_angle_gamma	89.975773
loop_
_atom_site_label
_atom_site_type_symbol
_atom_site_fract_x
_atom_site_fract_y
_atom_site_fract_z
Zn1	Zn	-0.295685	-1.135301	-0.420054
Zn2	Zn	-0.419898	-1.135209	-0.295873
Zn3	Zn	-0.295718	-1.011117	-0.295865
Zn4	Zn	-0.419829	-1.011068	-0.420009
O5	O	-0.357783	-1.073174	-0.357950
O6	O	-0.312178	-1.239213	-0.403604
O7	O	-0.403468	-1.118730	-0.191948
O8	O	-0.191789	-1.027650	-0.312354
O9	O	-0.403436	-1.239146	-0.312369
O10	O	-0.191765	-1.118887	-0.403595
O11	O	-0.312233	-1.027561	-0.191942
O12	O	-0.312166	-0.907186	-0.312311
O13	O	-0.403319	-1.027565	-0.523940
O14	O	-0.403350	-0.907150	-0.403519
O15	O	-0.312111	-1.118838	-0.523973
O16	O	-0.523814	-1.118682	-0.312325
O17	O	-0.523763	-1.027476	-0.403527
C18	C	-0.357755	-0.880222	-0.357909
C19	C	-0.357761	-0.797676	-0.357909
C20	C	-0.550735	-1.073084	-0.357938
C21	C	-0.633281	-1.073114	-0.357958
C22	C	-0.357703	-1.073207	-0.551656
C23	C	-0.357670	-1.073221	-0.634202
C24	C	-0.832731	-1.023565	-0.407536
C25	C	-0.882180	-1.005465	-0.339767
C26	C	-0.784411	-1.073187	-0.357967
C27	C	-0.882044	-1.091322	-0.425744
C28	C	-0.930396	-1.073256	-0.357983
C29	C	-0.832773	-1.055052	-0.290162
C30	C	-0.832632	-1.140940	-0.376186
C31	C	-0.882059	-1.122867	-0.308370
C32	C	-0.700313	-1.073145	-0.357959
C33	C	-1.014493	-1.073297	-0.357983
C34	C	-0.164077	-1.073284	-0.357979
C35	C	-0.081531	-1.073331	-0.357991
C36	C	-0.357811	-1.266879	-0.357992
C37	C	-0.357823	-1.349425	-0.358010
C38	C	-0.308118	-0.598223	-0.308425
C39	C	-0.375858	-0.548803	-0.290154
C40	C	-0.357784	-0.646545	-0.357943
C41	C	-0.290067	-0.548884	-0.376212
C42	C	-0.357799	-0.500560	-0.357974
C43	C	-0.425559	-0.598213	-0.339637
C44	C	-0.339723	-0.598297	-0.425726
C45	C	-0.407510	-0.548900	-0.407481
C46	C	-0.357774	-0.730644	-0.357923
C47	C	-0.357817	-0.416464	-0.357994
C48	C	-0.308047	-1.122905	-0.833671
C49	C	-0.289866	-1.055171	-0.883057
C50	C	-0.357657	-1.073250	-0.785332
C51	C	-0.375791	-1.141011	-0.883028
C52	C	-0.357643	-1.073285	-0.931317
C53	C	-0.339441	-1.005481	-0.833631
C54	C	-0.425397	-1.091367	-0.833598
C55	C	-0.407242	-1.023586	-0.882962
C56	C	-0.357663	-1.073231	-0.701234
C57	C	-0.357637	-1.073296	-1.015414
C58	C	-0.357808	-1.073184	-0.164998
C59	C	-0.357633	-1.073314	-0.082453
H60	H	-0.811071	-0.981539	-0.449395
C61	C	-0.319210	-0.627418	-0.502052
C62	C	-0.255387	-0.671196	-0.496712
C63	C	-0.236464	-0.698044	-0.567006
H64	H	-0.310051	-0.586956	-0.534413
H65	H	-0.358828	-0.656411	-0.520992
H66	H	-0.215778	-0.642204	-0.477782
H67	H	-0.264529	-0.711668	-0.464365
H68	H	-0.276082	-0.727036	-0.585946
H69	H	-0.227308	-0.657578	-0.599361
H70	H	-0.193163	-0.727755	-0.563391
H71	H	-0.391146	-0.527065	-0.232844
H72	H	-0.810855	-1.198192	-0.391613
H73	H	-0.449566	-0.527379	-0.449370
C74	C	-0.501890	-0.627122	-0.318936
C75	C	-0.500978	-0.704684	-0.319114
C76	C	-0.571274	-0.731343	-0.300037
H77	H	-0.537265	-0.609918	-0.353873
H78	H	-0.514814	-0.609806	-0.270927
H79	H	-0.488063	-0.721994	-0.367116
H80	H	-0.465618	-0.721908	-0.284176
H81	H	-0.584198	-0.714026	-0.252028
H82	H	-0.606644	-0.714133	-0.334976
H83	H	-0.570663	-0.783970	-0.300148
C84	C	-0.213635	-0.520092	-0.396702
C85	C	-0.161860	-0.545100	-0.344667
C86	C	-0.091441	-0.518603	-0.363518
H87	H	-0.214199	-0.467472	-0.396997
H88	H	-0.200417	-0.537789	-0.444493
H89	H	-0.175073	-0.527400	-0.296889
H90	H	-0.161272	-0.597717	-0.344366
H91	H	-0.078224	-0.536299	-0.411308
H92	H	-0.092013	-0.465984	-0.363812
H93	H	-0.056302	-0.535572	-0.328219
C94	C	-0.910811	-1.178955	-0.252543
C95	C	-0.953394	-1.232373	-0.289252
C96	C	-0.979887	-1.284054	-0.237849
H97	H	-0.940536	-1.154418	-0.216681
H98	H	-0.870165	-1.202326	-0.228642
H99	H	-0.994034	-1.209005	-0.313141
H100	H	-0.923685	-1.256930	-0.325110
H101	H	-0.939241	-1.307424	-0.213948
H102	H	-1.009609	-1.259510	-0.201990
H103	H	-1.008777	-1.320308	-0.262750
C104	C	-0.463077	-0.967438	-0.911607
C105	C	-0.443741	-0.896657	-0.886457
C106	C	-0.495149	-0.844912	-0.912839
H107	H	-0.511087	-0.979785	-0.893939
H108	H	-0.463046	-0.967994	-0.964237
H109	H	-0.443780	-0.896103	-0.833837
H110	H	-0.395739	-0.884287	-0.904122
H111	H	-0.495118	-0.845469	-0.965470
H112	H	-0.543156	-0.857266	-0.895170
H113	H	-0.482032	-0.796881	-0.895785
H114	H	-0.266067	-1.164827	-0.812025
C115	C	-0.910801	-1.111642	-0.502227
C116	C	-0.885791	-1.059480	-0.553884
C117	C	-0.912256	-1.078173	-0.624349
H118	H	-0.963421	-1.111952	-0.501676
H119	H	-0.893085	-1.159397	-0.515543
H120	H	-0.903510	-1.011737	-0.540571
H121	H	-0.833174	-1.059162	-0.554458
H122	H	-0.894540	-1.125928	-0.637665
H123	H	-0.964875	-1.078483	-0.623790
H124	H	-0.895285	-1.042788	-0.659408
C125	C	-0.803999	-1.034399	-0.213775
C126	C	-0.760925	-0.970119	-0.218960
C127	C	-0.734413	-0.951063	-0.148609
H128	H	-0.774600	-1.073735	-0.194869
H129	H	-0.844639	-1.025727	-0.181442
H130	H	-0.720291	-0.978795	-0.251281
H131	H	-0.790307	-0.930768	-0.237853
H132	H	-0.775053	-0.942391	-0.116276
H133	H	-0.705018	-0.990404	-0.129709
H134	H	-0.705190	-0.907444	-0.152116
H135	H	-0.324031	-0.948174	-0.812025
C136	C	-0.213422	-1.034895	-0.911990
C137	C	-0.161711	-1.087046	-0.887037
C138	C	-0.091285	-1.068402	-0.913681
H139	H	-0.200092	-0.987136	-0.894368
H140	H	-0.214054	-1.034644	-0.964618
H141	H	-0.161077	-1.087289	-0.834420
H142	H	-0.175016	-1.134809	-0.904658
H143	H	-0.091917	-1.068151	-0.966309
H144	H	-0.077963	-1.020643	-0.896057
H145	H	-0.056192	-1.103788	-0.896760
H146	H	-0.266162	-0.619880	-0.266503
H147	H	-0.482674	-1.106699	-0.811858
C148	C	-0.396105	-1.217423	-0.912003
C149	C	-0.338119	-1.244720	-0.955753
C150	C	-0.356795	-1.315113	-0.982448
H151	H	-0.439893	-1.214144	-0.940982
H152	H	-0.404308	-1.249941	-0.871449
H153	H	-0.329925	-1.212210	-0.996301
H154	H	-0.294325	-1.248017	-0.926791
H155	H	-0.364998	-1.347631	-0.941894
H156	H	-0.400583	-1.311827	-1.011423
H157	H	-0.317451	-1.333646	-1.012129
C158	C	-0.911161	-0.929054	-0.319363
C159	C	-0.886188	-0.877287	-0.371435
C160	C	-0.912875	-0.806891	-0.352674
H161	H	-0.893582	-0.915753	-0.271586
H162	H	-0.963789	-0.929715	-0.319106
H163	H	-0.833571	-0.876624	-0.371685
H164	H	-0.903765	-0.890564	-0.419217
H165	H	-0.965504	-0.807552	-0.352416
H166	H	-0.895295	-0.793597	-0.304896
H167	H	-0.895941	-0.771760	-0.388005
