data_functionalizedCrystal
_audit_creation_method	'MofGen! by Chris Wilmer'
_symmetry_space_group_name_H-M	'P1'
_symmetry_Int_Tables_number	1
_symmetry_cell_setting	triclinic
loop_
_symmetry_equiv_pos_as_xyz
  x,y,z
_cell_length_a	16.109318
_cell_length_b	19.188930
_cell_length_c	14.586319
_cell_angle_alpha	89.991095
_cell_angle_beta	90.000075
_cell_angle_gamma	83.306672
loop_
_atom_site_label
_atom_site_type_symbol
_atom_site_fract_x
_atom_site_fract_y
_atom_site_fract_z
O1	O	1.102824	0.089802	-0.076175
O2	O	1.602824	0.589802	0.423825
O3	O	0.860727	0.100957	-0.076194
O4	O	1.360727	0.600957	0.423806
O5	O	0.988762	-0.006259	-0.076166
O6	O	1.488762	0.493741	0.423834
O7	O	0.974789	0.197018	-0.076203
O8	O	1.474789	0.697018	0.423797
O9	O	0.988753	-0.006261	0.076315
O10	O	1.488753	0.493739	0.576315
O11	O	0.860718	0.100956	0.076286
O12	O	1.360718	0.600956	0.576286
O13	O	1.102815	0.089800	0.076306
O14	O	1.602815	0.589800	0.576306
Cu15	Cu	0.981766	0.095378	0.090219
Cu16	Cu	1.481766	0.595378	0.590219
Cu17	Cu	0.981777	0.095380	-0.090107
Cu18	Cu	1.481777	0.595380	0.409893
O19	O	0.974780	0.197017	0.076278
O20	O	1.474780	0.697017	0.576278
C21	C	0.829750	0.100503	0.000044
C22	C	1.329750	0.600503	0.500044
C23	C	0.737460	0.099141	0.000037
C24	C	1.237460	0.599141	0.500037
C25	C	0.438405	0.094746	-0.083064
C26	C	0.938405	0.594746	0.416936
C27	C	0.525122	0.096020	-0.083069
C28	C	1.025122	0.596020	0.416931
C29	C	0.525132	0.096009	0.083174
C30	C	1.025132	0.596009	0.583174
C31	C	0.438417	0.094730	0.083178
C32	C	0.938417	0.594730	0.583178
C33	C	0.395055	0.094102	0.000057
C34	C	0.895055	0.594102	0.500057
C35	C	0.568487	0.096655	0.000046
C36	C	1.068487	0.596655	0.500046
C37	C	0.662510	0.098037	0.000041
C38	C	1.162510	0.598037	0.500041
C39	C	0.301027	0.092719	0.000063
C40	C	0.801027	0.592719	0.500063
C41	C	0.988305	-0.032272	0.000077
C42	C	1.488305	0.467728	0.500077
C43	C	0.986947	-0.109780	0.000085
C44	C	1.486947	0.390220	0.500085
C45	C	1.062074	-0.154525	0.000095
C46	C	1.562074	0.345475	0.500095
C47	C	1.060797	-0.227351	0.000080
C48	C	1.560797	0.272649	0.500080
C49	C	0.984390	-0.255431	0.000074
C50	C	1.484390	0.244569	0.500074
C51	C	0.909254	-0.210676	0.000058
C52	C	1.409254	0.289324	0.500058
C53	C	0.910532	-0.137851	0.000063
C54	C	1.410532	0.362149	0.500063
N55	N	0.925983	-0.363576	0.051961
N56	N	1.425983	0.136424	0.551961
N57	N	0.924774	-0.432757	0.051957
N58	N	1.424774	0.067243	0.551957
C59	C	0.980535	-0.474848	0.000055
C60	C	1.480535	0.025152	0.500055
N61	N	1.037562	-0.445146	-0.051833
N62	N	1.537562	0.054854	0.448167
N63	N	1.038774	-0.375959	-0.051826
N64	N	1.538774	0.124041	0.448174
C65	C	0.982996	-0.334396	0.000067
C66	C	1.482996	0.165604	0.500067
C67	C	1.054283	-0.598561	0.000048
C68	C	1.554283	-0.098561	0.500048
C69	C	1.053003	-0.671388	0.000027
C70	C	1.553003	-0.171388	0.500027
C71	C	0.901458	-0.654712	0.000014
C72	C	1.401458	-0.154712	0.500014
C73	C	0.902739	-0.581885	0.000025
C74	C	1.402739	-0.081885	0.500025
C75	C	0.979154	-0.553815	0.000047
C76	C	1.479154	-0.053815	0.500047
C77	C	1.133793	0.090255	0.000066
C78	C	1.633793	0.590255	0.500066
C79	C	1.226083	0.091616	0.000067
C80	C	1.726083	0.591616	0.500067
C81	C	0.975237	0.223030	0.000033
C82	C	1.475237	0.723030	0.500033
C83	C	0.976596	0.300537	0.000019
C84	C	1.476596	0.800537	0.500019
N85	N	0.981765	0.095376	0.217051
N86	N	1.481765	0.595376	0.717051
N87	N	0.981784	0.095376	-0.216939
N88	N	1.481784	0.595376	0.283061
C89	C	1.038477	0.047916	0.452070
C90	C	1.538477	0.547916	0.952070
C91	C	1.038480	0.047915	0.548051
C92	C	1.538480	0.547915	1.048051
C93	C	0.925066	0.142838	0.548035
C94	C	1.425066	0.642838	1.048035
C95	C	0.925060	0.142836	0.452056
C96	C	1.425060	0.642836	0.952056
C97	C	0.981771	0.095376	0.404075
C98	C	1.481771	0.595376	0.904075
C99	C	0.981779	0.095376	0.596036
C100	C	1.481779	0.595376	1.096036
C101	C	0.981781	0.095375	0.700103
C102	C	1.481781	0.595375	1.200103
C103	C	0.981768	0.095376	0.300002
C104	C	1.481768	0.595376	0.800002
H105	H	0.403121	0.094205	0.150869
H106	H	0.903121	0.594205	0.650869
O107	O	0.391640	0.094064	-0.172715
O108	O	0.891640	0.594064	0.327285
H109	H	0.324057	0.093073	-0.158751
H110	H	0.824057	0.593073	0.341249
H111	H	0.560447	0.096522	0.150848
H112	H	1.060447	0.596522	0.650848
O113	O	0.863887	0.194027	0.400292
O114	O	1.363887	0.694027	0.900292
H115	H	0.823583	0.164618	0.356586
H116	H	1.323583	0.664618	0.856586
H117	H	1.124296	-0.131674	0.000109
H118	H	1.624296	0.368326	0.500109
O119	O	1.099620	-0.003292	0.400323
O120	O	1.599620	0.496708	0.900323
H121	H	1.090090	0.004677	0.325518
H122	H	1.590090	0.504677	0.825518
H123	H	0.847043	-0.233543	0.000050
H124	H	1.347043	0.266457	0.500050
O125	O	0.571884	0.096714	-0.172719
O126	O	1.071884	0.596714	0.327281
H127	H	0.547665	0.144035	-0.212576
H128	H	1.047665	0.644035	0.287424
O129	O	1.141832	-0.275622	0.000108
O130	O	1.641832	0.224378	0.500108
H131	H	1.144892	-0.309192	-0.062041
H132	H	1.644892	0.190808	0.437959
O133	O	0.863916	0.194033	0.599791
O134	O	1.363916	0.694033	1.099791
H135	H	0.824480	0.227032	0.550290
H136	H	1.324480	0.727032	1.050290
O137	O	0.829500	-0.089583	0.000068
O138	O	1.329500	0.410417	0.500068
H139	H	0.776152	-0.121340	0.000067
H140	H	1.276152	0.378660	0.500067
H141	H	1.116504	-0.575704	0.000061
H142	H	1.616504	-0.075704	0.500061
H143	H	1.114183	-0.707819	0.000031
H144	H	1.614183	-0.207819	0.500031
H145	H	0.839246	-0.677573	0.000004
H146	H	1.339246	-0.177573	0.500004
O147	O	0.821710	-0.533618	0.000037
O148	O	1.321710	-0.033618	0.500037
H149	H	0.768363	-0.565375	0.000040
H150	H	1.268363	-0.065375	0.500040
H151	H	1.084654	0.009268	0.587125
H152	H	1.584654	0.509268	1.087125
