data_functionalizedCrystal
_audit_creation_method	'MofGen! by Chris Wilmer'
_symmetry_space_group_name_H-M	'P1'
_symmetry_Int_Tables_number	1
_symmetry_cell_setting	triclinic
loop_
_symmetry_equiv_pos_as_xyz
  x,y,z
_cell_length_a	18.101398
_cell_length_b	18.101397
_cell_length_c	16.120297
_cell_angle_alpha	87.130973
_cell_angle_beta	87.112267
_cell_angle_gamma	90.016023
loop_
_atom_site_label
_atom_site_type_symbol
_atom_site_fract_x
_atom_site_fract_y
_atom_site_fract_z
Zn1	Zn	1.110960	-0.316157	0.471163
Zn2	Zn	1.117156	-0.433721	0.331743
Zn3	Zn	0.993394	-0.309890	0.331788
Zn4	Zn	0.987094	-0.439950	0.471132
O5	O	1.052151	-0.374929	0.401457
O6	O	1.215415	-0.331768	0.452662
O7	O	1.105969	-0.412064	0.215086
O8	O	1.009033	-0.207090	0.350308
O9	O	1.219968	-0.418141	0.350232
O10	O	1.095408	-0.211694	0.452706
O11	O	1.015042	-0.321087	0.215119
O12	O	0.888926	-0.327127	0.350279
O13	O	0.998294	-0.428758	0.587800
O14	O	0.884296	-0.422682	0.452654
O15	O	1.089298	-0.337808	0.587822
O16	O	1.099860	-0.538178	0.350202
O17	O	1.004303	-0.542755	0.452610
C18	C	0.859740	-0.374901	0.401468
C19	C	0.777425	-0.374907	0.401493
C20	C	0.478335	-0.374949	0.401458
C21	C	0.506787	-0.435332	0.465552
C22	C	0.592394	-0.435164	0.465816
C23	C	0.626717	-0.374929	0.401476
C24	C	0.594567	-0.298009	0.425489
C25	C	0.508901	-0.298375	0.425945
C26	C	0.513861	-0.390792	0.313196
C27	C	0.599490	-0.392525	0.313668
C28	C	0.710576	-0.374913	0.401484
C29	C	0.394476	-0.374960	0.401452
C30	C	1.052090	-0.567338	0.401416
C31	C	1.052130	-0.649653	0.401427
C32	C	1.052221	-0.948747	0.401503
C33	C	1.112191	-0.914504	0.336898
C34	C	1.112381	-0.828893	0.337065
C35	C	1.052176	-0.800363	0.401464
C36	C	1.069375	-0.835331	0.489336
C37	C	1.069832	-0.920960	0.488985
C38	C	0.974865	-0.916236	0.378997
C39	C	0.975341	-0.830498	0.377035
C40	C	1.052149	-0.716503	0.401448
C41	C	1.052249	-1.032607	0.401525
C42	C	1.245313	-0.374959	0.401445
C43	C	1.327628	-0.374971	0.401441
C44	C	1.042402	-0.384677	0.618906
C45	C	1.038248	-0.388831	0.711570
C46	C	1.052232	-0.181770	0.401515
C47	C	1.052267	-0.099457	0.401541
C48	C	1.061905	-0.365166	0.184853
C49	C	1.066202	-0.360804	0.092189
C50	C	1.030636	-0.396399	0.881229
C51	C	1.073812	-0.353238	0.922536
C52	C	1.069577	-0.357449	1.016940
C53	C	1.034870	-0.392189	0.786816
H54	H	0.482347	-0.425315	0.530570
H55	H	1.126258	-0.941743	0.508051
H56	H	0.990495	-0.436509	0.916761
C57	C	1.098512	-0.938424	0.248613
C58	C	1.025185	-0.918669	0.208499
C59	C	1.011504	-0.942597	0.120212
C60	C	1.071149	-0.986278	0.072039
C61	C	1.144481	-1.006035	0.112153
C62	C	1.158162	-0.982108	0.200439
H63	H	0.981028	-0.886332	0.244160
H64	H	0.957218	-0.927971	0.090518
H65	H	1.061021	-1.003991	0.006684
H66	H	1.188638	-1.038373	0.076492
H67	H	1.212448	-0.996733	0.230134
H68	H	0.609949	-0.424997	0.531212
H69	H	1.113956	-0.313124	0.887001
H70	H	0.613155	-0.283771	0.489311
H71	H	0.486853	-0.492693	0.450669
C72	C	0.621689	-0.512393	0.445496
C73	C	0.605039	-0.545301	0.362156
C74	C	0.634328	-0.622536	0.341842
C75	C	0.680266	-0.666861	0.404868
C76	C	0.696918	-0.633953	0.488213
C77	C	0.667630	-0.556718	0.508527
H78	H	0.571031	-0.512489	0.315495
H79	H	0.622000	-0.646896	0.280144
H80	H	0.701947	-0.724034	0.389830
H81	H	0.730927	-0.666765	0.534874
H82	H	0.679957	-0.532358	0.570225
C83	C	0.477999	-0.279599	0.513111
C84	C	0.531291	-0.264377	0.581821
C85	C	0.500393	-0.245602	0.668991
C86	C	0.416204	-0.242051	0.687450
C87	C	0.362907	-0.257273	0.618738
C88	C	0.393804	-0.276048	0.531569
H89	H	0.593618	-0.267006	0.568158
H90	H	0.539848	-0.234334	0.719856
H91	H	0.393331	-0.228153	0.751978
H92	H	0.300580	-0.254644	0.632401
H93	H	0.354350	-0.287317	0.480704
H94	H	0.616960	-0.251972	0.380263
C95	C	0.483604	-0.235813	0.365651
C96	C	0.541347	-0.185678	0.317244
C97	C	0.516053	-0.123110	0.256962
C98	C	0.433017	-0.110677	0.245087
C99	C	0.375269	-0.160814	0.293496
C100	C	0.400563	-0.223381	0.353778
H101	H	0.602820	-0.194881	0.326033
H102	H	0.558803	-0.085996	0.221127
H103	H	0.414293	-0.064361	0.200463
H104	H	0.313796	-0.151611	0.284707
H105	H	0.357814	-0.260496	0.389613
H106	H	0.620620	-0.449107	0.295557
C107	C	0.486000	-0.464984	0.283706
C108	C	0.430623	-0.512134	0.339400
C109	C	0.402761	-0.586329	0.309921
C110	C	0.430275	-0.613375	0.224749
C111	C	0.485654	-0.566224	0.169050
C112	C	0.513517	-0.492029	0.198529
H113	H	0.410253	-0.492113	0.402455
H114	H	0.361765	-0.621233	0.351154
H115	H	0.409650	-0.668298	0.202927
H116	H	0.506025	-0.586244	0.105996
H117	H	0.554513	-0.457125	0.157296
H118	H	0.623149	-0.351422	0.263348
C119	C	1.098468	-0.796601	0.249044
C120	C	1.087106	-0.848715	0.178108
C121	C	1.073197	-0.816428	0.090082
C122	C	1.070652	-0.732025	0.072992
C123	C	1.082014	-0.679905	0.143930
C124	C	1.095923	-0.712193	0.231956
H125	H	1.088990	-0.911200	0.190758
H126	H	1.064786	-0.855011	0.037570
H127	H	1.060356	-0.708124	0.007830
H128	H	1.080130	-0.617421	0.131280
H129	H	1.104334	-0.673610	0.284468
C130	C	0.489385	-0.331318	0.248674
C131	C	0.547611	-0.282256	0.199561
C132	C	0.523131	-0.222781	0.135046
C133	C	0.440424	-0.212367	0.119646
C134	C	0.382193	-0.261430	0.168761
C135	C	0.406674	-0.320906	0.233275
H136	H	0.608840	-0.289964	0.210960
H137	H	0.566238	-0.186461	0.098688
H138	H	0.422303	-0.168340	0.071889
H139	H	0.320965	-0.253723	0.157362
H140	H	0.363567	-0.357225	0.269633
H141	H	1.169761	-0.809025	0.351955
H142	H	1.169262	-0.936639	0.351616
C143	C	1.013103	-0.951994	0.556232
C144	C	0.967532	-0.898851	0.610086
C145	C	0.910808	-0.929880	0.677336
C146	C	0.899655	-1.014053	0.690734
C147	C	0.945228	-1.067201	0.636879
C148	C	1.001952	-1.036172	0.569628
H149	H	0.975786	-0.836536	0.600169
H150	H	0.877072	-0.890536	0.717203
H151	H	0.857665	-1.037023	0.740516
H152	H	0.936973	-1.129516	0.646795
H153	H	1.035688	-1.075516	0.529761
H154	H	0.962301	-0.807324	0.312368
H155	H	0.930232	-0.938619	0.426052
H156	H	1.026859	-0.817196	0.538766
H157	H	1.125144	-0.814702	0.508725
C158	C	0.952695	-0.941651	0.293931
C159	C	1.004555	-0.992262	0.243814
C160	C	0.982396	-1.017678	0.158745
C161	C	0.908375	-0.992483	0.123793
C162	C	0.856511	-0.941869	0.173911
C163	C	0.878670	-0.916453	0.258980
H164	H	1.059354	-1.010916	0.269687
H165	H	1.020790	-1.055146	0.121645
H166	H	0.891971	-1.011297	0.060820
H167	H	0.801712	-0.923215	0.148038
H168	H	0.840276	-0.878986	0.296080
C169	C	0.912159	-0.804263	0.435948
C170	C	0.929305	-0.754797	0.507592
C171	C	0.866125	-0.728563	0.566513
C172	C	0.785799	-0.751795	0.553791
C173	C	0.768650	-0.801264	0.482144
C174	C	0.831830	-0.827497	0.423222
H175	H	0.988770	-0.737596	0.517012
H176	H	0.878821	-0.691943	0.619551
H177	H	0.739030	-0.732376	0.597408
H178	H	0.709185	-0.818464	0.472723
H179	H	0.819134	-0.864117	0.370184
