data_functionalizedCrystal
_audit_creation_method	'MofGen! by Chris Wilmer'
_symmetry_space_group_name_H-M	'P1'
_symmetry_Int_Tables_number	1
_symmetry_cell_setting	triclinic
loop_
_symmetry_equiv_pos_as_xyz
  x,y,z
_cell_length_a	14.908782
_cell_length_b	14.908178
_cell_length_c	17.077396
_cell_angle_alpha	86.672472
_cell_angle_beta	93.284696
_cell_angle_gamma	90.210875
loop_
_atom_site_label
_atom_site_type_symbol
_atom_site_fract_x
_atom_site_fract_y
_atom_site_fract_z
Zn1	Zn	1.353920	-0.437257	-0.353760
Zn2	Zn	1.687253	-0.103924	-0.020427
Zn3	Zn	2.020586	0.229410	0.312906
Zn4	Zn	1.345155	-0.587637	-0.215380
Zn5	Zn	1.678489	-0.254304	0.117953
Zn6	Zn	2.011822	0.079029	0.451287
Zn7	Zn	1.203567	-0.428620	-0.230506
Zn8	Zn	1.536900	-0.095287	0.102827
Zn9	Zn	1.870234	0.238047	0.436160
Zn10	Zn	1.194865	-0.578914	-0.354603
Zn11	Zn	1.528199	-0.245581	-0.021270
Zn12	Zn	1.861532	0.087753	0.312064
O13	O	1.274377	-0.508107	-0.288562
O14	O	1.607710	-0.174774	0.044771
O15	O	1.941044	0.158560	0.378104
O16	O	1.478577	-0.464471	-0.328721
O17	O	1.811911	-0.131137	0.004612
O18	O	2.145244	0.202196	0.337946
O19	O	1.326347	-0.566579	-0.107539
O20	O	1.659680	-0.233246	0.225794
O21	O	1.993014	0.100087	0.559127
O22	O	1.230821	-0.303932	-0.252834
O23	O	1.564154	0.029401	0.080499
O24	O	1.897488	0.362734	0.413833
O25	O	1.472138	-0.574954	-0.227054
O26	O	1.805471	-0.241621	0.106280
O27	O	2.138805	0.091712	0.439613
O28	O	1.341285	-0.310278	-0.343388
O29	O	1.674618	0.023055	-0.010055
O30	O	2.007951	0.356389	0.323278
O31	O	1.222322	-0.449750	-0.118652
O32	O	1.555656	-0.116417	0.214681
O33	O	1.888989	0.216917	0.548014
O34	O	1.076593	-0.441291	-0.253651
O35	O	1.409926	-0.107958	0.079682
O36	O	1.743259	0.225375	0.413016
O37	O	1.215991	-0.560087	-0.464339
O38	O	1.549324	-0.226754	-0.131005
O39	O	1.882657	0.106580	0.202328
O40	O	1.070200	-0.551712	-0.344824
O41	O	1.403533	-0.218378	-0.011491
O42	O	1.736866	0.114955	0.321842
O43	O	1.332847	-0.456012	-0.463720
O44	O	1.666181	-0.122679	-0.130386
O45	O	1.999514	0.210654	0.202947
O46	O	1.317910	-0.712313	-0.227871
O47	O	1.651243	-0.378980	0.105463
O48	O	1.984576	-0.045647	0.438796
O49	O	1.207492	-0.705904	-0.330157
O50	O	1.540826	-0.372571	0.003176
O51	O	1.874159	-0.039238	0.336510
C52	C	1.040772	-0.494618	-0.300971
C53	C	1.374106	-0.161285	0.032362
C54	C	1.707439	0.172048	0.365696
C55	C	0.940834	-0.488870	-0.306297
C56	C	1.274167	-0.155536	0.027037
C57	C	1.607501	0.177797	0.360370
C58	C	0.746342	-0.592956	-0.210293
C59	C	1.079675	-0.259622	0.123040
C60	C	1.413008	0.073711	0.456374
C61	C	0.652441	-0.587557	-0.215294
C62	C	0.985774	-0.254224	0.118039
C63	C	1.319107	0.079110	0.451372
C64	C	0.659129	-0.472679	-0.321305
C65	C	0.992462	-0.139346	0.012028
C66	C	1.325795	0.193988	0.345362
C67	C	0.753030	-0.478078	-0.316303
C68	C	1.086363	-0.144744	0.017030
C69	C	1.419696	0.188589	0.350363
C70	C	0.796633	-0.538217	-0.260795
C71	C	1.129966	-0.204884	0.072539
C72	C	1.463300	0.128450	0.405872
C73	C	0.890536	-0.543610	-0.255790
C74	C	1.223869	-0.210277	0.077544
C75	C	1.557203	0.123056	0.410877
C76	C	0.897222	-0.428737	-0.361803
C77	C	1.230555	-0.095404	-0.028470
C78	C	1.563889	0.237929	0.304863
C79	C	0.803321	-0.423339	-0.366805
C80	C	1.136654	-0.090005	-0.033472
C81	C	1.469988	0.243328	0.299862
C82	C	1.260830	-0.741737	-0.277480
C83	C	1.594163	-0.408404	0.055854
C84	C	1.927497	-0.075071	0.389187
C85	C	1.255117	-0.841690	-0.272760
C86	C	1.588450	-0.508357	0.060573
C87	C	1.921783	-0.175023	0.393907
C88	C	1.359320	-1.035965	-0.358298
C89	C	1.692653	-0.702631	-0.024965
C90	C	2.025986	-0.369298	0.308369
C91	C	1.353955	-1.129879	-0.353866
C92	C	1.687288	-0.796546	-0.020533
C93	C	2.020622	-0.463213	0.312800
C94	C	1.239018	-1.123436	-0.259469
C95	C	1.572351	-0.790102	0.073864
C96	C	1.905685	-0.456769	0.407197
C97	C	1.244383	-1.029521	-0.263901
C98	C	1.577716	-0.696188	0.069432
C99	C	1.911050	-0.362854	0.402766
C100	C	1.304537	-0.985789	-0.313316
C101	C	1.637870	-0.652456	0.020017
C102	C	1.971204	-0.319122	0.353350
C103	C	1.309906	-0.891873	-0.317743
C104	C	1.643239	-0.558539	0.015590
C105	C	1.976572	-0.225206	0.348923
C106	C	1.194965	-0.885431	-0.223351
C107	C	1.528298	-0.552097	0.109982
C108	C	1.861632	-0.218764	0.443316
C109	C	1.189600	-0.979345	-0.218919
C110	C	1.522933	-0.646012	0.114414
C111	C	1.856267	-0.312679	0.447747
C112	C	1.508894	-0.521649	-0.276106
C113	C	1.842227	-0.188316	0.057227
C114	C	2.175560	0.145018	0.390561
C115	C	1.608831	-0.527420	-0.270798
C116	C	1.942164	-0.194086	0.062535
C117	C	2.275497	0.139247	0.395869
C118	C	1.274426	-0.508040	-0.493308
C119	C	1.607759	-0.174707	-0.159974
C120	C	1.941093	0.158627	0.173359
C121	C	1.274447	-0.508011	-0.580558
C122	C	1.607780	-0.174678	-0.247225
C123	C	1.941114	0.158655	0.086109
C124	C	1.288001	-0.273566	-0.299705
C125	C	1.621335	0.059767	0.033629
C126	C	1.954668	0.393101	0.366962
C127	C	1.293807	-0.173618	-0.304453
C128	C	1.627140	0.159715	0.028881
C129	C	1.960474	0.493048	0.362214
C130	C	1.220299	-0.447173	-0.627334
C131	C	1.553633	-0.113839	-0.294000
C132	C	1.886966	0.219494	0.039333
C133	C	1.220315	-0.447153	-0.709314
C134	C	1.553649	-0.113820	-0.375981
C135	C	1.886982	0.219514	-0.042648
C136	C	1.274484	-0.507969	-0.744518
C137	C	1.607817	-0.174635	-0.411184
C138	C	1.941151	0.158698	-0.077851
C139	C	1.328634	-0.568814	-0.697736
C140	C	1.661967	-0.235481	-0.364403
C141	C	1.995301	0.097853	-0.031069
C142	C	1.328613	-0.568837	-0.615757
C143	C	1.661946	-0.235504	-0.282424
C144	C	1.995279	0.097829	0.050910
C145	C	1.328676	-0.568760	-0.868607
C146	C	1.662009	-0.235427	-0.535273
C147	C	1.995343	0.097907	-0.201940
C148	C	1.328699	-0.568736	-0.950591
C149	C	1.662032	-0.235403	-0.617258
C150	C	1.995365	0.097931	-0.283925
C151	C	1.220379	-0.447076	-0.962164
C152	C	1.553712	-0.113743	-0.628831
C153	C	1.887045	0.219591	-0.295497
C154	C	1.220357	-0.447099	-0.880185
C155	C	1.553691	-0.113766	-0.546852
C156	C	1.887024	0.219568	-0.213518
C157	C	1.274509	-0.507944	-0.833409
C158	C	1.607842	-0.174610	-0.500075
C159	C	1.941175	0.158723	-0.166742
C160	C	1.274383	-0.508112	-0.084614
C161	C	1.607717	-0.174779	0.248719
C162	C	1.941050	0.158555	0.582053
C163	C	1.274551	-0.507897	0.002633
C164	C	1.607885	-0.174564	0.335966
C165	C	1.941218	0.158769	0.669300
H166	H	0.767806	-0.374378	-0.412001
H167	H	1.101139	-0.041044	-0.078667
H168	H	1.434473	0.292289	0.254666
H169	H	1.372780	-0.618299	-0.830523
H170	H	1.706113	-0.284966	-0.497190
H171	H	2.039447	0.048368	-0.163857
H172	H	1.140623	-1.014965	-0.178689
H173	H	1.473956	-0.681631	0.154644
H174	H	1.807289	-0.348298	0.487978
H175	H	1.150360	-0.844567	-0.186721
H176	H	1.483693	-0.511233	0.146612
H177	H	1.817026	-0.177900	0.479945
H178	H	1.176253	-0.397574	-0.851525
H179	H	1.509586	-0.064240	-0.518192
H180	H	1.842919	0.269093	-0.184858
H181	H	1.372808	-0.618258	-0.979251
H182	H	1.706141	-0.284924	-0.645918
H183	H	2.039475	0.048409	-0.312585
H184	H	1.358888	-0.856267	-0.357978
H185	H	1.692222	-0.522934	-0.024644
H186	H	2.025555	-0.189601	0.308689
H187	H	1.372712	-0.618372	-0.577673
H188	H	1.706046	-0.285039	-0.244339
H189	H	2.039379	0.048294	0.088994
H190	H	1.190040	-1.159059	-0.219242
H191	H	1.523373	-0.825725	0.114092
H192	H	1.856707	-0.492392	0.447425
H193	H	0.926036	-0.592577	-0.210590
H194	H	1.259370	-0.259244	0.122743
H195	H	1.592703	0.074089	0.456076
H196	H	0.781844	-0.641918	-0.165091
H197	H	1.115178	-0.308585	0.168242
H198	H	1.448511	0.024749	0.501576
H199	H	0.611497	-0.632133	-0.174172
H200	H	0.944830	-0.298799	0.159161
H201	H	1.278163	0.034534	0.492495
H202	H	1.176194	-0.397644	-0.598677
H203	H	1.509527	-0.064311	-0.265344
H204	H	1.842861	0.269022	0.067989
H205	H	1.176219	-0.397615	-0.747396
H206	H	1.509553	-0.064282	-0.414063
H207	H	1.842886	0.269052	-0.080729
H208	H	0.623610	-0.423724	-0.366503
H209	H	0.956943	-0.090391	-0.033170
H210	H	1.290277	0.242943	0.300163
H211	H	1.372734	-0.618336	-0.726405
H212	H	1.706068	-0.285002	-0.393072
H213	H	2.039401	0.048331	-0.059738
H214	H	0.938180	-0.384161	-0.402922
H215	H	1.271513	-0.050828	-0.069589
H216	H	1.604846	0.282506	0.263744
H217	H	1.176288	-0.397533	-1.000253
H218	H	1.509621	-0.064200	-0.666920
H219	H	1.842955	0.269134	-0.333587
H220	H	1.408306	-1.000358	-0.398528
H221	H	1.741639	-0.667025	-0.065195
H222	H	2.074972	-0.333691	0.268138
H223	H	1.398560	-1.170729	-0.390499
H224	H	1.731894	-0.837396	-0.057166
H225	H	2.065227	-0.504062	0.276167
