data_functionalizedCrystal
_audit_creation_method	'MofGen! by Chris Wilmer'
_symmetry_space_group_name_H-M	'P1'
_symmetry_Int_Tables_number	1
_symmetry_cell_setting	triclinic
loop_
_symmetry_equiv_pos_as_xyz
  x,y,z
_cell_length_a	16.959455
_cell_length_b	16.959454
_cell_length_c	21.395355
_cell_angle_alpha	90.012996
_cell_angle_beta	90.029472
_cell_angle_gamma	90.017095
loop_
_atom_site_label
_atom_site_type_symbol
_atom_site_fract_x
_atom_site_fract_y
_atom_site_fract_z
Zn1	Zn	1.208455	-0.314836	0.354368
Zn2	Zn	1.541788	0.018497	0.687701
Zn3	Zn	1.875121	0.351831	1.021034
Zn4	Zn	1.208356	-0.446997	0.249600
Zn5	Zn	1.541690	-0.113663	0.582934
Zn6	Zn	1.875023	0.219670	0.916267
Zn7	Zn	1.076262	-0.314829	0.249595
Zn8	Zn	1.409596	0.018504	0.582929
Zn9	Zn	1.742929	0.351837	0.916262
Zn10	Zn	1.076248	-0.446969	0.354332
Zn11	Zn	1.409581	-0.113636	0.687665
Zn12	Zn	1.742915	0.219697	1.020998
O13	O	1.142330	-0.380908	0.301974
O14	O	1.475664	-0.047574	0.635307
O15	O	1.808997	0.285759	0.968640
O16	O	1.319053	-0.332382	0.340487
O17	O	1.652386	0.000952	0.673821
O18	O	1.985719	0.334285	1.007154
O19	O	1.190799	-0.429473	0.161922
O20	O	1.524132	-0.096140	0.495255
O21	O	1.857465	0.237194	0.828588
O22	O	1.093845	-0.204219	0.263507
O23	O	1.427178	0.129114	0.596840
O24	O	1.760512	0.462447	0.930173
O25	O	1.318980	-0.429479	0.263515
O26	O	1.652314	-0.096146	0.596848
O27	O	1.985647	0.237187	0.930182
O28	O	1.190966	-0.204224	0.340483
O29	O	1.524300	0.129109	0.673816
O30	O	1.857633	0.462443	1.007149
O31	O	1.093750	-0.332370	0.161918
O32	O	1.427083	0.000963	0.495251
O33	O	1.760416	0.334297	0.828585
O34	O	0.965649	-0.332344	0.263472
O35	O	1.298983	0.000990	0.596805
O36	O	1.632316	0.334323	0.930138
O37	O	1.093821	-0.429433	0.442014
O38	O	1.427154	-0.096100	0.775348
O39	O	1.760487	0.237234	1.108681
O40	O	0.965639	-0.429427	0.340421
O41	O	1.298972	-0.096093	0.673754
O42	O	1.632306	0.237240	1.007088
O43	O	1.190952	-0.332355	0.442041
O44	O	1.524286	0.000978	0.775374
O45	O	1.857619	0.334312	1.108707
O46	O	1.190785	-0.557604	0.263480
O47	O	1.524118	-0.224271	0.596813
O48	O	1.857451	0.109063	0.930147
O49	O	1.093725	-0.557584	0.340426
O50	O	1.427058	-0.224251	0.673759
O51	O	1.760392	0.109083	1.007092
C52	C	0.936964	-0.380882	0.301942
C53	C	1.270297	-0.047549	0.635276
C54	C	1.603631	0.285785	0.968609
C55	C	0.849107	-0.380890	0.301944
C56	C	1.182441	-0.047557	0.635277
C57	C	1.515774	0.285777	0.968610
C58	C	0.477584	-0.431417	0.261874
C59	C	0.810917	-0.098083	0.595207
C60	C	1.144250	0.235250	0.928541
C61	C	0.477680	-0.330465	0.342150
C62	C	0.811014	0.002869	0.675483
C63	C	1.144347	0.336202	1.008816
C64	C	0.560226	-0.330452	0.342135
C65	C	0.893559	0.002882	0.675468
C66	C	1.226893	0.336215	1.008801
C67	C	0.601454	-0.380923	0.301989
C68	C	0.934788	-0.047589	0.635322
C69	C	1.268121	0.285744	0.968656
C70	C	0.560137	-0.431407	0.261859
C71	C	0.893470	-0.098073	0.595192
C72	C	1.226804	0.235260	0.928525
C73	C	0.601550	-0.279974	0.382269
C74	C	0.934883	0.053359	0.715602
C75	C	1.268216	0.386693	1.048935
C76	C	0.684101	-0.279960	0.382256
C77	C	1.017434	0.053374	0.715589
C78	C	1.350767	0.386707	1.048922
C79	C	0.725331	-0.330427	0.342106
C80	C	1.058664	0.002906	0.675440
C81	C	1.391997	0.336239	1.008773
C82	C	0.684008	-0.380913	0.301974
C83	C	1.017341	-0.047580	0.635307
C84	C	1.350675	0.285754	0.968641
C85	C	0.725236	-0.431384	0.261828
C86	C	1.058570	-0.098051	0.595162
C87	C	1.391903	0.235283	0.928495
C88	C	0.683915	-0.481866	0.221692
C89	C	1.017249	-0.148533	0.555026
C90	C	1.350582	0.184801	0.888359
C91	C	0.601367	-0.481874	0.221710
C92	C	0.934700	-0.148541	0.555043
C93	C	1.268034	0.184792	0.888376
C94	C	0.807879	-0.330419	0.342089
C95	C	1.141212	0.002914	0.675422
C96	C	1.474546	0.336248	1.008756
C97	C	0.807790	-0.431374	0.261813
C98	C	1.141123	-0.098041	0.595147
C99	C	1.474457	0.235293	0.928480
C100	C	1.142264	-0.586274	0.301963
C101	C	1.475597	-0.252941	0.635296
C102	C	1.808931	0.080393	0.968630
C103	C	1.142308	-0.674131	0.301979
C104	C	1.475641	-0.340797	0.635313
C105	C	1.808975	-0.007464	0.968646
C106	C	1.091865	-1.045626	0.342035
C107	C	1.425198	-0.712292	0.675368
C108	C	1.758531	-0.378959	1.008702
C109	C	1.193016	-1.045587	0.261976
C110	C	1.526349	-0.712253	0.595310
C111	C	1.859683	-0.378920	0.928643
C112	C	1.192988	-0.963041	0.261971
C113	C	1.526322	-0.629707	0.595304
C114	C	1.859655	-0.296374	0.928637
C115	C	1.142397	-0.921784	0.301997
C116	C	1.475731	-0.588450	0.635330
C117	C	1.809064	-0.255117	0.968664
C118	C	1.091834	-0.963072	0.342029
C119	C	1.425167	-0.629739	0.675362
C120	C	1.758501	-0.296406	1.008696
C121	C	1.243545	-0.921746	0.221935
C122	C	1.576879	-0.588413	0.555268
C123	C	1.910212	-0.255079	0.888601
C124	C	1.243519	-0.839195	0.221927
C125	C	1.576852	-0.505862	0.555260
C126	C	1.910186	-0.172528	0.888593
C127	C	1.192931	-0.797936	0.261957
C128	C	1.526265	-0.464603	0.595290
C129	C	1.859598	-0.131270	0.928623
C130	C	1.142367	-0.839230	0.301991
C131	C	1.475700	-0.505897	0.635324
C132	C	1.809033	-0.172563	0.968658
C133	C	1.091775	-0.797973	0.342018
C134	C	1.425109	-0.464639	0.675351
C135	C	1.758442	-0.131306	1.008684
C136	C	1.041214	-0.839265	0.382055
C137	C	1.374547	-0.505932	0.715389
C138	C	1.707881	-0.172598	1.048722
C139	C	1.041246	-0.921814	0.382059
C140	C	1.374580	-0.588480	0.715393
C141	C	1.707913	-0.255147	1.048726
C142	C	1.192899	-0.715388	0.261953
C143	C	1.526232	-0.382055	0.595286
C144	C	1.859566	-0.048721	0.928620
C145	C	1.091745	-0.715419	0.342012
C146	C	1.425078	-0.382086	0.675345
C147	C	1.758411	-0.048753	1.008678
C148	C	1.348498	-0.380934	0.302006
C149	C	1.681832	-0.047601	0.635339
C150	C	2.015165	0.285732	0.968672
C151	C	1.436355	-0.380946	0.302019
C152	C	1.769688	-0.047612	0.635353
C153	C	2.103022	0.285721	0.968686
C154	C	1.142396	-0.380892	0.465397
C155	C	1.475729	-0.047558	0.798730
C156	C	1.809063	0.285775	1.132064
C157	C	1.142424	-0.380885	0.535038
C158	C	1.475757	-0.047552	0.868372
C159	C	1.809091	0.285782	1.201705
C160	C	1.142418	-0.174740	0.301998
C161	C	1.475752	0.158594	0.635331
C162	C	1.809085	0.491927	0.968665
C163	C	1.142456	-0.086883	0.302009
C164	C	1.475789	0.246450	0.635342
C165	C	1.809122	0.579784	0.968675
C166	C	1.142310	-0.380867	0.139186
C167	C	1.475644	-0.047533	0.472520
C168	C	1.808977	0.285800	0.805853
C169	C	1.142436	-0.380651	0.069545
C170	C	1.475769	-0.047318	0.402879
C171	C	1.809102	0.286016	0.736212
C172	C	1.192998	-0.330334	0.567766
C173	C	1.526332	0.002999	0.901100
C174	C	1.859665	0.336332	1.234433
C175	C	1.192997	-0.330300	0.633202
C176	C	1.526331	0.003033	0.966535
C177	C	1.859664	0.336366	1.299868
C178	C	1.142430	-0.380831	0.665907
C179	C	1.475763	-0.047498	0.999240
C180	C	1.809097	0.285836	1.332573
C181	C	1.091846	-0.431385	0.633171
C182	C	1.425179	-0.098052	0.966504
C183	C	1.758513	0.235281	1.299838
C184	C	1.091843	-0.431412	0.567737
C185	C	1.425176	-0.098079	0.901070
C186	C	1.758509	0.235254	1.234403
C187	C	1.136166	-0.452002	0.769577
C188	C	1.469499	-0.118669	1.102911
C189	C	1.802832	0.214665	1.436244
C190	C	1.136174	-0.451976	0.835010
C191	C	1.469508	-0.118643	1.168344
C192	C	1.802841	0.214690	1.501677
C193	C	1.142435	-0.380748	0.867728
C194	C	1.475768	-0.047414	1.201061
C195	C	1.809102	0.285919	1.534394
C196	C	1.148703	-0.309542	0.835004
C197	C	1.482037	0.023791	1.168337
C198	C	1.815370	0.357125	1.501671
C199	C	1.148700	-0.309569	0.769570
C200	C	1.482034	0.023764	1.102903
C201	C	1.815367	0.357098	1.436236
C202	C	1.142427	-0.380807	0.736859
C203	C	1.475761	-0.047474	1.070192
C204	C	1.809094	0.285859	1.403526
C205	C	1.193011	-0.330156	0.971408
C206	C	1.526344	0.003177	1.304742
C207	C	1.859677	0.336511	1.638075
C208	C	1.193004	-0.330121	1.036845
C209	C	1.526338	0.003213	1.370178
C210	C	1.859671	0.336546	1.703511
C211	C	1.091857	-0.431212	1.036813
C212	C	1.425190	-0.097879	1.370146
C213	C	1.758524	0.235454	1.703479
C214	C	1.091859	-0.431241	0.971377
C215	C	1.425193	-0.097907	1.304711
C216	C	1.758526	0.235426	1.638044
C217	C	1.142441	-0.380714	0.938679
C218	C	1.475774	-0.047380	1.272012
C219	C	1.809107	0.285953	1.605346
H220	H	1.050550	-0.681833	0.374609
H221	H	1.383883	-0.348499	0.707942
H222	H	1.717217	-0.015166	1.041275
H223	H	0.567716	-0.522974	0.189033
H224	H	0.901049	-0.189641	0.522366
H225	H	1.234383	0.143693	0.855699
H226	H	0.444107	-0.289378	0.374838
H227	H	0.777440	0.043955	0.708171
H228	H	1.110774	0.377289	1.041505
H229	H	1.000019	-0.805664	0.414642
H230	H	1.333352	-0.472331	0.747976
H231	H	1.666685	-0.138997	1.081309
H232	H	0.841519	-0.289319	0.374768
H233	H	1.174852	0.044015	0.708102
H234	H	1.508186	0.377348	1.041435
O235	O	0.433025	-0.485864	0.218584
O236	O	0.766358	-0.152530	0.551917
O237	O	1.099692	0.180803	0.885251
H238	H	0.368696	-0.477396	0.225337
H239	H	0.702030	-0.144063	0.558670
H240	H	1.035363	0.189270	0.892004
O241	O	1.298107	-0.966262	0.178777
O242	O	1.631440	-0.632929	0.512110
O243	O	1.964773	-0.299596	0.845444
H244	H	1.284578	-0.950472	0.129585
H245	H	1.617912	-0.617139	0.462918
H246	H	1.951245	-0.283806	0.796252
O247	O	0.557087	-0.225533	0.425562
O248	O	0.890420	0.107801	0.758895
O249	O	1.223753	0.441134	1.092228
H250	H	0.492744	-0.234012	0.418821
H251	H	0.826077	0.099321	0.752154
H252	H	1.159410	0.432655	1.085487
O253	O	0.728668	-0.225503	0.425532
O254	O	1.062001	0.107830	0.758866
O255	O	1.395334	0.441164	1.092199
H256	H	0.686130	-0.190404	0.453445
H257	H	1.019463	0.142930	0.786778
H258	H	1.352796	0.476263	1.120112
O259	O	0.728391	-0.536297	0.178392
O260	O	1.061725	-0.202964	0.511725
O261	O	1.395058	0.130370	0.845059
H262	H	0.712554	-0.598358	0.189055
H263	H	1.045887	-0.265024	0.522389
H264	H	1.379221	0.068309	0.855722
H265	H	1.000081	-0.955441	0.414655
H266	H	1.333414	-0.622108	0.747989
H267	H	1.666748	-0.288774	1.081322
O268	O	1.247533	-0.275757	0.668509
O269	O	1.580866	0.057576	1.001842
O270	O	1.914199	0.390910	1.335175
H271	H	1.239026	-0.284218	0.719502
H272	H	1.572359	0.049115	1.052836
H273	H	1.905692	0.382448	1.386169
H274	H	1.153802	-0.251591	0.742929
H275	H	1.487136	0.081742	1.076262
H276	H	1.820469	0.415075	1.409595
H277	H	1.050701	-1.079250	0.374635
H278	H	1.384034	-0.745916	0.707968
H279	H	1.717368	-0.412583	1.041301
H280	H	1.050655	-0.472576	0.541090
H281	H	1.383989	-0.139242	0.874423
H282	H	1.717322	0.194091	1.207757
O283	O	1.155435	-0.232705	0.870280
O284	O	1.488768	0.100628	1.203613
O285	O	1.822102	0.433961	1.536946
H286	H	1.154367	-0.244644	0.921278
H287	H	1.487701	0.088690	1.254611
H288	H	1.821034	0.422023	1.587944
O289	O	1.247602	-1.090079	0.218823
O290	O	1.580936	-0.756746	0.552156
O291	O	1.914269	-0.423412	0.885490
H292	H	1.239139	-1.154418	0.225561
H293	H	1.572473	-0.821084	0.558894
H294	H	1.905806	-0.487751	0.892228
O295	O	1.298058	-0.794659	0.178754
O296	O	1.631392	-0.461326	0.512087
O297	O	1.964725	-0.127992	0.845420
H298	H	1.333247	-0.837217	0.150926
H299	H	1.666580	-0.503884	0.484260
H300	H	1.999913	-0.170551	0.817593
O301	O	1.037313	-0.485771	0.936076
O302	O	1.370647	-0.152438	1.269410
O303	O	1.703980	0.180896	1.602743
H304	H	1.045801	-0.477296	0.885082
H305	H	1.379135	-0.143963	1.218415
H306	H	1.712468	0.189371	1.551748
O307	O	1.247551	-0.275836	0.532502
O308	O	1.580885	0.057497	0.865835
O309	O	1.914218	0.390831	1.199168
H310	H	1.212194	-0.235629	0.502670
H311	H	1.545527	0.097704	0.836003
H312	H	1.878861	0.431038	1.169337
O313	O	1.247561	-0.275661	0.936134
O314	O	1.580894	0.057672	1.269467
O315	O	1.914228	0.391006	1.602801
H316	H	1.212202	-0.235461	0.906297
H317	H	1.545535	0.097872	1.239631
H318	H	1.878869	0.431206	1.572964
H319	H	1.234187	-0.288952	1.063491
H320	H	1.567520	0.044382	1.396824
H321	H	1.900853	0.377715	1.730158
O322	O	1.037313	-0.485716	1.072076
O323	O	1.370647	-0.152382	1.405410
O324	O	1.703980	0.180951	1.738743
H325	H	1.045813	-0.477208	1.123076
H326	H	1.379147	-0.143875	1.456409
H327	H	1.712480	0.189459	1.789743
O328	O	1.247428	-0.670848	0.218778
O329	O	1.580761	-0.337515	0.552111
O330	O	1.914094	-0.004182	0.885444
H331	H	1.282613	-0.713405	0.190947
H332	H	1.615946	-0.380072	0.524281
H333	H	1.949280	-0.046739	0.857614
O334	O	1.129405	-0.528770	0.870304
O335	O	1.462739	-0.195437	1.203638
O336	O	1.796072	0.137896	1.536971
H337	H	1.125032	-0.578303	0.836563
H338	H	1.458365	-0.244970	1.169896
H339	H	1.791699	0.088364	1.503229
O340	O	1.129408	-0.528831	0.734289
O341	O	1.462742	-0.195497	1.067623
O342	O	1.796075	0.137836	1.400956
H343	H	1.073160	-0.558307	0.746834
H344	H	1.406494	-0.224974	1.080167
H345	H	1.739827	0.108359	1.413501
O346	O	0.852258	-0.485809	0.218511
O347	O	1.185591	-0.152476	0.551845
O348	O	1.518925	0.180857	0.885178
H349	H	0.809655	-0.520914	0.190610
H350	H	1.142988	-0.187580	0.523943
H351	H	1.476322	0.145753	0.857277
O352	O	1.037302	-0.485886	0.668440
O353	O	1.370635	-0.152553	1.001773
O354	O	1.703968	0.180780	1.335106
H355	H	1.045804	-0.477380	0.719439
H356	H	1.379138	-0.144047	1.052773
H357	H	1.712471	0.189286	1.386106
