data_functionalizedCrystal
_audit_creation_method	'MofGen! by Chris Wilmer'
_symmetry_space_group_name_H-M	'P1'
_symmetry_Int_Tables_number	1
_symmetry_cell_setting	triclinic
loop_
_symmetry_equiv_pos_as_xyz
  x,y,z
_cell_length_a	10.654545
_cell_length_b	23.532407
_cell_length_c	22.610064
_cell_angle_alpha	90.004436
_cell_angle_beta	90.007853
_cell_angle_gamma	83.665913
loop_
_atom_site_label
_atom_site_type_symbol
_atom_site_fract_x
_atom_site_fract_y
_atom_site_fract_z
O1	O	1.665320	0.079965	0.049191
O2	O	1.299599	0.087588	0.049195
O3	O	1.493487	0.000917	0.049176
O4	O	1.471431	0.166636	0.049210
O5	O	1.493453	0.000929	-0.049193
O6	O	1.299565	0.087601	-0.049175
O7	O	1.665285	0.079978	-0.049178
Zn8	Zn	1.482420	0.083791	-0.064795
Zn9	Zn	1.482465	0.083775	0.064811
O10	O	1.471397	0.166649	-0.049160
C11	C	1.252801	0.087035	0.000010
C12	C	1.113411	0.085362	0.000011
C13	C	1.047913	0.084582	-0.053611
C14	C	0.916943	0.083000	-0.053611
C15	C	0.916981	0.082983	0.053636
C16	C	1.047950	0.084560	0.053636
C17	C	1.492909	-0.020297	-0.000011
C18	C	1.491220	-0.083525	-0.000020
C19	C	1.369517	-0.350484	0.000018
C20	C	1.371085	-0.291074	0.000013
O21	O	1.274540	-0.254958	0.000033
N22	N	1.486352	-0.267697	0.000005
C23	C	1.600058	-0.303735	0.000008
O24	O	1.698245	-0.278396	0.000001
C25	C	1.598488	-0.363144	0.000017
C26	C	1.483213	-0.386517	0.000019
C27	C	1.254252	-0.373858	0.000020
C28	C	1.252684	-0.433264	0.000024
C29	C	1.366380	-0.469297	0.000025
C30	C	1.481645	-0.445924	0.000022
C31	C	1.712192	-0.399181	0.000023
C32	C	1.710612	-0.458593	0.000033
C33	C	1.595338	-0.481966	0.000035
C34	C	1.593774	-0.541363	0.000026
N35	N	1.478507	-0.564739	0.000034
C36	C	1.364810	-0.528706	0.000033
C37	C	1.603346	-0.178971	-0.000010
C38	C	1.604917	-0.119563	-0.000023
C39	C	1.375945	-0.106906	-0.000016
C40	C	1.374375	-0.166315	-0.000007
C41	C	1.488079	-0.202347	-0.000002
C42	C	1.361526	-0.653464	0.000040
C43	C	1.359968	-0.712877	0.000041
C44	C	1.588940	-0.725528	0.000038
C45	C	1.590499	-0.666122	0.000034
C46	C	1.476781	-0.630090	0.000037
O47	O	1.690269	-0.577514	0.000009
O48	O	1.266639	-0.554053	0.000048
C49	C	1.712083	0.080531	0.000007
C50	C	1.851473	0.082204	0.000011
C51	C	1.471976	0.187862	0.000029
C52	C	1.473664	0.251091	0.000042
N53	N	1.482398	0.083802	-0.153247
C54	C	1.568322	0.045402	-0.561897
C55	C	1.568329	0.045398	-0.623817
O56	O	1.641331	0.012758	-0.655842
N57	N	1.482464	0.083763	-0.654784
C58	C	1.396578	0.122130	-0.623829
O59	O	1.323543	0.154761	-0.655855
C60	C	1.396567	0.122131	-0.561910
C61	C	1.482446	0.083768	-0.530946
C62	C	1.654193	0.007042	-0.530932
C63	C	1.654188	0.007047	-0.469017
C64	C	1.568312	0.045412	-0.438065
C65	C	1.482441	0.083773	-0.469030
C66	C	1.310676	0.160495	-0.530956
C67	C	1.310672	0.160492	-0.469033
C68	C	1.396551	0.122129	-0.438068
C69	C	1.396559	0.122143	-0.376163
N70	N	1.482424	0.083779	-0.345195
C71	C	1.568300	0.045413	-0.376147
C72	C	1.396607	0.122124	-0.753862
C73	C	1.396624	0.122127	-0.815780
C74	C	1.568373	0.045394	-0.815764
C75	C	1.568362	0.045395	-0.753845
C76	C	1.482472	0.083760	-0.722895
C77	C	1.568284	0.045427	-0.246119
C78	C	1.568274	0.045437	-0.184198
C79	C	1.396521	0.122167	-0.184220
C80	C	1.396534	0.122159	-0.246136
C81	C	1.482421	0.083785	-0.277084
O82	O	1.323591	0.154765	-0.344098
O83	O	1.641312	0.012782	-0.344113
N84	N	1.482496	0.083759	0.153263
H85	H	1.266094	-0.731903	0.000040
C86	C	1.236438	-0.613836	0.000040
C87	C	1.141786	-0.616782	0.051119
C88	C	1.016700	-0.577154	0.051113
C89	C	0.986266	-0.534579	0.000029
C90	C	1.080921	-0.531631	-0.051054
C91	C	1.206007	-0.571259	-0.051049
H92	H	1.164313	-0.648300	0.088938
H93	H	0.946631	-0.579336	0.088929
H94	H	0.893670	-0.505243	0.000025
H95	H	1.058394	-0.500113	-0.088873
H96	H	1.276076	-0.569077	-0.088864
H97	H	1.101207	0.085235	-0.097276
H98	H	1.101280	0.085194	0.097304
C99	C	1.662822	0.003192	-0.719787
C100	C	1.661532	-0.061666	-0.728312
C101	C	1.755994	-0.103872	-0.694258
C102	C	1.851746	-0.081221	-0.651679
C103	C	1.853039	-0.016360	-0.643152
C104	C	1.758577	0.025847	-0.677206
H105	H	1.590647	-0.078437	-0.759833
H106	H	1.755035	-0.151887	-0.700571
H107	H	1.921672	-0.112464	-0.626471
H108	H	1.923924	0.000411	-0.611631
H109	H	1.759535	0.073861	-0.670894
C110	C	1.302165	0.164331	-0.849837
C111	C	1.350677	0.208092	-0.892398
C112	C	1.256209	0.250295	-0.926453
C113	C	1.113231	0.248737	-0.917947
C114	C	1.064713	0.204975	-0.875384
C115	C	1.159180	0.162772	-0.841329
H116	H	1.456524	0.209246	-0.898697
H117	H	1.292127	0.282690	-0.957961
H118	H	1.043301	0.279978	-0.943157
H119	H	0.958865	0.203820	-0.869086
H120	H	1.123262	0.130376	-0.809822
H121	H	1.695944	-0.208306	-0.000009
C122	C	1.129171	-0.334228	0.000015
C123	C	1.034515	-0.337172	0.051093
C124	C	0.909424	-0.297547	0.051081
C125	C	0.878988	-0.254978	-0.000009
C126	C	0.973647	-0.252033	-0.051091
C127	C	1.098738	-0.291658	-0.051079
H128	H	1.057043	-0.368685	0.088916
H129	H	0.839352	-0.299728	0.088895
H130	H	0.786389	-0.225646	-0.000017
H131	H	0.951119	-0.220520	-0.088914
H132	H	1.168810	-0.289477	-0.088893
H133	H	0.863620	0.082365	-0.097275
C134	C	1.250872	-0.067263	-0.000011
C135	C	1.220500	-0.024673	0.051069
C136	C	1.095436	0.014970	0.051073
C137	C	1.000743	0.012025	-0.000002
C138	C	1.031113	-0.030567	-0.051086
C139	C	1.156177	-0.070210	-0.051090
H140	H	1.290599	-0.022491	0.088881
H141	H	1.072954	0.046499	0.088889
H142	H	0.908163	0.041371	0.000002
H143	H	0.961014	-0.032749	-0.088898
H144	H	1.178658	-0.101739	-0.088906
H145	H	0.863666	0.082330	0.097296
C146	C	1.662742	0.003234	-0.150138
C147	C	1.662750	0.003234	-0.082029
C148	C	1.757213	-0.038968	-0.047971
C149	C	1.851668	-0.081171	-0.082021
C150	C	1.851664	-0.081174	-0.150133
C151	C	1.757201	-0.038971	-0.184191
H152	H	1.592825	0.034477	-0.056820
H153	H	1.757215	-0.038966	0.002450
H154	H	1.921595	-0.112412	-0.056809
H155	H	1.921588	-0.112416	-0.175343
H156	H	1.757199	-0.038973	-0.234613
H157	H	1.158816	-0.452288	0.000030
H158	H	1.240746	0.191733	-0.556158
H159	H	1.280508	-0.185341	-0.000008
C160	C	1.717295	-0.640405	0.000026
C161	C	1.749843	-0.601306	-0.051054
C162	C	1.876640	-0.575593	-0.051055
C163	C	1.970890	-0.588980	0.000025
C164	C	1.938345	-0.628082	0.051109
C165	C	1.811547	-0.653794	0.051110
H166	H	1.680072	-0.591394	-0.088869
H167	H	1.900732	-0.546647	-0.088871
H168	H	2.064753	-0.569946	0.000024
H169	H	2.008116	-0.637993	0.088924
H170	H	1.787456	-0.682740	0.088926
C171	C	1.714003	-0.765171	0.000041
C172	C	1.808678	-0.762219	0.051122
C173	C	1.933743	-0.801862	0.051130
C174	C	1.964134	-0.844457	0.000057
C175	C	1.869457	-0.847410	-0.051028
C176	C	1.744391	-0.807767	-0.051036
H177	H	1.786183	-0.730686	0.088934
H178	H	2.003829	-0.799675	0.088948
H179	H	2.056714	-0.873803	0.000063
H180	H	1.891951	-0.878943	-0.088840
H181	H	1.674305	-0.809954	-0.088854
H182	H	1.698785	-0.100538	-0.000033
C183	C	1.748644	-0.035158	-0.434959
C184	C	1.747340	-0.100015	-0.443483
C185	C	1.841795	-0.142225	-0.409429
C186	C	1.937554	-0.119577	-0.366851
C187	C	1.938862	-0.054717	-0.358325
C188	C	1.844406	-0.012507	-0.392379
H189	H	1.676450	-0.116784	-0.475003
H190	H	1.840827	-0.190239	-0.415740
H191	H	2.007476	-0.150823	-0.341642
H192	H	2.009752	-0.037949	-0.326805
H193	H	1.845375	0.035507	-0.386067
C194	C	1.662832	0.003187	-0.849818
C195	C	1.614302	-0.040569	-0.892393
C196	C	1.708754	-0.082772	-0.926450
C197	C	1.851736	-0.081220	-0.917932
C198	C	1.900273	-0.037463	-0.875356
C199	C	1.805821	0.004741	-0.841299
H200	H	1.508452	-0.041719	-0.898699
H201	H	1.672823	-0.115164	-0.957967
H202	H	1.921656	-0.112462	-0.943143
H203	H	2.006124	-0.036312	-0.869050
H204	H	1.841752	0.037133	-0.809782
H205	H	1.326669	0.153370	-0.728666
H206	H	1.806060	-0.380161	0.000022
C207	C	1.302074	0.164362	-0.280198
C208	C	1.159097	0.162804	-0.271688
C209	C	1.064624	0.205004	-0.305744
C210	C	1.113129	0.248762	-0.348310
C211	C	1.256114	0.250322	-0.356822
C212	C	1.350586	0.208122	-0.322766
H213	H	1.123184	0.130410	-0.240177
H214	H	0.958778	0.203849	-0.299443
H215	H	1.043195	0.280001	-0.373521
H216	H	1.292026	0.282715	-0.388334
H217	H	1.456433	0.209277	-0.329067
C218	C	1.302055	0.164366	-0.150168
C219	C	1.303327	0.229226	-0.158671
C220	C	1.208852	0.271423	-0.124618
C221	C	1.113105	0.248759	-0.082061
C222	C	1.111829	0.183896	-0.073555
C223	C	1.206304	0.141699	-0.107609
H224	H	1.374208	0.246006	-0.190176
H225	H	1.209797	0.319439	-0.130915
H226	H	1.043169	0.279995	-0.056853
H227	H	1.040948	0.167116	-0.042050
H228	H	1.205360	0.093683	-0.101312
H229	H	1.803206	-0.487929	0.000041
H230	H	1.638219	0.014178	-0.271310
H231	H	1.724124	-0.024202	-0.556127
H232	H	1.240726	0.191733	-0.443836
