data_functionalizedCrystal
_audit_creation_method	'MofGen! by Chris Wilmer'
_symmetry_space_group_name_H-M	'P1'
_symmetry_Int_Tables_number	1
_symmetry_cell_setting	triclinic
loop_
_symmetry_equiv_pos_as_xyz
  x,y,z
_cell_length_a	17.038272
_cell_length_b	9.730223
_cell_length_c	10.654550
_cell_angle_alpha	89.995747
_cell_angle_beta	87.798243
_cell_angle_gamma	90.002388
loop_
_atom_site_label
_atom_site_type_symbol
_atom_site_fract_x
_atom_site_fract_y
_atom_site_fract_z
O1	O	1.038890	-0.114118	0.272864
O2	O	1.538890	0.385882	0.772864
O3	O	0.811235	-0.114158	0.268532
O4	O	1.311235	0.385842	0.768532
O5	O	0.930296	-0.114128	0.088445
O6	O	1.430296	0.385872	0.588445
O7	O	0.919828	-0.114147	0.452951
O8	O	1.419828	0.385853	0.952951
O9	O	0.930289	0.114452	0.088439
O10	O	1.430289	0.614452	0.588439
O11	O	0.811227	0.114422	0.268526
O12	O	1.311227	0.614422	0.768526
O13	O	1.038882	0.114462	0.272858
O14	O	1.538882	0.614462	0.772858
Zn15	Zn	0.925053	0.150734	0.270691
Zn16	Zn	1.425053	0.650734	0.770691
Zn17	Zn	0.925063	-0.150430	0.270699
Zn18	Zn	1.425063	0.349570	0.770699
O19	O	0.919820	0.114433	0.452945
O20	O	1.419820	0.614433	0.952945
C21	C	0.782081	0.000127	0.264588
C22	C	1.282081	0.500127	0.764588
C23	C	0.695222	0.000112	0.252831
C24	C	1.195222	0.500112	0.752831
N25	N	0.925052	0.356271	0.270685
N26	N	1.425052	0.856271	0.770685
N27	N	0.925071	-0.355966	0.270695
N28	N	1.425071	0.144034	0.770695
C29	C	0.645711	0.000107	0.360775
C30	C	1.145711	0.500107	0.860775
C31	C	0.564098	0.000127	0.349720
C32	C	1.064098	0.500127	0.849720
C33	C	0.531999	0.000141	0.230720
C34	C	1.031999	0.500141	0.730720
C35	C	0.581517	0.000150	0.122768
C36	C	1.081517	0.500150	0.622768
C37	C	0.663127	0.000140	0.133824
C38	C	1.163127	0.500140	0.633824
C39	C	0.286023	0.000180	0.191663
C40	C	0.786023	0.500180	0.691663
C41	C	0.204406	0.000185	0.180615
C42	C	0.704406	0.500185	0.680615
C43	C	0.186993	0.000165	0.407568
C44	C	0.686993	0.500165	0.907568
C45	C	0.268606	0.000147	0.418614
C46	C	0.768606	0.500147	0.918614
C47	C	0.318117	0.000163	0.310661
C48	C	0.818117	0.500163	0.810661
C49	C	0.448578	0.000157	0.219418
C50	C	0.948578	0.500157	0.719418
C51	C	0.401536	0.000157	0.321965
C52	C	0.901536	0.500157	0.821965
C53	C	1.068036	0.000174	0.276802
C54	C	1.568036	0.500174	0.776802
C55	C	1.154895	0.000181	0.288559
C56	C	1.654895	0.500181	0.788559
C57	C	0.929524	0.000161	0.041572
C58	C	1.429524	0.500161	0.541572
C59	C	0.927224	0.000158	-0.098084
C60	C	1.427224	0.500158	0.401916
C61	C	0.977791	0.428210	0.190981
C62	C	1.477791	0.928210	0.690981
C63	C	0.977798	0.572093	0.190982
C64	C	1.477798	1.072093	0.690982
C65	C	0.872326	0.572085	0.350403
C66	C	1.372326	1.072085	0.850403
C67	C	0.872315	0.428204	0.350395
C68	C	1.372315	0.928204	0.850395
C69	C	0.997326	0.000170	-0.171061
C70	C	1.497326	0.500170	0.328939
C71	C	0.995160	0.000153	-0.302283
C72	C	1.495160	0.500153	0.197717
C73	C	0.852785	0.000118	-0.287540
C74	C	1.352785	0.500118	0.212460
C75	C	0.854952	0.000125	-0.156320
C76	C	1.354952	0.500125	0.343680
C77	C	0.920593	0.000140	0.499817
C78	C	1.420593	0.500140	0.999817
C79	C	0.922892	0.000134	0.639474
C80	C	1.422892	0.500134	1.139474
H81	H	0.671839	0.000094	0.457677
H82	H	1.171839	0.500094	0.957677
F83	F	0.511408	0.000116	0.464610
F84	F	1.011408	0.500116	0.964610
H85	H	1.056175	0.000194	-0.123650
H86	H	1.556175	0.500194	0.376350
H87	H	0.829391	0.630668	0.415303
H88	H	1.329391	1.130668	0.915303
F89	F	0.338705	0.000196	0.076768
F90	F	0.838705	0.500196	0.576768
F91	F	0.816178	0.351635	0.435226
F92	F	1.316178	0.851635	0.935226
H93	H	1.052244	0.000160	-0.361695
H94	H	1.552244	0.500160	0.138305
H95	H	1.020742	0.630662	0.126078
H96	H	1.520742	1.130662	0.626078
H97	H	0.793943	0.000094	-0.334971
H98	H	1.293943	0.500094	0.165029
F99	F	0.780336	0.000103	-0.078648
F100	F	1.280336	0.500103	0.421352
H101	H	0.555375	0.000181	0.025876
H102	H	1.055375	0.500181	0.525876
H103	H	0.146674	0.000155	0.495456
H104	H	0.646674	0.500155	0.995456
F105	F	0.302763	0.000124	0.545269
F106	F	0.802763	0.500124	1.045269
H107	H	0.427675	0.000153	0.418854
H108	H	0.927675	0.500153	0.918854
F109	F	0.414408	0.000167	0.092773
F110	F	0.914408	0.500167	0.592773
H111	H	0.178274	0.000195	0.083706
H112	H	0.678274	0.500195	0.583706
F113	F	0.715821	0.000150	0.018935
F114	F	1.215821	0.500150	0.518935
F115	F	1.033916	0.351658	0.106143
F116	F	1.533916	0.851658	0.606143
