data_functionalizedCrystal
_audit_creation_method	'MofGen! by Chris Wilmer'
_symmetry_space_group_name_H-M	'P1'
_symmetry_Int_Tables_number	1
_symmetry_cell_setting	triclinic
loop_
_symmetry_equiv_pos_as_xyz
  x,y,z
_cell_length_a	12.996460
_cell_length_b	9.065218
_cell_length_c	9.065215
_cell_angle_alpha	94.984709
_cell_angle_beta	90.005164
_cell_angle_gamma	89.994367
loop_
_atom_site_label
_atom_site_type_symbol
_atom_site_fract_x
_atom_site_fract_y
_atom_site_fract_z
O1	O	0.085567	-1.960401	0.216360
O2	O	0.085568	-1.531116	0.234106
O3	O	0.085563	-1.754634	0.010590
O4	O	0.085572	-1.736883	0.439876
O5	O	-0.085570	-1.754611	0.010578
O6	O	-0.085565	-1.531093	0.234094
O7	O	-0.085567	-1.960378	0.216347
Cu8	Cu	-0.101192	-1.745733	0.225219
Cu9	Cu	0.101194	-1.745761	0.225234
O10	O	-0.085562	-1.736860	0.439863
C11	C	0.000002	-1.476118	0.232394
C12	C	0.000002	-1.312275	0.227295
N13	N	-0.243539	-1.745724	0.225208
C14	C	-0.000002	-1.752917	-0.044403
C15	C	0.000001	-1.747819	-0.208246
C16	C	-0.663353	-1.745759	0.225236
C17	C	-0.546548	-1.745745	0.225233
C18	C	-0.453450	-1.745742	0.225223
C19	C	-0.336637	-1.745727	0.225218
N20	N	0.243541	-1.745782	0.225234
C21	C	0.000002	-2.015376	0.218059
C22	C	0.000009	-2.179219	0.223159
C23	C	0.000007	-1.738576	0.494856
C24	C	0.000010	-1.743674	0.658699
