data_functionalizedCrystal
_audit_creation_method	'MofGen! by Chris Wilmer'
_symmetry_space_group_name_H-M	'P1'
_symmetry_Int_Tables_number	1
_symmetry_cell_setting	triclinic
loop_
_symmetry_equiv_pos_as_xyz
  x,y,z
_cell_length_a	10.489741
_cell_length_b	10.489741
_cell_length_c	18.366186
_cell_angle_alpha	89.994090
_cell_angle_beta	89.993662
_cell_angle_gamma	84.539174
loop_
_atom_site_label
_atom_site_type_symbol
_atom_site_fract_x
_atom_site_fract_y
_atom_site_fract_z
O1	O	1.694062	0.179970	-0.060504
O2	O	1.322866	0.196863	-0.060515
O3	O	1.516910	0.002818	-0.060505
O4	O	1.500018	0.374014	-0.060514
O5	O	1.516877	0.002808	0.060594
O6	O	1.322833	0.196853	0.060584
O7	O	1.694029	0.179960	0.060595
Zn8	Zn	1.508425	0.188405	0.079817
Zn9	Zn	1.508469	0.188418	-0.079737
O10	O	1.499984	0.374004	0.060585
C11	C	1.275318	0.195582	0.000033
C12	C	1.133688	0.191765	0.000029
C13	C	1.515618	-0.044718	0.000044
C14	C	1.511801	-0.186348	0.000043
C15	C	1.065548	0.068300	0.000038
C16	C	0.973438	0.126628	-0.059670
C17	C	0.973439	0.126648	0.059725
C18	C	1.043443	0.250144	-0.059729
C19	C	1.043454	0.250146	0.059719
C20	C	0.951371	0.308564	-0.000004
C21	C	1.388336	-0.254488	0.000033
C22	C	1.446643	-0.346615	0.059744
C23	C	1.446705	-0.346580	-0.059651
C24	C	1.570159	-0.276610	0.059802
C25	C	1.570204	-0.276565	-0.059646
C26	C	1.628600	-0.368665	0.000078
C27	C	1.741577	0.181241	0.000045
C28	C	1.883206	0.185058	0.000045
C29	C	1.501277	0.421541	0.000034
C30	C	1.505094	0.563170	0.000031
N31	N	1.508405	0.188395	0.188708
N32	N	1.508500	0.188418	-0.188628
C33	C	1.594356	0.102515	0.226813
C34	C	1.594364	0.102509	0.303041
C35	C	1.508433	0.188406	0.341161
C36	C	1.422465	0.274292	0.303046
C37	C	1.422451	0.274287	0.226820
C38	C	1.492788	0.304426	0.461918
C39	C	1.492811	0.304433	0.538143
C40	C	1.508469	0.188422	0.576268
C41	C	1.524132	0.072399	0.538159
C42	C	1.524118	0.072394	0.461933
C43	C	1.508438	0.188421	0.423815
C44	C	1.594435	0.102529	0.697028
C45	C	1.594434	0.102522	0.773257
C46	C	1.422541	0.274316	0.773262
C47	C	1.422535	0.274312	0.697034
C48	C	1.508489	0.188420	0.658922
H49	H	1.115238	-0.033196	-0.000034
H50	H	1.394463	-0.377540	-0.110136
H51	H	1.622340	-0.245782	0.110339
Br52	Br	1.545400	-0.085056	0.589891
Br53	Br	1.094838	0.337157	-0.143959
H54	H	0.901947	0.410168	-0.000039
H55	H	1.074486	0.302340	0.110199
Br56	Br	1.711080	-0.014041	0.645302
Br57	Br	0.921773	0.039572	-0.143805
Br58	Br	1.711021	-0.014053	0.354764
Br59	Br	1.711000	-0.014053	0.175088
Br60	Br	0.921782	0.039537	0.143860
Br61	Br	1.545361	-0.085058	0.410215
H62	H	1.730204	-0.418089	0.000115
H63	H	1.622414	-0.245516	-0.110126
H64	H	1.480066	0.398906	0.569165
H65	H	1.286824	-0.204837	0.000091
H66	H	1.394388	-0.377631	0.110221
H67	H	1.664422	0.032581	0.804283
Br68	Br	1.305905	0.390877	0.824989
H69	H	1.352551	0.344248	0.666007
Br70	Br	1.471663	0.461890	0.410184
H71	H	1.352496	0.344228	0.334088
Br72	Br	1.305792	0.390845	0.175102
