data_functionalizedCrystal
_audit_creation_method	'MofGen! by Chris Wilmer'
_symmetry_space_group_name_H-M	'P1'
_symmetry_Int_Tables_number	1
_symmetry_cell_setting	triclinic
loop_
_symmetry_equiv_pos_as_xyz
  x,y,z
_cell_length_a	19.288864
_cell_length_b	10.654541
_cell_length_c	17.766277
_cell_angle_alpha	89.993913
_cell_angle_beta	89.976791
_cell_angle_gamma	83.810087
loop_
_atom_site_label
_atom_site_type_symbol
_atom_site_fract_x
_atom_site_fract_y
_atom_site_fract_z
O1	O	0.922378	0.156657	-0.062836
O2	O	0.720256	0.177790	-0.062784
O3	O	0.825965	-0.015616	-0.062806
O4	O	0.816669	0.350062	-0.062813
O5	O	0.825946	-0.015625	0.062382
O6	O	0.720237	0.177780	0.062404
O7	O	0.922359	0.156647	0.062353
Cu8	Cu	0.821296	0.167213	0.073809
Cu9	Cu	0.821319	0.167224	-0.074241
O10	O	0.816650	0.350053	0.062375
C11	C	0.694365	0.177105	-0.000183
C12	C	0.617248	0.175064	-0.000163
C13	C	0.825273	-0.062404	-0.000212
C14	C	0.823232	-0.201804	-0.000213
C15	C	0.573295	0.288545	-0.000177
C16	C	0.500835	0.286627	-0.000186
C17	C	0.472332	0.171222	-0.000195
C18	C	0.516296	0.057725	-0.000177
C19	C	0.588754	0.059646	-0.000161
C20	C	0.363483	0.080504	-0.044078
C21	C	0.291026	0.078588	-0.044098
C22	C	0.248848	0.165292	-0.000241
C23	C	0.279134	0.253935	0.043628
C24	C	0.351592	0.255856	0.043644
C25	C	0.393765	0.169126	-0.000212
C26	C	0.126325	0.276702	-0.000262
C27	C	0.053864	0.274780	-0.000266
C28	C	0.069327	0.045875	-0.000265
C29	C	0.141786	0.047800	-0.000254
C30	C	0.170280	0.163218	-0.000256
C31	C	0.949636	-0.232480	-0.000236
C32	C	1.011877	-0.313307	-0.000245
C33	C	1.009955	-0.444284	-0.000247
C34	C	0.945785	-0.494436	-0.000242
C35	C	0.883545	-0.413609	-0.000232
C36	C	0.885474	-0.282631	-0.000228
C37	C	0.757142	-0.382933	-0.000215
C38	C	0.759063	-0.251955	-0.000208
C39	C	0.692973	-0.433084	-0.000210
C40	C	0.630732	-0.352257	-0.000195
C41	C	0.632656	-0.221273	-0.000192
C42	C	0.696823	-0.171129	-0.000198
C43	C	0.948250	0.157332	-0.000250
C44	C	1.025367	0.159373	-0.000274
C45	C	0.817342	0.396841	-0.000220
C46	C	0.819383	0.536241	-0.000225
N47	N	0.821286	0.167204	0.177940
N48	N	0.821335	0.167223	-0.178371
C49	C	0.868109	0.081606	0.217317
C50	C	0.868113	0.081600	0.296119
C51	C	0.821301	0.167214	0.335540
C52	C	0.774468	0.252818	0.296154
C53	C	0.774461	0.252813	0.217354
C54	C	0.812750	0.281635	0.460378
C55	C	0.812763	0.281642	0.539176
C56	C	0.821319	0.167229	0.578587
C57	C	0.829878	0.052804	0.539188
C58	C	0.829871	0.052799	0.460388
C59	C	0.821303	0.167228	0.420986
C60	C	0.868150	0.081617	0.703410
C61	C	0.868149	0.081610	0.782213
C62	C	0.774507	0.252839	0.782247
C63	C	0.774504	0.252836	0.703445
C64	C	0.821329	0.167226	0.664031
H65	H	0.596490	0.382527	-0.000181
F66	F	0.951687	-0.093084	-0.000219
F67	F	0.156653	0.399538	-0.000259
F68	F	0.454048	0.407415	-0.000198
F69	F	0.838990	-0.068972	0.581125
H70	H	1.064122	-0.272459	-0.000243
H71	H	0.736388	0.322543	0.814343
H72	H	0.906244	0.011893	0.328185
H73	H	0.836838	-0.040369	0.428313
F74	F	0.038997	-0.076950	-0.000268
F75	F	0.803693	0.403420	0.418442
F76	F	1.076197	-0.530308	-0.000263
F77	F	0.917941	-0.009511	0.175371
H78	H	0.493085	-0.036239	-0.000195
H79	H	0.944226	-0.601085	-0.000253
F80	F	0.690929	-0.572482	-0.000250
H81	H	0.906275	0.011905	0.671318
F82	F	0.917983	-0.009506	0.824122
H83	H	0.736379	0.322543	0.671382
H84	H	0.805798	0.374812	0.571249
H85	H	0.578490	-0.393102	-0.000195
F86	F	0.234250	0.346221	0.090308
F87	F	0.635535	-0.061142	-0.000146
H88	H	0.581972	-0.155470	-0.000187
F89	F	0.698877	-0.031733	-0.000190
H90	H	0.018077	0.367194	-0.000273
H91	H	0.736351	0.322525	0.328255
H92	H	0.397820	0.009895	-0.079797
H93	H	0.736331	0.322519	0.185292
H94	H	0.376248	0.328028	0.079365
F95	F	0.188567	-0.072984	-0.000243
H96	H	0.266373	0.006415	-0.079822
