data_functionalizedCrystal
_audit_creation_method	'MofGen! by Chris Wilmer'
_symmetry_space_group_name_H-M	'P1'
_symmetry_Int_Tables_number	1
_symmetry_cell_setting	triclinic
loop_
_symmetry_equiv_pos_as_xyz
  x,y,z
_cell_length_a	10.723023
_cell_length_b	10.723022
_cell_length_c	9.198806
_cell_angle_alpha	89.997988
_cell_angle_beta	89.996513
_cell_angle_gamma	84.467387
loop_
_atom_site_label
_atom_site_type_symbol
_atom_site_fract_x
_atom_site_fract_y
_atom_site_fract_z
O1	O	1.657187	0.175020	-0.120874
O2	O	2.157187	0.675020	0.379126
O3	O	1.294035	0.191774	-0.120879
O4	O	1.794035	0.691774	0.379121
O5	O	1.483989	0.001821	-0.120871
O6	O	1.983989	0.501821	0.379129
O7	O	1.467233	0.364973	-0.120882
O8	O	1.967233	0.864973	0.379118
O9	O	1.483974	0.001820	0.120914
O10	O	1.983974	0.501820	0.620914
O11	O	1.294020	0.191774	0.120906
O12	O	1.794020	0.691774	0.620906
O13	O	1.657172	0.175019	0.120911
O14	O	2.157172	0.675019	0.620911
Cu15	Cu	1.475595	0.183397	0.142985
Cu16	Cu	1.975595	0.683397	0.642985
Cu17	Cu	1.475612	0.183397	-0.142953
Cu18	Cu	1.975612	0.683397	0.357047
O19	O	1.467218	0.364973	0.120903
O20	O	1.967218	0.864973	0.620903
C21	C	1.247528	0.190555	0.000012
C22	C	1.747528	0.690555	0.500012
C23	C	1.108973	0.186908	0.000010
C24	C	1.608973	0.686908	0.500010
C25	C	1.047193	0.185281	0.125261
C26	C	1.547193	0.685281	0.625261
C27	C	0.903990	0.181512	0.125262
C28	C	1.403990	0.681512	0.625262
C29	C	1.482762	-0.044679	0.000020
C30	C	1.982762	0.455321	0.500020
C31	C	1.479115	-0.183233	0.000015
C32	C	1.979115	0.316767	0.500015
C33	C	1.703679	0.176239	0.000016
C34	C	2.203679	0.676239	0.500016
C35	C	1.842234	0.179886	0.000009
C36	C	2.342234	0.679886	0.500009
C37	C	1.369575	-0.231794	0.000010
C38	C	1.869575	0.268206	0.500010
C39	C	1.365804	-0.374997	0.000005
C40	C	1.865804	0.125003	0.500005
C41	C	1.468445	0.411473	0.000009
C42	C	1.968445	0.911473	0.500009
C43	C	1.472092	0.550027	0.000005
C44	C	1.972092	1.050027	0.500005
N45	N	1.475591	0.183395	0.344099
N46	N	1.975591	0.683395	0.844099
N47	N	1.475626	0.183389	-0.344067
N48	N	1.975626	0.683389	0.155933
C49	C	1.555347	0.103288	0.416300
C50	C	2.055347	0.603288	0.916300
C51	C	1.555367	0.103283	0.583712
C52	C	2.055367	0.603283	1.083712
H53	H	0.850860	0.180120	0.232493
H54	H	1.350860	0.680120	0.732493
Br55	Br	1.361817	0.297719	0.552464
Br56	Br	1.861817	0.797719	1.052464
H57	H	1.100320	0.186673	0.232492
H58	H	1.600320	0.686673	0.732492
Br59	Br	0.930767	0.182232	-0.178735
Br60	Br	1.430767	0.682232	0.321265
Br61	Br	1.217911	-0.124398	0.000024
Br62	Br	1.717911	0.375602	0.500024
Br63	Br	1.209475	-0.444676	-0.000018
Br64	Br	1.709475	0.055324	0.499982
Br65	Br	1.628425	-0.380303	-0.000007
Br66	Br	2.128425	0.119697	0.499993
H67	H	1.055848	0.185506	-0.107221
H68	H	1.555848	0.685506	0.392779
Br69	Br	1.668820	-0.011340	0.312768
Br70	Br	2.168820	0.488660	0.812768
H71	H	1.570104	-0.247676	0.000021
H72	H	2.070104	0.252324	0.500021
Br73	Br	1.669192	-0.011024	0.687191
Br74	Br	2.169192	0.488976	1.187191
H75	H	1.407318	0.251971	0.406225
H76	H	1.907318	0.751971	0.906225
