data_functionalizedCrystal
_audit_creation_method	'MofGen! by Chris Wilmer'
_symmetry_space_group_name_H-M	'P1'
_symmetry_Int_Tables_number	1
_symmetry_cell_setting	triclinic
loop_
_symmetry_equiv_pos_as_xyz
  x,y,z
_cell_length_a	16.109318
_cell_length_b	10.967829
_cell_length_c	14.586319
_cell_angle_alpha	77.868327
_cell_angle_beta	90.000075
_cell_angle_gamma	84.104047
loop_
_atom_site_label
_atom_site_type_symbol
_atom_site_fract_x
_atom_site_fract_y
_atom_site_fract_z
O1	O	1.104067	0.160496	-0.101518
O2	O	1.604067	0.660496	0.398482
O3	O	0.862125	0.180434	-0.104687
O4	O	1.362125	0.680434	0.395313
O5	O	0.988675	-0.011187	-0.074400
O6	O	1.488675	0.488813	0.425600
O7	O	0.977517	0.352116	-0.131806
O8	O	1.477517	0.852116	0.368194
O9	O	0.988667	-0.011190	0.078082
O10	O	1.488667	0.488810	0.578082
O11	O	0.862116	0.180431	0.047795
O12	O	1.362116	0.680431	0.547795
O13	O	1.104058	0.160493	0.050963
O14	O	1.604058	0.660493	0.550963
Cu15	Cu	0.983086	0.170462	0.063301
Cu16	Cu	1.483086	0.670462	0.563301
Cu17	Cu	0.983097	0.170465	-0.117025
Cu18	Cu	1.483097	0.670465	0.382975
O19	O	0.977508	0.352114	0.020676
O20	O	1.477508	0.852114	0.520676
C21	C	0.831141	0.179621	-0.028320
C22	C	1.331141	0.679621	0.471680
C23	C	0.738832	0.177188	-0.027943
C24	C	1.238832	0.677188	0.472057
C25	C	0.439717	0.169333	-0.109803
C26	C	0.939717	0.669333	0.390197
C27	C	0.526452	0.171610	-0.110168
C28	C	1.026452	0.671610	0.389832
C29	C	0.526461	0.171590	0.056078
C30	C	1.026461	0.671590	0.556078
C31	C	0.439728	0.169304	0.056444
C32	C	0.939728	0.669304	0.556444
C33	C	0.396358	0.168181	-0.026500
C34	C	0.896358	0.668181	0.473500
C35	C	0.569825	0.172745	-0.027232
C36	C	1.069825	0.672745	0.472768
C37	C	0.663867	0.175214	-0.027627
C38	C	1.163867	0.675214	0.472373
C39	C	0.302311	0.165709	-0.026105
C40	C	0.802311	0.665709	0.473895
C41	C	0.987858	-0.057678	0.009185
C42	C	1.487858	0.442322	0.509185
C43	C	0.985427	-0.196202	0.031067
C44	C	1.485427	0.303798	0.531067
C45	C	0.984348	-0.257953	-0.038168
C46	C	1.484348	0.242047	0.461832
C47	C	0.981835	-0.401124	-0.015554
C48	C	1.481835	0.098876	0.484446
C49	C	1.135042	0.161306	-0.025406
C50	C	1.635042	0.661306	0.474594
C51	C	1.227351	0.163738	-0.025789
C52	C	1.727351	0.663738	0.474211
C53	C	0.978325	0.398604	-0.062911
C54	C	1.478325	0.898604	0.437089
C55	C	0.980756	0.537128	-0.084799
C56	C	1.480756	1.037128	0.415201
N57	N	0.983085	0.170458	0.190134
N58	N	1.483085	0.670458	0.690134
N59	N	0.983105	0.170458	-0.243856
N60	N	1.483105	0.670458	0.256144
C61	C	1.039141	0.085637	0.438547
C62	C	1.539141	0.585637	0.938547
C63	C	1.039143	0.085634	0.534529
C64	C	1.539143	0.585634	1.034529
C65	C	0.927043	0.255283	0.507724
C66	C	1.427043	0.755283	1.007724
C67	C	0.927038	0.255279	0.411745
C68	C	1.427038	0.755279	0.911745
C69	C	0.983091	0.170458	0.377159
C70	C	1.483091	0.670458	0.877159
C71	C	0.983099	0.170459	0.569119
C72	C	1.483099	0.670459	1.069119
C73	C	0.983101	0.170456	0.673187
C74	C	1.483101	0.670456	1.173187
C75	C	0.983088	0.170459	0.273085
C76	C	1.483088	0.670459	0.773085
H77	H	0.404425	0.168365	0.124283
H78	H	0.904425	0.668365	0.624283
H79	H	1.084783	0.016564	0.584510
H80	H	1.584783	0.516564	1.084510
C81	C	0.865398	0.348591	0.545771
C82	C	1.365398	0.848591	1.045771
H83	H	0.873434	0.336456	0.611723
H84	H	1.373434	0.836456	1.111723
H85	H	0.809833	0.335016	0.532193
H86	H	1.309833	0.835016	1.032193
H87	H	0.874908	0.431878	0.516874
H88	H	1.374908	0.931878	1.016874
H89	H	0.980894	-0.454245	0.060468
H90	H	1.480894	0.045755	0.560468
C91	C	0.392013	0.168095	-0.201036
C92	C	0.892013	0.668095	0.298964
H93	H	0.430262	0.169098	-0.250698
H94	H	0.930262	0.669098	0.249302
H95	H	0.352255	0.239928	-0.215836
H96	H	0.852255	0.739928	0.284164
H97	H	0.364102	0.094473	-0.192862
H98	H	0.864102	0.594473	0.307138
C99	C	0.574142	0.172885	-0.201802
C100	C	1.074142	0.672885	0.298198
H101	H	0.535887	0.171899	-0.251146
H102	H	1.035887	0.671899	0.248854
H103	H	0.613901	0.101054	-0.193919
H104	H	1.113901	0.601054	0.306081
H105	H	0.602050	0.246510	-0.216886
H106	H	1.102050	0.746510	0.283114
C107	C	0.865387	0.348593	0.344208
C108	C	1.365387	0.848593	0.844208
H109	H	0.873409	0.336434	0.282095
H110	H	1.373409	0.836434	0.782095
H111	H	0.874894	0.431878	0.346773
H112	H	1.374894	0.931878	0.846773
H113	H	0.809821	0.335012	0.362084
H114	H	1.309821	0.835012	0.862084
C115	C	0.574168	0.172804	0.147314
C116	C	1.074168	0.672804	0.647314
H117	H	0.535922	0.171769	0.196982
H118	H	1.035922	0.671769	0.696982
H119	H	0.602087	0.246409	0.139157
H120	H	1.102087	0.746409	0.639157
H121	H	0.613920	0.100953	0.162102
H122	H	1.113920	0.600953	0.662102
C123	C	0.985614	-0.186195	-0.140862
C124	C	1.485614	0.313805	0.359138
H125	H	0.987143	-0.099382	-0.142589
H126	H	1.487143	0.400618	0.357411
H127	H	0.936847	-0.197932	-0.173188
H128	H	1.436847	0.302068	0.326812
H129	H	1.033648	-0.216993	-0.170162
H130	H	1.533648	0.283007	0.329838
H131	H	0.981682	-0.409749	-0.160821
H132	H	1.481682	0.090251	0.339179
C133	C	0.984160	-0.267953	0.133762
C134	C	1.484160	0.232047	0.633762
H135	H	0.985157	-0.210644	0.174267
H136	H	1.485157	0.289356	0.674267
H137	H	1.031664	-0.328268	0.146703
H138	H	1.531664	0.171732	0.646703
H139	H	0.934862	-0.309196	0.143677
H140	H	1.434862	0.190804	0.643677
C141	C	1.100789	-0.007673	0.400506
C142	C	1.600789	0.492327	0.900506
H143	H	1.134164	-0.058197	0.450818
H144	H	1.634164	0.441803	0.950818
H145	H	1.135652	0.037225	0.355964
H146	H	1.635652	0.537225	0.855964
H147	H	1.070577	-0.059638	0.371282
H148	H	1.570577	0.440362	0.871282
