data_functionalizedCrystal
_audit_creation_method	'MofGen! by Chris Wilmer'
_symmetry_space_group_name_H-M	'P1'
_symmetry_Int_Tables_number	1
_symmetry_cell_setting	triclinic
loop_
_symmetry_equiv_pos_as_xyz
  x,y,z
_cell_length_a	16.625548
_cell_length_b	21.295417
_cell_length_c	21.295411
_cell_angle_alpha	89.978356
_cell_angle_beta	89.975478
_cell_angle_gamma	90.031575
loop_
_atom_site_label
_atom_site_type_symbol
_atom_site_fract_x
_atom_site_fract_y
_atom_site_fract_z
Zn1	Zn	1.232667	-0.250663	-0.355911
Zn2	Zn	1.232542	-0.355915	-0.250636
Zn3	Zn	1.097819	-0.250665	-0.250656
Zn4	Zn	1.097780	-0.355900	-0.355868
O5	O	1.165202	-0.303286	-0.303268
O6	O	1.345483	-0.264630	-0.341956
O7	O	1.214635	-0.341960	-0.162549
O8	O	1.115776	-0.162576	-0.264644
O9	O	1.345391	-0.341958	-0.264611
O10	O	1.214848	-0.162574	-0.341975
O11	O	1.115655	-0.264634	-0.162564
O12	O	0.984982	-0.264620	-0.264603
O13	O	1.115709	-0.341933	-0.443963
O14	O	0.984953	-0.341936	-0.341902
O15	O	1.214810	-0.264616	-0.443995
O16	O	1.214597	-0.444002	-0.264569
O17	O	1.115588	-0.443992	-0.341883
C18	C	0.955711	-0.303277	-0.303250
C19	C	0.866090	-0.303288	-0.303257
C20	C	0.537914	-0.303292	-0.303284
C21	C	0.629223	-0.303289	-0.303275
C22	C	0.701999	-0.303291	-0.303270
C23	C	0.793314	-0.303287	-0.303262
C24	C	1.165096	-0.466838	-0.303233
C25	C	1.165125	-0.536806	-0.303239
C26	C	1.216725	-0.569657	-0.263023
C27	C	1.216762	-0.635399	-0.263037
C28	C	1.165186	-0.668288	-0.303261
C29	C	1.113583	-0.635429	-0.343484
C30	C	1.113552	-0.569688	-0.343473
N31	N	1.094652	-0.771556	-0.308054
N32	N	1.094683	-0.834007	-0.308060
C33	C	1.165276	-0.866363	-0.303297
N34	N	1.235839	-0.833908	-0.298514
N35	N	1.235807	-0.771451	-0.298504
C36	C	1.165214	-0.739573	-0.303277
C37	C	1.216921	-0.970500	-0.263094
C38	C	1.216961	-1.036243	-0.263113
C39	C	1.113774	-1.036271	-0.343556
C40	C	1.113742	-0.970529	-0.343541
C41	C	1.165315	-0.937647	-0.303307
C42	C	1.375511	-0.303295	-0.303286
C43	C	1.465132	-0.303299	-0.303293
C44	C	1.165269	-0.303273	-0.467458
C45	C	1.165297	-0.303267	-0.537426
C46	C	1.165330	-0.139096	-0.303316
C47	C	1.165385	-0.069127	-0.303337
C48	C	1.216897	-0.263006	-0.570310
C49	C	1.216896	-0.262979	-0.636053
C50	C	1.165304	-0.303224	-0.668909
C51	C	1.113694	-0.343487	-0.636017
C52	C	1.113691	-0.343509	-0.570275
N53	N	1.159083	-0.358291	-0.772124
N54	N	1.159091	-0.358269	-0.834576
C55	C	1.165309	-0.303160	-0.866984
N56	N	1.171535	-0.248072	-0.834581
N57	N	1.171531	-0.248096	-0.772124
C58	C	1.165301	-0.303204	-0.740194
C59	C	1.216910	-0.262866	-0.971153
C60	C	1.216903	-0.262837	-1.036897
C61	C	1.113706	-0.343352	-1.036860
C62	C	1.113708	-0.343374	-0.971117
C63	C	1.165315	-0.303132	-0.938268
C64	C	1.165182	-0.303254	-0.139716
C65	C	1.165310	-0.303082	-0.069748
H66	H	1.258720	-0.542886	-0.230263
H67	H	1.258918	-0.943726	-0.230335
C68	C	1.318937	-1.029608	-0.183586
C69	C	1.273683	-1.072356	-0.218903
H70	H	1.353950	-1.051905	-0.156290
H71	H	1.349751	-1.003930	-0.211027
H72	H	1.283796	-1.004005	-0.159481
H73	H	1.308823	-1.097956	-0.243011
H74	H	1.242866	-1.098045	-0.191459
H75	H	1.071695	-0.376163	-0.944343
H76	H	1.258926	-0.230095	-0.944406
C77	C	1.102262	-0.495718	-0.428128
C78	C	1.056827	-0.533574	-0.387680
H79	H	1.067240	-0.473426	-0.455421
H80	H	1.132964	-0.466728	-0.404167
H81	H	1.137388	-0.521332	-0.452235
H82	H	1.021705	-0.507960	-0.363570
H83	H	1.026111	-0.562568	-0.411643
H84	H	1.258920	-0.230048	-1.063670
H85	H	1.071783	-1.063049	-0.376310
H86	H	1.258918	-0.230237	-0.543568
H87	H	1.071590	-0.662211	-0.376236
C88	C	1.318738	-0.628775	-0.183507
C89	C	1.273479	-0.671520	-0.218825
H90	H	1.353747	-0.651074	-0.156210
H91	H	1.349558	-0.603100	-0.210948
H92	H	1.283600	-0.603168	-0.159405
H93	H	1.308617	-0.697124	-0.242931
H94	H	1.242657	-0.697205	-0.191381
C95	C	1.011743	-0.977162	-0.423047
C96	C	1.057010	-0.934415	-0.387740
H97	H	0.976715	-0.954866	-0.450332
H98	H	1.046869	-1.002762	-0.447157
H99	H	0.980935	-1.002844	-0.395595
H100	H	1.087822	-0.908736	-0.415192
H101	H	1.021880	-0.908804	-0.363628
H102	H	1.071690	-0.376114	-1.063610
H103	H	1.258913	-0.230190	-0.662832
H104	H	1.071685	-0.376253	-0.662772
C105	C	1.011691	-0.423095	-0.576844
C106	C	1.056978	-0.387774	-0.534125
H107	H	0.976685	-0.450426	-0.554524
H108	H	0.980868	-0.395659	-0.602471
H109	H	1.046812	-0.447162	-0.602500
H110	H	1.021857	-0.363703	-0.508472
H111	H	1.087804	-0.415214	-0.508487
