data_functionalizedCrystal
_audit_creation_method	'MofGen! by Chris Wilmer'
_symmetry_space_group_name_H-M	'P1'
_symmetry_Int_Tables_number	1
_symmetry_cell_setting	triclinic
loop_
_symmetry_equiv_pos_as_xyz
  x,y,z
_cell_length_a	19.805407
_cell_length_b	13.031981
_cell_length_c	19.805399
_cell_angle_alpha	97.209878
_cell_angle_beta	90.019573
_cell_angle_gamma	97.191459
loop_
_atom_site_label
_atom_site_type_symbol
_atom_site_fract_x
_atom_site_fract_y
_atom_site_fract_z
Zn1	Zn	1.000570	-0.416134	0.348473
Zn2	Zn	1.500570	0.083866	0.848473
Zn3	Zn	0.986135	-0.590921	0.220900
Zn4	Zn	1.486135	-0.090921	0.720900
Zn5	Zn	0.887383	-0.416163	0.235295
Zn6	Zn	1.387383	0.083837	0.735295
Zn7	Zn	0.873003	-0.590866	0.334051
Zn8	Zn	1.373003	-0.090866	0.834051
O9	O	0.936773	-0.503521	0.284679
O10	O	1.436773	-0.003521	0.784679
O11	O	1.093371	-0.439331	0.331561
O12	O	1.593371	0.060669	0.831561
O13	O	0.973012	-0.567775	0.128090
O14	O	1.473012	-0.067775	0.628090
O15	O	0.914457	-0.269896	0.262368
O16	O	1.414457	0.230104	0.762368
O17	O	1.082765	-0.567747	0.237833
O18	O	1.582765	-0.067747	0.737833
O19	O	0.997615	-0.269875	0.345519
O20	O	1.497615	0.230125	0.845519
O21	O	0.900459	-0.439380	0.138666
O22	O	1.400459	0.060620	0.638666
O23	O	0.790759	-0.439326	0.248384
O24	O	1.290759	0.060674	0.748384
O25	O	0.889948	-0.567652	0.430683
O26	O	1.389948	-0.067652	0.930683
O27	O	0.780195	-0.567680	0.320940
O28	O	1.280195	-0.067680	0.820940
O29	O	0.983672	-0.439277	0.441279
O30	O	1.483672	0.060723	0.941279
O31	O	0.959068	-0.737177	0.223849
O32	O	1.459068	-0.237177	0.723849
O33	O	0.875951	-0.737136	0.306981
O34	O	1.375951	-0.237136	0.806981
C35	C	0.760918	-0.503501	0.284659
C36	C	1.260918	-0.003501	0.784659
C37	C	0.685685	-0.503518	0.284665
C38	C	1.185685	-0.003518	0.784665
C39	C	0.644849	-0.570452	0.322366
C40	C	1.144849	-0.070452	0.822366
C41	C	0.574161	-0.570454	0.322375
C42	C	1.074161	-0.070454	0.822375
C43	C	0.544309	-0.503526	0.284679
C44	C	1.044309	-0.003526	0.784679
C45	C	0.585150	-0.436584	0.246976
C46	C	1.085150	0.063416	0.746976
C47	C	0.655838	-0.436578	0.246971
C48	C	1.155838	0.063422	0.746971
C49	C	0.300075	-0.436607	0.246997
C50	C	0.800075	0.063393	0.746997
C51	C	0.229382	-0.436621	0.247003
C52	C	0.729382	0.063379	0.747003
C53	C	0.218398	-0.570483	0.322401
C54	C	0.718398	-0.070483	0.822401
C55	C	0.289085	-0.570477	0.322396
C56	C	0.789085	-0.070477	0.822396
C57	C	0.329921	-0.503532	0.284696
C58	C	0.829921	-0.003532	0.784696
C59	C	0.406569	-0.503529	0.284687
C60	C	0.906569	-0.003529	0.784687
C61	C	0.467661	-0.503533	0.284683
C62	C	0.967661	-0.003533	0.784683
C63	C	0.914401	-0.775081	0.262303
C64	C	1.414401	-0.275081	0.762303
C65	C	0.904892	-0.891255	0.252753
C66	C	1.404892	-0.391255	0.752753
C67	C	0.941771	-0.942956	0.289677
C68	C	1.441771	-0.442956	0.789677
C69	C	0.931944	-1.063028	0.279808
C70	C	1.431944	-0.563028	0.779808
C71	C	1.113314	-0.503542	0.284700
C72	C	1.613314	-0.003542	0.784700
C73	C	1.188545	-0.503551	0.284709
C74	C	1.688545	-0.003551	0.784709
C75	C	0.936816	-0.503455	0.461228
C76	C	1.436816	-0.003455	0.961228
C77	C	0.936834	-0.503427	0.536462
C78	C	1.436834	-0.003427	1.036462
C79	C	0.959250	-0.230901	0.307158
C80	C	1.459250	0.269099	0.807158
C81	C	0.968829	-0.114726	0.316737
C82	C	1.468829	0.385274	0.816737
C83	C	0.936775	-0.503511	0.108824
C84	C	1.436775	-0.003511	0.608824
C85	C	0.936911	-0.503245	0.033615
C86	C	1.436911	-0.003245	0.533615
C87	C	0.985638	-0.436579	0.577325
C88	C	1.485638	0.063421	1.077325
C89	C	0.985647	-0.436549	0.648016
C90	C	1.485647	0.063451	1.148016
C91	C	0.936856	-0.503373	0.677842
C92	C	1.436856	-0.003373	1.177842
C93	C	0.888048	-0.570224	0.636974
C94	C	1.388048	-0.070224	1.136974
C95	C	0.888036	-0.570248	0.566285
C96	C	1.388036	-0.070248	1.066285
C97	C	0.888094	-0.570126	0.922056
C98	C	1.388094	-0.070126	1.422056
C99	C	0.888111	-0.570099	0.992750
C100	C	1.388111	-0.070099	1.492750
C101	C	0.985705	-0.436427	1.003786
C102	C	1.485705	0.063573	1.503786
C103	C	0.985693	-0.436451	0.933097
C104	C	1.485693	0.063549	1.433097
C105	C	0.936883	-0.503298	0.892236
C106	C	1.436883	-0.003298	1.392236
C107	C	0.936873	-0.503329	0.815585
C108	C	1.436873	-0.003329	1.315585
C109	C	0.936869	-0.503348	0.754491
C110	C	1.436869	-0.003348	1.254491
H111	H	0.540914	-0.624959	0.353075
H112	H	1.040914	-0.124959	0.853075
H113	H	0.866040	-0.935886	0.213837
H114	H	1.366040	-0.435886	0.713837
H115	H	0.848359	-0.624572	0.888793
H116	H	1.348359	-0.124572	1.388793
H117	H	1.007678	-1.070101	0.355661
H118	H	1.507678	-0.570101	0.855661
O119	O	0.317975	-0.635524	0.359075
O120	O	0.817975	-0.135524	0.859075
C121	C	0.266772	-0.694621	0.392342
C122	C	0.766772	-0.194621	0.892342
H123	H	0.219909	-0.651822	0.398261
H124	H	0.719909	-0.151822	0.898261
H125	H	0.286292	-0.705873	0.444730
H126	H	0.786292	-0.205873	0.944730
H127	H	0.252711	-0.773955	0.360937
H128	H	0.752711	-0.273955	0.860937
H129	H	0.848319	-0.624629	0.661265
H130	H	1.348319	-0.124629	1.161265
H131	H	1.025371	-0.382166	0.553045
H132	H	1.525371	0.117834	1.053045
H133	H	0.689086	-0.382067	0.216275
H134	H	1.189086	0.117933	0.716275
H135	H	1.025389	-0.382117	0.681283
H136	H	1.525389	0.117883	1.181283
O137	O	1.033118	-0.371439	0.904237
O138	O	1.533118	0.128561	1.404237
C139	C	1.076206	-0.312446	0.955462
C140	C	1.576206	0.187554	1.455462
H141	H	1.048791	-0.308807	1.006145
H142	H	1.548791	0.191193	1.506145
H143	H	1.090210	-0.230103	0.941829
H144	H	1.590210	0.269897	1.441829
H145	H	1.124458	-0.350723	0.959832
H146	H	1.624458	0.149277	1.459832
H147	H	0.893090	-1.107655	0.240889
H148	H	1.393090	-0.607655	0.740889
O149	O	1.033049	-0.371514	1.043583
O150	O	1.533049	0.128486	1.543583
C151	C	1.022610	-0.385830	1.112370
C152	C	1.522610	0.114170	1.612370
H153	H	0.967554	-0.420049	1.119194
H154	H	1.467554	0.079951	1.619194
H155	H	1.033662	-0.307528	1.145690
H156	H	1.533662	0.192472	1.645690
H157	H	1.058170	-0.441487	1.127851
H158	H	1.558170	0.058513	1.627851
H159	H	0.669148	-0.624956	0.353060
H160	H	1.169148	-0.124956	0.853060
H161	H	0.185141	-0.624989	0.353101
H162	H	0.685141	-0.124989	0.853101
O163	O	0.840643	-0.635044	1.021618
O164	O	1.340643	-0.135044	1.521618
C165	C	0.797568	-0.694067	0.970394
C166	C	1.297568	-0.194067	1.470394
H167	H	0.798744	-0.651275	0.923533
H168	H	1.298744	-0.151275	1.423533
H169	H	0.743326	-0.705194	0.989894
H170	H	1.243326	-0.205194	1.489894
H171	H	0.815801	-0.773458	0.956334
H172	H	1.315801	-0.273458	1.456334
H173	H	0.848289	-0.624672	0.533016
H174	H	1.348289	-0.124672	1.033016
H175	H	0.205079	-0.382114	0.216307
H176	H	0.705079	0.117886	0.716307
O177	O	0.339795	-0.371729	0.210326
O178	O	0.839795	0.128271	0.710326
C179	C	0.375760	-0.431139	0.161633
C180	C	0.875760	0.068861	0.661633
H181	H	0.379842	-0.510392	0.178890
H182	H	0.879842	-0.010392	0.678890
H183	H	0.428968	-0.388532	0.156109
H184	H	0.928968	0.111468	0.656109
H185	H	0.347554	-0.442531	0.110528
H186	H	0.847554	0.057469	0.610528
H187	H	0.980618	-0.898328	0.328599
H188	H	1.480618	-0.398328	0.828599
O189	O	0.556110	-0.371716	0.210277
O190	O	1.056110	0.128284	0.710277
C191	C	0.510296	-0.431133	0.161615
C192	C	1.010296	0.068867	0.661615
H193	H	0.524819	-0.513442	0.150558
H194	H	1.024819	-0.013442	0.650558
H195	H	0.512592	-0.393219	0.112692
H196	H	1.012592	0.106781	0.612692
H197	H	0.456433	-0.434785	0.182243
H198	H	0.956433	0.065215	0.682243
