data_functionalizedCrystal
_audit_creation_method	'MofGen! by Chris Wilmer'
_symmetry_space_group_name_H-M	'P1'
_symmetry_Int_Tables_number	1
_symmetry_cell_setting	triclinic
loop_
_symmetry_equiv_pos_as_xyz
  x,y,z
_cell_length_a	17.639617
_cell_length_b	29.839131
_cell_length_c	17.639477
_cell_angle_alpha	78.750105
_cell_angle_beta	92.133882
_cell_angle_gamma	101.225424
loop_
_atom_site_label
_atom_site_type_symbol
_atom_site_fract_x
_atom_site_fract_y
_atom_site_fract_z
Zn1	Zn	1.074199	0.020762	-0.664489
Zn2	Zn	1.099735	-0.066037	-0.537469
Zn3	Zn	0.972858	-0.008430	-0.511794
Zn4	Zn	0.947133	-0.071885	-0.638703
O5	O	1.023481	-0.031398	-0.588114
O6	O	1.183863	0.023911	-0.669176
O7	O	1.104357	-0.068165	-0.427794
O8	O	0.986380	0.058324	-0.532096
O9	O	1.202624	-0.039859	-0.575856
O10	O	1.060835	0.079771	-0.644280
O11	O	1.011141	-0.025842	-0.408930
O12	O	0.863169	-0.031511	-0.507092
O13	O	0.942536	-0.049825	-0.748393
O14	O	0.844269	-0.078131	-0.600331
O15	O	1.035891	0.018242	-0.767338
O16	O	1.079413	-0.129695	-0.550852
O17	O	0.967297	-0.133990	-0.625228
C18	C	0.826162	-0.058624	-0.548128
C19	C	0.741745	-0.070280	-0.531040
C20	C	0.415169	0.057183	-0.718118
C21	C	0.335849	0.046217	-0.702046
C22	C	0.355435	-0.020105	-0.604731
C23	C	0.434758	-0.009146	-0.620798
C24	C	0.464618	0.029499	-0.677492
C25	C	0.484207	-0.036830	-0.580172
C26	C	0.563523	-0.025870	-0.596234
C27	C	0.593390	0.012773	-0.652924
C28	C	0.543934	0.040458	-0.693555
C29	C	0.454346	-0.075473	-0.523474
C30	C	0.503795	-0.103157	-0.482848
C31	C	0.583112	-0.092199	-0.498914
C32	C	0.612979	-0.053556	-0.555604
C33	C	0.632568	-0.119885	-0.458283
C34	C	0.711884	-0.108925	-0.474346
C35	C	0.692296	-0.042596	-0.571666
C36	C	1.023352	-0.148143	-0.588048
C37	C	1.023361	-0.198075	-0.588060
C38	C	1.081934	-0.505430	-0.549475
C39	C	1.082022	-0.693087	-0.549524
O40	O	1.131720	-0.715424	-0.516667
N41	N	1.023627	-0.718813	-0.588203
C42	C	0.965209	-0.697620	-0.626877
O43	O	0.915547	-0.723806	-0.659784
C44	C	0.965125	-0.509963	-0.626833
C45	C	1.023519	-0.484241	-0.588145
C46	C	1.140324	-0.479708	-0.510791
C47	C	1.140299	-0.432797	-0.510776
C48	C	1.081884	-0.411608	-0.549445
C49	C	1.023494	-0.437330	-0.588129
C50	C	0.906711	-0.488770	-0.665511
C51	C	0.906696	-0.441853	-0.665498
C52	C	0.965090	-0.416131	-0.626810
C53	C	0.965055	-0.369230	-0.626783
N54	N	1.023450	-0.343505	-0.588104
C55	C	1.081864	-0.364694	-0.549435
C56	C	0.965257	-0.796143	-0.626896
C57	C	0.965277	-0.843058	-0.626906
C58	C	1.082091	-0.838521	-0.549554
C59	C	1.082067	-0.791607	-0.549540
C60	C	1.023651	-0.770418	-0.588217
C61	C	1.081807	-0.266178	-0.549405
C62	C	1.081776	-0.219264	-0.549391
C63	C	0.964964	-0.223804	-0.626746
C64	C	0.964994	-0.270714	-0.626758
C65	C	1.023422	-0.291900	-0.588086
O66	O	0.915387	-0.346862	-0.659630
O67	O	1.131528	-0.338497	-0.516547
C68	C	1.081959	-0.552341	-0.549490
C69	C	1.023569	-0.578063	-0.588175
C70	C	0.965154	-0.556874	-0.626844
C71	C	1.023589	-0.624977	-0.588185
C72	C	1.082004	-0.646166	-0.549516
C73	C	1.140399	-0.620440	-0.510836
C74	C	1.140374	-0.573529	-0.510821
C75	C	0.906760	-0.582599	-0.665524
C76	C	0.906789	-0.629510	-0.665535
C77	C	0.965203	-0.650699	-0.626866
C78	C	1.221571	-0.004066	-0.628256
C79	C	1.305984	0.007582	-0.645363
C80	C	0.983496	-0.013188	-0.786191
C81	C	0.966456	-0.005428	-0.870599
C82	C	1.023629	0.085808	-0.588200
C83	C	1.023691	0.135754	-0.588237
C84	C	1.153090	-0.090085	-1.197292
C85	C	1.137070	-0.082789	-1.276605
C86	C	1.040010	-0.038720	-1.256963
C87	C	1.056020	-0.046014	-1.177647
C88	C	1.112562	-0.071696	-1.147818
C89	C	1.015491	-0.027625	-1.128172
C90	C	1.031503	-0.034916	-1.048863
C91	C	1.088044	-0.060596	-1.019029
C92	C	1.128573	-0.078987	-1.068509
C93	C	0.958953	-0.001941	-1.158003
C94	C	0.918424	0.016448	-1.108528
C95	C	0.934432	0.009154	-1.029217
C96	C	0.990973	-0.016525	-0.999383
C97	C	0.893902	0.027545	-0.979737
C98	C	0.909914	0.020254	-0.900428
C99	C	1.006985	-0.023816	-0.920074
C100	C	1.063355	-0.049498	-0.390817
C101	C	1.080542	-0.057111	-0.306438
H102	H	0.389764	-0.084386	-0.510381
H103	H	0.568248	0.071925	-0.739723
H104	H	1.174622	-0.099895	-1.044223
H105	H	0.295589	0.068766	-0.735130
C106	C	0.901033	-0.871348	-0.669458
N107	N	0.852644	-0.892655	-0.701513
H108	H	1.053034	-0.044724	-0.895787
C109	C	0.322578	-0.062613	-0.542371
N110	N	0.297832	-0.094632	-0.495402
H111	H	0.657976	0.021697	-0.665998
H112	H	0.439482	0.088650	-0.764287
C113	C	1.215275	-0.118347	-1.164474
N114	N	1.262108	-0.139634	-1.139754
C115	C	1.105656	-0.068617	-0.931785
N116	N	1.118921	-0.074659	-0.866073
C117	C	1.181657	-0.103022	-1.331025
N118	N	1.215240	-0.118261	-1.372015
H119	H	0.716609	-0.011129	-0.617835
H120	H	0.479472	-0.134620	-0.436686
H121	H	0.608244	-0.151346	-0.412118
C122	C	0.766281	-0.139380	-0.429658
N123	N	0.807253	-0.162320	-0.395996
C124	C	0.977815	-0.010471	-1.289784
N125	N	0.930967	0.010805	-1.314503
C126	C	1.146013	-0.190973	-0.506824
N127	N	1.194396	-0.169666	-0.474763
H128	H	0.917446	-0.291658	-0.658264
H129	H	0.945922	0.003997	-1.222583
C130	C	1.146078	-0.289476	-0.506859
N131	N	1.194483	-0.307025	-0.474807
C132	C	1.204533	-0.404510	-0.468207
N133	N	1.252916	-0.383208	-0.436141
H134	H	0.872390	0.037360	-1.132826
H135	H	0.859192	-0.565351	-0.697014
C136	C	1.204588	-0.503009	-0.468243
N137	N	1.252991	-0.520557	-0.436186
H138	H	1.129617	-0.770666	-0.518037
C139	C	0.831713	0.055798	-1.012561
N140	N	0.784872	0.077079	-1.037283
H141	H	1.129654	-0.855781	-0.518068
H142	H	0.876914	0.035230	-0.860144
H143	H	0.859128	-0.424603	-0.696997
C144	C	0.901007	-0.772837	-0.669471
N145	N	0.852618	-0.755283	-0.701547
H146	H	0.859157	-0.509706	-0.697011
C147	C	0.900714	-0.200486	-0.669284
N148	N	0.852323	-0.182921	-0.701329
H149	H	0.859231	-0.650450	-0.697038
C150	C	1.204655	-0.643757	-0.468299
N151	N	1.253051	-0.661322	-0.436265
H152	H	1.187924	-0.552590	-0.479318
