data_functionalizedCrystal
_audit_creation_method	'MofGen! by Chris Wilmer'
_symmetry_space_group_name_H-M	'P1'
_symmetry_Int_Tables_number	1
_symmetry_cell_setting	triclinic
loop_
_symmetry_equiv_pos_as_xyz
  x,y,z
_cell_length_a	21.395362
_cell_length_b	16.959454
_cell_length_c	21.395355
_cell_angle_alpha	89.987004
_cell_angle_beta	89.956060
_cell_angle_gamma	90.035955
loop_
_atom_site_label
_atom_site_type_symbol
_atom_site_fract_x
_atom_site_fract_y
_atom_site_fract_z
Zn1	Zn	0.957906	-0.314438	-0.354610
Zn2	Zn	0.957828	-0.446599	-0.249842
Zn3	Zn	0.853121	-0.314475	-0.249811
Zn4	Zn	0.853109	-0.446615	-0.354547
O5	O	0.905491	-0.380532	-0.302202
O6	O	1.045573	-0.331947	-0.340751
O7	O	0.943910	-0.429081	-0.162160
O8	O	0.867058	-0.203859	-0.263726
O9	O	1.045516	-0.429045	-0.263779
O10	O	0.944043	-0.203832	-0.340721
O11	O	0.866982	-0.332010	-0.162137
O12	O	0.765441	-0.332026	-0.263665
O13	O	0.867039	-0.429073	-0.442233
O14	O	0.765433	-0.429109	-0.340614
O15	O	0.944032	-0.331963	-0.442279
O16	O	0.943899	-0.557212	-0.263718
O17	O	0.866963	-0.557224	-0.340645
C18	C	0.742703	-0.380574	-0.302130
C19	C	0.673062	-0.380610	-0.302114
C20	C	0.640361	-0.431228	-0.342121
C21	C	0.574925	-0.431209	-0.342149
C22	C	0.542194	-0.380580	-0.302158
C23	C	0.574903	-0.329952	-0.262148
C24	C	0.640337	-0.329967	-0.262126
C25	C	0.438468	-0.374212	-0.245752
C26	C	0.373035	-0.374203	-0.245774
C27	C	0.340373	-0.380528	-0.302227
C28	C	0.373152	-0.386881	-0.358661
C29	C	0.438586	-0.386896	-0.358639
C30	C	0.471241	-0.380557	-0.302178
C31	C	0.236719	-0.431128	-0.342268
C32	C	0.171283	-0.431103	-0.342297
C33	C	0.171261	-0.329850	-0.262291
C34	C	0.236697	-0.329871	-0.262267
C35	C	0.269422	-0.380514	-0.302255
C36	C	0.905438	-0.585898	-0.302192
C37	C	0.905473	-0.673755	-0.302208
C38	C	0.865488	-1.045266	-0.342254
C39	C	0.945668	-1.045194	-0.262215
C40	C	0.945646	-0.962648	-0.262209
C41	C	0.905544	-0.921407	-0.302226
C42	C	0.865464	-0.962713	-0.342248
C43	C	0.985721	-0.921337	-0.222184
C44	C	0.985700	-0.838786	-0.222176
C45	C	0.945601	-0.797544	-0.262196
C46	C	0.905520	-0.838854	-0.302220
C47	C	0.865418	-0.797613	-0.342236
C48	C	0.825339	-0.838922	-0.382264
C49	C	0.825365	-0.921471	-0.382268
C50	C	0.945575	-0.714995	-0.262192
C51	C	0.865393	-0.715060	-0.342230
C52	C	1.068914	-0.380490	-0.302276
C53	C	1.138555	-0.380473	-0.302307
C54	C	0.905543	-0.380516	-0.465626
C55	C	0.905565	-0.380509	-0.535267
C56	C	0.905561	-0.174363	-0.302227
C57	C	0.905590	-0.086507	-0.302237
C58	C	0.945654	-0.329942	-0.568005
C59	C	0.945653	-0.329908	-0.633441
C60	C	0.905570	-0.380455	-0.666135
C61	C	0.865473	-0.431026	-0.633389
C62	C	0.865471	-0.431053	-0.567955
C63	C	0.900604	-0.451628	-0.769805
C64	C	0.900611	-0.451602	-0.835238
C65	C	0.905574	-0.380371	-0.867956
C66	C	0.910543	-0.309164	-0.835234
C67	C	0.910540	-0.309191	-0.769800
C68	C	0.905568	-0.380431	-0.737088
C69	C	0.945664	-0.329763	-0.971647
C70	C	0.945659	-0.329728	-1.037084
C71	C	0.865482	-0.430853	-1.037031
C72	C	0.865484	-0.430881	-0.971596
C73	C	0.905578	-0.380337	-0.938908
C74	C	0.905475	-0.380491	-0.139415
C75	C	0.905574	-0.380275	-0.069774
H76	H	0.548295	-0.472428	-0.374730
O77	O	0.271974	-0.275297	-0.219100
H78	H	0.238222	-0.240096	-0.191288
O79	O	0.822232	-0.485592	-0.532635
H80	H	0.790370	-0.450222	-0.502801
O81	O	0.473941	-0.393738	-0.419503
H82	H	0.503796	-0.340806	-0.425949
O83	O	0.822261	-1.089822	-0.385419
H84	H	0.832980	-1.073950	-0.434607
H85	H	0.667002	-0.472465	-0.374683
O86	O	0.675607	-0.275381	-0.218959
H87	H	0.663100	-0.213359	-0.229785
H88	H	0.896569	-0.509584	-0.861875
H89	H	0.144659	-0.472321	-0.374880
O90	O	0.988903	-0.275242	-0.936390
H91	H	1.020773	-0.310626	-0.906612
O92	O	1.028967	-0.965819	-0.179024
H93	H	1.056826	-0.923229	-0.151185
H94	H	0.792734	-0.955112	-0.414855
O95	O	0.822130	-0.670586	-0.385387
H96	H	0.832850	-0.686398	-0.434577
H97	H	0.978204	-0.681365	-0.229599
O98	O	0.988894	-0.275426	-0.532747
H99	H	1.016767	-0.240254	-0.566510
O100	O	0.988898	-0.275373	-0.668764
H101	H	1.016780	-0.240236	-0.635040
O102	O	0.822243	-0.485367	-1.072286
H103	H	0.832961	-0.547407	-1.059738
O104	O	0.539593	-0.275355	-0.219014
H105	H	0.552192	-0.213338	-0.229840
H106	H	0.978313	-1.078777	-0.229632
O107	O	1.028932	-0.794232	-0.179013
H108	H	1.056825	-0.836778	-0.151193
O109	O	0.782087	-0.794440	-0.425425
H110	H	0.788807	-0.730100	-0.418694
O111	O	0.915896	-0.232396	-0.734503
H112	H	0.919345	-0.182856	-0.768242
O113	O	0.915879	-0.232325	-0.870511
H114	H	0.915032	-0.244264	-0.921509
H115	H	0.978303	-0.288545	-1.063738
O116	O	0.337936	-0.393697	-0.419559
H117	H	0.286929	-0.392608	-0.410097
O118	O	0.822229	-0.485401	-0.936279
H119	H	0.794350	-0.520539	-0.970004
O120	O	0.895244	-0.528459	-0.734516
H121	H	0.891796	-0.577968	-0.768261
O122	O	0.822238	-0.485545	-0.668647
H123	H	0.828978	-0.477036	-0.719649
H124	H	0.263366	-0.472361	-0.374832
O125	O	0.135963	-0.275250	-0.219153
H126	H	0.106203	-0.235084	-0.247258
O127	O	0.337681	-0.367348	-0.184910
H128	H	0.371385	-0.362934	-0.145652
H129	H	0.465056	-0.369058	-0.199778
