data_functionalizedCrystal
_audit_creation_method	'MofGen! by Chris Wilmer'
_symmetry_space_group_name_H-M	'P1'
_symmetry_Int_Tables_number	1
_symmetry_cell_setting	triclinic
loop_
_symmetry_equiv_pos_as_xyz
  x,y,z
_cell_length_a	12.827893
_cell_length_b	12.594516
_cell_length_c	12.594509
_cell_angle_alpha	90.026328
_cell_angle_beta	90.019325
_cell_angle_gamma	90.011976
loop_
_atom_site_label
_atom_site_type_symbol
_atom_site_fract_x
_atom_site_fract_y
_atom_site_fract_z
Zn1	Zn	1.597696	-0.423722	0.601798
Zn2	Zn	1.597601	-0.601727	0.423820
Zn3	Zn	1.422937	-0.423764	0.423833
Zn4	Zn	1.422934	-0.601659	0.601757
O5	O	1.510292	-0.512718	0.512802
O6	O	1.743920	-0.447345	0.578200
O7	O	1.574393	-0.578166	0.274876
O8	O	1.446161	-0.274812	0.447463
O9	O	1.743850	-0.578125	0.447440
O10	O	1.574555	-0.274781	0.578213
O11	O	1.446069	-0.447417	0.274886
O12	O	1.276701	-0.447351	0.447424
O13	O	1.446155	-0.578009	0.750708
O14	O	1.276698	-0.578050	0.578144
O15	O	1.574552	-0.447280	0.750738
O16	O	1.574390	-0.750664	0.447401
O17	O	1.446062	-0.750614	0.578131
C18	C	1.238782	-0.512698	0.512782
C19	C	1.122629	-0.512716	0.512798
C20	C	1.070879	-0.448116	0.577603
C21	C	0.950828	-0.448133	0.577622
C22	C	1.510244	-0.789259	0.512784
C23	C	1.510319	-0.907564	0.512811
C24	C	1.580197	-0.976806	0.441783
C25	C	1.605735	-1.047505	0.538932
C26	C	1.484911	-1.047664	0.415725
C27	C	1.535905	-0.976705	0.610011
C28	C	1.415038	-0.976858	0.486738
C29	C	1.440539	-1.047525	0.583954
C30	C	1.782862	-0.512738	0.512823
C31	C	1.899015	-0.512747	0.512832
C32	C	1.510363	-0.512632	0.790423
C33	C	1.510394	-0.512596	0.908729
C34	C	1.510369	-0.235097	0.512844
C35	C	1.510402	-0.116792	0.512862
C36	C	1.510281	-0.512726	0.236261
C37	C	1.510453	-0.512463	0.117956
C38	C	1.440602	-0.583611	1.048729
C39	C	1.415046	-0.486546	0.977928
C40	C	1.535903	-0.609651	0.977958
C41	C	1.484848	-0.415346	1.048713
C42	C	1.605749	-0.538516	1.048750
C43	C	1.580229	-0.441384	0.977980
H44	H	1.115450	-0.392795	0.633067
O45	O	1.069581	-0.578862	0.446674
C46	C	1.035894	-0.759828	0.394782
C47	C	1.096050	-0.685034	0.469719
H48	H	1.057255	-0.845684	0.413402
H49	H	1.057274	-0.741137	0.308948
H50	H	0.948551	-0.748027	0.406569
H51	H	1.183406	-0.696793	0.458027
H52	H	1.074583	-0.703743	0.555526
H53	H	1.639274	-0.381205	0.947113
O54	O	1.650842	-0.939801	0.370309
C55	C	1.831160	-0.933868	0.317075
C56	C	1.751268	-0.975827	0.398101
H57	H	1.912368	-0.962996	0.339503
H58	H	1.830028	-0.843356	0.317183
H59	H	1.810209	-0.964249	0.234499
H60	H	1.772163	-0.945525	0.480716
H61	H	1.752415	-1.066337	0.397899
O62	O	1.701825	-1.084705	0.565328
C63	C	1.809290	-1.238620	0.595767
C64	C	1.700412	-1.196647	0.565882
H65	H	1.808190	-1.329129	0.596203
H66	H	1.831561	-1.208279	0.678001
H67	H	1.868749	-1.209514	0.535144
H68	H	1.640881	-1.225736	0.626434
H69	H	1.678229	-1.226980	0.483622
H70	H	1.557349	-0.945669	0.692207
O71	O	0.951977	-0.578682	0.446489
C72	C	0.985536	-0.630050	0.265374
C73	C	0.925464	-0.555329	0.340385
H74	H	0.964139	-0.611180	0.179572
H75	H	0.964117	-0.715938	0.283815
H76	H	1.072892	-0.618301	0.277208
H77	H	0.838094	-0.566983	0.328593
H78	H	0.946970	-0.469469	0.321925
H79	H	1.381481	-1.078381	0.644111
O80	O	0.897630	-0.382298	0.643868
C81	C	0.774392	-0.368294	0.787546
C82	C	0.834558	-0.442972	0.712570
H83	H	0.723402	-0.417320	0.843126
H84	H	0.723200	-0.312651	0.738794
H85	H	0.832101	-0.319618	0.836275
H86	H	0.776925	-0.491717	0.663825
H87	H	0.885767	-0.498546	0.761383
H88	H	1.334448	-0.945800	0.464628
O89	O	1.459347	-1.084720	0.317671
C90	C	1.504145	-1.090861	0.131979
C91	C	1.533191	-1.048809	0.242961
H92	H	1.563844	-1.061863	0.071549
H93	H	1.423483	-1.060560	0.109061
H94	H	1.503641	-1.181369	0.133183
H95	H	1.533756	-0.958305	0.241841
H96	H	1.613835	-1.079193	0.265835
H97	H	1.686342	-0.560532	1.079881
H98	H	1.557455	-0.691786	0.946880
H99	H	1.381512	-0.643645	1.079795
H100	H	1.334430	-0.464559	0.946819
H101	H	1.463205	-0.333187	1.079663
