data_functionalizedCrystal
_audit_creation_method	'MofGen! by Chris Wilmer'
_symmetry_space_group_name_H-M	'P1'
_symmetry_Int_Tables_number	1
_symmetry_cell_setting	triclinic
loop_
_symmetry_equiv_pos_as_xyz
  x,y,z
_cell_length_a	15.944493
_cell_length_b	15.944551
_cell_length_c	14.421503
_cell_angle_alpha	89.996660
_cell_angle_beta	89.992936
_cell_angle_gamma	96.513109
loop_
_atom_site_label
_atom_site_type_symbol
_atom_site_fract_x
_atom_site_fract_y
_atom_site_fract_z
O1	O	1.114560	-0.108089	-0.077101
O2	O	1.614560	0.391911	0.422899
O3	O	0.870003	-0.121496	-0.077106
O4	O	1.370003	0.378504	0.422894
O5	O	0.998960	0.007484	-0.077095
O6	O	1.498960	0.507484	0.422905
O7	O	0.985603	-0.237068	-0.077112
O8	O	1.485603	0.262932	0.422888
O9	O	0.998938	0.007465	0.077128
O10	O	1.498938	0.507465	0.577128
O11	O	0.869982	-0.121515	0.077117
O12	O	1.369982	0.378485	0.577117
O13	O	1.114538	-0.108108	0.077122
O14	O	1.614538	0.391892	0.577122
Cu15	Cu	0.992258	-0.114813	0.091201
Cu16	Cu	1.492258	0.385187	0.591201
Cu17	Cu	0.992283	-0.114790	-0.091186
Cu18	Cu	1.492283	0.385210	0.408814
O19	O	0.985582	-0.237087	0.077111
O20	O	1.485582	0.262913	0.577111
C21	C	0.838698	-0.120957	0.000005
C22	C	1.338698	0.379043	0.500005
C23	C	0.745449	-0.119314	0.000003
C24	C	1.245449	0.380686	0.500003
C25	C	0.509689	-0.195235	-0.000002
C26	C	1.009689	0.304765	0.499998
C27	C	0.459120	-0.154303	0.076045
C28	C	0.959120	0.345697	0.576045
C29	C	0.574728	-0.116270	0.000005
C30	C	1.074728	0.383730	0.500005
C31	C	0.459146	-0.154266	-0.076008
C32	C	0.959146	0.345734	0.423992
C33	C	0.409819	-0.113336	0.000003
C34	C	0.909819	0.386664	0.500003
C35	C	0.525388	-0.075360	0.076115
C36	C	1.025388	0.424640	0.576115
C37	C	0.525417	-0.075334	-0.076005
C38	C	1.025417	0.424666	0.423995
C39	C	0.474880	-0.034345	0.000060
C40	C	0.974880	0.465655	0.500060
C41	C	0.669728	-0.117963	0.000007
C42	C	1.169728	0.382037	0.500007
C43	C	0.314821	-0.111637	0.000008
C44	C	0.814821	0.388363	0.500008
C45	C	0.998395	0.038768	0.000017
C46	C	1.498395	0.538768	0.500017
C47	C	0.996732	0.132014	0.000017
C48	C	1.496732	0.632014	0.500017
C49	C	1.145844	-0.108646	0.000009
C50	C	1.645844	0.391354	0.500009
C51	C	1.239092	-0.110289	0.000004
C52	C	1.739092	0.389711	0.500004
N53	N	0.992246	-0.114828	0.219483
N54	N	1.492246	0.385172	0.719483
C55	C	0.986147	-0.268372	-0.000003
C56	C	1.486147	0.231628	0.499997
C57	C	0.987809	-0.361617	-0.000009
C58	C	1.487809	0.138383	0.499991
C59	C	0.912826	0.346853	0.000003
C60	C	1.412826	0.846853	0.500003
C61	C	0.951779	0.407869	0.076045
C62	C	1.451779	0.907869	0.576045
C63	C	0.993725	0.302739	0.000010
C64	C	1.493725	0.802739	0.500010
C65	C	0.951819	0.407872	-0.076007
C66	C	1.451819	0.907872	0.423993
C67	C	0.990814	0.467651	-0.000001
C68	C	1.490814	0.967651	0.499999
C69	C	1.032700	0.362527	0.076115
C70	C	1.532700	0.862527	0.576115
C71	C	1.032729	0.362523	-0.076006
C72	C	1.532729	0.862523	0.423994
C73	C	1.071741	0.423521	0.000055
C74	C	1.571741	0.923521	0.500055
C75	C	0.995399	0.207737	0.000017
C76	C	1.495399	0.707737	0.500017
C77	C	0.989146	0.562652	-0.000002
C78	C	1.489146	1.062652	0.499998
N79	N	0.992302	-0.114768	-0.219467
N80	N	1.492302	0.385232	0.280533
C81	C	0.932607	-0.174442	0.469131
C82	C	1.432607	0.325558	0.969131
C83	C	1.008509	-0.190733	0.530934
C84	C	1.508509	0.309267	1.030934
C85	C	0.992267	-0.114808	0.408644
C86	C	1.492267	0.385192	0.908644
C87	C	0.916384	-0.098537	0.530935
C88	C	1.416384	0.401463	1.030935
C89	C	0.992280	-0.114791	0.591366
C90	C	1.492280	0.385209	1.091366
C91	C	1.068207	-0.131138	0.469086
C92	C	1.568207	0.368862	0.969086
C93	C	0.976033	-0.038908	0.469082
C94	C	1.476033	0.461092	0.969082
C95	C	1.051990	-0.055167	0.530857
C96	C	1.551990	0.444833	1.030857
C97	C	0.992258	-0.114821	0.303383
C98	C	1.492258	0.385179	0.803383
C99	C	0.992297	-0.114778	0.696625
C100	C	1.492297	0.385222	1.196625
H101	H	0.554206	-0.042040	0.140471
H102	H	1.054206	0.457960	0.640471
F103	F	1.159587	0.466883	0.000110
F104	F	1.659587	0.966883	0.500110
F105	F	1.077428	0.336229	-0.160037
F106	F	1.577428	0.836229	0.339963
F107	F	0.454659	0.054626	0.000124
F108	F	0.954659	0.554626	0.500124
H109	H	1.066879	0.342536	0.140473
H110	H	1.566879	0.842536	0.640473
H111	H	0.525313	-0.263254	0.000064
H112	H	1.025313	0.236746	0.500064
H113	H	0.430174	-0.187659	0.140331
H114	H	0.930174	0.312341	0.640331
H115	H	0.554372	-0.042003	-0.140295
H116	H	1.054372	0.457997	0.359705
H117	H	0.430217	-0.187622	-0.140290
H118	H	0.930217	0.312378	0.359710
H119	H	0.917552	0.427962	0.140331
H120	H	1.417552	0.927962	0.640331
H121	H	0.852207	-0.084782	0.558105
H122	H	1.352207	0.415218	1.058105
F123	F	0.907087	0.434133	-0.160030
F124	F	1.407087	0.934133	0.339970
H125	H	0.845675	0.313532	0.000077
H126	H	1.345675	0.813532	0.500077
F127	F	0.958040	0.044954	0.433540
F128	F	1.458040	0.544954	0.933540
H129	H	0.882205	-0.224912	0.442029
H130	H	1.382205	0.275088	0.942029
H131	H	1.022251	-0.254913	0.558102
H132	H	1.522251	0.245087	1.058102
H133	H	1.102504	-0.004726	0.557789
H134	H	1.602504	0.495274	1.057789
H135	H	1.132399	-0.144970	0.442033
H136	H	1.632399	0.355030	0.942033
