data_functionalizedCrystal
_audit_creation_method	'MofGen! by Chris Wilmer'
_symmetry_space_group_name_H-M	'P1'
_symmetry_Int_Tables_number	1
_symmetry_cell_setting	triclinic
loop_
_symmetry_equiv_pos_as_xyz
  x,y,z
_cell_length_a	6.394989
_cell_length_b	17.699097
_cell_length_c	16.176319
_cell_angle_alpha	89.988988
_cell_angle_beta	90.003737
_cell_angle_gamma	95.106929
loop_
_atom_site_label
_atom_site_type_symbol
_atom_site_fract_x
_atom_site_fract_y
_atom_site_fract_z
O1	O	-0.264264	1.006769	-0.068810
O2	O	0.235736	1.506769	0.431190
O3	O	-0.298599	0.786743	-0.068796
O4	O	0.201401	1.286743	0.431204
O5	O	0.022648	0.899879	-0.068804
O6	O	0.522648	1.399879	0.431196
O7	O	-0.585511	0.893633	-0.068802
O8	O	-0.085511	1.393633	0.431198
O9	O	0.022669	0.899863	0.068689
O10	O	0.522669	1.399863	0.568689
O11	O	-0.298579	0.786726	0.068697
O12	O	0.201421	1.286726	0.568697
O13	O	-0.264243	1.006753	0.068683
O14	O	0.235757	1.506753	0.568683
Cu15	Cu	-0.281409	0.896738	0.081244
Cu16	Cu	0.218591	1.396738	0.581244
Cu17	Cu	-0.281433	0.896757	-0.081357
Cu18	Cu	0.218567	1.396757	0.418643
O19	O	-0.585491	0.893617	0.068691
O20	O	-0.085491	1.393617	0.568691
C21	C	-0.297354	0.758525	-0.000048
C22	C	0.202646	1.258525	0.499952
C23	C	-0.293649	0.674470	-0.000043
C24	C	0.206351	1.174470	0.499957
C25	C	-0.270950	0.158529	-0.075024
C26	C	0.229050	0.658529	0.424976
C27	C	-0.274417	0.237508	-0.075019
C28	C	0.225583	0.737508	0.424981
C29	C	-0.276143	0.276983	-0.000069
C30	C	0.223857	0.776983	0.499931
C31	C	-0.274380	0.237475	0.074883
C32	C	0.225620	0.737475	0.574883
C33	C	-0.270898	0.158498	0.074878
C34	C	0.229102	0.658498	0.574878
C35	C	-0.288419	0.555982	0.074905
C36	C	0.211581	1.055982	0.574905
C37	C	-0.291908	0.634965	0.074904
C38	C	0.208092	1.134965	0.574904
C39	C	-0.291938	0.634993	-0.074993
C40	C	0.208062	1.134993	0.425007
C41	C	-0.288456	0.556015	-0.074998
C42	C	0.211544	1.056015	0.425002
C43	C	-0.286683	0.516515	-0.000046
C44	C	0.213317	1.016515	0.499954
C45	C	-0.282919	0.430876	-0.000052
C46	C	0.217081	0.930876	0.499948
C47	C	-0.279921	0.362619	-0.000062
C48	C	0.220079	0.862619	0.499938
C49	C	0.100474	0.898636	-0.000060
C50	C	0.600474	1.398636	0.499940
C51	C	0.336690	0.894862	-0.000061
C52	C	0.836690	1.394862	0.499939
C53	C	-0.265489	1.034971	-0.000067
C54	C	0.234511	1.534971	0.499933
C55	C	-0.269194	1.119026	-0.000078
C56	C	0.230806	1.619026	0.499922
N57	N	-0.281391	0.896730	0.195610
N58	N	0.218609	1.396730	0.695610
N59	N	-0.281435	0.896771	-0.195723
N60	N	0.218565	1.396771	0.304277
C61	C	-0.139201	0.946843	0.238870
C62	C	0.360799	1.446843	0.738870
C63	C	-0.139198	0.946847	0.325417
C64	C	0.360802	1.446847	0.825417
C65	C	-0.281398	0.896741	0.368702
C66	C	0.218602	1.396741	0.868702
C67	C	-0.423595	0.846623	0.325435
C68	C	0.076405	1.346623	0.825435
C69	C	-0.423586	0.846616	0.238890
C70	C	0.076414	1.346616	0.738890
C71	C	-0.423634	0.846649	0.674464
C72	C	0.076366	1.346649	1.174464
C73	C	-0.423637	0.846661	0.761015
C74	C	0.076363	1.346661	1.261015
C75	C	-0.139247	0.946880	0.760991
C76	C	0.360753	1.446880	1.260991
C77	C	-0.139238	0.946873	0.674446
C78	C	0.360762	1.446873	1.174446
C79	C	-0.281426	0.896753	0.631186
C80	C	0.218574	1.396753	1.131186
C81	C	-0.281424	0.896748	0.537342
C82	C	0.218576	1.396748	1.037342
C83	C	-0.281412	0.896749	0.462545
C84	C	0.218588	1.396749	0.962545
H85	H	-0.293373	0.667164	-0.136022
H86	H	0.206627	1.167164	0.363978
H87	H	-0.023452	0.987677	0.639206
H88	H	0.476548	1.487677	1.139206
H89	H	-0.539413	0.805841	0.639249
H90	H	-0.039413	1.305841	1.139249
F91	F	-0.293742	0.676976	0.154681
F92	F	0.206258	1.176976	0.654681
H93	H	-0.275834	0.269668	-0.136048
H94	H	0.224166	0.769668	0.363952
F95	F	-0.286575	0.513951	0.154675
F96	F	0.213425	1.013951	0.654675
H97	H	-0.275772	0.269622	0.135910
H98	H	0.224228	0.769622	0.635910
F99	F	0.012092	1.000222	0.807037
F100	F	0.512092	1.500222	1.307037
H101	H	-0.539437	0.805856	0.796256
H102	H	-0.039437	1.305856	1.296256
H103	H	-0.269490	0.126335	0.135907
H104	H	0.230510	0.626335	0.635907
F105	F	0.012141	1.000178	0.192811
F106	F	0.512141	1.500178	0.692811
F107	F	-0.269129	0.116523	-0.154798
F108	F	0.230871	0.616523	0.345202
H109	H	-0.539370	0.805822	0.360683
H110	H	-0.039370	1.305822	0.860683
H111	H	-0.539369	0.805808	0.203668
H112	H	-0.039369	1.305808	0.703668
H113	H	-0.287062	0.523878	-0.136030
H114	H	0.212938	1.023878	0.363970
H115	H	-0.023415	0.987652	0.360640
H116	H	0.476585	1.487652	0.860640
