data_functionalizedCrystal
_audit_creation_method	'MofGen! by Chris Wilmer'
_symmetry_space_group_name_H-M	'P1'
_symmetry_Int_Tables_number	1
_symmetry_cell_setting	triclinic
loop_
_symmetry_equiv_pos_as_xyz
  x,y,z
_cell_length_a	21.295418
_cell_length_b	21.295417
_cell_length_c	21.295411
_cell_angle_alpha	90.021644
_cell_angle_beta	90.043738
_cell_angle_gamma	90.046319
loop_
_atom_site_label
_atom_site_type_symbol
_atom_site_fract_x
_atom_site_fract_y
_atom_site_fract_z
Zn1	Zn	0.962356	-0.250415	0.356234
Zn2	Zn	1.462356	0.249585	0.856234
Zn3	Zn	0.962258	-0.355667	0.250959
Zn4	Zn	1.462258	0.144333	0.750959
Zn5	Zn	0.857079	-0.250445	0.250943
Zn6	Zn	1.357079	0.249555	0.750943
Zn7	Zn	0.857048	-0.355680	0.356155
Zn8	Zn	1.357048	0.144320	0.856155
O9	O	0.909685	-0.303052	0.303573
O10	O	1.409685	0.196948	0.803573
O11	O	1.050432	-0.264360	0.342308
O12	O	1.550432	0.235640	0.842308
O13	O	0.948278	-0.341716	0.162867
O14	O	1.448278	0.158284	0.662867
O15	O	0.871098	-0.162351	0.264937
O16	O	1.371098	0.337649	0.764937
O17	O	1.050361	-0.341688	0.264963
O18	O	1.550361	0.158312	0.764963
O19	O	0.948444	-0.162330	0.342293
O20	O	1.448444	0.337670	0.842293
O21	O	0.871003	-0.264410	0.162856
O22	O	1.371003	0.235590	0.662856
O23	O	0.768985	-0.264422	0.264861
O24	O	1.268985	0.235578	0.764861
O25	O	0.871046	-0.341709	0.444255
O26	O	1.371046	0.158291	0.944255
O27	O	0.768963	-0.341738	0.342160
O28	O	1.268963	0.158262	0.842160
O29	O	0.948415	-0.264372	0.444313
O30	O	1.448415	0.235628	0.944313
O31	O	0.948248	-0.443758	0.264887
O32	O	1.448248	0.056242	0.764887
O33	O	0.870951	-0.443767	0.342175
O34	O	1.370951	0.056233	0.842175
C35	C	0.746134	-0.303085	0.303500
C36	C	1.246134	0.196915	0.803500
C37	C	0.676166	-0.303114	0.303484
C38	C	1.176166	0.196886	0.803484
C39	C	0.643304	-0.343426	0.343674
C40	C	1.143304	0.156574	0.843674
C41	C	0.577561	-0.343410	0.343702
C42	C	1.077561	0.156590	0.843702
C43	C	0.544683	-0.303090	0.303530
C44	C	1.044683	0.196910	0.803530
C45	C	0.577553	-0.262770	0.263337
C46	C	1.077553	0.237230	0.763337
C47	C	0.643294	-0.262783	0.263315
C48	C	1.143294	0.237217	0.763315
N49	N	0.441407	-0.298163	0.248472
N50	N	0.941407	0.201837	0.748472
N51	N	0.378956	-0.298155	0.248495
N52	N	0.878956	0.201845	0.748495
C53	C	0.346608	-0.303050	0.303596
C54	C	0.846608	0.196950	0.803596
N55	N	0.379072	-0.307965	0.358675
N56	N	0.879072	0.192035	0.858675
N57	N	0.441529	-0.307976	0.358650
N58	N	0.941529	0.192024	0.858650
C59	C	0.473398	-0.303072	0.303550
C60	C	0.973398	0.196928	0.803550
C61	C	0.242461	-0.343346	0.343820
C62	C	0.742461	0.156654	0.843820
C63	C	0.176717	-0.343326	0.343849
C64	C	0.676717	0.156674	0.843849
C65	C	0.176710	-0.262690	0.263479
C66	C	0.676710	0.237310	0.763479
C67	C	0.242453	-0.262707	0.263455
C68	C	0.742453	0.237293	0.763455
C69	C	0.275324	-0.303038	0.303625
C70	C	0.775324	0.196962	0.803625
C71	C	0.909603	-0.466603	0.303538
C72	C	1.409603	0.033397	0.803538
C73	C	0.909625	-0.536571	0.303544
C74	C	1.409625	-0.036571	0.803544
C75	C	0.949910	-0.569412	0.263342
C76	C	1.449910	-0.069412	0.763342
C77	C	0.949939	-0.635155	0.263356
C78	C	1.449939	-0.135155	0.763356
C79	C	0.909673	-0.668054	0.303566
C80	C	1.409673	-0.168054	0.803566
C81	C	0.869386	-0.635205	0.343776
C82	C	1.369386	-0.135205	0.843776
C83	C	0.869362	-0.569464	0.343765
C84	C	1.369362	-0.069464	0.843765
N85	N	0.854606	-0.771336	0.308340
N86	N	1.354606	-0.271336	0.808340
N87	N	0.854630	-0.833787	0.308347
N88	N	1.354630	-0.333787	0.808347
C89	C	0.909743	-0.866129	0.303602
C90	C	1.409743	-0.366129	0.803602
N91	N	0.964832	-0.833659	0.298838
N92	N	1.464832	-0.333659	0.798838
N93	N	0.964807	-0.771202	0.298828
N94	N	1.464807	-0.271202	0.798828
C95	C	0.909695	-0.739339	0.303582
C96	C	1.409695	-0.239339	0.803582
C97	C	0.950063	-0.970255	0.263413
C98	C	1.450063	-0.470255	0.763413
C99	C	0.950094	-1.035999	0.263431
C100	C	1.450094	-0.535999	0.763431
C101	C	0.869535	-1.036048	0.343848
C102	C	1.369535	-0.536048	0.843848
C103	C	0.869510	-0.970305	0.343833
C104	C	1.369510	-0.470305	0.843833
C105	C	0.909773	-0.937413	0.303612
C106	C	1.409773	-0.437413	0.803612
C107	C	1.073876	-0.303019	0.303646
C108	C	1.573876	0.196981	0.803646
C109	C	1.143844	-0.303005	0.303677
C110	C	1.643844	0.196995	0.803677
C111	C	0.909738	-0.303038	0.467763
C112	C	1.409738	0.196962	0.967763
C113	C	0.909760	-0.303033	0.537731
C114	C	1.409760	0.196967	1.037731
C115	C	0.909785	-0.138861	0.303622
C116	C	1.409785	0.361139	0.803622
C117	C	0.909828	-0.068893	0.303642
C118	C	1.409828	0.431107	0.803642
C119	C	0.909670	-0.303019	0.140021
C120	C	1.409670	0.196981	0.640021
C121	C	0.909769	-0.302848	0.070054
C122	C	1.409769	0.197152	0.570054
C123	C	0.950044	-0.262761	0.570629
C124	C	1.450044	0.237239	1.070629
C125	C	0.950043	-0.262734	0.636371
C126	C	1.450043	0.237266	1.136371
C127	C	0.909765	-0.302989	0.669214
C128	C	1.409765	0.197011	1.169214
C129	C	0.869473	-0.343263	0.636308
C130	C	1.369473	0.156737	1.136308
C131	C	0.869470	-0.343285	0.570567
C132	C	1.369470	0.156715	1.070567
N133	N	0.904908	-0.358058	0.772428
N134	N	1.404908	0.141942	1.272428
N135	N	0.904914	-0.358036	0.834879
N136	N	1.404914	0.141964	1.334879
C137	C	0.909769	-0.302926	0.867289
C138	C	1.409769	0.197074	1.367289
N139	N	0.914629	-0.247837	0.834888
N140	N	1.414629	0.252163	1.334888
N141	N	0.914627	-0.247860	0.772430
N142	N	1.414627	0.252140	1.272430
C143	C	0.909763	-0.302970	0.740499
C144	C	1.409763	0.197030	1.240499
C145	C	0.950054	-0.262621	0.971472
C146	C	1.450054	0.237379	1.471472
C147	C	0.950049	-0.262593	1.037216
C148	C	1.450049	0.237407	1.537216
C149	C	0.869482	-0.343128	1.037151
C150	C	1.369482	0.156872	1.537151
C151	C	0.869484	-0.343151	0.971409
C152	C	1.369484	0.156849	1.471409
C153	C	0.909773	-0.302898	0.938573
C154	C	1.409773	0.197102	1.438573
H155	H	0.269226	-0.376183	0.376531
H156	H	0.769226	0.123817	0.876531
C157	C	0.860692	-0.896341	0.428484
C158	C	1.360692	-0.396341	0.928484
C159	C	0.825221	-0.934204	0.388021
C160	C	1.325221	-0.434204	0.888021
H161	H	0.833348	-0.874058	0.455768
H162	H	1.333348	-0.374058	0.955768
H163	H	0.884662	-0.867343	0.404534
H164	H	1.384662	-0.367343	0.904534
H165	H	0.888114	-0.921949	0.452600
H166	H	1.388114	-0.421949	0.952600
H167	H	0.797802	-0.908595	0.363902
H168	H	1.297802	-0.408595	0.863902
H169	H	0.801241	-0.963205	0.411973
H170	H	1.301241	-0.463205	0.911973
H171	H	0.982857	-0.229842	0.944736
H172	H	1.482857	0.270158	1.444736
H173	H	0.982850	-0.229984	0.543898
H174	H	1.482850	0.270016	1.043898
H175	H	0.982850	-0.943473	0.230664
H176	H	1.482850	-0.443473	0.730664
C177	C	1.029693	-0.183144	0.629838
C178	C	1.529693	0.316856	1.129838
C179	C	0.994331	-0.218469	0.672543
C180	C	1.494331	0.281531	1.172543
H181	H	1.057037	-0.155820	0.652169
H182	H	1.557037	0.344180	1.152169
H183	H	1.002284	-0.159074	0.604181
H184	H	1.502284	0.340926	1.104181
H185	H	1.053749	-0.210582	0.604210
H186	H	1.553749	0.289418	1.104210
H187	H	0.970271	-0.191030	0.698168
H188	H	1.470271	0.308970	1.198168
H189	H	1.021743	-0.242541	0.698210
H190	H	1.521743	0.257459	1.198210
C191	C	0.833647	-0.736004	0.379491
C192	C	1.333647	-0.236004	0.879491
C193	C	0.825122	-0.671365	0.387974
C194	C	1.325122	-0.171365	0.887974
H195	H	0.806318	-0.758326	0.406777
H196	H	1.306318	-0.258326	0.906777
H197	H	0.875936	-0.746722	0.388759
H198	H	1.375936	-0.246722	0.888759
H199	H	0.824457	-0.746804	0.337184
H200	H	1.324457	-0.246804	0.837184
H201	H	0.834316	-0.660565	0.430280
H202	H	1.334316	-0.160565	0.930280
H203	H	0.782823	-0.660644	0.378710
H204	H	1.282823	-0.160644	0.878710
C205	C	0.833724	-0.378866	1.137896
C206	C	1.333724	0.121134	1.637896
C207	C	0.825213	-0.387385	1.073244
C208	C	1.325213	0.112615	1.573244
H209	H	0.806396	-0.406193	1.160179
H210	H	1.306396	0.093807	1.660179
H211	H	0.824529	-0.336576	1.148664
H212	H	1.324529	0.163424	1.648664
H213	H	0.876018	-0.388061	1.148691
H214	H	1.376018	0.111939	1.648691
H215	H	0.782920	-0.378186	1.062448
H216	H	1.282920	0.121814	1.562448
H217	H	0.834403	-0.429684	1.062472
H218	H	1.334403	0.070316	1.562472
C219	C	0.833713	-0.378997	0.737058
C220	C	1.333713	0.121003	1.237058
C221	C	0.825201	-0.387517	0.672406
C222	C	1.325201	0.112483	1.172406
H223	H	0.806382	-0.406321	0.759341
H224	H	1.306382	0.093679	1.259341
H225	H	0.824525	-0.336706	0.747826
H226	H	1.324525	0.163294	1.247826
H227	H	0.876006	-0.388198	0.747853
H228	H	1.376006	0.111802	1.247853
H229	H	0.782909	-0.378311	0.661611
H230	H	1.282909	0.121689	1.161611
H231	H	0.834385	-0.429817	0.661634
H232	H	1.334385	0.070183	1.161634
H233	H	0.149962	-0.376152	0.376580
H234	H	0.649962	0.123848	0.876580
C235	C	0.958718	-0.709110	0.178692
C236	C	1.458718	-0.209110	0.678692
C237	C	0.994210	-0.671257	0.219145
C238	C	1.494210	-0.171257	0.719145
H239	H	0.986048	-0.731397	0.151396
H240	H	1.486048	-0.231397	0.651396
H241	H	0.931292	-0.683501	0.154594
H242	H	1.431292	-0.183501	0.654594
H243	H	0.934752	-0.738112	0.202653
H244	H	1.434752	-0.238112	0.702653
H245	H	1.018173	-0.642252	0.195184
H246	H	1.518173	-0.142252	0.695184
H247	H	1.021648	-0.696869	0.243245
H248	H	1.521648	-0.196869	0.743245
H249	H	0.550779	-0.229940	0.230630
H250	H	1.050779	0.270060	0.730630
C251	C	0.744066	-0.227000	0.227595
C252	C	1.244066	0.273000	0.727595
C253	C	0.679421	-0.218472	0.219133
C254	C	1.179421	0.281528	0.719133
H255	H	0.766369	-0.199641	0.200320
H256	H	1.266369	0.300359	0.700320
H257	H	0.754781	-0.269279	0.218299
H258	H	1.254781	0.230721	0.718299
H259	H	0.754891	-0.217851	0.269906
H260	H	1.254891	0.282149	0.769906
H261	H	0.668595	-0.227625	0.176824
H262	H	1.168595	0.272375	0.676824
H263	H	0.668702	-0.176183	0.228425
H264	H	1.168702	0.323817	0.728425
H265	H	0.982902	-1.062737	0.230695
H266	H	1.482902	-0.562737	0.730695
H267	H	0.836663	-0.376078	0.543782
H268	H	1.336663	0.123922	1.043782
H269	H	0.982852	-0.229795	1.064000
H270	H	1.482852	0.270205	1.564000
C271	C	0.789851	-0.422753	0.977951
C272	C	1.289851	0.077247	1.477951
C273	C	0.825206	-0.387424	0.935244
C274	C	1.325206	0.112576	1.435244
H275	H	0.762517	-0.450087	0.955623
H276	H	1.262517	0.049913	1.455623
H277	H	0.765792	-0.395323	1.003575
H278	H	1.265792	0.104677	1.503575
H279	H	0.817271	-0.446818	1.003612
H280	H	1.317271	0.053182	1.503612
H281	H	0.797787	-0.363355	0.909585
H282	H	1.297787	0.136645	1.409585
H283	H	0.849267	-0.414858	0.909609
H284	H	1.349267	0.085142	1.409609
H285	H	0.550800	-0.376236	0.376431
H286	H	1.050800	0.123764	0.876431
C287	C	0.636702	-0.423129	0.423117
C288	C	1.136702	0.076871	0.923117
C289	C	0.679435	-0.387752	0.387834
C290	C	1.179435	0.112248	0.887834
H291	H	0.659010	-0.450490	0.450383
H292	H	1.159010	0.049510	0.950383
H293	H	0.611009	-0.447162	0.395654
H294	H	1.111009	0.052838	0.895654
H295	H	0.611112	-0.395727	0.447253
H296	H	1.111112	0.104273	0.947253
H297	H	0.705022	-0.415154	0.363694
H298	H	1.205022	0.084846	0.863694
H299	H	0.705138	-0.363717	0.415301
H300	H	1.205138	0.136283	0.915301
H301	H	0.149942	-0.229857	0.230773
H302	H	0.649942	0.270143	0.730773
C303	C	0.235840	-0.183007	0.184014
C304	C	0.735840	0.316993	0.684014
C305	C	0.278579	-0.218401	0.219271
C306	C	0.778579	0.281599	0.719271
H307	H	0.258144	-0.155655	0.156734
H308	H	0.758144	0.344345	0.656734
H309	H	0.210255	-0.158964	0.211493
H310	H	0.710255	0.341036	0.711493
H311	H	0.210143	-0.210400	0.159895
H312	H	0.710143	0.289600	0.659895
H313	H	0.304273	-0.191008	0.243393
H314	H	0.804273	0.308992	0.743393
H315	H	0.304175	-0.242446	0.191788
H316	H	0.804175	0.257554	0.691788
H317	H	0.982696	-0.542633	0.230593
H318	H	1.482696	-0.042633	0.730593
C319	C	0.789736	-0.576117	0.423254
C320	C	1.289736	-0.076117	0.923254
C321	C	0.825074	-0.533361	0.387955
C322	C	1.325074	-0.033361	0.887955
H323	H	0.762392	-0.553826	0.450532
H324	H	1.262392	-0.053826	0.950532
H325	H	0.817161	-0.601709	0.447372
H326	H	1.317161	-0.101709	0.947372
H327	H	0.765682	-0.601805	0.395797
H328	H	1.265682	-0.101805	0.895797
H329	H	0.849132	-0.507676	0.415413
H330	H	1.349132	-0.007676	0.915413
H331	H	0.797646	-0.507758	0.363835
H332	H	1.297646	-0.007758	0.863835
H333	H	0.836752	-1.062833	0.376591
H334	H	1.336752	-0.562833	0.876591
