data_functionalizedCrystal
_audit_creation_method	'MofGen! by Chris Wilmer'
_symmetry_space_group_name_H-M	'P1'
_symmetry_Int_Tables_number	1
_symmetry_cell_setting	triclinic
loop_
_symmetry_equiv_pos_as_xyz
  x,y,z
_cell_length_a	11.792254
_cell_length_b	11.792241
_cell_length_c	11.892095
_cell_angle_alpha	93.915739
_cell_angle_beta	86.074116
_cell_angle_gamma	84.196007
loop_
_atom_site_label
_atom_site_type_symbol
_atom_site_fract_x
_atom_site_fract_y
_atom_site_fract_z
O1	O	1.514113	0.148425	-0.094003
O2	O	1.847446	0.481758	0.239331
O3	O	2.180779	0.815092	0.572664
O4	O	1.183774	0.164443	-0.094005
O5	O	1.517107	0.497776	0.239328
O6	O	1.850440	0.831110	0.572661
O7	O	1.356959	-0.008736	-0.093996
O8	O	1.690292	0.324598	0.239337
O9	O	2.023626	0.657931	0.572671
O10	O	1.340927	0.321604	-0.094012
O11	O	1.674261	0.654937	0.239321
O12	O	2.007594	0.988270	0.572655
O13	O	1.342519	0.005681	0.094011
O14	O	1.675852	0.339015	0.427344
O15	O	2.009186	0.672348	0.760677
O16	O	1.169334	0.178860	0.094001
O17	O	1.502667	0.512193	0.427335
O18	O	1.836000	0.845526	0.760668
O19	O	1.499673	0.162842	0.094004
O20	O	1.833006	0.496175	0.427337
O21	O	2.166339	0.829509	0.760671
Zn22	Zn	1.332210	0.173140	0.123853
Zn23	Zn	1.665544	0.506473	0.457186
Zn24	Zn	1.998877	0.839807	0.790519
Zn25	Zn	1.351236	0.154145	-0.123854
Zn26	Zn	1.684569	0.487478	0.209479
Zn27	Zn	2.017902	0.820812	0.542812
O28	O	1.326487	0.336020	0.093995
O29	O	1.659821	0.669354	0.427328
O30	O	1.993154	1.002687	0.760661
C31	C	1.134263	0.170642	-0.000002
C32	C	1.467596	0.503976	0.333331
C33	C	1.800930	0.837309	0.666664
C34	C	1.008250	0.167622	-0.000003
C35	C	1.341583	0.500955	0.333330
C36	C	1.674917	0.834289	0.666664
C37	C	0.905914	0.165168	-0.000008
C38	C	1.239247	0.498501	0.333326
C39	C	1.572580	0.831835	0.666659
C40	C	0.777527	0.162099	-0.000008
C41	C	1.110861	0.495433	0.333325
C42	C	1.444194	0.828766	0.666658
C43	C	1.348732	-0.043818	0.000007
C44	C	1.682065	0.289515	0.333340
C45	C	2.015399	0.622849	0.666674
C46	C	1.345718	-0.169832	0.000006
C47	C	1.679051	0.163501	0.333339
C48	C	2.012384	0.496835	0.666672
C49	C	1.340176	-0.400546	-0.000013
C50	C	1.673509	-0.067213	0.333320
C51	C	2.006843	0.266121	0.666654
C52	C	1.343255	-0.272160	-0.000003
C53	C	1.676588	0.061174	0.333330
C54	C	2.009922	0.394507	0.666664
C55	C	1.549183	0.156642	-0.000002
C56	C	1.882517	0.489976	0.333332
C57	C	2.215850	0.823309	0.666665
C58	C	1.675197	0.159662	-0.000008
C59	C	2.008530	0.492995	0.333325
C60	C	2.341864	0.826329	0.666658
C61	C	1.334715	0.371103	-0.000011
C62	C	1.668048	0.704436	0.333323
C63	C	2.001381	1.037770	0.666656
C64	C	1.337729	0.497116	-0.000017
C65	C	1.671063	0.830450	0.333316
C66	C	2.004396	1.163783	0.666650
N67	N	1.319234	0.186103	0.292906
N68	N	1.652568	0.519436	0.626239
N69	N	1.985901	0.852769	0.959573
N70	N	1.364221	0.141173	-0.292908
N71	N	1.697554	0.474507	0.040426
N72	N	2.030887	0.807840	0.373759
C73	C	1.454513	0.050907	0.529561
C74	C	1.787847	0.384240	0.862895
C75	C	2.121180	0.717573	1.196228
C76	C	1.445451	0.059976	0.647903
C77	C	1.778785	0.393309	0.981236
C78	C	2.112118	0.726642	1.314569
C79	C	1.292044	0.213304	0.647932
C80	C	1.625378	0.546638	0.981266
C81	C	1.958711	0.879971	1.314599
C82	C	1.301106	0.204235	0.529591
C83	C	1.634439	0.537568	0.862924
C84	C	1.967773	0.870902	1.196258
C85	C	1.382344	0.123035	0.470410
C86	C	1.715678	0.456368	0.803743
C87	C	2.049011	0.789701	1.137076
C88	C	1.391411	0.113972	0.352066
C89	C	1.724744	0.447305	0.685399
C90	C	2.058078	0.780638	1.018733
C91	C	1.237999	0.267294	0.352098
C92	C	1.571332	0.600627	0.685431
C93	C	1.904666	0.933961	1.018765
C94	C	1.228937	0.276363	0.470439
C95	C	1.562271	0.609697	0.803773
C96	C	1.895604	0.943030	1.137106
H97	H	1.457562	0.047857	0.303882
H98	H	1.790895	0.381191	0.637215
H99	H	2.124229	0.714524	0.970548
Br100	Br	1.564777	-0.059276	0.449241
Br101	Br	1.898111	0.274058	0.782574
Br102	Br	2.231444	0.607391	1.115907
Br103	Br	1.543393	-0.037922	0.728178
Br104	Br	1.876727	0.295411	1.061511
Br105	Br	2.210060	0.628745	1.394845
Br106	Br	1.181783	0.323484	0.728261
Br107	Br	1.515116	0.656817	1.061594
Br108	Br	1.848450	0.990150	1.394928
H109	H	1.162791	0.342472	0.518639
H110	H	1.496125	0.675806	0.851972
H111	H	1.829458	1.009139	1.185305
Br112	Br	1.140062	0.365197	0.271811
Br113	Br	1.473395	0.698530	0.605144
Br114	Br	1.806729	1.031863	0.938477
