data_functionalizedCrystal
_audit_creation_method	'MofGen! by Chris Wilmer'
_symmetry_space_group_name_H-M	'P1'
_symmetry_Int_Tables_number	1
_symmetry_cell_setting	triclinic
loop_
_symmetry_equiv_pos_as_xyz
  x,y,z
_cell_length_a	29.839134
_cell_length_b	29.839131
_cell_length_c	17.640968
_cell_angle_alpha	78.759880
_cell_angle_beta	78.771457
_cell_angle_gamma	90.015800
loop_
_atom_site_label
_atom_site_type_symbol
_atom_site_fract_x
_atom_site_fract_y
_atom_site_fract_z
Zn1	Zn	0.738147	-0.127747	-0.446907
Zn2	Zn	0.722879	-0.218066	-0.314692
Zn3	Zn	0.647826	-0.142921	-0.314731
Zn4	Zn	0.662978	-0.202833	-0.446839
O5	O	0.692957	-0.172892	-0.380792
O6	O	0.798990	-0.139753	-0.429381
O7	O	0.700191	-0.220823	-0.204076
O8	O	0.659856	-0.078036	-0.332310
O9	O	0.787772	-0.206110	-0.332242
O10	O	0.726215	-0.066887	-0.429419
O11	O	0.645050	-0.165614	-0.204105
O12	O	0.586967	-0.150844	-0.332244
O13	O	0.685681	-0.180147	-0.557469
O14	O	0.598100	-0.194861	-0.429303
O15	O	0.740907	-0.124982	-0.557519
O16	O	0.714884	-0.278918	-0.332176
O17	O	0.670875	-0.267726	-0.429264
C18	C	0.576232	-0.172846	-0.380770
C19	C	0.526299	-0.172835	-0.380780
C20	C	0.175562	-0.138388	-0.431472
C21	C	0.363233	-0.138354	-0.431454
O22	O	0.392471	-0.109009	-0.474550
N23	N	0.380856	-0.172862	-0.380798
C24	C	0.351559	-0.207384	-0.330148
O25	O	0.370855	-0.236737	-0.287068
C26	C	0.163889	-0.207419	-0.330171
C27	C	0.146268	-0.172906	-0.380823
C28	C	0.157940	-0.103878	-0.482121
C29	C	0.111025	-0.103885	-0.482122
C30	C	0.081731	-0.138403	-0.431474
C31	C	0.099353	-0.172913	-0.380824
C32	C	0.134593	-0.241942	-0.279525
C33	C	0.087673	-0.241948	-0.279536
C34	C	0.070052	-0.207435	-0.330189
C35	C	0.023143	-0.207438	-0.330177
N36	N	0.005520	-0.172930	-0.380832
C37	C	0.034814	-0.138412	-0.431481
C38	C	0.450088	-0.207362	-0.330138
C39	C	0.497005	-0.207353	-0.330131
C40	C	0.508676	-0.138323	-0.431438
C41	C	0.461758	-0.138331	-0.431441
C42	C	0.432465	-0.172853	-0.380793
C43	C	-0.063712	-0.138430	-0.431478
C44	C	-0.110632	-0.138440	-0.431473
C45	C	-0.122299	-0.207470	-0.330169
C46	C	-0.075383	-0.207459	-0.330171
C47	C	-0.046090	-0.172937	-0.380833
O48	O	-0.006120	-0.236771	-0.287109
O49	O	0.015510	-0.109069	-0.474567
C50	C	0.222477	-0.138380	-0.431471
C51	C	0.240099	-0.172891	-0.380821
C52	C	0.210805	-0.207408	-0.330173
C53	C	0.287016	-0.172881	-0.380815
C54	C	0.316309	-0.138364	-0.431463
C55	C	0.298686	-0.103855	-0.482118
C56	C	0.251771	-0.103863	-0.482119
C57	C	0.228428	-0.241917	-0.279518
C58	C	0.275344	-0.241906	-0.279520
C59	C	0.304638	-0.207389	-0.330169
C60	C	0.692881	-0.289622	-0.380726
C61	C	0.692893	-0.339557	-0.380724
C62	C	0.727512	-0.643344	-0.431429
C63	C	0.727567	-0.831011	-0.431477
O64	O	0.756929	-0.850303	-0.474539
N65	N	0.693044	-0.860324	-0.380880
C66	C	0.658503	-0.842716	-0.330272
O67	O	0.629138	-0.871953	-0.287243
C68	C	0.658448	-0.655049	-0.330229
C69	C	0.692975	-0.625739	-0.380823
C70	C	0.762037	-0.614035	-0.482020
C71	C	0.762025	-0.567121	-0.482005
C72	C	0.727487	-0.549517	-0.431398
C73	C	0.692963	-0.578826	-0.380808
C74	C	0.623905	-0.637441	-0.279625
C75	C	0.623894	-0.590521	-0.279620
C76	C	0.658422	-0.561211	-0.330214
C77	C	0.658413	-0.514307	-0.330186
N78	N	0.692936	-0.484995	-0.380783
C79	C	0.727473	-0.502600	-0.431389
C80	C	0.658535	-0.941244	-0.330297
C81	C	0.658550	-0.988160	-0.330306
C82	C	0.727613	-0.976453	-0.431513
C83	C	0.727600	-0.929535	-0.431498
C84	C	0.693058	-0.911932	-0.380893
C85	C	0.727445	-0.404078	-0.431352
C86	C	0.727430	-0.357161	-0.431330
C87	C	0.658366	-0.368873	-0.330127
C88	C	0.658381	-0.415786	-0.330146
C89	C	0.692923	-0.433387	-0.380765
O90	O	0.629063	-0.494983	-0.287152
O91	O	0.756828	-0.473354	-0.474423
C92	C	0.727525	-0.690258	-0.431445
C93	C	0.693000	-0.719567	-0.380854
C94	C	0.658463	-0.701962	-0.330248
C95	C	0.693015	-0.766483	-0.380863
C96	C	0.727552	-0.784088	-0.431470
C97	C	0.762075	-0.754776	-0.482066
C98	C	0.762062	-0.707862	-0.482051
C99	C	0.623940	-0.731274	-0.279651
C100	C	0.623956	-0.778187	-0.279670
C101	C	0.658493	-0.795792	-0.330276
C102	C	0.810138	-0.172938	-0.380815
C103	C	0.860074	-0.172957	-0.380824
C104	C	0.716687	-0.149172	-0.586978
C105	C	0.726800	-0.139065	-0.674843
C106	C	0.693048	-0.055704	-0.380877
C107	C	0.693087	-0.005765	-0.380912
C108	C	0.616308	-0.249434	-0.963686
C109	C	0.625819	-0.239931	-1.046248
C110	C	0.683322	-0.182492	-1.046290
C111	C	0.673813	-0.191989	-0.963726
C112	C	0.640306	-0.225461	-0.922431
C113	C	0.697812	-0.168016	-0.922471
C114	C	0.688306	-0.177514	-0.839915
C115	C	0.654801	-0.210985	-0.798614
C116	C	0.630800	-0.234959	-0.839875
C117	C	0.731321	-0.134546	-0.963768
C118	C	0.755320	-0.110573	-0.922513
C119	C	0.745812	-0.120069	-0.839955
C120	C	0.712307	-0.153540	-0.798654
C121	C	0.769813	-0.096095	-0.798694
C122	C	0.760307	-0.105593	-0.716138
C123	C	0.702801	-0.163038	-0.716098
C124	C	0.669346	-0.196486	-0.175408
C125	C	0.659320	-0.206467	-0.087545
H126	H	0.181787	-0.075768	-0.523369
H127	H	0.589012	-0.276680	-0.930061
H128	H	0.755569	-0.418402	-0.472576
Cl129	Cl	0.725444	-0.140416	-1.098211
Cl130	Cl	0.580516	-0.709150	-0.216028
Cl131	Cl	0.580495	-0.674276	-0.216019
Cl132	Cl	0.805430	-0.530281	-0.545619
H133	H	0.426241	-0.235475	-0.288892
Cl134	Cl	0.743273	-0.122607	-1.067554
H135	H	0.790162	-0.628362	-0.523234
H136	H	0.790197	-0.769118	-0.523269
H137	H	0.675506	-0.190283	-0.682473
Cl138	Cl	0.790478	-0.075456	-0.664270
Cl139	Cl	-0.053229	-0.250851	-0.266498
Cl140	Cl	0.797443	-0.068497	-0.974434
H141	H	0.603505	-0.262204	-0.806250
Cl142	Cl	0.642852	-0.222929	-0.694827
H143	H	0.755715	-0.905674	-0.472697
Cl144	Cl	0.580546	-0.815029	-0.216056
Cl145	Cl	0.595644	-0.270071	-1.098109
Cl146	Cl	0.335521	-0.060461	-0.545788
Cl147	Cl	0.805470	-0.671022	-0.545660
Cl148	Cl	0.050851	-0.285352	-0.215866
Cl149	Cl	-0.132781	-0.095048	-0.495155
Cl150	Cl	-0.026894	-0.095029	-0.495166
H151	H	0.797097	-0.068845	-0.832329
Cl152	Cl	0.439611	-0.094942	-0.495122
Cl153	Cl	0.088881	-0.060498	-0.545811
Cl154	Cl	0.771030	-0.998593	-0.495132
H155	H	0.755548	-0.333298	-0.472530
H156	H	0.630437	-1.012022	-0.289099
Cl157	Cl	0.615106	-0.919120	-0.266674
H158	H	0.532535	-0.110217	-0.472676
H159	H	0.630247	-0.354532	-0.288921
H160	H	0.511347	-0.235453	-0.288876
H161	H	0.148932	-0.270046	-0.238278
H162	H	0.630269	-0.439652	-0.288941
Cl163	Cl	0.229626	-0.060473	-0.545803
Cl164	Cl	0.297489	-0.285296	-0.215828
Cl165	Cl	-0.159134	-0.250861	-0.266499
H166	H	0.595765	-0.576191	-0.238412
Cl167	Cl	0.191607	-0.285311	-0.215829
