data_functionalizedCrystal
_audit_creation_method	'MofGen! by Chris Wilmer'
_symmetry_space_group_name_H-M	'P1'
_symmetry_Int_Tables_number	1
_symmetry_cell_setting	triclinic
loop_
_symmetry_equiv_pos_as_xyz
  x,y,z
_cell_length_a	14.044220
_cell_length_b	14.853567
_cell_length_c	13.930277
_cell_angle_alpha	89.999243
_cell_angle_beta	89.997723
_cell_angle_gamma	88.411904
loop_
_atom_site_label
_atom_site_type_symbol
_atom_site_fract_x
_atom_site_fract_y
_atom_site_fract_z
O1	O	1.257997	0.217372	-0.079714
O2	O	0.982017	0.209528	-0.079738
O3	O	1.127379	0.082805	-0.079728
O4	O	1.112635	0.344096	-0.079724
O5	O	1.127359	0.082800	0.079934
O6	O	0.981997	0.209524	0.079923
O7	O	1.257976	0.217368	0.079948
Zn8	Zn	1.119983	0.213445	0.105286
Zn9	Zn	1.120010	0.213451	-0.105076
O10	O	1.112615	0.344091	0.079938
C11	C	1.126701	0.049161	0.000100
C12	C	1.124699	-0.051082	0.000091
C13	C	0.946688	0.206092	0.000089
C14	C	0.841449	0.195851	0.000079
C15	C	1.029888	-0.471127	0.000101
C16	C	1.202581	-0.478726	0.000116
C17	C	1.204464	-0.384543	0.000111
C18	C	1.119057	-0.333648	0.000102
C19	C	1.031768	-0.376935	0.000098
C20	C	1.291751	-0.341248	0.000124
C21	C	1.293637	-0.247060	0.000120
C22	C	1.208229	-0.196163	0.000104
C23	C	1.120937	-0.239456	0.000099
C24	C	1.035530	-0.188561	0.000090
C25	C	0.948237	-0.231852	0.000079
C26	C	0.946360	-0.326038	0.000083
C27	C	1.210105	-0.101977	0.000100
C28	C	1.037410	-0.094369	0.000088
C29	C	0.648763	0.177127	0.000098
C30	C	0.591225	0.249765	0.000103
C31	C	0.484008	0.239347	0.000114
C32	C	0.755990	0.187544	0.000088
C33	C	1.293306	0.220803	0.000118
C34	C	1.398545	0.231045	0.000122
C35	C	1.113293	0.377735	0.000108
C36	C	1.115295	0.477978	0.000110
N37	N	1.119972	0.213441	0.248852
N38	N	1.120029	0.213449	-0.248642
C39	C	1.055641	0.269540	0.701116
C40	C	1.184405	0.157357	0.701095
C41	C	1.184394	0.157353	0.600599
C42	C	1.120006	0.213445	0.550357
C43	C	1.055630	0.269540	0.600611
C44	C	1.248775	0.101266	0.550338
C45	C	1.248767	0.101260	0.449836
C46	C	1.184374	0.157348	0.399592
C47	C	1.119995	0.213445	0.449852
C48	C	1.055608	0.269536	0.399611
C49	C	0.991223	0.325629	0.449869
C50	C	0.991237	0.325627	0.550368
C51	C	1.184360	0.157349	0.299093
C52	C	1.055596	0.269536	0.299106
H53	H	0.967860	-0.052936	0.000076
H54	H	0.617501	0.107120	0.000102
C55	C	0.633458	0.344350	0.000088
N56	N	0.665273	0.415588	0.000070
C57	C	0.984815	0.331232	0.756401
N58	N	0.931467	0.377698	0.798042
H59	H	0.938819	0.371297	0.591294
H60	H	1.003160	0.315209	0.258205
C61	C	0.920400	0.387328	0.394590
N62	N	0.867057	0.433798	0.352950
C63	C	1.385691	-0.397238	0.000141
N64	N	1.456451	-0.439414	0.000152
C65	C	1.255227	0.095660	0.756364
N66	N	1.308571	0.049186	0.797997
H67	H	1.301202	0.055602	0.591248
H68	H	1.301191	0.055586	0.408921
C69	C	0.850346	-0.373666	0.000090
N70	N	0.778029	-0.409543	0.000104
C71	C	0.933870	-0.518748	0.000097
N72	N	0.861548	-0.554617	0.000099
C73	C	1.255179	0.095652	0.243814
N74	N	1.308522	0.049176	0.202178
H75	H	0.878699	-0.190401	0.000078
C76	C	1.296523	-0.534714	0.000131
N77	N	1.367284	-0.576888	0.000141
C78	C	1.389660	-0.199448	0.000125
N79	N	1.461986	-0.163586	0.000125
H80	H	1.281178	-0.066733	0.000116
