data_functionalizedCrystal
_audit_creation_method	'MofGen! by Chris Wilmer'
_symmetry_space_group_name_H-M	'P1'
_symmetry_Int_Tables_number	1
_symmetry_cell_setting	triclinic
loop_
_symmetry_equiv_pos_as_xyz
  x,y,z
_cell_length_a	19.902436
_cell_length_b	18.760490
_cell_length_c	18.760492
_cell_angle_alpha	90.018825
_cell_angle_beta	60.001702
_cell_angle_gamma	60.019275
loop_
_atom_site_label
_atom_site_type_symbol
_atom_site_fract_x
_atom_site_fract_y
_atom_site_fract_z
Zr1	Zr	0.735755	0.686464	-0.093447
O2	O	0.875894	0.572654	-0.207275
O3	O	0.595588	0.721362	-0.058555
O4	O	0.735773	0.721345	-0.207261
O5	O	0.735706	0.572675	0.058736
O6	O	0.735818	0.838623	-0.207247
O7	O	0.735710	0.572672	-0.058568
O8	O	0.485053	0.838655	0.058761
O9	O	0.986471	0.572643	-0.207272
O10	O	0.653285	0.823758	-0.043661
O11	O	0.653248	0.736236	0.043873
O12	O	0.818298	0.736216	-0.131210
O13	O	0.818261	0.648694	-0.043677
Zr14	Zr	0.735822	0.873514	0.093663
Zr15	Zr	0.735828	0.873509	-0.093425
Zr16	Zr	0.735749	0.686468	0.093641
Zr17	Zr	0.912112	0.686446	-0.093442
Zr18	Zr	0.559465	0.873532	0.093658
O19	O	0.875989	0.838615	0.058771
O20	O	0.875998	0.838609	-0.207244
O21	O	0.875885	0.572660	0.058740
O22	O	0.595682	0.987324	0.207491
O23	O	0.595691	0.987317	-0.058524
O24	O	0.595579	0.721369	0.207460
O25	O	0.735871	0.987303	-0.058520
O26	O	0.735804	0.838633	0.207477
O27	O	0.735759	0.721354	0.207463
O28	O	0.735867	0.987306	0.058784
O29	O	0.986529	0.721319	-0.207255
O30	O	0.485048	0.838658	0.207471
O31	O	0.485106	0.987335	0.207488
O32	O	0.485111	0.987331	0.058778
O33	O	0.986466	0.572646	-0.058562
O34	O	0.986524	0.721323	-0.058545
O35	O	0.653279	0.823762	0.131426
O36	O	0.653316	0.911284	0.043893
O37	O	0.818329	0.823741	-0.043657
O38	O	0.818292	0.736220	0.043877
C39	C	0.515193	0.780011	0.000103
C40	C	0.440326	0.780019	0.000101
C41	C	0.735697	0.546023	0.000081
C42	C	0.735666	0.466617	0.000072
C43	C	0.735888	0.130628	-0.064490
C44	C	0.735883	0.130747	0.064764
C45	C	0.735836	0.205394	0.064750
C46	C	0.735813	0.242661	0.000115
C47	C	0.735838	0.205283	-0.064505
C48	C	0.735802	0.242783	0.129374
C49	C	0.735754	0.317434	0.129363
C50	C	0.735738	0.354700	0.064724
C51	C	0.735763	0.317316	0.000101
C52	C	0.735741	0.354584	-0.064534
C53	C	0.735773	0.317198	-0.129162
C54	C	0.735822	0.242549	-0.129144
C55	C	0.735689	0.429349	0.064706
C56	C	0.735691	0.429239	-0.064549
C57	C	0.168314	0.779979	0.000111
C58	C	0.197077	0.834925	-0.055371
C59	C	0.274691	0.835232	-0.055133
C60	C	0.303263	0.779999	0.000105
C61	C	0.211194	0.820271	0.095232
C62	C	0.133250	0.820676	0.094931
C63	C	0.260212	0.684736	-0.038768
C64	C	0.338950	0.684884	-0.040696
C65	C	0.379527	0.780009	0.000107
C66	C	0.092045	0.779972	0.000115
C67	C	0.956383	0.779967	0.000113
C68	C	1.031251	0.779959	0.000115
C69	C	0.735796	0.779983	-0.233910
C70	C	0.735799	0.779981	-0.313334
C71	C	0.735880	1.013954	0.000135
C72	C	0.735911	1.093360	0.000144
C73	C	0.735777	0.715367	-0.350656
C74	C	0.735816	0.844598	-0.350637
C75	C	0.735813	0.844602	-0.425257
C76	C	0.735791	0.779987	-0.462579
C77	C	0.735771	0.715370	-0.425281
C78	C	0.735824	0.909223	-0.462556
C79	C	0.735820	0.909230	-0.537180
C80	C	0.735804	0.844611	-0.574507
C81	C	0.735786	0.779990	-0.537205
C82	C	0.735763	0.715376	-0.574527
C83	C	0.735751	0.650751	-0.537230
C84	C	0.735756	0.650751	-0.462608
C85	C	0.735800	0.844611	-0.649128
C86	C	0.735758	0.715379	-0.649152
C87	C	0.735781	0.779994	0.234126
C88	C	0.735778	0.779996	0.313550
C89	C	0.515285	1.013977	0.000130
C90	C	0.440448	1.093390	0.000137
C91	C	0.515186	0.780017	0.234121
C92	C	0.440315	0.780026	0.313543
C93	C	0.515277	1.013982	0.234148
C94	C	0.440437	1.093398	0.313579
C95	C	0.956300	0.545995	-0.233932
C96	C	1.031140	0.466580	-0.313363
C97	C	0.956292	0.546001	0.000086
C98	C	1.031129	0.466588	0.000079
C99	C	0.956391	0.779961	-0.233905
C100	C	1.031262	0.779952	-0.313327
C101	C	0.405287	1.084996	-0.045569
C102	C	0.334980	1.159606	-0.045580
C103	C	0.299829	1.242610	0.000122
C104	C	0.334997	1.251002	0.045830
C105	C	0.405308	1.176393	0.045834
C106	C	0.405171	0.825718	0.396550
C107	C	0.334832	0.825724	0.471182
C108	C	0.299633	0.780042	0.462806
C109	C	0.334784	0.734344	0.379790
C110	C	0.405127	0.734334	0.305159
C111	C	0.405311	1.176385	0.305189
C112	C	0.335001	1.251011	0.379816
C113	C	0.299814	1.242648	0.462832
C114	C	0.334947	1.159652	0.471220
C115	C	0.405260	1.085028	0.396594
C116	C	1.066274	0.383593	-0.304973
C117	C	1.136606	0.308966	-0.379600
C118	C	1.171797	0.317330	-0.462616
C119	C	1.136660	0.400326	-0.471004
C120	C	1.066334	0.474950	-0.396378
C121	C	1.066297	0.474982	0.045777
C122	C	1.136624	0.400372	0.045767
C123	C	1.171777	0.317368	0.000063
C124	C	1.136606	0.308976	-0.045641
C125	C	1.066285	0.383585	-0.045635
C126	C	1.066438	0.825642	-0.304922
C127	C	1.136778	0.825650	-0.379540
C128	C	1.171945	0.779962	-0.462562
C129	C	1.136761	0.734270	-0.470965
C130	C	1.066418	0.734268	-0.396348
H131	H	0.735677	0.459575	-0.117185
H132	H	1.165203	0.241395	-0.372753
N133	N	0.735645	0.910705	-0.312425
N134	N	0.735532	0.968463	-0.345668
H135	H	0.735337	1.015194	-0.318639
H136	H	0.306287	1.152855	0.538821
N137	N	1.243621	0.241088	-0.538830
N138	N	1.227880	0.187393	-0.551723
H139	H	1.278603	0.133543	-0.605546
N140	N	1.030426	0.559718	-0.404957
N141	N	0.944087	0.611541	-0.373526
H142	H	0.918728	0.671408	-0.379591
H143	H	0.242577	1.303354	0.000111
N144	N	0.735918	0.092659	0.130767
N145	N	0.802555	0.015715	0.109843
H146	H	0.802583	-0.011193	0.156457
H147	H	1.037681	0.542561	0.083001
H148	H	0.735835	0.961834	-0.432162
N149	N	0.356046	0.801401	-0.142994
N150	N	0.384375	0.847722	-0.172989
H151	H	0.441834	0.823844	-0.235040
N152	N	1.172625	0.408845	-0.555812
N153	N	1.235413	0.342203	-0.622427
H154	H	1.260814	0.348216	-0.682326
N155	N	1.172698	0.872335	-0.370943
N156	N	1.117752	0.952894	-0.331984
H157	H	1.143118	0.985866	-0.325910
N158	N	0.735724	0.355288	-0.195167
N159	N	0.669078	0.432228	-0.174238
H160	H	0.669039	0.459136	-0.220849
H161	H	0.433906	1.017417	-0.082795
H162	H	0.306355	1.152756	-0.082800
N163	N	0.735864	0.204344	-0.195153
N164	N	0.735910	0.137692	-0.195129
H165	H	0.735941	0.110706	-0.241747
N166	N	1.172651	0.687664	-0.555782
N167	N	1.117678	0.707093	-0.578034
H168	H	1.143019	0.674198	-0.637943
N169	N	0.368192	0.629197	0.004721
N170	N	0.433971	0.616781	0.008544
H171	H	0.454619	0.577456	0.040627
N172	N	0.441230	1.184957	0.220404
N173	N	0.409850	1.259067	0.212941
H174	H	0.435215	1.265128	0.153063
H175	H	0.306403	1.318583	0.372971
H176	H	1.165248	0.407222	0.082988
H177	H	1.229037	0.256623	0.000066
H178	H	1.165238	0.241384	-0.082852
H179	H	0.735745	0.598136	-0.432236
N180	N	0.735815	0.975242	-0.575276
N181	N	0.735795	0.975246	-0.641893
H182	H	0.735781	1.021872	-0.668796
N183	N	0.227991	1.318889	0.539047
N184	N	0.196640	1.392977	0.531534
H185	H	0.145912	1.446826	0.585358
N186	N	0.441125	1.000266	0.405187
N187	N	0.409691	0.992821	0.479317
H188	H	0.435018	0.932959	0.485393
N189	N	0.441139	0.872367	0.405104
N190	N	0.503949	0.872355	0.338473
H191	H	0.529354	0.905299	0.344520
N192	N	1.030375	0.374988	-0.092321
N193	N	1.061775	0.300868	-0.133121
H194	H	1.036418	0.294789	-0.166096
N195	N	0.735932	0.092428	-0.130503
N196	N	0.735985	0.025771	-0.130490
H197	H	0.736018	-0.001210	-0.177113
N198	N	1.030536	0.872320	-0.220130
N199	N	1.061958	0.913114	-0.212654
H200	H	1.036603	0.946087	-0.152772
N201	N	1.030338	0.375052	-0.220175
N202	N	0.967551	0.441677	-0.153542
H203	H	0.942177	0.435641	-0.093654
H204	H	0.735814	0.212441	0.182002
H205	H	0.735804	0.897231	-0.679488
N206	N	0.735658	0.467542	0.130709
N207	N	0.802231	0.473921	0.109793
H208	H	0.802206	0.500899	0.156411
N209	N	0.227780	0.780047	0.539034
N210	N	0.243450	0.709691	0.551945
H211	H	0.192701	0.709698	0.605783
N212	N	0.421333	0.647129	-0.128618
N213	N	0.420302	0.622908	-0.189927
H214	H	0.478486	0.596247	-0.252024
N215	N	1.243788	0.779982	-0.538776
N216	N	1.228093	0.850353	-0.551658
H217	H	1.278832	0.850371	-0.605481
H218	H	1.037785	0.697057	-0.403203
H219	H	0.433731	0.697129	0.237574
H220	H	0.735729	0.347869	0.181986
N221	N	0.176084	0.907366	0.134566
N222	N	0.102781	0.950898	0.210783
H223	H	0.077983	1.012411	0.238560
N224	N	0.230993	0.801196	-0.143475
N225	N	0.234358	0.736272	-0.166406
H226	H	0.258315	0.712444	-0.228634
H227	H	0.735771	0.662748	-0.320289
H228	H	0.132020	0.904766	-0.028639
N229	N	0.735723	0.649375	-0.687256
N230	N	0.669103	0.641443	-0.643579
H231	H	0.669077	0.594828	-0.670488
N232	N	0.050653	0.908604	0.133963
N233	N	0.055420	0.965351	0.101239
H234	H	-0.002910	1.027454	0.128804
N235	N	0.299074	1.335797	0.092507
N236	N	0.236292	1.402398	0.092494
H237	H	0.210914	1.462288	0.125465
H238	H	0.227327	0.782177	0.138365
N239	N	0.240599	0.923372	-0.021299
N240	N	0.159339	0.984851	0.002220
H241	H	0.135256	1.047104	0.026120
H242	H	0.433926	1.183240	0.083059
H243	H	0.111491	0.783241	0.138516
N244	N	0.298947	0.872409	0.555967
N245	N	0.330379	0.913199	0.563426
H246	H	0.305037	0.946172	0.623303
H247	H	0.288905	0.651087	-0.107748
H248	H	0.735727	0.598144	-0.567623
N249	N	0.237631	0.633135	0.011689
N250	N	0.203887	0.655072	0.091092
H251	H	0.187933	0.618635	0.126732
N252	N	0.298831	0.687676	0.371242
N253	N	0.306657	0.627524	0.402688
H254	H	0.281259	0.594568	0.396654
