data_functionalizedCrystal
_audit_creation_method	'MofGen! by Chris Wilmer'
_symmetry_space_group_name_H-M	'P1'
_symmetry_Int_Tables_number	1
_symmetry_cell_setting	triclinic
loop_
_symmetry_equiv_pos_as_xyz
  x,y,z
_cell_length_a	10.540535
_cell_length_b	9.016244
_cell_length_c	11.026607
_cell_angle_alpha	90.000600
_cell_angle_beta	83.445171
_cell_angle_gamma	90.004976
loop_
_atom_site_label
_atom_site_type_symbol
_atom_site_fract_x
_atom_site_fract_y
_atom_site_fract_z
O1	O	1.723423	0.123253	-0.171323
O2	O	1.357547	0.123273	-0.187474
O3	O	1.510161	0.123259	-0.002483
O4	O	1.570808	0.123267	-0.356314
O5	O	1.510134	-0.123421	-0.002487
O6	O	1.357519	-0.123408	-0.187478
O7	O	1.723395	-0.123428	-0.171327
Cu8	Cu	1.540455	-0.145942	-0.179403
Cu9	Cu	1.540487	0.145787	-0.179398
O10	O	1.570781	-0.123414	-0.356318
C11	C	1.309965	-0.000065	-0.186266
C12	C	1.168224	-0.000057	-0.182645
C13	C	1.101968	-0.000066	-0.047580
C14	C	0.954533	-0.000640	-0.043770
C15	C	0.972377	-0.140666	-0.244303
C16	C	1.119772	-0.140769	-0.247177
C17	C	1.120117	0.139763	-0.249137
C18	C	0.972403	0.141596	-0.242891
N19	N	1.540441	-0.351128	-0.179405
C20	C	1.458412	-0.586153	-0.278031
C21	C	1.458723	-0.414262	-0.278401
C22	C	1.679486	-0.413473	-0.208266
C23	C	1.679073	-0.585418	-0.208964
C24	C	1.484672	-0.585672	-0.051596
C25	C	1.481808	-0.413718	-0.052424
C26	C	1.770977	-0.000087	-0.172535
C27	C	1.912718	-0.000085	-0.176155
C28	C	1.498959	-0.000079	0.042823
C29	C	1.465607	-0.000072	0.177825
N30	N	1.540509	0.350973	-0.179386
C31	C	1.581983	-0.000073	-0.401623
C32	C	1.615335	-0.000070	-0.536626
C33	C	1.557699	-0.000075	0.250834
C34	C	1.523230	-0.000067	0.390367
H35	H	1.149851	-0.246261	-0.201157
H36	H	1.164490	-0.146774	-0.346191
H37	H	0.932950	0.245600	-0.193297
H38	H	1.418861	-0.000052	0.431155
C39	C	1.179503	0.141621	-0.383377
H40	H	1.233359	0.057651	-0.398875
H41	H	1.113536	0.138747	-0.435266
H42	H	1.228283	0.229602	-0.398793
C43	C	1.565069	-0.640607	0.047600
H44	H	1.530871	-0.601953	0.124608
H45	H	1.563199	-0.745895	0.050383
H46	H	1.650744	-0.607842	0.029007
C47	C	1.320364	-0.357314	-0.254966
H48	H	1.263460	-0.439266	-0.245139
H49	H	1.310877	-0.298577	-0.182982
H50	H	1.301388	-0.298987	-0.322345
C51	C	1.756330	-0.000092	0.408285
H52	H	1.761004	-0.000108	0.321731
H53	H	1.797502	0.085924	0.434559
H54	H	1.797461	-0.086133	0.434566
C55	C	0.916797	-0.282555	-0.181152
H56	H	0.953487	-0.367034	-0.223066
H57	H	0.935765	-0.284164	-0.098988
H58	H	0.826844	-0.284008	-0.182460
H59	H	1.361244	-0.000056	0.218620
H60	H	1.379378	-0.372971	-0.030549
C61	C	0.899137	0.135451	0.028245
H62	H	0.966744	0.191585	0.055434
H63	H	0.853587	0.195272	-0.022975
H64	H	0.842921	0.103445	0.096732
C65	C	1.165006	0.283762	-0.192196
H66	H	1.213510	0.259952	-0.127330
H67	H	1.216388	0.339018	-0.252571
H68	H	1.092803	0.341137	-0.161526
C69	C	0.934779	0.153635	-0.373430
H70	H	0.881950	0.072042	-0.389013
H71	H	0.889575	0.243575	-0.381526
H72	H	1.009612	0.152677	-0.430296
H73	H	1.132588	0.100733	0.004288
H74	H	1.355742	-0.627541	-0.260933
H75	H	1.496728	-0.629345	-0.372303
H76	H	1.535484	-0.370747	0.024509
C77	C	1.740399	-0.355294	-0.332791
H78	H	1.681312	-0.293028	-0.367353
H79	H	1.815185	-0.300341	-0.322006
H80	H	1.762255	-0.436635	-0.385853
C81	C	1.145524	-0.136080	0.021311
H82	H	1.105042	-0.135237	0.102832
H83	H	1.122877	-0.224107	-0.018390
H84	H	1.235523	-0.132797	0.022005
C85	C	1.510979	-0.358657	-0.406467
H86	H	1.511343	-0.253291	-0.407132
H87	H	1.595561	-0.394267	-0.426713
H88	H	1.458260	-0.394091	-0.464565
C89	C	0.900380	-0.137591	0.027856
H90	H	0.968507	-0.193100	0.054725
H91	H	0.844004	-0.106474	0.096519
H92	H	0.855236	-0.197714	-0.023506
H93	H	1.662061	-0.000089	0.210040
H94	H	1.723849	-0.625506	-0.302196
C95	C	0.937249	-0.147210	-0.375979
H96	H	0.974295	-0.233041	-0.415512
H97	H	0.847038	-0.151439	-0.374510
H98	H	0.968769	-0.061186	-0.419159
C99	C	1.766094	-0.641609	-0.115677
H100	H	1.801550	-0.559347	-0.077529
H101	H	1.717476	-0.700167	-0.055622
H102	H	1.832961	-0.699957	-0.156343
C103	C	1.348539	-0.644295	-0.014513
H104	H	1.324481	-0.707963	-0.076628
H105	H	1.346374	-0.697848	0.059884
H106	H	1.290767	-0.563228	-0.003951
H107	H	1.743233	-0.372574	-0.138379
