data_functionalizedCrystal
_audit_creation_method	'MofGen! by Chris Wilmer'
_symmetry_space_group_name_H-M	'P1'
_symmetry_Int_Tables_number	1
_symmetry_cell_setting	triclinic
loop_
_symmetry_equiv_pos_as_xyz
  x,y,z
_cell_length_a	29.839135
_cell_length_b	14.908520
_cell_length_c	14.908308
_cell_angle_alpha	83.639235
_cell_angle_beta	86.725367
_cell_angle_gamma	93.323431
loop_
_atom_site_label
_atom_site_type_symbol
_atom_site_fract_x
_atom_site_fract_y
_atom_site_fract_z
Zn1	Zn	0.660296	-0.389822	0.532645
Zn2	Zn	1.160296	0.110178	1.032645
Zn3	Zn	0.660245	-0.532467	0.390016
Zn4	Zn	1.160245	-0.032467	0.890016
Zn5	Zn	0.589770	-0.381130	0.381295
Zn6	Zn	1.089770	0.118870	0.881295
Zn7	Zn	0.580553	-0.541146	0.541315
Zn8	Zn	1.080553	-0.041146	1.041315
O9	O	0.622716	-0.461141	0.461318
O10	O	1.122716	0.038859	0.961318
O11	O	0.723155	-0.408749	0.513747
O12	O	1.223155	0.091251	1.013747
O13	O	0.654732	-0.505122	0.262199
O14	O	1.154732	-0.005122	0.762199
O15	O	0.603004	-0.255618	0.394094
O16	O	1.103004	0.244382	0.894094
O17	O	0.723118	-0.513550	0.408957
O18	O	1.223118	-0.013550	0.908957
O19	O	0.654819	-0.262004	0.505290
O20	O	1.154819	0.237996	1.005290
O21	O	0.602954	-0.393935	0.255792
O22	O	1.102954	0.106065	0.755792
O23	O	0.525681	-0.402351	0.402501
O24	O	1.025681	0.097649	0.902501
O25	O	0.587295	-0.528343	0.666825
O26	O	1.087295	-0.028343	1.166825
O27	O	0.518910	-0.519914	0.520067
O28	O	1.018910	-0.019914	1.020067
O29	O	0.645882	-0.417165	0.660456
O30	O	1.145882	0.082835	1.160456
O31	O	0.645795	-0.660283	0.417364
O32	O	1.145795	-0.160283	0.917364
O33	O	0.587246	-0.666660	0.528523
O34	O	1.087246	-0.166660	1.028523
C35	C	0.615526	-0.696316	0.474851
C36	C	1.115526	-0.196316	0.974851
C37	C	0.612491	-0.796926	0.480670
C38	C	1.112491	-0.296926	0.980670
C39	C	0.505995	-0.461132	0.461279
C40	C	1.005995	0.038868	0.961279
C41	C	0.456060	-0.461151	0.461285
C42	C	0.956060	0.038849	0.961285
C43	C	0.667810	-0.979288	0.375949
C44	C	1.167810	-0.479288	0.875949
C45	C	0.664959	-1.073820	0.381414
C46	C	1.164959	-0.573820	0.881414
C47	C	0.603942	-1.080524	0.497069
C48	C	1.103942	-0.580524	0.997069
C49	C	0.606792	-0.985992	0.491604
C50	C	1.106792	-0.485992	0.991604
C51	C	0.638727	-0.935377	0.431041
C52	C	1.138727	-0.435377	0.931041
C53	C	0.641575	-0.840843	0.425572
C54	C	1.141575	-0.340843	0.925572
C55	C	0.580560	-0.847549	0.541231
C56	C	1.080560	-0.347549	1.041231
C57	C	0.577709	-0.942082	0.546696
C58	C	1.077709	-0.442082	1.046696
C59	C	0.146427	-0.406664	0.515972
C60	C	0.646427	0.093336	1.015972
C61	C	-0.041247	-0.406672	0.515998
C62	C	0.458753	0.093328	1.015998
O63	O	-0.065501	-0.360322	0.562451
O64	O	0.434499	0.139678	1.062451
N65	N	-0.064727	-0.461144	0.461351
N66	N	0.435273	0.038856	0.961351
C67	C	-0.041286	-0.515614	0.406689
C68	C	0.458714	-0.015614	0.906689
O69	O	-0.065563	-0.561939	0.360202
O70	O	0.434437	-0.061939	0.860202
C71	C	0.146388	-0.515601	0.406659
C72	C	0.646388	-0.015601	0.906659
C73	C	0.169865	-0.461132	0.461316
C74	C	0.669865	0.038868	0.961316
C75	C	0.169904	-0.352199	0.570624
C76	C	0.669904	0.147801	1.070624
C77	C	0.216820	-0.352201	0.570621
C78	C	0.716820	0.147799	1.070621
C79	C	0.240258	-0.406669	0.515965
C80	C	0.740258	0.093331	1.015965
C81	C	0.216781	-0.461134	0.461313
C82	C	0.716781	0.038866	0.961313
C83	C	0.169829	-0.570065	0.351993
C84	C	0.669829	-0.070065	0.851993
C85	C	0.216750	-0.570055	0.351988
C86	C	0.716750	-0.070055	0.851988
C87	C	0.240228	-0.515586	0.406646
C88	C	0.740228	-0.015586	0.906646
C89	C	0.287134	-0.515604	0.406654
C90	C	0.787134	-0.015604	0.906654
N91	N	0.310614	-0.461132	0.461301
N92	N	0.810614	0.038868	0.961301
C93	C	0.287176	-0.406664	0.515957
C94	C	0.787176	0.093336	1.015957
C95	C	-0.139817	-0.515618	0.406710
C96	C	0.360183	-0.015618	0.906710
C97	C	-0.186735	-0.515623	0.406719
C98	C	0.313265	-0.015623	0.906719
C99	C	-0.186693	-0.406679	0.516027
C100	C	0.313307	0.093321	1.016027
C101	C	-0.139775	-0.406680	0.516022
C102	C	0.360225	0.093320	1.016022
C103	C	-0.116337	-0.461146	0.461357
C104	C	0.383663	0.038854	0.961357
C105	C	0.385702	-0.406673	0.515946
C106	C	0.885702	0.093327	1.015946
C107	C	0.432621	-0.406683	0.515941
C108	C	0.932621	0.093317	1.015941
C109	C	0.432576	-0.515623	0.406629
C110	C	0.932576	-0.015623	0.906629
C111	C	0.385660	-0.515617	0.406638
C112	C	0.885660	-0.015617	0.906638
C113	C	0.362225	-0.461135	0.461299
C114	C	0.862225	0.038865	0.961299
O115	O	0.311417	-0.561922	0.360218
O116	O	0.811417	-0.061922	0.860218
O117	O	0.311462	-0.360331	0.562422
O118	O	0.811462	0.139669	1.062422
C119	C	0.099511	-0.406662	0.515975
C120	C	0.599511	0.093338	1.015975
C121	C	0.076034	-0.461127	0.461323
C122	C	0.576034	0.038873	0.961323
C123	C	0.099472	-0.515595	0.406668
C124	C	0.599472	-0.015595	0.906668
C125	C	0.029116	-0.461132	0.461332
C126	C	0.529116	0.038868	0.961332
C127	C	0.005678	-0.406664	0.515988
C128	C	0.505678	0.093336	1.015988
C129	C	0.029158	-0.352192	0.570635
C130	C	0.529158	0.147808	1.070635
C131	C	0.076073	-0.352194	0.570631
C132	C	0.576073	0.147806	1.070631
C133	C	0.075992	-0.570067	0.352021
C134	C	0.575992	-0.070067	0.852021
C135	C	0.029077	-0.570061	0.352029
C136	C	0.529077	-0.070061	0.852029
C137	C	0.005639	-0.515593	0.406685
C138	C	0.505639	-0.015593	0.906685
C139	C	0.739893	-0.461151	0.461358
C140	C	1.239893	0.038849	0.961358
C141	C	0.789827	-0.461155	0.461375
C142	C	1.289827	0.038845	0.961375
C143	C	0.615566	-0.474692	0.697400
C144	C	1.115566	0.025308	1.197400
C145	C	0.612519	-0.480466	0.798005
C146	C	1.112519	0.019534	1.298005
C147	C	0.629945	-0.225050	0.447752
C148	C	1.129945	0.274950	0.947752
C149	C	0.633026	-0.124441	0.441971
C150	C	1.133026	0.375559	0.941971
C151	C	0.629866	-0.447578	0.226150
C152	C	1.129866	0.052422	0.726150
C153	C	0.633007	-0.441549	0.125532
C154	C	1.133007	0.058451	0.625532
C155	C	0.667800	-0.375527	0.980418
C156	C	1.167800	0.124473	1.480418
C157	C	0.664938	-0.380949	1.074945
C158	C	1.164938	0.119051	1.574945
C159	C	0.603934	-0.496728	1.081586
C160	C	1.103934	0.003272	1.581586
C161	C	0.606795	-0.491306	0.987059
C162	C	1.106795	0.008694	1.487059
C163	C	0.638730	-0.430704	0.936479
C164	C	1.138730	0.069296	1.436479
C165	C	0.641593	-0.425287	0.841951
C166	C	1.141593	0.074713	1.341951
C167	C	0.580586	-0.541061	0.848593
C168	C	1.080586	-0.041061	1.348593
C169	C	0.577725	-0.546483	0.943119
C170	C	1.077725	-0.046483	1.443119
H171	H	0.667577	-0.799632	0.376256
H172	H	1.167577	-0.299632	0.876256
Cl173	Cl	0.681739	-0.349105	0.778365
Cl174	Cl	1.181739	0.150895	1.278365
H175	H	0.577935	-0.546067	1.122784
H176	H	1.077935	-0.046067	1.622784
H177	H	0.366626	-0.362306	0.560453
H178	H	0.866626	0.137694	1.060453
Cl179	Cl	0.563804	-1.144171	0.573211
Cl180	Cl	1.063804	-0.644171	1.073211
H181	H	0.693810	-0.938076	0.326630
H182	H	1.193810	-0.438076	0.826630
Cl183	Cl	0.537566	-1.005721	0.622831
Cl184	Cl	1.037566	-0.505721	1.122831
Cl185	Cl	0.105580	-0.283714	0.639347
Cl186	Cl	0.605580	0.216286	1.139347
H187	H	-0.205785	-0.362330	0.560530
H188	H	0.294215	0.137670	1.060530
Cl189	Cl	0.701485	-0.311579	1.130181
Cl190	Cl	1.201485	0.188421	1.630181
Cl191	Cl	0.543991	-0.792341	0.610482
Cl192	Cl	1.043991	-0.292341	1.110482
Cl193	Cl	0.462133	-0.338205	0.584660
Cl194	Cl	0.962133	0.161795	1.084660
Cl195	Cl	0.246327	-0.283718	0.639333
Cl196	Cl	0.746327	0.216282	1.139333
Cl197	Cl	0.140447	-0.283717	0.639345
Cl198	Cl	0.640447	0.216283	1.139345
H199	H	-0.120662	-0.362325	0.560527
H200	H	0.379338	0.137675	1.060527
Cl201	Cl	-0.000317	-0.283722	0.639347
Cl202	Cl	0.499683	0.216278	1.139347
Cl203	Cl	0.701523	-1.129019	0.312155
Cl204	Cl	1.201523	-0.629019	0.812155
Cl205	Cl	-0.216244	-0.584111	0.338013
Cl206	Cl	0.283756	-0.084111	0.838013
Cl207	Cl	0.707949	-0.299354	0.916829
Cl208	Cl	1.207949	0.200646	1.416829
H209	H	-0.120738	-0.559974	0.362193
H210	H	0.379262	-0.059974	0.862193
Cl211	Cl	0.140327	-0.638526	0.283257
Cl212	Cl	0.640327	-0.138526	0.783257
H213	H	0.551725	-0.595821	0.984314
H214	H	1.051725	-0.095821	1.484314
Cl215	Cl	0.246212	-0.638533	0.283264
Cl216	Cl	0.746212	-0.138533	0.783264
Cl217	Cl	0.356144	-0.584121	0.337953
Cl218	Cl	0.856144	-0.084121	0.837953
Cl219	Cl	0.462050	-0.584093	0.337923
Cl220	Cl	0.962050	-0.084093	0.837923
H221	H	0.009965	-0.614425	0.307523
H222	H	0.509965	-0.114425	0.807523
Cl223	Cl	0.105451	-0.638539	0.283294
Cl224	Cl	0.605451	-0.138539	0.783294
Cl225	Cl	0.544044	-0.610440	0.793350
Cl226	Cl	1.044044	-0.110440	1.293350
