data_functionalizedCrystal
_audit_creation_method	'MofGen! by Chris Wilmer'
_symmetry_space_group_name_H-M	'P1'
_symmetry_Int_Tables_number	1
_symmetry_cell_setting	triclinic
loop_
_symmetry_equiv_pos_as_xyz
  x,y,z
_cell_length_a	12.759401
_cell_length_b	12.645330
_cell_length_c	12.759393
_cell_angle_alpha	90.031109
_cell_angle_beta	90.020938
_cell_angle_gamma	90.014171
loop_
_atom_site_label
_atom_site_type_symbol
_atom_site_fract_x
_atom_site_fract_y
_atom_site_fract_z
Zn1	Zn	1.606281	-0.421945	0.594016
Zn2	Zn	1.606179	-0.599246	0.418334
Zn3	Zn	1.430580	-0.422001	0.418351
Zn4	Zn	1.430578	-0.599171	0.593971
O5	O	1.518405	-0.510591	0.506168
O6	O	1.753289	-0.445472	0.570723
O7	O	1.582843	-0.575788	0.271315
O8	O	1.453931	-0.273647	0.441679
O9	O	1.753213	-0.575734	0.441650
O10	O	1.583018	-0.273605	0.570739
O11	O	1.453831	-0.445568	0.271327
O12	O	1.283559	-0.445496	0.441636
O13	O	1.453928	-0.575607	0.740998
O14	O	1.283557	-0.575662	0.570663
O15	O	1.583016	-0.445400	0.741031
O16	O	1.582841	-0.747583	0.441607
O17	O	1.453828	-0.747529	0.570647
C18	C	1.245437	-0.510578	0.506147
C19	C	1.128661	-0.510598	0.506163
C20	C	1.073825	-0.578479	0.573242
C21	C	0.964101	-0.578483	0.573263
C22	C	0.964057	-0.442722	0.439117
C23	C	1.073779	-0.442714	0.439102
C24	C	0.814207	-0.616521	0.697123
C25	C	0.759368	-0.684418	0.764192
C26	C	0.794969	-0.787874	0.780139
C27	C	0.885408	-0.823454	0.729001
C28	C	0.940241	-0.755562	0.661924
C29	C	0.904641	-0.652092	0.645997
C30	C	1.223676	-0.404686	0.315241
C31	C	1.278511	-0.336799	0.248157
C32	C	1.242912	-0.233341	0.232200
C33	C	1.152470	-0.197766	0.283319
C34	C	1.097635	-0.265653	0.350403
C35	C	1.133242	-0.369109	0.366362
C36	C	1.518352	-0.786021	0.506143
C37	C	1.518426	-0.903851	0.506168
C38	C	1.599457	-1.071405	0.424824
C39	C	1.599721	-0.948844	0.425023
C40	C	1.548455	-0.948224	0.616912
C41	C	1.549098	-1.070822	0.616481
C42	C	1.407332	-1.071183	0.477858
C43	C	1.407865	-0.948579	0.475374
C44	C	1.792438	-0.510605	0.506189
C45	C	1.909215	-0.510610	0.506199
C46	C	1.518483	-0.510489	0.780201
C47	C	1.518517	-0.510446	0.896978
C48	C	1.518486	-0.234086	0.506216
C49	C	1.518521	-0.116255	0.506236
C50	C	1.518387	-0.510616	0.233200
C51	C	1.518557	-0.510360	0.116424
C52	C	1.585738	-0.442636	0.951859
C53	C	1.585756	-0.442590	1.061583
C54	C	1.451328	-0.578173	1.061536
C55	C	1.451306	-0.578213	0.951814
C56	C	1.623363	-0.317515	1.211562
C57	C	1.690601	-0.249715	1.266447
C58	C	1.793113	-0.233459	1.230856
C59	C	1.828409	-0.285019	1.140382
C60	C	1.761177	-0.352827	1.085503
C61	C	1.658650	-0.369063	1.121093
C62	C	1.413709	-0.703289	0.801832
C63	C	1.346481	-0.771104	0.746952
C64	C	1.243967	-0.787370	0.782541
C65	C	1.208676	-0.735829	0.873018
C66	C	1.275903	-0.668014	0.927899
C67	C	1.378416	-0.651746	0.892302
H68	H	0.785218	-0.532276	0.684156
H69	H	1.125202	-0.749078	0.901999
Cl70	Cl	1.570821	-1.117048	0.297668
Cl71	Cl	1.366845	-0.663367	1.130480
H72	H	1.539887	-0.330737	1.240544
Cl73	Cl	1.053927	-0.800281	0.597637
Cl74	Cl	0.930149	-0.953527	0.749038
Cl75	Cl	1.159461	-0.872646	0.713559
Cl76	Cl	0.726032	-0.873225	0.864463
H77	H	1.375229	-0.813081	0.673287
H78	H	1.492730	-1.100486	0.679229
H79	H	1.287564	-0.178072	0.177565
H80	H	1.640463	-0.387452	0.907215
Cl81	Cl	0.895056	-0.357390	0.354814
H82	H	1.681369	-1.102131	0.443384
H83	H	1.247160	-0.626047	1.001571
Cl84	Cl	0.645682	-0.639688	0.828482
Cl85	Cl	1.142815	-0.663814	0.657551
H86	H	1.497182	-0.690042	0.772841
H87	H	1.628811	-0.917432	0.641351
Cl88	Cl	1.805538	-0.417644	0.971772
Cl89	Cl	1.268340	-0.534808	0.335165
H90	H	1.380025	-1.102199	0.398510
H91	H	1.682075	-0.919433	0.443793
H92	H	1.385222	-0.919589	0.393875
H93	H	1.023997	-0.236675	0.392034
H94	H	1.630372	-1.099331	0.640519
Cl95	Cl	1.392201	-0.381531	0.183876
H96	H	1.344307	-0.917962	0.530323
Cl97	Cl	1.957295	-0.264594	1.095654
H98	H	1.123472	-0.113529	0.270310
H99	H	1.580932	-0.918848	0.342907
Cl100	Cl	1.460206	-0.903236	0.713076
H101	H	1.347028	-1.100188	0.537154
Cl102	Cl	1.877639	-0.148225	1.299857
Cl103	Cl	1.646230	-0.184899	1.380181
