data_functionalizedCrystal
_audit_creation_method	'MofGen! by Chris Wilmer'
_symmetry_space_group_name_H-M	'P1'
_symmetry_Int_Tables_number	1
_symmetry_cell_setting	triclinic
loop_
_symmetry_equiv_pos_as_xyz
  x,y,z
_cell_length_a	33.510554
_cell_length_b	33.509711
_cell_length_c	33.506470
_cell_angle_alpha	60.004186
_cell_angle_beta	60.008358
_cell_angle_gamma	59.994760
loop_
_atom_site_label
_atom_site_type_symbol
_atom_site_fract_x
_atom_site_fract_y
_atom_site_fract_z
O1	O	0.055430	-0.583081	0.487524
O2	O	0.555430	-0.083081	0.987524
O3	O	0.020931	-0.453975	0.392819
O4	O	0.520931	0.046025	0.892819
O5	O	0.102693	-0.535652	0.392731
O6	O	0.602693	-0.035652	0.892731
O7	O	-0.026332	-0.501404	0.487613
O8	O	0.473668	-0.001404	0.987613
O9	O	0.129823	-0.508526	0.419767
O10	O	0.629823	-0.008526	0.919767
O11	O	0.048062	-0.426850	0.419856
O12	O	0.548062	0.073150	0.919856
O13	O	0.082561	-0.555956	0.514561
O14	O	0.582561	-0.055956	1.014561
Cu15	Cu	0.067789	-0.488926	0.469677
Cu16	Cu	0.567789	0.011074	0.969677
Cu17	Cu	0.035703	-0.521005	0.437703
Cu18	Cu	0.535703	-0.021005	0.937703
O19	O	0.000799	-0.474279	0.514649
O20	O	0.500799	0.025721	1.014649
N21	N	0.090357	-0.466366	0.492168
N22	N	0.590357	0.033634	0.992168
N23	N	0.013139	-0.543569	0.415212
N24	N	0.513139	-0.043569	0.915212
C25	C	0.143028	-0.279707	0.544737
C26	C	0.643028	0.220293	1.044737
C27	C	0.143165	-0.413746	0.678712
C28	C	0.643165	0.086254	1.178712
C29	C	0.143043	-0.413725	0.544739
C30	C	0.643043	0.086275	1.044739
C31	C	0.277090	-0.413694	0.544637
C32	C	0.777090	0.086306	1.044637
C33	C	0.157791	-0.323929	0.559462
C34	C	0.657791	0.176071	1.059462
C35	C	0.157869	-0.398994	0.634489
C36	C	0.657869	0.101006	1.134489
C37	C	0.232865	-0.398963	0.559407
C38	C	0.732865	0.101037	1.059407
C39	C	0.157801	-0.398982	0.559463
C40	C	0.657801	0.101018	1.059463
C41	C	0.124237	-0.223419	0.525994
C42	C	0.624237	0.276581	1.025994
C43	C	0.124262	-0.432490	0.525997
C44	C	0.624262	0.067510	1.025997
C45	C	0.176583	-0.380217	0.578205
C46	C	0.676583	0.119783	1.078205
C47	C	0.358938	-0.399566	0.501510
C48	C	0.858938	0.100434	1.001510
C49	C	0.410104	-0.416609	0.484423
C50	C	0.910104	0.083391	0.984423
C51	C	0.410135	-0.499402	0.515995
C52	C	0.910135	0.000598	1.015995
C53	C	0.358969	-0.482358	0.533084
C54	C	0.858969	0.017642	1.033084
C55	C	0.136554	-0.197822	0.475693
C56	C	0.636554	0.302178	0.975693
C57	C	0.119469	-0.146653	0.458657
C58	C	0.619469	0.353347	0.958657
C59	C	0.077755	-0.146680	0.542223
C60	C	0.577755	0.353320	1.042223
C61	C	0.094840	-0.197850	0.559260
C62	C	0.594840	0.302150	1.059260
C63	C	0.073954	-0.420144	0.538396
C64	C	0.573954	0.079856	1.038396
C65	C	0.056884	-0.437203	0.521352
C66	C	0.556884	0.062797	1.021352
C67	C	0.140427	-0.478952	0.479524
C68	C	0.640427	0.021048	0.979524
C69	C	0.157498	-0.461894	0.496561
C70	C	0.657498	0.038106	0.996561
C71	C	0.074158	-0.420182	0.760618
C72	C	0.574158	0.079818	1.260618
C73	C	0.057149	-0.437256	0.811786
C74	C	0.557149	0.062744	1.311786
C75	C	0.140732	-0.479014	0.811717
C76	C	0.640732	0.020986	1.311717
C77	C	0.157740	-0.461942	0.760547
C78	C	0.657740	0.038058	1.260547
C79	C	0.124452	-0.432525	0.734999
C80	C	0.624452	0.067475	1.234999
C81	C	0.333372	-0.432439	0.525839
C82	C	0.833372	0.067561	1.025839
C83	C	-0.020612	-0.577650	0.170305
C84	C	0.479388	-0.077650	0.670305
C85	C	-0.020943	-0.788098	0.380897
C86	C	0.479057	-0.288098	0.880897
C87	C	-0.020912	-0.577638	0.380991
C88	C	0.479088	-0.077638	0.880991
C89	C	-0.231336	-0.577418	0.380585
C90	C	0.268664	-0.077418	0.880585
C91	C	-0.129735	-0.611383	0.346870
C92	C	0.370265	-0.111383	0.846870
C93	C	-0.054722	-0.611464	0.347017
C94	C	0.445278	-0.111464	0.847017
C95	C	-0.073450	-0.630202	0.328195
C96	C	0.426550	-0.130202	0.828195
C97	C	-0.087616	-0.712029	0.371239
C98	C	0.412384	-0.212029	0.871239
C99	C	-0.070599	-0.763199	0.388315
C100	C	0.429401	-0.263199	0.888315
C101	C	0.012191	-0.763282	0.356872
C102	C	0.512191	-0.263282	0.856872
C103	C	-0.004828	-0.712113	0.339795
C104	C	0.495172	-0.212113	0.839795
C105	C	-0.155381	-0.623711	0.397158
C106	C	0.344619	-0.123711	0.897158
C107	C	-0.206547	-0.606601	0.414133
C108	C	0.293453	-0.106601	0.914133
C109	C	-0.206417	-0.564839	0.330529
C110	C	0.293583	-0.064839	0.830529
C111	C	-0.155251	-0.581949	0.313554
C112	C	0.344749	-0.081949	0.813554
C113	C	-0.067051	-0.561160	0.334643
C114	C	0.432949	-0.061160	0.834643
C115	C	-0.050026	-0.544131	0.351759
C116	C	0.449974	-0.044131	0.851759
C117	C	-0.008343	-0.627704	0.393612
C118	C	0.491657	-0.127704	0.893612
C119	C	-0.025368	-0.644736	0.376502
C120	C	0.474632	-0.144736	0.876502
C121	C	-0.066922	-0.561168	0.246303
C122	C	0.433078	-0.061168	0.746303
C123	C	-0.049794	-0.544141	0.195134
C124	C	0.450206	-0.044141	0.695134
C125	C	-0.008048	-0.627719	0.195183
C126	C	0.491952	-0.127719	0.695183
C127	C	-0.025175	-0.644745	0.246352
C128	C	0.474825	-0.144745	0.746352
C129	C	-0.054614	-0.611468	0.271911
C130	C	0.445386	-0.111468	0.771911
C131	C	-0.054732	-0.686488	0.346980
C132	C	0.445268	-0.186488	0.846980
C133	C	-0.002117	-0.558258	0.114025
C134	C	0.497883	-0.058258	0.614025
C135	C	-0.002879	-0.844379	0.399940
C136	C	0.497121	-0.344379	0.899940
C137	C	-0.002504	-0.558243	0.399473
C138	C	0.497496	-0.058243	0.899473
C139	C	-0.287615	-0.558285	0.398601
C140	C	0.212385	-0.058285	0.898601
N141	N	0.434975	-0.466279	0.491900
N142	N	0.934975	0.033721	0.991900
O143	O	0.591199	-0.470749	0.375150
O144	O	1.091199	0.029251	0.875150
O145	O	0.591395	-0.565767	0.504116
O146	O	1.091395	-0.065767	1.004116
O147	O	0.591311	-0.565550	0.422329
O148	O	1.091311	-0.065550	0.922329
O149	O	0.591283	-0.470966	0.456937
O150	O	1.091283	0.029034	0.956937
O151	O	0.510024	-0.538522	0.449509
O152	O	1.010024	-0.038522	0.949509
O153	O	0.510108	-0.538739	0.531297
O154	O	1.010108	-0.038739	1.031297
O155	O	0.509913	-0.443721	0.402330
O156	O	1.009913	0.056279	0.902330
Cu157	Cu	0.502588	-0.488762	0.469295
Cu158	Cu	1.002588	0.011238	0.969295
Cu159	Cu	0.598719	-0.520726	0.437151
Cu160	Cu	1.098719	-0.020726	0.937151
O161	O	0.509997	-0.443938	0.484117
O162	O	1.009997	0.056062	0.984117
N163	N	0.666332	-0.543209	0.414541
N164	N	1.166332	-0.043209	0.914541
N165	N	0.090323	-0.121809	0.492157
N166	N	0.590323	0.378191	0.992157
O167	O	-0.026342	0.034503	0.487582
O168	O	0.473658	0.534503	0.987582
O169	O	0.102626	0.034543	0.392540
O170	O	0.602626	0.534543	0.892540
O171	O	0.020797	0.034507	0.392812
O172	O	0.520797	0.534507	0.892812
O173	O	0.055487	0.034539	0.487310
O174	O	0.555487	0.534539	0.987310
O175	O	0.047933	-0.046785	0.419900
O176	O	0.547933	0.453215	0.919900
O177	O	0.129763	-0.046749	0.419628
O178	O	0.629763	0.453251	0.919628
O179	O	0.000794	-0.046789	0.514670
O180	O	0.500794	0.453211	1.014670
Cu181	Cu	0.067756	-0.054192	0.469623
Cu182	Cu	0.567756	0.445808	0.969623
Cu183	Cu	0.035664	0.041946	0.437588
Cu184	Cu	0.535664	0.541946	0.937588
O185	O	0.082623	-0.046753	0.514399
O186	O	0.582623	0.453247	1.014399
N187	N	0.013091	0.109564	0.415054
N188	N	0.513091	0.609564	0.915054
N189	N	0.090671	-0.466416	0.836606
N190	N	0.590671	0.033584	1.336606
O191	O	0.086120	-0.583065	0.992910
O192	O	0.586120	-0.083065	1.492910
O193	O	-0.008880	-0.454051	0.992954
O194	O	0.491120	0.045949	1.492954
O195	O	-0.008658	-0.535864	0.992931
O196	O	0.491342	-0.035864	1.492931
O197	O	0.085897	-0.501252	0.992933
O198	O	0.585897	-0.001252	1.492933
O199	O	0.018407	-0.508749	0.911642
O200	O	0.518407	-0.008749	1.411642
O201	O	0.018185	-0.426936	0.911665
O202	O	0.518185	0.073064	1.411665
O203	O	0.113185	-0.555949	0.911621
O204	O	0.613185	-0.055949	1.411621
Cu205	Cu	0.068156	-0.488967	0.904221
Cu206	Cu	0.568156	0.011033	1.404221
Cu207	Cu	0.036148	-0.521034	1.000355
Cu208	Cu	0.536148	-0.021034	1.500355
O209	O	0.112963	-0.474136	0.911644
O210	O	0.612963	0.025864	1.411644
N211	N	0.013633	-0.543590	1.067970
N212	N	0.513633	-0.043590	1.567970
C213	C	0.031262	-0.424144	0.393290
C214	C	0.531262	0.075856	0.893290
C215	C	0.132513	-0.525291	0.393180
C216	C	0.632513	-0.025291	0.893180
C217	C	0.072229	-0.585787	0.514090
C218	C	0.572229	-0.085787	1.014090
C219	C	-0.029022	-0.484640	0.514200
C220	C	0.470978	0.015360	1.014200
C221	C	0.550775	-0.565338	0.533954
C222	C	1.050775	-0.065338	1.033954
C223	C	0.550672	-0.565070	0.432670
C224	C	1.050672	-0.065070	0.932670
C225	C	0.550530	-0.444149	0.372492
C226	C	1.050530	0.055851	0.872492
C227	C	0.550635	-0.444418	0.473776
C228	C	1.050635	0.055582	0.973776
C229	C	0.132408	-0.005998	0.392963
C230	C	0.632408	0.494002	0.892963
C231	C	0.031106	-0.006142	0.393333
C232	C	0.531106	0.493858	0.893333
C233	C	-0.029021	-0.006147	0.514213
C234	C	0.470979	0.493853	1.014213
C235	C	0.072314	-0.006104	0.513878
C236	C	0.572314	0.493896	1.013878
C237	C	-0.008430	-0.424240	0.952316
C238	C	0.491570	0.075760	1.452316
C239	C	-0.008150	-0.525550	0.952271
C240	C	0.491850	-0.025550	1.452271
C241	C	0.112735	-0.585760	0.952260
C242	C	0.612735	-0.085760	1.452260
C243	C	0.112461	-0.484444	0.952286
C244	C	0.612461	0.015556	1.452286
H245	H	0.016194	-0.427197	0.832639
H246	H	0.516194	0.072803	1.332639
O247	O	0.176520	-0.005692	0.357323
O248	O	0.676520	0.494308	0.857323
C249	C	0.206930	-0.005595	0.374864
C250	C	0.706930	0.494405	0.874864
H251	H	0.183428	0.009632	0.406355
H252	H	0.683428	0.509632	0.906355
H253	H	0.230148	0.018203	0.344165
H254	H	0.730148	0.518203	0.844165
H255	H	0.231805	-0.044540	0.388255
H256	H	0.731805	0.455460	0.888255
H257	H	0.550467	-0.414317	0.335455
H258	H	1.050467	0.085683	0.835455
H259	H	0.023675	-0.006147	0.363643
H260	H	0.523675	0.493853	0.863643
H261	H	0.550685	-0.594783	0.425263
H262	H	1.050685	-0.094783	0.925263
O263	O	-0.073244	-0.006066	0.549766
O264	O	0.426756	0.493934	1.049766
C265	C	-0.110111	0.036022	0.533065
C266	C	0.389889	0.536022	1.033065
H267	H	-0.093470	0.065451	0.502616
H268	H	0.406530	0.565451	1.002616
H269	H	-0.139270	0.050158	0.564575
H270	H	0.360730	0.550158	1.064575
H271	H	-0.127404	0.026492	0.518499
H272	H	0.372596	0.526492	1.018499
H273	H	0.550629	-0.414708	0.481180
H274	H	1.050629	0.085292	0.981180
O275	O	0.081265	-0.006125	0.549255
O276	O	0.581265	0.493875	1.049255
C277	C	0.129305	-0.006098	0.531424
C278	C	0.629305	0.493902	1.031424
H279	H	0.152410	-0.021479	0.500042
H280	H	0.652410	0.478521	1.000042
H281	H	0.145779	-0.029701	0.562019
H282	H	0.645779	0.470299	1.062019
H283	H	0.128574	0.032905	0.517792
H284	H	0.628574	0.532905	1.017792
O285	O	-0.043967	-0.380018	0.952353
O286	O	0.456033	0.119982	1.452353
C287	C	-0.026370	-0.349596	0.952346
C288	C	0.473630	0.150404	1.452346
H289	H	0.005014	-0.373098	0.967727
H290	H	0.505014	0.126902	1.467727
H291	H	-0.057082	-0.326183	0.975957
H292	H	0.442918	0.173817	1.475957
H293	H	-0.012813	-0.324907	0.913351
H294	H	0.487187	0.175093	1.413351
O295	O	0.550927	-0.600940	0.578121
O296	O	1.050927	-0.100940	1.078121
C297	C	0.593039	-0.612249	0.586855
C298	C	1.093039	-0.112249	1.086855
H299	H	0.622425	-0.601401	0.550560
H300	H	1.122425	-0.101401	1.050560
H301	H	0.607217	-0.653178	0.606589
H302	H	1.107217	-0.153178	1.106589
H303	H	0.583529	-0.591314	0.610479
H304	H	1.083529	-0.091314	1.110479
H305	H	-0.037843	-0.532946	0.952238
H306	H	0.462157	-0.032946	1.452238
O307	O	0.176684	-0.533999	0.357588
O308	O	0.676684	-0.033999	0.857588
C309	C	0.170244	-0.528511	0.316415
C310	C	0.670244	-0.028511	0.816415
H311	H	0.134439	-0.533891	0.328197
H312	H	0.634439	-0.033891	0.828197
H313	H	0.201933	-0.556906	0.298970
H314	H	0.701933	-0.056906	0.798970
H315	H	0.169154	-0.490301	0.288782
H316	H	0.669154	0.009699	0.788782
O317	O	0.148259	-0.629996	0.952263
O318	O	0.648259	-0.129996	1.452263
C319	C	0.130671	-0.660409	0.952242
C320	C	0.630671	-0.160409	1.452242
H321	H	0.089039	-0.647175	0.967641
H322	H	0.589039	-0.147175	1.467641
H323	H	0.145670	-0.699566	0.975828
H324	H	0.645670	-0.199566	1.475828
H325	H	0.143081	-0.659077	0.913239
H326	H	0.643081	-0.159077	1.413239
H327	H	0.079602	-0.622875	0.543835
H328	H	0.579602	-0.122875	1.043835
O329	O	-0.073249	-0.475850	0.549700
O330	O	0.426751	0.024150	1.049700
C331	C	-0.103635	-0.427830	0.532037
C332	C	0.396365	0.072170	1.032037
H333	H	-0.080106	-0.404613	0.500640
H334	H	0.419894	0.095387	1.000640
H335	H	-0.127042	-0.411467	0.562711
H336	H	0.372958	0.088533	1.062711
H337	H	-0.128327	-0.428578	0.518477
H338	H	0.371673	0.071422	1.018477
H339	H	0.142166	-0.477036	0.952281
H340	H	0.642166	0.022964	1.452281
H341	H	0.198463	-0.471942	0.486461
H342	H	0.698463	0.028058	0.986461
H343	H	0.047048	-0.396226	0.739820
H344	H	0.547048	0.103774	1.239820
H345	H	0.198696	-0.471996	0.739692
H346	H	0.698696	0.028004	1.239692
O347	O	0.173085	-0.507655	0.836515
O348	O	0.673085	-0.007655	1.336515
C349	C	0.202676	-0.550556	0.823981
C350	C	0.702676	-0.050556	1.323981
H351	H	0.182904	-0.557671	0.809930
H352	H	0.682904	-0.057671	1.309930
H353	H	0.210444	-0.582795	0.857616
H354	H	0.710444	-0.082795	1.357616
H355	H	0.238608	-0.545894	0.794262
H356	H	0.738608	-0.045894	1.294262
O357	O	0.041601	-0.391566	0.566963
O358	O	0.541601	0.108434	1.066963
C359	C	-0.006462	-0.384335	0.574255
C360	C	0.493538	0.115665	1.074255
H361	H	-0.006396	-0.390047	0.543415
H362	H	0.493604	0.109953	1.043415
H363	H	-0.030762	-0.345531	0.574540
H364	H	0.469238	0.154469	1.074540
H365	H	-0.021092	-0.411579	0.610708
H366	H	0.478908	0.088421	1.110708
O367	O	0.008019	-0.425155	0.533311
O368	O	0.508019	0.074845	1.033311
C369	C	-0.004392	-0.399396	0.490342
C370	C	0.495608	0.100604	0.990342
H371	H	0.024431	-0.382065	0.459589
H372	H	0.524431	0.117935	0.959589
H373	H	-0.041543	-0.369587	0.497116
H374	H	0.458457	0.130413	0.997116
H375	H	-0.006099	-0.425703	0.479575
H376	H	0.493901	0.074297	0.979575
O377	O	0.172739	-0.507444	0.450861
O378	O	0.672739	-0.007444	0.950861
C379	C	0.202295	-0.481593	0.407944
C380	C	0.702295	0.018407	0.907944
H381	H	0.182519	-0.440658	0.400848
H382	H	0.682519	0.059342	0.900848
H383	H	0.210009	-0.490739	0.375713
H384	H	0.710009	0.009261	0.875713
H385	H	0.238255	-0.492479	0.412567
H386	H	0.738255	0.007521	0.912567
O387	O	0.334163	-0.514305	0.556636
O388	O	0.834163	-0.014305	1.056636
C389	C	0.346659	-0.538269	0.525322
C390	C	0.846659	-0.038269	1.025322
H391	H	0.360688	-0.514960	0.485711
H392	H	0.860688	-0.014960	0.985711
H393	H	0.313011	-0.544035	0.531387
H394	H	0.813011	-0.044035	1.031387
H395	H	0.376381	-0.575189	0.533548
H396	H	0.876381	-0.075189	1.033548
O397	O	0.435075	-0.547874	0.522970
O398	O	0.935075	-0.047874	1.022970
C399	C	0.485718	-0.555869	0.502681
C400	C	0.985718	-0.055869	1.002681
H401	H	0.492679	-0.520649	0.473352
H402	H	0.992679	-0.020649	0.973352
H403	H	0.505157	-0.585762	0.485672
H404	H	1.005157	-0.085762	0.985672
H405	H	0.500269	-0.567660	0.532613
H406	H	1.000269	-0.067660	1.032613
H407	H	0.430920	-0.389838	0.464614
H408	H	0.930920	0.110162	0.964614
H409	H	0.160490	-0.218637	0.448603
H410	H	0.660490	0.281363	0.948603
O411	O	0.334125	-0.351054	0.494389
O412	O	0.834125	0.148946	0.994389
C413	C	0.346579	-0.324648	0.443870
C414	C	0.846579	0.175352	0.943870
H415	H	0.383723	-0.346998	0.423704
H416	H	0.883723	0.153002	0.923704
H417	H	0.348324	-0.288573	0.437106
H418	H	0.848324	0.211427	0.937106
H419	H	0.317763	-0.317019	0.429947
H420	H	0.817763	0.182981	0.929947
O421	O	0.131409	-0.121837	0.409782
O422	O	0.631409	0.378163	0.909782
C423	C	0.113878	-0.134334	0.388556
C424	C	0.613878	0.365666	0.888556
H425	H	0.108892	-0.171496	0.412815
H426	H	0.608892	0.328504	0.912815
H427	H	0.141272	-0.136067	0.350907
H428	H	0.641272	0.363933	0.850907
H429	H	0.077294	-0.105547	0.384781
H430	H	0.577294	0.394453	0.884781
O431	O	0.049191	-0.121915	0.574603
O432	O	0.549191	0.378085	1.074603
C433	C	0.042001	-0.155482	0.622654
C434	C	0.542001	0.344518	1.122654
H435	H	0.047723	-0.191958	0.622562
H436	H	0.547723	0.308042	1.122562
H437	H	0.003207	-0.140714	0.646973
H438	H	0.503207	0.359286	1.146973
H439	H	0.069258	-0.160916	0.637283
H440	H	0.569258	0.339084	1.137283
H441	H	0.023891	-0.387055	0.363546
H442	H	0.523891	0.112945	0.863546
H443	H	0.015562	-0.654800	0.417614
H444	H	0.515562	-0.154800	0.917614
H445	H	-0.059824	-0.503179	0.174290
H446	H	0.440176	-0.003179	0.674290
O447	O	0.082976	-0.222753	0.608113
O448	O	0.582976	0.277247	1.108113
C449	C	0.126002	-0.252314	0.620425
C450	C	0.626002	0.247686	1.120425
H451	H	0.158121	-0.259978	0.586691
H452	H	0.658121	0.240022	1.086691
H453	H	0.121465	-0.288299	0.650118
H454	H	0.621465	0.211701	1.150118
H455	H	0.133214	-0.232569	0.634424
H456	H	0.633214	0.267431	1.134424
H457	H	-0.090896	-0.534066	0.267110
H458	H	0.409104	-0.034066	0.767110
H459	H	-0.015148	-0.685706	0.267200
H460	H	0.484852	-0.185706	0.767200
O461	O	0.020553	-0.660111	0.170434
O462	O	0.520553	-0.160111	0.670434
C463	C	0.027729	-0.708158	0.204012
C464	C	0.527729	-0.208158	0.704012
H465	H	0.021963	-0.708057	0.240502
H466	H	0.521963	-0.208057	0.740502
H467	H	0.066534	-0.732490	0.189285
H468	H	0.566534	-0.232490	0.689285
H469	H	0.000494	-0.722780	0.209400
H470	H	0.500494	-0.222780	0.709400
H471	H	-0.090949	-0.534065	0.310634
H472	H	0.409051	-0.034065	0.810634
H473	H	-0.015331	-0.685697	0.386578
H474	H	0.484669	-0.185697	0.886578
O475	O	-0.062016	-0.495250	0.339666
O476	O	0.437984	0.004750	0.839666
C477	C	-0.091577	-0.469533	0.309975
C478	C	0.408423	0.030467	0.809975
H479	H	-0.085036	-0.493944	0.291372
H480	H	0.414964	0.006056	0.791372
H481	H	-0.081927	-0.435420	0.281027
H482	H	0.418073	0.064580	0.781027
H483	H	-0.131672	-0.458441	0.333516
H484	H	0.368328	0.041559	0.833516
H485	H	0.021953	-0.691318	0.320042
H486	H	0.521953	-0.191318	0.820042
H487	H	0.052828	-0.784146	0.351024
H488	H	0.552828	-0.284146	0.851024
H489	H	-0.134607	-0.647683	0.424287
H490	H	0.365393	-0.147683	0.924287
O491	O	-0.102619	-0.787935	0.411946
O492	O	0.397381	-0.287935	0.911946
C493	C	-0.150319	-0.754345	0.414647
C494	C	0.349681	-0.254345	0.914647
H495	H	-0.152275	-0.717863	0.411239
H496	H	0.347725	-0.217863	0.911239
H497	H	-0.177375	-0.769074	0.451227
H498	H	0.322625	-0.269074	0.951227
H499	H	-0.159878	-0.748936	0.383661
H500	H	0.340122	-0.248936	0.883661
H501	H	-0.227429	-0.616637	0.455084
H502	H	0.272571	-0.116637	0.955084
O503	O	-0.136071	-0.687079	0.378124
O504	O	0.363929	-0.187079	0.878124
C505	C	-0.142949	-0.657497	0.332414
C506	C	0.357051	-0.157497	0.832414
H507	H	-0.107742	-0.649878	0.303952
H508	H	0.392258	-0.149878	0.803952
H509	H	-0.173654	-0.621490	0.335321
H510	H	0.326346	-0.121490	0.835321
H511	H	-0.153014	-0.677199	0.321006
H512	H	0.346986	-0.177199	0.821006
H513	H	-0.227194	-0.540877	0.303400
H514	H	0.272806	-0.040877	0.803400
O515	O	-0.130410	-0.569949	0.264685
O516	O	0.369590	-0.069949	0.764685
C517	C	-0.163904	-0.540291	0.238920
C518	C	0.336096	-0.040291	0.738920
H519	H	-0.200400	-0.546776	0.263270
H520	H	0.299600	-0.046776	0.763270
H521	H	-0.149078	-0.549896	0.204771
H522	H	0.350922	-0.049896	0.704771
H523	H	-0.169317	-0.500220	0.227885
H524	H	0.330683	-0.000220	0.727885
