data_functionalizedCrystal
_audit_creation_method	'MofGen! by Chris Wilmer'
_symmetry_space_group_name_H-M	'P1'
_symmetry_Int_Tables_number	1
_symmetry_cell_setting	triclinic
loop_
_symmetry_equiv_pos_as_xyz
  x,y,z
_cell_length_a	12.594517
_cell_length_b	19.120786
_cell_length_c	12.594509
_cell_angle_alpha	92.474225
_cell_angle_beta	90.014305
_cell_angle_gamma	92.465364
loop_
_atom_site_label
_atom_site_type_symbol
_atom_site_fract_x
_atom_site_fract_y
_atom_site_fract_z
Zn1	Zn	1.609121	-0.279611	0.583539
Zn2	Zn	1.601388	-0.397081	0.397947
Zn3	Zn	1.431123	-0.279641	0.405588
Zn4	Zn	1.423486	-0.397033	0.575902
O5	O	1.516279	-0.338342	0.490744
O6	O	1.757040	-0.295201	0.558919
O7	O	1.578761	-0.381536	0.250013
O8	O	1.461166	-0.181346	0.435587
O9	O	1.751359	-0.381506	0.422565
O10	O	1.591941	-0.181324	0.566327
O11	O	1.453668	-0.295253	0.255626
O12	O	1.281164	-0.295206	0.428182
O13	O	1.448151	-0.381424	0.725863
O14	O	1.275554	-0.381453	0.553311
O15	O	1.584536	-0.295154	0.731474
O16	O	1.571357	-0.495365	0.415160
O17	O	1.440653	-0.495330	0.545903
C18	C	1.239739	-0.338328	0.490748
C19	C	1.121433	-0.338339	0.490773
C20	C	0.978390	-0.385334	0.558694
C21	C	1.048051	-0.402431	0.460444
C22	C	1.053342	-0.321274	0.589010
C23	C	0.980305	-0.355492	0.392437
C24	C	0.985591	-0.274305	0.521070
C25	C	1.055222	-0.291377	0.422755
C26	C	1.504366	-0.520833	0.478897
C27	C	1.499367	-0.598904	0.473864
C28	C	1.565055	-0.635510	0.539624
C29	C	1.560354	-0.708866	0.534897
C30	C	1.489969	-0.745614	0.464404
C31	C	1.424274	-0.709003	0.398641
C32	C	1.428971	-0.635649	0.403374
C33	C	1.472379	-0.967101	0.446710
C34	C	1.467689	-1.040460	0.441979
C35	C	1.603768	-1.040318	0.578238
C36	C	1.608463	-0.966962	0.582960
C37	C	1.542764	-0.930357	0.517201
C38	C	1.485164	-0.820596	0.459568
C39	C	1.547565	-0.855377	0.522043
C40	C	1.793899	-0.338356	0.490741
C41	C	1.912204	-0.338362	0.490740
C42	C	1.516355	-0.338280	0.768369
C43	C	1.516387	-0.338254	0.886676
C44	C	1.528268	-0.155137	0.502661
C45	C	1.533377	-0.077066	0.507740
C46	C	1.516269	-0.338352	0.214203
C47	C	1.516456	-0.338180	0.095909
C48	C	1.442231	-0.385149	0.952880
C49	C	1.538238	-0.402311	1.022546
C50	C	1.420458	-0.321050	1.027812
C51	C	1.612442	-0.355449	0.954782
C52	C	1.494599	-0.274158	0.960044
C53	C	1.590674	-0.291296	1.029680
H54	H	1.085386	-0.306830	0.672102
H55	H	1.375479	-0.605845	0.349827
C56	C	0.937190	-0.375095	0.280147
N57	N	0.904712	-0.389863	0.195573
H58	H	1.418886	-0.937303	0.393164
H59	H	1.556704	-0.456484	1.050137
C60	C	1.722103	-0.375156	0.911671
N61	N	1.804695	-0.390003	0.879197
C62	C	1.100403	-0.237701	0.345049
N63	N	1.134436	-0.197274	0.286517
C64	C	1.642486	-0.595093	0.617171
N65	N	1.700807	-0.564653	0.675585
C66	C	0.932935	-0.439051	0.636200
N67	N	0.898695	-0.479512	0.694571
H68	H	1.604868	-0.825454	0.579443
H69	H	1.613852	-0.738667	0.588438
H70	H	1.379563	-0.424869	0.919255
H71	H	1.653484	-0.251606	1.063107
C72	C	1.469610	-0.200995	0.922728
N73	N	1.450775	-0.145889	0.894618
H74	H	1.665776	-0.937043	0.640361
H75	H	1.427859	-0.850525	0.402169
H76	H	1.339304	-0.306529	1.059853
H77	H	0.957993	-0.220159	0.546743
C78	C	1.085299	-0.475601	0.425794
N79	N	1.113348	-0.530714	0.399700
C80	C	1.676025	-1.080589	0.650575
N81	N	1.730448	-1.110921	0.705066
C82	C	1.390253	-1.080883	0.364432
N83	N	1.331931	-1.111328	0.306026
C84	C	1.346914	-0.749430	0.321033
N85	N	1.288672	-0.779878	0.262550
