data_functionalizedCrystal
_audit_creation_method	'MofGen! by Chris Wilmer'
_symmetry_space_group_name_H-M	'P1'
_symmetry_Int_Tables_number	1
_symmetry_cell_setting	triclinic
loop_
_symmetry_equiv_pos_as_xyz
  x,y,z
_cell_length_a	14.908558
_cell_length_b	14.908178
_cell_length_c	12.827885
_cell_angle_alpha	86.668630
_cell_angle_beta	86.686309
_cell_angle_gamma	89.819838
loop_
_atom_site_label
_atom_site_type_symbol
_atom_site_fract_x
_atom_site_fract_y
_atom_site_fract_z
Zn1	Zn	1.354015	-0.437421	-0.651947
Zn2	Zn	1.854015	0.062579	-0.151947
Zn3	Zn	1.345238	-0.587810	-0.466552
Zn4	Zn	1.845238	-0.087810	0.033448
Zn5	Zn	1.203644	-0.428772	-0.467762
Zn6	Zn	1.703644	0.071228	0.032238
Zn7	Zn	1.194953	-0.579055	-0.631806
Zn8	Zn	1.694953	-0.079055	-0.131806
O9	O	1.274462	-0.508265	-0.554517
O10	O	1.774462	-0.008265	-0.054517
O11	O	1.478676	-0.464654	-0.635276
O12	O	1.978676	0.035346	-0.135276
O13	O	1.326420	-0.566758	-0.320471
O14	O	1.826420	-0.066758	0.179529
O15	O	1.230902	-0.304087	-0.501130
O16	O	1.730902	0.195913	-0.001130
O17	O	1.472228	-0.575144	-0.499068
O18	O	1.972228	-0.075144	0.000932
O19	O	1.341378	-0.310441	-0.636449
O20	O	1.841378	0.189559	-0.136449
O21	O	1.222391	-0.449913	-0.321360
O22	O	1.722391	0.050087	0.178640
O23	O	1.076666	-0.441424	-0.481600
O24	O	1.576666	0.058576	0.018400
O25	O	1.216088	-0.560223	-0.780719
O26	O	1.716088	-0.060223	-0.280719
O27	O	1.070280	-0.551836	-0.602122
O28	O	1.570280	-0.051836	-0.102122
O29	O	1.332950	-0.456164	-0.795516
O30	O	1.832950	0.043836	-0.295516
O31	O	1.317992	-0.712482	-0.479538
O32	O	1.817992	-0.212482	0.020462
O33	O	1.207578	-0.706049	-0.600949
O34	O	1.707578	-0.206049	-0.100949
C35	C	1.040848	-0.494742	-0.539807
C36	C	1.540848	0.005258	-0.039807
C37	C	0.940905	-0.488979	-0.533538
C38	C	1.440905	0.011021	-0.033538
C39	C	0.803343	-0.423285	-0.462068
C40	C	1.303343	0.076715	0.037932
C41	C	0.897249	-0.428696	-0.467954
C42	C	1.397249	0.071304	0.032046
C43	C	0.890649	-0.543853	-0.593242
C44	C	1.390649	-0.043853	-0.093242
C45	C	0.796744	-0.538442	-0.587355
C46	C	1.296744	-0.038442	-0.087355
C47	C	0.753094	-0.478157	-0.521765
C48	C	1.253094	0.021843	-0.021765
C49	C	0.659187	-0.472752	-0.515873
C50	C	1.159187	0.027248	-0.015873
C51	C	0.652589	-0.587903	-0.641165
C52	C	1.152589	-0.087903	-0.141165
C53	C	0.746494	-0.593314	-0.647052
C54	C	1.246494	-0.093314	-0.147052
C55	C	1.260914	-0.741894	-0.537951
C56	C	1.760914	-0.241894	-0.037951
C57	C	1.255200	-0.841846	-0.530904
C58	C	1.755200	-0.341846	-0.030904
C59	C	1.359415	-1.036129	-0.658710
C60	C	1.859415	-0.536129	-0.158710
C61	C	1.354050	-1.130043	-0.652092
C62	C	1.854050	-0.630043	-0.152092
C63	C	1.239100	-1.123590	-0.511059
C64	C	1.739100	-0.623590	-0.011059
C65	C	1.244465	-1.029676	-0.517676
C66	C	1.744465	-0.529676	-0.017676
C67	C	1.304626	-0.985949	-0.591503
C68	C	1.804626	-0.485949	-0.091503
C69	C	1.309995	-0.892033	-0.598114
C70	C	1.809995	-0.392033	-0.098114
C71	C	1.195041	-0.885582	-0.457086
C72	C	1.695041	-0.385582	0.042914
C73	C	1.189676	-0.979496	-0.450469
C74	C	1.689676	-0.479496	0.049531
C75	C	1.508989	-0.521841	-0.569284
C76	C	2.008989	-0.021841	-0.069284
C77	C	1.608931	-0.527626	-0.575577
C78	C	2.108931	-0.027626	-0.075577
C79	C	1.274529	-0.508182	-0.827097
C80	C	1.774529	-0.008182	-0.327097
C81	C	1.274557	-0.508146	-0.943254
C82	C	1.774557	-0.008146	-0.443254
C83	C	1.288088	-0.273724	-0.571171
C84	C	1.788088	0.226276	-0.071171
C85	C	1.293895	-0.173777	-0.578268
C86	C	1.793895	0.326223	-0.078268
C87	C	1.332390	-0.456645	-1.002362
C88	C	1.832390	0.043355	-0.502362
C89	C	1.332421	-0.456607	-1.122417
C90	C	1.832421	0.043393	-0.622417
C91	C	1.274452	-0.508285	-0.283005
C92	C	1.774452	-0.008285	0.216995
C93	C	1.274613	-0.508077	-0.166877
C94	C	1.774613	-0.008077	0.333123
H95	H	0.611666	-0.632585	-0.689774
H96	H	1.111666	-0.132585	-0.189774
O97	O	1.374888	-0.844868	-0.677730
O98	O	1.874888	-0.344868	-0.177730
H99	H	1.358395	-0.861949	-0.757493
H100	H	1.858395	-0.361949	-0.257493
O101	O	1.413143	-1.184163	-0.724586
O102	O	1.913143	-0.684163	-0.224586
H103	H	1.399300	-1.256814	-0.707592
H104	H	1.899300	-0.756814	-0.207592
O105	O	0.951450	-0.369528	-0.403552
O106	O	1.451450	0.130472	0.096448
H107	H	0.905317	-0.326710	-0.356947
H108	H	1.405317	0.173290	0.143053
H109	H	1.150431	-0.844714	-0.402359
H110	H	1.650431	-0.344714	0.097641
H111	H	1.408407	-1.000526	-0.718816
H112	H	1.908407	-0.500526	-0.218816
H113	H	0.782047	-0.642394	-0.700456
H114	H	1.282047	-0.142394	-0.200456
H115	H	1.381878	-0.412577	-0.964087
H116	H	1.881878	0.087423	-0.464087
O117	O	1.124800	-1.026673	-0.370843
O118	O	1.624800	-0.526673	0.129157
H119	H	1.055244	-1.004628	-0.385511
H120	H	1.555244	-0.504628	0.114489
H121	H	1.381937	-0.412518	-1.173221
H122	H	1.881937	0.087482	-0.673221
O123	O	1.174221	-1.170776	-0.431443
O124	O	1.674221	-0.670776	0.068557
H125	H	1.104666	-1.148733	-0.446116
H126	H	1.604666	-0.648733	0.053884
H127	H	1.225100	-0.552175	-1.116080
H128	H	1.725100	-0.052175	-0.616080
O129	O	0.937736	-0.608830	-0.664032
O130	O	1.437736	-0.108830	-0.164032
H131	H	1.011477	-0.603358	-0.658107
H132	H	1.511477	-0.103358	-0.158107
O133	O	1.208990	-0.566512	-0.993944
O134	O	1.708990	-0.066512	-0.493944
H135	H	1.220280	-0.638001	-0.969010
H136	H	1.720280	-0.138001	-0.469010
O137	O	0.612101	-0.407730	-0.445139
O138	O	1.112101	0.092270	0.054861
H139	H	0.662824	-0.370476	-0.404628
H140	H	1.162824	0.129524	0.095372
H141	H	0.767803	-0.374201	-0.408659
H142	H	1.267803	0.125799	0.091341
