data_functionalizedCrystal
_audit_creation_method	'MofGen! by Chris Wilmer'
_symmetry_space_group_name_H-M	'P1'
_symmetry_Int_Tables_number	1
_symmetry_cell_setting	triclinic
loop_
_symmetry_equiv_pos_as_xyz
  x,y,z
_cell_length_a	12.594516
_cell_length_b	13.033304
_cell_length_c	13.032268
_cell_angle_alpha	89.077769
_cell_angle_beta	82.847564
_cell_angle_gamma	82.814935
loop_
_atom_site_label
_atom_site_type_symbol
_atom_site_fract_x
_atom_site_fract_y
_atom_site_fract_z
Zn1	Zn	-0.331184	-1.498463	0.781546
Zn2	Zn	0.168816	-0.998463	1.281546
Zn3	Zn	-0.484143	-1.520208	0.609584
Zn4	Zn	0.015857	-1.020208	1.109584
Zn5	Zn	-0.325559	-1.348324	0.587718
Zn6	Zn	0.174441	-0.848324	1.087718
Zn7	Zn	-0.528509	-1.326461	0.759622
Zn8	Zn	-0.028509	-0.826461	1.259622
O9	O	-0.417349	-1.423364	0.684618
O10	O	0.082651	-0.923364	1.184618
O11	O	-0.335261	-1.645265	0.777062
O12	O	0.164739	-1.145265	1.277062
O13	O	-0.442186	-1.515658	0.462774
O14	O	0.057814	-1.015658	0.962774
O15	O	-0.177357	-1.368289	0.613453
O16	O	0.322643	-0.868289	1.113453
O17	O	-0.447640	-1.661242	0.650722
O18	O	0.052360	-1.161242	1.150722
O19	O	-0.181489	-1.478596	0.755859
O20	O	0.318511	-0.978596	1.255859
O21	O	-0.325675	-1.389375	0.446709
O22	O	0.174325	-0.889375	0.946709
O23	O	-0.368694	-1.201506	0.592194
O24	O	0.131306	-0.701506	1.092194
O25	O	-0.523255	-1.331027	0.906440
O26	O	-0.023255	-0.831027	1.406440
O27	O	-0.517801	-1.185443	0.718492
O28	O	-0.017801	-0.685443	1.218492
O29	O	-0.378281	-1.457396	0.922548
O30	O	0.121719	-0.957396	1.422548
O31	O	-0.638977	-1.494458	0.629463
O32	O	-0.138977	-0.994458	1.129463
O33	O	-0.671573	-1.352113	0.739695
O34	O	-0.171573	-0.852113	1.239695
C35	C	-0.447452	-1.156158	0.650592
C36	C	0.052548	-0.656158	1.150592
C37	C	-0.460360	-1.041843	0.636060
C38	C	0.039640	-0.541843	1.136060
C39	C	-0.410626	-0.982960	0.692188
C40	C	0.089374	-0.482960	1.192188
C41	C	-0.423966	-0.864810	0.677170
C42	C	0.076034	-0.364810	1.177170
C43	C	-0.693896	-1.423298	0.684599
C44	C	-0.193896	-0.923298	1.184599
C45	C	-0.812199	-1.423359	0.684637
C46	C	-0.312199	-0.923359	1.184637
C47	C	-0.899213	-1.345937	0.744543
C48	C	-0.399213	-0.845937	1.244543
C49	C	-0.959226	-1.332803	0.647520
C50	C	-0.459226	-0.832803	1.147520
C51	C	-0.962976	-1.436585	0.781689
C52	C	-0.462976	-0.936585	1.281689
C53	C	-0.870652	-1.410182	0.587557
C54	C	-0.370652	-0.910182	1.087557
C55	C	-0.874400	-1.513999	0.721796
C56	C	-0.374400	-1.013999	1.221796
C57	C	-0.934368	-1.500909	0.624712
C58	C	-0.434368	-1.000909	1.124712
C59	C	-0.139722	-1.423455	0.684662
C60	C	0.360278	-0.923455	1.184662
C61	C	-0.021414	-1.423495	0.684682
C62	C	0.478586	-0.923495	1.184682
C63	C	-0.456344	-1.389347	0.952851
C64	C	0.043656	-0.889347	1.452851
C65	C	-0.472961	-1.374851	1.067156
C66	C	0.027039	-0.874851	1.567156
C67	C	-0.387122	-0.691614	0.718770
C68	C	0.112878	-0.191614	1.218770
C69	C	-0.374225	-0.805929	0.733306
C70	C	0.125775	-0.305929	1.233306
C71	C	-0.378422	-1.457308	0.417435
C72	C	0.121578	-0.957308	0.917435
C73	C	-0.361483	-1.472003	0.303156
C74	C	0.138517	-0.972003	0.803156
C75	C	-0.408640	-1.430914	1.126087
C76	C	0.091360	-0.930914	1.626087
C77	C	-0.425813	-1.415933	1.244227
C78	C	0.074187	-0.915933	1.744227
H79	H	-0.321761	-0.842982	0.792477
H80	H	0.178239	-0.342982	1.292477
C81	C	-0.517391	-1.336109	1.294211
C82	C	-0.017391	-0.836109	1.794211
H83	H	-0.516927	-1.336518	1.367058
H84	H	-0.016927	-0.836518	1.867058
H85	H	-0.507074	-1.269222	1.267861
H86	H	-0.007074	-0.769222	1.767861
H87	H	-0.584680	-1.353360	1.278562
H88	H	-0.084680	-0.853360	1.778562
C89	C	-1.009255	-1.229341	0.605077
C90	C	-0.509255	-0.729341	1.105077
H91	H	-1.041401	-1.241781	0.545003
H92	H	-0.541401	-0.741781	1.045003
H93	H	-1.062638	-1.196661	0.656139
H94	H	-0.562638	-0.696661	1.156139
H95	H	-0.954575	-1.185754	0.587889
H96	H	-0.454575	-0.685754	1.087889
H97	H	-1.003175	-1.447718	0.863748
H98	H	-0.503175	-0.947718	1.363748
H99	H	-0.358168	-1.020020	0.751356
H100	H	0.141832	-0.520020	1.251356
H101	H	-0.340855	-1.489997	1.089076
H102	H	0.159145	-0.989997	1.589076
H103	H	-0.830589	-1.398960	0.505466
H104	H	-0.330589	-0.898960	1.005466
H105	H	-0.293690	-1.531089	1.266151
H106	H	0.206310	-1.031089	1.766151
H107	H	-0.540737	-1.315757	1.104166
H108	H	-0.040737	-0.815757	1.604166
H109	H	-0.476421	-0.827755	0.617992
H110	H	0.023579	-0.327755	1.117992
C111	C	-0.877554	-1.257369	0.812847
C112	C	-0.377554	-0.757369	1.312847
H113	H	-0.906750	-1.193068	0.786292
H114	H	-0.406750	-0.693068	1.286292
H115	H	-0.910531	-1.266083	0.881522
H116	H	-0.410531	-0.766083	1.381522
H117	H	-0.802009	-1.258306	0.812844
H118	H	-0.302009	-0.758306	1.312844
H119	H	-0.512812	-1.004784	0.576886
H120	H	-0.012812	-0.504784	1.076886
C121	C	-0.955743	-1.589447	0.556219
C122	C	-0.455743	-1.089447	1.056219
H123	H	-0.996526	-1.635376	0.596938
H124	H	-0.496526	-1.135376	1.096938
H125	H	-0.994890	-1.561653	0.502255
H126	H	-0.494890	-1.061653	1.002255
H127	H	-0.888992	-1.625944	0.527220
H128	H	-0.388992	-1.125944	1.027220
C129	C	-0.824386	-1.617454	0.764251
C130	C	-0.324386	-1.117454	1.264251
H131	H	-0.856262	-1.626703	0.833230
H132	H	-0.356262	-1.126703	1.333230
H133	H	-0.837129	-1.672560	0.722396
H134	H	-0.337129	-1.172560	1.222396
H135	H	-0.748915	-1.616919	0.763337
H136	H	-0.248915	-1.116919	1.263337
