data_functionalizedCrystal
_audit_creation_method	'MofGen! by Chris Wilmer'
_symmetry_space_group_name_H-M	'P1'
_symmetry_Int_Tables_number	1
_symmetry_cell_setting	triclinic
loop_
_symmetry_equiv_pos_as_xyz
  x,y,z
_cell_length_a	15.021413
_cell_length_b	11.026607
_cell_length_c	11.026607
_cell_angle_alpha	71.413983
_cell_angle_beta	89.993144
_cell_angle_gamma	89.991511
loop_
_atom_site_label
_atom_site_type_symbol
_atom_site_fract_x
_atom_site_fract_y
_atom_site_fract_z
O1	O	0.074030	-1.726737	0.533608
O2	O	0.074031	-1.360157	0.472845
O3	O	0.074027	-1.513065	0.319936
O4	O	0.074034	-1.573829	0.686516
O5	O	-0.074037	-1.513040	0.319958
O6	O	-0.074033	-1.360132	0.472866
O7	O	-0.074034	-1.726712	0.533629
Zn8	Zn	-0.097542	-1.543418	0.503251
Zn9	Zn	0.097539	-1.543451	0.503223
O10	O	-0.074031	-1.573804	0.686537
C11	C	-0.000001	-1.312485	0.461645
C12	C	-0.000000	-1.170471	0.428228
N13	N	-0.230680	-1.543404	0.503271
C14	C	-0.000000	-1.774384	0.544828
C15	C	0.000005	-1.916398	0.578245
C16	C	-0.470361	-1.472677	0.573930
C17	C	-0.529696	-1.593228	0.623818
C18	C	-0.412287	-1.543430	0.503246
C19	C	-0.529694	-1.422916	0.453394
C20	C	-0.587711	-1.543445	0.503223
C21	C	-0.470315	-1.664052	0.553204
C22	C	-0.470308	-1.493654	0.382714
C23	C	-0.529615	-1.614277	0.432570
C24	C	-0.311229	-1.543420	0.503263
C25	C	-0.688766	-1.543468	0.503209
N26	N	0.230677	-1.543472	0.503195
C27	C	-0.000004	-1.501843	0.272287
C28	C	-0.000000	-1.468426	0.130273
C29	C	0.000002	-1.116821	0.520498
C30	C	0.000003	-0.970043	0.485962
C31	C	0.000001	-1.560695	0.076624
C32	C	0.000004	-1.526160	-0.070155
C33	C	0.000002	-1.585026	0.734187
C34	C	0.000005	-1.618443	0.876200
H35	H	-0.555781	-1.635342	0.725742
N36	N	0.000022	-0.999477	0.716762
H37	H	0.000027	-0.943506	0.773591
H38	H	-0.054865	-1.055279	0.734654
N39	N	-0.435921	-1.799127	0.609193
H40	H	-0.368687	-1.798285	0.608891
H41	H	-0.458113	-1.836797	0.699945
H42	H	0.000010	-1.421590	-0.132884
H43	H	-0.444344	-1.412933	0.633784
H44	H	0.000021	-1.107738	0.323666
H45	H	-0.000005	-1.665258	0.139357
H46	H	-0.555469	-1.674200	0.372799
N47	N	-0.435725	-1.437843	0.247733
H48	H	-0.457287	-1.346753	0.210148
H49	H	-0.368498	-1.439125	0.248784
N50	N	-0.564253	-1.287915	0.397555
H51	H	-0.542700	-1.234550	0.451033
H52	H	-0.541718	-1.249858	0.307029
N53	N	0.000011	-1.756961	-0.040725
H54	H	0.000010	-1.762001	0.052353
H55	H	-0.054878	-1.800754	-0.059535
H56	H	-0.000001	-1.179555	0.625061
N57	N	-0.000011	-0.886966	0.347445
H58	H	-0.000012	-0.793888	0.342408
H59	H	0.054877	-0.905785	0.303629
H60	H	0.000006	-1.363863	0.067540
