data_functionalizedCrystal
_audit_creation_method	'MofGen! by Chris Wilmer'
_symmetry_space_group_name_H-M	'P1'
_symmetry_Int_Tables_number	1
_symmetry_cell_setting	triclinic
loop_
_symmetry_equiv_pos_as_xyz
  x,y,z
_cell_length_a	23.532407
_cell_length_b	14.185255
_cell_length_c	15.538191
_cell_angle_alpha	97.872362
_cell_angle_beta	114.939614
_cell_angle_gamma	103.079471
loop_
_atom_site_label
_atom_site_type_symbol
_atom_site_fract_x
_atom_site_fract_y
_atom_site_fract_z
O1	O	0.714622	-0.083293	-0.136062
O2	O	1.214622	0.416707	0.363938
O3	O	0.545383	-0.083322	-0.152647
O4	O	1.045383	0.416678	0.347353
O5	O	0.662945	-0.083306	-0.006917
O6	O	1.162945	0.416694	0.493083
O7	O	0.597059	-0.083308	-0.281793
O8	O	1.097059	0.416692	0.218207
O9	O	0.697682	0.083540	0.036133
O10	O	1.197682	0.583540	0.536133
O11	O	0.580120	0.083525	-0.109597
O12	O	1.080120	0.583525	0.390403
O13	O	0.749359	0.083554	-0.093012
O14	O	1.249359	0.583554	0.406988
Cu15	Cu	0.667911	0.098774	-0.097374
Cu16	Cu	1.167911	0.598774	0.402626
Cu17	Cu	0.626831	-0.098542	-0.148286
Cu18	Cu	1.126831	0.401458	0.351714
O19	O	0.631796	0.083539	-0.238742
O20	O	1.131796	0.583539	0.261258
C21	C	0.541620	0.000098	-0.130701
C22	C	1.041620	0.500098	0.369299
C23	C	0.478659	0.000087	-0.129435
C24	C	0.978659	0.500087	0.370565
N25	N	0.696809	0.237555	-0.061564
N26	N	1.196809	0.737555	0.438436
C27	C	0.781680	0.395092	0.043586
C28	C	1.281680	0.895092	0.543586
C29	C	0.759795	0.290063	0.016477
C30	C	1.259795	0.790063	0.516477
C31	C	0.655682	0.290065	-0.112523
C32	C	1.155682	0.790065	0.387477
C33	C	0.677557	0.395096	-0.085422
C34	C	1.177557	0.895096	0.414578
C35	C	0.740557	0.447602	-0.007367
C36	C	1.240557	0.947602	0.492633
C37	C	0.636433	0.447606	-0.136375
C38	C	1.136433	0.947606	0.363625
C39	C	0.658308	0.552628	-0.109278
C40	C	1.158308	1.052628	0.390722
C41	C	0.721306	0.605141	-0.031228
C42	C	1.221306	1.105141	0.468772
C43	C	0.762431	0.552624	0.019730
C44	C	1.262431	1.052624	0.519730
C45	C	0.573435	0.395099	-0.214434
C46	C	1.073435	0.895099	0.285566
C47	C	0.532312	0.447609	-0.265387
C48	C	1.032312	0.947609	0.234613
C49	C	0.554184	0.552633	-0.238286
C50	C	1.054184	1.052633	0.261714
C51	C	0.617183	0.605145	-0.160236
C52	C	1.117183	1.105145	0.339764
C53	C	0.513059	0.605150	-0.289244
C54	C	1.013059	1.105150	0.210756
C55	C	0.534934	0.710172	-0.262147
C56	C	1.034934	1.210172	0.237853
C57	C	0.639057	0.710168	-0.133140
C58	C	1.139057	1.210168	0.366860
C59	C	0.063651	0.000132	-0.207700
C60	C	0.563651	0.500132	0.292300
C61	C	0.004492	0.000138	-0.206520
C62	C	0.504492	0.500138	0.293480
O63	O	-0.046997	0.000174	-0.279074
O64	O	0.453003	0.500174	0.220926
N65	N	-0.000522	0.000137	-0.119885
N66	N	0.499478	0.500137	0.380115
C67	C	0.053631	0.000140	-0.034424
C68	C	0.553631	0.500140	0.465576
O69	O	0.043934	0.000140	0.039374
O70	O	0.543934	0.500140	0.539374
C71	C	0.112790	0.000141	-0.035604
C72	C	0.612790	0.500141	0.464396
C73	C	0.117797	0.000132	-0.122246
C74	C	0.617797	0.500132	0.377754
C75	C	0.068660	0.000124	-0.294335
C76	C	0.568660	0.500124	0.205665
C77	C	0.127815	0.000116	-0.295516
C78	C	0.627815	0.500116	0.204484
C79	C	0.181961	0.000116	-0.210062
C80	C	0.681961	0.500116	0.289938
C81	C	0.176952	0.000124	-0.123427
C82	C	0.676952	0.500124	0.376573
C83	C	0.166943	0.000151	0.049859
C84	C	0.666943	0.500151	0.549859
C85	C	0.226104	0.000153	0.048672
C86	C	0.726104	0.500153	0.548672
C87	C	0.231111	0.000144	-0.037970
C88	C	0.731111	0.500144	0.462030
C89	C	0.290253	0.000116	-0.039153
C90	C	0.790253	0.500116	0.460847
N91	N	0.295266	0.000117	-0.125787
N92	N	0.795266	0.500117	0.374213
C93	C	0.241120	0.000117	-0.211241
C94	C	0.741120	0.500117	0.288759
C95	C	-0.070609	0.000139	-0.031952
C96	C	0.429391	0.500139	0.468048
C97	C	-0.129769	0.000131	-0.030773
C98	C	0.370231	0.500131	0.469227
C99	C	-0.178903	0.000131	-0.202869
C100	C	0.321097	0.500131	0.297131
C101	C	-0.119744	0.000132	-0.204049
C102	C	0.380256	0.500132	0.295951
C103	C	-0.065596	0.000141	-0.118586
C104	C	0.434404	0.500141	0.381414
C105	C	0.365352	0.000099	-0.213715
C106	C	0.865352	0.500099	0.286285
C107	C	0.424513	0.000087	-0.214889
C108	C	0.924513	0.500087	0.285111
C109	C	0.473643	0.000092	-0.042792
C110	C	0.973643	0.500092	0.457208
C111	C	0.414486	0.000099	-0.041619
C112	C	0.914486	0.500099	0.458381
C113	C	0.360340	0.000106	-0.127087
C114	C	0.860340	0.500106	0.372913
O115	O	0.341770	0.000084	0.033364
O116	O	0.841770	0.500084	0.533364
O117	O	0.250830	0.000130	-0.285024
O118	O	0.750830	0.500130	0.214976
C119	C	0.753121	0.000132	-0.114959
C120	C	1.253121	0.500132	0.385041
C121	C	0.816081	0.000137	-0.116227
C122	C	1.316081	0.500137	0.383773
C123	C	0.687207	0.000115	0.049768
C124	C	1.187207	0.500115	0.549768
C125	C	0.707738	0.000108	0.154532
C126	C	1.207738	0.500108	0.654532
N127	N	0.597934	0.762677	-0.184093
N128	N	1.097934	1.262677	0.315907
C129	C	0.607535	0.000115	-0.295428
C130	C	1.107535	0.500115	0.204572
C131	C	0.587002	0.000115	-0.400193
C132	C	1.087002	0.500115	0.099807
C133	C	0.503745	0.000095	0.440410
C134	C	1.003745	0.500095	0.940410
C135	C	0.523055	0.000101	0.538858
C136	C	1.023055	0.500101	1.038858
C137	C	0.631663	0.000119	0.562322
C138	C	1.131663	0.500119	1.062322
C139	C	0.612362	0.000108	0.463873
C140	C	1.112362	0.500108	0.963873
C141	C	0.548402	0.000098	0.402925
C142	C	1.048402	0.500098	0.902925
C143	C	0.657019	0.000111	0.426387
C144	C	1.157019	0.500111	0.926387
C145	C	0.637720	0.000106	0.327948
C146	C	1.137720	0.500106	0.827948
C147	C	0.573764	0.000098	0.266994
C148	C	1.073764	0.500098	0.766994
C149	C	0.529103	0.000093	0.304485
C150	C	1.029103	0.500093	0.804485
C151	C	0.720979	0.000129	0.487339
C152	C	1.220979	0.500129	0.987339
C153	C	0.765636	0.000131	0.449853
C154	C	1.265636	0.500131	0.949853
C155	C	0.746336	0.000119	0.351410
C156	C	1.246336	0.500119	0.851410
C157	C	0.682380	0.000111	0.290457
C158	C	1.182380	0.500111	0.790457
C159	C	0.790997	0.000124	0.313920
C160	C	1.290997	0.500124	0.813920
C161	C	0.771698	0.000119	0.215480
C162	C	1.271698	0.500119	0.715480
C163	C	0.663081	0.000106	0.192018
C164	C	1.163081	0.500106	0.692018
H165	H	0.690356	0.752919	-0.069573
H166	H	1.190356	1.252919	0.430427
H167	H	0.558053	0.000100	0.186841
H168	H	1.058053	0.500100	0.686841
F169	F	0.848729	0.450975	0.126671
F170	F	1.348729	0.950975	0.626671
H171	H	0.736689	0.000124	0.567491
H172	H	1.236689	0.500124	1.067491
F173	F	-0.114421	0.000125	-0.296264
F174	F	0.385579	0.500125	0.203736
F175	F	0.595006	0.000085	0.127144
F176	F	1.095006	0.500085	0.627144
H177	H	0.808062	0.000122	0.184960
H178	H	1.308062	0.500122	0.684960
H179	H	0.683740	0.000131	0.611960
H180	H	1.183740	0.500131	1.111960
H181	H	0.817713	0.000144	0.499491
H182	H	1.317713	0.500144	0.999491
H183	H	-0.133841	0.000123	0.039775
H184	H	0.366159	0.500123	0.539775
H185	H	0.843075	0.000143	0.363560
H186	H	1.343075	0.500143	0.863560
F187	F	0.550159	0.283323	-0.243272
F188	F	1.050159	0.783323	0.256728
F189	F	0.475520	0.000104	0.578750
F190	F	0.975520	0.500104	1.078750
H191	H	0.739117	0.690657	-0.009170
H192	H	1.239117	1.190657	0.490830
H193	H	0.270192	0.000160	0.118268
H194	H	0.770192	0.500160	0.618268
F195	F	0.161626	0.000147	0.142073
F196	F	0.661626	0.500147	0.642073
F197	F	-0.012984	0.000139	0.059013
F198	F	0.487016	0.500139	0.559013
H199	H	0.813730	0.595376	0.083296
H200	H	1.313730	1.095376	0.583296
H201	H	0.410407	0.000092	0.028928
H202	H	0.910407	0.500092	0.528928
H203	H	0.024578	0.000128	-0.363926
H204	H	0.524578	0.500128	0.136074
H205	H	0.481017	0.404847	-0.328942
H206	H	0.981017	0.904847	0.171058
H207	H	0.793289	0.247315	0.057975
H208	H	1.293289	0.747315	0.557975
F209	F	0.446015	0.549259	-0.372322
F210	F	0.946015	1.049259	0.127678
F211	F	0.588635	0.234176	-0.195596
F212	F	1.088635	0.734176	0.304404
H213	H	0.501447	0.752926	-0.303640
H214	H	1.001447	1.252926	0.196360
H215	H	0.428583	0.000079	-0.285447
H216	H	0.928583	0.500079	0.214553
F217	F	0.307733	0.000107	-0.304679
F218	F	0.807733	0.500107	0.195321
F219	F	0.531278	0.000094	0.048150
F220	F	1.031278	0.500094	0.548150
F221	F	0.133136	0.000111	-0.387732
F222	F	0.633136	0.500111	0.112268
H223	H	-0.223000	0.000136	-0.272449
H224	H	0.277000	0.500136	0.227551
F225	F	0.461028	0.000072	0.239611
F226	F	0.961028	0.500072	0.739611
F227	F	0.435670	0.000074	0.375536
F228	F	0.935670	0.500074	0.875536
