data_functionalizedCrystal
_audit_creation_method	'MofGen! by Chris Wilmer'
_symmetry_space_group_name_H-M	'P1'
_symmetry_Int_Tables_number	1
_symmetry_cell_setting	triclinic
loop_
_symmetry_equiv_pos_as_xyz
  x,y,z
_cell_length_a	18.215407
_cell_length_b	18.215405
_cell_length_c	18.215399
_cell_angle_alpha	89.969449
_cell_angle_beta	89.982632
_cell_angle_gamma	90.022329
loop_
_atom_site_label
_atom_site_type_symbol
_atom_site_fract_x
_atom_site_fract_y
_atom_site_fract_z
Zn1	Zn	1.125072	-0.293042	-0.416054
Zn2	Zn	1.124980	-0.416113	-0.292982
Zn3	Zn	1.002004	-0.293060	-0.293007
Zn4	Zn	1.001970	-0.416066	-0.416012
O5	O	1.063507	-0.354570	-0.354514
O6	O	1.228044	-0.309380	-0.399736
O7	O	1.108643	-0.399817	-0.190001
O8	O	1.018382	-0.190073	-0.309357
O9	O	1.227977	-0.399800	-0.309315
O10	O	1.108799	-0.190060	-0.399759
O11	O	1.018293	-0.309410	-0.190019
O12	O	0.899016	-0.309364	-0.309317
O13	O	1.018324	-0.399719	-0.519002
O14	O	0.898991	-0.399736	-0.399688
O15	O	1.108766	-0.309334	-0.519033
O16	O	1.108610	-0.519091	-0.309275
O17	O	1.018235	-0.519056	-0.399665
C18	C	0.872301	-0.354548	-0.354501
C19	C	0.790502	-0.354556	-0.354513
C20	C	0.602342	-0.307571	-0.401669
C21	C	0.525483	-0.307577	-0.401672
C22	C	0.525424	-0.401590	-0.307372
C23	C	0.602281	-0.401580	-0.307366
C24	C	0.640738	-0.354571	-0.354519
C25	C	0.487022	-0.354588	-0.354527
C26	C	0.403688	-0.354595	-0.354529
C27	C	0.724077	-0.354563	-0.354516
C28	C	1.063429	-0.545777	-0.354479
C29	C	1.063463	-0.627575	-0.354488
C30	C	1.110632	-0.815763	-0.307509
C31	C	1.110665	-0.892622	-0.307526
C32	C	1.016476	-0.892625	-0.401572
C33	C	1.016447	-0.815768	-0.401557
C34	C	1.063524	-0.777339	-0.354522
C35	C	1.063586	-0.931055	-0.354554
C36	C	1.063621	-1.014389	-0.354574
C37	C	1.063490	-0.694000	-0.354503
C38	C	1.255460	-0.354593	-0.354527
C39	C	1.337259	-0.354603	-0.354533
C40	C	1.063552	-0.354520	-0.546467
C41	C	1.063571	-0.354498	-0.628266
C42	C	1.063605	-0.162617	-0.354566
C43	C	1.063647	-0.080818	-0.354588
C44	C	1.110681	-0.307390	-0.816477
C45	C	1.110690	-0.307369	-0.893336
C46	C	1.016513	-0.401492	-0.893293
C47	C	1.016501	-0.401509	-0.816435
C48	C	1.063589	-0.354459	-0.778029
C49	C	1.063610	-0.354421	-0.931746
C50	C	1.063619	-0.354398	-1.015079
C51	C	1.063579	-0.354481	-0.694690
C52	C	1.063504	-0.354568	-0.163308
C53	C	1.063628	-0.354382	-0.081509
H54	H	0.494103	-0.439864	-0.268982
C55	C	0.964625	-0.773497	-0.453276
C56	C	0.880970	-0.784126	-0.447198
C57	C	0.829154	-0.741855	-0.498917
C58	C	0.860993	-0.688954	-0.556714
C59	C	0.944652	-0.678322	-0.562795
C60	C	0.996468	-0.720593	-0.511076
H61	H	0.857397	-0.823289	-0.404411
H62	H	0.767224	-0.749725	-0.494416
H63	H	0.822635	-0.657662	-0.595000
H64	H	0.968225	-0.639159	-0.605582
H65	H	1.058399	-0.712723	-0.515577
H66	H	0.978148	-0.439837	-0.785130
H67	H	0.978177	-0.439799	-0.924572
H68	H	0.633544	-0.439854	-0.268967
H69	H	0.978146	-0.923924	-0.439866
H70	H	1.148966	-0.784476	-0.269210
C71	C	1.162484	-0.934888	-0.255811
C72	C	1.214266	-0.892615	-0.204078
C73	C	1.266089	-0.934881	-0.152361
C74	C	1.266130	-1.019421	-0.152378
C75	C	1.214346	-1.061699	-0.204113
C76	C	1.162523	-1.019433	-0.255830
H77	H	1.214237	-0.830029	-0.204064
H78	H	1.304423	-0.903583	-0.114064
H79	H	1.304493	-1.050709	-0.114095
H80	H	1.214375	-1.124285	-0.204127
H81	H	1.124189	-1.050731	-0.294127
H82	H	1.149021	-0.269078	-0.785209
H83	H	1.149035	-0.269039	-0.924636
C84	C	0.644646	-0.255856	-0.453528
C85	C	0.697497	-0.287805	-0.511249
C86	C	0.739799	-0.236086	-0.563107
C87	C	0.729251	-0.152419	-0.557244
C88	C	0.676398	-0.120466	-0.499521
C89	C	0.634095	-0.172185	-0.447663
H90	H	0.705308	-0.349744	-0.515591
H91	H	0.778925	-0.259741	-0.605837
H92	H	0.760566	-0.114134	-0.595633
H93	H	0.668587	-0.058527	-0.495179
H94	H	0.594970	-0.148530	-0.404933
C95	C	0.483247	-0.255878	-0.453540
C96	C	0.525551	-0.204172	-0.505403
C97	C	0.483315	-0.152470	-0.557273
C98	C	0.398775	-0.152473	-0.557280
C99	C	0.356466	-0.204181	-0.505415
C100	C	0.398702	-0.255883	-0.453545
H101	H	0.588137	-0.204168	-0.505400
H102	H	0.514636	-0.114192	-0.595667
H103	H	0.367510	-0.114200	-0.595677
H104	H	0.293880	-0.204185	-0.505418
H105	H	0.367382	-0.294161	-0.415151
