data_functionalizedCrystal
_audit_creation_method	'MofGen! by Chris Wilmer'
_symmetry_space_group_name_H-M	'P1'
_symmetry_Int_Tables_number	1
_symmetry_cell_setting	triclinic
loop_
_symmetry_equiv_pos_as_xyz
  x,y,z
_cell_length_a	24.447405
_cell_length_b	24.446649
_cell_length_c	24.443239
_cell_angle_alpha	60.006064
_cell_angle_beta	60.011844
_cell_angle_gamma	59.992812
loop_
_atom_site_label
_atom_site_type_symbol
_atom_site_fract_x
_atom_site_fract_y
_atom_site_fract_z
O1	O	0.075907	-0.799232	0.668277
O2	O	0.028634	-0.622262	0.538455
O3	O	0.140702	-0.734230	0.538349
O4	O	-0.036160	-0.687265	0.668384
O5	O	0.177886	-0.697056	0.575424
O6	O	0.065818	-0.585088	0.575530
O7	O	0.113091	-0.762059	0.705353
Cu8	Cu	0.092850	-0.670179	0.643827
Cu9	Cu	0.048876	-0.714142	0.599981
O10	O	0.001024	-0.650091	0.705459
N11	N	0.123780	-0.639263	0.674669
N12	N	0.017951	-0.745064	0.569139
C13	C	0.170236	-0.489965	0.721065
C14	C	0.170249	-0.592837	0.721058
C15	C	0.195989	-0.567121	0.746758
C16	C	0.308182	-0.547773	0.687664
C17	C	0.378316	-0.571143	0.664253
C18	C	0.378353	-0.684626	0.707525
C19	C	0.308220	-0.661254	0.730938
C20	C	0.187125	-0.454882	0.652117
C21	C	0.163710	-0.384741	0.628763
C22	C	0.106523	-0.384772	0.743308
C23	C	0.129938	-0.454913	0.766662
C24	C	0.101291	-0.575906	0.738041
C25	C	0.077897	-0.599283	0.714670
C26	C	0.192412	-0.656523	0.657348
C27	C	0.215809	-0.633146	0.680711
C28	C	0.101393	-0.575928	0.859014
C29	C	0.078071	-0.599328	0.929152
C30	C	0.192636	-0.656582	0.929078
C31	C	0.215955	-0.633184	0.858938
C32	C	0.170332	-0.592855	0.823908
C33	C	0.273137	-0.592827	0.721004
C34	C	-0.131205	-0.791294	0.522327
C35	C	-0.028388	-0.791420	0.522551
C36	C	-0.054056	-0.817099	0.496741
C37	C	-0.073479	-0.929255	0.555734
C38	C	-0.050156	-0.999396	0.579142
C39	C	0.063326	-0.999525	0.536064
C40	C	0.040001	-0.929386	0.512654
C41	C	-0.166365	-0.808188	0.591256
C42	C	-0.236499	-0.784726	0.614512
C43	C	-0.236309	-0.727482	0.499907
C44	C	-0.166175	-0.750944	0.476651
C45	C	-0.045285	-0.722468	0.505590
C46	C	-0.021951	-0.699130	0.529061
C47	C	0.035176	-0.813691	0.586439
C48	C	0.011842	-0.837031	0.562976
C49	C	-0.045097	-0.722476	0.384488
C50	C	-0.021613	-0.699140	0.314350
C51	C	0.035607	-0.813706	0.314419
C52	C	0.012124	-0.837041	0.384558
C53	C	-0.028229	-0.791425	0.419591
C54	C	-0.028402	-0.894253	0.522492
N55	N	0.412405	-0.639229	0.674505
O56	O	0.626552	-0.645384	0.514503
O57	O	0.626802	-0.775625	0.691288
O58	O	0.626698	-0.775326	0.579168
O59	O	0.626656	-0.645683	0.626623
O60	O	0.515277	-0.738265	0.616407
O61	O	0.515382	-0.738564	0.728527
O62	O	0.515131	-0.608323	0.551742
Cu63	Cu	0.505083	-0.670059	0.643535
Cu64	Cu	0.636850	-0.713889	0.599495
O65	O	0.515236	-0.608622	0.663862
N66	N	0.729529	-0.744719	0.568518
N67	N	0.123755	-0.350686	0.674680
O68	O	-0.036153	-0.136410	0.668391
O69	O	0.140633	-0.136380	0.538141
O70	O	0.028472	-0.136412	0.538488
O71	O	0.076007	-0.136377	0.668044
O72	O	0.065663	-0.247842	0.575621
O73	O	0.177823	-0.247810	0.575274
O74	O	0.001037	-0.247840	0.705524
Cu75	Cu	0.092826	-0.258000	0.643789
Cu76	Cu	0.048844	-0.126220	0.599875
O77	O	0.113198	-0.247808	0.705177
N78	N	0.017907	-0.033534	0.568986
N79	N	0.124013	-0.639306	0.963182
O80	O	0.117754	-0.799195	1.177439
O81	O	-0.012458	-0.622342	1.177485
O82	O	-0.012155	-0.734480	1.177444
O83	O	0.117450	-0.687057	1.177480
O84	O	0.024954	-0.697317	1.066020
O85	O	0.024650	-0.585179	1.066061
O86	O	0.154862	-0.762032	1.066014
Cu87	Cu	0.093145	-0.670212	1.055863
Cu88	Cu	0.049259	-0.714162	1.187636
O89	O	0.154559	-0.649894	1.066055
N90	N	0.018389	-0.745075	1.280318
C91	C	0.042795	-0.581375	0.539107
C92	C	0.181576	-0.720034	0.538975
C93	C	0.098930	-0.802946	0.704700
C94	C	-0.039851	-0.664287	0.704832
C95	C	0.571122	-0.775030	0.732180
C96	C	0.570995	-0.774660	0.593332
C97	C	0.570808	-0.608917	0.510851
C98	C	0.570939	-0.609288	0.649698
C99	C	0.181453	-0.191954	0.538725
C100	C	0.042602	-0.192131	0.539201
C101	C	-0.039829	-0.192128	0.704893
C102	C	0.099069	-0.192090	0.704464
C103	C	-0.011836	-0.581480	1.121779
C104	C	-0.011453	-0.720342	1.121706
C105	C	0.154240	-0.802894	1.121720
C106	C	0.153865	-0.664024	1.121769
H107	H	0.064236	-0.543084	0.830495
C108	C	-0.123132	-0.521575	1.179071
C109	C	-0.067028	-0.512914	1.121794
H110	H	-0.157205	-0.479245	1.179076
H111	H	-0.110947	-0.541619	1.217920
H112	H	-0.139298	-0.549727	1.179052
H113	H	-0.050859	-0.484766	1.121815
H114	H	-0.079214	-0.492860	1.082934
H115	H	0.194582	-0.653876	1.121771
H116	H	0.032420	-0.192135	0.498498
H117	H	0.232119	-0.191636	0.497733
C118	C	0.232580	-0.762786	0.644536
C119	C	0.242484	-0.700815	0.612985
H120	H	0.263494	-0.790124	0.617140
H121	H	0.188166	-0.756045	0.651308
H122	H	0.239374	-0.784222	0.686554
H123	H	0.235685	-0.679377	0.570969
H124	H	0.286909	-0.707555	0.606205
H125	H	0.109248	-0.192079	0.745165
H126	H	0.109031	-0.853782	0.745475
H127	H	0.571013	-0.815386	0.583175
H128	H	0.232372	-0.730046	0.498140
C129	C	-0.024700	-0.500785	0.468677
C130	C	0.029166	-0.512752	0.484056
H131	H	-0.033110	-0.458421	0.434688
H132	H	-0.063431	-0.500970	0.507641
H133	H	-0.014083	-0.534844	0.453261
H134	H	0.018547	-0.478695	0.499477
H135	H	0.067906	-0.512561	0.445085
H136	H	0.571186	-0.815915	0.782955
H137	H	-0.090599	-0.192138	0.745784
C138	C	0.570679	-0.577571	0.400832
C139	C	0.570703	-0.553712	0.442315
H140	H	0.570617	-0.543490	0.358520
H141	H	0.531850	-0.589775	0.420903
H142	H	0.609560	-0.615624	0.394930
H143	H	0.531818	-0.515662	0.448221
H144	H	0.609535	-0.541499	0.422239
C145	C	-0.084355	-0.688418	1.064336
C146	C	-0.066401	-0.734007	1.121629
H147	H	-0.118281	-0.696853	1.064292
H148	H	-0.046245	-0.693417	1.025497
H149	H	-0.100726	-0.644064	1.064369
H150	H	-0.050025	-0.778361	1.121593
H151	H	-0.104518	-0.729013	1.160477
H152	H	0.195123	-0.853684	1.121698
H153	H	0.021932	-0.585534	0.957726
H154	H	0.229790	-0.689406	0.957592
C155	C	0.513601	-0.498170	0.656082
C156	C	0.570923	-0.554305	0.663396
H157	H	0.513596	-0.464225	0.664534
H158	H	0.474785	-0.510404	0.687015
H159	H	0.513553	-0.481805	0.611733
H160	H	0.570968	-0.570673	0.707747
H161	H	0.609749	-0.542070	0.632462
H162	H	-0.090650	-0.654278	0.745664
H163	H	0.272095	-0.646975	0.830359
H164	H	0.064189	-0.543085	0.770891
C165	C	-0.032953	-0.540374	0.773696
C166	C	0.002098	-0.580684	0.733341
H167	H	-0.079748	-0.528898	0.785227
H168	H	-0.021486	-0.500710	0.749903
H169	H	-0.021405	-0.564184	0.813333
H170	H	-0.009446	-0.556872	0.693702
H171	H	-0.009374	-0.620355	0.757134
H172	H	0.271959	-0.646925	0.666876
H173	H	0.279688	-0.697946	0.758086
H174	H	0.406848	-0.534453	0.637104
C175	C	0.399945	-0.781216	0.687203
C176	C	0.416925	-0.759843	0.718434
H177	H	0.423754	-0.827652	0.693942
H178	H	0.411404	-0.756756	0.640571
H179	H	0.353159	-0.773745	0.705924
H180	H	0.463710	-0.767310	0.699709
H181	H	0.405469	-0.784310	0.765076
C182	C	0.315197	-0.437949	0.642538
C183	C	0.269621	-0.472556	0.676747
H184	H	0.291388	-0.391514	0.635802
H185	H	0.342523	-0.444452	0.600398
H186	H	0.342581	-0.454406	0.668223
H187	H	0.242240	-0.456103	0.651060
H188	H	0.242282	-0.466050	0.718893
H189	H	0.177459	-0.356175	0.572617
C190	C	0.241282	-0.447805	0.536546
C191	C	0.231413	-0.493413	0.601999
H192	H	0.268620	-0.471594	0.505605
H193	H	0.262695	-0.420446	0.529797
H194	H	0.199221	-0.420451	0.529847
H195	H	0.273473	-0.520764	0.608700
H196	H	0.210001	-0.520784	0.608751
C197	C	0.071062	-0.447902	0.877546
C198	C	0.111378	-0.493481	0.842456
H199	H	0.059607	-0.471714	0.924337
H200	H	0.031390	-0.420552	0.866072
H201	H	0.094854	-0.420537	0.866033
H202	H	0.087584	-0.520843	0.853965
H203	H	0.151056	-0.520843	0.853935
H204	H	0.073721	-0.356231	0.780438
H205	H	-0.077958	-0.685325	0.413008
C206	C	-0.109914	-0.594258	0.292606
C207	C	-0.040170	-0.623345	0.275772
H208	H	-0.121369	-0.547467	0.268785
H209	H	-0.129664	-0.601631	0.339386
H210	H	-0.126007	-0.613943	0.281054
H211	H	-0.024078	-0.603664	0.287329
H212	H	-0.020413	-0.615967	0.228982
C213	C	0.089795	-0.929296	0.321543
C214	C	0.079953	-0.863851	0.275916
H215	H	0.117177	-0.960253	0.297772
H216	H	0.047737	-0.935972	0.348826
H217	H	0.111156	-0.936050	0.348968
H218	H	0.058588	-0.857095	0.248495
H219	H	0.122019	-0.857173	0.248622
H220	H	-0.078038	-0.685325	0.472673
C221	C	-0.080725	-0.588229	0.469950
C222	C	-0.040499	-0.623337	0.510400
H223	H	-0.092165	-0.541438	0.458421
H224	H	-0.120408	-0.599653	0.493673
H225	H	-0.056875	-0.599778	0.430316
H226	H	-0.064351	-0.611791	0.550037
H227	H	-0.000810	-0.611908	0.486677
C228	C	-0.027833	-0.929693	0.463375
C229	C	0.030666	-0.912835	0.423146
H230	H	-0.016386	-0.976483	0.487199
H231	H	-0.051565	-0.918173	0.435943
H232	H	-0.055219	-0.905862	0.494274
H233	H	0.058049	-0.936662	0.392243
H234	H	0.054407	-0.924361	0.450580
H235	H	0.025599	-0.893178	0.576787
C236	C	0.137871	-0.904215	0.595857
C237	C	0.079400	-0.863832	0.630868
H238	H	0.165170	-0.935173	0.623290
H239	H	0.161714	-0.876892	0.556239
H240	H	0.126382	-0.927975	0.584308
H241	H	0.090889	-0.840067	0.642413
H242	H	0.055553	-0.891158	0.670498
C243	C	0.154517	-0.936562	0.472432
C244	C	0.089554	-0.890910	0.476115
H245	H	0.185107	-0.912807	0.449876
H246	H	0.166274	-0.963922	0.448523
H247	H	0.156230	-0.963910	0.516401
H248	H	0.087840	-0.863564	0.432145
H249	H	0.077794	-0.863538	0.500023
C250	C	-0.144419	-0.756137	0.371778
C251	C	-0.127518	-0.732383	0.400879
H252	H	-0.120550	-0.744681	0.325001
H253	H	-0.191186	-0.736385	0.379088
H254	H	-0.132971	-0.803456	0.391502
H255	H	-0.138971	-0.685063	0.381158
H256	H	-0.080741	-0.752132	0.393564
C257	C	-0.164691	-0.992223	0.619517
C258	C	-0.099719	-1.037873	0.615780
H259	H	-0.195294	-1.015980	0.642168
H260	H	-0.166461	-0.964916	0.575566
H261	H	-0.176387	-0.964822	0.643362
H262	H	-0.088022	-1.065271	0.591931
H263	H	-0.097947	-1.065192	0.659738
C264	C	-0.158128	-0.850305	0.504355
C265	C	-0.148665	-0.890627	0.566534
H266	H	-0.204544	-0.826452	0.511020
H267	H	-0.141656	-0.877681	0.478665
H268	H	-0.134608	-0.819430	0.481214
H269	H	-0.172180	-0.921506	0.589673
H270	H	-0.165145	-0.863250	0.592233
C271	C	0.147995	-1.078469	0.587428
C272	C	0.138517	-1.038147	0.525255
H273	H	0.194415	-1.102307	0.580753
H274	H	0.124492	-1.109352	0.610569
H275	H	0.131516	-1.051090	0.613123
H276	H	0.154992	-1.065526	0.499563
H277	H	0.162030	-1.007261	0.502104
H278	H	-0.137894	-0.841050	0.628449
H279	H	-0.264783	-0.694634	0.462714
C280	C	-0.229646	-0.843679	0.725464
C281	C	-0.275151	-0.803302	0.690285
H282	H	-0.253509	-0.855152	0.772242
H283	H	-0.202288	-0.819924	0.714037
H284	H	-0.202287	-0.883348	0.713979
H285	H	-0.302507	-0.763630	0.701767
H286	H	-0.302521	-0.827057	0.701717
