data_functionalizedCrystal
_audit_creation_method	'MofGen! by Chris Wilmer'
_symmetry_space_group_name_H-M	'P1'
_symmetry_Int_Tables_number	1
_symmetry_cell_setting	triclinic
loop_
_symmetry_equiv_pos_as_xyz
  x,y,z
_cell_length_a	26.210047
_cell_length_b	15.538191
_cell_length_c	27.732064
_cell_angle_alpha	115.039241
_cell_angle_beta	90.008557
_cell_angle_gamma	90.007287
loop_
_atom_site_label
_atom_site_type_symbol
_atom_site_fract_x
_atom_site_fract_y
_atom_site_fract_z
O1	O	-0.042446	-1.252193	-0.157396
O2	O	-0.042442	-0.977126	-0.101443
O3	O	-0.042446	-1.123194	-0.201280
O4	O	-0.042442	-1.106124	-0.057558
O5	O	0.042412	-1.123166	-0.201264
O6	O	0.042416	-0.977098	-0.101426
O7	O	0.042412	-1.252164	-0.157379
Cu8	Cu	0.050162	-1.114628	-0.129401
Cu9	Cu	-0.050192	-1.114662	-0.129421
O10	O	0.042416	-1.106096	-0.057542
C11	C	-0.000012	-0.941932	-0.095580
C12	C	-0.000011	-0.837106	-0.078143
N13	N	0.120746	-1.114612	-0.129389
N14	N	-0.120776	-1.114686	-0.129438
C15	C	0.473258	-1.179334	-0.173620
C16	C	0.686917	-1.179355	-0.173631
O17	O	0.714537	-1.234348	-0.211229
N18	N	0.713640	-1.114667	-0.129432
C19	C	0.686945	-1.049965	-0.085230
O20	O	0.714577	-0.994938	-0.047639
C21	C	0.473288	-1.049940	-0.085221
C22	C	0.446567	-1.114639	-0.129420
C23	C	0.446538	-1.244027	-0.217816
C24	C	0.393126	-1.244024	-0.217812
C25	C	0.366435	-1.179329	-0.173612
C26	C	0.393156	-1.114637	-0.129416
C27	C	0.446594	-0.985235	-0.041021
C28	C	0.393176	-0.985233	-0.041023
C29	C	0.366456	-1.049931	-0.085222
C30	C	0.313053	-1.049939	-0.085212
N31	N	0.286330	-1.114627	-0.129410
C32	C	0.313021	-1.179322	-0.173610
C33	C	0.799118	-1.049984	-0.085237
C34	C	0.852533	-1.049991	-0.085238
C35	C	0.852500	-1.179380	-0.173640
C36	C	0.799085	-1.179377	-0.173636
C37	C	0.772395	-1.114672	-0.129435
C38	C	0.200853	-1.179313	-0.173598
C39	C	0.147437	-1.179307	-0.173589
C40	C	0.147474	-1.049915	-0.085189
C41	C	0.200885	-1.049923	-0.085196
C42	C	0.227574	-1.114626	-0.129406
O43	O	0.285400	-0.994968	-0.047636
O44	O	0.285380	-1.234327	-0.211200
C45	C	0.526670	-1.179337	-0.173625
C46	C	0.553390	-1.114644	-0.129429
C47	C	0.526699	-1.049949	-0.085229
C48	C	0.606804	-1.114651	-0.129430
C49	C	0.633495	-1.179346	-0.173630
C50	C	0.606772	-1.244034	-0.217829
C51	C	0.553361	-1.244032	-0.217824
C52	C	0.553422	-0.985261	-0.041031
C53	C	0.606834	-0.985269	-0.041038
C54	C	0.633525	-1.049964	-0.085238
C55	C	-0.000019	-1.122819	-0.219217
C56	C	-0.000024	-1.121733	-0.272685
C57	C	-0.000019	-1.287359	-0.163242
C58	C	-0.000024	-1.392184	-0.180680
C59	C	-0.000024	-0.551817	-0.251382
C60	C	-0.000024	-0.453315	-0.234984
C61	C	-0.000021	-0.429540	-0.142751
C62	C	-0.000019	-0.528042	-0.159141
C63	C	-0.000021	-0.589174	-0.213457
C64	C	-0.000015	-0.565399	-0.121217
C65	C	-0.000016	-0.663893	-0.137605
C66	C	-0.000019	-0.725030	-0.191919
C67	C	-0.000021	-0.687668	-0.229846
C68	C	-0.000017	-0.504266	-0.066901
C69	C	-0.000014	-0.541622	-0.028976
C70	C	-0.000010	-0.640118	-0.045365
C71	C	-0.000014	-0.701255	-0.099678
C72	C	-0.000009	-0.677481	-0.007438
C73	C	-0.000009	-0.775975	-0.023827
C74	C	-0.000014	-0.799750	-0.116067
C75	C	-0.000024	-1.028020	-0.633674
C76	C	-0.000025	-1.032017	-0.432700
O77	O	-0.000044	-0.959299	-0.388967
N78	N	-0.000026	-1.118633	-0.428438
C79	C	-0.000031	-1.204256	-0.474424
O80	O	-0.000037	-1.278019	-0.466187
C81	C	-0.000034	-1.200257	-0.675397
C82	C	-0.000027	-1.113636	-0.679655
C83	C	-0.000018	-0.941405	-0.637934
C84	C	-0.000015	-0.940407	-0.688175
C85	C	-0.000018	-1.026023	-0.734156
C86	C	-0.000024	-1.112637	-0.729896
C87	C	-0.000042	-1.285878	-0.721382
C88	C	-0.000044	-1.284871	-0.771626
C89	C	-0.000038	-1.198250	-0.775884
C90	C	-0.000024	-1.197254	-0.826117
N91	N	-0.000023	-1.110639	-0.830379
C92	C	-0.000020	-1.025023	-0.784399
C93	C	-0.000028	-1.206349	-0.368909
C94	C	-0.000027	-1.207349	-0.318666
C95	C	-0.000022	-1.035110	-0.276945
C96	C	-0.000020	-1.034111	-0.327189
C97	C	-0.000027	-1.119733	-0.373171
C98	C	-0.000013	-1.022932	-0.889909
C99	C	-0.000008	-1.021941	-0.940156
C100	C	-0.000016	-1.194180	-0.981872
C101	C	-0.000018	-1.195171	-0.931630
C102	C	-0.000019	-1.109540	-0.885648
O103	O	-0.000011	-1.269934	-0.869872
O104	O	-0.000025	-0.951270	-0.792647
C105	C	-0.000027	-1.029018	-0.583434
C106	C	-0.000033	-1.115633	-0.579174
C107	C	-0.000036	-1.201248	-0.625154
C108	C	-0.000032	-1.116632	-0.528931
C109	C	-0.000028	-1.031017	-0.482950
C110	C	-0.000027	-0.944401	-0.487212
C111	C	-0.000024	-0.943402	-0.537453
C112	C	-0.000038	-1.287864	-0.620892
C113	C	-0.000040	-1.288856	-0.570650
C114	C	-0.000037	-1.203240	-0.524669
C115	C	-0.000013	-1.106471	-0.039605
C116	C	-0.000011	-1.107557	0.013863
H117	H	0.125683	-1.231996	-0.209582
H118	H	-0.000026	-0.805230	-0.205261
H119	H	-0.000041	-1.359398	-0.567191
H120	H	-0.000020	-0.737445	-0.274075
H121	H	-0.000048	-1.356415	-0.717925
F122	F	-0.000017	-0.399439	-0.049460
H123	H	0.468342	-0.932551	-0.005030
F124	F	0.119059	-0.981066	-0.038149
F125	F	0.229249	-1.248177	-0.220651
F126	F	0.474937	-1.312889	-0.264864
F127	F	-0.000021	-0.413562	-0.275353
H128	H	-0.000012	-0.963576	-0.330651
H129	H	-0.000053	-1.354597	-0.809065
H130	H	-0.000017	-0.965398	-0.239498
H131	H	0.777333	-1.232059	-0.209627
H132	H	0.777391	-0.997292	-0.049241
F133	F	-0.000015	-0.476553	0.028829
F134	F	-0.000040	-1.378994	-0.669824
F135	F	0.364693	-1.312881	-0.264856
F136	F	-0.000022	-0.364470	-0.084946
H137	H	-0.000002	-0.806390	0.007055
H138	H	-0.000013	-0.849527	-0.160296
F139	F	-0.000034	-1.297486	-0.417842
H140	H	-0.000000	-0.951401	-0.943618
F141	F	-0.000009	-1.287362	-0.927098
H142	H	-0.000023	-0.601595	-0.295611
H143	H	-0.000014	-0.869871	-0.691635
H144	H	-0.000012	-0.627693	0.036786
F145	F	0.364774	-0.916360	0.006023
H146	H	0.874241	-1.232059	-0.209629
F147	F	-0.000013	-0.931794	-0.840978
H148	H	0.874285	-0.997317	-0.049244
H149	H	-0.000017	-0.871682	-0.600499
F150	F	-0.000026	-1.299543	-0.314140
H151	H	-0.000016	-1.263886	-1.019318
F152	F	-0.000018	-0.851207	-0.541977
F153	F	-0.000021	-0.853282	-0.438267
H154	H	0.531609	-1.296715	-0.253815
F155	F	0.229322	-0.981073	-0.038151
F156	F	0.635266	-0.916408	0.006009
F157	F	0.635188	-1.312891	-0.264869
H158	H	0.531695	-0.932577	-0.005038
