data_functionalizedCrystal
_audit_creation_method	'MofGen! by Chris Wilmer'
_symmetry_space_group_name_H-M	'P1'
_symmetry_Int_Tables_number	1
_symmetry_cell_setting	triclinic
loop_
_symmetry_equiv_pos_as_xyz
  x,y,z
_cell_length_a	27.732048
_cell_length_b	12.837942
_cell_length_c	11.295483
_cell_angle_alpha	85.469583
_cell_angle_beta	85.926381
_cell_angle_gamma	91.264203
loop_
_atom_site_label
_atom_site_type_symbol
_atom_site_fract_x
_atom_site_fract_y
_atom_site_fract_z
O1	O	0.649968	-0.116220	-0.099093
O2	O	0.510103	-0.134962	-0.099081
O3	O	0.576934	0.025262	-0.099079
O4	O	0.583137	-0.276444	-0.099094
O5	O	0.571063	0.011210	0.098972
O6	O	0.504232	-0.149013	0.098970
O7	O	0.644097	-0.130272	0.098958
Cu8	Cu	0.573628	-0.140925	0.117048
Cu9	Cu	0.580571	-0.124308	-0.117170
O10	O	0.577266	-0.290495	0.098956
C11	C	0.571903	0.056823	-0.000054
C12	C	0.565654	0.171800	-0.000056
C13	C	0.489141	-0.141594	-0.000054
C14	C	0.435427	-0.140410	-0.000049
C15	C	0.665059	-0.123639	-0.000072
C16	C	0.718773	-0.124823	-0.000085
C17	C	1.053265	-0.037602	-0.000039
C18	C	1.255142	-0.041997	-0.000036
O19	O	1.282445	0.037759	0.000019
N20	N	1.278973	-0.137002	-0.000044
C21	C	1.252332	-0.230916	-0.000045
O22	O	1.277233	-0.311826	-0.000040
C23	C	1.050455	-0.226520	-0.000040
C24	C	1.026627	-0.131508	-0.000044
C25	C	1.029437	0.057403	-0.000042
C26	C	0.978971	0.058501	-0.000049
C27	C	0.952333	-0.035405	-0.000054
C28	C	0.976161	-0.130410	-0.000052
C29	C	1.023814	-0.320434	-0.000033
C30	C	0.973342	-0.319326	-0.000029
C31	C	0.949514	-0.224314	-0.000033
C32	C	0.899057	-0.223218	-0.000064
N33	N	0.875226	-0.128212	-0.000056
C34	C	0.901864	-0.034306	-0.000051
C35	C	1.358320	-0.233217	-0.000050
C36	C	1.408789	-0.234316	-0.000054
C37	C	1.411596	-0.045397	-0.000042
C38	C	1.361126	-0.044298	-0.000047
C39	C	1.334489	-0.138212	-0.000042
C40	C	0.795881	-0.032007	-0.000067
C41	C	0.745411	-0.030916	-0.000080
C42	C	0.742608	-0.219836	-0.000085
C43	C	0.793074	-0.220926	-0.000079
C44	C	0.819710	-0.127003	-0.000066
O45	O	0.871724	-0.302932	-0.000106
O46	O	0.876953	0.046590	-0.000030
C47	C	1.103731	-0.038700	-0.000032
C48	C	1.127559	-0.133705	-0.000029
C49	C	1.100922	-0.227611	-0.000034
C50	C	1.178028	-0.134804	-0.000033
C51	C	1.204666	-0.040897	-0.000028
C52	C	1.180835	0.054108	-0.000020
C53	C	1.130369	0.055206	-0.000027
C54	C	1.124753	-0.322616	-0.000043
C55	C	1.175219	-0.323707	-0.000037
C56	C	1.201857	-0.229800	-0.000032
C57	C	0.582297	-0.322056	-0.000071
C58	C	0.588546	-0.437033	-0.000078
N59	N	0.568748	-0.152612	0.281784
C60	C	0.640783	0.413964	-0.000087
C61	C	0.634914	0.521996	-0.000089
C62	C	0.548046	0.495898	-0.000069
C63	C	0.553915	0.387867	-0.000067
C64	C	0.600285	0.346904	-0.000075
C65	C	0.606154	0.238869	-0.000065
C66	C	0.519287	0.212774	-0.000053
C67	C	0.513417	0.320806	-0.000055
N68	N	0.585455	-0.112613	-0.281907
C69	C	0.620580	-0.028426	0.531074
C70	C	0.616896	-0.037265	0.655738
C71	C	0.557694	-0.179124	0.655777
C72	C	0.561378	-0.170285	0.531113
C73	C	0.592823	-0.094934	0.468766
C74	C	0.596509	-0.086101	0.344100
C75	C	0.537305	-0.227955	0.344142
C76	C	0.533621	-0.236794	0.468805
H77	H	0.726013	0.046457	-0.000086
H78	H	0.475664	0.354174	-0.000053
H79	H	0.667892	0.576594	-0.000103
H80	H	0.622114	-0.024749	0.293339
H81	H	0.486310	0.158160	-0.000033
H82	H	1.336636	-0.309697	-0.000048
H83	H	0.720911	-0.296291	-0.000095
H84	H	0.646187	0.032921	0.480311
H85	H	0.510293	0.529271	-0.000075
H86	H	1.110973	0.132575	-0.000030
H87	H	0.532089	-0.240466	0.706556
H88	H	0.812476	-0.298293	-0.000077
H89	H	0.508018	-0.298141	0.519582
H90	H	0.643911	0.205519	-0.000066
H91	H	0.678540	0.380611	-0.000082
H92	H	0.514704	-0.282113	0.293396
H93	H	1.202533	0.130570	-0.000023
H94	H	0.639498	0.016894	0.706466
H95	H	1.194615	-0.401082	-0.000042
H96	H	0.817562	0.044474	-0.000057
H97	H	0.959574	0.135869	-0.000047
H98	H	1.341729	0.033069	-0.000049
H99	H	1.433293	0.031065	-0.000042
H100	H	1.051120	0.133877	-0.000034
H101	H	1.043206	-0.397802	-0.000036
H102	H	1.428186	-0.311683	-0.000067
H103	H	0.951656	-0.395804	-0.000019
H104	H	1.103069	-0.399088	-0.000045
