data_functionalizedCrystal
_audit_creation_method	'MofGen! by Chris Wilmer'
_symmetry_space_group_name_H-M	'P1'
_symmetry_Int_Tables_number	1
_symmetry_cell_setting	triclinic
loop_
_symmetry_equiv_pos_as_xyz
  x,y,z
_cell_length_a	17.000371
_cell_length_b	16.098524
_cell_length_c	17.019294
_cell_angle_alpha	96.942147
_cell_angle_beta	79.505866
_cell_angle_gamma	93.245953
loop_
_atom_site_label
_atom_site_type_symbol
_atom_site_fract_x
_atom_site_fract_y
_atom_site_fract_z
O1	O	1.059348	0.071515	0.031451
O2	O	1.559348	0.571515	0.531451
O3	O	0.827677	0.073576	0.060170
O4	O	1.327677	0.573576	0.560170
O5	O	0.949598	0.064249	-0.069822
O6	O	1.449598	0.564249	0.430178
O7	O	0.937427	0.080842	0.161443
O8	O	1.437427	0.580842	0.661443
O9	O	0.943220	-0.074686	-0.075699
O10	O	1.443220	0.425314	0.424301
O11	O	0.821299	-0.065360	0.054293
O12	O	1.321299	0.434640	0.554293
O13	O	1.052970	-0.067420	0.025573
O14	O	1.552970	0.432580	0.525573
Zn15	Zn	0.936122	-0.088449	0.039000
Zn16	Zn	1.436122	0.411551	0.539000
Zn17	Zn	0.944525	0.094604	0.046744
Zn18	Zn	1.444525	0.594604	0.546744
O19	O	0.931050	-0.058093	0.155565
O20	O	1.431050	0.441907	0.655565
C21	C	0.794838	0.004219	0.058774
C22	C	1.294838	0.504219	0.558774
C23	C	0.706489	0.004548	0.063361
C24	C	1.206489	0.504548	0.563361
C25	C	0.674311	-0.000518	-0.007227
C26	C	1.174311	0.499482	0.492773
C27	C	0.591298	-0.000203	-0.002912
C28	C	1.091298	0.499797	0.497088
C29	C	0.540463	0.005173	0.071991
C30	C	1.040463	0.505173	0.571991
C31	C	0.572646	0.010242	0.142585
C32	C	1.072646	0.510242	0.642585
C33	C	0.655659	0.009932	0.138269
C34	C	1.155659	0.509932	0.638269
C35	C	0.289354	0.006375	0.088661
C36	C	0.789354	0.506375	0.588661
C37	C	0.206336	0.006682	0.092971
C38	C	0.706336	0.506682	0.592971
C39	C	0.224993	-0.003762	-0.052526
C40	C	0.724993	0.496238	0.447474
C41	C	0.308006	-0.004076	-0.056835
C42	C	0.808006	0.495924	0.443165
C43	C	0.340182	0.000997	0.013758
C44	C	0.840182	0.500997	0.513758
C45	C	0.455610	0.005493	0.076404
C46	C	0.955610	0.505493	0.576404
C47	C	0.425034	0.000683	0.009345
C48	C	0.925034	0.500683	0.509345
N49	N	0.930393	-0.213377	0.033714
N50	N	1.430393	0.286623	0.533714
C51	C	0.976757	-0.253887	0.076529
C52	C	1.476757	0.246113	0.576529
C53	C	0.972760	-0.341342	0.072826
C54	C	1.472760	0.158658	0.572826
C55	C	0.922395	-0.388286	0.026311
C56	C	1.422395	0.111714	0.526311
C57	C	0.876030	-0.347770	-0.016509
C58	C	1.376030	0.152230	0.483491
C59	C	0.880032	-0.260317	-0.012810
C60	C	1.380032	0.239683	0.487190
C61	C	0.907897	-0.652499	0.012902
C62	C	1.407897	-0.152499	0.512902
C63	C	0.903897	-0.739958	0.009208
C64	C	1.403897	-0.239958	0.509208
C65	C	1.000628	-0.733523	0.098542
C66	C	1.500628	-0.233523	0.598542
C67	C	1.004622	-0.646069	0.102241
C68	C	1.504622	-0.146069	0.602241
C69	C	0.958260	-0.605561	0.059417
C70	C	1.458260	-0.105561	0.559417
C71	C	0.918306	-0.477679	0.022526
C72	C	1.418306	0.022321	0.522526
C73	C	0.962353	-0.516170	0.063198
C74	C	1.462353	-0.016170	0.563198
C75	C	1.085809	0.001939	0.026970
C76	C	1.585809	0.501939	0.526970
C77	C	1.174158	0.001615	0.022383
C78	C	1.674158	0.501615	0.522383
C79	C	0.945822	-0.007330	-0.102205
C80	C	1.445822	0.492670	0.397795
C81	C	0.944062	-0.013619	-0.189939
C82	C	1.444062	0.486381	0.310061
N83	N	0.950260	0.219533	0.052023
N84	N	1.450260	0.719533	0.552023
C85	C	0.946714	0.059159	-0.227949
C86	C	1.446714	0.559159	0.272051
C87	C	0.945056	0.053246	-0.310384
C88	C	1.445056	0.553246	0.189616
C89	C	0.940752	-0.025445	-0.354808
C90	C	1.440752	0.474555	0.145192
C91	C	0.938097	-0.098228	-0.316793
C92	C	1.438097	0.401772	0.183207
C93	C	0.939750	-0.092315	-0.234358
C94	C	1.439750	0.407685	0.265642
C95	C	0.935583	-0.047088	-0.603867
C96	C	1.435583	0.452912	-0.103867
C97	C	0.933933	-0.052996	-0.686307
C98	C	1.433933	0.447004	-0.186307
C99	C	0.940890	0.098480	-0.679892
C100	C	1.440890	0.598480	-0.179892
C101	C	0.942547	0.104386	-0.597457
C102	C	1.442547	0.604386	-0.097457
C103	C	0.939889	0.031603	-0.559448
C104	C	1.439889	0.531603	-0.059448
C105	C	0.939059	-0.031490	-0.439071
C106	C	1.439059	0.468510	0.060929
C107	C	0.941576	0.037649	-0.475186
C108	C	1.441576	0.537649	0.024814
C109	C	0.934826	0.013487	0.187948
C110	C	1.434826	0.513487	0.687948
C111	C	0.936585	0.019782	0.275683
C112	C	1.436585	0.519782	0.775683
H113	H	0.414211	0.009869	0.137390
H114	H	0.914211	0.509869	0.637390
O115	O	0.517815	0.016036	0.223372
O116	O	1.017815	0.516036	0.723372
H117	H	0.531865	0.075111	0.259822
H118	H	1.031865	0.575111	0.759822
H119	H	0.935557	-0.095561	-0.475251
H120	H	1.435557	0.404439	0.024749
O121	O	0.947191	0.189259	-0.549540
O122	O	1.447191	0.689259	-0.049540
H123	H	0.893922	0.196347	-0.500999
H124	H	1.393922	0.696347	-0.000999
H125	H	0.715695	-0.004899	-0.068222
H126	H	1.215695	0.495101	0.431778
O127	O	0.863985	-0.528316	-0.027641
O128	O	1.363985	-0.028316	0.472359
H129	H	0.832417	-0.485460	-0.056798
H130	H	1.332417	0.014540	0.443202
O131	O	1.022768	-0.385033	0.119005
O132	O	1.522768	0.114967	0.619005
H133	H	0.982883	-0.421650	0.162474
H134	H	1.482883	0.078350	0.662474
O135	O	0.821707	-0.398392	-0.066685
O136	O	1.321707	0.101608	0.433315
H137	H	0.777186	-0.435301	-0.027485
H138	H	1.277186	0.064699	0.472515
H139	H	0.937579	-0.151579	-0.203410
H140	H	1.437579	0.348421	0.296590
H141	H	0.862879	-0.778177	-0.028670
H142	H	1.362879	-0.278177	0.471330
H143	H	0.198787	-0.007883	-0.109999
H144	H	0.698787	0.492117	0.390001
O145	O	1.050636	-0.777211	0.144724
O146	O	1.550636	-0.277211	0.644724
H147	H	1.114970	-0.761955	0.123828
H148	H	1.614970	-0.261955	0.623828
H149	H	0.164947	0.011055	0.153969
H150	H	0.664947	0.511055	0.653969
O151	O	1.016674	-0.465542	0.113367
O152	O	1.516674	0.034458	0.613367
H153	H	0.998721	-0.477707	0.177098
H154	H	1.498721	0.022293	0.677098
H155	H	0.930424	-0.117079	-0.722476
H156	H	1.430424	0.382921	-0.222476
H157	H	0.934588	-0.162301	-0.352969
H158	H	1.434588	0.337699	0.147031
O159	O	0.556596	-0.005682	-0.079051
O160	O	1.056596	0.494318	0.420949
H161	H	0.579609	0.048373	-0.112378
H162	H	1.079609	0.548373	0.387622
O163	O	0.946214	0.122523	-0.427277
O164	O	1.446214	0.622523	0.072723
H165	H	1.001327	0.128061	-0.400394
H166	H	1.501327	0.628061	0.099606
O167	O	0.951348	0.144036	-0.180036
O168	O	1.451348	0.644036	0.319964
H169	H	1.006884	0.178448	-0.205148
H170	H	1.506884	0.678448	0.294852
O171	O	0.932736	-0.125586	-0.562879
O172	O	1.432736	0.374414	-0.062879
H173	H	0.929480	-0.181296	-0.607625
H174	H	1.429480	0.318704	-0.107625
H175	H	0.349391	-0.008457	-0.117830
H176	H	0.849391	0.491543	0.382170
H177	H	0.681856	0.014054	0.195749
H178	H	1.181856	0.514054	0.695749
H179	H	0.870146	-0.619528	-0.021968
H180	H	1.370146	-0.119528	0.478032
H181	H	0.315541	0.010511	0.146143
H182	H	0.815541	0.510511	0.646143
H183	H	0.466427	-0.003689	-0.051640
H184	H	0.966427	0.496311	0.448360
H185	H	0.947219	0.112510	-0.341328
H186	H	1.447219	0.612510	0.158672
O187	O	1.031079	-0.203255	0.126699
O188	O	1.531079	0.296745	0.626699
H189	H	1.062651	-0.246121	0.155842
H190	H	1.562651	0.253879	0.655842
O191	O	1.058939	-0.595435	0.152415
O192	O	1.558939	-0.095435	0.652415
H193	H	1.090510	-0.638297	0.181564
H194	H	1.590510	-0.138297	0.681564
H195	H	0.842277	-0.227336	-0.047674
H196	H	1.342277	0.272664	0.452326
H197	H	0.943053	0.157736	-0.710848
H198	H	1.443053	0.657736	-0.210848
