data_functionalizedCrystal
_audit_creation_method	'MofGen! by Chris Wilmer'
_symmetry_space_group_name_H-M	'P1'
_symmetry_Int_Tables_number	1
_symmetry_cell_setting	triclinic
loop_
_symmetry_equiv_pos_as_xyz
  x,y,z
_cell_length_a	17.019292
_cell_length_b	19.188925
_cell_length_c	16.098538
_cell_angle_alpha	92.713859
_cell_angle_beta	88.859203
_cell_angle_gamma	96.733033
loop_
_atom_site_label
_atom_site_type_symbol
_atom_site_fract_x
_atom_site_fract_y
_atom_site_fract_z
O1	O	-1.046073	0.089179	0.005799
O2	O	-0.817209	0.099788	-0.010623
O3	O	-0.938248	-0.007140	-0.001933
O4	O	-0.925035	0.196107	-0.002891
O5	O	-0.931177	-0.000918	0.136072
O6	O	-0.810139	0.106010	0.127382
O7	O	-1.039003	0.095401	0.143804
Zn8	Zn	-0.923448	0.101693	0.157505
Zn9	Zn	-0.932764	0.093496	-0.024323
O10	O	-0.917964	0.202329	0.135114
C11	C	-0.784394	0.102375	0.056278
C12	C	-0.697148	0.100806	0.050018
C13	C	-0.652311	0.103458	0.122306
C14	C	-0.570336	0.101973	0.116426
C15	C	-0.533199	0.097839	0.038258
C16	C	-0.578043	0.095185	-0.034035
C17	C	-0.660017	0.096665	-0.028155
C18	C	-0.285884	0.093194	0.016739
C19	C	-0.203904	0.091716	0.010863
C20	C	-0.196202	0.098502	0.161325
C21	C	-0.278178	0.099987	0.167199
C22	C	-0.323015	0.097329	0.094906
C23	C	-0.449408	0.096323	0.032246
C24	C	-0.406806	0.098840	0.100919
C25	C	-0.934285	-0.030042	0.067038
C26	C	-0.933003	-0.107553	0.066944
C27	C	-0.995439	-0.669017	0.071403
C28	C	-0.996650	-0.596188	0.071498
C29	C	-0.925629	-0.551602	0.066401
C30	C	-0.853389	-0.579851	0.061231
C31	C	-0.852179	-0.652679	0.061145
N32	N	-0.876618	-0.433292	0.015739
N33	N	-0.877773	-0.364109	0.015819
C34	C	-0.929269	-0.332175	0.066662
N35	N	-0.979580	-0.372040	0.117413
N36	N	-0.978429	-0.441229	0.117329
C37	C	-0.926932	-0.472632	0.066495
C38	C	-1.002817	-0.224965	0.071940
C39	C	-1.004025	-0.152133	0.072040
C40	C	-0.860763	-0.135798	0.061765
C41	C	-0.859556	-0.208628	0.061674
C42	C	-0.930586	-0.253207	0.066758
C43	C	-0.071819	0.092810	0.076900
C44	C	-0.159066	0.094368	0.083151
C45	C	-0.921927	0.225231	0.066141
C46	C	-0.923209	0.302742	0.066229
N47	N	-0.917096	0.107287	0.281598
N48	N	-0.939122	0.087896	-0.148416
C49	C	-0.968488	0.061919	0.328872
C50	C	-0.964052	0.065839	0.415743
C51	C	-0.908227	0.115131	0.455337
C52	C	-0.856829	0.160501	0.408056
C53	C	-0.861262	0.156577	0.321187
C54	C	-0.892157	0.129343	0.717434
C55	C	-0.887729	0.133265	0.804309
C56	C	-0.994952	0.038601	0.811990
C57	C	-0.999383	0.034684	0.725119
C58	C	-0.947983	0.080052	0.677845
C59	C	-0.903693	0.119140	0.544133
C60	C	-0.952514	0.076039	0.589051
H61	H	-0.533834	0.104121	0.175290
C62	C	-1.075045	-0.565471	0.077278
C63	C	-1.076308	-0.520951	0.148636
C64	C	-1.148517	-0.492653	0.153992
H65	H	-1.081025	-0.539519	0.029458
H66	H	-1.117193	-0.602431	0.080340
H67	H	-1.034173	-0.483995	0.145567
H68	H	-1.070341	-0.546886	0.196468
H69	H	-1.190664	-0.529613	0.157054
H70	H	-1.154491	-0.466704	0.106169
H71	H	-1.149386	-0.462448	0.202412
C72	C	-0.783618	-0.087425	0.056402
C73	C	-0.736484	-0.097002	0.124293
C74	C	-0.665416	-0.052442	0.119390
H75	H	-0.756355	-0.098127	0.006201
H76	H	-0.794648	-0.039994	0.057238
H77	H	-0.725452	-0.144422	0.123449
H78	H	-0.763722	-0.086295	0.174504
H79	H	-0.676446	-0.005010	0.120227
H80	H	-0.638160	-0.063148	0.069187
H81	H	-0.633429	-0.058929	0.165457
C82	C	-1.019729	0.016504	0.467100
C83	C	-0.975480	-0.024120	0.513979
C84	C	-1.026746	-0.069584	0.561288
H85	H	-1.050644	0.043160	0.503386
H86	H	-1.053600	-0.013449	0.431099
H87	H	-0.941623	0.005829	0.549977
H88	H	-0.944567	-0.050791	0.477714
H89	H	-1.060616	-0.099537	0.525287
H90	H	-1.057658	-0.042922	0.597569
H91	H	-0.996731	-0.097157	0.593095
H92	H	-0.173670	0.088352	-0.052794
C93	C	-0.334415	0.090338	-0.061846
C94	C	-0.284341	0.086421	-0.131558
C95	C	-0.329021	0.083797	-0.203967
H96	H	-0.372695	0.050102	-0.062355
H97	H	-0.360402	0.131462	-0.063174
H98	H	-0.258366	0.045302	-0.130231
H99	H	-0.246061	0.126653	-0.131076
H100	H	-0.355009	0.124921	-0.205295
H101	H	-0.367300	0.043561	-0.204468
H102	H	-0.295052	0.081146	-0.251275
C103	C	-0.781118	-0.239262	0.055872
C104	C	-0.741844	-0.219831	-0.018218
C105	C	-0.669586	-0.248044	-0.023594
H106	H	-0.749328	-0.221824	0.101837
H107	H	-0.790536	-0.289025	0.056503
H108	H	-0.732423	-0.170078	-0.018842
H109	H	-0.773610	-0.237269	-0.064196
H110	H	-0.679004	-0.297808	-0.022963
H111	H	-0.637803	-0.230604	0.022375
H112	H	-0.642933	-0.234870	-0.073867
H113	H	-0.696523	0.094507	-0.087019
H114	H	-0.795563	-0.543545	0.057084
H115	H	-0.842267	0.173407	0.836542
H116	H	-0.547801	0.091814	-0.097681
C117	C	-1.082485	-0.121518	0.077490
C118	C	-1.129025	-0.147342	0.009550
C119	C	-1.201303	-0.119147	0.014537
H120	H	-1.109356	-0.134628	0.127659
H121	H	-1.073071	-0.071758	0.076775
H122	H	-1.138441	-0.197091	0.010273
H123	H	-1.102179	-0.134233	-0.040629
H124	H	-1.191890	-0.069387	0.013822
H125	H	-1.228167	-0.132260	0.064709
H126	H	-1.232887	-0.136660	-0.031562
C127	C	-0.843046	0.172553	0.587231
C128	C	-0.792537	0.137479	0.633695
C129	C	-0.736665	0.186658	0.673421
H130	H	-0.812988	0.199042	0.546731
H131	H	-0.869469	0.203210	0.623177
H132	H	-0.766116	0.106834	0.597753
H133	H	-0.822571	0.110993	0.674209
H134	H	-0.763088	0.217316	0.709366
H135	H	-0.706614	0.213144	0.632915
H136	H	-0.702393	0.162868	0.704957
H137	H	-0.437046	0.102202	0.164563
H138	H	-0.682540	0.106830	0.185959
H139	H	-0.850306	0.166285	0.678950
H140	H	-0.811371	0.200634	0.440298
C141	C	-1.029128	0.008329	0.286041
C142	C	-1.073170	-0.030576	0.346039
C143	C	-1.129031	-0.079958	0.306616
H144	H	-1.063562	0.031920	0.254484
H145	H	-1.002706	-0.022381	0.250164
H146	H	-1.099591	0.000129	0.381901
H147	H	-1.038758	-0.054183	0.377599
H148	H	-1.102609	-0.110668	0.270739
H149	H	-1.163459	-0.056361	0.275060
H150	H	-1.158915	-0.106366	0.347318
C151	C	-1.050840	-0.010701	0.863172
C152	C	-1.100687	-0.054699	0.809904
C153	C	-1.152186	-0.100124	0.857023
H154	H	-1.021028	-0.038375	0.895057
H155	H	-1.081787	0.016010	0.899377
H156	H	-1.069744	-0.081407	0.773714
H157	H	-1.130517	-0.027044	0.778019
H158	H	-1.183133	-0.073414	0.893228
H159	H	-1.122367	-0.127794	0.888905
H160	H	-1.186018	-0.129978	0.820888
C161	C	-1.079914	-0.273413	0.077299
C162	C	-1.087052	-0.318885	0.006536
C163	C	-1.158067	-0.363517	0.011439
H164	H	-1.080032	-0.300065	0.125551
H165	H	-1.123133	-0.246188	0.080358
H166	H	-1.043845	-0.346107	0.003486
H167	H	-1.086948	-0.292252	-0.041727
H168	H	-1.201285	-0.336291	0.014498
H169	H	-1.158178	-0.390164	0.059695
H170	H	-1.162923	-0.394370	-0.036574
C171	C	-0.805423	0.205922	0.270004
C172	C	-0.755599	0.249943	0.323271
C173	C	-0.704154	0.295414	0.276153
H174	H	-0.774450	0.179267	0.233780
H175	H	-0.835301	0.233572	0.238141
H176	H	-0.725724	0.222297	0.355120
H177	H	-0.786550	0.276614	0.359495
H178	H	-0.734031	0.323064	0.244290
H179	H	-0.673186	0.268753	0.239931
H180	H	-0.670347	0.325292	0.312287
H181	H	-0.419162	0.092957	-0.031399
C182	C	-0.773676	-0.683211	0.055473
C183	C	-0.711735	-0.628582	0.051012
C184	C	-0.639407	-0.656684	0.045772
H185	H	-0.767651	-0.709108	0.103328
H186	H	-0.772650	-0.713429	0.007075
H187	H	-0.712759	-0.598377	0.099405
H188	H	-0.717733	-0.602681	0.003159
H189	H	-0.638381	-0.686901	-0.002625
H190	H	-0.633391	-0.682580	0.093628
H191	H	-0.597372	-0.619623	0.042737
H192	H	-1.044841	-0.005453	0.692883
H193	H	-0.308409	0.103349	0.230852
H194	H	-0.159687	0.100666	0.220182
H195	H	-1.053277	-0.705310	0.075548
H196	H	-0.997964	0.035903	0.556811
