data_functionalizedCrystal
_audit_creation_method	'MofGen! by Chris Wilmer'
_symmetry_space_group_name_H-M	'P1'
_symmetry_Int_Tables_number	1
_symmetry_cell_setting	triclinic
loop_
_symmetry_equiv_pos_as_xyz
  x,y,z
_cell_length_a	15.995292
_cell_length_b	15.072220
_cell_length_c	10.723024
_cell_angle_alpha	90.000117
_cell_angle_beta	96.031757
_cell_angle_gamma	90.013670
loop_
_atom_site_label
_atom_site_type_symbol
_atom_site_fract_x
_atom_site_fract_y
_atom_site_fract_z
O1	O	1.111948	0.073804	-0.160488
O2	O	0.868281	0.073800	-0.180425
O3	O	0.995735	0.073799	0.011193
O4	O	0.984494	0.073806	-0.352106
O5	O	0.995703	-0.073766	0.011182
O6	O	0.868249	-0.073765	-0.180436
O7	O	1.111916	-0.073761	-0.160498
Zn8	Zn	0.990078	-0.097192	-0.170469
Zn9	Zn	0.990119	0.097232	-0.170455
O10	O	0.984462	-0.073760	-0.352117
C11	C	0.837065	0.000017	-0.179619
C12	C	0.744098	0.000016	-0.177187
N13	N	0.990055	-0.229881	-0.170478
C14	C	0.406308	0.000026	-0.168243
C15	C	0.430415	0.000358	-0.306548
C16	C	0.527105	0.000021	-0.309177
C17	C	0.573889	0.000022	-0.172681
C18	C	0.544372	-0.084244	-0.103541
C19	C	0.447572	-0.084310	-0.101876
C20	C	0.447736	0.083499	-0.099040
C21	C	0.544259	0.084609	-0.104165
C22	C	0.668600	0.000016	-0.175182
C23	C	0.311598	0.000025	-0.165738
C24	C	0.990118	-0.589082	-0.170450
C25	C	0.921686	-0.551475	-0.272638
C26	C	0.921847	-0.448649	-0.273011
C27	C	0.990086	-0.410878	-0.170464
C28	C	1.077616	-0.448167	-0.198874
C29	C	1.077234	-0.551025	-0.199600
C30	C	0.971796	-0.551185	-0.039549
C31	C	0.969796	-0.448322	-0.040423
C32	C	0.990074	-0.310165	-0.170469
C33	C	0.990136	-0.689796	-0.170447
C34	C	1.143132	0.000024	-0.161305
C35	C	1.236099	0.000031	-0.163737
C36	C	0.994901	0.000018	0.057677
C37	C	0.992453	0.000021	0.196199
N38	N	0.990148	0.229920	-0.170436
C39	C	0.985296	0.000024	-0.398601
C40	C	0.987744	0.000027	-0.537123
C41	C	1.063770	0.000023	0.272114
C42	C	1.061242	0.000026	0.415284
H43	H	0.546456	0.060428	-0.363318
O44	O	0.909095	0.000015	0.250500
H45	H	0.872989	0.060161	0.218452
H46	H	1.122295	0.000024	0.480514
H47	H	1.093265	-0.575005	-0.295064
H48	H	0.402738	0.060789	-0.359853
H49	H	1.021691	-0.575504	0.036495
O50	O	0.392386	-0.079246	-0.376782
H51	H	0.356391	-0.119046	-0.313612
O52	O	0.428444	0.084258	0.035815
H53	H	0.393524	0.145729	0.054080
H54	H	0.545809	-0.060484	-0.363660
O55	O	1.147132	0.000031	0.217820
H56	H	1.183242	-0.060108	0.249883
H57	H	1.129786	-0.575901	-0.128105
H58	H	0.576658	0.089698	-0.004536
H59	H	0.419671	0.147367	-0.142264
O60	O	0.412384	-0.167739	-0.165327
H61	H	0.464530	-0.207654	-0.196914
H62	H	0.564693	-0.146954	-0.151563
O63	O	0.906860	0.000018	0.376496
H64	H	0.904320	0.060164	0.316491
H65	H	1.129786	-0.423699	-0.126425
O66	O	0.427514	-0.089394	0.032438
H67	H	0.486932	-0.091801	0.095916
H68	H	0.575663	-0.087377	-0.003098
H69	H	0.563131	0.146947	-0.154506
H70	H	0.856808	-0.423439	-0.256088
H71	H	1.016343	-0.422614	0.039181
H72	H	0.856439	-0.576237	-0.255994
O73	O	0.937073	-0.585684	-0.400595
H74	H	0.993248	-0.629354	-0.391728
O75	O	0.937447	-0.416028	-0.401679
H76	H	0.999215	-0.440935	-0.425038
O77	O	1.099337	-0.414049	-0.323892
H78	H	1.047934	-0.370544	-0.365983
H79	H	0.909314	-0.577177	-0.012224
H80	H	0.905404	-0.423951	-0.018862
