data_functionalizedCrystal
_audit_creation_method	'MofGen! by Chris Wilmer'
_symmetry_space_group_name_H-M	'P1'
_symmetry_Int_Tables_number	1
_symmetry_cell_setting	triclinic
loop_
_symmetry_equiv_pos_as_xyz
  x,y,z
_cell_length_a	16.120530
_cell_length_b	18.050589
_cell_length_c	18.050571
_cell_angle_alpha	89.916021
_cell_angle_beta	87.037076
_cell_angle_gamma	87.123928
loop_
_atom_site_label
_atom_site_type_symbol
_atom_site_fract_x
_atom_site_fract_y
_atom_site_fract_z
Zn1	Zn	1.274919	-0.352830	-0.477457
Zn2	Zn	1.774919	0.147170	0.022543
Zn3	Zn	1.274701	-0.477146	-0.353267
Zn4	Zn	1.774701	0.022854	0.146733
Zn5	Zn	1.135392	-0.346679	-0.346986
Zn6	Zn	1.635392	0.153321	0.153014
Zn7	Zn	1.135450	-0.470681	-0.471133
Zn8	Zn	1.635450	0.029319	0.028867
O9	O	1.205115	-0.411834	-0.412211
O10	O	1.705115	0.088166	0.087789
O11	O	1.391560	-0.374600	-0.466259
O12	O	1.891560	0.125400	0.033741
O13	O	1.256106	-0.459971	-0.248504
O14	O	1.756106	0.040029	0.251496
O15	O	1.153967	-0.243574	-0.364312
O16	O	1.653967	0.256426	0.135688
O17	O	1.391400	-0.465934	-0.375016
O18	O	1.891400	0.034066	0.124984
O19	O	1.256477	-0.248092	-0.460168
O20	O	1.756477	0.251908	0.039832
O21	O	1.153756	-0.364118	-0.243889
O22	O	1.653756	0.135882	0.256111
O23	O	1.018730	-0.357849	-0.358179
O24	O	1.518730	0.142151	0.141821
O25	O	1.154066	-0.454916	-0.575902
O26	O	1.654066	0.045084	-0.075902
O27	O	1.018773	-0.448952	-0.449389
O28	O	1.518773	0.051048	0.050611
O29	O	1.256533	-0.368331	-0.580548
O30	O	1.756533	0.131669	-0.080548
O31	O	1.256163	-0.580210	-0.368884
O32	O	1.756163	-0.080210	0.131116
O33	O	1.153856	-0.575460	-0.455479
O34	O	1.653856	-0.075460	0.044521
C35	C	0.988500	-0.402032	-0.402417
C36	C	1.488500	0.097968	0.097583
C37	C	0.895831	-0.397857	-0.398244
C38	C	1.395831	0.102143	0.101756
C39	C	0.726163	-0.390217	-0.390633
C40	C	1.226163	0.109783	0.109367
C41	C	0.684908	-0.433506	-0.433842
C42	C	1.184908	0.066494	0.066158
C43	C	0.590499	-0.429255	-0.429608
C44	C	1.090499	0.070745	0.070392
C45	C	0.820581	-0.394467	-0.394867
C46	C	1.320581	0.105533	0.105133
C47	C	1.205015	-0.604781	-0.412194
C48	C	1.705015	-0.104781	0.087806
C49	C	1.205048	-0.687329	-0.412215
C50	C	1.705048	-0.187329	0.087785
C51	C	1.149468	-0.884226	-0.459291
C52	C	1.649468	-0.384226	0.040709
C53	C	1.129087	-0.932817	-0.390604
C54	C	1.629087	-0.432817	0.109396
C55	C	1.205130	-0.838463	-0.412228
C56	C	1.705130	-0.338463	0.087772
C57	C	1.225552	-0.936955	-0.480925
C58	C	1.725552	-0.436955	0.019075
C59	C	1.205208	-0.984451	-0.412247
C60	C	1.705208	-0.484451	0.087753
C61	C	1.184709	-0.885965	-0.343504
C62	C	1.684709	-0.385965	0.156496
C63	C	1.281209	-0.890100	-0.433872
C64	C	1.781209	-0.390100	0.066128
C65	C	1.260857	-0.938670	-0.365140
C66	C	1.760857	-0.438670	0.134860
C67	C	1.205083	-0.754362	-0.412218
C68	C	1.705083	-0.254362	0.087782
C69	C	1.205254	-1.068550	-0.412249
C70	C	1.705254	-0.568550	0.087751
C71	C	1.422577	-0.421674	-0.422043
C72	C	1.922577	0.078326	0.077957
C73	C	1.515246	-0.425868	-0.426234
C74	C	2.015246	0.074132	0.073766
C75	C	1.205331	-0.411588	-0.605927
C76	C	1.705331	0.088412	-0.105927
C77	C	1.205422	-0.411483	-0.688477
C78	C	1.705422	0.088517	-0.188477
C79	C	1.205239	-0.218134	-0.412245
C80	C	1.705239	0.281866	0.087755
C81	C	1.205292	-0.135590	-0.412260
C82	C	1.705292	0.364410	0.087740
C83	C	1.204949	-0.412027	-0.219251
C84	C	1.704949	0.087973	0.280749
C85	C	1.205019	-0.411930	-0.136708
C86	C	1.705019	0.088070	0.363292
C87	C	1.149174	-0.359891	0.114597
C88	C	1.649174	0.140109	0.614597
C89	C	1.129243	-0.426924	0.066310
C90	C	1.629243	0.073076	0.566310
C91	C	1.205286	-0.411636	0.160399
C92	C	1.705286	0.088364	0.660399
C93	C	1.225046	-0.344751	0.061613
C94	C	1.725046	0.155249	0.561613
C95	C	1.205153	-0.411777	0.014421
C96	C	1.705153	0.088223	0.514421
C97	C	1.185316	-0.478702	0.113202
C98	C	1.685316	0.021298	0.613202
C99	C	1.281155	-0.396484	0.108507
C100	C	1.781155	0.103516	0.608507
C101	C	1.261252	-0.463565	0.060241
C102	C	1.761252	0.036435	0.560241
C103	C	1.205361	-0.411553	0.244494
C104	C	1.705361	0.088447	0.744494
C105	C	1.205078	-0.411866	-0.069672
C106	C	1.705078	0.088134	0.430328
H107	H	0.720491	-0.473759	-0.474017
H108	H	1.220491	0.026241	0.025983
C109	C	1.085784	-0.852032	-0.512970
C110	C	1.585784	-0.352032	-0.012970
N111	N	1.037815	-0.827780	-0.553396
N112	N	1.537815	-0.327780	-0.053396
H113	H	1.345354	-0.383583	0.127179
H114	H	1.845354	0.116417	0.627179
C115	C	1.042214	-0.958318	-0.365878
C116	C	1.542214	-0.458318	0.134122
N117	N	0.976779	-0.977523	-0.347259
N118	N	1.476779	-0.477523	0.152741
C119	C	1.161310	-0.855864	-0.265003
C120	C	1.661310	-0.355864	0.234997
N121	N	1.143683	-0.833190	-0.205878
N122	N	1.643683	-0.333190	0.294122
C123	C	1.324491	-0.970676	-0.311319
C124	C	1.824491	-0.470676	0.188681
N125	N	1.372415	-0.994785	-0.270779
N126	N	1.872415	-0.494785	0.229221
C127	C	1.247703	-0.268256	0.031052
C128	C	1.747703	0.231744	0.531052
N129	N	1.264763	-0.210638	0.008037
N130	N	1.764763	0.289362	0.508037
H131	H	1.065025	-0.439806	0.047656
H132	H	1.565025	0.060194	0.547656
C133	C	1.368051	-0.864563	-0.458631
C134	C	1.868051	-0.364563	0.041369
N135	N	1.433459	-0.845323	-0.477290
N136	N	1.933459	-0.345323	0.022710
C137	C	1.248847	-0.967175	-0.559400
C138	C	1.748847	-0.467175	-0.059400
N139	N	1.266386	-0.989933	-0.618508
N140	N	1.766386	-0.489933	-0.118508
C141	C	1.162556	-0.555214	0.143645
C142	C	1.662556	-0.055214	0.643645
N143	N	1.145409	-0.612841	0.166576
N144	N	1.645409	-0.112841	0.666576
H145	H	1.101744	-0.316123	0.138384
H146	H	1.601744	0.183877	0.638384
H147	H	1.308648	-0.507432	0.036593
H148	H	1.808648	-0.007432	0.536593
H149	H	0.690582	-0.349967	-0.350463
H150	H	1.190582	0.150033	0.149537
