data_functionalizedCrystal
_audit_creation_method	'MofGen! by Chris Wilmer'
_symmetry_space_group_name_H-M	'P1'
_symmetry_Int_Tables_number	1
_symmetry_cell_setting	triclinic
loop_
_symmetry_equiv_pos_as_xyz
  x,y,z
_cell_length_a	13.897449
_cell_length_b	16.625548
_cell_length_c	13.897447
_cell_angle_alpha	90.009284
_cell_angle_beta	90.020810
_cell_angle_gamma	90.007099
loop_
_atom_site_label
_atom_site_type_symbol
_atom_site_fract_x
_atom_site_fract_y
_atom_site_fract_z
Zn1	Zn	1.474560	0.455896	-0.384142
Zn2	Zn	1.807894	0.789229	-0.050809
Zn3	Zn	2.141227	1.122563	0.282525
Zn4	Zn	1.474488	0.321068	-0.545407
Zn5	Zn	1.807821	0.654401	-0.212074
Zn6	Zn	2.141154	0.987735	0.121259
Zn7	Zn	1.313288	0.321079	-0.384132
Zn8	Zn	1.646621	0.654413	-0.050798
Zn9	Zn	1.979955	0.987746	0.282535
Zn10	Zn	1.313226	0.455860	-0.545400
Zn11	Zn	1.646559	0.789194	-0.212067
Zn12	Zn	1.979893	1.122527	0.121266
O13	O	1.393891	0.388476	-0.464770
O14	O	1.727224	0.721809	-0.131437
O15	O	2.060557	1.055143	0.201896
O16	O	1.609532	0.438021	-0.405542
O17	O	1.942866	0.771354	-0.072208
O18	O	2.276199	1.104688	0.261125
O19	O	1.453100	0.208237	-0.524012
O20	O	1.786433	0.541570	-0.190679
O21	O	2.119766	0.874904	0.142654
O22	O	1.334737	0.338983	-0.249151
O23	O	1.668071	0.672316	0.084182
O24	O	2.001404	1.005649	0.417515
O25	O	1.609479	0.338963	-0.524022
O26	O	1.942812	0.672297	-0.190689
O27	O	2.276146	1.005630	0.142644
O28	O	1.453224	0.438032	-0.249159
O29	O	1.786557	0.771365	0.084174
O30	O	2.119890	1.104698	0.417508
O31	O	1.334667	0.208245	-0.405524
O32	O	1.668000	0.541579	-0.072190
O33	O	2.001334	0.874912	0.261143
O34	O	1.178298	0.338948	-0.405517
O35	O	1.511632	0.672281	-0.072184
O36	O	1.844965	1.005615	0.261150
O37	O	1.334632	0.568698	-0.524011
O38	O	1.667965	0.902031	-0.190677
O39	O	2.001299	1.235364	0.142656
O40	O	1.178253	0.437971	-0.524000
O41	O	1.511586	0.771305	-0.190667
O42	O	1.844919	1.104638	0.142666
O43	O	1.453164	0.568724	-0.405535
O44	O	1.786497	0.902057	-0.072201
O45	O	2.119830	1.235390	0.261132
O46	O	1.453040	0.338929	-0.680388
O47	O	1.786373	0.672262	-0.347055
O48	O	2.119706	1.005596	-0.013721
O49	O	1.334561	0.437960	-0.680383
O50	O	1.667895	0.771294	-0.347050
O51	O	2.001228	1.104627	-0.013716
C52	C	1.143276	0.388458	-0.464757
C53	C	1.476610	0.721791	-0.131424
C54	C	1.809943	1.055124	0.201909
C55	C	1.036062	0.388469	-0.464775
C56	C	1.369396	0.721802	-0.131442
C57	C	1.702729	1.055135	0.201892
C58	C	0.839767	0.388490	-0.464779
C59	C	1.173101	0.721823	-0.131445
C60	C	1.506434	1.055157	0.201888
C61	C	0.949000	0.388476	-0.464774
C62	C	1.282333	0.721809	-0.131440
C63	C	1.615666	1.055143	0.201893
C64	C	1.393899	0.598785	-0.464773
C65	C	1.727232	0.932118	-0.131440
C66	C	2.060566	1.265451	0.201894
C67	C	1.393903	0.688406	-0.464774
C68	C	1.727236	1.021739	-0.131441
C69	C	2.060569	1.355073	0.201892
C70	C	1.393863	1.016582	-0.464783
C71	C	1.727196	1.349915	-0.131449
C72	C	2.060529	1.683248	0.201884
C73	C	1.393871	0.925273	-0.464783
C74	C	1.727204	1.258606	-0.131450
C75	C	2.060538	1.591940	0.201883
C76	C	1.393883	0.852497	-0.464779
C77	C	1.727217	1.185830	-0.131446
C78	C	2.060550	1.519163	0.201887
C79	C	1.393891	0.761182	-0.464778
C80	C	1.727224	1.094516	-0.131445
C81	C	2.060557	1.427849	0.201888
C82	C	1.645483	0.388495	-0.464784
C83	C	1.978817	0.721828	-0.131451
C84	C	2.312150	1.055162	0.201883
C85	C	1.752697	0.388503	-0.464790
C86	C	2.086031	0.721836	-0.131456
C87	C	2.419364	1.055170	0.201877
C88	C	1.393873	1.178985	-0.464787
C89	C	1.727206	1.512318	-0.131454
C90	C	2.060540	1.845652	0.201880
C91	C	1.393863	1.089364	-0.464780
C92	C	1.727197	1.422697	-0.131447
C93	C	2.060530	1.756031	0.201887
C94	C	1.393812	0.388457	-0.715385
C95	C	1.727145	0.721791	-0.382051
C96	C	2.060479	1.055124	-0.048718
C97	C	1.393867	0.388476	-0.822599
C98	C	1.727200	0.721810	-0.489265
C99	C	2.060533	1.055143	-0.155932
C100	C	1.393913	0.388495	-0.909668
C101	C	1.727247	0.721828	-0.576335
C102	C	2.060580	1.055161	-0.243002
C103	C	1.393981	0.388515	-1.018901
C104	C	1.727314	0.721849	-0.685567
C105	C	2.060648	1.055182	-0.352234
C106	C	1.393996	0.388512	-0.213177
C107	C	1.727329	0.721846	0.120156
C108	C	2.060662	1.055179	0.453489
C109	C	1.394040	0.388528	-0.105963
C110	C	1.727374	0.721861	0.227370
C111	C	2.060707	1.055195	0.560703
