data_functionalizedCrystal
_audit_creation_method	'MofGen! by Chris Wilmer'
_symmetry_space_group_name_H-M	'P1'
_symmetry_Int_Tables_number	1
_symmetry_cell_setting	triclinic
loop_
_symmetry_equiv_pos_as_xyz
  x,y,z
_cell_length_a	16.109301
_cell_length_b	17.038272
_cell_length_c	15.186229
_cell_angle_alpha	90.004038
_cell_angle_beta	90.000638
_cell_angle_gamma	87.286518
loop_
_atom_site_label
_atom_site_type_symbol
_atom_site_fract_x
_atom_site_fract_y
_atom_site_fract_z
O1	O	1.110268	0.100495	0.073174
O2	O	0.869094	0.113001	0.073188
O3	O	0.988247	-0.007067	0.073174
O4	O	0.991114	0.220563	0.073187
O5	O	0.988239	-0.007069	-0.073284
O6	O	0.869085	0.113000	-0.073270
O7	O	1.110259	0.100493	-0.073284
Zn8	Zn	0.989671	0.106746	-0.096530
Zn9	Zn	0.989682	0.106748	0.096434
O10	O	0.991105	0.220562	-0.073270
C11	C	0.838079	0.112494	-0.000039
C12	C	0.745676	0.110975	-0.000034
C13	C	0.528212	0.178690	-0.000040
C14	C	0.441390	0.177257	-0.000046
C15	C	0.451147	0.034799	-0.000051
C16	C	0.537968	0.036233	-0.000051
C17	C	0.576498	0.108181	-0.000042
C18	C	0.402855	0.105314	-0.000047
C19	C	0.308719	0.103759	-0.000053
C20	C	0.670640	0.109736	-0.000037
C21	C	0.985636	-0.036196	-0.000055
C22	C	0.977857	-0.122989	-0.000054
C23	C	1.049277	-0.173104	-0.000059
C24	C	1.041963	-0.254654	-0.000050
C25	C	0.963228	-0.286089	-0.000043
C26	C	0.891802	-0.235967	-0.000035
C27	C	0.899116	-0.154418	-0.000038
C28	C	0.937385	-0.531846	-0.000029
C29	C	0.930076	-0.613402	-0.000029
C30	C	1.080238	-0.632083	-0.000043
C31	C	1.087546	-0.550532	-0.000051
C32	C	1.016120	-0.500418	-0.000038
C33	C	0.955749	-0.369446	-0.000037
C34	C	1.023599	-0.417062	-0.000038
C35	C	1.141274	0.101001	-0.000055
C36	C	1.233677	0.102519	-0.000054
C37	C	0.993717	0.249691	-0.000039
C38	C	1.001496	0.336484	-0.000034
N39	N	0.989669	0.106744	-0.228223
C40	C	1.042451	0.053596	-0.453952
C41	C	1.042453	0.053594	-0.546141
C42	C	0.936902	0.159895	-0.546138
C43	C	0.936896	0.159893	-0.453950
C44	C	0.989675	0.106744	-0.407859
C45	C	0.989684	0.106745	-0.592237
C46	C	0.989686	0.106743	-0.692193
C47	C	0.989672	0.106744	-0.307897
N48	N	0.989690	0.106744	0.228126
H49	H	0.402079	0.234672	-0.000047
C50	C	0.590255	-0.040409	-0.000007
C51	C	0.537932	-0.103724	0.000015
C52	C	0.586069	-0.174335	0.000064
H53	H	0.624336	-0.042922	-0.051067
H54	H	0.624313	-0.042849	0.051085
H55	H	0.503888	-0.101285	-0.051072
H56	H	0.503851	-0.101237	0.051071
H57	H	0.620127	-0.176775	0.051157
H58	H	0.620147	-0.176840	-0.050997
H59	H	0.550575	-0.217302	0.000087
H60	H	0.419765	-0.023778	-0.000064
C61	C	1.134838	-0.139131	-0.000019
C62	C	1.195818	-0.200478	0.000004
C63	C	1.274648	-0.169216	0.000057
H64	H	1.140932	-0.107722	-0.051078
H65	H	1.140857	-0.107727	0.051074
H66	H	1.189802	-0.231870	-0.051084
H67	H	1.189752	-0.231892	0.051060
H68	H	1.280667	-0.137811	0.051151
H69	H	1.280733	-0.137807	-0.051002
H70	H	1.316032	-0.210834	0.000082
H71	H	0.827693	-0.261567	-0.000023
C72	C	1.119481	-0.309099	0.000127
C73	C	1.119691	-0.356437	0.075492
C74	C	1.191096	-0.406592	0.075695
H75	H	1.119823	-0.341382	-0.050883
H76	H	1.167439	-0.278723	0.000166
H77	H	1.071745	-0.386811	0.075445
H78	H	1.119361	-0.324176	0.126514
H79	H	1.239055	-0.376216	0.075734
H80	H	1.191432	-0.438869	0.024682
H81	H	1.191252	-0.438712	0.126833
H82	H	0.559580	0.237274	-0.000039
C83	C	1.157753	-0.686531	0.000135
C84	C	1.157955	-0.733873	0.075498
C85	C	1.229357	-0.784032	0.075702
H86	H	1.158096	-0.718811	-0.050876
H87	H	1.205714	-0.656158	0.000180
H88	H	1.110007	-0.764243	0.075446
H89	H	1.157625	-0.701614	0.126521
H90	H	1.277318	-0.753659	0.075746
H91	H	1.229693	-0.816307	0.024687
H92	H	1.229507	-0.816154	0.126838
H93	H	1.085427	0.010315	-0.583667
H94	H	0.893932	0.203169	-0.583674
H95	H	1.151661	-0.524945	-0.000057
C96	C	0.879563	0.217689	-0.404059
C97	C	0.833364	0.264253	-0.464152
C98	C	0.780549	0.317504	-0.418225
H99	H	0.842893	0.189642	-0.368100
H100	H	0.911752	0.250284	-0.368108
H101	H	0.801177	0.231662	-0.500089
H102	H	0.870013	0.292316	-0.500113
H103	H	0.812738	0.350100	-0.382274
H104	H	0.743884	0.289452	-0.382268
H105	H	0.749202	0.349109	-0.458991
C106	C	0.821602	-0.099966	0.000148
C107	C	0.821413	-0.052614	0.075509
C108	C	0.750013	-0.002451	0.075720
H109	H	0.821255	-0.067694	-0.050865
H110	H	0.773640	-0.130337	0.000199
H111	H	0.869363	-0.022246	0.075450
H112	H	0.821747	-0.084865	0.126533
H113	H	0.702050	-0.032822	0.075771
H114	H	0.749672	0.029816	0.024705
H115	H	0.749871	0.029679	0.126855
H116	H	0.865956	-0.638991	-0.000037
H117	H	1.087705	-0.391465	-0.000025
H118	H	0.879224	-0.491053	-0.000019
H119	H	0.891642	-0.395049	-0.000032
C120	C	1.099776	-0.004200	-0.404068
C121	C	1.145978	-0.050760	-0.464171
C122	C	1.198785	-0.104020	-0.418254
H123	H	1.136445	0.023839	-0.368096
H124	H	1.067582	-0.036798	-0.368132
H125	H	1.178169	-0.018166	-0.500092
H126	H	1.109330	-0.078816	-0.500145
H127	H	1.166591	-0.136618	-0.382317
H128	H	1.235449	-0.075974	-0.382283
H129	H	1.230134	-0.135621	-0.459026
