data_functionalizedCrystal
_audit_creation_method	'MofGen! by Chris Wilmer'
_symmetry_space_group_name_H-M	'P1'
_symmetry_Int_Tables_number	1
_symmetry_cell_setting	triclinic
loop_
_symmetry_equiv_pos_as_xyz
  x,y,z
_cell_length_a	16.625548
_cell_length_b	18.050589
_cell_length_c	16.625539
_cell_angle_alpha	89.977040
_cell_angle_beta	89.982945
_cell_angle_gamma	90.029289
loop_
_atom_site_label
_atom_site_type_symbol
_atom_site_fract_x
_atom_site_fract_y
_atom_site_fract_z
Zn1	Zn	1.232620	-0.295651	-0.455929
Zn2	Zn	1.232518	-0.419844	-0.321104
Zn3	Zn	1.097790	-0.295675	-0.321109
Zn4	Zn	1.097739	-0.419806	-0.455894
O5	O	1.165167	-0.357744	-0.388509
O6	O	1.345439	-0.312131	-0.438056
O7	O	1.214625	-0.403399	-0.208272
O8	O	1.115740	-0.191747	-0.339010
O9	O	1.345364	-0.403376	-0.339001
O10	O	1.214799	-0.191729	-0.438061
O11	O	1.115641	-0.312173	-0.208276
O12	O	0.984951	-0.312135	-0.338976
O13	O	1.115652	-0.403310	-0.568731
O14	O	0.984913	-0.403333	-0.438002
O15	O	1.214749	-0.312094	-0.568757
O16	O	1.214575	-0.523764	-0.338968
O17	O	1.115554	-0.523735	-0.437997
C18	C	0.955676	-0.357733	-0.388487
C19	C	0.866055	-0.357747	-0.388496
C20	C	0.537879	-0.357751	-0.388531
C21	C	0.629188	-0.357748	-0.388518
C22	C	0.701964	-0.357749	-0.388513
C23	C	0.793279	-0.357745	-0.388502
C24	C	1.165070	-0.550696	-0.388496
C25	C	1.165102	-0.633242	-0.388517
C26	C	1.111307	-0.832704	-0.442350
C27	C	1.091655	-0.882144	-0.368774
C28	C	1.165181	-0.784372	-0.388528
C29	C	1.184872	-0.882014	-0.462112
C30	C	1.165256	-0.930357	-0.388544
C31	C	1.145490	-0.832725	-0.314913
C32	C	1.238742	-0.832590	-0.408300
C33	C	1.219118	-0.882008	-0.334673
C34	C	1.165136	-0.700274	-0.388519
C35	C	1.165301	-1.014454	-0.388544
C36	C	1.375476	-0.357755	-0.388532
C37	C	1.465097	-0.357760	-0.388542
C38	C	1.165206	-0.357695	-0.598818
C39	C	1.165223	-0.357674	-0.688439
C40	C	1.165287	-0.164038	-0.388540
C41	C	1.165338	-0.081492	-0.388553
C42	C	1.165236	-0.357658	-0.761222
C43	C	1.165255	-0.357630	-0.852530
C44	C	1.165274	-0.357604	-0.925307
C45	C	1.165294	-0.357577	-1.016621
C46	C	1.165174	-0.357739	-0.179018
C47	C	1.165313	-0.357551	-0.089398
H48	H	1.029481	-0.903926	-0.352066
H49	H	1.128793	-0.811164	-0.252673
O50	O	1.056930	-0.806960	-0.496675
C51	C	1.015365	-0.803846	-0.635473
C52	C	1.076992	-0.833066	-0.574039
H53	H	1.031573	-0.824928	-0.698037
H54	H	0.952693	-0.824230	-0.618536
H55	H	1.016235	-0.740694	-0.635328
H56	H	1.076195	-0.896216	-0.574151
H57	H	1.139636	-0.812625	-0.590997
H58	H	1.300901	-0.810810	-0.425043
O59	O	1.273418	-0.907645	-0.280213
C60	C	1.314053	-0.911445	-0.141160
C61	C	1.252497	-0.882374	-0.202749
H62	H	1.297170	-0.891013	-0.078519
H63	H	1.314061	-0.974599	-0.141866
H64	H	1.376542	-0.890200	-0.157515
H65	H	1.189978	-0.903564	-0.186437
H66	H	1.252559	-0.819221	-0.202032
H67	H	1.201498	-0.903665	-0.524335
