data_functionalizedCrystal
_audit_creation_method	'MofGen! by Chris Wilmer'
_symmetry_space_group_name_H-M	'P1'
_symmetry_Int_Tables_number	1
_symmetry_cell_setting	triclinic
loop_
_symmetry_equiv_pos_as_xyz
  x,y,z
_cell_length_a	10.967829
_cell_length_b	11.026644
_cell_length_c	9.482900
_cell_angle_alpha	101.364536
_cell_angle_beta	87.494390
_cell_angle_gamma	83.620527
loop_
_atom_site_label
_atom_site_type_symbol
_atom_site_fract_x
_atom_site_fract_y
_atom_site_fract_z
O1	O	0.492531	-1.652484	-0.244314
O2	O	0.434759	-1.296433	-0.229837
O3	O	0.289360	-1.475832	-0.193407
O4	O	0.637930	-1.473086	-0.280744
O5	O	0.319046	-1.439399	0.040948
O6	O	0.464444	-1.260001	0.004518
O7	O	0.522216	-1.616052	-0.009960
Cu8	Cu	0.496041	-1.434700	0.018678
Cu9	Cu	0.460934	-1.477785	-0.258474
O10	O	0.667615	-1.436654	-0.046389
C11	C	0.438943	-1.232500	-0.109989
C12	C	0.407171	-1.096276	-0.102027
C13	C	0.462077	-0.885846	-0.115786
C14	C	0.494918	-1.026640	-0.124014
C15	C	0.258884	-1.454663	-0.064878
C16	C	0.123847	-1.445851	-0.031052
C17	C	0.048271	-1.460796	-0.137376
C18	C	-0.091298	-1.451689	-0.102418
C19	C	0.698091	-1.457823	-0.174922
C20	C	0.833127	-1.466636	-0.208757
N21	N	0.520734	-1.404404	0.213611
C22	C	0.518034	-0.679985	-0.129808
C23	C	0.549811	-0.816208	-0.137769
N24	N	0.436234	-1.508090	-0.453405
C25	C	0.468210	-1.468841	0.298970
C26	C	0.488766	-1.443644	0.461237
H27	H	0.362653	-0.841228	-0.090852
H28	H	0.594351	-1.071248	-0.148919
F29	F	0.679772	-0.874514	-0.170321
F30	F	0.567433	-1.347142	0.522724
H31	H	-0.129917	-1.432143	0.014498
F32	F	0.073369	-1.420305	0.121759
F33	F	0.098749	-1.486354	-0.290187
H34	H	0.307726	-1.051683	-0.077207
H35	H	0.376038	-1.581911	0.499552
H36	H	0.580916	-1.330579	0.260662
F37	F	-0.116408	-1.492136	-0.361575
F38	F	0.389279	-1.565103	0.237544
