data_functionalizedCrystal
_audit_creation_method	'MofGen! by Chris Wilmer'
_symmetry_space_group_name_H-M	'P1'
_symmetry_Int_Tables_number	1
_symmetry_cell_setting	triclinic
loop_
_symmetry_equiv_pos_as_xyz
  x,y,z
_cell_length_a	15.995350
_cell_length_b	14.044220
_cell_length_c	12.503572
_cell_angle_alpha	93.835250
_cell_angle_beta	93.525550
_cell_angle_gamma	91.659374
loop_
_atom_site_label
_atom_site_type_symbol
_atom_site_fract_x
_atom_site_fract_y
_atom_site_fract_z
O1	O	0.197434	-1.263165	-0.089196
O2	O	0.447434	-1.013165	0.160804
O3	O	0.697434	-0.763165	0.410804
O4	O	0.947434	-0.513165	0.660804
O5	O	0.190148	-0.987198	-0.089224
O6	O	0.440148	-0.737198	0.160776
O7	O	0.690148	-0.487198	0.410776
O8	O	0.940148	-0.237198	0.660776
O9	O	0.072467	-1.132725	-0.089208
O10	O	0.322467	-0.882725	0.160792
O11	O	0.572467	-0.632725	0.410792
O12	O	0.822467	-0.382725	0.660792
O13	O	0.315115	-1.117638	-0.089212
O14	O	0.565115	-0.867638	0.160788
O15	O	0.815115	-0.617638	0.410788
O16	O	1.065115	-0.367638	0.660788
O17	O	0.081333	-1.121781	0.089432
O18	O	0.331333	-0.871781	0.339432
O19	O	0.581333	-0.621781	0.589432
O20	O	0.831333	-0.371781	0.839432
O21	O	0.199014	-0.976253	0.089417
O22	O	0.449014	-0.726253	0.339417
O23	O	0.699014	-0.476253	0.589417
O24	O	0.949014	-0.226253	0.839417
O25	O	0.206300	-1.252221	0.089445
O26	O	0.456300	-1.002221	0.339445
O27	O	0.706300	-0.752221	0.589445
O28	O	0.956300	-0.502221	0.839445
Cu29	Cu	0.203467	-1.113237	0.105742
Cu30	Cu	0.453467	-0.863237	0.355742
Cu31	Cu	0.703467	-0.613237	0.605742
Cu32	Cu	0.953467	-0.363237	0.855742
Cu33	Cu	0.192981	-1.126181	-0.105521
Cu34	Cu	0.442981	-0.876181	0.144479
Cu35	Cu	0.692981	-0.626181	0.394479
Cu36	Cu	0.942981	-0.376181	0.644479
O37	O	0.323981	-1.106693	0.089429
O38	O	0.573981	-0.856693	0.339429
O39	O	0.823981	-0.606693	0.589429
O40	O	1.073981	-0.356693	0.839429
C41	C	0.191392	-0.946411	0.000093
C42	C	0.441392	-0.696411	0.250093
C43	C	0.691392	-0.446411	0.500093
C44	C	0.941392	-0.196411	0.750093
C45	C	0.181881	-0.841186	0.000082
C46	C	0.431881	-0.591186	0.250082
C47	C	0.681881	-0.341186	0.500082
C48	C	0.931881	-0.091186	0.750082
C49	C	0.045658	-1.126629	0.000110
C50	C	0.295658	-0.876629	0.250110
C51	C	0.545658	-0.626629	0.500110
C52	C	0.795658	-0.376629	0.750110
C53	C	-0.047432	-1.124760	0.000104
C54	C	0.202568	-0.874760	0.250104
C55	C	0.452568	-0.624760	0.500104
C56	C	0.702568	-0.374760	0.750104
N57	N	0.210842	-1.104141	0.254333
N58	N	0.460842	-0.854141	0.504333
N59	N	0.710842	-0.604141	0.754333
N60	N	0.960842	-0.354141	1.004333
C61	C	-0.385681	-1.118044	0.000107
C62	C	-0.135681	-0.868044	0.250107
C63	C	0.114319	-0.618044	0.500107
C64	C	0.364319	-0.368044	0.750107
C65	C	-0.346008	-1.014426	-0.000304
C66	C	-0.096008	-0.764426	0.249696
C67	C	0.153992	-0.514426	0.499696
C68	C	0.403992	-0.264426	0.749696
C69	C	-0.249158	-1.016272	0.000099
C70	C	0.000842	-0.766272	0.250099
C71	C	0.250842	-0.516272	0.500099
C72	C	0.500842	-0.266272	0.750099
C73	C	-0.217872	-1.121375	0.000105
C74	C	0.032128	-0.871375	0.250105
C75	C	0.282128	-0.621375	0.500105
C76	C	0.532128	-0.371375	0.750105
C77	C	-0.250068	-1.166245	0.102120
C78	C	-0.000068	-0.916245	0.352120
C79	C	0.249932	-0.666245	0.602120
C80	C	0.499932	-0.416245	0.852120
C81	C	-0.346894	-1.163636	0.102206
C82	C	-0.096894	-0.913636	0.352206
C83	C	0.153106	-0.663636	0.602206
C84	C	0.403106	-0.413636	0.852206
C85	C	-0.357175	-1.178223	-0.100942
C86	C	-0.107175	-0.928223	0.149058
C87	C	0.142825	-0.678223	0.399058
C88	C	0.392825	-0.428223	0.649058
C89	C	-0.260298	-1.178281	-0.102290
C90	C	-0.010298	-0.928281	0.147710
C91	C	0.239702	-0.678281	0.397710
C92	C	0.489702	-0.428281	0.647710
C93	C	-0.123033	-1.123263	0.000107
C94	C	0.126967	-0.873263	0.250107
C95	C	0.376967	-0.623263	0.500107
C96	C	0.626967	-0.373263	0.750107
C97	C	-0.480519	-1.116158	0.000111
C98	C	-0.230519	-0.866158	0.250111
C99	C	0.019481	-0.616158	0.500111
C100	C	0.269481	-0.366158	0.750111
C101	C	0.350789	-1.112789	0.000108
C102	C	0.600789	-0.862789	0.250108
C103	C	0.850789	-0.612789	0.500108
C104	C	1.100789	-0.362789	0.750108
C105	C	0.443879	-1.114659	0.000108
C106	C	0.693879	-0.864659	0.250108
C107	C	0.943879	-0.614659	0.500108
C108	C	1.193879	-0.364659	0.750108
C109	C	0.205055	-1.293007	0.000125
C110	C	0.455055	-1.043007	0.250125
C111	C	0.705055	-0.793007	0.500125
C112	C	0.955055	-0.543007	0.750125
C113	C	0.214567	-1.398233	0.000129
C114	C	0.464567	-1.148233	0.250129
C115	C	0.714567	-0.898233	0.500129
C116	C	0.964567	-0.648233	0.750129
C117	C	0.164494	-0.648523	0.000104
C118	C	0.414494	-0.398523	0.250104
C119	C	0.664494	-0.148523	0.500104
C120	C	0.914494	0.101477	0.750104
C121	C	0.231950	-0.590890	0.000107
C122	C	0.481950	-0.340890	0.250107
C123	C	0.731950	-0.090890	0.500107
C124	C	0.981950	0.159110	0.750107
C125	C	0.222276	-0.483686	0.000119
C126	C	0.472276	-0.233686	0.250119
C127	C	0.722276	0.016314	0.500119
C128	C	0.972276	0.266314	0.750119
C129	C	0.174167	-0.755737	0.000092
C130	C	0.424167	-0.505737	0.250092
C131	C	0.674167	-0.255737	0.500092
C132	C	0.924167	-0.005737	0.750092
N133	N	0.185600	-1.135285	-0.254113
N134	N	0.435600	-0.885285	-0.004113
N135	N	0.685600	-0.635285	0.245887
N136	N	0.935600	-0.385285	0.495887
C137	C	0.221698	-1.090759	0.473447
C138	C	0.471698	-0.840759	0.723447
C139	C	0.721698	-0.590759	0.973447
C140	C	0.971698	-0.340759	1.223447
C141	C	0.174747	-1.148663	0.526780
C142	C	0.424747	-0.898663	0.776780
C143	C	0.674747	-0.648663	1.026780
C144	C	0.924747	-0.398663	1.276780
C145	C	0.180787	-1.141218	0.648703
C146	C	0.430787	-0.891218	0.898703
C147	C	0.680787	-0.641218	1.148703
C148	C	0.930787	-0.391218	1.398703
C149	C	0.215658	-1.098204	0.351514
C150	C	0.465658	-0.848204	0.601514
C151	C	0.715658	-0.598204	0.851514
C152	C	0.965658	-0.348204	1.101514
H153	H	-0.227367	-0.980568	-0.073031
H154	H	0.022633	-0.730568	0.176969
H155	H	0.272633	-0.480568	0.426969
H156	H	0.522633	-0.230568	0.676969
H157	H	0.130016	-1.203829	0.480873
H158	H	0.380016	-0.953829	0.730873
H159	H	0.630016	-0.703829	0.980873
H160	H	0.880016	-0.453829	1.230873
Cl161	Cl	0.332332	-0.639012	0.000099
Cl162	Cl	0.582332	-0.389012	0.250099
Cl163	Cl	0.832332	-0.139012	0.500099
Cl164	Cl	1.082332	0.110988	0.750099
Cl165	Cl	0.290760	-1.005596	0.544318
Cl166	Cl	0.540760	-0.755596	0.794318
Cl167	Cl	0.790760	-0.505596	1.044318
Cl168	Cl	1.040760	-0.255596	1.294318
H169	H	-0.383262	-1.254680	-0.101623
H170	H	-0.133262	-1.004680	0.148377
H171	H	0.116738	-0.754680	0.398377
H172	H	0.366738	-0.504680	0.648377
Cl173	Cl	0.064118	-0.600400	0.000107
Cl174	Cl	0.314118	-0.350400	0.250107
Cl175	Cl	0.564118	-0.100400	0.500107
Cl176	Cl	0.814118	0.149600	0.750107
Cl177	Cl	-0.205183	-0.946883	0.113183
Cl178	Cl	0.044817	-0.696883	0.363183
Cl179	Cl	0.294817	-0.446883	0.613183
Cl180	Cl	0.544817	-0.196883	0.863183
H181	H	-0.365072	-0.968729	0.072438
H182	H	-0.115072	-0.718729	0.322438
H183	H	0.134928	-0.468729	0.572438
H184	H	0.384928	-0.218729	0.822438
Cl185	Cl	-0.385001	-0.957383	-0.113256
Cl186	Cl	-0.135001	-0.707383	0.136744
Cl187	Cl	0.114999	-0.457383	0.386744
Cl188	Cl	0.364999	-0.207383	0.636744
H189	H	-0.373229	-1.239445	0.106839
H190	H	-0.123229	-0.989445	0.356839
H191	H	0.126771	-0.739445	0.606839
H192	H	0.376771	-0.489445	0.856839
Cl193	Cl	-0.373609	-1.098866	0.219932
Cl194	Cl	-0.123609	-0.848866	0.469932
Cl195	Cl	0.126391	-0.598866	0.719932
Cl196	Cl	0.376391	-0.348866	0.969932
Cl197	Cl	-0.204531	-1.104248	0.219327
Cl198	Cl	0.045469	-0.854248	0.469327
Cl199	Cl	0.295469	-0.604248	0.719327
Cl200	Cl	0.545469	-0.354248	0.969327
Cl201	Cl	-0.227797	-1.128190	-0.218828
Cl202	Cl	0.022203	-0.878190	0.031172
Cl203	Cl	0.272203	-0.628190	0.281172
Cl204	Cl	0.522203	-0.378190	0.531172
H205	H	-0.384083	-1.149075	-0.178264
H206	H	-0.134083	-0.899075	0.071736
H207	H	0.115917	-0.649075	0.321736
H208	H	0.365917	-0.399075	0.571736
Cl209	Cl	-0.228211	-1.297200	-0.111801
Cl210	Cl	0.021789	-1.047200	0.138199
Cl211	Cl	0.271789	-0.797200	0.388199
Cl212	Cl	0.521789	-0.547200	0.638199
Cl213	Cl	-0.219065	-1.285103	0.107991
Cl214	Cl	0.030935	-1.035103	0.357991
Cl215	Cl	0.280935	-0.785103	0.607991
Cl216	Cl	0.530935	-0.535103	0.857991
