data_functionalizedCrystal
_audit_creation_method	'MofGen! by Chris Wilmer'
_symmetry_space_group_name_H-M	'P1'
_symmetry_Int_Tables_number	1
_symmetry_cell_setting	triclinic
loop_
_symmetry_equiv_pos_as_xyz
  x,y,z
_cell_length_a	6.817900
_cell_length_b	11.102289
_cell_length_c	11.102291
_cell_angle_alpha	91.949175
_cell_angle_beta	108.605752
_cell_angle_gamma	108.605707
loop_
_atom_site_label
_atom_site_type_symbol
_atom_site_fract_x
_atom_site_fract_y
_atom_site_fract_z
V1	V	-4.111539	-0.175855	-0.396259
O2	O	-4.070571	0.008434	-0.388716
O3	O	-4.088316	-0.348675	-0.393548
O4	O	-4.088323	-0.173157	-0.569081
O5	O	-4.070563	-0.168299	-0.211968
V6	V	-4.588641	-0.153811	-0.374216
O7	O	-4.386882	-0.224210	-0.444611
O8	O	-4.763495	-0.105456	-0.325864
O9	O	-4.388657	0.019009	-0.376926
O10	O	-4.747005	-0.338100	-0.381759
O11	O	-4.747013	-0.161367	-0.558507
O12	O	-4.388650	-0.156509	-0.201394
C13	C	-3.938626	-0.390805	-0.387297
C14	C	-4.001093	-0.532087	-0.386233
C15	C	-3.938635	-0.166913	-0.611205
C16	C	-4.001104	-0.165850	-0.752488
C17	C	-4.214448	-0.604936	-0.392073
C18	C	-4.273136	-0.737687	-0.391084
C19	C	-3.905091	-0.724729	-0.378410
C20	C	-3.846411	-0.591981	-0.379408
C21	C	-4.426934	-0.612418	-0.399385
C22	C	-4.485622	-0.745169	-0.398396
C23	C	-4.214459	-0.171690	-0.825336
C24	C	-4.273130	-0.170667	-0.958082
C25	C	-3.905073	-0.157970	-0.945121
C26	C	-3.846400	-0.158984	-0.812376
C27	C	-4.426957	-0.179026	-0.832821
C28	C	-4.485628	-0.178003	-0.965567
C29	C	-4.201689	0.061132	-0.383174
C30	C	-4.118462	0.202413	-0.384246
C31	C	-4.201680	-0.162758	-0.159263
C32	C	-4.118448	-0.163813	-0.017979
H33	H	-3.672690	-0.532675	-0.374667
Br34	Br	-4.459396	-0.035253	-0.754311
H35	H	-3.672673	-0.154230	-0.753067
Br36	Br	-3.695134	-0.148650	-1.026405
H37	H	-4.427000	-0.559187	-0.309776
Br38	Br	-4.705031	-0.841640	-0.555403
H39	H	-4.522353	-0.273804	-0.808357
Br40	Br	-4.546408	-0.027609	-1.014087
H41	H	-4.629325	-0.269897	-1.018414
H42	H	-4.538802	-0.593201	-0.491815
Br43	Br	-3.695182	-0.806022	-0.369152
Br44	Br	-4.571137	-0.786794	-0.253705
