data_functionalizedCrystal
_audit_creation_method	'MofGen! by Chris Wilmer'
_symmetry_space_group_name_H-M	'P1'
_symmetry_Int_Tables_number	1
_symmetry_cell_setting	triclinic
loop_
_symmetry_equiv_pos_as_xyz
  x,y,z
_cell_length_a	18.215407
_cell_length_b	21.395361
_cell_length_c	21.395355
_cell_angle_alpha	89.978489
_cell_angle_beta	89.975310
_cell_angle_gamma	90.031156
loop_
_atom_site_label
_atom_site_type_symbol
_atom_site_fract_x
_atom_site_fract_y
_atom_site_fract_z
Zn1	Zn	1.125077	-0.249504	-0.354251
Zn2	Zn	1.625077	0.250496	0.145749
Zn3	Zn	1.124963	-0.354263	-0.249468
Zn4	Zn	1.624963	0.145737	0.250532
Zn5	Zn	1.002000	-0.249505	-0.249487
Zn6	Zn	1.502000	0.250495	0.250513
Zn7	Zn	1.001963	-0.354248	-0.354208
Zn8	Zn	1.501963	0.145752	0.145792
O9	O	1.063501	-0.301880	-0.301853
O10	O	1.563501	0.198120	0.198147
O11	O	1.228046	-0.263406	-0.340361
O12	O	1.728046	0.236594	0.159639
O13	O	1.108619	-0.340374	-0.161792
O14	O	1.608619	0.159626	0.338208
O15	O	1.018389	-0.161827	-0.263410
O16	O	1.518389	0.338173	0.236590
O17	O	1.227962	-0.340373	-0.263377
O18	O	1.727962	0.159627	0.236623
O19	O	1.108814	-0.161826	-0.340380
O20	O	1.608814	0.338174	0.159620
O21	O	1.018278	-0.263408	-0.161807
O22	O	1.518278	0.236592	0.338193
O23	O	0.899010	-0.263393	-0.263369
O24	O	1.399010	0.236607	0.236631
O25	O	1.018327	-0.340347	-0.441891
O26	O	1.518327	0.159653	0.058109
O27	O	0.898984	-0.340348	-0.340306
O28	O	1.398984	0.159652	0.159694
O29	O	1.108779	-0.263391	-0.441923
O30	O	1.608779	0.236609	0.058077
O31	O	1.108584	-0.441939	-0.263336
O32	O	1.608584	0.058061	0.236664
O33	O	1.018216	-0.441928	-0.340288
O34	O	1.518216	0.058072	0.159712
C35	C	1.063404	-0.464668	-0.301818
C36	C	1.563404	0.035332	0.198182
C37	C	1.063429	-0.534309	-0.301824
C38	C	1.563429	-0.034309	0.198176
C39	C	0.872295	-0.301869	-0.301835
C40	C	1.372295	0.198131	0.198165
C41	C	0.790496	-0.301880	-0.301842
C42	C	1.290496	0.198120	0.198158
C43	C	1.110525	-0.567007	-0.261797
C44	C	1.610525	-0.067007	0.238203
C45	C	1.110560	-0.632442	-0.261811
C46	C	1.610560	-0.132442	0.238189
C47	C	1.063485	-0.665177	-0.301846
C48	C	1.563485	-0.165177	0.198154
C49	C	1.016386	-0.632471	-0.341882
C50	C	1.516386	-0.132471	0.158118
C51	C	1.016358	-0.567037	-0.341871
C52	C	1.516358	-0.067037	0.158129
C53	C	0.997221	-0.768893	-0.306756
C54	C	1.497221	-0.268893	0.193244
C55	C	0.997248	-0.834326	-0.306762
C56	C	1.497248	-0.334326	0.193238
C57	C	1.063570	-0.866998	-0.301883
C58	C	1.563570	-0.366998	0.198117
C59	C	1.129869	-0.834229	-0.296984
C60	C	1.629869	-0.334229	0.203016
C61	C	1.129841	-0.768795	-0.296973
C62	C	1.629841	-0.268795	0.203027
C63	C	1.063510	-0.736129	-0.301862
C64	C	1.563510	-0.236129	0.198138
C65	C	1.110707	-0.970649	-0.261868
C66	C	1.610707	-0.470649	0.238132
C67	C	1.110743	-1.036085	-0.261886
C68	C	1.610743	-0.536085	0.238114
C69	C	1.016562	-1.036113	-0.341954
C70	C	1.516562	-0.536113	0.158046
C71	C	1.016533	-0.970677	-0.341939
C72	C	1.516533	-0.470677	0.158061
C73	C	1.063605	-0.937949	-0.301892
C74	C	1.563605	-0.437949	0.198108
C75	C	0.602307	-0.342013	-0.341854
C76	C	1.102307	0.157987	0.158146
C77	C	0.525448	-0.342015	-0.341861
C78	C	1.025448	0.157985	0.158139
C79	C	0.525446	-0.261758	-0.261867
C80	C	1.025446	0.238242	0.238133
C81	C	0.602304	-0.261754	-0.261862
C82	C	1.102304	0.238246	0.238138
C83	C	0.640732	-0.301885	-0.301855
C84	C	1.140732	0.198115	0.198145
C85	C	0.487016	-0.301891	-0.301867
C86	C	0.987016	0.198109	0.198133
C87	C	0.403682	-0.301893	-0.301875
C88	C	0.903682	0.198107	0.198125
C89	C	0.724071	-0.301882	-0.301848
C90	C	1.224071	0.198118	0.198152
C91	C	1.255454	-0.301891	-0.301872
C92	C	1.755454	0.198109	0.198128
C93	C	1.337253	-0.301896	-0.301880
C94	C	1.837253	0.198104	0.198120
C95	C	1.063562	-0.301867	-0.465277
C96	C	1.563562	0.198133	0.034723
C97	C	1.063588	-0.301862	-0.534918
C98	C	1.563588	0.198138	-0.034918
C99	C	1.063618	-0.138457	-0.301902
C100	C	1.563618	0.361543	0.198098
C101	C	1.063668	-0.068815	-0.301923
C102	C	1.563668	0.431185	0.198077
C103	C	1.110684	-0.261790	-0.567649
C104	C	1.610684	0.238210	-0.067649
C105	C	1.110683	-0.261763	-0.633084
C106	C	1.610683	0.238237	-0.133084
C107	C	1.063594	-0.301819	-0.665786
C108	C	1.563594	0.198181	-0.165786
C109	C	1.016489	-0.341894	-0.633048
C110	C	1.516489	0.158106	-0.133048
C111	C	1.016486	-0.341916	-0.567614
C112	C	1.516486	0.158084	-0.067614
C113	C	1.057749	-0.358235	-0.769449
C114	C	1.557749	0.141765	-0.269449
C115	C	1.057757	-0.358214	-0.834882
C116	C	1.557757	0.141786	-0.334882
C117	C	1.063598	-0.301753	-0.867607
C118	C	1.563598	0.198247	-0.367607
C119	C	1.069447	-0.245310	-0.834891
C120	C	1.569447	0.254690	-0.334891
C121	C	1.069444	-0.245332	-0.769457
C122	C	1.569444	0.254668	-0.269457
C123	C	1.063591	-0.301800	-0.736739
C124	C	1.563591	0.198200	-0.236739
C125	C	1.110696	-0.261648	-0.971290
C126	C	1.610696	0.238352	-0.471290
C127	C	1.110690	-0.261620	-1.036727
C128	C	1.610690	0.238380	-0.536727
C129	C	1.016499	-0.341757	-1.036690
C130	C	1.516499	0.158243	-0.536690
C131	C	1.016501	-0.341780	-0.971254
C132	C	1.516501	0.158220	-0.471254
C133	C	1.063604	-0.301726	-0.938559
C134	C	1.563604	0.198274	-0.438559
C135	C	1.063482	-0.301847	-0.139066
C136	C	1.563482	0.198153	0.360934
C137	C	1.063599	-0.301676	-0.069425
C138	C	1.563599	0.198324	0.430575
H139	H	1.148855	-0.540362	-0.229190
H140	H	1.648855	-0.040362	0.270810
H141	H	1.149045	-0.229030	-0.944668
H142	H	1.649045	0.270970	-0.444668
C143	C	0.964781	-1.072117	-0.385995
C144	C	1.464781	-0.572117	0.114005
N145	N	0.925778	-1.099239	-0.419168
N146	N	1.425778	-0.599239	0.080832
C147	C	0.483168	-0.217620	-0.217874
C148	C	0.983168	0.282380	0.282126
N149	N	0.451325	-0.184375	-0.184736
N150	N	0.951325	0.315625	0.315264
C151	C	1.162554	-1.072053	-0.217850
C152	C	1.662554	-0.572053	0.282150
N153	N	1.201578	-1.099144	-0.184679
N154	N	1.701578	-0.599144	0.315321
C155	C	0.964738	-0.934708	-0.385986
C156	C	1.464738	-0.434708	0.114014
N157	N	0.925732	-0.907616	-0.419172
N158	N	1.425732	-0.407616	0.080828
C159	C	1.075871	-0.183197	-0.870884
C160	C	1.575871	0.316803	-0.370884
N161	N	1.080710	-0.136416	-0.897997
N162	N	1.580710	0.363584	-0.397997
C163	C	1.162500	-0.217534	-1.072731
C164	C	1.662500	0.282466	-0.572731
N165	N	1.201526	-0.184328	-1.099849
N166	N	1.701526	0.315672	-0.599849
C167	C	0.483184	-0.386165	-0.385857
C168	C	0.983184	0.113835	0.114143
N169	N	0.451351	-0.419423	-0.418995
N170	N	0.951351	0.080577	0.081005
H171	H	0.633590	-0.229072	-0.229291
H172	H	1.133590	0.270928	0.270709
C173	C	1.162499	-0.217682	-0.669095
C174	C	1.662499	0.282318	-0.169095
N175	N	1.201528	-0.184482	-0.696216
N176	N	1.701528	0.315518	-0.196216
H177	H	1.149037	-0.229174	-0.541032
H178	H	1.649037	0.270826	-0.041032
C179	C	1.051337	-0.420352	-0.733458
C180	C	1.551337	0.079648	-0.233458
N181	N	1.046513	-0.467137	-0.706350
N182	N	1.546513	0.032863	-0.206350
C183	C	0.964694	-0.385866	-0.935249
C184	C	1.464694	0.114134	-0.435249
N185	N	0.925669	-0.419072	-0.908130
N186	N	1.425669	0.080928	-0.408130
H187	H	1.074204	-0.199374	-0.742823
H188	H	1.574204	0.300626	-0.242823
H189	H	0.978150	-0.374366	-1.063315
H190	H	1.478150	0.125634	-0.563315
H191	H	1.052999	-0.404173	-0.861514
H192	H	1.552999	0.095827	-0.361514
C193	C	0.964600	-0.668481	-0.385918
C194	C	1.464600	-0.168481	0.114082
N195	N	0.925595	-0.695603	-0.419089
N196	N	1.425595	-0.195603	0.080911
H197	H	0.978146	-0.374507	-0.659678
H198	H	1.478146	0.125493	-0.159678
H199	H	0.978131	-0.374547	-0.540965
H200	H	1.478131	0.125453	-0.040965
H201	H	1.183822	-0.742116	-0.292986
H202	H	1.683822	-0.242116	0.207014
C203	C	1.162367	-0.668418	-0.217772
C204	C	1.662367	-0.168418	0.282228
N205	N	1.201387	-0.695512	-0.184600
N206	N	1.701387	-0.195512	0.315400
H207	H	1.183875	-0.860829	-0.293011
H208	H	1.683875	-0.360829	0.206989
H209	H	0.943264	-0.861001	-0.310745
H210	H	1.443264	-0.361001	0.189255
C211	C	0.924255	-0.732960	-0.312109
C212	C	1.424255	-0.232960	0.187891
N213	N	0.869298	-0.705896	-0.316135
N214	N	1.369298	-0.205896	0.183865
C215	C	1.162497	-0.934645	-0.217826
C216	C	1.662497	-0.434645	0.282174
N217	N	1.201509	-0.907530	-0.184655
N218	N	1.701509	-0.407530	0.315345
H219	H	0.633593	-0.374689	-0.374420
H220	H	1.133593	0.125311	0.125580
C221	C	0.964556	-0.531068	-0.385915
C222	C	1.464556	-0.031068	0.114085
N223	N	0.925540	-0.503975	-0.419091
N224	N	1.425540	-0.003975	0.080909
