data_functionalizedCrystal
_audit_creation_method	'MofGen! by Chris Wilmer'
_symmetry_space_group_name_H-M	'P1'
_symmetry_Int_Tables_number	1
_symmetry_cell_setting	triclinic
loop_
_symmetry_equiv_pos_as_xyz
  x,y,z
_cell_length_a	19.188930
_cell_length_b	27.732048
_cell_length_c	17.666332
_cell_angle_alpha	89.988553
_cell_angle_beta	89.976766
_cell_angle_gamma	82.893716
loop_
_atom_site_label
_atom_site_type_symbol
_atom_site_fract_x
_atom_site_fract_y
_atom_site_fract_z
O1	O	0.925765	0.060348	-0.063200
O2	O	1.425765	0.560348	0.436800
O3	O	0.722402	0.068472	-0.063149
O4	O	1.222402	0.568472	0.436851
O5	O	0.830399	-0.005968	-0.063161
O6	O	1.330399	0.494032	0.436839
O7	O	0.817767	0.134787	-0.063187
O8	O	1.317767	0.634787	0.436813
O9	O	0.830380	-0.005971	0.062735
O10	O	1.330380	0.494029	0.562735
O11	O	0.722383	0.068468	0.062748
O12	O	1.222383	0.568468	0.562748
O13	O	0.925746	0.060344	0.062697
O14	O	1.425746	0.560344	0.562697
Cu15	Cu	0.824063	0.064406	0.074218
Cu16	Cu	1.324063	0.564406	0.574218
Cu17	Cu	0.824085	0.064410	-0.074670
Cu18	Cu	1.324085	0.564410	0.425330
O19	O	0.817748	0.134783	0.062710
O20	O	1.317748	0.634783	0.562710
C21	C	0.696383	0.068207	-0.000194
C22	C	1.196383	0.568207	0.499806
C23	C	0.618883	0.067417	-0.000174
C24	C	1.118883	0.567417	0.499826
C25	C	0.573681	0.111096	-0.000194
C26	C	1.073681	0.611096	0.499806
C27	C	0.500862	0.110354	-0.000202
C28	C	1.000862	0.610354	0.499798
C29	C	0.473249	0.065931	-0.000205
C30	C	0.973249	0.565931	0.499795
C31	C	0.518461	0.022246	-0.000181
C32	C	1.018461	0.522246	0.499819
C33	C	0.591278	0.022990	-0.000165
C34	C	1.091278	0.522990	0.499835
N35	N	0.365491	0.031976	-0.043078
N36	N	0.865491	0.531976	0.456922
N37	N	0.296317	0.031273	-0.043094
N38	N	0.796317	0.531273	0.456906
C39	C	0.253854	0.063689	-0.000251
C40	C	0.753854	0.563689	0.499749
N41	N	0.283177	0.096841	0.042600
N42	N	0.783177	0.596841	0.542600
N43	N	0.352357	0.097546	0.042613
N44	N	0.852357	0.597546	0.542613
C45	C	0.394291	0.065120	-0.000222
C46	C	0.894291	0.565120	0.499778
C47	C	0.129692	0.106566	-0.000279
C48	C	0.629692	0.606566	0.499721
C49	C	0.056872	0.105822	-0.000282
C50	C	0.556872	0.605822	0.499718
C51	C	0.074473	0.017714	-0.000269
C52	C	0.574473	0.517714	0.499731
C53	C	0.147292	0.018459	-0.000258
C54	C	0.647292	0.518459	0.499742
C55	C	0.174897	0.062886	-0.000267
C56	C	0.674897	0.562886	0.499733
C57	C	0.830125	-0.023977	-0.000211
C58	C	1.330125	0.476023	0.499789
C59	C	0.829326	-0.077635	-0.000204
C60	C	1.329326	0.422365	0.499796
C61	C	0.888119	-0.416270	-0.000258
C62	C	1.388119	0.083730	0.499742
C63	C	0.885157	-0.617939	-0.000268
C64	C	1.385157	-0.117939	0.499732
O65	O	0.938918	-0.649030	-0.000314
O66	O	1.438918	-0.149030	0.499686
N67	N	0.821118	-0.637258	-0.000251
N68	N	1.321118	-0.137258	0.499749
C69	C	0.757816	-0.606157	-0.000237
C70	C	1.257816	-0.106157	0.499763
O71	O	0.703280	-0.627217	-0.000231
O72	O	1.203280	-0.127217	0.499769
C73	C	0.760780	-0.404489	-0.000233
C74	C	1.260780	0.095511	0.499767
C75	C	0.824822	-0.385173	-0.000242
C76	C	1.324822	0.114827	0.499758
C77	C	0.952156	-0.396953	-0.000268
C78	C	1.452156	0.103047	0.499732
C79	C	0.952896	-0.346539	-0.000261
C80	C	1.452896	0.153461	0.499739
C81	C	0.889599	-0.315441	-0.000245
C82	C	1.389599	0.184559	0.499755
C83	C	0.825562	-0.334759	-0.000235
C84	C	1.325562	0.165241	0.499765
C85	C	0.697478	-0.373389	-0.000224
C86	C	1.197478	0.126611	0.499776
C87	C	0.698225	-0.322969	-0.000225
C88	C	1.198225	0.177031	0.499775
C89	C	0.762267	-0.303653	-0.000234
C90	C	1.262267	0.196347	0.499766
C91	C	0.763005	-0.253247	-0.000212
C92	C	1.263005	0.246753	0.499788
N93	N	0.827043	-0.233928	-0.000229
N94	N	1.327043	0.266072	0.499771
C95	C	0.890340	-0.265025	-0.000245
C96	C	1.390340	0.234975	0.499755
C97	C	0.756265	-0.712036	-0.000238
C98	C	1.256265	-0.212036	0.499762
C99	C	0.755524	-0.762452	-0.000238
C100	C	1.255524	-0.262452	0.499762
C101	C	0.882865	-0.774231	-0.000270
C102	C	1.382865	-0.274231	0.499730
C103	C	0.883605	-0.723813	-0.000265
C104	C	1.383605	-0.223813	0.499735
C105	C	0.820303	-0.692716	-0.000254
C106	C	1.320303	-0.192716	0.499746
C107	C	0.891889	-0.159151	-0.000231
C108	C	1.391889	0.340849	0.499769
C109	C	0.892623	-0.108732	-0.000221
C110	C	1.392623	0.391268	0.499779
C111	C	0.765283	-0.096958	-0.000193
C112	C	1.265283	0.403042	0.499807
C113	C	0.764549	-0.147373	-0.000198
C114	C	1.264549	0.352627	0.499802
C115	C	0.827857	-0.178468	-0.000220
C116	C	1.327857	0.321532	0.499780
O117	O	0.709272	-0.222127	-0.000174
O118	O	1.209272	0.277873	0.499826
O119	O	0.944868	-0.243956	-0.000268
O120	O	1.444868	0.256044	0.499732
C121	C	0.887379	-0.466684	-0.000265
C122	C	1.387379	0.033316	0.499735
C123	C	0.823342	-0.486001	-0.000255
C124	C	1.323342	0.013999	0.499745
C125	C	0.760045	-0.454904	-0.000238
C126	C	1.260045	0.045096	0.499762
C127	C	0.822601	-0.536418	-0.000254
C128	C	1.322601	-0.036418	0.499746
C129	C	0.885898	-0.567515	-0.000271
C130	C	1.385898	-0.067515	0.499729
C131	C	0.949936	-0.548195	-0.000288
C132	C	1.449936	-0.048195	0.499712
C133	C	0.950676	-0.497781	-0.000281
C134	C	1.450676	0.002219	0.499719
C135	C	0.696007	-0.474223	-0.000222
C136	C	1.196007	0.025777	0.499778
C137	C	0.695272	-0.524638	-0.000227
C138	C	1.195272	-0.024638	0.499773
C139	C	0.758569	-0.555735	-0.000244
C140	C	1.258569	-0.055735	0.499756
C141	C	0.951765	0.060609	-0.000260
C142	C	1.451765	0.560609	0.499740
C143	C	1.029264	0.061399	-0.000285
C144	C	1.529264	0.561399	0.499715
C145	C	0.818023	0.152793	-0.000243
C146	C	1.318023	0.652793	0.499757
C147	C	0.818821	0.206450	-0.000254
C148	C	1.318821	0.706450	0.499746
N149	N	0.824052	0.064402	0.178937
N150	N	1.324052	0.564402	0.678937
N151	N	0.824101	0.064410	-0.179389
N152	N	1.324101	0.564410	0.320611
C153	C	0.871889	0.031456	0.218541
C154	C	1.371889	0.531456	0.718541
C155	C	0.871893	0.031454	0.297789
C156	C	1.371893	0.531454	0.797789
C157	C	0.824067	0.064406	0.337429
C158	C	1.324067	0.564406	0.837429
C159	C	0.776221	0.097354	0.297816
C160	C	1.276221	0.597354	0.797816
C161	C	0.776214	0.097352	0.218570
C162	C	1.276214	0.597352	0.718570
N163	N	0.814718	0.107196	0.461842
N164	N	1.314718	0.607196	0.961842
N165	N	0.814729	0.107196	0.537122
N166	N	1.314729	0.607196	1.037122
C167	C	0.824085	0.064412	0.576193
C168	C	1.324085	0.564412	1.076193
N169	N	0.833444	0.021627	0.537140
N170	N	1.333444	0.521627	1.037140
N171	N	0.833436	0.021628	0.461853
N172	N	1.333436	0.521628	0.961853
C173	C	0.824069	0.064411	0.423359
C174	C	1.324069	0.564411	0.923359
C175	C	0.871929	0.031462	0.701727
C176	C	1.371929	0.531462	1.201727
C177	C	0.871928	0.031459	0.780976
C178	C	1.371928	0.531459	1.280976
C179	C	0.776260	0.097363	0.781001
C180	C	1.276260	0.597363	1.281001
C181	C	0.776257	0.097361	0.701754
C182	C	1.276257	0.597361	1.201754
C183	C	0.824096	0.064411	0.662121
C184	C	1.324096	0.564411	1.162121
H185	H	0.051991	-0.018456	-0.000319
H186	H	0.551991	0.481544	0.499681
H187	H	0.628083	-0.012580	-0.000150
H188	H	1.128083	0.487420	0.499850
H189	H	0.910880	0.004628	0.813222
H190	H	1.410880	0.504628	1.313222
O191	O	0.452093	0.157465	-0.000231
O192	O	0.952093	0.657465	0.499769
H193	H	0.483523	0.188483	-0.000240
H194	H	0.983523	0.688483	0.499760
H195	H	0.737259	0.124181	0.186323
H196	H	1.237259	0.624181	0.686323
O197	O	1.020432	-0.430490	-0.000275
O198	O	1.520432	0.069510	0.499725
H199	H	1.065078	-0.408579	-0.000274
H200	H	1.565078	0.091421	0.499726
H201	H	0.645328	-0.389107	-0.000221
H202	H	1.145328	0.110893	0.499779
H203	H	0.737280	0.124183	0.330095
H204	H	1.237280	0.624183	0.830095
O205	O	0.952677	-0.702979	-0.000289
O206	O	1.452677	-0.202979	0.499711
H207	H	0.996563	-0.733078	-0.000306
H208	H	1.496563	-0.233078	0.499694
O209	O	0.923499	-0.004077	0.340516
O210	O	1.423499	0.495923	0.840516
H211	H	0.915026	-0.041747	0.325327
H212	H	1.415026	0.458253	0.825327
H213	H	0.737317	0.124191	0.813276
H214	H	1.237317	0.624191	1.313276
H215	H	0.184097	-0.017109	-0.000246
H216	H	0.684097	0.482891	0.499754
H217	H	0.944776	-0.093007	-0.000226
H218	H	1.444776	0.406993	0.499774
H219	H	0.910880	0.004630	0.669457
H220	H	1.410880	0.504630	1.169457
O221	O	0.724670	0.132901	0.659029
O222	O	1.224670	0.632901	1.159029
H223	H	0.691418	0.155818	0.699905
H224	H	1.191418	0.655818	1.199905
H225	H	0.943441	-0.184464	-0.000251
H226	H	1.443441	0.315536	0.499749
O227	O	0.008112	0.152935	-0.000297
O228	O	0.508112	0.652935	0.499703
H229	H	0.017889	0.174200	-0.051617
H230	H	0.517889	0.674200	0.448383
H231	H	1.005046	-0.330816	-0.000272
H232	H	1.505046	0.169184	0.499728
O233	O	0.603457	0.159011	-0.000181
O234	O	1.103457	0.659011	0.499819
H235	H	0.559786	0.189259	-0.000185
H236	H	1.059786	0.689259	0.499815
O237	O	0.951138	-0.807775	-0.000293
O238	O	1.451138	-0.307775	0.499707
H239	H	0.939857	-0.846077	-0.000298
H240	H	1.439857	-0.346077	0.499702
H241	H	0.910840	0.004625	0.186275
H242	H	1.410840	0.504625	0.686275
O243	O	0.686448	-0.783281	-0.000218
O244	O	1.186448	-0.283281	0.499782
H245	H	0.683050	-0.805971	0.051100
H246	H	1.183050	-0.305971	0.551100
O247	O	0.488679	-0.025666	-0.000185
O248	O	0.988679	0.474334	0.499815
H249	H	0.506839	-0.046645	0.051141
H250	H	1.006839	0.453355	0.551141
O251	O	0.159476	0.154481	-0.000273
O252	O	0.659476	0.654481	0.499727
H253	H	0.115806	0.184730	-0.000273
H254	H	0.615806	0.684730	0.499727
H255	H	0.704714	-0.686720	-0.000229
H256	H	1.204714	-0.186720	0.499771
H257	H	0.646676	-0.297652	-0.000217
H258	H	1.146676	0.202348	0.499783
H259	H	0.712400	-0.163101	-0.000170
H260	H	1.212400	0.336899	0.499830
O261	O	0.697014	-0.063413	-0.000172
O262	O	1.197014	0.436587	0.499828
H263	H	0.694318	-0.040158	-0.051487
H264	H	1.194318	0.459842	0.448513
O265	O	1.019750	-0.476949	-0.000306
O266	O	1.519750	0.023051	0.499694
H267	H	1.063634	-0.507049	-0.000328
H268	H	1.563634	-0.007049	0.499672
H269	H	1.001475	-0.573524	-0.000298
H270	H	1.501475	-0.073524	0.499702
H271	H	0.643117	-0.540360	-0.000213
H272	H	1.143117	-0.040360	0.499787
H273	H	0.644461	-0.448908	-0.000210
H274	H	1.144461	0.051092	0.499790
