data_functionalizedCrystal
_audit_creation_method	'MofGen! by Chris Wilmer'
_symmetry_space_group_name_H-M	'P1'
_symmetry_Int_Tables_number	1
_symmetry_cell_setting	triclinic
loop_
_symmetry_equiv_pos_as_xyz
  x,y,z
_cell_length_a	10.685980
_cell_length_b	16.625545
_cell_length_c	10.686551
_cell_angle_alpha	85.592661
_cell_angle_beta	81.591741
_cell_angle_gamma	94.392107
loop_
_atom_site_label
_atom_site_type_symbol
_atom_site_fract_x
_atom_site_fract_y
_atom_site_fract_z
Zn1	Zn	1.995734	-0.180728	-0.866688
Zn2	Zn	2.245734	0.069272	-0.616688
Zn3	Zn	2.495734	0.319272	-0.366688
Zn4	Zn	2.745734	0.569272	-0.116688
Zn5	Zn	1.979269	-0.326801	-0.654412
Zn6	Zn	2.229269	-0.076801	-0.404412
Zn7	Zn	2.479269	0.173199	-0.154412
Zn8	Zn	2.729269	0.423199	0.095588
Zn9	Zn	1.767155	-0.203170	-0.638151
Zn10	Zn	2.017155	0.046830	-0.388151
Zn11	Zn	2.267155	0.296830	-0.138151
Zn12	Zn	2.517155	0.546830	0.111849
Zn13	Zn	1.783392	-0.326723	-0.850323
Zn14	Zn	2.033392	-0.076723	-0.600323
Zn15	Zn	2.283392	0.173277	-0.350323
Zn16	Zn	2.533392	0.423277	-0.100323
O17	O	1.881388	-0.259356	-0.752394
O18	O	2.131388	-0.009356	-0.502394
O19	O	2.381388	0.240644	-0.252394
O20	O	2.631388	0.490644	-0.002394
O21	O	2.171187	-0.190746	-0.852184
O22	O	2.421187	0.059254	-0.602184
O23	O	2.671187	0.309254	-0.352184
O24	O	2.921187	0.559254	-0.102184
O25	O	1.937445	-0.319826	-0.474623
O26	O	2.187445	-0.069826	-0.224623
O27	O	2.437445	0.180174	0.025377
O28	O	2.687445	0.430174	0.275377
O29	O	1.797572	-0.087354	-0.668511
O30	O	2.047572	0.162646	-0.418511
O31	O	2.297572	0.412646	-0.168511
O32	O	2.547572	0.662646	0.081489
O33	O	2.159089	-0.298065	-0.696226
O34	O	2.409089	-0.048065	-0.446226
O35	O	2.659089	0.201935	-0.196226
O36	O	2.909089	0.451935	0.053774
O37	O	1.965509	-0.070866	-0.836416
O38	O	2.215509	0.179134	-0.586416
O39	O	2.465509	0.429134	-0.336416
O40	O	2.715509	0.679134	-0.086416
O41	O	1.781606	-0.228995	-0.462675
O42	O	2.031606	0.021005	-0.212675
O43	O	2.281606	0.271005	0.037325
O44	O	2.531606	0.521005	0.287325
O45	O	1.591673	-0.228919	-0.652641
O46	O	1.841673	0.021081	-0.402641
O47	O	2.091673	0.271081	-0.152641
O48	O	2.341673	0.521081	0.097359
O49	O	1.825246	-0.297931	-1.030127
O50	O	2.075246	-0.047931	-0.780127
O51	O	2.325246	0.202069	-0.530127
O52	O	2.575246	0.452069	-0.280127
O53	O	1.603602	-0.319692	-0.808523
O54	O	1.853602	-0.069692	-0.558523
O55	O	2.103602	0.180308	-0.308523
O56	O	2.353602	0.430308	-0.058523
O57	O	1.981253	-0.190670	-1.042150
O58	O	2.231253	0.059330	-0.792150
O59	O	2.481253	0.309330	-0.542150
O60	O	2.731253	0.559330	-0.292150
O61	O	1.953190	-0.439630	-0.680357
O62	O	2.203190	-0.189630	-0.430357
O63	O	2.453190	0.060370	-0.180357
O64	O	2.703190	0.310370	0.069643
O65	O	1.809280	-0.439572	-0.824291
O66	O	2.059280	-0.189572	-0.574291
O67	O	2.309280	0.060428	-0.324291
O68	O	2.559280	0.310428	-0.074291
C69	C	1.551578	-0.276733	-0.727043
C70	C	1.801578	-0.026733	-0.477043
C71	C	2.051578	0.223267	-0.227043
C72	C	2.301578	0.473267	0.022957
C73	C	1.410487	-0.284185	-0.716227
C74	C	1.660487	-0.034185	-0.466227
C75	C	1.910487	0.215815	-0.216227
C76	C	2.160487	0.465815	0.033773
C77	C	1.881247	-0.468856	-0.752343
C78	C	2.131247	-0.218856	-0.502343
C79	C	2.381247	0.031144	-0.252343
C80	C	2.631247	0.281144	-0.002343
C81	C	1.881306	-0.558473	-0.752373
C82	C	2.131306	-0.308473	-0.502373
C83	C	2.381306	-0.058473	-0.252373
C84	C	2.631306	0.191527	-0.002373
C85	C	1.881357	-0.631251	-0.752402
C86	C	2.131357	-0.381251	-0.502402
C87	C	2.381357	-0.131251	-0.252402
C88	C	2.631357	0.118749	-0.002402
C89	C	1.881433	-0.722554	-0.752436
C90	C	2.131433	-0.472554	-0.502436
C91	C	2.381433	-0.222554	-0.252436
C92	C	2.631433	0.027446	-0.002436
C93	C	1.881500	-0.795326	-0.752457
C94	C	2.131500	-0.545326	-0.502457
C95	C	2.381500	-0.295326	-0.252457
C96	C	2.631500	-0.045326	-0.002457
C97	C	1.881575	-0.886635	-0.752488
C98	C	2.131575	-0.636635	-0.502488
C99	C	2.381575	-0.386635	-0.252488
C100	C	2.631575	-0.136635	-0.002488
C101	C	2.212485	-0.241911	-0.777844
C102	C	2.462485	0.008089	-0.527844
C103	C	2.712485	0.258089	-0.277844
C104	C	2.962485	0.508089	-0.027844
C105	C	2.353579	-0.234477	-0.788690
C106	C	2.603579	0.015523	-0.538690
C107	C	2.853579	0.265523	-0.288690
C108	C	3.103579	0.515523	-0.038690
C109	C	1.906898	-0.241789	-1.083485
C110	C	2.156898	0.008211	-0.833485
C111	C	2.406898	0.258211	-0.583485
C112	C	2.656898	0.508211	-0.333485
C113	C	1.917769	-0.234303	-1.224576
C114	C	2.167769	0.015697	-0.974576
C115	C	2.417769	0.265697	-0.724576
C116	C	2.667769	0.515697	-0.474576
C117	C	1.881566	-0.049034	-0.752475
C118	C	2.131566	0.200966	-0.502475
C119	C	2.381566	0.450966	-0.252475
C120	C	2.631566	0.700966	-0.002475
C121	C	1.881642	0.040593	-0.752509
C122	C	2.131642	0.290593	-0.502509
C123	C	2.381642	0.540593	-0.252509
C124	C	2.631642	0.790593	-0.002509
C125	C	1.856050	-0.276792	-0.422597
C126	C	2.106050	-0.026792	-0.172597
C127	C	2.356050	0.223208	0.077403
C128	C	2.606050	0.473208	0.327403
C129	C	1.845425	-0.284038	-0.281525
C130	C	2.095425	-0.034038	-0.031525
C131	C	2.345425	0.215962	0.218475
C132	C	2.595425	0.465962	0.468475
H133	H	1.775175	-0.332348	-1.222343
H134	H	2.025175	-0.082348	-0.972343
H135	H	2.275175	0.167652	-0.722343
H136	H	2.525175	0.417652	-0.472343
C137	C	2.012688	-0.169039	-1.304519
C138	C	2.262688	0.080961	-1.054519
C139	C	2.512688	0.330961	-0.804519
C140	C	2.762688	0.580961	-0.554519
H141	H	2.056622	-0.138846	-1.249872
H142	H	2.306622	0.111154	-0.999872
H143	H	2.556622	0.361154	-0.749872
H144	H	2.806622	0.611154	-0.499872
H145	H	1.968105	-0.133751	-1.352522
H146	H	2.218105	0.116249	-1.102522
H147	H	2.468105	0.366249	-0.852522
H148	H	2.718105	0.616249	-0.602522
H149	H	2.071917	-0.194265	-1.360469
H150	H	2.321917	0.055735	-1.110469
H151	H	2.571917	0.305735	-0.860469
H152	H	2.821917	0.555735	-0.610469
C153	C	1.330490	-0.349387	-0.621234
C154	C	1.580490	-0.099387	-0.371234
C155	C	1.830490	0.150613	-0.121234
C156	C	2.080490	0.400613	0.128766
H157	H	1.242974	-0.346018	-0.626184
H158	H	1.492974	-0.096018	-0.376184
H159	H	1.742974	0.153982	-0.126184
H160	H	1.992974	0.403982	0.123816
H161	H	1.345576	-0.340900	-0.537619
H162	H	1.595576	-0.090900	-0.287619
H163	H	1.845576	0.159100	-0.037619
H164	H	2.095576	0.409100	0.212381
H165	H	1.353558	-0.401473	-0.641318
H166	H	1.603558	-0.151473	-0.391318
H167	H	1.853558	0.098527	-0.141318
H168	H	2.103558	0.348527	0.108682
H169	H	1.412796	-0.186214	-0.859000
H170	H	1.662796	0.063786	-0.609000
H171	H	1.912796	0.313786	-0.359000
H172	H	2.162796	0.563786	-0.109000
