data_functionalizedCrystal
_audit_creation_method	'MofGen! by Chris Wilmer'
_symmetry_space_group_name_H-M	'P1'
_symmetry_Int_Tables_number	1
_symmetry_cell_setting	triclinic
loop_
_symmetry_equiv_pos_as_xyz
  x,y,z
_cell_length_a	13.339070
_cell_length_b	10.654550
_cell_length_c	9.730223
_cell_angle_alpha	90.006407
_cell_angle_beta	90.002879
_cell_angle_gamma	79.942901
loop_
_atom_site_label
_atom_site_type_symbol
_atom_site_fract_x
_atom_site_fract_y
_atom_site_fract_z
O1	O	0.142427	-1.715930	-0.114401
O2	O	0.155997	-1.355034	-0.114379
O3	O	0.001658	-1.494063	-0.114383
O4	O	0.296766	-1.576901	-0.114397
O5	O	0.001668	-1.494054	0.114196
O6	O	0.156007	-1.355025	0.114201
O7	O	0.142437	-1.715921	0.114179
Zn8	Zn	0.149224	-1.535471	0.150482
Zn9	Zn	0.149210	-1.535483	-0.150682
O10	O	0.296776	-1.576892	0.114183
C11	C	-0.036124	-1.480065	-0.000094
C12	C	-0.148719	-1.438355	-0.000098
C13	C	0.155006	-1.307895	-0.000086
C14	C	0.152025	-1.167445	-0.000078
C15	C	0.143428	-1.763060	-0.000117
C16	C	0.146409	-1.903510	-0.000135
C17	C	-0.511236	-1.762670	-0.000117
C18	C	-0.405449	-1.801862	-0.000106
C19	C	-0.341261	-1.710989	-0.000105
C20	C	-0.382872	-1.580916	-0.000112
C21	C	-0.488670	-1.541720	-0.000112
C22	C	-0.318694	-1.490039	-0.000100
C23	C	-0.360305	-1.359966	-0.000108
C24	C	-0.466093	-1.320776	-0.000109
C25	C	-0.530280	-1.411650	-0.000110
C26	C	-0.212896	-1.529235	-0.000100
C27	C	-0.190329	-1.308285	-0.000096
C28	C	-0.296117	-1.269093	-0.000106
C29	C	0.334559	-1.590890	-0.000109
C30	C	0.447153	-1.632600	-0.000115
N31	N	0.149233	-1.535472	0.356018
C32	C	0.242897	-1.118643	-0.000102
C33	C	0.240090	-0.986674	-0.000125
C34	C	0.055530	-0.952320	-0.000106
C35	C	0.058338	-1.084286	-0.000073
C36	C	0.349452	-1.138476	-0.000119
C37	C	0.346644	-1.006507	-0.000142
N38	N	0.149193	-1.535490	-0.356218
C39	C	0.087127	-1.437696	0.571847
C40	C	0.087144	-1.437689	0.427964
C41	C	0.211301	-1.633276	0.427963
C42	C	0.211278	-1.633286	0.571843
C43	C	0.015450	-1.324773	0.571847
C44	C	0.015466	-1.324766	0.427964
H45	H	-0.255125	-1.742907	-0.000096
C46	C	0.049157	-1.202334	0.375243
H47	H	0.063012	-1.151994	0.451199
H48	H	-0.003615	-1.155259	0.321000
H49	H	0.108879	-1.224228	0.321021
C50	C	-0.359679	-1.944927	-0.000092
H51	H	-0.287481	-1.955255	-0.000075
H52	H	-0.381651	-1.983912	-0.079800
H53	H	-0.381656	-1.983876	0.079632
H54	H	0.261808	-1.712929	0.630407
H55	H	-0.616422	-1.379745	-0.000124
H56	H	-0.563506	-1.836644	-0.000107
H57	H	-0.179028	-1.635141	-0.000093
C58	C	0.279595	-1.740837	0.348826
H59	H	0.270724	-1.726823	0.252833
H60	H	0.261396	-1.820420	0.372382
H61	H	0.348808	-1.741609	0.372430
H62	H	-0.499968	-1.214863	-0.000105
H63	H	-0.064528	-1.328696	0.610861
C64	C	0.395288	-1.202136	-0.133426
H65	H	0.413762	-1.139168	-0.192811
H66	H	0.346409	-1.243255	-0.177706
H67	H	0.453988	-1.263252	-0.111999
C68	C	-0.341896	-1.126021	-0.000101
H69	H	-0.414094	-1.115700	-0.000092
H70	H	-0.319926	-1.087053	-0.079808
H71	H	-0.319924	-1.087049	0.079623
H72	H	0.047315	-1.240957	0.616508
C73	C	-0.119734	-1.208318	-0.000105
H74	H	-0.050769	-1.250290	-0.000121
H75	H	-0.132428	-1.156493	0.079604
H76	H	-0.132439	-1.156515	-0.079827
C77	C	-0.087678	-1.343314	0.367626
H78	H	-0.133625	-1.351572	0.440319
H79	H	-0.078359	-1.418140	0.312661
H80	H	-0.114689	-1.271655	0.312687
H81	H	-0.015659	-1.124015	-0.000034
H82	H	-0.020747	-0.884597	-0.000124
H83	H	0.378851	-0.971705	0.098540
C84	C	0.405763	-1.197115	0.129099
H85	H	0.427006	-1.131677	0.182229
H86	H	0.463624	-1.257437	0.102523
H87	H	0.361388	-1.238392	0.182276
H88	H	0.386788	-0.978335	-0.095812
