data_functionalizedCrystal
_audit_creation_method	'MofGen! by Chris Wilmer'
_symmetry_space_group_name_H-M	'P1'
_symmetry_Int_Tables_number	1
_symmetry_cell_setting	triclinic
loop_
_symmetry_equiv_pos_as_xyz
  x,y,z
_cell_length_a	15.995350
_cell_length_b	15.995350
_cell_length_c	15.072220
_cell_angle_alpha	89.998899
_cell_angle_beta	90.008851
_cell_angle_gamma	83.492375
loop_
_atom_site_label
_atom_site_type_symbol
_atom_site_fract_x
_atom_site_fract_y
_atom_site_fract_z
O1	O	-1.110996	-0.107921	-0.073703
O2	O	-0.610996	0.392079	0.426297
O3	O	-0.867221	-0.121249	-0.073721
O4	O	-0.367221	0.378751	0.426279
O5	O	-0.995772	0.007303	-0.073710
O6	O	-0.495772	0.507303	0.426290
O7	O	-0.982444	-0.236472	-0.073713
O8	O	-0.482444	0.263528	0.426287
O9	O	-0.995740	0.007296	0.073855
O10	O	-0.495740	0.507296	0.573855
O11	O	-0.867189	-0.121256	0.073844
O12	O	-0.367189	0.378744	0.573844
O13	O	-1.110964	-0.107928	0.073862
O14	O	-0.610964	0.392072	0.573862
Zn15	Zn	-0.989071	-0.114593	0.097283
Zn16	Zn	-0.489071	0.385407	0.597283
Zn17	Zn	-0.989113	-0.114584	-0.097141
Zn18	Zn	-0.489113	0.385416	0.402859
O19	O	-0.982413	-0.236480	0.073852
O20	O	-0.482413	0.263520	0.573852
C21	C	-0.836010	-0.120701	0.000060
C22	C	-0.336010	0.379299	0.500060
C23	C	-0.743060	-0.119049	0.000053
C24	C	-0.243060	0.380951	0.500053
C25	C	-1.142175	-0.108476	0.000080
C26	C	-0.642175	0.391524	0.500080
C27	C	-1.235125	-0.110127	0.000081
C28	C	-0.735125	0.389873	0.500081
C29	C	-0.405312	-0.113117	0.000071
C30	C	0.094688	0.386883	0.500071
C31	C	-0.452746	-0.021565	0.000401
C32	C	0.047254	0.478435	0.500401
C33	C	-0.549436	-0.023217	0.000063
C34	C	-0.049436	0.476783	0.500063
C35	C	-0.572873	-0.116060	0.000063
C36	C	-0.072873	0.383940	0.500063
C37	C	-0.531804	-0.161212	-0.084201
C38	C	-0.031804	0.338788	0.415799
C39	C	-0.435168	-0.158912	-0.084266
C40	C	0.064832	0.341088	0.415734
C41	C	-0.434793	-0.160812	0.083543
C42	C	0.065207	0.339188	0.583543
C43	C	-0.531738	-0.160790	0.084651
C44	C	-0.031738	0.339210	0.584651
C45	C	-0.667570	-0.117727	0.000055
C46	C	-0.167570	0.382273	0.500055
C47	C	-0.310614	-0.111452	0.000073
C48	C	0.189386	0.388548	0.500073
C49	C	-0.995205	0.038494	0.000070
C50	C	-0.495205	0.538494	0.500070
C51	C	-0.993553	0.131444	0.000065
C52	C	-0.493553	0.631444	0.500065
C53	C	-0.982980	-0.267671	0.000069
C54	C	-0.482980	0.232329	0.500069
C55	C	-0.984631	-0.360621	0.000069
C56	C	-0.484631	0.139379	0.500069
N57	N	-0.989049	-0.114599	0.229971
N58	N	-0.489049	0.385401	0.729971
C59	C	-0.987621	0.469192	0.000068
C60	C	-0.487621	0.969192	0.500068
C61	C	-0.896069	0.421758	-0.000270
C62	C	-0.396069	0.921758	0.499730
C63	C	-0.897721	0.325068	0.000063
C64	C	-0.397721	0.825068	0.500063
C65	C	-0.990564	0.301631	0.000066
C66	C	-0.490564	0.801631	0.500066
C67	C	-1.035702	0.342705	0.084335
C68	C	-0.535702	0.842705	0.584335
C69	C	-1.033402	0.439341	0.084405
C70	C	-0.533402	0.939341	0.584405
C71	C	-1.035330	0.439707	-0.083404
C72	C	-0.535330	0.939707	0.416596
C73	C	-1.035308	0.342761	-0.084518
C74	C	-0.535308	0.842761	0.415482
C75	C	-0.992231	0.206934	0.000068
C76	C	-0.492231	0.706934	0.500068
C77	C	-0.985956	0.563890	0.000072
C78	C	-0.485956	1.063890	0.500072
N79	N	-0.989142	-0.114571	-0.229830
N80	N	-0.489142	0.385429	0.270170
C81	C	-0.989112	-0.114580	0.589173
C82	C	-0.489112	0.385420	1.089173
C83	C	-0.920095	-0.183135	0.551560
C84	C	-0.420095	0.316865	1.051560
C85	C	-0.920254	-0.183385	0.448735
C86	C	-0.420254	0.316615	0.948735
C87	C	-0.989080	-0.114590	0.410969
C88	C	-0.489080	0.385410	0.910969
C89	C	-1.076445	-0.133671	0.448266
C90	C	-0.576445	0.366329	0.948266
C91	C	-1.076058	-0.134159	0.551124
C92	C	-0.576058	0.365841	1.051124
C93	C	-0.971542	-0.026741	0.551272
C94	C	-0.471542	0.473259	1.051272
C95	C	-0.969537	-0.027327	0.448409
C96	C	-0.469537	0.472673	0.948409
C97	C	-0.989067	-0.114593	0.310255
C98	C	-0.489067	0.385407	0.810255
C99	C	-0.989130	-0.114579	0.689886
C100	C	-0.489130	0.385421	1.189886
H101	H	-0.577852	0.012275	0.060467
H102	H	-0.077852	0.512275	0.560467
F103	F	-0.567342	-0.117640	0.166131
F104	F	-0.067342	0.382360	0.666131
H105	H	-1.103910	0.328579	0.087471
H106	H	-0.603910	0.828579	0.587471
F107	F	-0.890067	-0.002771	0.585212
F108	F	-0.390067	0.497229	1.085212
H109	H	-0.859626	0.441349	0.059819
H110	H	-0.359626	0.941349	0.559819
F111	F	-1.121255	0.481493	0.089415
F112	F	-0.621255	0.981493	0.589415
F113	F	-1.030979	0.042479	0.414821
F114	F	-0.530979	0.542479	0.914821
H115	H	-0.861974	0.297200	0.060568
H116	H	-0.361974	0.797200	0.560568
F117	F	-0.994691	0.305607	0.166300
F118	F	-0.494691	0.805607	0.666300
H119	H	-1.103014	0.327400	-0.089603
H120	H	-0.603014	0.827400	0.410397
H121	H	-1.005411	0.460250	-0.147274
H122	H	-0.505411	0.960250	0.352726
F123	F	-0.934564	-0.267859	0.585318
F124	F	-0.434564	0.232141	1.085318
H125	H	-1.002306	0.315516	-0.146857
H126	H	-0.502306	0.815516	0.353143
H127	H	-1.102831	0.471468	-0.083968
H128	H	-0.602831	0.971468	0.416032
H129	H	-1.000460	0.457639	0.147395
H130	H	-0.500460	0.957639	0.647395
H131	H	-0.434211	0.015027	0.060830
H132	H	0.065789	0.515027	0.560830
F133	F	-0.427149	0.026057	-0.078142
F134	F	0.072851	0.526057	0.421858
F135	F	-0.835360	-0.168568	0.415773
F136	F	-0.335360	0.331432	0.915773
F137	F	-0.834935	-0.168510	0.583902
F138	F	-0.334935	0.331490	1.083902
H139	H	-0.577307	0.012521	-0.060446
H140	H	-0.077307	0.512521	0.439554
H141	H	-0.416873	-0.125979	-0.147255
H142	H	0.083127	0.374021	0.352745
H143	H	-0.402920	-0.226128	-0.088090
H144	H	0.097080	0.273872	0.411910
H145	H	-0.905271	-0.012846	0.424032
H146	H	-0.405271	0.487154	0.924032
H147	H	-1.021872	0.024275	0.575595
H148	H	-0.521872	0.524275	1.075595
H149	H	-0.560191	-0.129845	-0.146912
H150	H	-0.060191	0.370155	0.353088
F151	F	-0.550286	-0.250359	-0.088314
F152	F	-0.050286	0.249641	0.411686
H153	H	-1.092297	-0.197002	0.422498
H154	H	-0.592297	0.302998	0.922498
H155	H	-0.414244	-0.130885	0.147414
H156	H	0.085756	0.369115	0.647414
F157	F	-0.934890	-0.268594	0.416559
F158	F	-0.434890	0.231406	0.916559
F159	F	-1.096294	-0.217890	0.582473
F160	F	-0.596294	0.282110	1.082473
H161	H	-0.403031	-0.228312	0.084113
H162	H	0.096969	0.271688	0.584113
F163	F	-0.551814	-0.249287	0.091303
F164	F	-0.051814	0.250713	0.591303
H165	H	-0.862238	0.296649	-0.060344
H166	H	-0.362238	0.796649	0.439656
F167	F	-0.848254	0.445982	-0.079258
F168	F	-0.348254	0.945982	0.420742
H169	H	-1.129019	-0.086195	0.576003
H170	H	-0.629019	0.413805	1.076003
H171	H	-1.129029	-0.085068	0.423801
H172	H	-0.629029	0.414932	0.923801
