data_functionalizedCrystal
_audit_creation_method	'MofGen! by Chris Wilmer'
_symmetry_space_group_name_H-M	'P1'
_symmetry_Int_Tables_number	1
_symmetry_cell_setting	triclinic
loop_
_symmetry_equiv_pos_as_xyz
  x,y,z
_cell_length_a	14.044220
_cell_length_b	8.597340
_cell_length_c	7.088929
_cell_angle_alpha	103.954719
_cell_angle_beta	96.790928
_cell_angle_gamma	90.777071
loop_
_atom_site_label
_atom_site_type_symbol
_atom_site_fract_x
_atom_site_fract_y
_atom_site_fract_z
O1	O	-0.130163	2.119899	0.190228
O2	O	-0.145635	1.657419	0.114040
O3	O	0.000080	1.881718	0.150999
O4	O	-0.275878	1.895600	0.153269
O5	O	0.019598	1.911687	0.473912
O6	O	-0.126118	1.687388	0.436953
O7	O	-0.110646	2.149868	0.513141
Cu8	Cu	-0.116600	1.921364	0.504532
Cu9	Cu	-0.139681	1.885922	0.122649
O10	O	-0.256361	1.925569	0.476182
C11	C	-0.135302	1.612858	0.265687
C12	C	-0.133579	1.435432	0.236458
C13	C	-0.301429	1.916661	0.315724
C14	C	-0.406640	1.934788	0.318704
C15	C	-0.599274	1.967930	0.324172
C16	C	-0.657014	1.839362	0.302993
C17	C	-0.764201	1.857802	0.306036
C18	C	-0.492076	1.949492	0.321130
C19	C	0.045148	1.890625	0.311452
C20	C	0.150359	1.872497	0.308460
C21	C	-0.120979	2.194428	0.361490
C22	C	-0.122702	2.371853	0.390706
N23	N	-0.100365	1.946304	0.773129
N24	N	-0.155908	1.860995	-0.145946
H25	H	-0.141575	1.354118	0.082022
C26	C	-0.689259	1.556759	0.256460
C27	C	-0.615081	1.672069	0.275448
H28	H	-0.663366	1.453485	0.239450
H29	H	-0.720545	1.579742	0.371123
H30	H	-0.734164	1.558832	0.145906
H31	H	-0.570180	1.670004	0.386011
H32	H	-0.583780	1.649079	0.160773
C33	C	0.067589	2.022099	0.847598
C34	C	-0.022656	2.065675	0.903014
H35	H	0.115560	2.095798	0.927778
H36	H	0.079725	1.917180	0.863060
H37	H	0.068687	2.023795	0.714378
H38	H	-0.023757	2.063968	1.036230
H39	H	-0.034796	2.170622	0.887569
H40	H	-0.114701	1.453159	0.545132
C41	C	-0.740813	2.121331	0.349488
C42	C	-0.641206	2.135214	0.351758
H43	H	-0.766705	2.224607	0.366537
H44	H	-0.768455	2.054567	0.227603
H45	H	-0.754829	2.075426	0.452810
H46	H	-0.627189	2.181109	0.248426
H47	H	-0.613554	2.202003	0.473659
C48	C	-0.215698	1.586962	0.746980
C49	C	-0.233612	1.741627	0.724180
H50	H	-0.263675	1.513274	0.666800
H51	H	-0.154477	1.557430	0.709401
H52	H	-0.216810	1.585288	0.880203
H53	H	-0.232493	1.743304	0.590959
H54	H	-0.294849	1.771167	0.761748
