data_functionalizedCrystal
_audit_creation_method	'MofGen! by Chris Wilmer'
_symmetry_space_group_name_H-M	'P1'
_symmetry_Int_Tables_number	1
_symmetry_cell_setting	triclinic
loop_
_symmetry_equiv_pos_as_xyz
  x,y,z
_cell_length_a	17.077404
_cell_length_b	16.120444
_cell_length_c	17.077396
_cell_angle_alpha	92.869489
_cell_angle_beta	89.981638
_cell_angle_gamma	92.924506
loop_
_atom_site_label
_atom_site_type_symbol
_atom_site_fract_x
_atom_site_fract_y
_atom_site_fract_z
Zn1	Zn	1.184186	-0.331953	-0.459656
Zn2	Zn	1.177428	-0.471378	-0.335042
Zn3	Zn	1.052917	-0.331977	-0.328408
Zn4	Zn	1.046224	-0.471323	-0.466265
O5	O	1.115189	-0.401658	-0.397343
O6	O	1.293136	-0.350461	-0.443136
O7	O	1.160885	-0.452919	-0.224316
O8	O	1.075959	-0.215308	-0.340276
O9	O	1.288171	-0.452896	-0.351582
O10	O	1.172402	-0.215290	-0.436703
O11	O	1.069407	-0.350502	-0.219442
O12	O	0.942183	-0.350449	-0.346684
O13	O	1.064552	-0.452802	-0.575234
O14	O	0.937265	-0.452825	-0.447968
O15	O	1.165912	-0.350408	-0.570378
O16	O	1.154395	-0.588036	-0.357991
O17	O	1.057999	-0.587996	-0.454400
C18	C	0.911242	-0.401634	-0.397324
C19	C	0.823992	-0.401644	-0.397335
C20	C	0.785583	-0.348401	-0.445088
C21	C	0.703602	-0.348407	-0.445092
C22	C	0.660032	-0.401660	-0.397347
C23	C	0.698446	-0.454905	-0.349588
C24	C	0.780425	-0.454894	-0.349581
C25	C	0.527575	-0.454924	-0.349609
C26	C	0.445590	-0.454935	-0.349617
C27	C	0.450752	-0.348436	-0.445120
C28	C	0.532731	-0.348426	-0.445113
C29	C	0.571140	-0.401672	-0.397355
C30	C	1.104758	-0.618266	-0.407650
C31	C	1.100368	-0.710932	-0.412086
C32	C	1.138156	-0.921875	-0.374500
C33	C	1.092367	-0.880589	-0.420193
C34	C	1.096820	-0.786183	-0.415681
C35	C	1.133704	-1.016289	-0.379012
C36	C	1.319932	-0.401682	-0.397362
C37	C	1.407181	-0.401692	-0.397370
C38	C	1.115239	-0.401596	-0.602084
C39	C	1.115261	-0.401570	-0.689333
C40	C	1.125681	-0.184203	-0.387012
C41	C	1.130153	-0.091537	-0.382610
C42	C	1.168041	-0.348249	-0.727795
C43	C	1.168052	-0.348221	-0.809775
C44	C	1.115285	-0.401519	-0.853290
C45	C	1.062499	-0.454843	-0.814821
C46	C	1.062485	-0.454866	-0.732843
C47	C	1.062533	-0.454793	-0.985689
C48	C	1.062548	-0.454771	-1.067673
C49	C	1.168100	-0.348148	-1.062620
C50	C	1.168086	-0.348171	-0.980642
C51	C	1.115301	-0.401496	-0.942180
C52	C	1.115187	-0.401659	-0.193395
C53	C	1.115328	-0.401450	-0.106135
H54	H	0.811696	-0.498250	-0.310695
H55	H	1.049821	-0.916144	-0.462700
H56	H	0.419476	-0.305079	-0.484005
H57	H	1.019538	-0.498202	-0.954375
C58	C	1.004460	-0.513473	-0.862692
C59	C	1.035337	-0.578912	-0.922160
C60	C	0.977301	-0.637546	-0.970032
C61	C	0.888388	-0.630740	-0.958435
C62	C	0.857508	-0.565298	-0.898965
C63	C	0.915544	-0.506664	-0.851093
H64	H	1.101159	-0.583953	-0.930747
H65	H	1.000161	-0.685990	-1.014056
H66	H	0.845427	-0.674144	-0.993873
H67	H	0.791686	-0.560257	-0.890378
H68	H	0.892683	-0.458219	-0.807069
C69	C	1.004430	-0.513522	-0.690528
C70	C	0.915524	-0.506706	-0.701459
C71	C	0.857465	-0.565361	-0.659143
C72	C	0.888313	-0.630830	-0.605896
C73	C	0.977224	-0.637648	-0.594962
C74	C	1.035283	-0.578994	-0.637278
H75	H	0.892684	-0.458240	-0.740878
H76	H	0.791647	-0.560314	-0.667238
H77	H	0.845335	-0.674250	-0.574571
H78	H	1.000064	-0.686115	-0.555543
H79	H	1.101101	-0.584041	-0.629184
H80	H	0.558845	-0.498280	-0.310717
H81	H	0.410116	-0.498299	-0.310739
C82	C	1.195626	-0.873848	-0.317075
C83	C	1.164401	-0.814038	-0.252619
C84	C	1.221868	-0.765998	-0.195194
C85	C	1.310559	-0.777768	-0.202224
C86	C	1.341788	-0.837581	-0.266682
C87	C	1.284321	-0.885621	-0.324108
H88	H	1.098743	-0.805322	-0.247413
H89	H	1.198750	-0.721721	-0.147477
H90	H	1.353099	-0.742207	-0.159714
H91	H	1.407446	-0.846296	-0.271888
H92	H	1.307439	-0.929898	-0.371824
H93	H	1.211033	-0.304804	-0.841087
C94	C	0.833507	-0.289821	-0.497610
C95	C	0.791255	-0.231251	-0.550134
C96	C	0.839176	-0.172667	-0.602656
C97	C	0.929351	-0.172652	-0.602653
C98	C	0.971608	-0.231224	-0.550128
C99	C	0.923687	-0.289809	-0.497606
H100	H	0.724498	-0.231260	-0.550138
H101	H	0.807894	-0.129308	-0.641539
H102	H	0.964825	-0.129285	-0.641533
H103	H	1.038365	-0.231216	-0.550124
H104	H	0.954969	-0.333167	-0.458723
C105	C	1.226130	-0.289544	-0.932775
C106	C	1.224300	-0.194763	-0.939541
C107	C	1.282344	-0.136133	-0.891674
C108	C	1.342218	-0.172284	-0.837043
C109	C	1.344050	-0.267070	-0.830275
C110	C	1.286006	-0.325700	-0.878142
H111	H	1.179976	-0.167997	-0.979984
H112	H	1.280987	-0.065966	-0.896685
H113	H	1.385185	-0.128883	-0.801609
H114	H	1.388374	-0.293836	-0.789832
H115	H	1.287363	-0.395867	-0.873131
H116	H	1.211012	-0.304850	-0.692371
C117	C	1.226164	-0.289488	-1.104925
C118	C	1.226181	-0.289454	-1.195097
C119	C	1.284246	-0.230800	-1.237406
C120	C	1.342294	-0.172180	-1.189542
C121	C	1.342279	-0.172212	-1.099365
C122	C	1.284214	-0.230866	-1.057056
H123	H	1.183208	-0.332850	-1.230533
H124	H	1.284257	-0.230777	-1.304161
H125	H	1.385277	-0.128761	-1.220862
H126	H	1.385251	-0.128816	-1.063929
H127	H	1.284203	-0.230889	-0.990301
C128	C	1.004531	-0.513427	-1.115543
C129	C	0.946485	-0.572100	-1.073240
C130	C	0.888482	-0.630772	-1.121112
C131	C	0.888526	-0.630773	-1.211285
C132	C	0.946574	-0.572098	-1.253593
C133	C	1.004577	-0.513426	-1.205722
H134	H	0.946451	-0.572101	-1.006484
H135	H	0.845511	-0.674207	-1.089792
H136	H	0.845588	-0.674206	-1.246723
H137	H	0.946608	-0.572097	-1.320349
H138	H	1.047548	-0.469991	-1.237041
C139	C	0.650519	-0.513484	-0.297068
C140	C	0.595870	-0.477284	-0.233781
C141	C	0.547944	-0.535868	-0.181262
C142	C	0.554668	-0.630651	-0.192029
C143	C	0.609320	-0.666856	-0.255319
C144	C	0.657245	-0.608273	-0.307838
H145	H	0.590891	-0.407116	-0.225807
H146	H	0.507488	-0.509066	-0.134410
H147	H	0.519191	-0.674018	-0.153151
H148	H	0.614299	-0.737025	-0.263292
H149	H	0.697702	-0.635075	-0.354689
H150	H	0.568205	-0.305067	-0.483996
C151	C	0.661361	-0.289842	-0.497632
C152	C	0.672345	-0.296781	-0.587185
C153	C	0.630109	-0.238212	-0.639729
C154	C	0.576888	-0.172705	-0.602721
C155	C	0.565901	-0.165763	-0.513163
C156	C	0.608138	-0.224332	-0.460618
H157	H	0.711745	-0.345275	-0.614585
H158	H	0.638242	-0.243351	-0.706026
H159	H	0.545621	-0.129349	-0.641617
H160	H	0.526502	-0.117268	-0.485763
H161	H	0.600004	-0.219192	-0.394322
