data_functionalizedCrystal
_audit_creation_method	'MofGen! by Chris Wilmer'
_symmetry_space_group_name_H-M	'P1'
_symmetry_Int_Tables_number	1
_symmetry_cell_setting	triclinic
loop_
_symmetry_equiv_pos_as_xyz
  x,y,z
_cell_length_a	21.395362
_cell_length_b	12.594516
_cell_length_c	21.395356
_cell_angle_alpha	90.020577
_cell_angle_beta	90.042977
_cell_angle_gamma	90.031933
loop_
_atom_site_label
_atom_site_type_symbol
_atom_site_fract_x
_atom_site_fract_y
_atom_site_fract_z
Zn1	Zn	0.957917	-0.423318	0.354617
Zn2	Zn	0.957848	-0.601311	0.249852
Zn3	Zn	0.853134	-0.423396	0.249818
Zn4	Zn	0.853128	-0.601304	0.354557
O5	O	0.905507	-0.512332	0.302211
O6	O	1.045586	-0.446899	0.340759
O7	O	0.943931	-0.577745	0.162170
O8	O	0.867065	-0.274440	0.263730
O9	O	1.045535	-0.577670	0.263789
O10	O	0.944049	-0.274382	0.340725
O11	O	0.866998	-0.447032	0.162144
O12	O	0.765455	-0.447026	0.263672
O13	O	0.867055	-0.577658	0.442243
O14	O	0.765451	-0.577734	0.340624
O15	O	0.944043	-0.446893	0.442287
O16	O	0.943926	-0.750256	0.263731
O17	O	0.866988	-0.750251	0.340657
C18	C	0.742719	-0.512388	0.302138
C19	C	0.673078	-0.512438	0.302122
C20	C	0.640379	-0.580588	0.342130
C21	C	0.574944	-0.580562	0.342158
C22	C	0.542210	-0.512397	0.302167
C23	C	0.574917	-0.444234	0.262155
C24	C	0.640351	-0.444254	0.262133
C25	C	0.438485	-0.503838	0.245761
C26	C	0.373052	-0.503825	0.245782
C27	C	0.340389	-0.512328	0.302236
C28	C	0.373167	-0.520866	0.358670
C29	C	0.438602	-0.520886	0.358648
C30	C	0.471257	-0.512367	0.302187
C31	C	0.236738	-0.580453	0.342278
C32	C	0.171301	-0.580420	0.342307
C33	C	0.171275	-0.444097	0.262298
C34	C	0.236710	-0.444125	0.262275
C35	C	0.269438	-0.512309	0.302264
C36	C	0.905466	-0.788873	0.302205
C37	C	0.905506	-0.907179	0.302223
C38	C	0.863655	-0.976468	0.344034
C39	C	0.848387	-1.047331	0.286856
C40	C	0.920831	-1.047114	0.359410
C41	C	0.890207	-0.976483	0.245015
C42	C	0.962678	-0.976261	0.317608
C43	C	0.947431	-1.047092	0.260391
C44	C	1.068930	-0.512276	0.302284
C45	C	1.138572	-0.512253	0.302315
C46	C	0.905556	-0.512266	0.465634
C47	C	0.905577	-0.512238	0.535275
C48	C	0.905565	-0.234711	0.302231
C49	C	0.905590	-0.116406	0.302239
C50	C	0.905494	-0.512321	0.139423
C51	C	0.905594	-0.512049	0.069782
C52	C	0.865529	-0.444168	0.567966
C53	C	0.865527	-0.444148	0.633401
C54	C	0.905584	-0.512187	0.666144
C55	C	0.945635	-0.580271	0.633446
C56	C	0.945632	-0.580296	0.568012
C57	C	0.962037	-0.520529	0.769850
C58	C	0.962042	-0.520496	0.835283
C59	C	0.905595	-0.512115	0.867965
C60	C	0.849141	-0.503745	0.835206
C61	C	0.849137	-0.503771	0.769771
C62	C	0.905592	-0.512168	0.737096
C63	C	0.865540	-0.444020	0.971607
C64	C	0.865537	-0.444008	1.037044
C65	C	0.945651	-0.580125	1.037088
C66	C	0.945649	-0.580143	0.971652
C67	C	0.905594	-0.512085	0.938916
H68	H	0.346369	-0.496879	0.199830
C69	C	0.995291	-1.088734	0.212586
H70	H	1.025929	-1.130174	0.233507
H71	H	0.974515	-1.131275	0.182343
H72	H	1.014962	-1.030437	0.192421
H73	H	0.803171	-0.496958	0.743101
C74	C	0.989691	-0.655170	0.532051
H75	H	1.013550	-0.695687	0.560921
H76	H	0.965714	-0.701560	0.506501
H77	H	1.017001	-0.614444	0.506551
H78	H	0.263334	-0.388635	0.229692
H79	H	0.803176	-0.496914	0.861814
H80	H	0.667022	-0.636107	0.374694
C81	C	0.821480	-0.369172	0.935592
H82	H	0.827219	-0.378925	0.891939
H83	H	0.779379	-0.384759	0.946283
H84	H	0.830668	-0.297647	0.946330
H85	H	0.800077	-1.078570	0.273857
C86	C	0.538967	-0.655468	0.386206
H87	H	0.567830	-0.696062	0.410027
H88	H	0.513507	-0.614749	0.413542
H89	H	0.513377	-0.701804	0.362229
C90	C	0.815763	-0.934562	0.391728
H91	H	0.775190	-0.958901	0.380697
H92	H	0.826221	-0.959784	0.432243
H93	H	0.816325	-0.859138	0.391654
C94	C	0.821482	-0.369126	1.073004
H95	H	0.797633	-0.328593	1.044133
H96	H	0.794172	-0.409835	1.098506
H97	H	0.845468	-0.322734	1.098550
H98	H	0.978250	-0.635669	0.660109
H99	H	0.465287	-0.527835	0.404598
C100	C	0.872660	-0.934752	0.179675
H101	H	0.872714	-0.859323	0.180073
H102	H	0.902229	-0.959497	0.149955
H103	H	0.832199	-0.959680	0.168691
C104	C	1.027936	-0.934095	0.335193
H105	H	1.038738	-0.958245	0.375850
H106	H	1.057783	-0.959353	0.305904
H107	H	1.027546	-0.858673	0.334686
H108	H	0.978262	-0.635570	0.945036
H109	H	0.346575	-0.527788	0.404640
C110	C	0.474407	-0.494426	0.183661
H111	H	0.445516	-0.489336	0.150056
H112	H	0.499949	-0.432725	0.184548
H113	H	0.499912	-0.555409	0.178065
C114	C	0.938300	-1.089026	0.424732
H115	H	0.908494	-1.064832	0.454379
H116	H	0.938581	-1.164443	0.424180
H117	H	0.978599	-1.063636	0.435942
H118	H	0.832911	-0.388754	0.541316
H119	H	0.666974	-0.388755	0.229553
H120	H	0.832916	-0.388712	0.660023
C121	C	0.989715	-0.654966	1.073097
H122	H	0.983984	-0.645198	1.116749
H123	H	0.980532	-0.726488	1.062360
H124	H	1.031817	-0.639368	1.062404
H125	H	1.008010	-0.527306	0.861950
H126	H	1.008008	-0.527344	0.743246
H127	H	0.263386	-0.635967	0.374843
H128	H	0.144679	-0.635913	0.374891
H129	H	0.144624	-0.388591	0.229739
H130	H	0.548260	-0.388732	0.229595
