data_functionalizedCrystal
_audit_creation_method	'MofGen! by Chris Wilmer'
_symmetry_space_group_name_H-M	'P1'
_symmetry_Int_Tables_number	1
_symmetry_cell_setting	triclinic
loop_
_symmetry_equiv_pos_as_xyz
  x,y,z
_cell_length_a	9.065218
_cell_length_b	17.699083
_cell_length_c	16.776229
_cell_angle_alpha	89.994790
_cell_angle_beta	90.003807
_cell_angle_gamma	84.149450
loop_
_atom_site_label
_atom_site_type_symbol
_atom_site_fract_x
_atom_site_fract_y
_atom_site_fract_z
O1	O	1.957114	0.110962	0.066292
O2	O	1.527559	0.120065	0.066293
O3	O	1.754472	0.005419	0.066286
O4	O	1.730200	0.225608	0.066300
O5	O	1.754451	0.005439	-0.066291
O6	O	1.527538	0.120085	-0.066283
O7	O	1.957092	0.110982	-0.066284
Zn8	Zn	1.742312	0.115537	-0.087333
Zn9	Zn	1.742340	0.115510	0.087342
O10	O	1.730179	0.225628	-0.066277
C11	C	1.472588	0.119200	0.000005
C12	C	1.308822	0.116584	0.000006
C13	C	1.753592	-0.022775	-0.000003
C14	C	1.750983	-0.106813	-0.000003
C15	C	1.884176	-0.154396	-0.000004
C16	C	1.881716	-0.233358	0.000003
C17	C	1.746060	-0.264737	0.000005
C18	C	1.612857	-0.217149	0.000009
C19	C	1.615319	-0.138188	0.000008
C20	C	1.602925	-0.535589	0.000016
C21	C	1.600474	-0.614556	0.000015
C22	C	1.869322	-0.630760	0.000010
C23	C	1.871784	-0.551799	0.000009
C24	C	1.738581	-0.504217	0.000017
C25	C	1.741251	-0.418597	0.000011
C26	C	1.743390	-0.350355	0.000006
C27	C	2.012064	0.111847	0.000006
C28	C	2.175829	0.114463	0.000011
C29	C	1.731059	0.253822	0.000013
C30	C	1.733669	0.337860	0.000019
N31	N	1.742304	0.115554	-0.206544
C32	C	1.653053	0.068949	-0.751719
C33	C	1.653049	0.068956	-0.668267
C34	C	1.742346	0.115504	-0.626544
C35	C	1.831662	0.162043	-0.668277
C36	C	1.831673	0.162032	-0.751728
C37	C	1.831624	0.162087	-0.331730
C38	C	1.831603	0.162096	-0.248273
C39	C	1.653000	0.069011	-0.248269
C40	C	1.653011	0.069000	-0.331720
C41	C	1.742333	0.115536	-0.373446
C42	C	1.742338	0.115527	-0.463934
C43	C	1.742334	0.115517	-0.536057
N44	N	1.742359	0.115486	0.206553
H45	H	1.994642	-0.128854	-0.000012
C46	C	1.336929	-0.527515	0.000003
C47	C	1.456511	-0.483294	0.000010
H48	H	1.246536	-0.495226	-0.000009
H49	H	1.341562	-0.558650	0.046234
H50	H	1.341578	-0.558650	-0.046231
H51	H	1.451867	-0.452163	0.046247
H52	H	1.451874	-0.452146	-0.046226
C53	C	2.008189	0.254100	-0.256656
C54	C	1.929778	0.213260	-0.202409
H55	H	2.068799	0.285681	-0.228339
H56	H	1.940202	0.284628	-0.289215
H57	H	2.068765	0.219687	-0.289193
H58	H	1.869193	0.247673	-0.169876
H59	H	1.997773	0.182730	-0.169836
H60	H	1.990175	-0.272097	-0.000000
H61	H	1.502404	-0.242703	0.000017
H62	H	1.982248	-0.526255	0.000003
H63	H	1.506859	-0.099446	0.000009
C64	C	1.984950	-0.758998	0.000023
C65	C	2.015746	-0.683064	0.000014
H66	H	2.075345	-0.791285	0.000029
H67	H	1.929316	-0.768605	-0.046204
H68	H	1.929322	-0.768603	0.046261
H69	H	2.071365	-0.673457	-0.046226
H70	H	2.071403	-0.673454	0.046247
H71	H	1.580291	0.031098	-0.365686
H72	H	1.490001	-0.640101	0.000016
C73	C	1.476484	-0.023048	-0.676644
C74	C	1.554872	0.017804	-0.622400
H75	H	1.415866	-0.054624	-0.648327
H76	H	1.544486	-0.053580	-0.709181
H77	H	1.415919	0.011358	-0.709205
H78	H	1.615445	-0.016602	-0.589843
H79	H	1.486862	0.048339	-0.589850
C80	C	1.454595	0.062872	-0.154433
C81	C	1.554823	0.017851	-0.202401
H82	H	1.393991	0.031289	-0.126115
H83	H	1.394034	0.097262	-0.186999
H84	H	1.507795	0.090589	-0.117643
H85	H	1.501623	-0.009861	-0.239195
H86	H	1.615391	-0.016553	-0.169831
C87	C	2.030055	0.168223	-0.425541
C88	C	1.929806	0.213242	-0.377583
H89	H	2.090678	0.199806	-0.453845
H90	H	1.976883	0.140510	-0.462335
H91	H	2.090610	0.133828	-0.392963
H92	H	1.869244	0.247633	-0.410162
H93	H	1.982983	0.240968	-0.340785
H94	H	1.904376	0.199940	-0.634300
C95	C	1.644216	-0.032921	-0.845546
C96	C	1.554893	0.017783	-0.797578
H97	H	1.583612	-0.064507	-0.873859
H98	H	1.712202	-0.063442	-0.812980
H99	H	1.697395	-0.005198	-0.882341
H100	H	1.501722	-0.009941	-0.760780
H101	H	1.486881	0.048307	-0.830148
C102	C	2.008210	0.254051	-0.743356
C103	C	1.929838	0.213189	-0.797598
H104	H	2.068811	0.285635	-0.771675
H105	H	2.068777	0.219657	-0.710796
H106	H	1.940188	0.284584	-0.710818
H107	H	1.997861	0.182652	-0.830132
H108	H	1.869266	0.247587	-0.830172
