data_functionalizedCrystal
_audit_creation_method	'MofGen! by Chris Wilmer'
_symmetry_space_group_name_H-M	'P1'
_symmetry_Int_Tables_number	1
_symmetry_cell_setting	triclinic
loop_
_symmetry_equiv_pos_as_xyz
  x,y,z
_cell_length_a	19.121063
_cell_length_b	21.395364
_cell_length_c	21.395356
_cell_angle_alpha	89.982872
_cell_angle_beta	87.586704
_cell_angle_gamma	87.514290
loop_
_atom_site_label
_atom_site_type_symbol
_atom_site_fract_x
_atom_site_fract_y
_atom_site_fract_z
Zn1	Zn	-0.279337	-0.947191	0.364894
Zn2	Zn	-0.396787	-0.942644	0.264582
Zn3	Zn	-0.279386	-0.842419	0.260131
Zn4	Zn	-0.396788	-0.837911	0.369321
O5	O	-0.338075	-0.892541	0.314732
O6	O	-0.294896	-1.034267	0.351597
O7	O	-0.381233	-0.929333	0.176314
O8	O	-0.181094	-0.860107	0.270313
O9	O	-0.381186	-1.030926	0.277899
O10	O	-0.181058	-0.937082	0.347282
O11	O	-0.294980	-0.855698	0.173045
O12	O	-0.294981	-0.754142	0.274606
O13	O	-0.381189	-0.852423	0.456411
O14	O	-0.381236	-0.750830	0.354827
O15	O	-0.294898	-0.932711	0.453158
O16	O	-0.495073	-0.924961	0.282191
O17	O	-0.495074	-0.848014	0.359142
C18	C	-0.338115	-0.729752	0.314714
C19	C	-0.338148	-0.660110	0.314722
C20	C	-0.293292	-0.629155	0.353161
C21	C	-0.293276	-0.563721	0.353162
C22	C	-0.338128	-0.529242	0.314730
C23	C	-0.382988	-0.560204	0.276283
C24	C	-0.382998	-0.625638	0.276279
C25	C	-0.401384	-0.423114	0.312096
C26	C	-0.401375	-0.357681	0.312105
C27	C	-0.338096	-0.327422	0.314741
C28	C	-0.274825	-0.362604	0.317380
C29	C	-0.274835	-0.428038	0.317375
C30	C	-0.338122	-0.458290	0.314731
C31	C	-0.293218	-0.225517	0.353183
C32	C	-0.293201	-0.160081	0.353179
C33	C	-0.382919	-0.156565	0.276305
C34	C	-0.382930	-0.222000	0.276305
C35	C	-0.338081	-0.256472	0.314747
C36	C	-0.520558	-0.885522	0.321644
C37	C	-0.598626	-0.882577	0.324621
C38	C	-0.635278	-0.921286	0.285989
C39	C	-0.708630	-0.918520	0.288793
C40	C	-0.745329	-0.877040	0.330227
C41	C	-0.708672	-0.838329	0.368863
C42	C	-0.635321	-0.841099	0.366062
C43	C	-0.966803	-0.866674	0.340691
C44	C	-1.040159	-0.863905	0.343489
C45	C	-1.040113	-0.944097	0.263419
C46	C	-0.966760	-0.946861	0.260618
C47	C	-0.930109	-0.908152	0.299257
C48	C	-0.820307	-0.874210	0.333093
C49	C	-0.855133	-0.910986	0.296394
C50	C	-0.154879	-0.899605	0.307807
C51	C	-0.076811	-0.902615	0.304856
C52	C	-0.338038	-0.892571	0.478154
C53	C	-0.338022	-0.892584	0.547795
C54	C	-0.338044	-0.055966	0.314748
C55	C	-0.338053	-0.125607	0.314747
C56	C	-0.338061	-0.892549	0.151944
C57	C	-0.337879	-0.892665	0.082296
C58	C	-0.382787	-0.931002	1.051289
C59	C	-0.382809	-0.930990	0.985854
C60	C	-0.337911	-0.892648	0.951429
C61	C	-0.292999	-0.854304	0.982444
C62	C	-0.292983	-0.854313	1.047878
C63	C	-0.274658	-0.890127	0.845369
C64	C	-0.274673	-0.890123	0.779936
C65	C	-0.337961	-0.892618	0.749610
C66	C	-0.401235	-0.895131	0.784724
C67	C	-0.401219	-0.895139	0.850158
C68	C	-0.337923	-0.892634	0.880477
C69	C	-0.382897	-0.930943	0.647651
C70	C	-0.382920	-0.930927	0.582215
C71	C	-0.293104	-0.854245	0.578806
C72	C	-0.293087	-0.854258	0.644241
C73	C	-0.337982	-0.892610	0.678659
H74	H	-0.452894	-0.329041	0.309959
Cl75	Cl	-0.236526	-0.806110	1.086861
H76	H	-0.936881	-0.980637	0.226880
H77	H	-0.452917	-0.447745	0.309950
H78	H	-0.256695	-0.253585	0.384481
H79	H	-0.419455	-0.962171	0.675676
H80	H	-0.419460	-0.247203	0.245006
Cl81	Cl	-0.920737	-0.818009	0.389265
H82	H	-0.850195	-0.840436	0.366827
H83	H	-0.419497	-0.962142	0.556970
H84	H	-0.419506	-0.532127	0.244992
H85	H	-0.256772	-0.657218	0.384463
Cl86	Cl	-0.236553	-0.806105	0.939168
H87	H	-0.256548	-0.823025	0.550778
Cl88	Cl	-0.439392	-0.664554	0.227949
Cl89	Cl	-0.236880	-0.524798	0.401489
H90	H	-0.223317	-0.456681	0.319523
Cl91	Cl	-0.808996	-0.963132	0.244310
Cl92	Cl	-0.589149	-0.973431	0.233894
Cl93	Cl	-0.754704	-0.967188	0.240226
Cl94	Cl	-0.195058	-0.887305	0.883485
Cl95	Cl	-1.086192	-0.992761	0.214852
H96	H	-0.419439	-0.128493	0.245013
Cl97	Cl	-0.236637	-0.806051	0.683225
H98	H	-0.223297	-0.337969	0.319526
H99	H	-0.419347	-0.962230	1.079308
Cl100	Cl	-0.236802	-0.121166	0.401505
H101	H	-1.070037	-0.830135	0.377240
H102	H	-0.738558	-0.804558	0.402602
Cl103	Cl	-0.589243	-0.792436	0.414632
H104	H	-0.419371	-0.962217	0.960602
Cl105	Cl	-0.480761	-0.898293	0.894299
H106	H	-0.452770	-0.897164	0.760034
H107	H	-0.223151	-0.888081	0.751351
