data_functionalizedCrystal
_audit_creation_method	'MofGen! by Chris Wilmer'
_symmetry_space_group_name_H-M	'P1'
_symmetry_Int_Tables_number	1
_symmetry_cell_setting	triclinic
loop_
_symmetry_equiv_pos_as_xyz
  x,y,z
_cell_length_a	14.908783
_cell_length_b	14.909383
_cell_length_c	14.908694
_cell_angle_alpha	96.367538
_cell_angle_beta	83.203601
_cell_angle_gamma	90.207064
loop_
_atom_site_label
_atom_site_type_symbol
_atom_site_fract_x
_atom_site_fract_y
_atom_site_fract_z
Zn1	Zn	1.432479	-0.311812	-0.610894
Zn2	Zn	1.432379	-0.454450	-0.468273
Zn3	Zn	1.272377	-0.311836	-0.450800
Zn4	Zn	1.290808	-0.470832	-0.611849
O5	O	1.357011	-0.387232	-0.535454
O6	O	1.558717	-0.323866	-0.598887
O7	O	1.403398	-0.428686	-0.338869
O8	O	1.285943	-0.185598	-0.464324
O9	O	1.558643	-0.428662	-0.494105
O10	O	1.403570	-0.185580	-0.581944
O11	O	1.285846	-0.323908	-0.326031
O12	O	1.148571	-0.339793	-0.465251
O13	O	1.317357	-0.456584	-0.738809
O14	O	1.162112	-0.456607	-0.583573
O15	O	1.421442	-0.339752	-0.738107
O16	O	1.421270	-0.582858	-0.495031
O17	O	1.317259	-0.594894	-0.600516
C18	C	1.122606	-0.399981	-0.522620
C19	C	1.022329	-0.405458	-0.517153
C20	C	0.833994	-0.306794	-0.616176
C21	C	0.739775	-0.311937	-0.611042
C22	C	0.739670	-0.420882	-0.501745
C23	C	0.833889	-0.415739	-0.506880
C24	C	0.881048	-0.358694	-0.564098
C25	C	0.975269	-0.353556	-0.569237
C26	C	0.975162	-0.462496	-0.459936
C27	C	0.880943	-0.467640	-0.454801
C28	C	1.371280	-0.621607	-0.549794
C29	C	1.377468	-0.721871	-0.555964
C30	C	1.266712	-0.910438	-0.444979
C31	C	1.272524	-1.004645	-0.450773
C32	C	1.394907	-1.004492	-0.573341
C33	C	1.389096	-0.910286	-0.567547
C34	C	1.324995	-0.863262	-0.503365
C35	C	1.319180	-0.769054	-0.497576
C36	C	1.441567	-0.768903	-0.620139
C37	C	1.447378	-0.863110	-0.625933
C38	C	1.592331	-0.374434	-0.548338
C39	C	1.692610	-0.368980	-0.553829
C40	C	1.371466	-0.399992	-0.772332
C41	C	1.377627	-0.405430	-0.873275
C42	C	1.342712	-0.151942	-0.521079
C43	C	1.336618	-0.051675	-0.514953
C44	C	1.266774	-0.306546	-1.049590
C45	C	1.272559	-0.311652	-1.144435
C46	C	1.394976	-0.420753	-1.157810
C47	C	1.389191	-0.415647	-1.062966
C48	C	1.325089	-0.358540	-1.008859
C49	C	1.319309	-0.353430	-0.914012
C50	C	1.441721	-0.462535	-0.927389
C51	C	1.447506	-0.467641	-1.022234
C52	C	1.342659	-0.374454	-0.299497
C53	C	1.336658	-0.368753	-0.198548
H54	H	0.872392	-0.260350	-0.662770
H55	H	1.214587	-0.260039	-1.005536
H56	H	1.225072	-0.269313	-1.177595
Br57	Br	0.675918	-0.241494	-0.681717
H58	H	1.013484	-0.504765	-0.417537
Br59	Br	1.481949	-0.498265	-1.231256
H60	H	1.489209	-0.504869	-0.894216
H61	H	1.499693	-0.514139	-1.066301
H62	H	1.447101	-1.042795	-0.625589
Br63	Br	0.675652	-0.498280	-0.424083
Br64	Br	0.816933	-0.545049	-0.377147
H65	H	1.267117	-0.306927	-0.869960
H66	H	1.013665	-0.307108	-0.615828
H67	H	1.266983	-0.730768	-0.445318
Br68	Br	1.534371	-0.926935	-0.713029
H69	H	1.214513	-0.872151	-0.392726
H70	H	1.225065	-1.043052	-0.403229
Br71	Br	1.520668	-0.704874	-0.699383
