data_functionalizedCrystal
_audit_creation_method	'MofGen! by Chris Wilmer'
_symmetry_space_group_name_H-M	'P1'
_symmetry_Int_Tables_number	1
_symmetry_cell_setting	triclinic
loop_
_symmetry_equiv_pos_as_xyz
  x,y,z
_cell_length_a	16.992694
_cell_length_b	10.540510
_cell_length_c	15.455313
_cell_angle_alpha	92.694210
_cell_angle_beta	87.142206
_cell_angle_gamma	87.590767
loop_
_atom_site_label
_atom_site_type_symbol
_atom_site_fract_x
_atom_site_fract_y
_atom_site_fract_z
O1	O	1.045284	0.264113	-0.072014
O2	O	0.816984	0.261157	-0.072040
O3	O	0.936355	0.078379	-0.072026
O4	O	0.925913	0.446891	-0.072028
O5	O	0.929528	0.088785	0.072235
O6	O	0.810157	0.271563	0.072222
O7	O	1.038458	0.274519	0.072247
Cu8	Cu	0.923684	0.273991	0.085407
Cu9	Cu	0.931757	0.261685	-0.085199
O10	O	0.919087	0.457297	0.072233
C11	C	0.784337	0.262559	0.000088
C12	C	0.697231	0.251217	0.000078
C13	C	0.647596	0.360638	0.000078
C14	C	0.565749	0.349976	0.000090
C15	C	0.533540	0.229891	0.000095
C16	C	0.583181	0.120462	0.000098
C17	C	0.665026	0.131126	0.000092
C18	C	0.289697	0.185693	0.000119
C19	C	0.207846	0.175037	0.000122
C20	C	0.190420	0.404552	0.000116
C21	C	0.272267	0.415205	0.000104
C22	C	0.321900	0.305777	0.000112
N23	N	0.449880	0.218990	0.000105
N24	N	0.405558	0.316680	0.000108
C25	C	0.932163	0.036211	0.000103
C26	C	0.929836	-0.104941	0.000097
C27	C	1.012747	-0.315176	0.000437
C28	C	1.015245	-0.168389	0.000108
C29	C	0.890012	-0.159437	-0.082286
C30	C	0.888137	-0.306365	-0.082351
C31	C	0.878595	-0.294494	0.081701
C32	C	0.882595	-0.147723	0.082786
C33	C	1.071104	0.273117	0.000118
C34	C	1.158211	0.284458	0.000122
C35	C	0.923278	0.499465	0.000103
C36	C	0.925606	0.640617	0.000103
N37	N	0.918012	0.282647	0.205401
N38	N	0.937436	0.253020	-0.205194
C39	C	0.968743	0.205029	0.250801
C40	C	0.964460	0.211587	0.341609
C41	C	0.909450	0.295770	0.387015
C42	C	0.858714	0.373392	0.341608
C43	C	0.862993	0.366826	0.250803
C44	C	0.890979	0.324076	0.658594
C45	C	0.886705	0.330638	0.749406
C46	C	0.992451	0.168831	0.749400
C47	C	0.996728	0.162278	0.658593
C48	C	0.945989	0.239894	0.613194
N49	N	0.905073	0.302479	0.479834
N50	N	0.950363	0.233179	0.520376
H51	H	0.673814	0.458424	0.000072
H52	H	1.048609	-0.360048	-0.058303
H53	H	0.705438	0.042024	0.000091
C54	C	1.020250	0.126168	0.391545
N55	N	1.062266	0.061813	0.429156
C56	C	1.029258	0.112419	0.200863
N57	N	1.074838	0.042658	0.163253
C58	C	0.805266	-0.103078	-0.086442
N59	N	0.741436	-0.060625	-0.089571
C60	C	0.807191	0.452223	0.200863
N61	N	0.765160	0.516548	0.163250
H62	H	0.181625	0.077245	0.000126
C63	C	0.547748	-0.011633	0.000106
N64	N	0.521061	-0.111130	0.000108
C65	C	0.511153	0.470350	0.000105
N66	N	0.470031	0.561022	0.000124
C67	C	0.798194	0.465982	0.391558
N68	N	0.752609	0.535723	0.429179
C69	C	1.048254	0.083448	0.799346
N70	N	1.090284	0.019129	0.836965
C71	C	1.065507	-0.131739	-0.079805
N72	N	1.103364	-0.104137	-0.140000
H73	H	1.046660	-0.131817	0.059162
H74	H	0.330099	0.096588	0.000125
H75	H	1.043226	-0.349982	0.059519
H76	H	0.298485	0.512990	0.000090
C77	C	0.932451	-0.363196	-0.165530
N78	N	0.965834	-0.405995	-0.228180
C79	C	0.826184	0.423246	0.799351
N80	N	0.780603	0.492996	0.836969
C81	C	1.057240	0.069663	0.608653
N82	N	1.102818	-0.000096	0.571039
H83	H	0.824432	-0.335173	-0.086090
H84	H	0.923276	-0.130367	-0.143589
H85	H	0.149999	0.493642	0.000112
C86	C	0.911077	-0.342574	0.166060
N87	N	0.935552	-0.378787	0.229594
H88	H	0.814443	-0.322169	0.082249
C89	C	0.921659	-0.099359	0.165125
N90	N	0.951078	-0.062910	0.227141
C91	C	0.798034	-0.088269	0.089496
N92	N	0.734340	-0.043490	0.094543
H93	H	0.849666	0.387276	0.621638
