data_functionalizedCrystal
_audit_creation_method	'MofGen! by Chris Wilmer'
_symmetry_space_group_name_H-M	'P1'
_symmetry_Int_Tables_number	1
_symmetry_cell_setting	triclinic
loop_
_symmetry_equiv_pos_as_xyz
  x,y,z
_cell_length_a	29.839134
_cell_length_b	29.839131
_cell_length_c	29.839126
_cell_angle_alpha	89.975848
_cell_angle_beta	89.970362
_cell_angle_gamma	90.036281
loop_
_atom_site_label
_atom_site_type_symbol
_atom_site_fract_x
_atom_site_fract_y
_atom_site_fract_z
Zn1	Zn	0.686754	-0.178949	-0.254125
Zn2	Zn	0.936754	0.071051	-0.004125
Zn3	Zn	1.186754	0.321051	0.245875
Zn4	Zn	1.436754	0.571051	0.495875
Zn5	Zn	0.686676	-0.254070	-0.178995
Zn6	Zn	0.936676	-0.004070	0.071005
Zn7	Zn	1.186676	0.245930	0.321005
Zn8	Zn	1.436676	0.495930	0.571005
Zn9	Zn	0.611626	-0.178948	-0.178995
Zn10	Zn	0.861626	0.071052	0.071005
Zn11	Zn	1.111626	0.321052	0.321005
Zn12	Zn	1.361626	0.571052	0.571005
Zn13	Zn	0.611584	-0.254046	-0.254083
Zn14	Zn	0.861584	-0.004046	-0.004083
Zn15	Zn	1.111584	0.245954	0.245917
Zn16	Zn	1.361584	0.495954	0.495917
O17	O	0.649160	-0.216503	-0.216549
O18	O	0.899160	0.033497	0.033451
O19	O	1.149160	0.283497	0.283451
O20	O	1.399160	0.533497	0.533451
O21	O	0.749610	-0.188925	-0.244176
O22	O	0.999610	0.061075	0.005824
O23	O	1.249610	0.311075	0.255824
O24	O	1.499610	0.561075	0.505824
O25	O	0.676705	-0.244114	-0.116128
O26	O	0.926705	0.005886	0.133872
O27	O	1.176705	0.255886	0.383872
O28	O	1.426705	0.505886	0.633872
O29	O	0.621642	-0.116081	-0.188978
O30	O	0.871642	0.133919	0.061022
O31	O	1.121642	0.383919	0.311022
O32	O	1.371642	0.633919	0.561022
O33	O	0.749553	-0.244115	-0.188979
O34	O	0.999553	0.005885	0.061021
O35	O	1.249553	0.255885	0.311021
O36	O	1.499553	0.505885	0.561021
O37	O	0.676838	-0.116082	-0.244176
O38	O	0.926838	0.133918	0.005824
O39	O	1.176838	0.383918	0.255824
O40	O	1.426838	0.633918	0.505824
O41	O	0.621567	-0.188922	-0.116128
O42	O	0.871567	0.061078	0.133872
O43	O	1.121567	0.311078	0.383872
O44	O	1.371567	0.561078	0.633872
O45	O	0.548754	-0.188899	-0.188938
O46	O	0.798754	0.061101	0.061062
O47	O	1.048754	0.311101	0.311062
O48	O	1.298754	0.561101	0.561062
O49	O	0.621570	-0.244075	-0.316956
O50	O	0.871570	0.005925	-0.066956
O51	O	1.121570	0.255925	0.183044
O52	O	1.371570	0.505925	0.433044
O53	O	0.548723	-0.244074	-0.244105
O54	O	0.798723	0.005926	0.005895
O55	O	1.048723	0.255926	0.255895
O56	O	1.298723	0.505926	0.505895
O57	O	0.676797	-0.188902	-0.316987
O58	O	0.926797	0.061098	-0.066987
O59	O	1.176797	0.311098	0.183013
O60	O	1.426797	0.561098	0.433013
O61	O	0.676664	-0.316934	-0.188938
O62	O	0.926664	-0.066934	0.061062
O63	O	1.176664	0.183066	0.311062
O64	O	1.426664	0.433066	0.561062
O65	O	0.621495	-0.316917	-0.244105
O66	O	0.871495	-0.066917	0.005895
O67	O	1.121495	0.183083	0.255895
O68	O	1.371495	0.433083	0.505895
C69	C	0.532437	-0.216484	-0.216517
C70	C	0.782437	0.033516	0.033483
C71	C	1.032437	0.283516	0.283483
C72	C	1.282437	0.533516	0.533483
C73	C	0.482503	-0.216487	-0.216514
C74	C	0.732503	0.033513	0.033486
C75	C	0.982503	0.283513	0.283486
C76	C	1.232503	0.533513	0.533486
C77	C	0.172853	-0.245275	-0.245240
C78	C	0.422853	0.004725	0.004760
C79	C	0.672853	0.254725	0.254760
C80	C	0.922853	0.504725	0.504760
C81	C	-0.014820	-0.245288	-0.245260
C82	C	0.235180	0.004712	0.004740
C83	C	0.485180	0.254712	0.254740
C84	C	0.735180	0.504712	0.504740
O85	O	-0.039091	-0.269743	-0.269665
O86	O	0.210909	-0.019743	-0.019665
O87	O	0.460909	0.230257	0.230335
O88	O	0.710909	0.480257	0.480335
N89	N	-0.038282	-0.216520	-0.216583
N90	N	0.211718	0.033480	0.033417
N91	N	0.461718	0.283480	0.283417
N92	N	0.711718	0.533480	0.533417
C93	C	-0.014823	-0.187744	-0.187902
C94	C	0.235177	0.062256	0.062098
C95	C	0.485177	0.312256	0.312098
C96	C	0.735177	0.562256	0.562098
O97	O	-0.039085	-0.163273	-0.163514
O98	O	0.210915	0.086727	0.086486
O99	O	0.460915	0.336727	0.336486
O100	O	0.710915	0.586727	0.586486
C101	C	0.172849	-0.187730	-0.187884
C102	C	0.422849	0.062270	0.062116
C103	C	0.672849	0.312270	0.312116
C104	C	0.922849	0.562270	0.562116
C105	C	0.196309	-0.216503	-0.216560
C106	C	0.446309	0.033497	0.033440
C107	C	0.696309	0.283497	0.283440
C108	C	0.946309	0.533497	0.533440
C109	C	0.196312	-0.274046	-0.273913
C110	C	0.446312	-0.024046	-0.023913
C111	C	0.696312	0.225954	0.226087
C112	C	0.946312	0.475954	0.476087
C113	C	0.243228	-0.274044	-0.273906
C114	C	0.493228	-0.024044	-0.023906
C115	C	0.743228	0.225956	0.226094
C116	C	0.993228	0.475956	0.476094
C117	C	0.266684	-0.245272	-0.245226
C118	C	0.516684	0.004728	0.004774
C119	C	0.766684	0.254728	0.254774
C120	C	1.016684	0.504728	0.504774
C121	C	0.243224	-0.216501	-0.216553
C122	C	0.493224	0.033499	0.033447
C123	C	0.743224	0.283499	0.283447
C124	C	0.993224	0.533499	0.533447
C125	C	0.196308	-0.158953	-0.159205
C126	C	0.446308	0.091047	0.090795
C127	C	0.696308	0.341047	0.340795
C128	C	0.946308	0.591047	0.590795
C129	C	0.243229	-0.158951	-0.159204
C130	C	0.493229	0.091049	0.090796
C131	C	0.743229	0.341049	0.340796
C132	C	0.993229	0.591049	0.590796
C133	C	0.266688	-0.187724	-0.187880
C134	C	0.516688	0.062276	0.062120
C135	C	0.766688	0.312276	0.312120
C136	C	1.016688	0.562276	0.562120
C137	C	0.313596	-0.187727	-0.187865
C138	C	0.563596	0.062273	0.062135
C139	C	0.813596	0.312273	0.312135
C140	C	1.063596	0.562273	0.562135
N141	N	0.337058	-0.216495	-0.216542
N142	N	0.587058	0.033505	0.033458
N143	N	0.837058	0.283505	0.283458
N144	N	1.087058	0.533505	0.533458
C145	C	0.313602	-0.245268	-0.245222
C146	C	0.563602	0.004732	0.004778
C147	C	0.813602	0.254732	0.254778
C148	C	1.063602	0.504732	0.504778
C149	C	-0.113354	-0.187755	-0.187912
C150	C	0.136646	0.062245	0.062088
C151	C	0.386646	0.312245	0.312088
C152	C	0.636646	0.562245	0.562088
C153	C	-0.160271	-0.187759	-0.187916
C154	C	0.089729	0.062241	0.062084
C155	C	0.339729	0.312241	0.312084
C156	C	0.589729	0.562241	0.562084
C157	C	-0.160265	-0.245302	-0.245275
C158	C	0.089735	0.004698	0.004725
C159	C	0.339735	0.254698	0.254725
C160	C	0.589735	0.504698	0.504725
C161	C	-0.113347	-0.245300	-0.245269
C162	C	0.136653	0.004700	0.004731
C163	C	0.386653	0.254700	0.254731
C164	C	0.636653	0.504700	0.504731
C165	C	-0.089892	-0.216523	-0.216589
C166	C	0.160108	0.033477	0.033411
C167	C	0.410108	0.283477	0.283411
C168	C	0.660108	0.533477	0.533411
C169	C	0.412127	-0.245262	-0.245205
C170	C	0.662127	0.004738	0.004795
C171	C	0.912127	0.254738	0.254795
C172	C	1.162127	0.504738	0.504795
C173	C	0.459047	-0.245259	-0.245194
C174	C	0.709047	0.004741	0.004806
C175	C	0.959047	0.254741	0.254806
C176	C	1.209047	0.504741	0.504806
C177	C	0.459037	-0.187715	-0.187837
C178	C	0.709037	0.062285	0.062163
C179	C	0.959037	0.312285	0.312163
C180	C	1.209037	0.562285	0.562163
C181	C	0.412121	-0.187719	-0.187846
C182	C	0.662121	0.062281	0.062154
C183	C	0.912121	0.312281	0.312154
C184	C	1.162121	0.562281	0.562154
C185	C	0.388668	-0.216494	-0.216534
C186	C	0.638668	0.033506	0.033466
C187	C	0.888668	0.283506	0.283466
C188	C	1.138668	0.533506	0.533466
O189	O	0.337895	-0.163281	-0.163477
O190	O	0.587895	0.086719	0.086523
O191	O	0.837895	0.336719	0.336523
O192	O	1.087895	0.586719	0.586523
O193	O	0.337872	-0.269729	-0.269613
O194	O	0.587872	-0.019729	-0.019613
O195	O	0.837872	0.230271	0.230387
O196	O	1.087872	0.480271	0.480387
C197	C	0.125937	-0.245277	-0.245247
C198	C	0.375937	0.004723	0.004753
C199	C	0.625937	0.254723	0.254753
C200	C	0.875937	0.504723	0.504753
C201	C	0.102478	-0.216506	-0.216574
C202	C	0.352478	0.033494	0.033426
C203	C	0.602478	0.283494	0.283426
C204	C	0.852478	0.533494	0.533426
C205	C	0.125934	-0.187734	-0.187893
C206	C	0.375934	0.062266	0.062107
C207	C	0.625934	0.312266	0.312107
C208	C	0.875934	0.562266	0.562107
C209	C	0.055560	-0.216511	-0.216577
C210	C	0.305560	0.033489	0.033423
C211	C	0.555560	0.283489	0.283423
C212	C	0.805560	0.533489	0.533423
C213	C	0.032104	-0.245283	-0.245258
C214	C	0.282104	0.004717	0.004742
C215	C	0.532104	0.254717	0.254742
C216	C	0.782104	0.504717	0.504742
C217	C	0.055566	-0.274051	-0.273934
C218	C	0.305566	-0.024051	-0.023934
C219	C	0.555566	0.225949	0.226066
C220	C	0.805566	0.475949	0.476066
C221	C	0.102482	-0.274049	-0.273927
C222	C	0.352482	-0.024049	-0.023927
C223	C	0.602482	0.225951	0.226073
C224	C	0.852482	0.475951	0.476073
C225	C	0.102472	-0.158966	-0.159217
C226	C	0.352472	0.091034	0.090783
C227	C	0.602472	0.341034	0.340783
C228	C	0.852472	0.591034	0.590783
C229	C	0.055556	-0.158971	-0.159226
C230	C	0.305556	0.091029	0.090774
C231	C	0.555556	0.341029	0.340774
C232	C	0.805556	0.591029	0.590774
C233	C	0.032100	-0.187743	-0.187906
C234	C	0.282100	0.062257	0.062094
C235	C	0.532100	0.312257	0.312094
C236	C	0.782100	0.562257	0.562094
C237	C	0.649079	-0.333226	-0.216527
C238	C	0.899079	-0.083226	0.033473
C239	C	1.149079	0.166774	0.283473
C240	C	1.399079	0.416774	0.533473
C241	C	0.649085	-0.383160	-0.216533
C242	C	0.899085	-0.133160	0.033467
C243	C	1.149085	0.116840	0.283467
C244	C	1.399085	0.366840	0.533467
C245	C	0.677939	-0.692800	-0.187866
C246	C	0.927939	-0.442800	0.062134
C247	C	1.177939	-0.192800	0.312134
C248	C	1.427939	0.057200	0.562134
C249	C	0.677994	-0.880473	-0.187883
C250	C	0.927994	-0.630473	0.062117
C251	C	1.177994	-0.380473	0.312117
C252	C	1.427994	-0.130473	0.562117
O253	O	0.702462	-0.904735	-0.163493
O254	O	0.952462	-0.654735	0.086507
O255	O	1.202462	-0.404735	0.336507
O256	O	1.452462	-0.154735	0.586507
N257	N	0.649253	-0.903945	-0.216583
N258	N	0.899253	-0.653945	0.033417
N259	N	1.149253	-0.403945	0.283417
N260	N	1.399253	-0.153945	0.533417
C261	C	0.620498	-0.880496	-0.245283
C262	C	0.870498	-0.630496	0.004717
C263	C	1.120498	-0.380496	0.254717
C264	C	1.370498	-0.130496	0.504717
O265	O	0.596056	-0.904767	-0.269698
O266	O	0.846056	-0.654767	-0.019698
O267	O	1.096056	-0.404767	0.230302
O268	O	1.346056	-0.154767	0.480302
C269	C	0.620445	-0.692824	-0.245268
C270	C	0.870445	-0.442824	0.004732
C271	C	1.120445	-0.192824	0.254732
C272	C	1.370445	0.057176	0.504732
C273	C	0.649185	-0.669354	-0.216563
C274	C	0.899185	-0.419354	0.033437
C275	C	1.149185	-0.169354	0.283437
C276	C	1.399185	0.080646	0.533437
C277	C	0.706677	-0.669330	-0.159164
C278	C	0.956677	-0.419330	0.090836
C279	C	1.206677	-0.169330	0.340836
C280	C	1.456677	0.080670	0.590836
C281	C	0.706661	-0.622415	-0.159158
C282	C	0.956661	-0.372415	0.090842
C283	C	1.206661	-0.122415	0.340842
C284	C	1.456661	0.127585	0.590842
C285	C	0.677907	-0.598969	-0.187854
C286	C	0.927907	-0.348969	0.062146
C287	C	1.177907	-0.098969	0.312146
C288	C	1.427907	0.151031	0.562146
C289	C	0.649169	-0.622439	-0.216557
C290	C	0.899169	-0.372439	0.033443
C291	C	1.149169	-0.122439	0.283443
C292	C	1.399169	0.127561	0.533443
C293	C	0.591693	-0.669376	-0.273969
C294	C	0.841693	-0.419376	-0.023969
C295	C	1.091693	-0.169376	0.226031
C296	C	1.341693	0.080624	0.476031
C297	C	0.591683	-0.622455	-0.273964
C298	C	0.841683	-0.372455	-0.023964
C299	C	1.091683	-0.122455	0.226036
C300	C	1.341683	0.127545	0.476036
C301	C	0.620423	-0.598985	-0.245259
C302	C	0.870423	-0.348985	0.004741
C303	C	1.120423	-0.098985	0.254741
C304	C	1.370423	0.151015	0.504741
C305	C	0.620399	-0.552078	-0.245248
C306	C	0.870399	-0.302078	0.004752
C307	C	1.120399	-0.052078	0.254752
C308	C	1.370399	0.197922	0.504752
N309	N	0.649141	-0.528606	-0.216548
N310	N	0.899141	-0.278606	0.033452
N311	N	1.149141	-0.028606	0.283452
N312	N	1.399141	0.221394	0.533452
C313	C	0.677895	-0.552051	-0.187851
C314	C	0.927895	-0.302051	0.062149
C315	C	1.177895	-0.052051	0.312149
C316	C	1.427895	0.197949	0.562149
C317	C	0.620527	-0.979027	-0.245289
C318	C	0.870527	-0.729027	0.004711
C319	C	1.120527	-0.479027	0.254711
C320	C	1.370527	-0.229027	0.504711
C321	C	0.620540	-1.025945	-0.245292
C322	C	0.870540	-0.775945	0.004708
C323	C	1.120540	-0.525945	0.254708
C324	C	1.370540	-0.275945	0.504708
C325	C	0.678037	-1.025918	-0.187893
C326	C	0.928037	-0.775918	0.062107
C327	C	1.178037	-0.525918	0.312107
C328	C	1.428037	-0.275918	0.562107
C329	C	0.678022	-0.979000	-0.187887
C330	C	0.928022	-0.729000	0.062113
C331	C	1.178022	-0.479000	0.312113
C332	C	1.428022	-0.229000	0.562113
C333	C	0.649268	-0.955555	-0.216589
C334	C	0.899268	-0.705555	0.033411
C335	C	1.149268	-0.455555	0.283411
C336	C	1.399268	-0.205555	0.533411
C337	C	0.677859	-0.453525	-0.187841
C338	C	0.927859	-0.203525	0.062159
C339	C	1.177859	0.046475	0.312159
C340	C	1.427859	0.296475	0.562159
C341	C	0.677839	-0.406606	-0.187836
C342	C	0.927839	-0.156606	0.062164
C343	C	1.177839	0.093394	0.312164
C344	C	1.427839	0.343394	0.562164
C345	C	0.620344	-0.406637	-0.245237
C346	C	0.870344	-0.156637	0.004763
C347	C	1.120344	0.093363	0.254763
C348	C	1.370344	0.343363	0.504763
C349	C	0.620362	-0.453552	-0.245240
C350	C	0.870362	-0.203552	0.004760
C351	C	1.120362	0.046448	0.254760
C352	C	1.370362	0.296448	0.504760
C353	C	0.649123	-0.476995	-0.216540
C354	C	0.899123	-0.226995	0.033460
C355	C	1.149123	0.023005	0.283460
C356	C	1.399123	0.273005	0.533460
O357	O	0.595948	-0.527787	-0.269629
O358	O	0.845948	-0.277787	-0.019629
O359	O	1.095948	-0.027787	0.230371
O360	O	1.345948	0.222213	0.480371
O361	O	0.702340	-0.527772	-0.163447
O362	O	0.952340	-0.277772	0.086553
O363	O	1.202340	-0.027772	0.336553
O364	O	1.452340	0.222228	0.586553
C365	C	0.677955	-0.739715	-0.187872
C366	C	0.927955	-0.489715	0.062128
C367	C	1.177955	-0.239715	0.312128
C368	C	1.427955	0.010285	0.562128
C369	C	0.649217	-0.763185	-0.216574
C370	C	0.899217	-0.513185	0.033426
C371	C	1.149217	-0.263185	0.283426
C372	C	1.399217	-0.013185	0.533426
C373	C	0.620463	-0.739740	-0.245271
C374	C	0.870463	-0.489740	0.004729
C375	C	1.120463	-0.239740	0.254729
C376	C	1.370463	0.010260	0.504729
C377	C	0.649229	-0.810103	-0.216578
C378	C	0.899229	-0.560103	0.033422
C379	C	1.149229	-0.310103	0.283422
C380	C	1.399229	-0.060103	0.533422
C381	C	0.677983	-0.833549	-0.187881
C382	C	0.927983	-0.583549	0.062119
C383	C	1.177983	-0.333549	0.312119
C384	C	1.427983	-0.083549	0.562119
C385	C	0.706724	-0.810076	-0.159181
C386	C	0.956724	-0.560076	0.090819
C387	C	1.206724	-0.310076	0.340819
C388	C	1.456724	-0.060076	0.590819
C389	C	0.706709	-0.763161	-0.159175
C390	C	0.956709	-0.513161	0.090825
C391	C	1.206709	-0.263161	0.340825
C392	C	1.456709	-0.013161	0.590825
C393	C	0.591722	-0.763212	-0.273971
C394	C	0.841722	-0.513212	-0.023971
C395	C	1.091722	-0.263212	0.226029
C396	C	1.341722	-0.013212	0.476029
C397	C	0.591740	-0.810128	-0.273974
C398	C	0.841740	-0.560128	-0.023974
C399	C	1.091740	-0.310128	0.226026
C400	C	1.341740	-0.060128	0.476026
C401	C	0.620493	-0.833573	-0.245277
C402	C	0.870493	-0.583573	0.004723
C403	C	1.120493	-0.333573	0.254723
C404	C	1.370493	-0.083573	0.504723
C405	C	0.766338	-0.216523	-0.216582
C406	C	1.016338	0.033477	0.033418
C407	C	1.266338	0.283477	0.283418
C408	C	1.516338	0.533477	0.533418
C409	C	0.816273	-0.216531	-0.216596
C410	C	1.066273	0.033469	0.033404
C411	C	1.316273	0.283469	0.283404
C412	C	1.566273	0.533469	0.533404
C413	C	0.649188	-0.216486	-0.333728
C414	C	0.899188	0.033514	-0.083728
C415	C	1.149188	0.283514	0.166272
C416	C	1.399188	0.533514	0.416272
C417	C	0.649200	-0.216479	-0.383662
C418	C	0.899200	0.033521	-0.133662
C419	C	1.149200	0.283521	0.116338
C420	C	1.399200	0.533521	0.366338
C421	C	0.649254	-0.099325	-0.216582
C422	C	0.899254	0.150675	0.033418
C423	C	1.149254	0.400675	0.283418
C424	C	1.399254	0.650675	0.533418
C425	C	0.649294	-0.049390	-0.216595
C426	C	0.899294	0.200610	0.033405
C427	C	1.149294	0.450610	0.283405
C428	C	1.399294	0.700610	0.533405
C429	C	0.620498	-0.187695	-0.693309
C430	C	0.870498	0.062305	-0.443309
C431	C	1.120498	0.312305	-0.193309
C432	C	1.370498	0.562305	0.056691
C433	C	0.620511	-0.187664	-0.880982
C434	C	0.870511	0.062336	-0.630982
C435	C	1.120511	0.312336	-0.380982
C436	C	1.370511	0.562336	-0.130982
O437	O	0.596085	-0.163236	-0.905249
O438	O	0.846085	0.086764	-0.655249
O439	O	1.096085	0.336764	-0.405249
O440	O	1.346085	0.586764	-0.155249
N441	N	0.649221	-0.216394	-0.904448
N442	N	0.899221	0.033606	-0.654448
N443	N	1.149221	0.283606	-0.404448
N444	N	1.399221	0.533606	-0.154448
C445	C	0.677928	-0.245137	-0.880992
C446	C	0.927928	0.004863	-0.630992
C447	C	1.177928	0.254863	-0.380992
C448	C	1.427928	0.504863	-0.130992
O449	O	0.702345	-0.269576	-0.905258
O450	O	0.952345	-0.019576	-0.655258
O451	O	1.202345	0.230424	-0.405258
O452	O	1.452345	0.480424	-0.155258
C453	C	0.677913	-0.245170	-0.693320
C454	C	0.927913	0.004830	-0.443320
C455	C	1.177913	0.254830	-0.193320
C456	C	1.427913	0.504830	0.056680
C457	C	0.649204	-0.216434	-0.669857
C458	C	0.899204	0.033566	-0.419857
C459	C	1.149204	0.283566	-0.169857
C460	C	1.399204	0.533566	0.080143
C461	C	0.591791	-0.158963	-0.669845
C462	C	0.841791	0.091037	-0.419845
C463	C	1.091791	0.341037	-0.169845
C464	C	1.341791	0.591037	0.080155
C465	C	0.591790	-0.158969	-0.622930
C466	C	0.841790	0.091031	-0.372930
C467	C	1.091790	0.341031	-0.122930
C468	C	1.341790	0.591031	0.127070
C469	C	0.620496	-0.187708	-0.599478
C470	C	0.870496	0.062292	-0.349478
C471	C	1.120496	0.312292	-0.099478
C472	C	1.370496	0.562292	0.150522
C473	C	0.649203	-0.216441	-0.622941
C474	C	0.899203	0.033559	-0.372941
C475	C	1.149203	0.283559	-0.122941
C476	C	1.399203	0.533559	0.127059
C477	C	0.706617	-0.273914	-0.669866
C478	C	0.956617	-0.023914	-0.419866
C479	C	1.206617	0.226086	-0.169866
C480	C	1.456617	0.476086	0.080134
C481	C	0.706610	-0.273920	-0.622945
C482	C	0.956610	-0.023920	-0.372945
C483	C	1.206610	0.226080	-0.122945
C484	C	1.456610	0.476080	0.127055
C485	C	0.677901	-0.245185	-0.599481
C486	C	0.927901	0.004815	-0.349481
C487	C	1.177901	0.254815	-0.099481
C488	C	1.427901	0.504815	0.150519
C489	C	0.677907	-0.245186	-0.552574
C490	C	0.927907	0.004814	-0.302574
C491	C	1.177907	0.254814	-0.052574
C492	C	1.427907	0.504814	0.197426
N493	N	0.649197	-0.216456	-0.529108
N494	N	0.899197	0.033544	-0.279108
N495	N	1.149197	0.283544	-0.029108
N496	N	1.399197	0.533544	0.220892
C497	C	0.620491	-0.187717	-0.552560
C498	C	0.870491	0.062283	-0.302560
C499	C	1.120491	0.312283	-0.052560
C500	C	1.370491	0.562283	0.197440
C501	C	0.677935	-0.245117	-0.979523
C502	C	0.927935	0.004883	-0.729523
C503	C	1.177935	0.254883	-0.479523
C504	C	1.427935	0.504883	-0.229523
C505	C	0.677939	-0.245108	-1.026441
C506	C	0.927939	0.004892	-0.776441
C507	C	1.177939	0.254892	-0.526441
C508	C	1.427939	0.504892	-0.276441
C509	C	0.620521	-0.187636	-1.026427
C510	C	0.870521	0.062364	-0.776427
C511	C	1.120521	0.312364	-0.526427
C512	C	1.370521	0.562364	-0.276427
C513	C	0.620519	-0.187643	-0.979508
C514	C	0.870519	0.062357	-0.729508
C515	C	1.120519	0.312357	-0.479508
C516	C	1.370519	0.562357	-0.229508
C517	C	0.649224	-0.216386	-0.956057
C518	C	0.899224	0.033614	-0.706057
C519	C	1.149224	0.283614	-0.456057
C520	C	1.399224	0.533614	-0.206057
C521	C	0.620491	-0.187732	-0.454034
C522	C	0.870491	0.062268	-0.204034
C523	C	1.120491	0.312268	0.045966
C524	C	1.370491	0.562268	0.295966
C525	C	0.620494	-0.187740	-0.407114
C526	C	0.870494	0.062260	-0.157114
C527	C	1.120494	0.312260	0.092886
C528	C	1.370494	0.562260	0.342886
C529	C	0.677910	-0.245213	-0.407132
C530	C	0.927910	0.004787	-0.157132
C531	C	1.177910	0.254787	0.092868
C532	C	1.427910	0.504787	0.342868
C533	C	0.677909	-0.245204	-0.454048
C534	C	0.927909	0.004796	-0.204048
C535	C	1.177909	0.254796	0.045952
C536	C	1.427909	0.504796	0.295952
C537	C	0.649196	-0.216462	-0.477497
C538	C	0.899196	0.033538	-0.227497
C539	C	1.149196	0.283538	0.022503
C540	C	1.399196	0.533538	0.272503
O541	O	0.702316	-0.269605	-0.528278
O542	O	0.952316	-0.019605	-0.278278
O543	O	1.202316	0.230395	-0.028278
O544	O	1.452316	0.480395	0.221722
O545	O	0.596071	-0.163288	-0.528286
O546	O	0.846071	0.086712	-0.278286
O547	O	1.096071	0.336712	-0.028286
O548	O	1.346071	0.586712	0.221714
C549	C	0.620499	-0.187689	-0.740224
C550	C	0.870499	0.062311	-0.490224
C551	C	1.120499	0.312311	-0.240224
C552	C	1.370499	0.562311	0.009776
C553	C	0.649206	-0.216422	-0.763688
C554	C	0.899206	0.033578	-0.513688
C555	C	1.149206	0.283578	-0.263688
C556	C	1.399206	0.533578	-0.013688
C557	C	0.677912	-0.245161	-0.740236
C558	C	0.927912	0.004839	-0.490236
C559	C	1.177912	0.254839	-0.240236
C560	C	1.427912	0.504839	0.009764
C561	C	0.649211	-0.216413	-0.810605
C562	C	0.899211	0.033587	-0.560605
C563	C	1.149211	0.283587	-0.310605
C564	C	1.399211	0.533587	-0.060605
C565	C	0.620505	-0.187674	-0.834057
C566	C	0.870505	0.062326	-0.584057
C567	C	1.120505	0.312326	-0.334057
C568	C	1.370505	0.562326	-0.084057
C569	C	0.591795	-0.158944	-0.810591
C570	C	0.841795	0.091056	-0.560591
C571	C	1.091795	0.341056	-0.310591
C572	C	1.341795	0.591056	-0.060591
C573	C	0.591793	-0.158950	-0.763676
C574	C	0.841793	0.091050	-0.513676
C575	C	1.091793	0.341050	-0.263676
C576	C	1.341793	0.591050	-0.013676
C577	C	0.706622	-0.273891	-0.763702
C578	C	0.956622	-0.023891	-0.513702
C579	C	1.206622	0.226109	-0.263702
C580	C	1.456622	0.476109	-0.013702
C581	C	0.706621	-0.273882	-0.810617
C582	C	0.956621	-0.023882	-0.560617
C583	C	1.206621	0.226118	-0.310617
C584	C	1.456621	0.476118	-0.060617
C585	C	0.677915	-0.245143	-0.834069
C586	C	0.927915	0.004857	-0.584069
C587	C	1.177915	0.254857	-0.334069
C588	C	1.427915	0.504857	-0.084069
C589	C	0.649158	-0.216488	-0.099827
C590	C	0.899158	0.033512	0.150173
C591	C	1.149158	0.283512	0.400173
C592	C	1.399158	0.533512	0.650173
C593	C	0.649233	-0.216369	-0.049893
C594	C	0.899233	0.033631	0.200107
C595	C	1.149233	0.283631	0.450107
C596	C	1.399233	0.533631	0.700107
H597	H	0.262324	-0.297473	-0.297258
H598	H	0.512324	-0.047473	-0.047258
H599	H	0.762324	0.202527	0.202742
H600	H	1.012324	0.452527	0.452742
H601	H	0.597112	-0.959941	-0.268661
H602	H	0.847112	-0.709941	-0.018661
H603	H	1.097112	-0.459941	0.231339
H604	H	1.347112	-0.209941	0.481339
H605	H	0.568287	-0.688477	-0.297342
H606	H	0.818287	-0.438477	-0.047342
H607	H	1.068287	-0.188477	0.202658
H608	H	1.318287	0.061523	0.452658
Br609	Br	0.164488	-0.313098	-0.312843
Br610	Br	0.414488	-0.063098	-0.062843
Br611	Br	0.664488	0.186902	0.187157
Br612	Br	0.914488	0.436902	0.437157
Br613	Br	0.581346	-0.485405	-0.284186
Br614	Br	0.831346	-0.235405	-0.034186
Br615	Br	1.081346	0.014595	0.215814
Br616	Br	1.331346	0.264595	0.465814
H617	H	0.568413	-0.135560	-0.688935
H618	H	0.818413	0.114440	-0.438935
H619	H	1.068413	0.364440	-0.188935
H620	H	1.318413	0.614440	0.061065
Br621	Br	0.716869	-0.284211	-0.375296
Br622	Br	0.966869	-0.034211	-0.125296
Br623	Br	1.216869	0.215789	0.124704
Br624	Br	1.466869	0.465789	0.374704
Br625	Br	0.581531	-0.148737	-0.375274
Br626	Br	0.831531	0.101263	-0.125274
Br627	Br	1.081531	0.351263	0.124726
Br628	Br	1.331531	0.601263	0.374726
H629	H	0.597142	-0.164244	-0.960407
H630	H	0.847142	0.085756	-0.710407
H631	H	1.097142	0.335756	-0.460407
H632	H	1.347142	0.585756	-0.210407
H633	H	0.597111	-0.164327	-0.473121
H634	H	0.847111	0.085673	-0.223121
H635	H	1.097111	0.335673	0.026879
H636	H	1.347111	0.585673	0.276879
H637	H	0.568423	-0.135542	-0.829694
H638	H	0.818423	0.114458	-0.579694
H639	H	1.068423	0.364458	-0.329694
H640	H	1.318423	0.614458	-0.079694
H641	H	0.701242	-0.387498	-0.164459
H642	H	0.951242	-0.137498	0.085541
H643	H	1.201242	0.112502	0.335541
H644	H	1.451242	0.362502	0.585541
H645	H	0.730094	-0.688415	-0.135795
H646	H	0.980094	-0.438415	0.114205
H647	H	1.230094	-0.188415	0.364205
H648	H	1.480094	0.061585	0.614205
Br649	Br	0.745589	-0.312882	-0.842454
Br650	Br	0.995589	-0.062882	-0.592454
Br651	Br	1.245589	0.187118	-0.342454
Br652	Br	1.495589	0.437118	-0.092454
H653	H	0.701322	-0.268502	-1.045541
H654	H	0.951322	-0.018502	-0.795541
H655	H	1.201322	0.231498	-0.545541
H656	H	1.451322	0.481498	-0.295541
Br657	Br	0.716892	-0.485334	-0.148891
Br658	Br	0.966892	-0.235334	0.101109
Br659	Br	1.216892	0.014666	0.351109
Br660	Br	1.466892	0.264666	0.601109
Br661	Br	0.716897	-0.284128	-0.947703
Br662	Br	0.966897	-0.034128	-0.697703
Br663	Br	1.216897	0.215872	-0.447703
Br664	Br	1.466897	0.465872	-0.197703
H665	H	0.121578	-0.297479	-0.297278
H666	H	0.371578	-0.047479	-0.047278
H667	H	0.621578	0.202521	0.202722
H668	H	0.871578	0.452521	0.452722
H669	H	0.597149	-0.164235	-1.045530
H670	H	0.847149	0.085765	-0.795530
H671	H	1.097149	0.335765	-0.545530
H672	H	1.347149	0.585765	-0.295530
Br673	Br	0.164482	-0.119898	-0.120289
Br674	Br	0.414482	0.130102	0.129711
Br675	Br	0.664482	0.380102	0.379711
Br676	Br	0.914482	0.630102	0.629711
H677	H	0.596931	-0.387540	-0.268600
H678	H	0.846931	-0.137540	-0.018600
H679	H	1.096931	0.112460	0.231400
H680	H	1.346931	0.362460	0.481400
Br681	Br	0.745674	-0.590570	-0.120205
Br682	Br	0.995674	-0.340570	0.129795
Br683	Br	1.245674	-0.090570	0.379795
Br684	Br	1.495674	0.159430	0.629795
Br685	Br	0.552830	-0.119950	-0.731840
Br686	Br	0.802830	0.130050	-0.481840
Br687	Br	1.052830	0.380050	-0.231840
Br688	Br	1.302830	0.630050	0.018160
H689	H	-0.094249	-0.268729	-0.268619
H690	H	0.155751	-0.018729	-0.018619
H691	H	0.405751	0.231271	0.231381
H692	H	0.655751	0.481271	0.481381
Br693	Br	0.745578	-0.312917	-0.701697
Br694	Br	0.995578	-0.062917	-0.451697
Br695	Br	1.245578	0.187083	-0.201697
Br696	Br	1.495578	0.437083	0.048303
Br697	Br	-0.192107	-0.284347	-0.284201
Br698	Br	0.057893	-0.034347	-0.034201
Br699	Br	0.307893	0.215653	0.215799
Br700	Br	0.557893	0.465653	0.465799
H701	H	0.393037	-0.268692	-0.268566
H702	H	0.643037	-0.018692	-0.018566
H703	H	0.893037	0.231308	0.231434
H704	H	1.143037	0.481308	0.481434
H705	H	0.036460	-0.297479	-0.297286
H706	H	0.286460	-0.047479	-0.047286
H707	H	0.536460	0.202521	0.202714
H708	H	0.786460	0.452521	0.452714
Br709	Br	0.745567	-0.312934	-0.591121
Br710	Br	0.995567	-0.062934	-0.341121
Br711	Br	1.245567	0.187066	-0.091121
Br712	Br	1.495567	0.437066	0.158879
H713	H	0.701424	-0.959893	-0.164514
H714	H	0.951424	-0.709893	0.085486
H715	H	1.201424	-0.459893	0.335486
H716	H	1.451424	-0.209893	0.585486
Br717	Br	0.552660	-0.590640	-0.312919
Br718	Br	0.802660	-0.340640	-0.062919
Br719	Br	1.052660	-0.090640	0.187081
Br720	Br	1.302660	0.159360	0.437081
H721	H	0.729996	-0.297296	-0.744612
H722	H	0.979996	-0.047296	-0.494612
H723	H	1.229996	0.202704	-0.244612
H724	H	1.479996	0.452704	0.005388
Br725	Br	0.745716	-0.731316	-0.120217
Br726	Br	0.995716	-0.481316	0.129783
Br727	Br	1.245716	-0.231316	0.379783
Br728	Br	1.495716	0.018684	0.629783
H729	H	0.262323	-0.135514	-0.135852
H730	H	0.512323	0.114486	0.114148
H731	H	0.762323	0.364486	0.364148
H732	H	1.012323	0.614486	0.614148
H733	H	0.730136	-0.829174	-0.135814
H734	H	0.980136	-0.579174	0.114186
H735	H	1.230136	-0.329174	0.364186
H736	H	1.480136	-0.079174	0.614186
Br737	Br	0.716880	-0.284193	-0.485892
Br738	Br	0.966880	-0.034193	-0.235892
Br739	Br	1.216880	0.215807	0.014108
Br740	Br	1.466880	0.465807	0.264108
H741	H	0.568307	-0.744126	-0.297340
H742	H	0.818307	-0.494126	-0.047340
H743	H	1.068307	-0.244126	0.202660
H744	H	1.318307	0.005874	0.452660
Br745	Br	0.717058	-1.057746	-0.148946
Br746	Br	0.967058	-0.807746	0.101054
Br747	Br	1.217058	-0.557746	0.351054
Br748	Br	1.467058	-0.307746	0.601054
H749	H	0.597133	-1.045050	-0.268662
H750	H	0.847133	-0.795050	-0.018662
H751	H	1.097133	-0.545050	0.231338
H752	H	1.347133	-0.295050	0.481338
Br753	Br	0.023724	-0.119920	-0.120303
Br754	Br	0.273724	0.130080	0.129697
Br755	Br	0.523724	0.380080	0.379697
Br756	Br	0.773724	0.630080	0.629697
Br757	Br	0.490882	-0.284313	-0.284111
Br758	Br	0.740882	-0.034313	-0.034111
Br759	Br	0.990882	0.215687	0.215889
Br760	Br	1.240882	0.465687	0.465889
H761	H	-0.179368	-0.164333	-0.164561
H762	H	0.070632	0.085667	0.085439
H763	H	0.320632	0.335667	0.335439
H764	H	0.570632	0.585667	0.585439
H765	H	-0.094261	-0.164321	-0.164556
H766	H	0.155739	0.085679	0.085444
H767	H	0.405739	0.335679	0.335444
H768	H	0.655739	0.585679	0.585444
H769	H	0.393020	-0.164291	-0.164496
H770	H	0.643020	0.085709	0.085504
H771	H	0.893020	0.335709	0.335504
H772	H	1.143020	0.585709	0.585504
H773	H	0.121565	-0.135536	-0.135861
H774	H	0.371565	0.114464	0.114139
H775	H	0.621565	0.364464	0.364139
H776	H	0.871565	0.614464	0.614139
Br777	Br	0.490879	-0.148669	-0.148915
Br778	Br	0.740879	0.101331	0.101085
Br779	Br	0.990879	0.351331	0.351085
Br780	Br	1.240879	0.601331	0.601085
Br781	Br	0.552824	-0.119971	-0.591094
Br782	Br	0.802824	0.130029	-0.341094
Br783	Br	1.052824	0.380029	-0.091094
Br784	Br	1.302824	0.630029	0.158906
Br785	Br	0.552730	-0.841974	-0.312933
Br786	Br	0.802730	-0.591974	-0.062933
Br787	Br	1.052730	-0.341974	0.187067
Br788	Br	1.302730	-0.091974	0.437067
