data_functionalizedCrystal
_audit_creation_method	'MofGen! by Chris Wilmer'
_symmetry_space_group_name_H-M	'P1'
_symmetry_Int_Tables_number	1
_symmetry_cell_setting	triclinic
loop_
_symmetry_equiv_pos_as_xyz
  x,y,z
_cell_length_a	18.101398
_cell_length_b	18.101397
_cell_length_c	21.395356
_cell_angle_alpha	89.970896
_cell_angle_beta	89.981071
_cell_angle_gamma	90.018618
loop_
_atom_site_label
_atom_site_type_symbol
_atom_site_fract_x
_atom_site_fract_y
_atom_site_fract_z
Zn1	Zn	1.132209	-0.294885	-0.354177
Zn2	Zn	1.132118	-0.418728	-0.249397
Zn3	Zn	1.008358	-0.294901	-0.249423
Zn4	Zn	1.008342	-0.418685	-0.354146
O5	O	1.070257	-0.356800	-0.301786
O6	O	1.235830	-0.311324	-0.340281
O7	O	1.115670	-0.402327	-0.161723
O8	O	1.024832	-0.191266	-0.263342
O9	O	1.235763	-0.402311	-0.263299
O10	O	1.115825	-0.191254	-0.340305
O11	O	1.024744	-0.311351	-0.161741
O12	O	0.904723	-0.311310	-0.263312
O13	O	1.024804	-0.402238	-0.441828
O14	O	0.904711	-0.402254	-0.340252
O15	O	1.115809	-0.311283	-0.441851
O16	O	1.115654	-0.522355	-0.263269
O17	O	1.024716	-0.522324	-0.340227
C18	C	0.877846	-0.356779	-0.301781
C19	C	0.795532	-0.356788	-0.301794
C20	C	0.644824	-0.356802	-0.301793
C21	C	0.613487	-0.414110	-0.350127
C22	C	0.527869	-0.414342	-0.349984
C23	C	0.496441	-0.356816	-0.301793
C24	C	0.527492	-0.377640	-0.235681
C25	C	0.613137	-0.378048	-0.235961
C26	C	0.613290	-0.278529	-0.318995
C27	C	0.527640	-0.278958	-0.320451
C28	C	0.412582	-0.356822	-0.301789
C29	C	0.728683	-0.356798	-0.301793
C30	C	1.070193	-0.549210	-0.301755
C31	C	1.070234	-0.631524	-0.301763
C32	C	1.070329	-0.930615	-0.301821
C33	C	1.127385	-0.899279	-0.253271
C34	C	1.127582	-0.813661	-0.253396
C35	C	1.070282	-0.782233	-0.301792
C36	C	1.091444	-0.813243	-0.367833
C37	C	1.091886	-0.898888	-0.367568
C38	C	0.991958	-0.899121	-0.284901
C39	C	0.992345	-0.813472	-0.283426
C40	C	1.070254	-0.698373	-0.301779
C41	C	1.070358	-1.014475	-0.301837
C42	C	1.263419	-0.356821	-0.301790
C43	C	1.345733	-0.356830	-0.301792
C44	C	1.070315	-0.356754	-0.465209
C45	C	1.070340	-0.356734	-0.534850
C46	C	1.070341	-0.163638	-0.301830
C47	C	1.070376	-0.081324	-0.301849
C48	C	1.023007	-0.309358	-0.567563
C49	C	1.023005	-0.309344	-0.632999
C50	C	1.070348	-0.356699	-0.665719
C51	C	1.117684	-0.404084	-0.632998
C52	C	1.117680	-0.404102	-0.567564
C53	C	1.137074	-0.362524	-0.769400
C54	C	1.137079	-0.362501	-0.834833
C55	C	1.070360	-0.356649	-0.867540
C56	C	1.003634	-0.350805	-0.834805
C57	C	1.003630	-0.350822	-0.769371
C58	C	1.070357	-0.356686	-0.736671
C59	C	1.023021	-0.309255	-0.971205
C60	C	1.023017	-0.309247	-1.036642
C61	C	1.117703	-0.403983	-1.036640
C62	C	1.117700	-0.403995	-0.971204
C63	C	1.070360	-0.356628	-0.938491
C64	C	1.070241	-0.356792	-0.138998
C65	C	1.070360	-0.356603	-0.069357
H66	H	0.633865	-0.338091	-0.198713
F67	F	0.932621	-0.344573	-0.869608
H68	H	0.633088	-0.435255	-0.221423
H69	H	0.972707	-0.920780	-0.237579
F70	F	0.933788	-0.785520	-0.326261
H71	H	1.156252	-0.442539	-1.063280
F72	F	0.972638	-0.258906	-0.667821
F73	F	0.499673	-0.220199	-0.277834
H74	H	0.976388	-0.793211	-0.234825
F75	F	1.166762	-0.924928	-0.386301
H76	H	1.185635	-0.793119	-0.264591
F77	F	0.972635	-0.258847	-0.936387
H78	H	0.506876	-0.401352	-0.398997
H79	H	0.507134	-0.337179	-0.198680
F80	F	0.641556	-0.253660	-0.380946
F81	F	0.501119	-0.258422	-0.384047
F82	F	0.932617	-0.344606	-0.734534
H83	H	0.634110	-0.401271	-0.399292
F84	F	0.936392	-0.925611	-0.331118
F85	F	0.499426	-0.451596	-0.216352
F86	F	0.972621	-0.258947	-0.532751
H87	H	0.633556	-0.235835	-0.283795
H88	H	1.114342	-0.792697	-0.204428
H89	H	0.984468	-0.270670	-1.063276
H90	H	1.052149	-0.919614	-0.404988
F91	F	1.110293	-0.926262	-0.189072
H92	H	1.156245	-0.442573	-0.944569
F93	F	1.208090	-0.368757	-0.734598
H94	H	1.185120	-0.920749	-0.264336
F95	F	1.168067	-0.454485	-0.667822
H96	H	1.191412	-0.367256	-0.861481
F97	F	1.038784	-0.786640	-0.416386
F98	F	1.168060	-0.454528	-0.532747
H99	H	0.634985	-0.471781	-0.338852
F100	F	1.165482	-0.785136	-0.386885
H101	H	0.507357	-0.472346	-0.338571
