data_functionalizedCrystal
_audit_creation_method	'MofGen! by Chris Wilmer'
_symmetry_space_group_name_H-M	'P1'
_symmetry_Int_Tables_number	1
_symmetry_cell_setting	triclinic
loop_
_symmetry_equiv_pos_as_xyz
  x,y,z
_cell_length_a	13.032831
_cell_length_b	13.032721
_cell_length_c	19.076919
_cell_angle_alpha	99.138159
_cell_angle_beta	85.386187
_cell_angle_gamma	90.902885
loop_
_atom_site_label
_atom_site_type_symbol
_atom_site_fract_x
_atom_site_fract_y
_atom_site_fract_z
Zn1	Zn	1.481895	-0.639106	-0.579128
Zn2	Zn	1.466872	-0.805708	-0.474399
Zn3	Zn	1.318790	-0.610392	-0.445065
Zn4	Zn	1.288292	-0.788961	-0.575375
O5	O	1.388962	-0.711042	-0.518492
O6	O	1.622899	-0.680232	-0.579082
O7	O	1.453705	-0.774791	-0.372143
O8	O	1.359478	-0.469746	-0.452143
O9	O	1.611861	-0.802634	-0.502138
O10	O	1.479310	-0.490842	-0.550638
O11	O	1.344910	-0.631293	-0.350592
O12	O	1.171748	-0.615053	-0.448504
O13	O	1.307497	-0.774090	-0.674237
O14	O	1.149341	-0.746247	-0.544242
O15	O	1.449737	-0.663993	-0.676994
O16	O	1.424132	-0.947942	-0.498499
O17	O	1.292930	-0.935637	-0.572686
C18	C	1.123467	-0.675718	-0.492784
C19	C	1.009883	-0.660632	-0.481804
C20	C	0.948176	-0.718915	-0.524222
C21	C	0.830780	-0.703325	-0.512875
C22	C	1.353618	-0.979250	-0.538386
C23	C	1.338589	-1.094004	-0.546929
C24	C	1.396858	-1.151227	-0.514069
C25	C	1.381327	-1.269831	-0.522899
C26	C	1.655494	-0.746504	-0.544300
C27	C	1.769074	-0.761616	-0.555299
C28	C	1.376891	-0.720377	-0.701833
C29	C	1.371747	-0.724355	-0.779963
C30	C	1.424472	-0.441791	-0.498537
C31	C	1.439604	-0.327053	-0.490034
C32	C	1.443383	-0.668904	-0.818105
C33	C	1.438538	-0.672636	-0.891514
C34	C	1.362060	-0.731825	-0.926781
C35	C	1.290416	-0.787277	-0.888634
C36	C	1.295258	-0.783539	-0.815225
C37	C	1.339634	-0.749148	-1.146175
C38	C	1.334800	-0.752885	-1.219590
C39	C	1.482920	-0.638241	-1.222465
C40	C	1.487759	-0.634513	-1.149055
C41	C	1.416112	-0.689961	-1.110914
N42	N	1.357107	-0.735644	-1.001818
N43	N	1.421061	-0.686135	-1.035877
C44	C	1.401055	-0.701677	-0.335863
C45	C	1.406436	-0.697434	-0.257732
H46	H	0.982257	-0.780353	-0.568940
C47	C	0.963846	-0.577625	-0.421394
N48	N	0.929173	-0.515103	-0.375891
C49	C	1.527514	-0.603790	-0.779318
N50	N	1.590882	-0.554740	-0.750105
C51	C	1.517345	-0.611638	-0.933467
N52	N	1.576706	-0.565691	-0.965066
H53	H	1.500996	-1.288243	-0.455366
C54	C	1.479787	-1.098794	-0.467231
N55	N	1.542250	-1.059303	-0.431950
C56	C	0.784748	-0.620313	-0.452462
N57	N	0.750075	-0.557791	-0.406959
C58	C	0.815104	-0.844628	-0.615713
N59	N	0.849774	-0.907152	-0.661216
H60	H	1.236915	-0.828681	-0.784169
C61	C	1.561715	-0.577239	-1.264425
N62	N	1.621062	-0.531283	-1.296028
C63	C	1.298391	-1.322259	-0.569738
N64	N	1.235924	-1.361749	-0.605015
C65	C	1.255658	-1.146436	-0.593766
N66	N	1.193191	-1.185926	-0.629043
H67	H	1.550038	-0.586318	-1.120347
H68	H	1.272519	-0.801085	-1.248302
C69	C	1.206281	-0.852375	-0.927428
N70	N	1.142908	-0.901407	-0.956647
C71	C	1.260817	-0.810139	-1.104228
N72	N	1.201447	-0.856078	-1.072631
