data_functionalizedCrystal
_audit_creation_method	'MofGen! by Chris Wilmer'
_symmetry_space_group_name_H-M	'P1'
_symmetry_Int_Tables_number	1
_symmetry_cell_setting	triclinic
loop_
_symmetry_equiv_pos_as_xyz
  x,y,z
_cell_length_a	18.215407
_cell_length_b	18.215405
_cell_length_c	11.169409
_cell_angle_alpha	89.961391
_cell_angle_beta	89.978878
_cell_angle_gamma	90.021279
loop_
_atom_site_label
_atom_site_type_symbol
_atom_site_fract_x
_atom_site_fract_y
_atom_site_fract_z
Zn1	Zn	1.125108	-0.292975	-0.678508
Zn2	Zn	1.375108	-0.042975	-0.428508
Zn3	Zn	1.625108	0.207025	-0.178508
Zn4	Zn	1.875108	0.457025	0.071492
Zn5	Zn	1.125010	-0.416066	-0.477802
Zn6	Zn	1.375010	-0.166066	-0.227802
Zn7	Zn	1.625010	0.083934	0.022198
Zn8	Zn	1.875010	0.333934	0.272198
Zn9	Zn	1.002032	-0.293012	-0.477840
Zn10	Zn	1.252032	-0.043012	-0.227840
Zn11	Zn	1.502032	0.206988	0.022160
Zn12	Zn	1.752032	0.456988	0.272160
Zn13	Zn	1.002009	-0.415999	-0.678445
Zn14	Zn	1.252009	-0.165999	-0.428445
Zn15	Zn	1.502009	0.084001	-0.178445
Zn16	Zn	1.752009	0.334001	0.071555
O17	O	1.063540	-0.354513	-0.578149
O18	O	1.313540	-0.104513	-0.328149
O19	O	1.563540	0.145487	-0.078149
O20	O	1.813540	0.395487	0.171851
O21	O	1.228079	-0.309316	-0.651894
O22	O	1.478079	-0.059316	-0.401894
O23	O	1.728079	0.190684	-0.151894
O24	O	1.978079	0.440684	0.098106
O25	O	1.108665	-0.399786	-0.309858
O26	O	1.358665	-0.149786	-0.059858
O27	O	1.608665	0.100214	0.190142
O28	O	1.858665	0.350214	0.440142
O29	O	1.018409	-0.190023	-0.504501
O30	O	1.268409	0.059977	-0.254501
O31	O	1.518409	0.309977	-0.004501
O32	O	1.768409	0.559977	0.245499
O33	O	1.228007	-0.399750	-0.504437
O34	O	1.478007	-0.149750	-0.254437
O35	O	1.728007	0.100250	-0.004437
O36	O	1.978007	0.350250	0.245563
O37	O	1.108832	-0.189996	-0.651931
O38	O	1.358832	0.060004	-0.401931
O39	O	1.608832	0.310004	-0.151931
O40	O	1.858832	0.560004	0.098069
O41	O	1.018313	-0.309379	-0.309885
O42	O	1.268313	-0.059379	-0.059885
O43	O	1.518313	0.190621	0.190115
O44	O	1.768313	0.440621	0.440115
O45	O	0.899044	-0.309314	-0.504441
O46	O	1.149044	-0.059314	-0.254441
O47	O	1.399044	0.190686	-0.004441
O48	O	1.649044	0.440686	0.245559
O49	O	1.018370	-0.399636	-0.846404
O50	O	1.268370	-0.149636	-0.596404
O51	O	1.518370	0.100364	-0.346404
O52	O	1.768370	0.350364	-0.096404
O53	O	0.899028	-0.399672	-0.651824
O54	O	1.149028	-0.149672	-0.401824
O55	O	1.399028	0.100328	-0.151824
O56	O	1.649028	0.350328	0.098176
O57	O	1.108810	-0.309251	-0.846449
O58	O	1.358810	-0.059251	-0.596449
O59	O	1.608810	0.190749	-0.346449
O60	O	1.858810	0.440749	-0.096449
O61	O	1.108643	-0.519041	-0.504376
O62	O	1.358643	-0.269041	-0.254376
O63	O	1.608643	-0.019041	-0.004376
O64	O	1.858643	0.230959	0.245624
O65	O	1.018274	-0.518992	-0.651788
O66	O	1.268274	-0.268992	-0.401788
O67	O	1.518274	-0.018992	-0.151788
O68	O	1.768274	0.231008	0.098212
C69	C	0.872333	-0.354491	-0.578130
C70	C	1.122333	-0.104491	-0.328130
C71	C	1.372333	0.145509	-0.078130
C72	C	1.622333	0.395509	0.171870
C73	C	0.790534	-0.354499	-0.578151
C74	C	1.040534	-0.104499	-0.328151
C75	C	1.290534	0.145501	-0.078151
C76	C	1.540534	0.395501	0.171849
C77	C	1.063465	-0.545719	-0.578097
C78	C	1.313465	-0.295719	-0.328097
C79	C	1.563465	-0.045719	-0.078097
C80	C	1.813465	0.204281	0.171903
C81	C	1.063501	-0.627518	-0.578115
C82	C	1.313501	-0.377518	-0.328115
C83	C	1.563501	-0.127518	-0.078115
C84	C	1.813501	0.122482	0.171885
C85	C	0.525487	-0.401640	-0.654786
C86	C	0.775487	-0.151640	-0.404786
C87	C	1.025487	0.098360	-0.154786
C88	C	1.275487	0.348360	0.095214
C89	C	0.602346	-0.401633	-0.654781
C90	C	0.852346	-0.151633	-0.404781
C91	C	1.102346	0.098367	-0.154781
C92	C	1.352346	0.348367	0.095219
C93	C	0.602333	-0.307403	-0.501533
C94	C	0.852333	-0.057403	-0.251533
C95	C	1.102333	0.192597	-0.001533
C96	C	1.352333	0.442597	0.248467
C97	C	0.525476	-0.307414	-0.501533
C98	C	0.775476	-0.057414	-0.251533
C99	C	1.025476	0.192586	-0.001533
C100	C	1.275476	0.442586	0.248467
C101	C	0.487055	-0.354531	-0.578167
C102	C	0.737055	-0.104531	-0.328167
C103	C	0.987055	0.145469	-0.078167
C104	C	1.237055	0.395469	0.171833
C105	C	0.640771	-0.354514	-0.578160
C106	C	0.890771	-0.104514	-0.328160
C107	C	1.140771	0.145486	-0.078160
C108	C	1.390771	0.395486	0.171840
C109	C	0.724105	-0.354507	-0.578154
C110	C	0.974105	-0.104507	-0.328154
C111	C	1.224105	0.145493	-0.078154
C112	C	1.474105	0.395493	0.171846
C113	C	0.403716	-0.354539	-0.578173
C114	C	0.653716	-0.104539	-0.328173
C115	C	0.903716	0.145461	-0.078173
C116	C	1.153716	0.395461	0.171827
C117	C	1.110694	-0.892577	-0.501520
C118	C	1.360694	-0.642577	-0.251520
C119	C	1.610694	-0.392577	-0.001520
C120	C	1.860694	-0.142577	0.248480
C121	C	1.110663	-0.815718	-0.501493
C122	C	1.360663	-0.565718	-0.251493
C123	C	1.610663	-0.315718	-0.001493
C124	C	1.860663	-0.065718	0.248507
C125	C	1.016477	-0.815708	-0.654859
C126	C	1.266477	-0.565708	-0.404859
C127	C	1.516477	-0.315708	-0.154859
C128	C	1.766477	-0.065708	0.095141
C129	C	1.016504	-0.892565	-0.654879
C130	C	1.266504	-0.642565	-0.404879
C131	C	1.516504	-0.392565	-0.154879
C132	C	1.766504	-0.142565	0.095121
C133	C	1.063616	-0.930998	-0.578212
C134	C	1.313616	-0.680998	-0.328212
C135	C	1.563616	-0.430998	-0.078212
C136	C	1.813616	-0.180998	0.171788
C137	C	1.063559	-0.777282	-0.578164
C138	C	1.313559	-0.527282	-0.328164
C139	C	1.563559	-0.277282	-0.078164
C140	C	1.813559	-0.027282	0.171836
C141	C	1.063526	-0.693948	-0.578135
C142	C	1.313526	-0.443948	-0.328135
C143	C	1.563526	-0.193948	-0.078135
C144	C	1.813526	0.056052	0.171865
C145	C	1.063649	-1.014337	-0.578239
C146	C	1.313649	-0.764337	-0.328239
C147	C	1.563649	-0.514337	-0.078239
C148	C	1.813649	-0.264337	0.171761
C149	C	1.255492	-0.354536	-0.578168
C150	C	1.505492	-0.104536	-0.328168
C151	C	1.755492	0.145464	-0.078168
C152	C	2.005492	0.395464	0.171832
C153	C	1.337291	-0.354546	-0.578176
C154	C	1.587291	-0.104546	-0.328176
C155	C	1.837291	0.145454	-0.078176
C156	C	2.087291	0.395454	0.171824
C157	C	1.063599	-0.354432	-0.891192
C158	C	1.313599	-0.104432	-0.641192
C159	C	1.563599	0.145568	-0.391192
C160	C	1.813599	0.395568	-0.141192
C161	C	1.063624	-0.354397	-1.024592
C162	C	1.313624	-0.104397	-0.774592
C163	C	1.563624	0.145603	-0.524592
C164	C	1.813624	0.395603	-0.274592
C165	C	1.063634	-0.162560	-0.578227
C166	C	1.313634	0.087440	-0.328227
C167	C	1.563634	0.337440	-0.078227
C168	C	1.813634	0.587440	0.171773
C169	C	1.063674	-0.080761	-0.578260
C170	C	1.313674	0.169239	-0.328260
C171	C	1.563674	0.419239	-0.078260
C172	C	1.813674	0.669239	0.171740
C173	C	1.063523	-0.354541	-0.266324
C174	C	1.313523	-0.104541	-0.016324
C175	C	1.563523	0.145459	0.233676
C176	C	1.813523	0.395459	0.483676
C177	C	1.063641	-0.354369	-0.132925
C178	C	1.313641	-0.104369	0.117075
C179	C	1.563641	0.145631	0.367075
C180	C	1.813641	0.395631	0.617075
H181	H	0.494207	-0.440006	-0.717186
H182	H	0.744207	-0.190006	-0.467186
H183	H	0.994207	0.059994	-0.217186
H184	H	1.244207	0.309994	0.032814
F185	F	0.966344	-0.774799	-0.736457
F186	F	1.216344	-0.524799	-0.486457
F187	F	1.466344	-0.274799	-0.236457
F188	F	1.716344	-0.024799	0.013543
F189	F	0.643245	-0.451775	-0.736327
F190	F	0.893245	-0.201775	-0.486327
F191	F	1.143245	0.048225	-0.236327
F192	F	1.393245	0.298225	0.013673
F193	F	1.160833	-0.933477	-0.419921
F194	F	1.410833	-0.683477	-0.169921
F195	F	1.660833	-0.433477	0.080079
F196	F	1.910833	-0.183477	0.330079
H197	H	0.633625	-0.269041	-0.439142
H198	H	0.883625	-0.019041	-0.189142
H199	H	1.133625	0.230959	0.060858
H200	H	1.383625	0.480959	0.310858
H201	H	1.148997	-0.784438	-0.439042
H202	H	1.398997	-0.534438	-0.189042
H203	H	1.648997	-0.284438	0.060958
H204	H	1.898997	-0.034438	0.310958
F205	F	0.966394	-0.933458	-0.736507
F206	F	1.216394	-0.683458	-0.486507
F207	F	1.466394	-0.433458	-0.236507
F208	F	1.716394	-0.183458	0.013493
H209	H	0.494183	-0.269051	-0.439135
H210	H	0.744183	-0.019051	-0.189135
H211	H	0.994183	0.230949	0.060865
H212	H	1.244183	0.480949	0.310865
