data_functionalizedCrystal
_audit_creation_method	'MofGen! by Chris Wilmer'
_symmetry_space_group_name_H-M	'P1'
_symmetry_Int_Tables_number	1
_symmetry_cell_setting	triclinic
loop_
_symmetry_equiv_pos_as_xyz
  x,y,z
_cell_length_a	29.839134
_cell_length_b	19.805405
_cell_length_c	19.805399
_cell_angle_alpha	90.029301
_cell_angle_beta	90.028355
_cell_angle_gamma	90.021271
loop_
_atom_site_label
_atom_site_type_symbol
_atom_site_fract_x
_atom_site_fract_y
_atom_site_fract_z
Zn1	Zn	0.686795	-0.269572	0.382870
Zn2	Zn	1.020128	0.063762	0.716203
Zn3	Zn	1.353461	0.397095	1.049537
Zn4	Zn	0.686738	-0.382760	0.269678
Zn5	Zn	1.020072	-0.049427	0.603012
Zn6	Zn	1.353405	0.283907	0.936345
Zn7	Zn	0.611669	-0.269580	0.269677
Zn8	Zn	0.945003	0.063753	0.603011
Zn9	Zn	1.278336	0.397087	0.936344
Zn10	Zn	0.611645	-0.382714	0.382808
Zn11	Zn	0.944978	-0.049381	0.716141
Zn12	Zn	1.278312	0.283953	1.049475
O13	O	0.649212	-0.326156	0.326258
O14	O	0.982545	0.007177	0.659592
O15	O	1.315878	0.340510	0.992925
O16	O	0.749654	-0.284602	0.367882
O17	O	1.082988	0.048731	0.701215
O18	O	1.416321	0.382065	1.034548
O19	O	0.676767	-0.367769	0.174962
O20	O	1.010100	-0.034436	0.508295
O21	O	1.343433	0.298897	0.841628
O22	O	0.621669	-0.174862	0.284718
O23	O	0.955002	0.158471	0.618052
O24	O	1.288335	0.491804	0.951385
O25	O	0.749613	-0.367761	0.284720
O26	O	1.082946	-0.034428	0.618053
O27	O	1.416280	0.298906	0.951387
O28	O	0.676863	-0.174856	0.367880
O29	O	1.010196	0.158477	0.701214
O30	O	1.343530	0.491811	1.034547
O31	O	0.621614	-0.284617	0.174961
O32	O	0.954947	0.048717	0.508294
O33	O	1.288280	0.382050	0.841628
O34	O	0.548799	-0.284572	0.284658
O35	O	0.882132	0.048762	0.617991
O36	O	1.215466	0.382095	0.951325
O37	O	0.621627	-0.367682	0.477533
O38	O	0.954961	-0.034349	0.810866
O39	O	1.288294	0.298984	1.144199
O40	O	0.548781	-0.367691	0.367774
O41	O	0.882114	-0.034357	0.701108
O42	O	1.215448	0.298976	1.034441
O43	O	0.676840	-0.284557	0.477578
O44	O	1.010173	0.048776	0.810912
O45	O	1.343506	0.382109	1.144245
O46	O	0.676743	-0.477470	0.284660
O47	O	1.010077	-0.144137	0.617993
O48	O	1.343410	0.189196	0.951326
O49	O	0.621572	-0.477437	0.367775
O50	O	0.954906	-0.144103	0.701109
O51	O	1.288239	0.189230	1.034442
C52	C	0.649161	-0.502012	0.326226
C53	C	0.982495	-0.168679	0.659559
C54	C	1.315828	0.164654	0.992892
C55	C	0.649181	-0.577244	0.326234
C56	C	0.982514	-0.243911	0.659568
C57	C	1.315847	0.089422	0.992901
C58	C	0.532489	-0.326128	0.326210
C59	C	0.865823	0.007206	0.659543
C60	C	1.199156	0.340539	0.992876
C61	C	0.482555	-0.326132	0.326205
C62	C	0.815888	0.007202	0.659538
C63	C	1.149221	0.340535	0.992871
C64	C	0.677936	-0.612584	0.283001
C65	C	1.011269	-0.279250	0.616335
C66	C	1.344603	0.054083	0.949668
C67	C	0.677955	-0.683272	0.283016
C68	C	1.011288	-0.349939	0.616350
C69	C	1.344622	-0.016605	0.949683
C70	C	0.649216	-0.718620	0.326261
C71	C	0.982550	-0.385287	0.659595
C72	C	1.315883	-0.051953	0.992928
C73	C	0.620460	-0.683276	0.369499
C74	C	0.953793	-0.349942	0.702832
C75	C	1.287126	-0.016609	1.036166
C76	C	0.620443	-0.612589	0.369487
C77	C	0.953777	-0.279255	0.702820
C78	C	1.287110	0.054078	1.036154
C79	C	0.620526	-0.968349	0.369549
C80	C	0.953859	-0.635016	0.702883
C81	C	1.287193	-0.301682	1.036216
C82	C	0.620544	-1.039041	0.369557
C83	C	0.953877	-0.705708	0.702890
C84	C	1.287210	-0.372374	1.036223
C85	C	0.678038	-1.039033	0.283079
C86	C	1.011371	-0.705699	0.616412
C87	C	1.344704	-0.372366	0.949745
C88	C	0.678021	-0.968345	0.283066
C89	C	1.011355	-0.635012	0.616400
C90	C	1.344688	-0.301679	0.949733
C91	C	0.649267	-0.933007	0.326306
C92	C	0.982600	-0.599674	0.659640
C93	C	1.315933	-0.266341	0.992973
C94	C	0.649247	-0.856359	0.326291
C95	C	0.982580	-0.523026	0.659624
C96	C	1.315914	-0.189692	0.992957
C97	C	0.649233	-0.795267	0.326274
C98	C	0.982567	-0.461934	0.659608
C99	C	1.315900	-0.128600	0.992941
C100	C	0.172912	-0.369500	0.369484
C101	C	0.506245	-0.036167	0.702817
C102	C	0.839578	0.297166	1.036151
C103	C	-0.014761	-0.369519	0.369514
C104	C	0.318572	-0.036186	0.702848
C105	C	0.651905	0.297147	1.036181
O106	O	-0.039026	-0.406361	0.406283
O107	O	0.294307	-0.073028	0.739616
O108	O	0.627641	0.260305	1.072950
N109	N	-0.038230	-0.326181	0.326309
N110	N	0.295103	0.007152	0.659643
N111	N	0.628436	0.340485	0.992976
C112	C	-0.014778	-0.282832	0.283097
C113	C	0.318555	0.050501	0.616430
C114	C	0.651889	0.383835	0.949764
O115	O	-0.039046	-0.245966	0.246354
O116	O	0.294287	0.087368	0.579688
O117	O	0.627621	0.420701	0.913021
C118	C	0.172894	-0.282810	0.283071
C119	C	0.506228	0.050523	0.616404
C120	C	0.839561	0.383857	0.949738
C121	C	0.196361	-0.326156	0.326274
C122	C	0.529694	0.007177	0.659607
C123	C	0.863027	0.340511	0.992940
C124	C	0.196378	-0.412842	0.412684
C125	C	0.529711	-0.079509	0.746017
C126	C	0.863045	0.253824	1.079351
C127	C	0.243294	-0.412840	0.412673
C128	C	0.576627	-0.079506	0.746007
C129	C	0.909960	0.253827	1.079340
C130	C	0.266743	-0.369495	0.369463
C131	C	0.600076	-0.036162	0.702796
C132	C	0.933409	0.297171	1.036130
C133	C	0.243276	-0.326153	0.326263
C134	C	0.576609	0.007180	0.659597
C135	C	0.909943	0.340513	0.992930
C136	C	0.196346	-0.239458	0.239863
C137	C	0.529679	0.093875	0.573196
C138	C	0.863012	0.427209	0.906529
C139	C	0.243267	-0.239455	0.239861
C140	C	0.576600	0.093878	0.573194
C141	C	0.909933	0.427212	0.906528
C142	C	0.266733	-0.282801	0.283064
C143	C	0.600066	0.050532	0.616397
C144	C	0.933400	0.383866	0.949731
C145	C	0.313641	-0.282806	0.283042
C146	C	0.646974	0.050527	0.616376
C147	C	0.980307	0.383860	0.949709
N148	N	0.337109	-0.326144	0.326247
N149	N	0.670443	0.007189	0.659580
N150	N	1.003776	0.340522	0.992914
C151	C	0.313660	-0.369489	0.369457
C152	C	0.646994	-0.036156	0.702791
C153	C	0.980327	0.297178	1.036124
C154	C	-0.113309	-0.282848	0.283113
C155	C	0.220025	0.050486	0.616446
C156	C	0.553358	0.383819	0.949780
C157	C	-0.160226	-0.282854	0.283119
C158	C	0.173107	0.050480	0.616452
C159	C	0.506440	0.383813	0.949785
C160	C	-0.160207	-0.369541	0.369537
C161	C	0.173127	-0.036207	0.702870
C162	C	0.506460	0.297126	1.036203
C163	C	-0.113288	-0.369537	0.369527
C164	C	0.220045	-0.036204	0.702861
C165	C	0.553379	0.297129	1.036194
C166	C	-0.089840	-0.326186	0.326318
C167	C	0.243494	0.007148	0.659651
C168	C	0.576827	0.340481	0.992984
C169	C	0.412186	-0.369481	0.369432
C170	C	0.745520	-0.036147	0.702765
C171	C	1.078853	0.297186	1.036098
C172	C	0.459106	-0.369476	0.369415
C173	C	0.792439	-0.036143	0.702749
C174	C	1.125772	0.297191	1.036082
C175	C	0.459082	-0.282787	0.283000
C176	C	0.792415	0.050546	0.616333
C177	C	1.125749	0.383879	0.949666
C178	C	0.412166	-0.282794	0.283013
C179	C	0.745500	0.050539	0.616347
C180	C	1.078833	0.383873	0.949680
C181	C	0.388720	-0.326143	0.326235
C182	C	0.722053	0.007190	0.659568
C183	C	1.055386	0.340524	0.992901
O184	O	0.337934	-0.245978	0.246298
O185	O	0.671267	0.087355	0.579631
O186	O	1.004601	0.420688	0.912965
O187	O	0.337936	-0.406339	0.406205
O188	O	0.671270	-0.073006	0.739539
O189	O	1.004603	0.260327	1.072872
C190	C	0.125996	-0.369503	0.369495
C191	C	0.459330	-0.036170	0.702828
C192	C	0.792663	0.297164	1.036161
C193	C	0.102530	-0.326161	0.326295
C194	C	0.435863	0.007172	0.659628
C195	C	0.769196	0.340506	0.992962
C196	C	0.125979	-0.282817	0.283084
C197	C	0.459312	0.050517	0.616418
C198	C	0.792645	0.383850	0.949751
C199	C	0.055612	-0.326167	0.326300
C200	C	0.388945	0.007166	0.659634
C201	C	0.722279	0.340499	0.992967
C202	C	0.032163	-0.369512	0.369511
C203	C	0.365496	-0.036178	0.702844
C204	C	0.698830	0.297155	1.036178
C205	C	0.055632	-0.412850	0.412716
C206	C	0.388965	-0.079517	0.746049
C207	C	0.722298	0.253817	1.079382
C208	C	0.102547	-0.412847	0.412705
C209	C	0.435881	-0.079514	0.746038
C210	C	0.769214	0.253819	1.079372
C211	C	0.102510	-0.239478	0.239880
C212	C	0.435843	0.093855	0.573213
C213	C	0.769177	0.427188	0.906546
C214	C	0.055594	-0.239485	0.239893
C215	C	0.388928	0.093848	0.573227
C216	C	0.722261	0.427182	0.906560
C217	C	0.032145	-0.282830	0.283104
C218	C	0.365479	0.050504	0.616437
C219	C	0.698812	0.383837	0.949770
C220	C	0.766390	-0.326186	0.326308
C221	C	1.099723	0.007148	0.659641
C222	C	1.433057	0.340481	0.992975
C223	C	0.816325	-0.326198	0.326329
C224	C	1.149658	0.007135	0.659662
C225	C	1.482991	0.340468	0.992996
C226	C	0.649237	-0.326114	0.502801
C227	C	0.982570	0.007220	0.836135
C228	C	1.315904	0.340553	1.169468
C229	C	0.649248	-0.326096	0.578033
C230	C	0.982581	0.007238	0.911367
C231	C	1.315914	0.340571	1.244700
C232	C	0.649275	-0.149614	0.326306
C233	C	0.982608	0.183720	0.659639
C234	C	1.315941	0.517053	0.992973
C235	C	0.649302	-0.074382	0.326326
C236	C	0.982635	0.258952	0.659660
C237	C	1.315968	0.592285	0.992993
C238	C	0.649213	-0.326150	0.150402
C239	C	0.982546	0.007183	0.483736
C240	C	1.315879	0.340517	0.817069
C241	C	0.649289	-0.325978	0.075171
C242	C	0.982622	0.007356	0.408504
C243	C	1.315956	0.340689	0.741838
C244	C	0.677997	-0.282810	0.613402
C245	C	1.011331	0.050523	0.946736
C246	C	1.344664	0.383856	1.280069
C247	C	0.678002	-0.282791	0.684091
C248	C	1.011335	0.050543	1.017424
C249	C	1.344669	0.383876	1.350757
C250	C	0.649259	-0.326060	0.719409
C251	C	0.982592	0.007273	1.052742
C252	C	1.315926	0.340606	1.386076
C253	C	0.620506	-0.369348	0.684035
C254	C	0.953839	-0.036014	1.017368
C255	C	1.287173	0.297319	1.350702
C256	C	0.620500	-0.369363	0.613348
C257	C	0.953833	-0.036030	0.946681
C258	C	1.287166	0.297303	1.280014
C259	C	0.620531	-0.369284	0.969108
C260	C	0.953865	-0.035951	1.302442
C261	C	1.287198	0.297382	1.635775
C262	C	0.620541	-0.369267	1.039801
C263	C	0.953874	-0.035934	1.373134
C264	C	1.287208	0.297400	1.706467
C265	C	0.678034	-0.282712	1.039851
C266	C	1.011367	0.050622	1.373185
C267	C	1.344701	0.383955	1.706518
C268	C	0.678027	-0.282727	0.969164
C269	C	1.011361	0.050606	1.302498
C270	C	1.344694	0.383939	1.635831
C271	C	0.649273	-0.326012	0.933796
C272	C	0.982606	0.007321	1.267130
C273	C	1.315940	0.340655	1.600463
C274	C	0.649268	-0.326032	0.857148
C275	C	0.982601	0.007302	1.190481
C276	C	1.315934	0.340635	1.523815
C277	C	0.649266	-0.326044	0.796056
C278	C	0.982599	0.007289	1.129389
C279	C	1.315933	0.340622	1.462723
H280	H	0.701336	-0.583808	0.247783
H281	H	1.034670	-0.250475	0.581117
H282	H	1.368003	0.082858	0.914450
H283	H	0.597124	-0.404539	0.940320
H284	H	0.930458	-0.071206	1.273654
H285	H	1.263791	0.262127	1.606987
O286	O	0.708969	-0.721385	0.236381
O287	O	1.042302	-0.388052	0.569715
O288	O	1.375635	-0.054719	0.903048
H289	H	0.704157	-0.776477	0.243658
H290	H	1.037490	-0.443143	0.576992
H291	H	1.370824	-0.109810	0.910325
H292	H	0.597142	-1.067819	0.404777
H293	H	0.930475	-0.734486	0.738110
H294	H	1.263808	-0.401153	1.071444
O295	O	0.709001	-0.236139	0.575316
O296	O	1.042335	0.097194	0.908649
O297	O	1.375668	0.430528	1.241983
H298	H	0.731848	-0.266447	0.543121
H299	H	1.065181	0.066886	0.876454
H300	H	1.398514	0.400220	1.209787
O301	O	0.709059	-1.077142	0.236442
O302	O	1.042392	-0.743808	0.569775
O303	O	1.375725	-0.410475	0.903109
H304	H	0.744308	-1.063515	0.248104
H305	H	1.077641	-0.730181	0.581437
H306	H	1.410975	-0.396848	0.914771
H307	H	0.597101	-0.404576	0.712797
H308	H	0.930435	-0.071243	1.046130
H309	H	1.263768	0.262091	1.379463
H310	H	0.701434	-0.247495	0.940412
H311	H	1.034768	0.085838	1.273745
H312	H	1.368101	0.419172	1.607078
O313	O	0.589500	-0.930237	0.416163
O314	O	0.922833	-0.596904	0.749497
O315	O	1.256167	-0.263571	1.082830
H316	H	0.569512	-0.966695	0.446223
H317	H	0.902846	-0.633361	0.779556
H318	H	1.236179	-0.300028	1.112889
O319	O	0.589532	-0.415932	1.077893
O320	O	0.922865	-0.082599	1.411226
O321	O	1.256198	0.250735	1.744560
H322	H	0.609627	-0.450374	1.110095
H323	H	0.942960	-0.117041	1.443428
H324	H	1.276294	0.216293	1.776761
H325	H	0.597084	-0.404604	0.584551
H326	H	0.930417	-0.071271	0.917884
H327	H	1.263751	0.262063	1.251218
H328	H	-0.179307	-0.404833	0.404720
H329	H	0.154027	-0.071500	0.738054
H330	H	0.487360	0.261833	1.071387
O331	O	0.709037	-0.236004	1.077997
O332	O	1.042370	0.097330	1.411330
O333	O	1.375703	0.430663	1.744663
H334	H	0.704207	-0.243249	1.133084
H335	H	1.037541	0.090085	1.466417
H336	H	1.370874	0.423418	1.799750
O337	O	0.030283	-0.192735	0.193292
O338	O	0.363616	0.140598	0.526625
O339	O	0.696949	0.473932	0.859959
H340	H	0.039303	-0.139629	0.205003
H341	H	0.372637	0.193704	0.538337
H342	H	0.705970	0.527038	0.871670
O343	O	0.386846	-0.236069	0.236400
O344	O	0.720179	0.097264	0.569733
O345	O	1.053513	0.430597	0.903067
H346	H	0.365484	-0.201675	0.266751
H347	H	0.698817	0.131659	0.600085
H348	H	1.032150	0.464992	0.933418
O349	O	0.709020	-0.930218	0.236428
O350	O	1.042354	-0.596885	0.569762
O351	O	1.375687	-0.263552	0.903095
H352	H	0.729023	-0.966668	0.206373
H353	H	1.062357	-0.633335	0.539706
H354	H	1.395690	-0.300002	0.873039
H355	H	0.597062	-0.712062	0.404713
H356	H	0.930395	-0.378728	0.738046
H357	H	1.263729	-0.045395	1.071380
O358	O	0.709015	-0.236108	0.722237
O359	O	1.042348	0.097225	1.055570
O360	O	1.375682	0.430558	1.388904
H361	H	0.688926	-0.201651	0.754436
H362	H	1.022259	0.131682	1.087769
H363	H	1.355592	0.465015	1.421103
H364	H	0.597028	-0.583816	0.404693
H365	H	0.930362	-0.250483	0.738026
H366	H	1.263695	0.082851	1.071359
H367	H	0.478210	-0.404776	0.404597
H368	H	0.811543	-0.071443	0.737930
H369	H	1.144877	0.261891	1.071263
O370	O	0.386900	-0.416284	0.415997
O371	O	0.720233	-0.082951	0.749330
O372	O	1.053567	0.250383	1.082664
H373	H	0.411106	-0.446440	0.446009
H374	H	0.744439	-0.113106	0.779342
H375	H	1.077773	0.220227	1.112676
H376	H	0.177291	-0.448139	0.447875
H377	H	0.510624	-0.114805	0.781208
H378	H	0.843958	0.218528	1.114541
O379	O	0.268602	-0.459581	0.459281
O380	O	0.601935	-0.126248	0.792614
O381	O	0.935268	0.207085	1.125947
H382	H	0.244408	-0.489711	0.489331
H383	H	0.577741	-0.156378	0.822665
H384	H	0.911074	0.176955	1.155998
H385	H	-0.179329	-0.247564	0.247932
H386	H	0.154004	0.085769	0.581265
H387	H	0.487338	0.419103	0.914598
O388	O	-0.087978	-0.416281	0.416131
O389	O	0.245355	-0.082947	0.749464
O390	O	0.578689	0.250386	1.082797
H391	H	-0.112171	-0.446416	0.446179
H392	H	0.221163	-0.113083	0.779512
H393	H	0.554496	0.220251	1.112846
H394	H	-0.094221	-0.247545	0.247923
H395	H	0.239112	0.085788	0.581257
H396	H	0.572445	0.419122	0.914590
O397	O	0.171042	-0.192700	0.193271
O398	O	0.504375	0.140633	0.526604
O399	O	0.837708	0.473967	0.859938
H400	H	0.195237	-0.162556	0.163236
H401	H	0.528570	0.170777	0.496569
H402	H	0.861904	0.504110	0.829902
H403	H	0.262356	-0.204148	0.204678
H404	H	0.595689	0.129185	0.538011
H405	H	0.929022	0.462519	0.871345
H406	H	0.478183	-0.247499	0.247817
H407	H	0.811516	0.085834	0.581150
H408	H	1.144849	0.419167	0.914484
H409	H	0.121649	-0.448144	0.447886
H410	H	0.454983	-0.114811	0.781219
H411	H	0.788316	0.218523	1.114552
H412	H	0.121597	-0.204181	0.204692
H413	H	0.454931	0.129152	0.538025
H414	H	0.788264	0.462485	0.871358
O415	O	0.030337	-0.459599	0.459327
O416	O	0.363670	-0.126265	0.792660
O417	O	0.697003	0.207068	1.125993
H418	H	-0.006230	-0.452309	0.452074
H419	H	0.327104	-0.118975	0.785408
H420	H	0.660437	0.214358	1.118741
