data_functionalizedCrystal
_audit_creation_method	'MofGen! by Chris Wilmer'
_symmetry_space_group_name_H-M	'P1'
_symmetry_Int_Tables_number	1
_symmetry_cell_setting	triclinic
loop_
_symmetry_equiv_pos_as_xyz
  x,y,z
_cell_length_a	14.044220
_cell_length_b	17.038272
_cell_length_c	13.101039
_cell_angle_alpha	93.604737
_cell_angle_beta	86.340132
_cell_angle_gamma	92.150217
loop_
_atom_site_label
_atom_site_type_symbol
_atom_site_fract_x
_atom_site_fract_y
_atom_site_fract_z
O1	O	1.277881	0.185592	-0.085106
O2	O	1.001361	0.178751	-0.085132
O3	O	1.137977	0.068241	-0.085111
O4	O	1.141265	0.296101	-0.085127
O5	O	1.128176	0.076185	0.085317
O6	O	0.991560	0.186694	0.085296
O7	O	1.268080	0.193535	0.085322
Zn8	Zn	1.128264	0.191376	0.112368
Zn9	Zn	1.141177	0.180910	-0.112178
O10	O	1.131464	0.304045	0.085301
C11	C	0.960905	0.179728	0.000079
C12	C	0.854960	0.170796	0.000069
C13	C	0.660980	0.154468	0.000091
C14	C	0.608455	0.217813	0.000090
C15	C	0.500518	0.208729	0.000102
C16	C	0.768927	0.163552	0.000079
C17	C	1.130087	0.042876	0.000103
C18	C	1.121168	-0.044541	0.000101
C19	C	1.203056	-0.088926	0.000110
C20	C	1.194670	-0.171064	0.000100
C21	C	1.104396	-0.208815	0.000088
C22	C	1.022502	-0.164424	0.000076
C23	C	1.030889	-0.082288	0.000079
C24	C	1.074767	-0.456646	0.000071
C25	C	1.066386	-0.538788	0.000071
C26	C	1.238555	-0.545423	0.000093
C27	C	1.246934	-0.463285	0.000102
C28	C	1.165040	-0.418901	0.000085
C29	C	1.095822	-0.292773	0.000080
C30	C	1.173615	-0.334945	0.000085
C31	C	1.308536	0.192558	0.000109
C32	C	1.414482	0.201490	0.000112
C33	C	1.139354	0.329410	0.000085
C34	C	1.148273	0.416827	0.000080
N35	N	1.119458	0.198518	0.265616
N36	N	1.149990	0.173762	-0.265426
C37	C	1.107478	0.208243	0.474656
C38	C	1.161967	0.164040	0.525540
C39	C	1.155301	0.169451	0.641858
C40	C	1.114143	0.202833	0.358328
H41	H	0.644550	0.278868	0.000081
C42	C	1.284751	-0.219884	0.000112
C43	C	1.351825	-0.207210	0.088625
C44	C	1.441912	-0.256028	0.088636
C45	C	1.464925	-0.317521	0.000134
C46	C	1.397850	-0.330199	-0.088386
C47	C	1.307763	-0.281380	-0.088396
H48	H	1.334791	-0.161686	0.154145
H49	H	1.491566	-0.246643	0.154164
H50	H	1.531613	-0.353659	0.000141
H51	H	1.414884	-0.375722	-0.153906
H52	H	1.258109	-0.290765	-0.153924
C53	C	1.037703	0.264861	0.533808
C54	C	1.030384	0.269706	0.651804
C55	C	0.960613	0.326327	0.710970
C56	C	0.898161	0.378103	0.652140
C57	C	0.905479	0.373260	0.534137
C58	C	0.975249	0.316639	0.474972
H59	H	1.076616	0.231377	0.695360
H60	H	0.955197	0.329912	0.798323
H61	H	0.846513	0.420017	0.695938
H62	H	0.859247	0.411589	0.490582
H63	H	0.980666	0.313054	0.387618
C64	C	0.612227	0.071991	0.000091
C65	C	0.502719	0.062905	0.000094
C66	C	0.453953	-0.019572	0.000089
C67	C	0.514695	-0.092963	0.000081
C68	C	0.624209	-0.083880	0.000077
C69	C	0.672975	-0.001403	0.000082
H70	H	0.457749	0.117236	0.000101
H71	H	0.372883	-0.026295	0.000092
H72	H	0.478595	-0.154017	0.000077
H73	H	0.669179	-0.138210	0.000071
H74	H	0.754045	0.005321	0.000080
H75	H	1.276567	-0.058196	0.000126
H76	H	1.320445	-0.432554	0.000112
C77	C	0.984681	-0.407835	0.000071
C78	C	0.917591	-0.420517	-0.088426
C79	C	0.827499	-0.371702	-0.088421
C80	C	0.804497	-0.310206	0.000081
C81	C	0.871589	-0.297522	0.088584
C82	C	0.961681	-0.346336	0.088579
H83	H	0.934616	-0.466042	-0.153947
H84	H	0.777833	-0.381093	-0.153938
H85	H	0.737806	-0.274071	0.000085
H86	H	0.854564	-0.251996	0.154105
H87	H	1.011347	-0.336946	0.154096
C88	C	1.231760	0.107430	0.466384
C89	C	1.238367	0.101987	0.348384
C90	C	1.308159	0.045383	0.289222
C91	C	1.371345	-0.005778	0.348059
C92	C	1.364741	-0.000337	0.466066
C93	C	1.294948	0.056267	0.525228
H94	H	1.191591	0.139862	0.304823
H95	H	1.313048	0.041356	0.201865
H96	H	1.423010	-0.047680	0.304264
H97	H	1.411516	-0.038211	0.509627
H98	H	1.290059	0.060294	0.612585
H99	H	1.305228	-0.581568	0.000105
C100	C	0.940810	-0.033462	0.000073
C101	C	0.917808	0.028040	0.088567
C102	C	0.827727	0.076865	0.088555
C103	C	0.760647	0.064188	0.000048
C104	C	0.783647	0.002683	-0.088453
C105	C	0.873729	-0.046142	-0.088441
H106	H	0.967466	0.037427	0.154091
H107	H	0.810701	0.122395	0.154070
H108	H	0.693963	0.100331	0.000039
H109	H	0.733989	-0.006704	-0.153977
H110	H	0.890754	-0.091672	-0.153956
H111	H	0.992869	-0.569521	0.000078
H112	H	1.247118	-0.304206	0.000072
H113	H	1.022320	-0.323518	0.000073
H114	H	0.948998	-0.195167	0.000060
