data_functionalizedCrystal
_audit_creation_method	'MofGen! by Chris Wilmer'
_symmetry_space_group_name_H-M	'P1'
_symmetry_Int_Tables_number	1
_symmetry_cell_setting	triclinic
loop_
_symmetry_equiv_pos_as_xyz
  x,y,z
_cell_length_a	18.215407
_cell_length_b	18.215405
_cell_length_c	18.215399
_cell_angle_alpha	90.030551
_cell_angle_beta	90.019833
_cell_angle_gamma	90.025333
loop_
_atom_site_label
_atom_site_type_symbol
_atom_site_fract_x
_atom_site_fract_y
_atom_site_fract_z
Zn1	Zn	-1.125072	0.292983	-0.416103
Zn2	Zn	-0.791739	0.626316	-0.082769
Zn3	Zn	-0.458405	0.959650	0.250564
Zn4	Zn	-1.124980	0.416054	-0.293031
Zn5	Zn	-0.791647	0.749388	0.040303
Zn6	Zn	-0.458314	1.082721	0.373636
Zn7	Zn	-1.002005	0.293007	-0.293050
Zn8	Zn	-0.668671	0.626340	0.040283
Zn9	Zn	-0.335338	0.959674	0.373617
Zn10	Zn	-1.001970	0.416013	-0.416056
Zn11	Zn	-0.668637	0.749347	-0.082722
Zn12	Zn	-0.335304	1.082680	0.250611
O13	O	-1.063507	0.354514	-0.354560
O14	O	-0.730173	0.687848	-0.021226
O15	O	-0.396840	1.021181	0.312107
O16	O	-1.228044	0.309316	-0.399788
O17	O	-0.894711	0.642649	-0.066455
O18	O	-0.561377	0.975982	0.266878
O19	O	-1.108643	0.399759	-0.190049
O20	O	-0.775310	0.733092	0.143284
O21	O	-0.441977	1.066426	0.476618
O22	O	-1.018382	0.190020	-0.309401
O23	O	-0.685049	0.523353	0.023933
O24	O	-0.351716	0.856686	0.357266
O25	O	-1.227977	0.399736	-0.309368
O26	O	-0.894643	0.733069	0.023965
O27	O	-0.561310	1.066402	0.357299
O28	O	-1.108799	0.190002	-0.399807
O29	O	-0.775466	0.523335	-0.066474
O30	O	-0.442133	0.856669	0.266860
O31	O	-1.018293	0.309357	-0.190063
O32	O	-0.684960	0.642690	0.143270
O33	O	-0.351627	0.976023	0.476604
O34	O	-0.899016	0.309317	-0.309355
O35	O	-0.565682	0.642650	0.023978
O36	O	-0.232349	0.975984	0.357311
O37	O	-1.018324	0.399666	-0.519046
O38	O	-0.684991	0.732999	-0.185713
O39	O	-0.351657	1.066333	0.147621
O40	O	-0.898991	0.399689	-0.399727
O41	O	-0.565657	0.733023	-0.066394
O42	O	-0.232324	1.066356	0.266940
O43	O	-1.108766	0.309276	-0.519081
O44	O	-0.775433	0.642609	-0.185747
O45	O	-0.442100	0.975943	0.147586
O46	O	-1.108610	0.519033	-0.309322
O47	O	-0.775277	0.852366	0.024011
O48	O	-0.441944	1.185700	0.357344
O49	O	-1.018235	0.519003	-0.399708
O50	O	-0.684902	0.852336	-0.066375
O51	O	-0.351569	1.185670	0.266958
C52	C	-0.872301	0.354502	-0.354539
C53	C	-0.538967	0.687835	-0.021205
C54	C	-0.205634	1.021169	0.312128
C55	C	-0.790502	0.354514	-0.354547
C56	C	-0.457168	0.687848	-0.021214
C57	C	-0.123835	1.021181	0.312120
C58	C	-1.063429	0.545721	-0.354524
C59	C	-0.730096	0.879054	-0.021191
C60	C	-0.396762	1.212387	0.312142
C61	C	-1.063463	0.627520	-0.354534
C62	C	-0.730130	0.960853	-0.021200
C63	C	-0.396797	1.294186	0.312133
C64	C	-1.063552	0.354464	-0.546513
C65	C	-0.730218	0.687797	-0.213179
C66	C	-0.396885	1.021130	0.120154
C67	C	-1.063571	0.354442	-0.628312
C68	C	-0.730237	0.687775	-0.294978
C69	C	-0.396904	1.021109	0.038355
C70	C	-1.255460	0.354528	-0.354581
C71	C	-0.922126	0.687861	-0.021248
C72	C	-0.588793	1.021194	0.312085
C73	C	-1.337259	0.354533	-0.354591
C74	C	-1.003925	0.687867	-0.021257
C75	C	-0.670592	1.021200	0.312076
C76	C	-0.602314	0.401645	-0.401544
C77	C	-0.268981	0.734978	-0.068211
C78	C	0.064353	1.068312	0.265122
C79	C	-0.525455	0.401647	-0.401554
C80	C	-0.192122	0.734981	-0.068220
C81	C	0.141211	1.068314	0.265113
C82	C	-0.525452	0.307397	-0.307591
C83	C	-0.192118	0.640731	0.025742
C84	C	0.141215	0.974064	0.359076
C85	C	-0.602309	0.307392	-0.307586
C86	C	-0.268976	0.640725	0.025747
C87	C	0.064358	0.974058	0.359081
C88	C	-0.640738	0.354520	-0.354562
C89	C	-0.307405	0.687853	-0.021228
C90	C	0.025929	1.021186	0.312105
C91	C	-0.487022	0.354528	-0.354576
C92	C	-0.153689	0.687861	-0.021242
C93	C	0.179645	1.021194	0.312091
C94	C	-0.403688	0.354530	-0.354585
C95	C	-0.070355	0.687863	-0.021252
C96	C	0.262978	1.021196	0.312081
C97	C	-0.724077	0.354517	-0.354553
C98	C	-0.390744	0.687850	-0.021220
C99	C	-0.057410	1.021184	0.312113
C100	C	-1.063605	0.162561	-0.354611
C101	C	-0.730272	0.495895	-0.021278
C102	C	-0.396938	0.829228	0.312055
C103	C	-1.063647	0.080763	-0.354633
C104	C	-0.730313	0.414096	-0.021300
C105	C	-0.396980	0.747429	0.312033
C106	C	-1.110632	0.815705	-0.307556
C107	C	-0.777299	1.149038	0.025777
C108	C	-0.443965	1.482371	0.359110
C109	C	-1.110665	0.892563	-0.307574
C110	C	-0.777331	1.225897	0.025759
C111	C	-0.443998	1.559230	0.359092
C112	C	-1.016476	0.892572	-0.401616
C113	C	-0.683143	1.225905	-0.068283
C114	C	-0.349809	1.559239	0.265051
C115	C	-1.016447	0.815715	-0.401601
C116	C	-0.683114	1.149048	-0.068268
C117	C	-0.349781	1.482381	0.265065
C118	C	-1.063524	0.777283	-0.354567
C119	C	-0.730191	1.110616	-0.021234
C120	C	-0.396857	1.443950	0.312099
C121	C	-1.063586	0.930999	-0.354600
C122	C	-0.730252	1.264332	-0.021266
C123	C	-0.396919	1.597666	0.312067
C124	C	-1.063621	1.014333	-0.354619
C125	C	-0.730288	1.347666	-0.021286
C126	C	-0.396954	1.680999	0.312047
C127	C	-1.063490	0.693944	-0.354548
C128	C	-0.730157	1.027277	-0.021215
C129	C	-0.396823	1.360611	0.312118
C130	C	-1.110681	0.307332	-0.816525
C131	C	-0.777348	0.640665	-0.483191
C132	C	-0.444014	0.973999	-0.149858
C133	C	-1.110690	0.307311	-0.893384
C134	C	-0.777356	0.640644	-0.560050
C135	C	-0.444023	0.973977	-0.226717
C136	C	-1.016513	0.401438	-0.893336
C137	C	-0.683179	0.734772	-0.560003
C138	C	-0.349846	1.068105	-0.226670
C139	C	-1.016501	0.401455	-0.816479
C140	C	-0.683167	0.734789	-0.483146
C141	C	-0.349834	1.068122	-0.149812
C142	C	-1.063589	0.354403	-0.778075
C143	C	-0.730256	0.687737	-0.444742
C144	C	-0.396922	1.021070	-0.111409
C145	C	-1.063610	0.354365	-0.931791
C146	C	-0.730276	0.687698	-0.598458
C147	C	-0.396943	1.021031	-0.265125
C148	C	-1.063619	0.354342	-1.015125
C149	C	-0.730286	0.687675	-0.681792
C150	C	-0.396952	1.021009	-0.348458
C151	C	-1.063579	0.354425	-0.694736
C152	C	-0.730246	0.687759	-0.361403
C153	C	-0.396912	1.021092	-0.028070
C154	C	-1.063504	0.354512	-0.163353
C155	C	-0.730171	0.687845	0.169980
C156	C	-0.396838	1.021179	0.503313
C157	C	-1.063628	0.354326	-0.081555
C158	C	-0.730295	0.687660	0.251778
C159	C	-0.396961	1.020993	0.585112
H160	H	-0.633601	0.440018	-0.439797
H161	H	-0.300267	0.773351	-0.106464
H162	H	0.033066	1.106684	0.226870
C163	C	-1.162469	0.255574	-0.774279
C164	C	-0.829136	0.588907	-0.440946
C165	C	-0.495802	0.922240	-0.107613
H166	H	-1.155724	0.262329	-0.722999
H167	H	-0.822390	0.595662	-0.389665
H168	H	-0.489057	0.928995	-0.056332
H169	H	-1.151724	0.206124	-0.786889
H170	H	-0.818390	0.539458	-0.453555
H171	H	-0.485057	0.872791	-0.120222
H172	H	-1.211915	0.266347	-0.786883
H173	H	-0.878582	0.599680	-0.453549
H174	H	-0.545249	0.933014	-0.120216
C175	C	-1.162474	0.934828	-0.255855
C176	C	-0.829140	1.268161	0.077478
C177	C	-0.495807	1.601494	0.410811
H178	H	-1.155754	0.986106	-0.262602
H179	H	-0.822420	1.319439	0.070732
H180	H	-0.489087	1.652772	0.404065
H181	H	-1.151722	0.922274	-0.206398
H182	H	-0.818389	1.255608	0.126935
H183	H	-0.485055	1.588941	0.460268
H184	H	-1.211914	0.922184	-0.266668
H185	H	-0.878580	1.255518	0.066665
H186	H	-0.545247	1.588851	0.399998
C187	C	-0.483177	0.255569	-0.255914
C188	C	-0.149844	0.588902	0.077419
C189	C	0.183489	0.922236	0.410753
H190	H	-0.431900	0.262327	-0.262639
H191	H	-0.098567	0.595660	0.070694
H192	H	0.234766	0.928993	0.404028
H193	H	-0.495793	0.206133	-0.266767
H194	H	-0.162460	0.539467	0.066566
H195	H	0.170873	0.872800	0.399900
H196	H	-0.495752	0.266285	-0.206446
H197	H	-0.162418	0.599619	0.126887
H198	H	0.170915	0.932952	0.460221
C199	C	-0.964688	0.934849	-0.453341
C200	C	-0.631355	1.268183	-0.120008
C201	C	-0.298022	1.601516	0.213325
H202	H	-0.971445	0.986126	-0.446612
H203	H	-0.638112	1.319459	-0.113279
H204	H	-0.304779	1.652792	0.220055
H205	H	-0.975419	0.922211	-0.502797
H206	H	-0.642086	1.255545	-0.169464
H207	H	-0.308753	1.588878	0.163870
H208	H	-0.915242	0.922299	-0.442513
H209	H	-0.581909	1.255632	-0.109179
H210	H	-0.248575	1.588966	0.224154
C211	C	-0.964625	0.773448	-0.453315
C212	C	-0.631292	1.106781	-0.119981
C213	C	-0.297958	1.440115	0.213352
H214	H	-0.936585	0.807343	-0.481321
H215	H	-0.603251	1.140676	-0.147988
H216	H	-0.269918	1.474010	0.185346
H217	H	-0.992747	0.743419	-0.485400
H218	H	-0.659413	1.076753	-0.152067
H219	H	-0.326080	1.410086	0.181267
H220	H	-0.932564	0.743513	-0.425121
H221	H	-0.599231	1.076846	-0.091787
H222	H	-0.265898	1.410180	0.241546
C223	C	-1.162421	0.773432	-0.255829
C224	C	-0.829087	1.106765	0.077505
C225	C	-0.495754	1.440099	0.410838
H226	H	-1.190486	0.807325	-0.227839
H227	H	-0.857152	1.140659	0.105494
H228	H	-0.523819	1.473992	0.438828
H229	H	-1.134282	0.743495	-0.223729
H230	H	-0.800948	1.076828	0.109605
H231	H	-0.467615	1.410162	0.442938
H232	H	-1.194459	0.743406	-0.284012
H233	H	-0.861126	1.076739	0.049321
H234	H	-0.527793	1.410072	0.382654
H235	H	-1.149035	0.268979	-0.924686
H236	H	-0.815702	0.602313	-0.591353
H237	H	-0.482369	0.935646	-0.258019
C238	C	-0.964726	0.453198	-0.935583
C239	C	-0.631393	0.786531	-0.602250
C240	C	-0.298060	1.119864	-0.268916
H241	H	-0.971483	0.446452	-0.986863
H242	H	-0.638149	0.779785	-0.653530
H243	H	-0.304816	1.113119	-0.320197
H244	H	-0.915282	0.442431	-0.922983
H245	H	-0.581949	0.775765	-0.589650
H246	H	-0.248615	1.109098	-0.256316
H247	H	-0.975478	0.502649	-0.922972
H248	H	-0.642145	0.835983	-0.589638
H249	H	-0.308812	1.169316	-0.256305
H250	H	-0.494174	0.440020	-0.439813
H251	H	-0.160840	0.773354	-0.106480
H252	H	0.172493	1.106687	0.226854
H253	H	-0.633595	0.269012	-0.269327
H254	H	-0.300262	0.602346	0.064006
H255	H	0.033072	0.935679	0.397340
C256	C	-0.964702	0.453241	-0.774182
C257	C	-0.631368	0.786575	-0.440848
C258	C	-0.298035	1.119908	-0.107515
H259	H	-0.936668	0.481270	-0.808060
H260	H	-0.603335	0.814603	-0.474727
H261	H	-0.270001	1.147936	-0.141393
H262	H	-0.932645	0.425098	-0.744200
H263	H	-0.599312	0.758431	-0.410866
H264	H	-0.265979	1.091765	-0.077533
H265	H	-0.992843	0.485315	-0.744198
H266	H	-0.659510	0.818648	-0.410864
H267	H	-0.326176	1.151981	-0.077531
