data_functionalizedCrystal
_audit_creation_method	'MofGen! by Chris Wilmer'
_symmetry_space_group_name_H-M	'P1'
_symmetry_Int_Tables_number	1
_symmetry_cell_setting	triclinic
loop_
_symmetry_equiv_pos_as_xyz
  x,y,z
_cell_length_a	15.455313
_cell_length_b	16.992694
_cell_length_c	16.992695
_cell_angle_alpha	90.668223
_cell_angle_beta	92.847427
_cell_angle_gamma	87.142206
loop_
_atom_site_label
_atom_site_type_symbol
_atom_site_fract_x
_atom_site_fract_y
_atom_site_fract_z
O1	O	0.072023	-1.054080	-0.163694
O2	O	0.572023	-0.554080	0.336306
O3	O	0.072048	-0.825681	-0.161862
O4	O	0.572048	-0.325681	0.338138
O5	O	0.072029	-0.938965	-0.048579
O6	O	0.572029	-0.438965	0.451421
O7	O	0.072042	-0.940797	-0.276978
O8	O	0.572042	-0.440797	0.223022
O9	O	-0.072232	-0.932485	-0.055028
O10	O	0.427768	-0.432485	0.444972
O11	O	-0.072213	-0.819202	-0.168312
O12	O	0.427787	-0.319202	0.331688
O13	O	-0.072238	-1.047601	-0.170144
O14	O	0.427762	-0.547601	0.329856
Cu15	Cu	-0.085398	-0.932809	-0.169817
Cu16	Cu	0.414602	-0.432809	0.330183
Cu17	Cu	0.085207	-0.940473	-0.162189
Cu18	Cu	0.585207	-0.440473	0.337811
O19	O	-0.072219	-0.934317	-0.283428
O20	O	0.427781	-0.434317	0.216572
C21	C	-0.000079	-0.793081	-0.162731
C22	C	0.499921	-0.293081	0.337269
C23	C	-0.000070	-0.705597	-0.155702
C24	C	0.499930	-0.205597	0.344298
N25	N	-0.205392	-0.927425	-0.175181
N26	N	0.294608	-0.427425	0.324819
C27	C	-0.250795	-0.975571	-0.127074
C28	C	0.249205	-0.475571	0.372926
C29	C	-0.341602	-0.971507	-0.131139
C30	C	0.158398	-0.471507	0.368861
C31	C	-0.387005	-0.919301	-0.183315
C32	C	0.112995	-0.419301	0.316685
C33	C	-0.341596	-0.871149	-0.231424
C34	C	0.158404	-0.371149	0.268576
C35	C	-0.250791	-0.875210	-0.227355
C36	C	0.249209	-0.375210	0.272645
C37	C	-0.658584	-0.901772	-0.200858
C38	C	-0.158584	-0.401772	0.299142
C39	C	-0.749395	-0.897717	-0.204926
C40	C	-0.249395	-0.397717	0.295074
C41	C	-0.749395	-0.998074	-0.104639
C42	C	-0.249395	-0.498074	0.395361
C43	C	-0.658588	-1.002133	-0.100578
C44	C	-0.158588	-0.502133	0.399422
C45	C	-0.613187	-0.953979	-0.148684
C46	C	-0.113187	-0.453979	0.351316
N47	N	-0.479825	-0.915147	-0.187473
N48	N	0.020175	-0.415147	0.312527
N49	N	-0.520369	-0.958129	-0.144522
N50	N	-0.020369	-0.458129	0.355478
C51	C	-0.000102	-0.933369	-0.022443
C52	C	0.499898	-0.433369	0.477557
C53	C	-0.000101	-0.926341	0.065041
C54	C	0.499899	-0.426341	0.565041
N55	N	0.205202	-0.945863	-0.156819
N56	N	0.705202	-0.445863	0.343181
C57	C	-0.000109	-1.080201	-0.169275
C58	C	0.499891	-0.580201	0.330725
C59	C	-0.000113	-1.167685	-0.176304
C60	C	0.499887	-0.667685	0.323696
C61	C	-0.000066	-0.659607	-0.223520
C62	C	0.499934	-0.159607	0.276480
C63	C	-0.000079	-0.577405	-0.216911
C64	C	0.499921	-0.077405	0.283089
C65	C	-0.000088	-0.541197	-0.142484
C66	C	0.499912	-0.041197	0.357516
C67	C	-0.000094	-0.587193	-0.074661
C68	C	0.499906	-0.087193	0.425339
C69	C	-0.000088	-0.669393	-0.081271
C70	C	0.499912	-0.169393	0.418729
C71	C	-0.000113	-0.295881	-0.115091
C72	C	0.499887	0.204119	0.384909
C73	C	-0.000116	-0.213676	-0.108486
C74	C	0.499884	0.286324	0.391514
C75	C	-0.000103	-0.203893	-0.250737
C76	C	0.499897	0.296107	0.249263
C77	C	-0.000091	-0.286095	-0.257340
C78	C	0.499909	0.213905	0.242660
C79	C	-0.000102	-0.332084	-0.189517
C80	C	0.499898	0.167916	0.310483
N81	N	-0.000098	-0.457174	-0.135727
N82	N	0.499902	0.042826	0.364273
N83	N	-0.000098	-0.416105	-0.196275
N84	N	0.499902	0.083895	0.303725
C85	C	-0.000087	-0.939913	-0.309563
C86	C	0.499913	-0.439913	0.190437
C87	C	-0.000082	-0.946942	-0.397047
C88	C	0.499918	-0.446942	0.102953
C89	C	-0.000109	-0.994158	0.111032
C90	C	0.499891	-0.494158	0.611032
C91	C	-0.000100	-0.987550	0.193233
C92	C	0.499900	-0.487550	0.693233
C93	C	-0.000089	-0.913123	0.229442
C94	C	0.499911	-0.413123	0.729442
C95	C	-0.000078	-0.845300	0.183445
C96	C	0.499922	-0.345300	0.683445
C97	C	-0.000081	-0.851910	0.101246
C98	C	0.499919	-0.351910	0.601246
C99	C	-0.000074	-0.885729	0.474757
C100	C	0.499926	-0.385729	0.974757
C101	C	-0.000074	-0.879124	0.556962
C102	C	0.499926	-0.379124	1.056962
C103	C	-0.000094	-1.021375	0.566744
C104	C	0.499906	-0.521375	1.066744
C105	C	-0.000102	-1.027977	0.484543
C106	C	0.499898	-0.527977	0.984543
C107	C	-0.000087	-0.960155	0.438554
C108	C	0.499913	-0.460155	0.938554
N109	N	-0.000082	-0.906366	0.313464
N110	N	0.499918	-0.406366	0.813464
N111	N	-0.000087	-0.966913	0.354533
N112	N	0.499913	-0.466913	0.854533
H113	H	-0.213834	-1.018087	-0.084591
H114	H	0.286166	-0.518087	0.415409
H115	H	-0.000096	-0.166440	-0.305954
H116	H	0.499904	0.333560	0.194046
H117	H	-0.000123	-0.184198	-0.047876
H118	H	0.499877	0.315802	0.452124
H119	H	-0.000090	-0.706838	-0.026046
H120	H	0.499910	-0.206838	0.473954
H121	H	-0.000114	-0.557705	-0.014061
H122	H	0.499886	-0.057705	0.485939
H123	H	-0.621622	-1.044644	-0.058092
H124	H	-0.121622	-0.544644	0.441908
H125	H	-0.000124	-1.054764	0.081557
H126	H	0.499876	-0.554764	0.581557
Cl127	Cl	-0.806474	-1.058604	-0.044164
Cl128	Cl	-0.306474	-0.558604	0.455836
Cl129	Cl	-0.806468	-0.832080	-0.270526
Cl130	Cl	-0.306468	-0.332080	0.229474
Cl131	Cl	-0.000069	-0.519592	-0.302172
Cl132	Cl	0.499931	-0.019592	0.197828
H133	H	-0.000112	-1.088584	0.455068
H134	H	0.499888	-0.588584	0.955068
Cl135	Cl	-0.000125	-0.353686	-0.029827
Cl136	Cl	0.499875	0.146314	0.470173
H137	H	-0.000109	-1.042774	0.230675
H138	H	0.499891	-0.542774	0.730675
Cl139	Cl	-0.000111	-1.106631	0.624563
Cl140	Cl	0.499889	-0.606631	1.124563
H141	H	-0.000079	-0.818513	0.586440
H142	H	0.499921	-0.318513	1.086440
Cl143	Cl	-0.000052	-0.800465	0.416953
Cl144	Cl	0.499948	-0.300465	0.916953
H145	H	-0.000074	-0.315570	-0.317946
H146	H	0.499926	0.184430	0.182054
Cl147	Cl	-0.601514	-0.841240	-0.261336
Cl148	Cl	-0.101514	-0.341240	0.238664
Cl149	Cl	-0.000067	-0.766649	0.043429
Cl150	Cl	0.499933	-0.266649	0.543429
H151	H	-0.000063	-0.784700	0.212933
H152	H	0.499937	-0.284700	0.712933
H153	H	-0.378568	-1.010711	-0.091966
H154	H	0.121432	-0.510711	0.408034
Cl155	Cl	-0.193714	-0.814678	-0.287832
Cl156	Cl	0.306286	-0.314678	0.212168
Cl157	Cl	-0.398673	-0.805513	-0.297014
Cl158	Cl	0.101327	-0.305513	0.202986
H159	H	-0.000058	-0.689081	-0.284126
H160	H	0.499942	-0.189081	0.215874
