data_functionalizedCrystal
_audit_creation_method	'MofGen! by Chris Wilmer'
_symmetry_space_group_name_H-M	'P1'
_symmetry_Int_Tables_number	1
_symmetry_cell_setting	triclinic
loop_
_symmetry_equiv_pos_as_xyz
  x,y,z
_cell_length_a	16.959455
_cell_length_b	18.101395
_cell_length_c	16.959447
_cell_angle_alpha	90.029468
_cell_angle_beta	90.014322
_cell_angle_gamma	90.028051
loop_
_atom_site_label
_atom_site_type_symbol
_atom_site_fract_x
_atom_site_fract_y
_atom_site_fract_z
Zn1	Zn	1.208323	-0.294875	0.446913
Zn2	Zn	1.708323	0.205125	0.946913
Zn3	Zn	1.208220	-0.418728	0.314737
Zn4	Zn	1.708220	0.081272	0.814737
Zn5	Zn	1.076152	-0.294899	0.314751
Zn6	Zn	1.576152	0.205101	0.814751
Zn7	Zn	1.076091	-0.418673	0.446875
Zn8	Zn	1.576091	0.081327	0.946875
O9	O	1.142196	-0.356794	0.380819
O10	O	1.642196	0.143206	0.880819
O11	O	1.318920	-0.311318	0.429390
O12	O	1.818920	0.188682	0.929390
O13	O	1.190683	-0.402335	0.204128
O14	O	1.690683	0.097665	0.704128
O15	O	1.093753	-0.191263	0.332304
O16	O	1.593753	0.308737	0.832304
O17	O	1.318845	-0.402312	0.332280
O18	O	1.818845	0.097688	0.832280
O19	O	1.190859	-0.191246	0.429404
O20	O	1.690859	0.308754	0.929404
O21	O	1.093653	-0.311358	0.204138
O22	O	1.593653	0.188642	0.704138
O23	O	0.965533	-0.311304	0.332267
O24	O	1.465533	0.188696	0.832267
O25	O	1.093649	-0.402218	0.557491
O26	O	1.593649	0.097782	1.057491
O27	O	0.965488	-0.402241	0.429339
O28	O	1.465488	0.097759	0.929339
O29	O	1.190800	-0.311264	0.557519
O30	O	1.690800	0.188736	1.057519
O31	O	1.190624	-0.522354	0.332243
O32	O	1.690624	-0.022354	0.832243
O33	O	1.093550	-0.522313	0.429325
O34	O	1.593550	-0.022313	0.929325
C35	C	0.936830	-0.356769	0.380801
C36	C	1.436830	0.143231	0.880801
C37	C	0.848974	-0.356777	0.380812
C38	C	1.348974	0.143223	0.880812
C39	C	0.477497	-0.309404	0.330380
C40	C	0.977497	0.190596	0.830380
C41	C	0.477499	-0.404244	0.431304
C42	C	0.977499	0.095756	0.931304
C43	C	0.560045	-0.404234	0.431299
C44	C	1.060045	0.095766	0.931299
C45	C	0.601321	-0.356808	0.380833
C46	C	1.101321	0.143192	0.880833
C47	C	0.560050	-0.309394	0.330372
C48	C	1.060050	0.190606	0.830372
C49	C	0.601321	-0.451653	0.481754
C50	C	1.101321	0.048347	0.981754
C51	C	0.683872	-0.451644	0.481750
C52	C	1.183872	0.048356	0.981750
C53	C	0.725150	-0.404215	0.431287
C54	C	1.225150	0.095785	0.931287
C55	C	0.683874	-0.356798	0.380825
C56	C	1.183874	0.143202	0.880825
C57	C	0.725150	-0.309373	0.330359
C58	C	1.225150	0.190627	0.830359
C59	C	0.683876	-0.261951	0.279899
C60	C	1.183876	0.238049	0.779899
C61	C	0.601327	-0.261964	0.279909
C62	C	1.101327	0.238036	0.779909
C63	C	0.807698	-0.404202	0.431278
C64	C	1.307698	0.095798	0.931278
C65	C	0.807703	-0.309362	0.330351
C66	C	1.307703	0.190638	0.830351
C67	C	1.142091	-0.549204	0.380796
C68	C	1.642091	-0.049204	0.880796
C69	C	1.142118	-0.631518	0.380812
C70	C	1.642118	-0.131518	0.880812
C71	C	1.142291	-0.930609	0.380855
C72	C	1.642291	-0.430609	0.880855
C73	C	1.081356	-0.899289	0.442088
C74	C	1.581356	-0.399289	0.942088
C75	C	1.081066	-0.813671	0.441896
C76	C	1.581066	-0.313671	0.941896
C77	C	1.142205	-0.782227	0.380834
C78	C	1.642205	-0.282227	0.880834
C79	C	1.119658	-0.813380	0.297530
C80	C	1.619658	-0.313380	0.797530
C81	C	1.119266	-0.899025	0.297896
C82	C	1.619266	-0.399025	0.797896
C83	C	1.225907	-0.898956	0.402193
C84	C	1.725907	-0.398956	0.902193
C85	C	1.225415	-0.813305	0.404020
C86	C	1.725415	-0.313305	0.904020
C87	C	1.142158	-0.698367	0.380818
C88	C	1.642158	-0.198367	0.880818
C89	C	1.142337	-1.014469	0.380866
C90	C	1.642337	-0.514469	0.880866
C91	C	1.348365	-0.356819	0.380838
C92	C	1.848365	0.143181	0.880838
C93	C	1.436221	-0.356830	0.380846
C94	C	1.936221	0.143170	0.880846
C95	C	1.142229	-0.356732	0.586987
C96	C	1.642229	0.143268	1.086987
C97	C	1.142243	-0.356706	0.674844
C98	C	1.642243	0.143294	1.174844
C99	C	1.142324	-0.163632	0.380860
C100	C	1.642324	0.336368	0.880860
C101	C	1.142379	-0.081318	0.380877
C102	C	1.642379	0.418682	0.880877
C103	C	1.142209	-0.356801	0.175453
C104	C	1.642209	0.143199	0.675453
C105	C	1.142348	-0.356619	0.087597
C106	C	1.642348	0.143381	0.587597
C107	C	1.091756	-0.403984	1.046308
C108	C	1.591756	0.096016	1.546308
C109	C	1.192920	-0.309273	1.046332
C110	C	1.692920	0.190727	1.546332
C111	C	1.192899	-0.309289	0.963786
C112	C	1.692899	0.190711	1.463786
C113	C	1.142306	-0.356653	0.922497
C114	C	1.642306	0.143347	1.422497
C115	C	1.091735	-0.404002	0.963754
C116	C	1.591735	0.095998	1.463754
C117	C	1.243475	-0.261946	0.922523
C118	C	1.743475	0.238054	1.422523
C119	C	1.243456	-0.261960	0.839972
C120	C	1.743456	0.238040	1.339972
C121	C	1.192859	-0.309322	0.798681
C122	C	1.692859	0.190678	1.298681
C123	C	1.142285	-0.356672	0.839944
C124	C	1.642285	0.143328	1.339944
C125	C	1.091693	-0.404037	0.798655
C126	C	1.591693	0.095963	1.298655
C127	C	1.041115	-0.451384	0.839915
C128	C	1.541115	0.048616	1.339915
C129	C	1.041138	-0.451364	0.922464
C130	C	1.541138	0.048636	1.422464
C131	C	1.192836	-0.309342	0.716133
C132	C	1.692836	0.190658	1.216133
C133	C	1.091672	-0.404055	0.716101
C134	C	1.591672	0.095945	1.216101
H135	H	0.567709	-0.490269	0.522835
H136	H	1.067709	0.009731	1.022835
Cl137	Cl	1.296003	-0.930242	0.333351
Cl138	Cl	1.796003	-0.430242	0.833351
Cl139	Cl	0.425609	-0.463877	0.494726
Cl140	Cl	0.925609	0.036123	0.994726
Cl141	Cl	0.986250	-0.932629	0.420558
Cl142	Cl	1.486250	-0.432629	0.920558
Cl143	Cl	0.985376	-0.782130	0.420077
Cl144	Cl	1.485376	-0.282130	0.920077
Cl145	Cl	0.859586	-0.249734	0.266908
Cl146	Cl	1.359586	0.250266	0.766908
Cl147	Cl	1.102840	-0.781144	0.537264
Cl148	Cl	1.602840	-0.281144	1.037264
Cl149	Cl	1.184806	-0.931021	0.225050
Cl150	Cl	1.684806	-0.431021	0.725050
Cl151	Cl	0.735752	-0.511256	0.545186
Cl152	Cl	1.235752	-0.011256	1.045186
H153	H	1.284640	-0.223407	0.806384
H154	H	1.784640	0.276593	1.306384
Cl155	Cl	1.026288	-0.780367	0.269121
Cl156	Cl	1.526288	-0.280367	0.769121
H157	H	1.058143	-0.919066	0.279821
H158	H	1.558143	-0.419066	0.779821
H159	H	0.999926	-0.489951	0.806287
H160	H	1.499926	0.010049	1.306287
H161	H	1.050574	-0.442530	1.079906
H162	H	1.550574	0.057470	1.579906
Cl163	Cl	0.549436	-0.202356	0.216480
Cl164	Cl	1.049436	0.297644	0.716480
H165	H	1.162645	-0.793014	0.250663
H166	H	1.662645	-0.293014	0.750663
H167	H	1.095322	-0.919836	0.504057
H168	H	1.595322	-0.419836	1.004057
H169	H	0.717493	-0.223341	0.238806
H170	H	1.217493	0.276659	0.738806
Cl171	Cl	1.257645	-0.932221	0.494382
Cl172	Cl	1.757645	-0.432221	0.994382
H173	H	0.443888	-0.270793	0.289299
H174	H	0.943888	0.229207	0.789299
H175	H	1.242417	-0.792941	0.465328
H176	H	1.742417	-0.292941	0.965328
H177	H	0.841299	-0.442814	0.472359
H178	H	1.341299	0.057186	0.972359
Cl179	Cl	1.299221	-0.780248	0.340187
Cl180	Cl	1.799221	-0.280248	0.840187
Cl181	Cl	1.256523	-0.249738	1.098239
Cl182	Cl	1.756523	0.250262	1.598239
H183	H	1.050466	-0.442619	0.682489
H184	H	1.550466	0.057381	1.182489
Cl185	Cl	1.256420	-0.249830	0.664266
Cl186	Cl	1.756420	0.250170	1.164266
H187	H	0.999962	-0.489914	0.956066
H188	H	1.499962	0.010086	1.456066
Cl189	Cl	1.307078	-0.202411	0.974432
Cl190	Cl	1.807078	0.297589	1.474432
