data_functionalizedCrystal
_audit_creation_method	'MofGen! by Chris Wilmer'
_symmetry_space_group_name_H-M	'P1'
_symmetry_Int_Tables_number	1
_symmetry_cell_setting	triclinic
loop_
_symmetry_equiv_pos_as_xyz
  x,y,z
_cell_length_a	12.759401
_cell_length_b	12.827892
_cell_length_c	12.759393
_cell_angle_alpha	89.969144
_cell_angle_beta	89.981433
_cell_angle_gamma	90.014436
loop_
_atom_site_label
_atom_site_type_symbol
_atom_site_fract_x
_atom_site_fract_y
_atom_site_fract_z
Zn1	Zn	1.606250	-0.415998	-0.593988
Zn2	Zn	1.606143	-0.590779	-0.418311
Zn3	Zn	1.430552	-0.416049	-0.418328
Zn4	Zn	1.430539	-0.590695	-0.593952
O5	O	1.518371	-0.503380	-0.506145
O6	O	1.753257	-0.439197	-0.570693
O7	O	1.582811	-0.567657	-0.271292
O8	O	1.453910	-0.269807	-0.441652
O9	O	1.753178	-0.567607	-0.441623
O10	O	1.582994	-0.269769	-0.570709
O11	O	1.453805	-0.439284	-0.271304
O12	O	1.283530	-0.439203	-0.441616
O13	O	1.453887	-0.567464	-0.740978
O14	O	1.283520	-0.567514	-0.570647
O15	O	1.582981	-0.439115	-0.741005
O16	O	1.582798	-0.737004	-0.441588
O17	O	1.453782	-0.736942	-0.570631
C18	C	1.245404	-0.503356	-0.506130
C19	C	1.128627	-0.503370	-0.506149
C20	C	1.073799	-0.436633	-0.573460
C21	C	0.964075	-0.436653	-0.573466
C22	C	0.964016	-0.570157	-0.438848
C23	C	1.073738	-0.570131	-0.438837
C24	C	1.073832	-0.359559	-0.651183
C25	C	0.964108	-0.359579	-0.651190
C26	C	1.518305	-0.774890	-0.506126
C27	C	1.518373	-0.891043	-0.506153
C28	C	1.582290	-0.942824	-0.442370
C29	C	1.582362	-1.062874	-0.442396
C30	C	1.792404	-0.503406	-0.506160
C31	C	1.909181	-0.503416	-0.506167
C32	C	1.518445	-0.503275	-0.780178
C33	C	1.518476	-0.503230	-0.896955
C34	C	1.518466	-0.230810	-0.506186
C35	C	1.518506	-0.114657	-0.506204
C36	C	1.585705	-0.436392	-0.951833
C37	C	1.585730	-0.436354	-1.061557
C38	C	1.451294	-0.570001	-1.061516
C39	C	1.451265	-0.570033	-0.951794
C40	C	1.663323	-0.359235	-0.951857
C41	C	1.663348	-0.359198	-1.061581
C42	C	1.518358	-0.503410	-0.233177
C43	C	1.518530	-0.503160	-0.116401
H44	H	0.934363	-0.381357	-0.732526
F45	F	1.653754	-0.884605	-0.370971
H46	H	1.107897	-0.388635	-0.728422
H47	H	1.637080	-1.107404	-0.387786
F48	F	1.446970	-1.056463	-0.577580
F49	F	1.112746	-0.253729	-0.622883
F50	F	0.919609	-0.259050	-0.613281
F51	F	1.446921	-0.949262	-0.577563
H52	H	1.118375	-0.624465	-0.384017
F53	F	1.379696	-0.641156	-0.893392
H54	H	0.919313	-0.624511	-0.384046
H55	H	1.396571	-0.624387	-1.106179
H56	H	1.641556	-0.278305	-0.922100
F57	F	1.764322	-0.397154	-0.907365
H58	H	1.634235	-0.282301	-1.095628
H59	H	1.744719	-0.380875	-1.091360
