data_functionalizedCrystal
_audit_creation_method	'MofGen! by Chris Wilmer'
_symmetry_space_group_name_H-M	'P1'
_symmetry_Int_Tables_number	1
_symmetry_cell_setting	triclinic
loop_
_symmetry_equiv_pos_as_xyz
  x,y,z
_cell_length_a	19.188905
_cell_length_b	23.532407
_cell_length_c	18.266242
_cell_angle_alpha	90.009798
_cell_angle_beta	90.016065
_cell_angle_gamma	82.991616
loop_
_atom_site_label
_atom_site_type_symbol
_atom_site_fract_x
_atom_site_fract_y
_atom_site_fract_z
O1	O	0.925934	0.071033	0.061009
O2	O	1.425934	0.571033	0.561009
O3	O	0.722589	0.080619	0.060985
O4	O	1.222589	0.580619	0.560985
O5	O	0.830393	-0.007093	0.060984
O6	O	1.330393	0.492907	0.560984
O7	O	0.818130	0.158745	0.061010
O8	O	1.318130	0.658745	0.561010
O9	O	0.830375	-0.007095	-0.060778
O10	O	1.330375	0.492905	0.439222
O11	O	0.722571	0.080617	-0.060777
O12	O	1.222571	0.580617	0.439223
O13	O	0.925915	0.071031	-0.060753
O14	O	1.425915	0.571031	0.439247
Zn15	Zn	0.824240	0.075823	-0.080097
Zn16	Zn	1.324240	0.575823	0.419903
Zn17	Zn	0.824264	0.075827	0.080329
Zn18	Zn	1.324264	0.575827	0.580329
O19	O	0.818111	0.158743	-0.060752
O20	O	1.318111	0.658743	0.439248
C21	C	0.696570	0.080310	0.000101
C22	C	1.196570	0.580310	0.500101
C23	C	0.619067	0.079385	0.000091
C24	C	1.119067	0.579385	0.500091
C25	C	0.582687	0.078942	0.066465
C26	C	1.082687	0.578942	0.566465
C27	C	0.509866	0.078067	0.066474
C28	C	1.009866	0.578067	0.566474
C29	C	0.473430	0.077623	0.000105
C30	C	0.973430	0.577623	0.500105
C31	C	0.509819	0.078070	-0.066278
C32	C	1.009819	0.578070	0.433722
C33	C	0.582638	0.078951	-0.066285
C34	C	1.082638	0.578951	0.433715
N35	N	0.364511	0.043830	-0.049292
N36	N	0.864511	0.543830	0.450708
N37	N	0.295336	0.042992	-0.049281
N38	N	0.795336	0.542992	0.450719
C39	C	0.254032	0.074970	0.000122
C40	C	0.754032	0.574970	0.500122
N41	N	0.284517	0.107811	0.049525
N42	N	0.784517	0.607811	0.549525
N43	N	0.353698	0.108647	0.049516
N44	N	0.853698	0.608647	0.549516
C45	C	0.394471	0.076668	0.000105
C46	C	0.894471	0.576668	0.500105
C47	C	0.138691	0.073579	0.066511
C48	C	0.638691	0.573579	0.566511
C49	C	0.065868	0.072707	0.066517
C50	C	0.565868	0.572707	0.566517
C51	C	0.065824	0.072704	-0.066237
C52	C	0.565824	0.572704	0.433763
C53	C	0.138644	0.073582	-0.066241
C54	C	0.638644	0.573582	0.433759
C55	C	0.175074	0.074016	0.000135
C56	C	0.675074	0.574016	0.500135
C57	C	0.830072	-0.028311	0.000101
C58	C	1.330072	0.471689	0.500101
C59	C	0.829133	-0.091530	0.000096
C60	C	1.329133	0.408470	0.500096
C61	C	0.887040	-0.490514	0.000143
C62	C	1.387040	0.009486	0.500143
C63	C	0.886168	-0.549916	0.000148
C64	C	1.386168	-0.049916	0.500148
O65	O	0.939848	-0.586551	0.000181
O66	O	1.439848	-0.086551	0.500181
N67	N	0.822078	-0.572674	0.000140
N68	N	1.322078	-0.072674	0.500140
C69	C	0.758857	-0.536026	0.000134
C70	C	1.258857	-0.036026	0.500134
O71	O	0.704264	-0.560837	0.000128
O72	O	1.204264	-0.060837	0.500128
C73	C	0.759730	-0.476625	0.000134
C74	C	1.259730	0.023375	0.500134
C75	C	0.823824	-0.453871	0.000134
C76	C	1.323824	0.046129	0.500134
C77	C	0.951129	-0.467759	0.000144
C78	C	1.451129	0.032241	0.500144
C79	C	0.952000	-0.408362	0.000137
C80	C	1.452000	0.091638	0.500137
C81	C	0.888784	-0.371718	0.000129
C82	C	1.388784	0.128282	0.500129
C83	C	0.824696	-0.394473	0.000127
C84	C	1.324696	0.105527	0.500127
C85	C	0.696509	-0.439978	0.000133
C86	C	1.196509	0.060022	0.500133
C87	C	0.697388	-0.380574	0.000133
C88	C	1.197388	0.119426	0.500133
C89	C	0.761482	-0.357820	0.000134
C90	C	1.261482	0.142180	0.500134
C91	C	0.762351	-0.298432	0.000112
C92	C	1.262351	0.201568	0.500112
N93	N	0.826440	-0.275674	0.000120
N94	N	1.326440	0.224326	0.500120
C95	C	0.889657	-0.312317	0.000129
C96	C	1.389657	0.187683	0.500129
C97	C	0.757029	-0.660772	0.000136
C98	C	1.257029	-0.160772	0.500136
C99	C	0.756155	-0.720172	0.000131
C100	C	1.256155	-0.220172	0.500131
C101	C	0.883466	-0.734058	0.000146
C102	C	1.383466	-0.234058	0.500146
C103	C	0.884339	-0.674657	0.000146
C104	C	1.384339	-0.174657	0.500146
C105	C	0.821118	-0.638014	0.000144
C106	C	1.321118	-0.138014	0.500144
C107	C	0.891483	-0.187577	0.000114
C108	C	1.391483	0.312423	0.500114
C109	C	0.892350	-0.128173	0.000104
C110	C	1.392350	0.371827	0.500104
C111	C	0.765039	-0.114292	0.000092
C112	C	1.265039	0.385708	0.500092
C113	C	0.764172	-0.173691	0.000098
C114	C	1.264172	0.326309	0.500098
C115	C	0.827400	-0.210332	0.000111
C116	C	1.327400	0.289668	0.500111
O117	O	0.708699	-0.261762	0.000082
O118	O	1.208699	0.238238	0.500082
O119	O	0.944241	-0.287498	0.000144
O120	O	1.444241	0.212502	0.500144
C121	C	0.951935	0.071340	0.000133
C122	C	1.451935	0.571340	0.500133
C123	C	1.029437	0.072265	0.000147
C124	C	1.529437	0.572265	0.500147
C125	C	0.818433	0.179961	0.000132
C126	C	1.318433	0.679961	0.500132
C127	C	0.819372	0.243180	0.000143
C128	C	1.319372	0.743180	0.500143
N129	N	0.824229	0.075821	-0.189584
N130	N	1.324229	0.575821	0.310416
C131	C	0.866329	0.110277	-0.227876
C132	C	1.366329	0.610277	0.272124
C133	C	0.866340	0.110275	-0.304521
C134	C	1.366340	0.610275	0.195479
C135	C	0.824239	0.075824	-0.342871
C136	C	1.324239	0.575824	0.157129
C137	C	0.782137	0.041361	-0.304570
C138	C	1.282137	0.541361	0.195430
C139	C	0.782132	0.041360	-0.227927
C140	C	1.282132	0.541360	0.272073
N141	N	0.763095	0.074426	-0.463232
N142	N	1.263095	0.574426	0.036768
N143	N	0.763102	0.074431	-0.536040
N144	N	1.263102	0.574431	-0.036040
C145	C	0.824253	0.075826	-0.573794
C146	C	1.324253	0.575826	-0.073794
N147	N	0.885398	0.077228	-0.535989
N148	N	1.385398	0.577228	-0.035989
N149	N	0.885391	0.077226	-0.463174
N150	N	1.385391	0.577226	0.036826
C151	C	0.824240	0.075822	-0.425978
C152	C	1.324240	0.575822	0.074022
C153	C	0.866369	0.110282	-0.695193
C154	C	1.366369	0.610282	-0.195193
C155	C	0.866382	0.110276	-0.771839
C156	C	1.366382	0.610276	-0.271839
C157	C	0.782172	0.041366	-0.771886
C158	C	1.282172	0.541366	-0.271886
C159	C	0.782166	0.041369	-0.695242
C160	C	1.282166	0.541369	-0.195242
C161	C	0.824263	0.075830	-0.656899
C162	C	1.324263	0.575830	-0.156899
N163	N	0.824281	0.075825	0.189816
N164	N	1.324281	0.575825	0.689816
H165	H	0.480148	0.077710	-0.120316
H166	H	0.980148	0.577710	0.379684
H167	H	0.480239	0.077707	0.120526
H168	H	0.980239	0.577707	0.620526
H169	H	1.004192	-0.389841	0.000141
H170	H	1.504192	0.110159	0.500141
O171	O	0.030542	0.072300	-0.130774
O172	O	0.530542	0.572300	0.369226
C173	C	0.078276	0.072861	-0.189362
C174	C	0.578276	0.572861	0.310638
H175	H	0.127171	0.091514	-0.169905
H176	H	0.627171	0.591514	0.330095
H177	H	0.093663	0.027275	-0.209778
H178	H	0.593663	0.527275	0.290222
C179	C	-0.016474	0.086948	-0.275960
C180	C	0.483526	0.586948	0.224040
C181	C	0.043578	0.109862	-0.252065
C182	C	0.543578	0.609862	0.247935
H183	H	-0.037877	0.109769	-0.314640
H184	H	0.462123	0.609769	0.185360
H185	H	-0.048633	0.086567	-0.236490
H186	H	0.451367	0.586567	0.263510
H187	H	-0.003642	0.048960	-0.292969
H188	H	0.496358	0.548960	0.207031
H189	H	0.030745	0.147846	-0.235048
H190	H	0.530745	0.647846	0.264952
H191	H	0.075735	0.110249	-0.291534
H192	H	0.575735	0.610249	0.208466
H193	H	0.747848	0.013301	-0.196750
H194	H	1.247848	0.513301	0.303250
H195	H	0.168353	0.073939	0.120558
H196	H	0.668353	0.573939	0.620558
O197	O	0.030638	0.072253	0.131063
O198	O	0.530638	0.572253	0.631063
C199	C	0.078409	0.072839	0.189641
C200	C	0.578409	0.572839	0.689641
H201	H	0.133328	0.055440	0.170173
H202	H	0.633328	0.555440	0.670173
H203	H	0.078511	0.118610	0.210063
H204	H	0.578511	0.618610	0.710063
C205	C	-0.011188	0.056521	0.276254
C206	C	0.488812	0.556521	0.776254
C207	C	0.056264	0.035147	0.252344
C208	C	0.556264	0.535147	0.752344
H209	H	-0.024848	0.033274	0.314934
H210	H	0.475152	0.533274	0.814934
H211	H	-0.043373	0.056129	0.236789
H212	H	0.456627	0.556129	0.736789
H213	H	-0.011094	0.094664	0.293267
H214	H	0.488906	0.594664	0.793267
H215	H	0.056168	-0.002992	0.235323
H216	H	0.556168	0.497008	0.735323
H217	H	0.088449	0.035532	0.291808
H218	H	0.588449	0.535532	0.791808
O219	O	0.618134	0.079449	0.130895
O220	O	1.118134	0.579449	0.630895
C221	C	0.651978	0.129280	0.134882
C222	C	1.151978	0.629280	0.634882
H223	H	0.660116	0.145851	0.077255
H224	H	1.160116	0.645851	0.577255
H225	H	0.618137	0.163471	0.167641
H226	H	1.118137	0.663471	0.667641
C227	C	0.713673	0.094787	0.243605
C228	C	1.213673	0.594787	0.743605
C229	C	0.723674	0.115138	0.172826
C230	C	1.223674	0.615138	0.672826
H231	H	0.757897	0.086066	0.267014
H232	H	1.257897	0.586066	0.767014
H233	H	0.690870	0.061216	0.240921
H234	H	1.190870	0.561216	0.740921
H235	H	0.685470	0.123283	0.270896
H236	H	1.185470	0.623283	0.770896
H237	H	0.751869	0.086640	0.145535
H238	H	1.251869	0.586640	0.645535
H239	H	0.746483	0.148704	0.175506
H240	H	1.246483	0.648704	0.675506
O241	O	0.907186	0.143829	-0.190716
O242	O	1.407186	0.643829	0.309284
C243	C	0.887423	0.201678	-0.209425
C244	C	1.387423	0.701678	0.290575
H245	H	0.860325	0.204178	-0.265080
H246	H	1.360325	0.704178	0.234920
H247	H	0.849822	0.222733	-0.166295
H248	H	1.349822	0.722733	0.333705
C249	C	0.986512	0.229981	-0.144588
C250	C	1.486512	0.729981	0.355412
C251	C	0.953236	0.233051	-0.212947
C252	C	1.453236	0.733051	0.287053
H253	H	1.027108	0.249334	-0.146757
H254	H	1.527108	0.749334	0.353243
H255	H	0.999826	0.191007	-0.131980
H256	H	1.499826	0.691007	0.368020
H257	H	0.955171	0.247525	-0.108653
H258	H	1.455171	0.747525	0.391347
H259	H	0.984575	0.215500	-0.248878
H260	H	1.484575	0.715500	0.251122
H261	H	0.939929	0.272023	-0.225560
H262	H	1.439929	0.772023	0.274440
H263	H	0.612258	0.079312	-0.120337
H264	H	1.112258	0.579312	0.379663
O265	O	0.174078	0.073928	-0.130672
O266	O	0.674078	0.573928	0.369328
C267	C	0.224445	0.025116	-0.134661
C268	C	0.724445	0.525116	0.365339
H269	H	0.238128	0.008811	-0.077035
H270	H	0.738128	0.508811	0.422965
H271	H	0.202152	-0.009755	-0.167416
H272	H	0.702152	0.490245	0.332584
C273	C	0.274286	0.060954	-0.243394
C274	C	0.774286	0.560954	0.256606
C275	C	0.291097	0.040931	-0.172616
C276	C	0.791097	0.540931	0.327384
H277	H	0.315400	0.070708	-0.266809
H278	H	0.815400	0.570708	0.233191
H279	H	0.240352	0.093839	-0.240708
H280	H	0.740352	0.593839	0.259292
H281	H	0.255708	0.031891	-0.270680
H282	H	0.755708	0.531891	0.229320
H283	H	0.309666	0.069996	-0.145328
H284	H	0.809666	0.569996	0.354672
H285	H	0.325036	0.008051	-0.175297
H286	H	0.825036	0.508051	0.324703
O287	O	0.954675	-0.106166	0.000140
O288	O	1.454675	0.393834	0.500140
C289	C	1.010282	-0.151250	0.000133
C290	C	1.510282	0.348750	0.500133
H291	H	0.990998	-0.191552	0.023187
H292	H	1.490998	0.308448	0.523187
H293	H	1.029753	-0.159715	-0.058279
H294	H	1.529753	0.340285	0.441721
C295	C	1.094454	-0.085125	0.019575
C296	C	1.594454	0.414875	0.519575
C297	C	1.070771	-0.134622	0.047896
C298	C	1.570771	0.365378	0.547896
H299	H	1.131768	-0.074867	0.049034
H300	H	1.631768	0.425133	0.549034
H301	H	1.056991	-0.054750	0.019576
H302	H	1.556991	0.445250	0.519576
H303	H	1.110675	-0.092185	-0.029102
H304	H	1.610675	0.407815	0.470898
H305	H	1.054542	-0.127560	0.096567
H306	H	1.554542	0.372440	0.596567
H307	H	1.108233	-0.164996	0.047903
H308	H	1.608233	0.335004	0.547903
H309	H	0.942970	-0.217404	0.000127
H310	H	1.442970	0.282596	0.500127
O311	O	0.907330	0.143767	-0.658055
O312	O	1.407330	0.643767	-0.158055
C313	C	0.944484	0.174186	-0.708292
C314	C	1.444484	0.674186	-0.208292
H315	H	0.948730	0.150600	-0.762930
H316	H	1.448730	0.650600	-0.262930
H317	H	0.915410	0.218950	-0.716446
H318	H	1.415410	0.718950	-0.216446
C319	C	1.013394	0.207774	-0.611241
C320	C	1.513394	0.707774	-0.111241
C321	C	1.018614	0.178803	-0.678346
C322	C	1.518614	0.678803	-0.178346
H323	H	1.059119	0.210625	-0.592768
H324	H	1.559119	0.710625	-0.092768
H325	H	0.988361	0.187282	-0.577395
H326	H	1.488361	0.687282	-0.077395
H327	H	0.989163	0.245075	-0.618045
H328	H	1.489163	0.745075	-0.118045
H329	H	1.042837	0.141501	-0.671539
H330	H	1.542837	0.641501	-0.171539
H331	H	1.043653	0.199289	-0.712191
H332	H	1.543653	0.699289	-0.212191
O333	O	0.635992	-0.344956	0.000259
O334	O	1.135992	0.155044	0.500259
C335	C	0.632705	-0.310160	0.063307
C336	C	1.132705	0.189840	0.563307
H337	H	0.668574	-0.331992	0.107388
H338	H	1.168574	0.168008	0.607388
H339	H	0.650461	-0.267008	0.049046
H340	H	1.150461	0.232992	0.549046
C341	C	0.512619	-0.274134	0.037757
C342	C	1.012619	0.225866	0.537757
C343	C	0.556670	-0.300951	0.091899
C344	C	1.056670	0.199049	0.591899
H345	H	0.465718	-0.268451	0.055393
H346	H	0.965718	0.231549	0.555393
H347	H	0.514834	-0.297575	-0.004722
H348	H	1.014834	0.202425	0.495278
H349	H	0.527425	-0.238177	0.025878
H350	H	1.027425	0.261823	0.525878
H351	H	0.541870	-0.336911	0.103771
H352	H	1.041870	0.163089	0.603771
H353	H	0.554451	-0.277516	0.134381
H354	H	1.054451	0.222484	0.634381
H355	H	1.002610	-0.497589	0.000154
H356	H	1.502610	0.002411	0.500154
H357	H	0.936530	-0.656135	0.000147
H358	H	1.436530	-0.156135	0.500147
H359	H	0.934940	-0.763904	0.000156
H360	H	1.434940	-0.263904	0.500156
O361	O	0.703697	-0.078610	0.000118
O362	O	1.203697	0.421390	0.500118
C363	C	0.718219	-0.021304	0.000097
C364	C	1.218219	0.478696	0.500097
H365	H	0.773051	-0.019163	0.023149
H366	H	1.273051	0.480837	0.523149
H367	H	0.715437	-0.004126	-0.058319
H368	H	1.215437	0.495874	0.441681
C369	C	0.596425	0.012566	0.019534
C370	C	1.096425	0.512566	0.519534
C371	C	0.663768	0.015197	0.047853
C372	C	1.163768	0.515197	0.547853
H373	H	0.562835	0.035083	0.048989
H374	H	1.062835	0.535083	0.548989
H375	H	0.586640	-0.026042	0.019545
H376	H	1.086640	0.473958	0.519545
H377	H	0.594117	0.026881	-0.029145
H378	H	1.094117	0.526881	0.470855
H379	H	0.666077	0.000876	0.096528
H380	H	1.166077	0.500876	0.596528
H381	H	0.673551	0.053803	0.047851
H382	H	1.173551	0.553803	0.547851
O383	O	0.907265	0.143694	-0.809152
O384	O	1.407265	0.643694	-0.309152
C385	C	0.898235	0.136314	-0.885022
C386	C	1.398235	0.636314	-0.385022
H387	H	0.878637	0.093218	-0.895506
H388	H	1.378637	0.593218	-0.395506
H389	H	0.858210	0.172116	-0.906782
H390	H	1.358210	0.672116	-0.406782
C391	C	0.992982	0.191039	-0.911463
C392	C	1.492982	0.691039	-0.411463
C393	C	0.968917	0.138105	-0.924341
C394	C	1.468917	0.638105	-0.424341
H395	H	1.036580	0.192146	-0.935718
H396	H	1.536580	0.692146	-0.435718
H397	H	0.999064	0.196012	-0.860348
H398	H	1.499064	0.696012	-0.360348
H399	H	0.959621	0.220867	-0.929597
H400	H	1.459621	0.720867	-0.429597
H401	H	1.002273	0.108278	-0.906199
H402	H	1.502273	0.608278	-0.406199
H403	H	0.962842	0.133126	-0.975454
H404	H	1.462842	0.633126	-0.475454
O405	O	0.693833	-0.742177	0.000154
O406	O	1.193833	-0.242177	0.500154
C407	C	0.638229	-0.697090	0.000125
C408	C	1.138229	-0.197090	0.500125
H409	H	0.657522	-0.656781	0.023175
H410	H	1.157522	-0.156781	0.523175
H411	H	0.618742	-0.688646	-0.058293
H412	H	1.118742	-0.188646	0.441707
C413	C	0.554057	-0.763204	0.019562
C414	C	1.054057	-0.263204	0.519562
C415	C	0.577751	-0.713697	0.047878
C416	C	1.077751	-0.213697	0.547878
H417	H	0.516749	-0.773449	0.049015
H418	H	1.016749	-0.273449	0.549015
H419	H	0.591518	-0.793581	0.019579
H420	H	1.091518	-0.293581	0.519579
H421	H	0.537822	-0.756161	-0.029119
H422	H	1.037822	-0.256161	0.470881
H423	H	0.593993	-0.720743	0.096555
H424	H	1.093993	-0.220743	0.596555
H425	H	0.540291	-0.683322	0.047870
H426	H	1.040291	-0.183322	0.547870
O427	O	0.741198	0.007888	-0.658154
O428	O	1.241198	0.507888	-0.158154
C429	C	0.704053	-0.022531	-0.708435
C430	C	1.204053	0.477469	-0.208435
H431	H	0.699818	0.001054	-0.763065
H432	H	1.199818	0.501054	-0.263065
H433	H	0.733129	-0.067296	-0.716586
H434	H	1.233129	0.432704	-0.216586
C435	C	0.635125	-0.056119	-0.611454
C436	C	1.135125	0.443881	-0.111454
C437	C	0.629918	-0.027148	-0.678550
C438	C	1.129918	0.472852	-0.178550
H439	H	0.589396	-0.058969	-0.593019
H440	H	1.089396	0.441031	-0.093019
H441	H	0.660152	-0.035627	-0.577578
H442	H	1.160152	0.464373	-0.077578
H443	H	0.659357	-0.093419	-0.618256
H444	H	1.159357	0.406581	-0.118256
H445	H	0.605694	0.010154	-0.671746
H446	H	1.105694	0.510154	-0.171746
H447	H	0.604885	-0.047634	-0.712424
H448	H	1.104885	0.452366	-0.212424
H449	H	0.705543	-0.630940	0.000127
H450	H	1.205543	-0.130940	0.500127
H451	H	0.644318	-0.458493	0.000137
H452	H	1.144318	0.041507	0.500137
H453	H	0.711982	-0.192218	0.000077
H454	H	1.211982	0.307782	0.500077
H455	H	0.900623	0.138335	-0.335704
H456	H	1.400623	0.638335	0.164296
H457	H	0.747859	0.013311	-0.335800
H458	H	1.247859	0.513311	0.164200
H459	H	0.747893	0.013315	-0.803110
H460	H	1.247893	0.513315	-0.303110
