data_functionalizedCrystal
_audit_creation_method	'MofGen! by Chris Wilmer'
_symmetry_space_group_name_H-M	'P1'
_symmetry_Int_Tables_number	1
_symmetry_cell_setting	triclinic
loop_
_symmetry_equiv_pos_as_xyz
  x,y,z
_cell_length_a	12.645330
_cell_length_b	19.077372
_cell_length_c	19.076919
_cell_angle_alpha	94.474666
_cell_angle_beta	87.724318
_cell_angle_gamma	87.686867
loop_
_atom_site_label
_atom_site_type_symbol
_atom_site_fract_x
_atom_site_fract_y
_atom_site_fract_z
Zn1	Zn	-0.379296	-1.061724	0.355498
Zn2	Zn	0.120704	-0.561724	0.855498
Zn3	Zn	-0.549159	-1.066403	0.237624
Zn4	Zn	-0.049159	-0.566403	0.737624
Zn5	Zn	-0.379329	-0.948580	0.242342
Zn6	Zn	0.120671	-0.448580	0.742342
Zn7	Zn	-0.563939	-0.943834	0.360183
Zn8	Zn	-0.063939	-0.443834	0.860183
O9	O	-0.467931	-1.005135	0.298912
O10	O	0.032069	-0.505135	0.798912
O11	O	-0.395630	-1.160992	0.335926
O12	O	0.104370	-0.660992	0.835926
O13	O	-0.520459	-1.054717	0.139603
O14	O	-0.020459	-0.554717	0.639603
O15	O	-0.230976	-0.963617	0.257366
O16	O	0.269024	-0.463617	0.757366
O17	O	-0.520428	-1.164429	0.249325
O18	O	-0.020428	-0.664429	0.749325
O19	O	-0.230953	-1.046744	0.340501
O20	O	0.269047	-0.546744	0.840501
O21	O	-0.395685	-0.968153	0.143069
O22	O	0.104315	-0.468153	0.643069
O23	O	-0.410017	-0.849303	0.261910
O24	O	0.089983	-0.349303	0.761910
O25	O	-0.545618	-0.955528	0.458208
O26	O	-0.045618	-0.455528	0.958208
O27	O	-0.545649	-0.845816	0.348487
O28	O	-0.045649	-0.345816	0.848487
O29	O	-0.409962	-1.042142	0.454766
O30	O	0.090038	-0.542142	0.954766
O31	O	-0.699468	-1.050115	0.253868
O32	O	-0.199468	-0.550115	0.753868
O33	O	-0.710327	-0.960064	0.343911
O34	O	-0.210327	-0.460064	0.843911
C35	C	-0.479441	-0.821982	0.306219
C36	C	0.020559	-0.321982	0.806219
C37	C	-0.484392	-0.743627	0.309362
C38	C	0.015608	-0.243627	0.809362
C39	C	-0.519820	-0.302379	0.331939
C40	C	-0.019820	0.197621	0.831939
C41	C	-0.515176	-0.376002	0.328973
C42	C	-0.015176	0.123998	0.828973
C43	C	-0.442132	-0.414603	0.282489
C44	C	0.057868	0.085397	0.782489
C45	C	-0.373737	-0.379578	0.238963
C46	C	0.126263	0.120422	0.738963
C47	C	-0.378387	-0.305956	0.241926
C48	C	0.121613	0.194044	0.741926
C49	C	-0.420646	-0.634980	0.268799
C50	C	0.079354	-0.134980	0.768799
C51	C	-0.415999	-0.708606	0.265840
C52	C	0.084001	-0.208606	0.765840
C53	C	-0.557440	-0.705026	0.355850
C54	C	-0.057440	-0.205026	0.855850
C55	C	-0.562079	-0.631403	0.358812
C56	C	-0.062079	-0.131403	0.858812
C57	C	-0.493687	-0.596384	0.315283
C58	C	0.006313	-0.096384	0.815283
N59	N	-0.437381	-0.489858	0.279458
N60	N	0.062619	0.010142	0.779458
N61	N	-0.498444	-0.521131	0.318312
N62	N	0.001556	-0.021131	0.818312
C63	C	-0.743362	-1.005101	0.298901
C64	C	-0.243362	-0.505101	0.798901
C65	C	-0.861190	-1.005150	0.298917
C66	C	-0.361190	-0.505150	0.798917
C67	C	-0.899195	-1.061861	0.242315
C68	C	-0.399195	-0.561861	0.742315
C69	C	-1.021751	-1.061744	0.242126
C70	C	-0.521751	-0.561744	0.742126
C71	C	-1.032616	-0.931665	0.281926
C72	C	-0.532616	-0.431665	0.781926
C73	C	-0.909974	-0.931962	0.281500
C74	C	-0.409974	-0.431962	0.781500
C75	C	-0.909761	-1.021341	0.372710
C76	C	-0.409761	-0.521341	0.872710
C77	C	-1.032237	-1.023031	0.372266
C78	C	-0.532237	-0.523031	0.872266
C79	C	-0.191424	-1.005188	0.298937
C80	C	0.308576	-0.505188	0.798937
C81	C	-0.073593	-1.005210	0.298948
C82	C	0.426407	-0.505210	0.798948
C83	C	-0.479435	-0.997784	0.482781
C84	C	0.020565	-0.497784	0.982781
C85	C	-0.484337	-0.994651	0.561135
C86	C	0.015663	-0.494651	1.061135
C87	C	-0.456370	-0.189004	0.291568
C88	C	0.043630	0.310996	0.791568
C89	C	-0.451427	-0.267359	0.288418
C90	C	0.048573	0.232641	0.788418
C91	C	-0.456393	-1.012498	0.115757
C92	C	0.043607	-0.512498	0.615757
C93	C	-0.451183	-1.015768	0.037398
C94	C	0.048817	-0.515768	0.537398
C95	C	-0.416014	-1.038272	0.596154
C96	C	0.083986	-0.538272	1.096154
C97	C	-0.420617	-1.035320	0.669777
C98	C	0.079383	-0.535320	1.169777
C99	C	-0.493548	-0.988750	0.708377
C100	C	0.006452	-0.488750	1.208377
C101	C	-0.561874	-0.945124	0.673353
C102	C	-0.061874	-0.445124	1.173353
C103	C	-0.557265	-0.948073	0.599732
C104	C	-0.057265	-0.448073	1.099732
C105	C	-0.514900	-0.975091	0.928752
C106	C	-0.014900	-0.475091	1.428752
C107	C	-0.519506	-0.972147	1.002378
C108	C	-0.019506	-0.472147	1.502378
C109	C	-0.378247	-1.062342	0.998797
C110	C	0.121753	-0.562342	1.498797
C111	C	-0.373649	-1.065290	0.925175
C112	C	0.126351	-0.565290	1.425175
C113	C	-0.441971	-1.021662	0.890156
C114	C	0.058029	-0.521662	1.390156
N115	N	-0.498257	-0.985733	0.783631
N116	N	0.001743	-0.485733	1.283631
N117	N	-0.437256	-1.024676	0.814904
N118	N	0.062744	-0.524676	1.314904
H119	H	-0.314268	-0.411012	0.201112
H120	H	0.185732	0.088988	0.701112
H121	H	-0.612891	-0.912545	0.571220
H122	H	-0.112891	-0.412545	1.071220
C123	C	-0.405054	-0.556012	0.177275
C124	C	0.094946	-0.056012	0.677275
C125	C	-0.345494	-0.596519	0.220914
C126	C	0.154506	-0.096519	0.720914
H127	H	-0.358662	-0.532277	0.147697
H128	H	0.141338	-0.032277	0.647697
H129	H	-0.449180	-0.522469	0.205379
H130	H	0.050820	-0.022469	0.705379
H131	H	-0.447703	-0.585823	0.149144
H132	H	0.052297	-0.085823	0.649144
H133	H	-0.302851	-0.566707	0.249049
H134	H	0.197149	-0.066707	0.749049
H135	H	-0.301350	-0.630065	0.192807
H136	H	0.198650	-0.130065	0.692807
C137	C	-0.238105	-0.316885	0.152664
C138	C	0.261895	0.183115	0.652664
C139	C	-0.303204	-0.267459	0.194089
C140	C	0.196796	0.232541	0.694089
H141	H	-0.191688	-0.293117	0.123133
H142	H	0.308312	0.206883	0.623133
H143	H	-0.280724	-0.346667	0.124492
H144	H	0.219276	0.153333	0.624492
H145	H	-0.197741	-0.344384	0.182277
H146	H	0.302259	0.155616	0.682277
H147	H	-0.343574	-0.239963	0.164476
H148	H	0.156426	0.260037	0.664476
H149	H	-0.260580	-0.237665	0.222263
H150	H	0.239420	0.262335	0.722263
C151	C	-0.654967	-0.885628	0.939698
C152	C	-0.154967	-0.385628	1.439698
C153	C	-0.589986	-0.927126	0.890267
C154	C	-0.089986	-0.427126	1.390267
H155	H	-0.701322	-0.856015	0.915935
H156	H	-0.201322	-0.356015	1.415935
H157	H	-0.612262	-0.857538	0.969497
H158	H	-0.112262	-0.357538	1.469497
H159	H	-0.695399	-0.915189	0.967178
H160	H	-0.195399	-0.415189	1.467178
H161	H	-0.549547	-0.897565	0.862790
H162	H	-0.049547	-0.397565	1.362790
H163	H	-0.632696	-0.955219	0.860455
H164	H	-0.132696	-0.455219	1.360455
C165	C	-0.347719	-1.163404	0.838575
C166	C	0.152281	-0.663404	1.338575
C167	C	-0.293453	-1.116450	0.882731
C168	C	0.206547	-0.616450	1.382731
H169	H	-0.298202	-1.194983	0.812371
H170	H	0.201798	-0.694983	1.312371
H171	H	-0.387765	-1.137845	0.807198
H172	H	0.112235	-0.637845	1.307198
H173	H	-0.393981	-1.189237	0.866212
H174	H	0.106019	-0.689237	1.366212
H175	H	-0.247197	-1.090613	0.855094
H176	H	0.252803	-0.590613	1.355094
H177	H	-0.253390	-1.142011	0.914112
H178	H	0.246610	-0.642011	1.414112
H179	H	-0.579294	-0.270956	0.369796
H180	H	-0.079294	0.229044	0.869796
H181	H	-0.876556	-1.073882	0.388802
H182	H	-0.376556	-0.573882	0.888802
H183	H	-1.058752	-1.077139	0.385158
H184	H	-0.558752	-0.577139	0.885158
C185	C	-0.667898	-0.958996	1.085553
C186	C	-0.167898	-0.458996	1.585553
C187	C	-0.599666	-0.920947	1.044814
C188	C	-0.099666	-0.420947	1.544814
H189	H	-0.717383	-0.927389	1.111748
H190	H	-0.217383	-0.427389	1.611748
H191	H	-0.627867	-0.984555	1.116938
H192	H	-0.127867	-0.484555	1.616938
H193	H	-0.704731	-0.990842	1.055598
H194	H	-0.204731	-0.490842	1.555598
H195	H	-0.562827	-0.889105	1.074769
H196	H	-0.062827	-0.389105	1.574769
H197	H	-0.639702	-0.895377	1.013426
H198	H	-0.139702	-0.395377	1.513426
C199	C	-0.653169	-0.458403	0.335279
C200	C	-0.153169	0.041597	0.835279
C201	C	-0.590347	-0.414499	0.376817
C202	C	-0.090347	0.085501	0.876817
H203	H	-0.699581	-0.482166	0.364819
H204	H	-0.199581	0.017834	0.864819
H205	H	-0.609006	-0.491923	0.307174
H206	H	-0.109006	0.008077	0.807174
H207	H	-0.693540	-0.430891	0.305682
H208	H	-0.193540	0.069109	0.805682
H209	H	-0.549969	-0.442012	0.406411
H210	H	-0.049969	0.057988	0.906411
H211	H	-0.634515	-0.380975	0.404934
H212	H	-0.134515	0.119025	0.904934
H213	H	-0.621561	-0.599979	0.396663
H214	H	-0.121561	-0.099979	0.896663
H215	H	-0.866948	-1.116645	0.252446
H216	H	-0.366948	-0.616645	0.752446
C217	C	-0.613124	-0.816293	0.391272
C218	C	-0.113124	-0.316293	0.891272
C219	C	-0.632622	-0.743521	0.403688
C220	C	-0.132622	-0.243521	0.903688
H221	H	-0.659548	-0.840056	0.420803
H222	H	-0.159548	-0.340056	0.920803
H223	H	-0.541820	-0.827948	0.401191
H224	H	-0.041820	-0.327948	0.901191
H225	H	-0.624797	-0.830228	0.343402
H226	H	-0.124797	-0.330228	0.843402
H227	H	-0.620941	-0.729585	0.451557
H228	H	-0.120941	-0.229585	0.951557
H229	H	-0.703943	-0.731861	0.393774
H230	H	-0.203943	-0.231861	0.893774
C231	C	-0.276683	-0.704756	0.177140
C232	C	0.223317	-0.204756	0.677140
C233	C	-0.335722	-0.751039	0.214728
C234	C	0.164278	-0.251039	0.714728
H235	H	-0.227135	-0.730953	0.145583
H236	H	0.272865	-0.230953	0.645583
H237	H	-0.239928	-0.674829	0.209048
H238	H	0.260072	-0.174829	0.709048
H239	H	-0.322950	-0.677103	0.151288
H240	H	0.177050	-0.177103	0.651288
H241	H	-0.289457	-0.778688	0.240585
H242	H	0.210543	-0.278688	0.740585
H243	H	-0.372480	-0.780978	0.182816
H244	H	0.127520	-0.280978	0.682816
H245	H	-1.049083	-1.116367	0.252411
H246	H	-0.549083	-0.616367	0.752411
C247	C	-0.322579	-1.097867	1.110062
C248	C	0.177421	-0.597867	1.610062
C249	C	-0.303141	-1.110289	1.037291
C250	C	0.196859	-0.610289	1.537291
H251	H	-0.276201	-1.127464	1.133825
H252	H	0.223799	-0.627464	1.633825
H253	H	-0.393903	-1.107692	1.121707
H254	H	0.106097	-0.607692	1.621707
H255	H	-0.310797	-1.050020	1.124007
H256	H	0.189203	-0.550020	1.624007
H257	H	-0.314930	-1.158135	1.023345
H258	H	0.185070	-0.658135	1.523345
H259	H	-0.231800	-1.100469	1.025641
H260	H	0.268200	-0.600469	1.525641
H261	H	-0.865787	-1.051511	0.187887
H262	H	-0.365787	-0.551511	0.687887
H263	H	-0.621252	-0.907203	0.704787
H264	H	-0.121252	-0.407203	1.204787
H265	H	-0.364984	-1.070842	0.698286
H266	H	0.135016	-0.570842	1.198286
H267	H	-0.885332	-0.888420	0.321106
H268	H	-0.385332	-0.388420	0.821106
H269	H	-1.048476	-1.051266	0.187398
H270	H	-0.548476	-0.551266	0.687398
H271	H	-0.879047	-0.917917	0.227653
H272	H	-0.379047	-0.417917	0.727653
C273	C	-1.144778	-0.902716	0.385503
C274	C	-0.644778	-0.402716	0.885503
C275	C	-1.078766	-0.873261	0.336049
C276	C	-0.578766	-0.373261	0.836049
H277	H	-1.173274	-0.866659	0.418913
H278	H	-0.673274	-0.366659	0.918913
H279	H	-1.104960	-0.936386	0.408918
H280	H	-0.604960	-0.436386	0.908918
H281	H	-1.200879	-0.925071	0.362215
H282	H	-0.700879	-0.425071	0.862215
H283	H	-1.022660	-0.850911	0.359336
H284	H	-0.522660	-0.350911	0.859336
H285	H	-1.118585	-0.839579	0.312631
H286	H	-0.618585	-0.339579	0.812631
H287	H	-1.061044	-0.917332	0.228697
H288	H	-0.561044	-0.417332	0.728697
H289	H	-1.067855	-0.984532	0.416452
H290	H	-0.567855	-0.484532	0.916452
C291	C	-0.968364	-0.930654	0.461748
C292	C	-0.468364	-0.430654	0.961748
C293	C	-0.877406	-0.965544	0.429596
C294	C	-0.377406	-0.465544	0.929596
H295	H	-0.948381	-0.896204	0.496859
H296	H	-0.448381	-0.396204	0.996859
H297	H	-1.011251	-0.963679	0.482803
H298	H	-0.511251	-0.463679	0.982803
H299	H	-1.007137	-0.908406	0.427385
H300	H	-0.507137	-0.408406	0.927385
H301	H	-0.838636	-0.987796	0.463958
H302	H	-0.338636	-0.487796	0.963958
H303	H	-0.834501	-0.932514	0.408541
H304	H	-0.334501	-0.432514	0.908541
H305	H	-0.356629	-1.076197	0.564730
H306	H	0.143371	-0.576197	1.064730
