data_functionalizedCrystal
_audit_creation_method	'MofGen! by Chris Wilmer'
_symmetry_space_group_name_H-M	'P1'
_symmetry_Int_Tables_number	1
_symmetry_cell_setting	triclinic
loop_
_symmetry_equiv_pos_as_xyz
  x,y,z
_cell_length_a	16.959455
_cell_length_b	16.959454
_cell_length_c	16.959447
_cell_angle_alpha	89.974219
_cell_angle_beta	90.014322
_cell_angle_gamma	89.980118
loop_
_atom_site_label
_atom_site_type_symbol
_atom_site_fract_x
_atom_site_fract_y
_atom_site_fract_z
Zn1	Zn	1.208368	0.314730	0.446934
Zn2	Zn	1.708368	0.814730	0.946934
Zn3	Zn	1.208284	0.446923	0.314766
Zn4	Zn	1.708284	0.946923	0.814766
Zn5	Zn	1.076197	0.314755	0.314771
Zn6	Zn	1.576197	0.814755	0.814771
Zn7	Zn	1.076155	0.446864	0.446904
Zn8	Zn	1.576155	0.946864	0.946904
O9	O	1.142251	0.380818	0.380844
O10	O	1.642251	0.880818	0.880844
O11	O	1.318968	0.332280	0.429411
O12	O	1.818968	0.832280	0.929411
O13	O	1.190745	0.429426	0.204155
O14	O	1.690745	0.929426	0.704155
O15	O	1.093782	0.204141	0.332317
O16	O	1.593782	0.704141	0.832317
O17	O	1.318906	0.429402	0.332308
O18	O	1.818906	0.929402	0.832308
O19	O	1.190888	0.204123	0.429417
O20	O	1.690888	0.704123	0.929417
O21	O	1.093701	0.332323	0.204159
O22	O	1.593701	0.832323	0.704159
O23	O	0.965580	0.332265	0.332289
O24	O	1.465580	0.832265	0.832289
O25	O	1.093711	0.429301	0.557519
O26	O	1.593711	0.929301	1.057519
O27	O	0.965549	0.429325	0.429366
O28	O	1.465549	0.929325	0.929366
O29	O	1.190847	0.332223	0.557541
O30	O	1.690847	0.832223	1.057541
O31	O	1.190704	0.557526	0.332279
O32	O	1.690704	1.057526	0.832279
O33	O	1.093629	0.557482	0.429361
O34	O	1.593629	1.057482	0.929361
C35	C	0.936885	0.380792	0.380825
C36	C	1.436885	0.880792	0.880825
C37	C	0.849028	0.380800	0.380836
C38	C	1.349028	0.880800	0.880836
C39	C	0.477544	0.330238	0.330401
C40	C	0.977544	0.830238	0.830401
C41	C	0.477561	0.431463	0.431332
C42	C	0.977561	0.931463	0.931332
C43	C	0.560107	0.431452	0.431327
C44	C	1.060107	0.931452	0.931327
C45	C	0.601375	0.380834	0.380857
C46	C	1.101375	0.880834	0.880857
C47	C	0.560097	0.330226	0.330393
C48	C	1.060097	0.830226	0.830393
C49	C	0.601390	0.482064	0.481785
C50	C	1.101390	0.982064	0.981785
C51	C	0.683941	0.482055	0.481781
C52	C	1.183941	0.982055	0.981781
C53	C	0.725211	0.431432	0.431315
C54	C	1.225211	0.931432	0.931315
C55	C	0.683929	0.380822	0.380849
C56	C	1.183929	0.880822	0.880849
C57	C	0.725197	0.330204	0.330380
C58	C	1.225197	0.830204	0.830380
C59	C	0.683916	0.279589	0.279917
C60	C	1.183916	0.779589	0.779917
C61	C	0.601367	0.279603	0.279927
C62	C	1.101367	0.779603	0.779927
C63	C	0.807760	0.431418	0.431306
C64	C	1.307760	0.931418	0.931306
C65	C	0.807750	0.330193	0.330372
C66	C	1.307750	0.830193	0.830372
C67	C	1.142174	0.586184	0.380834
C68	C	1.642174	1.086184	0.880834
C69	C	1.142214	0.674041	0.380856
C70	C	1.642214	1.174041	0.880856
C71	C	1.091744	1.045524	0.431400
C72	C	1.591744	1.545524	0.931400
C73	C	1.192911	1.045509	0.330390
C74	C	1.692911	1.545509	0.830390
C75	C	1.192888	0.962963	0.330382
C76	C	1.692888	1.462963	0.830382
C77	C	1.142291	0.921694	0.380882
C78	C	1.642291	1.421694	0.880882
C79	C	1.091717	0.962970	0.431391
C80	C	1.591717	1.462970	0.931391
C81	C	1.243455	0.921680	0.279868
C82	C	1.743455	1.421680	0.779868
C83	C	1.243433	0.839130	0.279856
C84	C	1.743433	1.339130	0.779856
C85	C	1.192839	0.797859	0.330361
C86	C	1.692839	1.297859	0.830361
C87	C	1.142264	0.839140	0.380873
C88	C	1.642264	1.339140	0.880873
C89	C	1.091667	0.797871	0.431373
C90	C	1.591667	1.297871	0.931373
C91	C	1.041096	0.839151	0.481890
C92	C	1.541096	1.339151	0.981890
C93	C	1.041124	0.921699	0.481896
C94	C	1.541124	1.421699	0.981896
C95	C	1.192811	0.715310	0.330355
C96	C	1.692811	1.215310	0.830355
C97	C	1.091640	0.715317	0.431365
C98	C	1.591640	1.215317	0.931365
C99	C	1.348419	0.380845	0.380862
C100	C	1.848419	0.880845	0.880862
C101	C	1.436276	0.380856	0.380870
C102	C	1.936276	0.880856	0.880870
C103	C	1.142284	0.380753	0.587012
C104	C	1.642284	0.880753	1.087012
C105	C	1.142298	0.380725	0.674869
C106	C	1.642298	0.880725	1.174869
C107	C	1.142337	1.174650	0.380875
C108	C	1.642337	1.674650	0.880875
C109	C	1.142341	1.086793	0.380899
C110	C	1.642341	1.586793	0.880899
C111	C	1.142263	0.380826	0.175477
C112	C	1.642263	0.880826	0.675477
C113	C	1.142403	0.380631	0.087621
C114	C	1.642403	0.880631	0.587621
C115	C	1.091817	0.431185	1.046336
C116	C	1.591817	0.931185	1.546336
C117	C	1.192967	0.330097	1.046353
C118	C	1.692967	0.830097	1.546353
C119	C	1.192946	0.330114	0.963807
C120	C	1.692946	0.830114	1.463807
C121	C	1.142361	0.380668	0.922522
C122	C	1.642361	0.880668	1.422522
C123	C	1.091797	0.431205	0.963782
C124	C	1.591797	0.931205	1.463782
C125	C	1.243515	0.279584	0.922541
C126	C	1.743515	0.779584	1.422541
C127	C	1.243496	0.279599	0.839990
C128	C	1.743496	0.779599	1.339990
C129	C	1.192906	0.330149	0.798703
C130	C	1.692906	0.830149	1.298703
C131	C	1.142340	0.380688	0.839968
C132	C	1.642340	0.880688	1.339968
C133	C	1.091755	0.431242	0.798682
C134	C	1.591755	0.931242	1.298682
C135	C	1.041183	0.481777	0.839946
C136	C	1.541183	0.981777	1.339946
C137	C	1.041207	0.481756	0.922495
C138	C	1.541207	0.981756	1.422495
C139	C	1.192883	0.330171	0.716154
C140	C	1.692883	0.830171	1.216154
C141	C	1.091734	0.431262	0.716129
C142	C	1.591734	0.931262	1.216129
H143	H	0.841367	0.472630	0.472389
H144	H	1.341367	0.972630	0.972389
H145	H	1.050572	1.079138	0.472531
H146	H	1.550572	1.579138	0.972531
C147	C	1.248567	1.090903	0.274849
C148	C	1.748567	1.590903	0.774849
H149	H	1.241344	1.145978	0.282092
H150	H	1.741344	1.645978	0.782092
H151	H	1.237039	1.077413	0.221726
H152	H	1.737039	1.577413	0.721726
H153	H	1.301665	1.077333	0.286476
H154	H	1.801665	1.577333	0.786476
C155	C	0.985493	0.967108	0.537448
C156	C	1.485493	1.467108	1.037448
H157	H	0.992749	1.022181	0.530212
H158	H	1.492749	1.522181	1.030212
H159	H	0.997015	0.953549	0.590569
H160	H	1.497015	1.453549	1.090569
H161	H	0.932387	0.953618	0.525821
H162	H	1.432387	1.453618	1.025821
H163	H	1.284642	0.955288	0.238747
H164	H	1.784642	1.455288	0.738747
H165	H	1.050533	0.472422	0.682520
H166	H	1.550533	0.972422	1.182520
H167	H	1.284611	0.805524	0.238725
H168	H	1.784611	1.305524	0.738725
H169	H	1.284703	0.238430	0.956162
H170	H	1.784703	0.738430	1.456162
C171	C	1.036196	0.486772	1.091720
C172	C	1.536196	0.986772	1.591720
H173	H	1.043453	0.479526	1.146797
H174	H	1.543453	0.979526	1.646797
H175	H	0.983090	0.475203	1.078191
H176	H	1.483090	0.975203	1.578191
H177	H	1.047743	0.539888	1.078181
H178	H	1.547743	1.039888	1.578181
C179	C	1.248432	0.669906	0.274795
C180	C	1.748432	1.169906	0.774795
H181	H	1.278571	0.706307	0.244722
H182	H	1.778571	1.206307	0.744722
H183	H	1.218208	0.637739	0.240328
H184	H	1.718208	1.137739	0.740328
H185	H	1.282848	0.637667	0.305064
H186	H	1.782848	1.137667	0.805064
H187	H	1.000000	0.522942	0.806321
H188	H	1.500000	1.022942	1.306321
H189	H	0.717545	0.523268	0.522871
H190	H	1.217545	1.023268	1.022871
C191	C	0.985590	0.537345	0.967882
C192	C	1.485590	1.037345	1.467882
H193	H	0.955454	0.567452	0.931473
H194	H	1.455454	1.067452	1.431473
H195	H	1.015822	0.571780	1.000075
H196	H	1.515822	1.071780	1.500075
H197	H	0.951170	0.507093	1.000093
H198	H	1.451170	1.007093	1.500093
H199	H	1.234155	0.288943	1.079973
H200	H	1.734155	0.788943	1.579973
C201	C	0.556000	0.537652	0.537385
C202	C	1.056000	1.037652	1.037385
H203	H	0.592406	0.567771	0.567458
H204	H	1.092406	1.067771	1.067458
H205	H	0.523864	0.507377	0.571849
H206	H	1.023864	1.007377	1.071849
H207	H	0.523731	0.572089	0.507172
H208	H	1.023731	1.072089	1.007172
C209	C	0.985443	0.793749	0.537437
C210	C	1.485443	1.293749	1.037437
H211	H	0.992675	0.738675	0.530195
H212	H	1.492675	1.238675	1.030195
H213	H	0.932345	0.807319	0.525829
H214	H	1.432345	1.307319	1.025829
H215	H	0.996989	0.807234	0.590562
H216	H	1.496989	1.307234	1.090562
H217	H	1.050441	0.681721	0.472491
H218	H	1.550441	1.181721	0.972491
C219	C	1.299114	0.224007	0.794607
C220	C	1.799114	0.724007	1.294607
H221	H	1.329239	0.193893	0.831019
H222	H	1.829239	0.693893	1.331019
H223	H	1.333532	0.254250	0.762393
H224	H	1.833532	0.754250	1.262393
H225	H	1.268877	0.189567	0.762417
H226	H	1.768877	0.689567	1.262417
C227	C	0.555961	0.223937	0.224419
C228	C	1.055961	0.723937	0.724419
H229	H	0.592360	0.193782	0.194365
H230	H	1.092360	0.693782	0.694365
H231	H	0.523742	0.254137	0.189932
H232	H	1.023742	0.754137	0.689932
H233	H	0.523776	0.189537	0.254722
H234	H	1.023776	0.689537	0.754722
C235	C	0.853140	0.274510	0.274856
C236	C	1.353140	0.774510	0.774856
H237	H	0.816730	0.244374	0.244803
H238	H	1.316730	0.744374	0.744803
H239	H	0.885363	0.240106	0.305146
H240	H	1.385363	0.740106	0.805146
H241	H	0.885320	0.304704	0.240355
H242	H	1.385320	0.804704	0.740355
C243	C	0.432140	0.274568	0.274894
C244	C	0.932140	0.774568	0.774894
H245	H	0.377066	0.281825	0.282121
H246	H	0.877066	0.781825	0.782121
H247	H	0.445687	0.221473	0.286548
H248	H	0.945687	0.721473	0.786548
H249	H	0.445648	0.286077	0.221762
H250	H	0.945648	0.786077	0.721762
C251	C	0.729313	0.223909	0.224405
C252	C	1.229313	0.723909	0.724405
H253	H	0.692909	0.193769	0.194350
H254	H	1.192909	0.693769	0.694350
H255	H	0.761537	0.189509	0.254700
H256	H	1.261537	0.689509	0.754700
H257	H	0.761493	0.254106	0.189907
H258	H	1.261493	0.754106	0.689907
C259	C	0.432168	0.487139	0.486843
C260	C	0.932168	0.987139	0.986843
H261	H	0.377093	0.479894	0.479623
H262	H	0.877093	0.979894	0.979623
H263	H	0.445682	0.540232	0.475190
H264	H	0.945682	1.040232	0.975190
H265	H	0.445715	0.475625	0.539973
H266	H	0.945715	0.975625	1.039973
C267	C	1.248499	0.274586	0.670767
C268	C	1.748499	0.774586	1.170767
H269	H	1.278626	0.244473	0.707178
H270	H	1.778626	0.744473	1.207178
H271	H	1.282915	0.304830	0.638553
H272	H	1.782915	0.804830	1.138553
H273	H	1.218263	0.240144	0.638578
H274	H	1.718263	0.740144	1.138578
