data_functionalizedCrystal
_audit_creation_method	'MofGen! by Chris Wilmer'
_symmetry_space_group_name_H-M	'P1'
_symmetry_Int_Tables_number	1
_symmetry_cell_setting	triclinic
loop_
_symmetry_equiv_pos_as_xyz
  x,y,z
_cell_length_a	19.805407
_cell_length_b	12.594516
_cell_length_c	19.805399
_cell_angle_alpha	90.020797
_cell_angle_beta	90.019573
_cell_angle_gamma	90.016053
loop_
_atom_site_label
_atom_site_type_symbol
_atom_site_fract_x
_atom_site_fract_y
_atom_site_fract_z
Zn1	Zn	1.034784	-0.423767	0.382752
Zn2	Zn	1.534784	0.076233	0.882752
Zn3	Zn	1.034720	-0.601760	0.269577
Zn4	Zn	1.534720	-0.101760	0.769577
Zn5	Zn	0.921599	-0.423796	0.269576
Zn6	Zn	1.421599	0.076204	0.769576
Zn7	Zn	0.921583	-0.601704	0.382723
Zn8	Zn	1.421583	-0.101704	0.882723
O9	O	0.978172	-0.512757	0.326157
O10	O	1.478172	-0.012757	0.826157
O11	O	1.129492	-0.447389	0.367751
O12	O	1.629492	0.052611	0.867751
O13	O	1.019694	-0.578189	0.174860
O14	O	1.519694	-0.078189	0.674860
O15	O	0.936647	-0.274846	0.284601
O16	O	1.436647	0.225154	0.784601
O17	O	1.129445	-0.578160	0.284602
O18	O	1.629445	-0.078160	0.784602
O19	O	1.019804	-0.274825	0.367750
O20	O	1.519804	0.225175	0.867750
O21	O	0.936584	-0.447439	0.174860
O22	O	1.436584	0.052561	0.674860
O23	O	0.826880	-0.447385	0.284573
O24	O	1.326880	0.052615	0.784573
O25	O	0.936620	-0.578064	0.477444
O26	O	1.436620	-0.078064	0.977444
O27	O	0.826869	-0.578092	0.367702
O28	O	1.326869	-0.078092	0.867702
O29	O	1.019788	-0.447335	0.477464
O30	O	1.519788	0.052665	0.977464
O31	O	1.019678	-0.750698	0.284574
O32	O	1.519678	-0.250698	0.784574
O33	O	0.936557	-0.750657	0.367703
O34	O	1.436557	-0.250657	0.867703
C35	C	0.802316	-0.512736	0.326135
C36	C	1.302316	-0.012736	0.826135
C37	C	0.727084	-0.512753	0.326142
C38	C	1.227084	-0.012753	0.826142
C39	C	0.691751	-0.580915	0.369357
C40	C	1.191751	-0.080915	0.869357
C41	C	0.621063	-0.580917	0.369366
C42	C	1.121063	-0.080917	0.869366
C43	C	0.585708	-0.512762	0.326157
C44	C	1.085708	-0.012762	0.826157
C45	C	0.621045	-0.444592	0.282940
C46	C	1.121045	0.055408	0.782940
C47	C	0.691733	-0.444586	0.282934
C48	C	1.191733	0.055414	0.782934
C49	C	0.335972	-0.444615	0.282962
C50	C	0.835972	0.055385	0.782962
C51	C	0.265280	-0.444629	0.282970
C52	C	0.765280	0.055371	0.782970
C53	C	0.265302	-0.580947	0.369394
C54	C	0.765302	-0.080947	0.869394
C55	C	0.335989	-0.580941	0.369389
C56	C	0.835989	-0.080941	0.869389
C57	C	0.371321	-0.512768	0.326175
C58	C	0.871321	-0.012768	0.826175
C59	C	0.447969	-0.512765	0.326166
C60	C	0.947969	-0.012765	0.826166
C61	C	0.509061	-0.512769	0.326162
C62	C	1.009061	-0.012769	0.826162
C63	C	0.978127	-0.789298	0.326150
C64	C	1.478127	-0.289298	0.826150
C65	C	0.978170	-0.907603	0.326170
C66	C	1.478170	-0.407603	0.826170
C67	C	0.932956	-0.976872	0.371352
C68	C	1.432956	-0.476872	0.871352
C69	C	0.916467	-1.047728	0.309590
C70	C	1.416467	-0.547728	0.809590
C71	C	0.994721	-1.047546	0.387943
C72	C	1.494721	-0.547546	0.887943
C73	C	0.961649	-0.976901	0.264375
C74	C	1.461649	-0.476901	0.764375
C75	C	1.039931	-0.976712	0.342770
C76	C	1.539931	-0.476712	0.842770
C77	C	1.023465	-1.047536	0.280965
C78	C	1.523465	-0.547536	0.780965
C79	C	1.154714	-0.512778	0.326179
C80	C	1.654714	-0.012778	0.826179
C81	C	1.229946	-0.512787	0.326189
C82	C	1.729946	-0.012787	0.826189
C83	C	0.978209	-0.512690	0.502700
C84	C	1.478209	-0.012690	1.002700
C85	C	0.978226	-0.512661	0.577932
C86	C	1.478226	-0.012661	1.077932
C87	C	0.978235	-0.235136	0.326178
C88	C	1.478235	0.264864	0.826178
C89	C	0.978261	-0.116830	0.326188
C90	C	1.478261	0.383170	0.826188
C91	C	0.978173	-0.512747	0.150301
C92	C	1.478173	-0.012747	0.650301
C93	C	0.978288	-0.512475	0.075069
C94	C	1.478288	-0.012475	0.575069
C95	C	1.021533	-0.444587	0.613288
C96	C	1.521533	0.055413	1.113288
C97	C	1.021539	-0.444556	0.683976
C98	C	1.521539	0.055444	1.183976
C99	C	0.978242	-0.512605	0.719307
C100	C	1.478242	-0.012605	1.219307
C101	C	0.934931	-0.580683	0.683947
C102	C	1.434931	-0.080683	1.183947
C103	C	0.934921	-0.580707	0.613259
C104	C	1.434921	-0.080707	1.113259
C105	C	0.934969	-0.580583	0.969020
C106	C	1.434969	-0.080583	1.469020
C107	C	0.934984	-0.580556	1.039712
C108	C	1.434984	-0.080556	1.539712
C109	C	1.021588	-0.444432	1.039737
C110	C	1.521588	0.055568	1.539737
C111	C	1.021578	-0.444457	0.969050
C112	C	1.521578	0.055543	1.469050
C113	C	0.978264	-0.512530	0.933695
C114	C	1.478264	-0.012530	1.433695
C115	C	0.978256	-0.512561	0.857046
C116	C	1.478256	-0.012561	1.357046
C117	C	0.978253	-0.512580	0.795955
C118	C	1.478253	-0.012580	1.295955
H119	H	0.592298	-0.636423	0.404556
H120	H	1.092298	-0.136423	0.904556
N121	N	0.372103	-0.650546	0.413534
N122	N	0.872103	-0.150546	0.913534
N123	N	0.411570	-0.613179	0.456701
N124	N	0.911570	-0.113179	0.956701
H125	H	0.437076	-0.662336	0.487881
H126	H	0.937076	-0.162336	0.987881
N127	N	0.944037	-0.938152	0.198833
N128	N	1.444037	-0.438152	0.698833
N129	N	0.888230	-0.961711	0.173415
N130	N	1.388230	-0.461711	0.673415
H131	H	0.875787	-0.934346	0.127127
H132	H	1.375787	-0.434346	0.627127
N133	N	0.884906	-0.937917	0.419205
N134	N	1.384906	-0.437917	0.919205
N135	N	0.877508	-0.840160	0.427212
N136	N	1.377508	-0.340160	0.927212
H137	H	0.843571	-0.812644	0.461005
H138	H	1.343571	-0.312644	0.961005
H139	H	0.236496	-0.389122	0.247783
H140	H	0.736496	0.110878	0.747783
N141	N	1.012244	-1.086497	0.453460
N142	N	1.512244	-0.586497	0.953460
N143	N	1.015574	-1.184250	0.463823
N144	N	1.515574	-0.684250	0.963823
H145	H	1.027945	-1.211760	0.510096
H146	H	1.527945	-0.711760	1.010096
N147	N	1.071478	-1.086210	0.232984
N148	N	1.571478	-0.586210	0.732984
N149	N	1.065308	-1.063358	0.171881
N150	N	1.565308	-0.563358	0.671881
H151	H	1.099214	-1.090673	0.137991
H152	H	1.599214	-0.590673	0.637991
H153	H	0.864280	-1.078946	0.295564
H154	H	1.364280	-0.578946	0.795564
H155	H	0.720500	-0.389075	0.247748
H156	H	1.220500	0.110925	0.747748
N157	N	0.890733	-0.650111	0.932902
N158	N	1.390733	-0.150111	1.432902
N159	N	0.890720	-0.650122	0.869789
N160	N	1.390720	-0.150122	1.369789
H161	H	0.859475	-0.699226	0.844276
H162	H	1.359475	-0.199226	1.344276
N163	N	0.229200	-0.650581	0.413534
N164	N	0.729200	-0.150581	0.913534
N165	N	0.166088	-0.650583	0.413536
N166	N	0.666088	-0.150583	0.913536
H167	H	0.140591	-0.699763	0.444706
H168	H	0.640591	-0.199763	0.944706
H169	H	1.092106	-0.945498	0.356826
H170	H	1.592106	-0.445498	0.856826
H171	H	0.899675	-0.636086	0.712719
H172	H	1.399675	-0.136086	1.212719
N173	N	1.065769	-0.375075	0.577212
N174	N	1.565769	0.124925	1.077212
N175	N	1.104431	-0.314298	0.608791
N176	N	1.604431	0.185702	1.108791
H177	H	1.135674	-0.265200	0.583315
H178	H	1.635674	0.234800	1.083315
H179	H	0.720532	-0.636419	0.404541
H180	H	1.220532	-0.136419	0.904541
H181	H	1.056806	-0.389126	0.712760
H182	H	1.556806	0.110874	1.212760
H183	H	1.056837	-0.389047	0.940287
H184	H	1.556837	0.110953	1.440287
H185	H	1.056853	-0.389000	1.068531
H186	H	1.556853	0.111000	1.568531
H187	H	0.592254	-0.389094	0.247761
H188	H	1.092254	0.110906	0.747761
H189	H	0.364730	-0.389113	0.247769
H190	H	0.864730	0.110887	0.747769
H191	H	0.899649	-0.636130	0.584473
H192	H	1.399649	-0.136130	1.084473
N193	N	0.890747	-0.650073	1.075793
N194	N	1.390747	-0.150073	1.575793
N195	N	0.852076	-0.710843	1.044219
N196	N	1.352076	-0.210843	1.544219
H197	H	0.820834	-0.759937	1.069701
H198	H	1.320834	-0.259937	1.569701
