data_functionalizedCrystal
_audit_creation_method	'MofGen! by Chris Wilmer'
_symmetry_space_group_name_H-M	'P1'
_symmetry_Int_Tables_number	1
_symmetry_cell_setting	triclinic
loop_
_symmetry_equiv_pos_as_xyz
  x,y,z
_cell_length_a	15.625950
_cell_length_b	11.792254
_cell_length_c	10.268362
_cell_angle_alpha	89.994545
_cell_angle_beta	108.068824
_cell_angle_gamma	84.222761
loop_
_atom_site_label
_atom_site_type_symbol
_atom_site_fract_x
_atom_site_fract_y
_atom_site_fract_z
O1	O	1.196796	0.148273	0.456710
O2	O	0.934439	0.165905	0.332847
O3	O	1.071978	-0.008120	0.397791
O4	O	1.059257	0.322297	0.391766
O5	O	1.071966	-0.008127	0.614386
O6	O	0.934427	0.165897	0.549442
O7	O	1.196784	0.148265	0.673305
Cu8	Cu	1.065604	0.157081	0.631150
Cu9	Cu	1.065618	0.157089	0.375002
O10	O	1.059244	0.322290	0.608361
C11	C	0.900845	0.165099	0.425288
C12	C	0.800765	0.162694	0.378039
C13	C	0.471487	0.154829	0.812812
C14	C	0.377444	0.152592	0.768354
C15	C	0.377503	0.152601	0.532253
C16	C	0.471548	0.154844	0.576691
C17	C	0.518532	0.155956	0.716973
C18	C	0.518593	0.155971	0.480852
C19	C	0.612630	0.158207	0.525288
C20	C	0.659621	0.159316	0.665563
C21	C	0.612569	0.158193	0.761409
C22	C	0.471608	0.154850	0.340571
C23	C	0.518653	0.155977	0.244732
C24	C	0.612691	0.158222	0.289167
C25	C	0.659682	0.159331	0.429442
C26	C	0.659744	0.159346	0.193321
C27	C	0.753780	0.161582	0.237757
C28	C	0.753719	0.161567	0.473878
C29	C	1.071171	-0.050409	0.505709
C30	C	1.068772	-0.176408	0.504576
C31	C	1.066823	-0.278732	0.503651
C32	C	1.064386	-0.407104	0.502489
C33	C	1.230377	0.149071	0.580861
C34	C	1.330458	0.151476	0.628102
C35	C	1.060052	0.364579	0.500440
C36	C	1.062450	0.490578	0.501565
N37	N	1.065601	0.157074	0.811315
N38	N	1.065629	0.157087	0.194841
C39	C	1.065614	0.157087	1.076991
C40	C	1.065604	0.157083	0.929149
H41	H	0.736192	0.161136	0.701741
Br42	Br	0.313600	0.151036	0.898439
H43	H	0.339236	0.151690	0.418035
H44	H	0.480386	0.155066	0.130514
Br45	Br	0.535258	0.156359	1.003197
H46	H	0.650825	0.159116	0.875639
Br47	Br	0.817491	0.163097	0.664263
Br48	Br	0.817635	0.163104	0.107690
H49	H	0.395037	0.153035	0.304396
H50	H	0.621476	0.158428	0.079104
