data_functionalizedCrystal
_audit_creation_method	'MofGen! by Chris Wilmer'
_symmetry_space_group_name_H-M	'P1'
_symmetry_Int_Tables_number	1
_symmetry_cell_setting	triclinic
loop_
_symmetry_equiv_pos_as_xyz
  x,y,z
_cell_length_a	19.077105
_cell_length_b	10.686203
_cell_length_c	10.686551
_cell_angle_alpha	99.081336
_cell_angle_beta	83.139015
_cell_angle_gamma	96.834708
loop_
_atom_site_label
_atom_site_type_symbol
_atom_site_fract_x
_atom_site_fract_y
_atom_site_fract_z
Zn1	Zn	1.130897	0.525939	-0.754644
Zn2	Zn	1.130834	0.754514	-0.526149
Zn3	Zn	1.004080	0.533796	-0.533927
Zn4	Zn	1.020949	0.730768	-0.731005
O5	O	1.071690	0.636254	-0.636431
O6	O	1.229950	0.562910	-0.730971
O7	O	1.106934	0.738461	-0.349078
O8	O	1.013870	0.354660	-0.576354
O9	O	1.229903	0.730843	-0.563097
O10	O	1.107042	0.348888	-0.738513
O11	O	1.013809	0.576300	-0.354792
O12	O	0.907257	0.553275	-0.553432
O13	O	1.042619	0.690372	-0.912244
O14	O	0.919650	0.697990	-0.698224
O15	O	1.123398	0.539885	-0.929611
O16	O	1.123291	0.929457	-0.540176
O17	O	1.042558	0.912012	-0.690682
C18	C	0.887768	0.623909	-0.624108
C19	C	0.809088	0.618656	-0.618864
C20	C	1.084768	0.966911	-0.612049
C21	C	1.090430	1.108369	-0.601665
C22	C	0.778595	0.691665	-0.691649
C23	C	0.704666	0.686712	-0.686729
C24	C	0.661232	0.608756	-0.609016
C25	C	0.691730	0.535738	-0.536229
C26	C	0.765658	0.540685	-0.541156
C27	C	0.439438	0.585860	-0.586216
C28	C	0.365506	0.580921	-0.581291
C29	C	0.378447	0.731895	-0.731793
C30	C	0.452375	0.736841	-0.736708
C31	C	0.482867	0.663818	-0.663926
N32	N	0.585665	0.603694	-0.603982
N33	N	0.558433	0.668873	-0.668968
C34	C	1.256330	0.648649	-0.648803
C35	C	1.335013	0.653931	-0.654076
C36	C	1.084897	0.611603	-0.968399
C37	C	1.090525	0.601099	-1.109864
C38	C	1.058575	1.304304	-0.660951
C39	C	1.052970	1.162843	-0.671433
C40	C	1.058571	0.660721	-0.305764
C41	C	1.053066	0.670876	-0.164336
H42	H	0.679842	0.746166	-0.745997
H43	H	0.487735	0.800324	-0.799987
C44	C	0.366753	0.776689	-0.941096
C45	C	0.344928	0.812141	-0.811809
H46	H	0.346062	0.826234	-0.990498
H47	H	0.352002	0.689014	-0.965339
H48	H	0.416998	0.790799	-0.955134
H49	H	0.294683	0.798022	-0.797770
H50	H	0.359675	0.899836	-0.787558
H51	H	1.126907	0.533324	-1.171460
H52	H	0.330143	0.517424	-0.518017
C53	C	0.783953	0.840384	-0.839931
C54	C	0.826334	0.777354	-0.777079
H55	H	0.813425	0.893276	-0.892681
H56	H	0.754829	0.891173	-0.778895
H57	H	0.754870	0.779442	-0.890860
H58	H	0.855413	0.838296	-0.726142
H59	H	0.855471	0.726562	-0.838123
C60	C	1.025486	0.887090	-1.104948
C61	C	1.003963	0.762382	-1.081194
H62	H	0.995175	0.943583	-1.053606
H63	H	1.022945	0.891790	-1.192285
H64	H	1.072933	0.910479	-1.085042
H65	H	0.956517	0.738990	-1.101110
H66	H	1.006497	0.757677	-0.993838
C67	C	0.419211	0.436134	-0.436960
C68	C	0.472949	0.505596	-0.506212
H69	H	0.439902	0.386585	-0.387564
H70	H	0.390668	0.381499	-0.494156
H71	H	0.390624	0.493216	-0.382177
H72	H	0.501532	0.448513	-0.561002
H73	H	0.501503	0.560236	-0.449010
H74	H	0.790484	0.481225	-0.481894
C75	C	0.601053	0.524928	-0.360840
C76	C	0.643988	0.450042	-0.450809
H77	H	0.571583	0.472021	-0.308101
H78	H	0.572314	0.567692	-0.403484
H79	H	0.630145	0.585844	-0.309906
H80	H	0.614896	0.389131	-0.501750
H81	H	0.672730	0.407256	-0.408162
C82	C	1.043954	0.999814	-0.852825
C83	C	1.003832	1.079719	-0.762809
H84	H	1.013618	0.948498	-0.909241
H85	H	1.066689	0.946694	-0.810443
H86	H	1.078759	1.050066	-0.899851
H87	H	0.969031	1.029466	-0.715776
H88	H	0.981086	1.132845	-0.805194
H89	H	1.126829	1.169958	-0.533975
