data_functionalizedCrystal
_audit_creation_method	'MofGen! by Chris Wilmer'
_symmetry_space_group_name_H-M	'P1'
_symmetry_Int_Tables_number	1
_symmetry_cell_setting	triclinic
loop_
_symmetry_equiv_pos_as_xyz
  x,y,z
_cell_length_a	12.759401
_cell_length_b	19.076808
_cell_length_c	12.759393
_cell_angle_alpha	87.665862
_cell_angle_beta	89.980324
_cell_angle_gamma	92.323972
loop_
_atom_site_label
_atom_site_type_symbol
_atom_site_fract_x
_atom_site_fract_y
_atom_site_fract_z
Zn1	Zn	1.589385	-0.280176	-0.577141
Zn2	Zn	1.582183	-0.397897	-0.394384
Zn3	Zn	1.413681	-0.280211	-0.401478
Zn4	Zn	1.406585	-0.397845	-0.570028
O5	O	1.497959	-0.339032	-0.485758
O6	O	1.735450	-0.295799	-0.552906
O7	O	1.559786	-0.382322	-0.248302
O8	O	1.442973	-0.181710	-0.430726
O9	O	1.730159	-0.382288	-0.418635
O10	O	1.572061	-0.181684	-0.559785
O11	O	1.435989	-0.295859	-0.253514
O12	O	1.265720	-0.295809	-0.423829
O13	O	1.430879	-0.382200	-0.717995
O14	O	1.260506	-0.382234	-0.547662
O15	O	1.565180	-0.295749	-0.723221
O16	O	1.552906	-0.496387	-0.411738
O17	O	1.423895	-0.496349	-0.540783
C18	C	1.224992	-0.339020	-0.485744
C19	C	1.108215	-0.339032	-0.485762
C20	C	1.056104	-0.294078	-0.555775
C21	C	0.946379	-0.294086	-0.555782
C22	C	0.940886	-0.384006	-0.415758
C23	C	1.050609	-0.383995	-0.415747
C24	C	1.486877	-0.521907	-0.474742
C25	C	1.482233	-0.600142	-0.470064
C26	C	1.547210	-0.636823	-0.535115
C27	C	1.542842	-0.710332	-0.530722
C28	C	1.473501	-0.747160	-0.461272
C29	C	1.408517	-0.710474	-0.396218
C30	C	1.412880	-0.636966	-0.400617
C31	C	1.453244	-0.967014	-0.440908
C32	C	1.448887	-1.040528	-0.436511
C33	C	1.583212	-1.040381	-0.571017
C34	C	1.587574	-0.966871	-0.575406
C35	C	1.522586	-0.930192	-0.510356
N36	N	1.469037	-0.822299	-0.456777
N37	N	1.527045	-0.855054	-0.514857
C38	C	1.771991	-0.339045	-0.485773
C39	C	1.888767	-0.339050	-0.485779
C40	C	1.498041	-0.338965	-0.759795
C41	C	1.498077	-0.338936	-0.876574
C42	C	1.509112	-0.155443	-0.496840
C43	C	1.513865	-0.077209	-0.501562
C44	C	1.568013	-0.293914	-0.934159
C45	C	1.568033	-0.293883	-1.043885
C46	C	1.428176	-0.383904	-1.038431
C47	C	1.428152	-0.383930	-0.928707
C48	C	1.497940	-0.339049	-0.212789
C49	C	1.498120	-0.338879	-0.096024
H50	H	0.893970	-0.420613	-0.358755
O51	O	1.101070	-0.427732	-0.347695
C52	C	1.026700	-0.467412	-0.285889
H53	H	0.948355	-0.469895	-0.328772
H54	H	1.055053	-0.522855	-0.271200
H55	H	1.016557	-0.441572	-0.207718
O56	O	1.654963	-0.931208	-0.642959
C57	C	1.711402	-0.979347	-0.699411
H58	H	1.665252	-1.031768	-0.699888
H59	H	1.723843	-0.958058	-0.783469
H60	H	1.790746	-0.987142	-0.660530
O61	O	1.360360	-0.427589	-1.089238
C62	C	1.375359	-0.417902	-1.198433
H63	H	1.457844	-0.394852	-1.214822
H64	H	1.365037	-0.470614	-1.236949
H65	H	1.315328	-0.380407	-1.231826
O66	O	1.635926	-0.250051	-1.099710
C67	C	1.617209	-0.179905	-1.077141
H68	H	1.576891	-0.178466	-0.997557
H69	H	1.694952	-0.148350	-1.075298
H70	H	1.564651	-0.156174	-1.140317
H71	H	1.392417	-1.070511	-0.379956
H72	H	1.603679	-0.606842	-0.591664
H73	H	1.103003	-0.257465	-0.612782
O74	O	1.360320	-0.427769	-0.872802
C75	C	1.379003	-0.497917	-0.895395
H76	H	1.462724	-0.501470	-0.925358
H77	H	1.367826	-0.532704	-0.821132
H78	H	1.321568	-0.516299	-0.957962
O79	O	0.895923	-0.250397	-0.623896
C80	C	0.970301	-0.210699	-0.685666
H81	H	1.046772	-0.239527	-0.687487
H82	H	0.939085	-0.203262	-0.768914
H83	H	0.985189	-0.157209	-0.650549
O84	O	1.606084	-0.745855	-0.593935
C85	C	1.668215	-0.697587	-0.656182
H86	H	1.674963	-0.645204	-0.616290
H87	H	1.749736	-0.718768	-0.666164
H88	H	1.630190	-0.689759	-0.736423
O89	O	1.646173	-1.076047	-0.634319
C90	C	1.583789	-1.118581	-0.699556
H91	H	1.502353	-1.096470	-0.707291
H92	H	1.621693	-1.119356	-0.780399
H93	H	1.576877	-1.174308	-0.663733
H94	H	1.624947	-0.257275	-0.891716
O95	O	1.390090	-0.931499	-0.377603
C96	C	1.327945	-0.979770	-0.315375
H97	H	1.367873	-1.032145	-0.308653
H98	H	1.318050	-0.958582	-0.233852
H99	H	1.247661	-0.987614	-0.353300
O100	O	1.341252	-0.746355	-0.328780
C101	C	1.351316	-0.819101	-0.338860
H102	H	1.431785	-0.829077	-0.372743
H103	H	1.342573	-0.847078	-0.258482
H104	H	1.287729	-0.839973	-0.393503
H105	H	1.359968	-0.607101	-0.347648
