data_functionalizedCrystal
_audit_creation_method	'MofGen! by Chris Wilmer'
_symmetry_space_group_name_H-M	'P1'
_symmetry_Int_Tables_number	1
_symmetry_cell_setting	triclinic
loop_
_symmetry_equiv_pos_as_xyz
  x,y,z
_cell_length_a	23.196402
_cell_length_b	14.809374
_cell_length_c	14.809478
_cell_angle_alpha	81.159060
_cell_angle_beta	114.590184
_cell_angle_gamma	52.851373
loop_
_atom_site_label
_atom_site_type_symbol
_atom_site_fract_x
_atom_site_fract_y
_atom_site_fract_z
Zr1	Zr	0.491982	0.989368	0.009725
O2	O	0.639488	0.795439	0.177277
O3	O	0.363371	1.048802	-0.041632
O4	O	0.488473	1.014343	0.152902
O5	O	0.510564	0.857098	-0.170717
O6	O	0.464211	1.187036	0.133667
O7	O	0.514385	0.829898	-0.017257
O8	O	0.240426	1.248677	-0.214318
O9	O	0.734349	0.795458	0.177269
O10	O	0.391166	1.203048	-0.077898
O11	O	0.406420	1.094468	-0.178068
O12	O	0.553712	1.053897	0.050971
O13	O	0.568966	0.945317	-0.049200
Zr14	Zr	0.447193	1.308176	-0.265702
Zr15	Zr	0.453287	1.264795	-0.020952
Zr16	Zr	0.485887	1.032749	-0.235025
Zr17	Zr	0.643275	0.989398	0.009713
Zr18	Zr	0.295900	1.308146	-0.265690
O19	O	0.575804	1.248742	-0.214345
O20	O	0.584469	1.187060	0.133658
O21	O	0.630822	0.857121	-0.170726
O22	O	0.299687	1.502105	-0.433254
O23	O	0.308352	1.440422	-0.085251
O24	O	0.354705	1.110484	-0.389635
O25	O	0.428610	1.440446	-0.085260
O26	O	0.450701	1.283201	-0.408879
O27	O	0.474963	1.110507	-0.389645
O28	O	0.424789	1.467646	-0.238720
O29	O	0.703592	1.014385	0.152885
O30	O	0.235582	1.283159	-0.408862
O31	O	0.204825	1.502086	-0.433246
O32	O	0.209670	1.467604	-0.238702
O33	O	0.729505	0.829940	-0.017275
O34	O	0.698748	1.048867	-0.041659
O35	O	0.385462	1.243647	-0.306948
O36	O	0.370208	1.352227	-0.206777
O37	O	0.532754	1.203076	-0.077909
O38	O	0.548008	1.094496	-0.178079
C39	C	0.280343	1.148735	-0.127973
C40	C	0.216115	1.148723	-0.127968
C41	C	0.118215	1.258845	-0.223099
C42	C	0.057853	1.258856	-0.223111
C43	C	0.095395	1.148750	-0.127974
C44	C	0.193311	1.038610	-0.032834
C45	C	0.253671	1.038596	-0.032831
C46	C	0.046539	1.100838	-0.021488
C47	C	-0.013823	1.100861	-0.021492
C48	C	-0.090772	1.148786	-0.127983
C49	C	-0.107364	1.196717	-0.234481
C50	C	-0.047005	1.196703	-0.234478
C51	C	0.029952	1.148753	-0.127968
C52	C	-0.254127	1.258927	-0.223134
C53	C	-0.314487	1.258929	-0.223145
C54	C	-0.179027	1.038686	-0.032860
C55	C	-0.118669	1.038680	-0.032858
C56	C	-0.156226	1.148807	-0.127995
C57	C	0.517988	0.804256	-0.089616
C58	C	0.534414	0.687330	-0.076593
C59	C	0.461104	0.709190	-0.134714
C60	C	0.478080	0.588343	-0.121255
C61	C	0.658832	1.148809	-0.128004
C62	C	0.723060	1.148821	-0.128009
C63	C	0.477211	1.094509	0.178156
C64	C	0.479798	1.076092	0.282059
C65	C	0.421187	1.493288	-0.166361
C66	C	0.404760	1.610214	-0.179384
C67	C	0.470923	1.139263	0.425704
C68	C	0.468248	1.158303	0.318314
C69	C	0.461963	1.203038	0.565866
C70	C	0.459375	1.221462	0.461962
C71	C	0.231942	1.493251	-0.166346
C72	C	0.151287	1.610165	-0.179364
C73	C	0.272719	1.202998	-0.434118
C74	C	0.205904	1.221402	-0.538016
C75	C	0.224319	1.547515	-0.472491
C76	C	0.141077	1.682844	-0.589412
C77	C	0.714856	0.750029	0.216514
C78	C	0.798098	0.614700	0.333435
C79	C	0.707232	0.804292	-0.089631
C80	C	0.787887	0.687379	-0.076613
C81	C	0.666455	1.094546	0.178141
C82	C	0.733270	1.076142	0.282039
C83	C	0.124351	1.587197	-0.118193
C84	C	0.048578	1.697035	-0.130401
C85	C	-0.000262	1.829840	-0.203787
C86	C	0.026680	1.852806	-0.264959
C87	C	0.102457	1.742968	-0.252744
C88	C	0.163587	1.307916	-0.654091
C89	C	0.100816	1.325205	-0.751723
C90	C	0.080358	1.255987	-0.733277
C91	C	0.122682	1.169463	-0.617189
C92	C	0.185457	1.152167	-0.519560
C93	C	0.094021	1.803086	-0.592032
C94	C	0.015814	1.930251	-0.701884
C95	C	-0.015341	1.937172	-0.809113
C96	C	0.031722	1.816917	-0.806489
C97	C	0.109933	1.689755	-0.696639
C98	C	0.845160	0.494458	0.336055
C99	C	0.923387	0.367293	0.445907
C100	C	0.954544	0.360372	0.553136
C101	C	0.907477	0.480627	0.550512
C102	C	0.829257	0.607789	0.440662
C103	C	0.814830	0.710345	-0.137774
C104	C	0.890620	0.600503	-0.125539
C105	C	0.939462	0.467696	-0.052150
C106	C	0.912517	0.444732	0.009018
C107	C	0.836732	0.554572	-0.003211
C108	C	0.753706	1.145380	0.263555
C109	C	0.816475	1.128114	0.361166
C110	C	0.858811	1.041602	0.477260
C111	C	0.838369	0.972362	0.495742
C112	C	0.775597	0.989636	0.398131
H113	H	-0.284708	1.348594	-0.300605
C114	C	0.443334	1.335589	0.396490
N115	N	0.431250	1.421554	0.347176
C116	C	1.022823	0.346883	-0.038717
N117	N	1.085607	0.255893	-0.028607
H118	H	-0.079026	2.040725	-0.898552
C119	C	0.076898	1.379983	-0.327758
N120	N	0.045779	1.471222	-0.406590
C121	C	0.359332	0.855335	-0.215394
N122	N	0.282675	0.965413	-0.276160
C123	C	-0.083622	1.950653	-0.217220
N124	N	-0.146412	2.041645	-0.227338
H125	H	0.456375	1.242784	0.269853
H126	H	0.952296	0.336586	0.068771
C127	C	0.495835	0.961963	0.347523
N128	N	0.507917	0.875999	0.396833
H129	H	0.006345	1.822573	-0.893810
H130	H	0.909923	1.027548	0.556730
H131	H	-0.013096	1.960950	-0.324709
C132	C	0.975146	0.235029	0.448766
N133	N	1.014128	0.135412	0.450917
C134	C	1.040585	0.220478	0.673965
N135	N	1.105388	0.115105	0.764971
C136	C	0.579858	0.442194	-0.040563
N137	N	0.656516	0.332114	0.020216
H138	H	-0.148458	0.949034	0.044600
C139	C	0.302981	0.756361	-0.260077
N140	N	0.226323	0.866439	-0.320852
C141	C	0.161684	1.557495	-0.693776
N142	N	0.200662	1.457879	-0.691628
C143	C	0.838952	1.204283	0.340810
N144	N	0.855881	1.261654	0.325475
C145	C	-0.035950	2.062514	-0.704743
N146	N	-0.074938	2.162131	-0.706894
H147	H	-0.170015	1.235733	-0.321194
C148	C	0.884911	0.877255	0.623450
N149	N	0.919959	0.805635	0.719641
H150	H	0.932856	0.474974	0.637831
C151	C	0.128280	1.795506	-0.474092
N152	N	0.154082	1.789808	-0.385263
C153	C	0.178067	1.441117	-0.037453
N154	N	0.218527	1.331091	0.023371
C155	C	0.018949	1.671745	-0.063113
N156	N	-0.003367	1.652693	-0.012434
C157	C	0.054259	1.420403	-0.879411
N158	N	0.019192	1.492110	-0.975584
H159	H	0.124378	1.761689	-0.302565
C160	C	0.636187	0.541183	0.004095
N161	N	0.712844	0.431103	0.064874
H162	H	0.912545	0.619228	-0.175356
C163	C	0.486942	1.025156	0.491158
N164	N	0.499004	0.939211	0.540455
H165	H	0.819799	0.500068	0.248755
C166	C	0.777485	0.740049	0.437799
N167	N	0.738493	0.839665	0.435651
C168	C	0.761120	0.856423	-0.218504
N169	N	0.720674	0.966445	-0.279307
H170	H	0.180235	1.364286	-0.669133
H171	H	0.814800	0.535854	0.046592
C172	C	0.100163	1.093337	-0.596920
N173	N	0.083195	1.036008	-0.581657
H174	H	-0.021871	1.348533	-0.300581
H175	H	-0.394206	1.348604	-0.300619
H176	H	0.029241	1.270082	-0.812784
H177	H	0.219905	1.081723	-0.425049
H178	H	-0.060516	1.235727	-0.321191
H179	H	-0.038953	0.949012	0.044613
H180	H	0.719244	1.215825	0.169034
H181	H	0.758967	0.933246	0.413198
H182	H	-0.000309	1.061837	0.065224
H183	H	0.223874	0.948960	0.044625
C184	C	0.131182	1.048116	0.095668
N185	N	0.194932	1.008408	0.183907
H186	H	0.333391	0.948915	0.044636
