data_functionalizedCrystal
_audit_creation_method	'MofGen! by Chris Wilmer'
_symmetry_space_group_name_H-M	'P1'
_symmetry_Int_Tables_number	1
_symmetry_cell_setting	triclinic
loop_
_symmetry_equiv_pos_as_xyz
  x,y,z
_cell_length_a	12.837943
_cell_length_b	15.995350
_cell_length_c	11.295483
_cell_angle_alpha	94.097343
_cell_angle_beta	85.461227
_cell_angle_gamma	89.160657
loop_
_atom_site_label
_atom_site_type_symbol
_atom_site_fract_x
_atom_site_fract_y
_atom_site_fract_z
O1	O	1.382434	0.212589	-0.098992
O2	O	1.080629	0.201836	-0.099000
O3	O	1.239781	0.085983	-0.098995
O4	O	1.223282	0.328442	-0.098997
O5	O	1.225803	0.096142	0.099056
O6	O	1.066650	0.211995	0.099051
O7	O	1.368455	0.222747	0.099058
Cu8	Cu	1.216276	0.218299	0.117138
Cu9	Cu	1.232808	0.206285	-0.117080
O10	O	1.209303	0.338600	0.099053
C11	C	1.035019	0.203283	0.000024
C12	C	0.919942	0.192449	0.000021
C13	C	0.678983	0.322688	0.000037
C14	C	0.570857	0.312513	0.000035
C15	C	0.595562	0.161925	0.000024
C16	C	0.703688	0.172100	0.000026
C17	C	0.745394	0.252484	0.000031
C18	C	0.853523	0.262658	0.000024
C19	C	0.878225	0.112072	0.000021
C20	C	0.770100	0.101896	0.000019
C21	C	1.232110	0.059813	0.000028
C22	C	1.230066	-0.033301	0.000021
C23	C	1.222721	-0.371634	0.000025
C24	C	1.109407	-0.333266	-0.000422
C25	C	1.111421	-0.236390	0.000025
C26	C	1.226364	-0.203783	0.000023
C27	C	1.274288	-0.234599	0.113118
C28	C	1.271434	-0.331457	0.113213
C29	C	1.289672	-0.343180	-0.112007
C30	C	1.289750	-0.246314	-0.113502
C31	C	1.228429	-0.108920	0.000025
C32	C	1.220659	-0.466496	0.000031
C33	C	1.414065	0.221301	0.000031
C34	C	1.529143	0.232134	0.000027
C35	C	1.216974	0.364770	0.000027
C36	C	1.219019	0.457884	0.000026
N37	N	1.204657	0.226748	0.281874
N38	N	1.244436	0.197830	-0.281816
C39	C	1.328081	0.136958	0.531167
C40	C	1.319308	0.143350	0.655831
C41	C	1.178331	0.245919	0.655866
C42	C	1.187105	0.239527	0.531203
C43	C	1.261983	0.185046	0.468858
C44	C	1.270762	0.178659	0.344192
C45	C	1.129781	0.281223	0.344230
C46	C	1.121007	0.287615	0.468893
H47	H	1.073197	-0.215632	-0.081047
O48	O	1.400844	0.083974	0.470783
C49	C	1.539802	-0.017038	0.483899
C50	C	1.457426	0.042918	0.552430
H51	H	1.585586	-0.050235	0.549881
H52	H	1.499211	-0.065504	0.425577
H53	H	1.595643	0.020289	0.425491
H54	H	1.401561	0.005661	0.610903
H55	H	1.498087	0.091384	0.610677
H56	H	1.075962	0.320382	0.293483
O57	O	1.343385	0.125601	0.283707
C58	C	1.406805	-0.017087	0.245692
C59	C	1.324485	0.042919	0.314221
H60	H	1.391567	-0.083945	0.270356
H61	H	1.401751	-0.013494	0.145866
H62	H	1.488097	0.001772	0.270183
H63	H	1.243156	0.024101	0.289829
H64	H	1.329631	0.039317	0.414031
O65	O	0.729714	0.023766	-0.000149
C66	C	0.724934	-0.113290	-0.102816
C67	C	0.770766	-0.024844	-0.102753
H68	H	0.758089	-0.152612	-0.185774
H69	H	0.746471	-0.144236	-0.019996
H70	H	0.636244	-0.108480	-0.102757
H71	H	0.859460	-0.029580	-0.102853
H72	H	0.749147	0.006068	-0.185566
H73	H	1.061448	-0.207890	0.081232
O74	O	1.105453	0.298730	0.716392
C75	C	0.922524	0.335297	0.754543
C76	C	1.004950	0.275422	0.685940
H77	H	0.841250	0.316486	0.729929
H78	H	0.927519	0.331586	0.854358
H79	H	0.937794	0.402193	0.730067
H80	H	0.989734	0.208501	0.710316
H81	H	0.999934	0.279206	0.586142
H82	H	0.561579	0.096485	0.000118
H83	H	1.373295	-0.368312	-0.112769
H84	H	1.060039	0.331970	0.519669
H85	H	1.254781	-0.226617	-0.197167
H86	H	1.069828	-0.359572	-0.081525
H87	H	0.932310	0.054906	0.000008
H88	H	0.887477	0.328111	0.000030
H89	H	1.373130	0.104191	0.706560
H90	H	1.358437	-0.213520	0.117323
H91	H	0.712940	0.388139	0.000039
H92	H	0.516788	0.369680	0.000043
H93	H	1.058612	-0.352322	0.080227
H94	H	1.229518	-0.204999	0.197282
O95	O	1.215607	-0.351859	0.214097
C96	C	1.117412	-0.301254	0.396418
C97	C	1.180596	-0.278037	0.282203
H98	H	1.089106	-0.241583	0.451525
H99	H	1.047253	-0.339740	0.371693
H100	H	1.169170	-0.339637	0.450633
H101	H	1.128923	-0.239626	0.227935
H102	H	1.250762	-0.239592	0.307010
O103	O	1.370330	-0.361557	0.119404
C104	C	1.551993	-0.328498	0.130372
C105	C	1.440047	-0.294302	0.123383
H106	H	1.608393	-0.274141	0.133565
H107	H	1.555586	-0.363908	0.214084
H108	H	1.574883	-0.372779	0.048546
H109	H	1.417086	-0.249988	0.205148
H110	H	1.436515	-0.258942	0.039619
O111	O	1.252695	-0.376312	-0.214359
C112	C	1.180654	-0.348665	-0.398610
C113	C	1.222542	-0.311033	-0.282769
H114	H	1.156244	-0.295905	-0.453940
H115	H	1.244404	-0.389136	-0.451690
H116	H	1.110230	-0.388826	-0.375913
H117	H	1.292949	-0.270834	-0.305359
H118	H	1.158728	-0.270610	-0.229721
O119	O	1.390255	-0.220263	-0.121594
C120	C	1.505297	-0.103232	-0.137883
C121	C	1.391429	-0.132631	-0.128722
H122	H	1.506285	-0.032382	-0.143674
H123	H	1.544899	-0.120303	-0.055787
H124	H	1.549014	-0.135265	-0.221065
H125	H	1.347625	-0.100614	-0.045590
H126	H	1.351907	-0.115574	-0.210877
