data_functionalizedCrystal
_audit_creation_method	'MofGen! by Chris Wilmer'
_symmetry_space_group_name_H-M	'P1'
_symmetry_Int_Tables_number	1
_symmetry_cell_setting	triclinic
loop_
_symmetry_equiv_pos_as_xyz
  x,y,z
_cell_length_a	6.817900
_cell_length_b	10.773890
_cell_length_c	11.102193
_cell_angle_alpha	95.424971
_cell_angle_beta	108.604059
_cell_angle_gamma	96.645716
loop_
_atom_site_label
_atom_site_type_symbol
_atom_site_fract_x
_atom_site_fract_y
_atom_site_fract_z
V1	V	-4.050643	-0.172603	-0.394187
O2	O	-4.073469	0.008285	-0.388814
O3	O	-3.967597	-0.342235	-0.389442
O4	O	-4.028352	-0.169952	-0.567040
O5	O	-4.012294	-0.165190	-0.209986
V6	V	-4.535377	-0.150967	-0.372404
O7	O	-4.309245	-0.220066	-0.441970
O8	O	-4.726973	-0.103504	-0.324621
O9	O	-4.395217	0.018665	-0.377149
O10	O	-4.629948	-0.331855	-0.377777
O11	O	-4.691124	-0.158380	-0.556605
O12	O	-4.334462	-0.153618	-0.199551
C13	C	-3.803325	-0.383587	-0.382695
C14	C	-3.816886	-0.522263	-0.379968
C15	C	-3.995677	-0.590126	-0.384707
C16	C	-4.009697	-0.733455	-0.381888
C17	C	-3.880823	-0.163822	-0.609238
C18	C	-3.943652	-0.162777	-0.750533
C19	C	-3.983403	-0.391260	-0.784119
C20	C	-4.032788	-0.505006	-0.867291
C21	C	-4.091823	-0.504017	-1.000048
C22	C	-4.101478	-0.389270	-1.049636
C23	C	-4.052092	-0.275525	-0.966464
C24	C	-3.993052	-0.276526	-0.833705
C25	C	-4.012357	-0.047045	-0.932879
C26	C	-3.953307	-0.048031	-0.800120
C27	C	-4.022011	0.067701	-0.982467
C28	C	-3.972611	0.181450	-0.899294
C29	C	-3.913571	0.180456	-0.766529
C30	C	-3.903921	0.065715	-0.716949
C31	C	-4.222829	0.060010	-0.383893
C32	C	-4.188508	0.198685	-0.386628
C33	C	-4.145331	-0.159752	-0.157347
C34	C	-4.061742	-0.160790	-0.016051
H35	H	-4.331215	-0.753312	-0.392778
H36	H	-4.132039	-0.596638	-1.067768
C37	C	-3.652672	0.317784	-0.591713
C38	C	-3.859293	0.305488	-0.675106
H39	H	-3.619176	0.394972	-0.535272
H40	H	-3.560235	0.317422	-0.640111
H41	H	-3.638491	0.249304	-0.543185
H42	H	-3.873471	0.373964	-0.723641
H43	H	-3.951757	0.305861	-0.626703
H44	H	-3.980491	0.274867	-0.939681
C45	C	-3.980014	0.120615	-0.523672
C46	C	-3.839034	0.064629	-0.571019
H47	H	-3.939950	0.119948	-0.433580
H48	H	-4.116996	0.074649	-0.563998
H49	H	-3.978678	0.205226	-0.541310
H50	H	-3.840381	-0.019986	-0.553389
H51	H	-3.702016	0.110593	-0.530679
H52	H	-3.674199	-0.570274	-0.373831
H53	H	-3.935304	-0.392076	-0.676021
H54	H	-4.138370	-0.542116	-0.390858
C55	C	-4.267250	0.125427	-1.169530
C56	C	-4.086919	0.068786	-1.128397
H57	H	-4.307324	0.126089	-1.259623
H58	H	-4.239209	0.209581	-1.127102
H59	H	-4.377528	0.079006	-1.149780
H60	H	-3.976636	0.115213	-1.148139
H61	H	-4.114950	-0.015383	-1.170840
H62	H	-4.024927	-0.598430	-0.826902
C63	C	-4.207702	-0.512251	-1.258096
C64	C	-4.166383	-0.388183	-1.195566
H65	H	-4.247760	-0.511574	-1.348187
H66	H	-4.317991	-0.558642	-1.238354
H67	H	-4.085359	-0.550670	-1.230168
H68	H	-4.288732	-0.349766	-1.223487
H69	H	-4.056085	-0.341773	-1.215318
H70	H	-3.866997	-0.781461	-0.375751
