data_functionalizedCrystal
_audit_creation_method	'MofGen! by Chris Wilmer'
_symmetry_space_group_name_H-M	'P1'
_symmetry_Int_Tables_number	1
_symmetry_cell_setting	triclinic
loop_
_symmetry_equiv_pos_as_xyz
  x,y,z
_cell_length_a	13.635800
_cell_length_b	7.190378
_cell_length_c	7.190339
_cell_angle_alpha	97.677859
_cell_angle_beta	60.611724
_cell_angle_gamma	119.389020
loop_
_atom_site_label
_atom_site_type_symbol
_atom_site_fract_x
_atom_site_fract_y
_atom_site_fract_z
V1	V	-2.154344	-0.663518	0.291746
O2	O	-2.100810	-0.652439	-0.017473
O3	O	-2.172039	-0.657488	0.581805
O4	O	-2.172049	-0.953582	0.285743
O5	O	-2.100800	-0.354295	0.280638
V6	V	-2.385299	-0.626714	0.254939
O7	O	-2.308677	-0.744251	0.372485
O8	O	-2.456064	-0.545980	0.174199
O9	O	-2.256000	-0.632744	-0.035120
O10	O	-2.497531	-0.637793	0.564158
O11	O	-2.497541	-0.935937	0.266046
O12	O	-2.255990	-0.336650	0.260942
V13	V	-1.885291	-0.626714	0.254939
O14	O	-1.938835	-0.935937	0.266046
O15	O	-1.867586	-0.336650	0.260942
O16	O	-1.867596	-0.632744	-0.035120
O17	O	-1.938825	-0.637793	0.564158
V18	V	-1.654336	-0.663518	0.291746
O19	O	-1.730958	-0.545980	0.174199
O20	O	-1.583571	-0.744251	0.372485
O21	O	-1.783645	-0.953582	0.285743
O22	O	-1.542094	-0.354295	0.280638
O23	O	-1.542105	-0.652439	-0.017473
O24	O	-1.783635	-0.657488	0.581805
C25	C	-1.879823	-0.024329	0.274898
C26	C	-1.936258	-0.265900	0.271818
C27	C	-2.103385	-0.646645	0.652565
C28	C	-2.159818	-0.643597	0.894139
C29	C	-2.159840	-1.265907	0.271899
C30	C	-2.103390	-1.024328	0.274923
C31	C	-1.936256	-0.643599	-0.105866
C32	C	-1.879830	-0.646674	-0.347437
