data_functionalizedCrystal
_audit_creation_method	'MofGen! by Chris Wilmer'
_symmetry_space_group_name_H-M	'P1'
_symmetry_Int_Tables_number	1
_symmetry_cell_setting	triclinic
loop_
_symmetry_equiv_pos_as_xyz
  x,y,z
_cell_length_a	12.827893
_cell_length_b	15.297327
_cell_length_c	12.827885
_cell_angle_alpha	99.642715
_cell_angle_beta	89.980728
_cell_angle_gamma	99.706564
loop_
_atom_site_label
_atom_site_type_symbol
_atom_site_fract_x
_atom_site_fract_y
_atom_site_fract_z
Zn1	Zn	1.525601	-0.359117	-0.662774
Zn2	Zn	2.025601	0.140883	-0.162774
Zn3	Zn	1.495216	-0.510002	-0.518254
Zn4	Zn	1.995216	-0.010002	-0.018254
Zn5	Zn	1.350834	-0.359161	-0.488057
Zn6	Zn	1.850834	0.140839	0.011943
Zn7	Zn	1.320562	-0.509935	-0.692941
Zn8	Zn	1.820562	-0.009935	-0.192941
O9	O	1.423053	-0.434554	-0.590506
O10	O	1.923053	0.065446	-0.090506
O11	O	1.667805	-0.379142	-0.643616
O12	O	2.167805	0.120858	-0.143616
O13	O	1.476016	-0.490040	-0.368022
O14	O	1.976016	0.009960	0.131978
O15	O	1.399403	-0.232910	-0.485971
O16	O	1.899403	0.267090	0.014029
O17	O	1.645481	-0.489997	-0.537438
O18	O	2.145481	0.010003	-0.037438
O19	O	1.527804	-0.232878	-0.614335
O20	O	2.027804	0.267122	-0.114335
O21	O	1.369939	-0.379217	-0.345836
O22	O	1.869939	0.120783	0.154164
O23	O	1.200584	-0.379152	-0.515222
O24	O	1.700584	0.120848	-0.015222
O25	O	1.347808	-0.489883	-0.835166
O26	O	1.847808	0.010117	-0.335166
O27	O	1.178343	-0.489925	-0.665749
O28	O	1.678343	0.010075	-0.165749
O29	O	1.498450	-0.379077	-0.813003
O30	O	1.998450	0.120923	-0.313003
O31	O	1.446662	-0.636239	-0.566689
O32	O	1.946662	-0.136239	-0.066689
O33	O	1.318345	-0.636189	-0.695031
O34	O	1.818345	-0.136189	-0.195031
C35	C	1.151547	-0.434537	-0.590483
C36	C	1.651547	0.065463	-0.090483
C37	C	1.035391	-0.434551	-0.590502
C38	C	1.535391	0.065449	-0.090502
C39	C	1.375950	-0.668948	-0.637433
C40	C	1.875950	-0.168948	-0.137433
C41	C	1.355894	-0.769223	-0.657544
C42	C	1.855894	-0.269223	-0.157544
C43	C	0.972611	-0.489451	-0.664907
C44	C	1.472611	0.010549	-0.164907
C45	C	0.852558	-0.489467	-0.664929
C46	C	1.352558	0.010533	-0.164929
C47	C	1.566825	-1.051858	-0.447130
C48	C	2.066825	-0.551858	0.052870
C49	C	1.585667	-0.957645	-0.428230
C50	C	2.085667	-0.457645	0.071770
C51	C	1.528226	-0.910535	-0.485557
C52	C	2.028226	-0.410535	0.014443
C53	C	1.451938	-0.957647	-0.561787
C54	C	1.951938	-0.457647	-0.061787
C55	C	1.433088	-1.051869	-0.580683
C56	C	1.933088	-0.551869	-0.080683
C57	C	1.394489	-0.910546	-0.619110
C58	C	1.894489	-0.410546	-0.119110
C59	C	1.318201	-0.957658	-0.695340
C60	C	1.818201	-0.457658	-0.195340
C61	C	1.299355	-1.051871	-0.714233
C62	C	1.799355	-0.551871	-0.214233
C63	C	1.356796	-1.098981	-0.656906
C64	C	1.856796	-0.598981	-0.156906
C65	C	1.413339	-0.816324	-0.600214
C66	C	1.913339	-0.316324	-0.100214
C67	C	1.279602	-0.816335	-0.733767
C68	C	1.779602	-0.316335	-0.233767
C69	C	1.260760	-0.910548	-0.752667
C70	C	1.760760	-0.410548	-0.252667
C71	C	1.695620	-0.434572	-0.590531
C72	C	2.195620	0.065428	-0.090531
C73	C	1.811771	-0.434580	-0.590541
C74	C	2.311771	0.065420	-0.090541
C75	C	1.423142	-0.434468	-0.863059
C76	C	1.923142	0.065532	-0.363059
C77	C	1.423180	-0.434431	-0.979205
C78	C	1.923180	0.065569	-0.479205
C79	C	1.470370	-0.199245	-0.543419
C80	C	1.970370	0.300755	-0.043419
C81	C	1.490533	-0.098970	-0.523353
C82	C	1.990533	0.401030	-0.023353
C83	C	1.497731	-0.379590	-1.020021
C84	C	1.997731	0.120410	-0.520021
C85	C	1.497772	-0.379551	-1.140063
C86	C	1.997772	0.120449	-0.640063
C87	C	1.423038	-0.434575	-0.319001
C88	C	1.923038	0.065425	0.180999
C89	C	1.423254	-0.434358	-0.202805
C90	C	1.923254	0.065642	0.297195
H91	H	1.007743	-0.536437	-0.728595
H92	H	1.507743	-0.036437	-0.228595
H93	H	1.359428	-0.481315	-1.167670
H94	H	1.859428	0.018685	-0.667670
H95	H	1.561524	-0.332665	-0.966093
H96	H	2.061524	0.167335	-0.466093
Br97	Br	0.762647	-0.567818	-0.771101
Br98	Br	1.262647	-0.067818	-0.271101
H99	H	1.237224	-1.090228	-0.776293
H100	H	1.737224	-0.590228	-0.276293
Br101	Br	0.901672	-0.356241	-0.484351
Br102	Br	1.401672	0.143759	0.015649
H103	H	1.561601	-0.332602	-1.175206
H104	H	2.061601	0.167398	-0.675206
H105	H	1.000261	-0.387558	-0.526821
H106	H	1.500261	0.112442	-0.026821
Br107	Br	1.516868	-0.752397	-0.496760
Br108	Br	2.016868	-0.252397	0.003240
H109	H	1.543571	-0.833822	-0.470163
H110	H	2.043571	-0.333822	0.029837
Br111	Br	1.689205	-0.893713	-0.324789
Br112	Br	2.189205	-0.393713	0.175211
H113	H	1.613579	-1.090224	-0.400457
H114	H	2.113579	-0.590224	0.099543
H115	H	1.341461	-1.175698	-0.672293
H116	H	1.841461	-0.675698	-0.172293
Br117	Br	1.157231	-0.974496	-0.856121
Br118	Br	1.657231	-0.474496	-0.356121
H119	H	1.232826	-0.777979	-0.780445
H120	H	1.732826	-0.277979	-0.280445
H121	H	1.359378	-0.481347	-1.033131
H122	H	1.859378	0.018653	-0.533131
