data_functionalizedCrystal
_audit_creation_method	'MofGen! by Chris Wilmer'
_symmetry_space_group_name_H-M	'P1'
_symmetry_Int_Tables_number	1
_symmetry_cell_setting	triclinic
loop_
_symmetry_equiv_pos_as_xyz
  x,y,z
_cell_length_a	17.699083
_cell_length_b	23.532407
_cell_length_c	16.776229
_cell_angle_alpha	89.988688
_cell_angle_beta	89.998886
_cell_angle_gamma	83.065847
loop_
_atom_site_label
_atom_site_type_symbol
_atom_site_fract_x
_atom_site_fract_y
_atom_site_fract_z
O1	O	1.003713	0.072020	-0.066185
O2	O	1.503713	0.572020	0.433815
O3	O	0.783287	0.081390	-0.066212
O4	O	1.283287	0.581390	0.433788
O5	O	0.900147	-0.006208	-0.066183
O6	O	1.400147	0.493792	0.433817
O7	O	0.886853	0.159617	-0.066214
O8	O	1.386853	0.659617	0.433786
O9	O	0.900132	-0.006213	0.066394
O10	O	1.400132	0.493787	0.566394
O11	O	0.783272	0.081384	0.066365
O12	O	1.283272	0.581384	0.566365
O13	O	1.003698	0.072015	0.066392
O14	O	1.503698	0.572015	0.566392
Zn15	Zn	0.893482	0.076699	0.087428
Zn16	Zn	1.393482	0.576699	0.587428
Zn17	Zn	0.893503	0.076706	-0.087248
Zn18	Zn	1.393503	0.576706	0.412752
O19	O	0.886838	0.159612	0.066363
O20	O	1.386838	0.659612	0.566363
C21	C	0.755084	0.081051	0.000073
C22	C	1.255084	0.581051	0.500073
C23	C	0.671071	0.080044	0.000063
C24	C	1.171071	0.580044	0.500063
C25	C	0.622189	0.131462	0.000054
C26	C	1.122189	0.631462	0.500054
C27	C	0.543251	0.130512	0.000065
C28	C	1.043251	0.630512	0.500065
C29	C	0.513196	0.078144	0.000079
C30	C	1.013196	0.578144	0.500079
C31	C	0.562084	0.026722	0.000090
C32	C	1.062084	0.526722	0.500090
C33	C	0.641021	0.027672	0.000086
C34	C	1.141021	0.527672	0.500086
C35	C	0.243740	0.022888	0.000111
C36	C	0.743740	0.522888	0.500111
C37	C	0.164797	0.021942	0.000113
C38	C	0.664797	0.521942	0.500113
C39	C	0.145970	0.125728	0.000090
C40	C	0.645970	0.625728	0.500090
C41	C	0.224907	0.126678	0.000085
C42	C	0.724907	0.626678	0.500085
C43	C	0.273788	0.075257	0.000101
C44	C	0.773788	0.575257	0.500101
C45	C	0.359382	0.076287	0.000091
C46	C	0.859382	0.576287	0.500091
C47	C	0.427603	0.077113	0.000083
C48	C	0.927603	0.577113	0.500083
C49	C	0.899801	-0.027427	0.000107
C50	C	1.399801	0.472573	0.500107
C51	C	0.898783	-0.090647	0.000113
C52	C	1.398783	0.409353	0.500113
C53	C	0.961554	-0.489570	0.000077
C54	C	1.461554	0.010430	0.500077
C55	C	0.960609	-0.548973	0.000071
C56	C	1.460609	-0.048973	0.500071
O57	O	1.018799	-0.585550	0.000049
O58	O	1.518799	-0.085550	0.500049
N59	N	0.891136	-0.571799	0.000063
N60	N	1.391136	-0.071799	0.500063
C61	C	0.822604	-0.535218	0.000053
C62	C	1.322604	-0.035218	0.500053
O63	O	0.763424	-0.560088	0.000045
O64	O	1.263424	-0.060088	0.500045
C65	C	0.823550	-0.475816	0.000054
C66	C	1.323550	0.024184	0.500054
C67	C	0.893028	-0.452994	0.000070
C68	C	1.393028	0.047006	0.500070
C69	C	1.031026	-0.466747	0.000093
C70	C	1.531026	0.033253	0.500093
C71	C	1.031972	-0.407348	0.000100
C72	C	1.531972	0.092652	0.500100
C73	C	0.963445	-0.370772	0.000093
C74	C	1.463445	0.129228	0.500093
C75	C	0.893973	-0.393595	0.000078
C76	C	1.393973	0.106405	0.500078
C77	C	0.755019	-0.439237	0.000038
C78	C	1.255019	0.060763	0.500038
C79	C	0.755971	-0.379832	0.000038
C80	C	1.255971	0.120168	0.500038
C81	C	0.825448	-0.357009	0.000054
C82	C	1.325448	0.142991	0.500054
C83	C	0.826391	-0.297620	0.000078
C84	C	1.326391	0.202380	0.500078
N85	N	0.895864	-0.274795	0.000086
N86	N	1.395864	0.225205	0.500086
C87	C	0.964391	-0.311371	0.000093
C88	C	1.464391	0.188629	0.500093
C89	C	0.820622	-0.659966	0.000051
C90	C	1.320622	-0.159966	0.500051
C91	C	0.819674	-0.719367	0.000056
C92	C	1.319674	-0.219367	0.500056
C93	C	0.957680	-0.733118	0.000073
C94	C	1.457680	-0.233118	0.500073
C95	C	0.958626	-0.673716	0.000073
C96	C	1.458626	-0.173716	0.500073
C97	C	0.890095	-0.637141	0.000059
C98	C	1.390095	-0.137141	0.500059
C99	C	0.966371	-0.186628	0.000110
C100	C	1.466371	0.313372	0.500110
C101	C	0.967310	-0.127223	0.000121
C102	C	1.467310	0.372777	0.500121
C103	C	0.829305	-0.113478	0.000100
C104	C	1.329305	0.386522	0.500100
C105	C	0.828365	-0.172877	0.000094
C106	C	1.328365	0.327123	0.500094
C107	C	0.896904	-0.209452	0.000096
C108	C	1.396904	0.290548	0.500096
O109	O	0.768232	-0.261008	0.000097
O110	O	1.268232	0.238992	0.500097
O111	O	1.023560	-0.286493	0.000091
O112	O	1.523560	0.213507	0.500091
C113	C	1.031901	0.072353	0.000105
C114	C	1.531901	0.572353	0.500105
C115	C	1.115914	0.073360	0.000110
C116	C	1.615914	0.573360	0.500110
C117	C	0.887184	0.180832	0.000071
C118	C	1.387184	0.680832	0.500071
C119	C	0.888202	0.244052	0.000060
C120	C	1.388202	0.744052	0.500060
N121	N	0.893474	0.076693	0.206639
N122	N	1.393474	0.576693	0.706639
N123	N	0.893517	0.076706	-0.206459
N124	N	1.393517	0.576706	0.293541
C125	C	0.945235	0.037921	0.248369
C126	C	1.445235	0.537921	0.748369
C127	C	0.945239	0.037921	0.331821
C128	C	1.445239	0.537921	0.831821
C129	C	0.893485	0.076696	0.373542
C130	C	1.393485	0.576696	0.873542
C131	C	0.841719	0.115470	0.331806
C132	C	1.341719	0.615470	0.831806
C133	C	0.841712	0.115467	0.248355
C134	C	1.341712	0.615467	0.748355
C135	C	0.841746	0.115481	0.668353
C136	C	1.341746	0.615481	1.168353
C137	C	0.841759	0.115482	0.751810
C138	C	1.341759	0.615482	1.251810
C139	C	0.945274	0.037935	0.751819
C140	C	1.445274	0.537935	1.251819
C141	C	0.945267	0.037932	0.668368
C142	C	1.445267	0.537932	1.168368
C143	C	0.893498	0.076704	0.626640
C144	C	1.393498	0.576704	1.126640
C145	C	0.893493	0.076703	0.536151
C146	C	1.393493	0.576703	1.036151
C147	C	0.893493	0.076699	0.464029
C148	C	1.393493	0.576699	0.964029
H149	H	1.023889	-0.108645	0.000136
H150	H	1.523889	0.391355	0.500136
H151	H	0.646653	0.174106	0.000042
H152	H	1.146653	0.674106	0.500042
C153	C	0.302739	0.187962	-0.068102
C154	C	0.802739	0.687962	0.431898
C155	C	0.257936	0.184245	0.000059
C156	C	0.757936	0.684245	0.500059
H157	H	0.323123	0.223504	-0.068119
H158	H	0.823123	0.723504	0.431881
H159	H	0.343149	0.157481	-0.068089
H160	H	0.843149	0.657481	0.431911
H161	H	0.272325	0.185429	-0.114323
H162	H	0.772325	0.685429	0.385677
H163	H	0.288353	0.186774	0.046281
H164	H	0.788353	0.686774	0.546281
H165	H	0.217521	0.214735	0.000054
H166	H	0.717521	0.714735	0.500054
H167	H	0.106161	0.167598	0.000081
H168	H	0.606161	0.667598	0.500081
C169	C	0.738608	0.127920	0.154521
C170	C	1.238608	0.627920	0.654521
C171	C	0.784814	0.158088	0.202483
C172	C	1.284814	0.658088	0.702483
H173	H	0.703477	0.154233	0.126208
H174	H	1.203477	0.654233	0.626208
H175	H	0.769429	0.104832	0.117736
H176	H	1.269429	0.604832	0.617736
H177	H	0.711571	0.104241	0.187098
H178	H	1.211571	0.604241	0.687098
H179	H	0.811856	0.181763	0.169906
H180	H	1.311856	0.681763	0.669906
H181	H	0.753990	0.181185	0.239273
H182	H	1.253990	0.681185	0.739273
C183	C	0.681381	-0.060495	-0.068057
C184	C	1.181381	0.439505	0.431943
C185	C	0.694758	-0.028847	0.000090
C186	C	1.194758	0.471153	0.500090
H187	H	0.714559	-0.095386	-0.068053
H188	H	1.214559	0.404614	0.431947
H189	H	0.630075	-0.068556	-0.068047
H190	H	1.130075	0.431444	0.431953
H191	H	0.690449	-0.039008	-0.114288
H192	H	1.190449	0.460992	0.385712
H193	H	0.685684	-0.050332	0.046321
H194	H	1.185684	0.449668	0.546321
H195	H	0.746075	-0.020787	0.000086
H196	H	1.246075	0.479213	0.500086
C197	C	0.343429	-0.036263	0.068270
C198	C	0.843429	0.463737	0.568270
C199	C	0.297466	-0.033633	0.000118
C200	C	0.797466	0.466367	0.500118
H201	H	0.376597	-0.071160	0.068273
H202	H	0.876597	0.428840	0.568273
H203	H	0.372623	-0.004943	0.068258
H204	H	0.872623	0.495057	0.568258
H205	H	0.312237	-0.034479	0.114498
H206	H	0.812237	0.465521	0.614498
H207	H	0.328658	-0.035412	-0.046110
H208	H	0.828658	0.464588	0.453890
H209	H	0.268270	-0.064961	0.000123
H210	H	0.768270	0.435039	0.500123
H211	H	0.537607	-0.015917	0.000113
H212	H	1.037607	0.484083	0.500113
H213	H	0.140330	-0.020705	0.000126
H214	H	0.640330	0.479295	0.500126
H215	H	1.022182	-0.216401	0.000109
H216	H	1.522182	0.283599	0.500109
H217	H	0.799595	0.147051	0.634384
H218	H	1.299595	0.647051	1.134384
C219	C	0.710481	0.149037	0.777523
C220	C	1.210481	0.649037	1.277523
C221	C	0.784861	0.158101	0.797674
C222	C	1.284861	0.658101	1.297674
H223	H	0.675359	0.175344	0.805843
H224	H	1.175359	0.675344	1.305843
H225	H	0.703068	0.154588	0.721859
H226	H	1.203068	0.654588	1.221859
H227	H	0.702571	0.111031	0.791216
H228	H	1.202571	0.611031	1.291216
H229	H	0.792773	0.196105	0.783975
H230	H	1.292773	0.696105	1.283975
H231	H	0.792277	0.152554	0.853351
H232	H	1.292277	0.652554	1.353351
H233	H	0.503454	0.172382	0.000056
H234	H	1.003454	0.672382	0.500056
H235	H	0.799576	0.147039	0.365780
H236	H	1.299576	0.647039	0.865780
H237	H	1.015201	-0.655139	0.000086
H238	H	1.515201	-0.155139	0.500086
C239	C	0.676953	-0.305063	0.068178
C240	C	1.176953	0.194937	0.568178
C241	C	0.680637	-0.339627	0.000024
C242	C	1.180637	0.160373	0.500024
H243	H	0.630447	-0.280242	0.068166
H244	H	1.130447	0.219758	0.568166
H245	H	0.679443	-0.328530	0.114400
H246	H	1.179443	0.171470	0.614400
H247	H	0.718465	-0.282968	0.068180
H248	H	1.218465	0.217032	0.568180
H249	H	0.639128	-0.361725	0.000025
H250	H	1.139128	0.138275	0.500025
H251	H	0.678140	-0.316157	-0.046209
H252	H	1.178140	0.183843	0.453791
C253	C	1.168284	-0.426925	0.000108
C254	C	1.668284	0.073075	0.500108
C255	C	1.108344	-0.382268	0.000107
C256	C	1.608344	0.117732	0.500107
H257	H	1.215435	-0.411443	0.000105
H258	H	1.715435	0.088557	0.500105
H259	H	1.165038	-0.449812	0.046337
H260	H	1.665038	0.050188	0.546337
H261	H	1.165036	-0.449801	-0.046128
H262	H	1.665036	0.050199	0.453872
H263	H	1.111590	-0.359394	0.046347
H264	H	1.611590	0.140606	0.546347
H265	H	1.111593	-0.359371	-0.046127
H266	H	1.611593	0.140629	0.453873
H267	H	1.086833	-0.496522	0.000096
H268	H	1.586833	0.003478	0.500096
H269	H	1.013478	-0.762909	0.000076
H270	H	1.513478	-0.262909	0.500076
H271	H	0.987425	0.006362	0.785803
H272	H	1.487425	0.506362	1.285803
C273	C	0.683360	-0.699794	0.000038
C274	C	1.183360	-0.199794	0.500038
C275	C	0.743302	-0.744449	0.000045
C276	C	1.243302	-0.244449	0.500045
H277	H	0.636210	-0.715278	0.000023
H278	H	1.136210	-0.215278	0.500023
H279	H	0.686596	-0.676922	0.046272
H280	H	1.186596	-0.176922	0.546272
H281	H	0.686615	-0.676902	-0.046193
H282	H	1.186615	-0.176902	0.453807
H283	H	0.740050	-0.767339	0.046280
H284	H	1.240050	-0.267339	0.546280
H285	H	0.740065	-0.767330	-0.046193
H286	H	1.240065	-0.267330	0.453807
H287	H	0.764811	-0.630189	0.000046
H288	H	1.264811	-0.130189	0.500046
H289	H	0.987412	0.006360	0.634402
H290	H	1.487412	0.506360	1.134402
C291	C	0.637117	-0.445771	-0.068152
C292	C	1.137117	0.054229	0.431848
C293	C	0.678645	-0.464312	0.000012
C294	C	1.178645	0.035688	0.500012
H295	H	0.589966	-0.461253	-0.068170
H296	H	1.089966	0.038747	0.431830
H297	H	0.627888	-0.405164	-0.068143
H298	H	1.127888	0.094836	0.431857
H299	H	0.665331	-0.458333	-0.114372
H300	H	1.165331	0.041667	0.385628
H301	H	0.650433	-0.451747	0.046232
H302	H	1.150433	0.048253	0.546232
H303	H	0.687872	-0.504928	0.000011
H304	H	1.187872	-0.004928	0.500011
H305	H	0.771791	-0.191460	0.000103
H306	H	1.271791	0.308540	0.500103
C307	C	0.750335	-0.038684	-0.068068
C308	C	1.250335	0.461316	0.431932
C309	C	0.753982	-0.073266	0.000086
C310	C	1.253982	0.426734	0.500086
H311	H	0.703831	-0.013861	-0.068082
H312	H	1.203831	0.486139	0.431918
H313	H	0.791846	-0.016597	-0.068050
H314	H	1.291846	0.483403	0.431950
H315	H	0.752841	-0.062144	-0.114294
H316	H	1.252841	0.437856	0.385706
H317	H	0.751481	-0.049806	0.046313
H318	H	1.251481	0.450194	0.546313
H319	H	0.712459	-0.095355	0.000076
H320	H	1.212459	0.404645	0.500076
C321	C	1.047554	-0.038737	0.256769
C322	C	1.547554	0.461263	0.756769
C323	C	1.002124	-0.004704	0.202513
C324	C	1.502124	0.495296	0.702513
H325	H	1.082671	-0.065055	0.228459
H326	H	1.582671	0.434945	0.728459
H327	H	1.074600	-0.015056	0.289303
H328	H	1.574600	0.484944	0.789303
H329	H	1.016199	-0.059189	0.289331
H330	H	1.516199	0.440811	0.789331
H331	H	1.033479	0.015752	0.169955
H332	H	1.533479	0.515752	0.669955
H333	H	0.975076	-0.028388	0.169965
H334	H	1.475076	0.471612	0.669965
H335	H	0.987387	0.006349	0.365797
H336	H	1.487387	0.506349	0.865797
