data_functionalizedCrystal
_audit_creation_method	'MofGen! by Chris Wilmer'
_symmetry_space_group_name_H-M	'P1'
_symmetry_Int_Tables_number	1
_symmetry_cell_setting	triclinic
loop_
_symmetry_equiv_pos_as_xyz
  x,y,z
_cell_length_a	10.654551
_cell_length_b	16.956984
_cell_length_c	9.130313
_cell_angle_alpha	89.999484
_cell_angle_beta	90.001552
_cell_angle_gamma	80.269390
loop_
_atom_site_label
_atom_site_type_symbol
_atom_site_fract_x
_atom_site_fract_y
_atom_site_fract_z
O1	O	0.051997	1.058323	-0.121803
O2	O	0.096063	0.826409	-0.121802
O3	O	-0.109336	0.947697	-0.121803
O4	O	0.257396	0.937034	-0.121802
O5	O	-0.109331	0.947696	0.121795
O6	O	0.096068	0.826407	0.121797
O7	O	0.052002	1.058321	0.121796
Cu8	Cu	0.074036	0.942364	0.144039
Cu9	Cu	0.074029	0.942366	-0.144045
O10	O	0.257401	0.937032	0.121797
C11	C	0.098322	0.796712	-0.000003
C12	C	0.105030	0.708229	-0.000003
C13	C	-0.156039	0.946913	-0.000007
C14	C	-0.295207	0.944570	-0.000017
C15	C	-0.007136	0.675524	-0.000000
C16	C	-0.000825	0.592384	-0.000011
C17	C	0.117653	0.541950	-0.000013
C18	C	0.229828	0.574660	-0.000020
C19	C	0.223516	0.657798	-0.000020
C20	C	0.148897	0.292350	-0.000023
C21	C	0.155201	0.209206	-0.000019
C22	C	-0.075453	0.226936	-0.000013
C23	C	-0.081755	0.310075	-0.000004
C24	C	0.030420	0.342778	-0.000018
N25	N	0.124107	0.456967	-0.000019
N26	N	0.023965	0.427760	-0.000022
C27	C	-0.360593	0.943472	-0.132800
C28	C	-0.491354	0.941264	-0.132793
C29	C	-0.491332	0.941255	0.132791
C30	C	-0.360572	0.943458	0.132783
C31	C	-0.360607	0.943480	-0.286134
C32	C	-0.491368	0.941272	-0.286127
C33	C	0.304104	0.937816	-0.000002
C34	C	0.443272	0.940159	-0.000002
C35	C	0.049743	1.088017	-0.000007
C36	C	0.043035	1.176501	-0.000017
N37	N	0.074039	0.942369	0.346661
N38	N	0.074016	0.942367	-0.346668
C39	C	-0.016884	0.996089	0.423313
C40	C	-0.016899	0.996087	0.576650
C41	C	0.164943	0.888641	0.576670
C42	C	0.164952	0.888640	0.423336
C43	C	-0.121867	1.058124	0.423302
C44	C	-0.121881	1.058122	0.576639
H45	H	-0.103615	0.716582	0.000007
H46	H	-0.544134	0.996345	-0.345000
O47	O	-0.093636	1.127141	0.366353
C48	C	-0.163967	1.242625	0.215131
C49	C	-0.196118	1.164487	0.279519
H50	H	-0.246815	1.272851	0.144937
H51	H	-0.074587	1.228523	0.144781
H52	H	-0.146723	1.284378	0.308108
H53	H	-0.213425	1.122697	0.186636
H54	H	-0.285465	1.178649	0.349908
O55	O	-0.109907	0.560746	0.000067
C56	C	-0.339350	0.587105	0.000009
C57	C	-0.215909	0.623039	-0.000046
H58	H	-0.425084	0.637452	-0.000113
H59	H	-0.342239	0.548651	0.101978
H60	H	-0.342104	0.548600	-0.101914
H61	H	-0.213073	0.661581	0.101808
H62	H	-0.213069	0.661447	-0.102082
O63	O	-0.196879	0.359028	-0.000264
C64	C	-0.395989	0.399578	-0.126408
C65	C	-0.265640	0.344109	-0.126323
H66	H	-0.451631	0.387524	-0.228300
H67	H	-0.381317	0.464635	-0.126498
H68	H	-0.451558	0.387602	-0.024413
H69	H	-0.210003	0.356014	-0.228300
H70	H	-0.280403	0.279071	-0.126157
H71	H	0.238978	0.844890	0.360928
H72	H	0.238962	0.844896	0.639115
O73	O	-0.235162	1.041843	0.373882
C74	C	-0.441667	1.012286	0.437892
C75	C	-0.313412	1.030698	0.494058
H76	H	-0.504978	1.003286	0.535024
H77	H	-0.424437	0.955561	0.368583
H78	H	-0.490569	1.064442	0.368468
H79	H	-0.264443	0.978591	0.563542
H80	H	-0.330727	1.087450	0.563287
O81	O	0.270403	0.160327	-0.000099
C82	C	0.498515	0.151509	-0.000046
C83	C	0.368145	0.206956	0.000011
H84	H	0.577574	0.189187	0.000074
H85	H	0.507303	0.112158	-0.102014
H86	H	0.507177	0.112126	0.101877
H87	H	0.359395	0.246389	-0.101843
H88	H	0.359414	0.246253	0.102047
O89	O	-0.554730	0.940038	0.261826
C90	C	-0.573275	0.870461	0.488857
C91	C	-0.501394	0.871731	0.342760
H92	H	-0.530164	0.815250	0.554347
H93	H	-0.677963	0.868643	0.466147
H94	H	-0.564859	0.926592	0.554280
H95	H	-0.509708	0.815612	0.277263
H96	H	-0.396735	0.873590	0.365573
H97	H	-0.514104	0.883150	-0.333718
O98	O	-0.104740	1.131215	0.626054
C99	C	-0.073669	1.264427	0.562035
C100	C	-0.093038	1.181685	0.505875
H101	H	-0.064229	1.305260	0.464899
H102	H	0.016506	1.257691	0.631365
H103	H	-0.159045	1.291602	0.631436
H104	H	-0.007735	1.154464	0.436414
H105	H	-0.183261	1.188473	0.436624
H106	H	-0.166779	0.200300	-0.000018
H107	H	0.240238	0.318966	-0.000044
H108	H	-0.307854	0.888408	-0.345013
H109	H	0.326296	0.533589	-0.000031
H110	H	-0.210828	1.038760	0.624186
H111	H	-0.337874	1.001605	-0.333709
O112	O	-0.296960	0.944379	0.261734
C113	C	-0.127893	0.877961	0.415821
C114	C	-0.199840	0.876811	0.269739
H115	H	-0.049339	0.823348	0.422328
H116	H	-0.197010	0.876740	0.510784
H117	H	-0.084011	0.934691	0.422453
H118	H	-0.243727	0.820091	0.262964
H119	H	-0.130668	0.878076	0.174845
H120	H	0.314854	0.684425	-0.000015
