data_functionalizedCrystal
_audit_creation_method	'MofGen! by Chris Wilmer'
_symmetry_space_group_name_H-M	'P1'
_symmetry_Int_Tables_number	1
_symmetry_cell_setting	triclinic
loop_
_symmetry_equiv_pos_as_xyz
  x,y,z
_cell_length_a	11.792254
_cell_length_b	11.792241
_cell_length_c	11.892095
_cell_angle_alpha	93.915739
_cell_angle_beta	86.074116
_cell_angle_gamma	84.196007
loop_
_atom_site_label
_atom_site_type_symbol
_atom_site_fract_x
_atom_site_fract_y
_atom_site_fract_z
O1	O	1.514113	0.148425	-0.094003
O2	O	2.014113	0.648425	0.405997
O3	O	1.183774	0.164443	-0.094005
O4	O	1.683774	0.664443	0.405995
O5	O	1.356959	-0.008736	-0.093996
O6	O	1.856959	0.491264	0.406004
O7	O	1.340927	0.321604	-0.094012
O8	O	1.840927	0.821604	0.405988
O9	O	1.342519	0.005681	0.094011
O10	O	1.842519	0.505681	0.594011
O11	O	1.169334	0.178860	0.094001
O12	O	1.669334	0.678860	0.594001
O13	O	1.499673	0.162842	0.094004
O14	O	1.999673	0.662842	0.594004
Zn15	Zn	1.332210	0.173140	0.123853
Zn16	Zn	1.832210	0.673140	0.623853
Zn17	Zn	1.351236	0.154145	-0.123854
Zn18	Zn	1.851236	0.654145	0.376146
O19	O	1.326487	0.336020	0.093995
O20	O	1.826487	0.836020	0.593995
C21	C	1.134263	0.170642	-0.000002
C22	C	1.634263	0.670642	0.499998
C23	C	1.008250	0.167622	-0.000003
C24	C	1.508250	0.667622	0.499997
C25	C	0.905914	0.165168	-0.000008
C26	C	1.405914	0.665168	0.499992
C27	C	0.777527	0.162099	-0.000008
C28	C	1.277527	0.662099	0.499992
C29	C	1.348732	-0.043818	0.000007
C30	C	1.848732	0.456182	0.500007
C31	C	1.345718	-0.169832	0.000006
C32	C	1.845718	0.330168	0.500006
C33	C	1.340176	-0.400546	-0.000013
C34	C	1.840176	0.099454	0.499987
C35	C	1.343255	-0.272160	-0.000003
C36	C	1.843255	0.227840	0.499997
C37	C	1.549183	0.156642	-0.000002
C38	C	2.049183	0.656642	0.499998
C39	C	1.675197	0.159662	-0.000008
C40	C	2.175197	0.659662	0.499992
C41	C	1.334715	0.371103	-0.000011
C42	C	1.834715	0.871103	0.499989
C43	C	1.337729	0.497116	-0.000017
C44	C	1.837729	0.997116	0.499983
N45	N	1.319234	0.186103	0.292906
N46	N	1.819234	0.686103	0.792906
N47	N	1.364221	0.141173	-0.292908
N48	N	1.864221	0.641173	0.207092
C49	C	1.454513	0.050907	0.529561
C50	C	1.954513	0.550907	1.029561
C51	C	1.445451	0.059976	0.647903
C52	C	1.945451	0.559976	1.147903
C53	C	1.292044	0.213304	0.647932
C54	C	1.792044	0.713304	1.147932
C55	C	1.301106	0.204235	0.529591
C56	C	1.801106	0.704235	1.029591
C57	C	1.382344	0.123035	0.470410
C58	C	1.882344	0.623035	0.970410
C59	C	1.391411	0.113972	0.352066
C60	C	1.891411	0.613972	0.852066
C61	C	1.237999	0.267294	0.352098
C62	C	1.737999	0.767294	0.852098
C63	C	1.228937	0.276363	0.470439
C64	C	1.728937	0.776363	0.970439
H65	H	1.457562	0.047857	0.303882
H66	H	1.957562	0.547857	0.803882
Br67	Br	1.564777	-0.059276	0.449241
Br68	Br	2.064777	0.440724	0.949241
Br69	Br	1.543393	-0.037922	0.728178
Br70	Br	2.043393	0.462078	1.228178
Br71	Br	1.181783	0.323484	0.728261
Br72	Br	1.681783	0.823484	1.228261
H73	H	1.162791	0.342472	0.518639
H74	H	1.662791	0.842472	1.018639
Br75	Br	1.140062	0.365197	0.271811
Br76	Br	1.640062	0.865197	0.771811
