data_functionalizedCrystal
_audit_creation_method	'MofGen! by Chris Wilmer'
_symmetry_space_group_name_H-M	'P1'
_symmetry_Int_Tables_number	1
_symmetry_cell_setting	triclinic
loop_
_symmetry_equiv_pos_as_xyz
  x,y,z
_cell_length_a	21.295418
_cell_length_b	21.295417
_cell_length_c	21.295411
_cell_angle_alpha	89.978356
_cell_angle_beta	89.956262
_cell_angle_gamma	90.046319
loop_
_atom_site_label
_atom_site_type_symbol
_atom_site_fract_x
_atom_site_fract_y
_atom_site_fract_z
Zn1	Zn	0.962356	-0.250415	-0.356234
Zn2	Zn	0.962258	-0.355667	-0.250959
Zn3	Zn	0.857079	-0.250445	-0.250943
Zn4	Zn	0.857048	-0.355680	-0.356155
O5	O	0.909685	-0.303052	-0.303573
O6	O	1.050432	-0.264360	-0.342308
O7	O	0.948278	-0.341716	-0.162867
O8	O	0.871098	-0.162351	-0.264937
O9	O	1.050361	-0.341688	-0.264963
O10	O	0.948444	-0.162330	-0.342293
O11	O	0.871003	-0.264410	-0.162856
O12	O	0.768985	-0.264422	-0.264861
O13	O	0.871046	-0.341709	-0.444255
O14	O	0.768963	-0.341738	-0.342160
O15	O	0.948415	-0.264372	-0.444313
O16	O	0.948248	-0.443758	-0.264887
O17	O	0.870951	-0.443767	-0.342175
C18	C	0.746134	-0.303085	-0.303500
C19	C	0.676166	-0.303114	-0.303484
C20	C	0.643304	-0.343426	-0.343674
C21	C	0.577561	-0.343410	-0.343702
C22	C	0.544683	-0.303090	-0.303530
C23	C	0.577553	-0.262770	-0.263337
C24	C	0.643294	-0.262783	-0.263315
N25	N	0.441407	-0.298163	-0.248472
N26	N	0.378956	-0.298155	-0.248495
C27	C	0.346608	-0.303050	-0.303596
N28	N	0.379072	-0.307965	-0.358675
N29	N	0.441529	-0.307976	-0.358650
C30	C	0.473398	-0.303072	-0.303550
C31	C	0.242461	-0.343346	-0.343820
C32	C	0.176717	-0.343326	-0.343849
C33	C	0.176710	-0.262690	-0.263479
C34	C	0.242453	-0.262707	-0.263455
C35	C	0.275324	-0.303038	-0.303625
C36	C	0.909603	-0.466603	-0.303538
C37	C	0.909625	-0.536571	-0.303544
C38	C	0.949910	-0.569412	-0.263342
C39	C	0.949939	-0.635155	-0.263356
C40	C	0.909673	-0.668054	-0.303566
C41	C	0.869386	-0.635205	-0.343776
C42	C	0.869362	-0.569464	-0.343765
N43	N	0.854606	-0.771336	-0.308340
N44	N	0.854630	-0.833787	-0.308347
C45	C	0.909743	-0.866129	-0.303602
N46	N	0.964832	-0.833659	-0.298838
N47	N	0.964807	-0.771202	-0.298828
C48	C	0.909695	-0.739339	-0.303582
C49	C	0.950063	-0.970255	-0.263413
C50	C	0.950094	-1.035999	-0.263431
C51	C	0.869535	-1.036048	-0.343848
C52	C	0.869510	-0.970305	-0.343833
C53	C	0.909773	-0.937413	-0.303612
C54	C	1.073876	-0.303019	-0.303646
C55	C	1.143844	-0.303005	-0.303677
C56	C	0.909738	-0.303038	-0.467763
C57	C	0.909760	-0.303033	-0.537731
C58	C	0.909785	-0.138861	-0.303622
C59	C	0.909828	-0.068893	-0.303642
C60	C	0.950044	-0.262761	-0.570629
C61	C	0.950043	-0.262734	-0.636371
C62	C	0.909765	-0.302989	-0.669214
C63	C	0.869473	-0.343263	-0.636308
C64	C	0.869470	-0.343285	-0.570567
N65	N	0.904908	-0.358058	-0.772428
N66	N	0.904914	-0.358036	-0.834879
C67	C	0.909769	-0.302926	-0.867289
N68	N	0.914629	-0.247837	-0.834888
N69	N	0.914627	-0.247860	-0.772430
C70	C	0.909763	-0.302970	-0.740499
C71	C	0.950054	-0.262621	-0.971472
C72	C	0.950049	-0.262593	-1.037216
C73	C	0.869482	-0.343128	-1.037151
C74	C	0.869484	-0.343151	-0.971409
C75	C	0.909773	-0.302898	-0.938573
C76	C	0.909670	-0.303019	-0.140021
C77	C	0.909769	-0.302848	-0.070054
H78	H	0.149962	-0.376152	-0.376580
O79	O	0.830442	-1.068095	-0.382852
C80	C	0.839115	-1.133163	-0.374256
H81	H	0.859756	-1.142146	-0.325703
H82	H	0.872629	-1.151756	-0.411639
C83	C	0.750082	-1.155956	-0.439590
C84	C	0.775429	-1.166990	-0.379954
H85	H	0.710799	-1.176823	-0.443107
H86	H	0.744240	-1.112119	-0.445383
H87	H	0.778016	-1.171451	-0.470736
H88	H	0.747499	-1.151489	-0.348810
H89	H	0.781265	-1.210826	-0.374155
O90	O	0.675289	-0.223713	-0.224239
C91	C	0.713220	-0.259503	-0.183490
H92	H	0.723042	-0.307243	-0.205600
H93	H	0.687823	-0.266344	-0.136837
C94	C	0.763627	-0.166232	-0.144978
C95	C	0.775696	-0.224866	-0.172136
H96	H	0.802164	-0.144866	-0.137971
H97	H	0.738070	-0.142119	-0.172428
H98	H	0.742462	-0.171942	-0.106103
H99	H	0.796853	-0.219155	-0.211013
H100	H	0.801257	-0.248977	-0.144691
O101	O	0.830401	-0.938470	-0.382967
C102	C	0.844141	-0.954471	-0.445728
H103	H	0.868358	-1.002173	-0.447073
H104	H	0.876479	-0.917420	-0.466966
C105	C	0.753010	-0.898972	-0.482128
C106	C	0.782749	-0.957564	-0.483780
H107	H	0.715142	-0.900877	-0.505601
H108	H	0.743754	-0.888189	-0.439845
H109	H	0.779965	-0.868102	-0.499825
H110	H	0.755798	-0.988430	-0.466076
H111	H	0.791999	-0.968351	-0.526061
O112	O	0.989227	-0.223738	-0.538697
C113	C	1.029851	-0.259565	-0.500671
H114	H	1.033735	-0.309135	-0.520480
H115	H	1.010369	-0.261759	-0.450839
C116	C	1.090528	-0.167891	-0.475359
C117	C	1.095302	-0.228773	-0.499693
H118	H	1.130901	-0.148896	-0.474753
H119	H	1.063157	-0.143753	-0.500976
H120	H	1.074291	-0.169727	-0.433835
H121	H	1.111532	-0.226934	-0.541219
H122	H	1.122678	-0.252910	-0.474083
H123	H	0.269226	-0.376183	-0.376531
O124	O	0.830427	-0.382441	-0.538537
C125	C	0.866245	-0.423114	-0.500550
H126	H	0.913964	-0.400906	-0.490741
H127	H	0.873132	-0.469754	-0.525890
C128	C	0.772997	-0.461817	-0.450121
C129	C	0.831604	-0.434538	-0.438069
H130	H	0.751629	-0.468867	-0.411581
H131	H	0.748866	-0.434416	-0.475715
H132	H	0.778744	-0.500680	-0.471239
H133	H	0.825856	-0.395672	-0.416958
H134	H	0.855734	-0.461933	-0.412469
O135	O	0.989239	-0.223595	-0.668240
C136	C	1.024785	-0.188060	-0.625161
H137	H	1.026945	-0.213855	-0.578296
H138	H	1.001768	-0.140254	-0.618158
C139	C	1.089136	-0.147292	-0.708429
C140	C	1.091793	-0.178977	-0.650871
H141	H	1.130469	-0.141687	-0.724289
H142	H	1.065186	-0.171231	-0.737453
H143	H	1.069952	-0.107458	-0.702585
H144	H	1.110969	-0.218814	-0.656717
H145	H	1.115748	-0.155045	-0.621848
H146	H	0.836602	-0.661996	-0.376516
H147	H	0.836557	-0.542724	-0.376503
H148	H	0.269209	-0.229884	-0.230726
O149	O	0.989262	-1.068000	-0.224489
C150	C	0.980671	-1.133079	-0.233142
H151	H	0.959967	-1.142036	-0.281673
H152	H	0.947243	-1.151843	-0.195727
C153	C	1.069839	-1.155717	-0.167973
C154	C	1.044415	-1.166719	-0.227581
H155	H	1.109159	-1.176469	-0.164540
H156	H	1.075626	-1.111873	-0.162141
H157	H	1.041977	-1.171355	-0.136801
H158	H	1.072273	-1.151075	-0.258752
H159	H	1.038634	-1.210562	-0.233418
H160	H	0.836676	-0.376038	-0.663053
O161	O	0.989235	-0.938396	-0.224327
C162	C	1.024791	-0.981484	-0.188837
H163	H	1.026979	-1.028328	-0.214635
H164	H	1.001763	-0.988534	-0.141002
C165	C	1.089092	-0.898214	-0.148155
C166	C	1.091785	-0.955747	-0.179842
H167	H	1.130417	-0.882337	-0.142603
H168	H	1.065136	-0.869184	-0.172063
H169	H	1.069900	-0.904096	-0.108295
H170	H	1.110969	-0.949862	-0.219703
H171	H	1.115746	-0.984775	-0.155940
O172	O	0.989204	-0.223458	-0.939668
C173	C	1.024768	-0.187912	-0.982806
H174	H	0.998985	-0.185721	-1.029649
H175	H	1.072563	-0.210950	-0.989834
C176	C	1.065545	-0.123613	-0.899622
C177	C	1.033876	-0.120918	-0.957154
H178	H	1.071167	-0.082289	-0.883799
H179	H	1.041587	-0.147562	-0.870559
H180	H	1.105371	-0.142814	-0.905487
H181	H	0.994048	-0.101725	-0.951288
H182	H	1.057827	-0.096964	-0.986216
H183	H	0.982746	-0.661899	-0.230619
H184	H	0.982852	-0.229795	-1.064000
H185	H	0.670063	-0.376266	-0.376384
O186	O	0.830419	-0.382217	-1.069144
C187	C	0.839048	-0.373553	-1.134224
H188	H	0.887638	-0.352917	-1.143239
H189	H	0.801726	-0.340039	-1.152857
C190	C	0.773573	-0.462584	-1.156895
C191	C	0.833255	-0.437243	-1.167967
H192	H	0.769997	-0.501869	-1.177710
H193	H	0.767758	-0.468420	-1.113049
H194	H	0.742478	-0.434649	-1.172423
H195	H	0.864348	-0.465173	-1.152432
H196	H	0.839076	-0.431413	-1.211811
H197	H	0.982696	-0.542633	-0.230593
O198	O	0.830422	-0.382365	-0.939478
C199	C	0.844129	-0.445096	-0.955562
H200	H	0.894417	-0.448260	-0.973669
H201	H	0.810372	-0.461543	-0.993697
C202	C	0.775008	-0.483243	-0.874915
C203	C	0.836775	-0.487130	-0.897150
H204	H	0.770469	-0.509173	-0.838886
H205	H	0.765771	-0.440980	-0.864081
H206	H	0.746884	-0.496948	-0.906701
H207	H	0.864897	-0.473418	-0.865368
H208	H	0.846017	-0.529392	-0.907978
O209	O	0.545696	-0.382537	-0.382831
C210	C	0.561828	-0.368868	-0.445593
H211	H	0.609589	-0.344686	-0.446931
H212	H	0.524885	-0.336525	-0.466865
C213	C	0.506174	-0.459994	-0.481964
C214	C	0.564837	-0.430299	-0.483608
H215	H	0.508028	-0.497887	-0.505416
H216	H	0.495304	-0.469203	-0.439681
H217	H	0.475395	-0.433035	-0.499690
H218	H	0.595614	-0.457255	-0.465876
H219	H	0.575713	-0.421096	-0.525890
O220	O	0.545689	-0.223635	-0.224224
C221	C	0.561662	-0.237313	-0.161454
H222	H	0.609370	-0.261519	-0.160091
H223	H	0.524608	-0.269639	-0.140202
C224	C	0.506126	-0.146161	-0.125110
C225	C	0.564723	-0.175885	-0.123435
H226	H	0.508012	-0.108270	-0.101657
H227	H	0.495362	-0.136946	-0.167399
H228	H	0.475254	-0.173106	-0.107401
H229	H	0.595593	-0.148944	-0.141151
H230	H	0.575493	-0.185094	-0.081148
H231	H	0.149942	-0.229857	-0.230773
