data_functionalizedCrystal
_audit_creation_method	'MofGen! by Chris Wilmer'
_symmetry_space_group_name_H-M	'P1'
_symmetry_Int_Tables_number	1
_symmetry_cell_setting	triclinic
loop_
_symmetry_equiv_pos_as_xyz
  x,y,z
_cell_length_a	23.532407
_cell_length_b	22.010155
_cell_length_c	23.532407
_cell_angle_alpha	89.999577
_cell_angle_beta	82.848678
_cell_angle_gamma	89.996931
loop_
_atom_site_label
_atom_site_type_symbol
_atom_site_fract_x
_atom_site_fract_y
_atom_site_fract_z
O1	O	0.755264	-0.050455	0.069127
O2	O	1.255264	0.449545	0.569127
O3	O	0.589400	-0.050474	0.079130
O4	O	1.089400	0.449526	0.579130
O5	O	0.677334	-0.050453	-0.008803
O6	O	1.177334	0.449547	0.491197
O7	O	0.667330	-0.050476	0.157060
O8	O	1.167330	0.449524	0.657060
O9	O	0.677318	0.050597	-0.008790
O10	O	1.177318	0.550597	0.491210
O11	O	0.589384	0.050576	0.079143
O12	O	1.089384	0.550576	0.579143
O13	O	0.755248	0.050595	0.069140
O14	O	1.255248	0.550595	0.569140
Cu15	Cu	0.672315	0.059812	0.074143
Cu16	Cu	1.172315	0.559812	0.574143
Cu17	Cu	0.672333	-0.059691	0.074127
Cu18	Cu	1.172333	0.440309	0.574127
O19	O	0.667314	0.050574	0.157073
O20	O	1.167314	0.550574	0.657073
C21	C	0.568176	0.000049	0.078882
C22	C	1.068176	0.500049	0.578882
C23	C	0.504959	0.000042	0.078116
C24	C	1.004959	0.500042	0.578116
C25	C	0.105856	0.000063	0.125350
C26	C	0.605856	0.500063	0.625350
C27	C	0.046456	0.000067	0.124638
C28	C	0.546456	0.500067	0.624638
O29	O	0.009711	0.000083	0.168424
O30	O	0.509711	0.500083	0.668424
N31	N	0.023830	0.000073	0.072362
N32	N	0.523830	0.500073	0.572362
C33	C	0.060607	0.000082	0.020794
C34	C	0.560607	0.500082	0.520794
O35	O	0.035908	0.000088	-0.023737
O36	O	0.535908	0.500088	0.476263
C37	C	0.120006	0.000082	0.021506
C38	C	0.620006	0.500082	0.521506
C39	C	0.142629	0.000070	0.073785
C40	C	0.642629	0.500070	0.573785
C41	C	0.128479	0.000051	0.177625
C42	C	0.628479	0.500051	0.677625
C43	C	0.187876	0.000046	0.178336
C44	C	0.687876	0.500046	0.678336
C45	C	0.224649	0.000053	0.126772
C46	C	0.724649	0.500053	0.626772
C47	C	0.202025	0.000065	0.074497
C48	C	0.702025	0.500065	0.574497
C49	C	0.156783	0.000096	-0.030062
C50	C	0.656783	0.500096	0.469938
C51	C	0.216185	0.000097	-0.029345
C52	C	0.716185	0.500097	0.470655
C53	C	0.238808	0.000084	0.022934
C54	C	0.738808	0.500084	0.522934
C55	C	0.298194	0.000067	0.023643
C56	C	0.798194	0.500067	0.523643
N57	N	0.320820	0.000061	0.075920
N58	N	0.820820	0.500061	0.575920
C59	C	0.284048	0.000054	0.127484
C60	C	0.784048	0.500054	0.627484
C61	C	-0.064135	0.000082	0.019302
C62	C	0.435865	0.500082	0.519302
C63	C	-0.123533	0.000077	0.018589
C64	C	0.376467	0.500077	0.518589
C65	C	-0.137680	0.000063	0.122434
C66	C	0.362320	0.500063	0.622434
C67	C	-0.078281	0.000064	0.123146
C68	C	0.421719	0.500064	0.623146
C69	C	-0.041509	0.000076	0.071578
C70	C	0.458491	0.500076	0.571578
C71	C	0.408784	0.000043	0.128974
C72	C	0.908784	0.500043	0.628974
C73	C	0.468186	0.000035	0.129680
C74	C	0.968186	0.500035	0.629680
C75	C	0.482329	0.000052	0.025836
C76	C	0.982329	0.500052	0.525836
C77	C	0.422932	0.000057	0.025129
C78	C	0.922932	0.500057	0.525129
C79	C	0.386160	0.000054	0.076702
C80	C	0.886160	0.500054	0.576702
O81	O	0.334974	0.000054	-0.020119
O82	O	0.834974	0.500054	0.479881
O83	O	0.308755	0.000055	0.172007
O84	O	0.808755	0.500055	0.672007
C85	C	0.677071	0.000074	-0.030013
C86	C	1.177071	0.500074	0.469987
C87	C	0.676305	0.000078	-0.093230
C88	C	1.176305	0.500078	0.406770
C89	C	0.776472	0.000071	0.069388
C90	C	1.276472	0.500071	0.569388
C91	C	0.839689	0.000073	0.070154
C92	C	1.339689	0.500073	0.570154
N93	N	0.672305	0.143865	0.074153
N94	N	1.172305	0.643865	0.574153
N95	N	0.672347	-0.143744	0.074112
N96	N	1.172347	0.356256	0.574112
C97	C	0.711273	0.563653	0.035196
C98	C	1.211273	1.063653	0.535196
C99	C	0.711275	0.627261	0.035192
C100	C	1.211275	1.127261	0.535192
O101	O	0.744384	0.660160	0.002076
O102	O	1.244384	1.160160	0.502076
N103	N	0.672333	0.659072	0.074115
N104	N	1.172333	1.159072	0.574115
C105	C	0.633382	0.627272	0.113041
C106	C	1.133382	1.127272	0.613041
O107	O	0.600259	0.660170	0.146148
O108	O	1.100259	1.160170	0.646148
C109	C	0.633377	0.563665	0.113042
C110	C	1.133377	1.063665	0.613042
C111	C	0.672326	0.531858	0.074120
C112	C	1.172326	1.031858	0.574120
C113	C	0.750217	0.531846	-0.003723
C114	C	1.250217	1.031846	0.496277
C115	C	0.750215	0.468243	-0.003719
C116	C	1.250215	0.968243	0.496281
C117	C	0.711268	0.436447	0.035205
C118	C	1.211268	0.936447	0.535205
C119	C	0.672324	0.468255	0.074125
C120	C	1.172324	0.968255	0.574125
C121	C	0.594424	0.531866	0.151965
C122	C	1.094424	1.031866	0.651965
C123	C	0.594422	0.468256	0.151962
C124	C	1.094422	0.968256	0.651962
C125	C	0.633370	0.436448	0.113040
C126	C	1.133370	0.936448	0.613040
C127	C	0.633374	0.372856	0.113054
C128	C	1.133374	0.872856	0.613054
N129	N	0.672317	0.341045	0.074130
N130	N	1.172317	0.841045	0.574130
C131	C	0.711263	0.372841	0.035206
C132	C	1.211263	0.872841	0.535206
C133	C	0.633395	0.760850	0.113036
C134	C	1.133395	1.260850	0.613036
C135	C	0.633402	0.824455	0.113039
C136	C	1.133402	1.324455	0.613039
C137	C	0.711294	0.824440	0.035188
C138	C	1.211294	1.324440	0.535188
C139	C	0.711290	0.760833	0.035189
C140	C	1.211290	1.260833	0.535189
C141	C	0.672337	0.729039	0.074113
C142	C	1.172337	1.229039	0.574113
C143	C	0.711256	0.239269	0.035220
C144	C	1.211256	0.739269	0.535220
C145	C	0.711252	0.175660	0.035229
C146	C	1.211252	0.675660	0.535229
C147	C	0.633358	0.175681	0.113077
C148	C	1.133358	0.675681	0.613077
C149	C	0.633364	0.239284	0.113070
C150	C	1.133364	0.739284	0.613070
C151	C	0.672315	0.271077	0.074136
C152	C	1.172315	0.771077	0.574136
O153	O	0.600282	0.339916	0.146151
O154	O	1.100282	0.839916	0.646151
O155	O	0.744376	0.339935	0.002100
O156	O	1.244376	0.839935	0.502100
C157	C	0.723539	0.000050	-0.492333
C158	C	1.223539	0.500050	0.007667
C159	C	0.722827	0.000046	-0.551733
C160	C	1.222827	0.500046	-0.051733
O161	O	0.766613	0.000028	-0.588478
O162	O	1.266613	0.500028	-0.088478
N163	N	0.670551	0.000040	-0.574359
N164	N	1.170551	0.500040	-0.074359
C165	C	0.618983	0.000033	-0.537582
C166	C	1.118983	0.500033	-0.037582
O167	O	0.574452	0.000027	-0.562281
O168	O	1.074452	0.500027	-0.062281
C169	C	0.619695	0.000033	-0.478182
C170	C	1.119695	0.500033	0.021818
C171	C	0.671974	0.000045	-0.455560
C172	C	1.171974	0.500045	0.044440
C173	C	0.775814	0.000061	-0.469710
C174	C	1.275814	0.500061	0.030290
C175	C	0.776525	0.000067	-0.410313
C176	C	1.276525	0.500067	0.089687
C177	C	0.724961	0.000062	-0.373540
C178	C	1.224961	0.500062	0.126460
C179	C	0.672685	0.000051	-0.396164
C180	C	1.172685	0.500051	0.103836
C181	C	0.568127	0.000022	-0.441406
C182	C	1.068127	0.500022	0.058594
C183	C	0.568844	0.000022	-0.382004
C184	C	1.068844	0.500022	0.117996
C185	C	0.621123	0.000034	-0.359381
C186	C	1.121123	0.500034	0.140619
C187	C	0.621832	0.000052	-0.299995
C188	C	1.121832	0.500052	0.200005
N189	N	0.674109	0.000057	-0.277368
N190	N	1.174109	0.500057	0.222632
C191	C	0.725673	0.000062	-0.314141
C192	C	1.225673	0.500062	0.185859
C193	C	0.617491	0.000031	-0.662324
C194	C	1.117491	0.500031	-0.162324
C195	C	0.616778	0.000035	-0.721722
C196	C	1.116778	0.500035	-0.221722
C197	C	0.720623	0.000047	-0.735869
C198	C	1.220623	0.500047	-0.235869
C199	C	0.721335	0.000047	-0.676470
C200	C	1.221335	0.500047	-0.176470
C201	C	0.669767	0.000037	-0.639698
C202	C	1.169767	0.500037	-0.139698
C203	C	0.727163	0.000075	-0.189405
C204	C	1.227163	0.500075	0.310595
C205	C	0.727869	0.000083	-0.130003
C206	C	1.227869	0.500083	0.369997
C207	C	0.624025	0.000069	-0.115860
C208	C	1.124025	0.500069	0.384140
C209	C	0.623318	0.000064	-0.175257
C210	C	1.123318	0.500064	0.324743
C211	C	0.674891	0.000065	-0.212029
C212	C	1.174891	0.500065	0.287971
O213	O	0.578070	0.000067	-0.263215
O214	O	1.078070	0.500067	0.236785
O215	O	0.770196	0.000060	-0.289433
O216	O	1.270196	0.500060	0.210567
C217	C	0.667577	0.000046	0.178283
C218	C	1.167577	0.500046	0.678283
C219	C	0.668343	0.000037	0.241500
C220	C	1.168343	0.500037	0.741500
H221	H	0.098544	0.000048	0.219617
H222	H	0.598544	0.500048	0.719617
H223	H	0.378851	0.000042	0.170970
H224	H	0.878851	0.500042	0.670970
O225	O	0.749103	0.855265	-0.002705
O226	O	1.249103	1.355265	0.497295
C227	C	0.740155	0.839736	-0.059037
C228	C	1.240155	1.339736	0.440963
H229	H	0.718205	0.793554	-0.058855
H230	H	1.218205	1.293554	0.441145
H231	H	0.783121	0.837561	-0.087304
H232	H	1.283121	1.337561	0.412696
H233	H	0.711905	0.875536	-0.076502
H234	H	1.211905	1.375536	0.423498
O235	O	0.788032	0.562659	-0.041614
O236	O	1.288032	1.062659	0.458386
C237	C	0.779089	0.547125	-0.097945
C238	C	1.279089	1.047125	0.402055
H239	H	0.757125	0.500950	-0.097760
H240	H	1.257125	1.000950	0.402240
H241	H	0.822058	0.544930	-0.126206
H242	H	1.322058	1.044930	0.373794
H243	H	0.750855	0.582931	-0.115422
H244	H	1.250855	1.082931	0.384578
H245	H	0.575496	0.000028	-0.632386
H246	H	1.075496	0.500028	-0.132386
H247	H	0.138375	0.000106	-0.072634
H248	H	0.638375	0.500106	0.427366
H249	H	0.574207	0.000036	-0.740136
H250	H	1.074207	0.500036	-0.240136
H251	H	0.742971	0.149765	0.003534
H252	H	1.242971	0.649765	0.503534
O253	O	0.787961	0.437238	-0.041526
O254	O	1.287961	0.937238	0.458474
C255	C	0.822932	0.400306	-0.011343
C256	C	1.322932	0.900306	0.488657
H257	H	0.823871	0.419467	0.033537
H258	H	1.323871	0.919467	0.533537
H259	H	0.868257	0.399427	-0.034974
H260	H	1.368257	0.899427	0.465026
H261	H	0.804946	0.352163	-0.008185
H262	H	1.304946	0.852163	0.491815
O263	O	0.490066	0.000052	0.180518
O264	O	0.990066	0.500052	0.680518
C265	C	0.444867	0.000034	0.225875
C266	C	0.944867	0.500034	0.725875
H267	H	0.404601	0.019170	0.210146
H268	H	0.904601	0.519170	0.710146
H269	H	0.457079	0.029365	0.262399
H270	H	0.957079	0.529365	0.762399
H271	H	0.436373	-0.048447	0.241757
H272	H	0.936373	0.451553	0.741757
O273	O	0.400887	0.000145	-0.025619
O274	O	0.900887	0.500145	0.474381
C275	C	0.366968	0.052494	-0.029139
C276	C	0.866968	0.552494	0.470861
H277	H	0.351924	0.069936	0.015836
H278	H	0.851924	0.569936	0.515836
H279	H	0.328194	0.040736	-0.051619
H280	H	0.828194	0.540736	0.448381
H281	H	0.393357	0.089142	-0.054479
H282	H	0.893357	0.589142	0.445521
H283	H	0.562708	0.557755	0.183658
H284	H	1.062708	1.057755	0.683658
H285	H	0.206289	0.000036	0.220908
H286	H	0.706289	0.500036	0.720908
H287	H	0.743004	0.734939	0.003495
H288	H	1.243004	1.234939	0.503495
H289	H	0.562700	0.442372	0.183658
H290	H	1.062700	0.942372	0.683658
H291	H	0.525555	0.000009	-0.459814
H292	H	1.025555	0.500009	0.040186
O293	O	-0.173384	-0.000046	0.172541
O294	O	0.326616	0.499954	0.672541
C295	C	-0.163167	-0.052377	0.204306
C296	C	0.336833	0.447623	0.704306
H297	H	-0.142695	-0.088955	0.174122
H298	H	0.357305	0.411045	0.674122
H299	H	-0.205442	-0.069943	0.227384
H300	H	0.294558	0.430057	0.727384
H301	H	-0.133104	-0.040549	0.237099
H302	H	0.366896	0.459451	0.737099
H303	H	0.601654	0.265183	0.144769
H304	H	1.101654	0.765183	0.644769
O305	O	-0.056239	0.000135	0.173894
O306	O	0.443761	0.500135	0.673894
C307	C	-0.022321	0.052477	0.177432
C308	C	0.477679	0.552477	0.677432
H309	H	-0.007277	0.069935	0.132463
H310	H	0.492723	0.569935	0.632463
H311	H	0.016452	0.040703	0.199909
H312	H	0.516452	0.540703	0.699909
H313	H	-0.048710	0.089118	0.202785
H314	H	0.451290	0.589118	0.702785
H315	H	0.601692	0.850348	0.144738
H316	H	1.101692	1.350348	0.644738
O317	O	-0.145573	0.000162	-0.032159
O318	O	0.354427	0.500162	0.467841
C319	C	-0.179497	0.052507	-0.035683
C320	C	0.320503	0.552507	0.464317
H321	H	-0.194543	0.069951	0.009291
H322	H	0.305457	0.569951	0.509291
H323	H	-0.218269	0.040741	-0.058164
H324	H	0.281731	0.540741	0.441836
H325	H	-0.153111	0.089155	-0.061025
H326	H	0.346889	0.589155	0.438975
O327	O	0.749148	0.270052	-0.002622
O328	O	1.249148	0.770052	0.497378
C329	C	0.783506	0.228328	-0.036978
C330	C	1.283506	0.728328	0.463022
H331	H	0.784009	0.182992	-0.013622
H332	H	1.284009	0.682992	0.486378
H333	H	0.829038	0.246695	-0.045902
H334	H	1.329038	0.746695	0.454098
H335	H	0.765255	0.221559	-0.079191
H336	H	1.265255	0.721559	0.420809
O337	O	0.573901	-0.000021	-0.080190
O338	O	1.073901	0.499979	0.419810
C339	C	0.542160	-0.052372	-0.090387
C340	C	1.042160	0.447628	0.409613
H341	H	0.556405	-0.069816	-0.135528
H342	H	1.056405	0.430184	0.364472
H343	H	0.494633	-0.040615	-0.085938
H344	H	0.994633	0.459385	0.414062
H345	H	0.549776	-0.089017	-0.057940
H346	H	1.049776	0.410983	0.442060
H347	H	0.762610	0.000048	-0.765821
H348	H	1.262610	0.500048	-0.265821
H349	H	0.526850	0.000013	-0.352066
H350	H	1.026850	0.500013	0.147934
O351	O	0.251824	0.000078	-0.079493
O352	O	0.751824	0.500078	0.420507
C353	C	0.219114	0.000104	-0.125783
C354	C	0.719114	0.500104	0.374217
H355	H	0.174698	-0.019025	-0.111068
H356	H	0.674698	0.480975	0.388932
H357	H	0.241221	-0.029229	-0.161896
H358	H	0.741221	0.470771	0.338104
H359	H	0.214972	0.048586	-0.141816
H360	H	0.714972	0.548586	0.358184
O361	O	0.595537	0.730061	0.150910
O362	O	1.095537	1.230061	0.650910
C363	C	0.561162	0.771783	0.185252
C364	C	1.061162	1.271783	0.685252
H365	H	0.584515	0.817119	0.185769
H366	H	1.084515	1.317119	0.685769
H367	H	0.552215	0.753414	0.230782
H368	H	1.052215	1.253414	0.730782
H369	H	0.518962	0.778555	0.166976
H370	H	1.018962	1.278555	0.666976
H371	H	-0.034198	0.000086	-0.022693
H372	H	0.465802	0.500086	0.477307
O373	O	0.595603	0.144721	0.150908
O374	O	1.095603	0.644721	0.650908
C375	C	0.625897	0.107934	0.185900
C376	C	1.125897	0.607934	0.685900
H377	H	0.670592	0.098407	0.162996
H378	H	1.170592	0.598407	0.662996
H379	H	0.602076	0.063206	0.195022
H380	H	1.102076	0.563206	0.695022
H381	H	0.629518	0.132443	0.227977
H382	H	1.129518	0.632443	0.727977
H383	H	0.769159	0.000073	-0.219337
H384	H	1.269159	0.500073	0.280663
H385	H	0.512280	0.000056	-0.016146
H386	H	1.012280	0.500056	0.483854
H387	H	0.770443	0.000094	-0.111587
H388	H	1.270443	0.500094	0.388413
O389	O	0.827360	0.000046	-0.388437
O390	O	1.327360	0.500046	0.111563
C391	C	0.872713	0.000064	-0.433640
C392	C	1.372713	0.500064	0.066360
H393	H	0.856979	-0.019069	-0.473904
H394	H	1.356979	0.480931	0.026096
H395	H	0.909239	-0.029271	-0.421433
H396	H	1.409239	0.470729	0.078567
H397	H	0.888595	0.048544	-0.442136
H398	H	1.388595	0.548544	0.057864
H399	H	0.817806	0.000063	-0.499645
H400	H	1.317806	0.500063	0.000355
H401	H	0.763906	0.000056	-0.658056
H402	H	1.263906	0.500056	-0.158056
O403	O	0.572571	-0.000023	-0.197306
O404	O	1.072571	0.499977	0.302694
C405	C	0.569056	-0.052372	-0.231222
C406	C	1.069056	0.447628	0.268778
H407	H	0.614033	-0.069816	-0.246260
H408	H	1.114033	0.430184	0.253740
H409	H	0.546580	-0.040613	-0.269999
H410	H	1.046580	0.459387	0.230001
H411	H	0.543714	-0.089018	-0.204833
H412	H	1.043714	0.410982	0.295167
