data_functionalizedCrystal
_audit_creation_method	'MofGen! by Chris Wilmer'
_symmetry_space_group_name_H-M	'P1'
_symmetry_Int_Tables_number	1
_symmetry_cell_setting	triclinic
loop_
_symmetry_equiv_pos_as_xyz
  x,y,z
_cell_length_a	16.120490
_cell_length_b	18.215404
_cell_length_c	18.215399
_cell_angle_alpha	89.972485
_cell_angle_beta	92.915256
_cell_angle_gamma	92.883826
loop_
_atom_site_label
_atom_site_type_symbol
_atom_site_fract_x
_atom_site_fract_y
_atom_site_fract_z
Zn1	Zn	1.274549	0.350181	0.473068
Zn2	Zn	1.774549	0.850181	0.973068
Zn3	Zn	1.274448	0.473248	0.349998
Zn4	Zn	1.774448	0.973248	0.849998
Zn5	Zn	1.135132	0.343949	0.343786
Zn6	Zn	1.635132	0.843949	0.843786
Zn7	Zn	1.135096	0.466953	0.466797
Zn8	Zn	1.635096	0.966953	0.966797
O9	O	1.204806	0.408583	0.408412
O10	O	1.704806	0.908583	0.908412
O11	O	1.391202	0.371749	0.461967
O12	O	1.891202	0.871749	0.961967
O13	O	1.255940	0.456122	0.246189
O14	O	1.755940	0.956122	0.746189
O15	O	1.153683	0.241794	0.360960
O16	O	1.653683	0.741794	0.860960
O17	O	1.391128	0.462166	0.371548
O18	O	1.891128	0.962166	0.871548
O19	O	1.256113	0.246373	0.455944
O20	O	1.756113	0.746373	0.955944
O21	O	1.153585	0.361127	0.241625
O22	O	1.653585	0.861127	0.741625
O23	O	1.018461	0.355023	0.354879
O24	O	1.518461	0.855023	0.854879
O25	O	1.153622	0.451437	0.570614
O26	O	1.653622	0.951437	1.070614
O27	O	1.018434	0.445394	0.445255
O28	O	1.518434	0.945394	0.945255
O29	O	1.256078	0.365645	0.575222
O30	O	1.756078	0.865645	1.075222
O31	O	1.255905	0.575395	0.365467
O32	O	1.755905	1.075395	0.865467
O33	O	1.153524	0.570770	0.451278
O34	O	1.653524	1.070770	0.951278
C35	C	1.204722	0.599785	0.408383
C36	C	1.704722	1.099785	0.908383
C37	C	1.204762	0.681586	0.408399
C38	C	1.704762	1.181586	0.908399
C39	C	0.988197	0.398849	0.398713
C40	C	1.488197	0.898849	0.898713
C41	C	0.895531	0.394703	0.394580
C42	C	1.395531	0.894703	0.894580
C43	C	1.258202	0.872169	0.363819
C44	C	1.758202	1.372169	0.863819
C45	C	1.258241	0.949030	0.363843
C46	C	1.758241	1.449030	0.863843
C47	C	1.151538	0.944250	0.453117
C48	C	1.651538	1.444250	0.953117
C49	C	1.151504	0.867391	0.453097
C50	C	1.651504	1.367391	0.953097
C51	C	1.204835	0.831353	0.408444
C52	C	1.704835	1.331353	0.908444
C53	C	1.204908	0.985072	0.408488
C54	C	1.704908	1.485072	0.908488
C55	C	1.204949	1.068408	0.408513
C56	C	1.704949	1.568408	0.908513
C57	C	1.204794	0.748012	0.408419
C58	C	1.704794	1.248012	0.908419
C59	C	0.684589	0.430085	0.429848
C60	C	1.184589	0.930085	0.929848
C61	C	0.725874	0.387140	0.387035
C62	C	1.225874	0.887140	0.887035
C63	C	0.820280	0.391349	0.391235
C64	C	1.320280	0.891349	0.891235
C65	C	0.590175	0.425876	0.425649
C66	C	1.090175	0.925876	0.925649
C67	C	1.422261	0.418355	0.418150
C68	C	1.922261	0.918355	0.918150
C69	C	1.514927	0.422519	0.422300
C70	C	2.014927	0.922519	0.922300
C71	C	1.204857	0.408534	0.600368
C72	C	1.704857	0.908534	1.100368
C73	C	1.204879	0.408514	0.682168
C74	C	1.704879	0.908514	1.182168
C75	C	1.204919	1.216635	0.408472
C76	C	1.704919	1.716635	0.908472
C77	C	1.204980	1.134839	0.408532
C78	C	1.704980	1.634839	0.908532
C79	C	1.204804	0.408580	0.217206
C80	C	1.704804	0.908580	0.717206
C81	C	1.204943	0.408401	0.135414
C82	C	1.704943	0.908401	0.635414
C83	C	1.258247	0.363799	0.872763
C84	C	1.758247	0.863799	1.372763
C85	C	1.258257	0.363778	0.949622
C86	C	1.758257	0.863778	1.449622
C87	C	1.151570	0.453118	0.944813
C88	C	1.651570	0.953118	1.444813
C89	C	1.151556	0.453134	0.867955
C90	C	1.651556	0.953134	1.367955
C91	C	1.204899	0.408476	0.831932
C92	C	1.704899	0.908476	1.331932
C93	C	1.204923	0.408439	0.985649
C94	C	1.704923	0.908439	1.485649
C95	C	1.204933	0.408416	1.068983
C96	C	1.704933	0.908416	1.568983
C97	C	1.204888	0.408497	0.748593
C98	C	1.704888	0.908497	1.248593
H99	H	1.301628	0.842829	0.327461
H100	H	1.801628	1.342829	0.827461
H101	H	1.108141	0.489478	0.974152
H102	H	1.608141	0.989478	1.474152
H103	H	1.301699	0.982260	0.327507
H104	H	1.801699	1.482260	0.827507
H105	H	1.108108	0.489515	0.834709
H106	H	1.608108	0.989515	1.334709
H107	H	1.108117	0.973602	0.489471
H108	H	1.608117	1.473602	0.989471
Cl109	Cl	1.084413	0.816075	0.509205
Cl110	Cl	1.584413	1.316075	1.009205
Cl111	Cl	0.739483	0.491735	0.491294
Cl112	Cl	1.239483	0.991735	0.991294
H113	H	0.690318	0.347212	0.347228
H114	H	1.190318	0.847212	0.847228
H115	H	1.301680	0.327433	0.843435
H116	H	1.801680	0.827433	1.343435
Cl117	Cl	1.325332	0.307616	1.000950
Cl118	Cl	1.825332	0.807616	1.500950
