data_functionalizedCrystal
_audit_creation_method	'MofGen! by Chris Wilmer'
_symmetry_space_group_name_H-M	'P1'
_symmetry_Int_Tables_number	1
_symmetry_cell_setting	triclinic
loop_
_symmetry_equiv_pos_as_xyz
  x,y,z
_cell_length_a	14.446369
_cell_length_b	20.875641
_cell_length_c	14.446369
_cell_angle_alpha	90.000437
_cell_angle_beta	119.995629
_cell_angle_gamma	57.588106
loop_
_atom_site_label
_atom_site_type_symbol
_atom_site_fract_x
_atom_site_fract_y
_atom_site_fract_z
Zr1	Zr	1.022616	-0.087475	-0.887066
O2	O	1.226977	-0.193795	-0.733640
O3	O	0.826050	-0.054878	-0.934099
O4	O	1.033882	-0.193802	-0.926741
O5	O	1.007540	0.054709	-0.746802
O6	O	1.033902	-0.193811	-1.079064
O7	O	1.019145	-0.054872	-0.740997
O8	O	0.662129	0.054698	-1.092226
O9	O	1.379313	-0.193801	-0.733641
O10	O	0.904029	-0.040988	-1.067836
O11	O	0.895353	0.040798	-0.958491
O12	O	1.140048	-0.122767	-0.949828
O13	O	1.131373	-0.040981	-0.840484
Zr14	Zr	1.004139	0.087277	-1.139262
Zr15	Zr	1.022648	-0.087491	-1.130004
Zr16	Zr	1.004107	0.087293	-0.896324
Zr17	Zr	1.265575	-0.087483	-0.887068
Zr18	Zr	0.761180	0.087285	-1.139260
O19	O	1.200705	0.054680	-1.092230
O20	O	1.227022	-0.193818	-1.079066
O21	O	1.200660	0.054702	-0.746804
O22	O	0.799778	0.193598	-1.292689
O23	O	0.826095	-0.054900	-1.279525
O24	O	0.799733	0.193620	-0.947263
O25	O	1.019215	-0.054907	-1.279526
O26	O	0.992873	0.193604	-1.099587
O27	O	0.992853	0.193614	-0.947264
O28	O	1.007610	0.054674	-1.285331
O29	O	1.379338	-0.193813	-0.926744
O30	O	0.647417	0.193615	-1.099585
O31	O	0.647442	0.193603	-1.292688
O32	O	0.662154	0.054685	-1.285329
O33	O	1.364601	-0.054883	-0.741000
O34	O	1.364626	-0.054896	-0.934103
O35	O	0.886707	0.122569	-1.076500
O36	O	0.895383	0.040783	-1.185845
O37	O	1.131402	-0.040996	-1.067837
O38	O	1.122727	0.040790	-0.958493
C39	C	0.709473	-0.000089	-1.013162
C40	C	0.606331	-0.000085	-1.013161
C41	C	1.013338	-0.000079	-0.709286
C42	C	1.013324	-0.000073	-0.606153
C43	C	0.990226	0.218509	-1.024745
C44	C	0.982368	0.292703	-1.028675
C45	C	0.453824	0.051733	-0.944553
C46	C	0.561466	0.051524	-0.944154
C47	C	0.664732	-0.088949	-0.956152
C48	C	0.557470	-0.088680	-0.955630
C49	C	0.369046	0.036195	-1.138788
C50	C	0.475005	0.038008	-1.138702
C51	C	1.317282	-0.000109	-1.013166
C52	C	1.420424	-0.000112	-1.013167
C53	C	1.036529	-0.218707	-1.001584
C54	C	1.044387	-0.292901	-0.997653
C55	C	1.101873	0.284874	-0.968925
C56	C	1.094482	0.354589	-0.972613
C57	C	0.967585	0.432134	-1.036059
C58	C	0.848071	0.439961	-1.095810
C59	C	0.855463	0.370246	-1.092115
C60	C	0.932265	0.645212	-1.053710
C61	C	0.924882	0.714928	-1.057403
C62	C	1.171294	0.629552	-0.934204
C63	C	1.178675	0.559839	-0.930520
C64	C	1.059162	0.567673	-0.990267
N65	N	0.960027	0.503395	-1.039833
N66	N	1.066721	0.496412	-0.986485
C67	C	0.864500	0.051241	-0.533890
C68	C	0.864379	0.051533	-0.641230
C69	C	1.080563	0.037549	-0.533589
C70	C	1.079606	0.037922	-0.426754
C71	C	1.096009	-0.089082	-0.418452
C72	C	1.093299	-0.088939	-0.527128
C73	C	1.013399	-0.000112	-0.317051
C74	C	1.013359	-0.000099	-0.420211
C75	C	0.709513	-0.000109	-1.317040
C76	C	0.606384	-0.000112	-1.420173
C77	C	0.686321	0.218519	-1.024742
C78	C	0.575321	0.292716	-1.028672
C79	C	0.686361	0.218500	-1.328620
C80	C	0.575375	0.292690	-1.435683
C81	C	1.340394	-0.218698	-0.697708
C82	C	1.451380	-0.292888	-0.590645
C83	C	1.317242	-0.000089	-0.709288
C84	C	1.420371	-0.000086	-0.606156
C85	C	1.340434	-0.218717	-1.001586
C86	C	1.451434	-0.292914	-0.997656
C87	C	0.518681	0.370251	-1.092117
C88	C	0.414398	0.439974	-1.095806
C89	C	0.366750	0.432160	-1.036054
C90	C	0.423401	0.354617	-0.972601
C91	C	0.527689	0.284896	-0.968907
C92	C	0.527783	0.284839	-1.543048
C93	C	0.423514	0.354542	-1.643654
C94	C	0.366831	0.432096	-1.636893
C95	C	0.414433	0.439945	-1.529516
C96	C	0.518707	0.370243	-1.428913
C97	C	1.498984	-0.285037	-0.483280
C98	C	1.603283	-0.354740	-0.382674
C99	C	1.659971	-0.432293	-0.389436
C100	C	1.612363	-0.440143	-0.496812
C101	C	1.508072	-0.370440	-0.597416
C102	C	1.499048	-0.285074	-1.057420
C103	C	1.603330	-0.354784	-1.053751
C104	C	1.660004	-0.432332	-0.990310
C105	C	1.612380	-0.440171	-0.930544
C106	C	1.508093	-0.370462	-0.934221
C107	C	0.454665	0.051187	-1.641238
C108	C	0.561543	0.051486	-1.534033
C109	C	0.475541	0.037512	-1.425493
C110	C	0.368139	0.037878	-1.533270
C111	C	0.556568	-0.089132	-1.525171
C112	C	0.665011	-0.088982	-1.419220
H113	H	0.517831	0.116960	-0.982704
H114	H	1.022052	0.103402	-0.430491
H115	H	1.452919	-0.221937	-1.109081
H116	H	0.810862	0.026139	-0.534894
Cl117	Cl	0.702681	0.012653	-0.801224
H118	H	1.642093	-0.348385	-1.102418
Cl119	Cl	0.403162	0.139084	-1.204388
Cl120	Cl	0.343196	0.537446	-1.175585
Cl121	Cl	0.235740	0.519715	-1.763378
Cl122	Cl	0.343158	0.537447	-1.521036
H123	H	1.469337	-0.376857	-0.885548
H124	H	1.744921	-0.489087	-0.987325
Cl125	Cl	1.683637	-0.537645	-0.505293
Cl126	Cl	0.622826	-0.137660	-1.599811
Cl127	Cl	1.261703	-0.152966	-0.484319
Cl128	Cl	0.599028	0.187352	-1.551579
Cl129	Cl	1.030284	-0.137605	-0.409528
H130	H	0.557442	0.376646	-1.341496
H131	H	1.658539	-0.503320	-0.878891
Cl132	Cl	0.703669	0.012467	-1.534410
H133	H	0.494572	0.026074	-1.693860
H134	H	0.358013	0.117332	-0.982926
Cl135	Cl	1.448232	-0.380324	-0.732384
Cl136	Cl	0.305575	0.151923	-1.731443
Cl137	Cl	0.492970	0.152836	-1.543189
H138	H	1.744890	-0.489043	-0.307509
H139	H	0.500097	0.004174	-1.194558
H140	H	0.573793	0.221766	-0.917247
H141	H	0.384768	0.348137	-1.731075
Cl142	Cl	1.247783	-0.016083	-0.302575
H143	H	0.270455	0.103357	-1.587081
H144	H	0.341886	0.002900	-1.504766
Cl145	Cl	0.578554	0.380096	-1.167246
Cl146	Cl	0.335100	-0.021829	-1.218188
H147	H	0.501546	0.001925	-1.345347
Cl148	Cl	1.265416	-0.148418	-0.294561
H149	H	1.452835	-0.221896	-0.477753
H150	H	0.281832	0.488938	-1.039072
H151	H	1.642028	-0.348333	-0.295254
Cl152	Cl	0.405393	0.137656	-1.427510
Cl153	Cl	0.513008	0.013238	-0.802493
H154	H	0.834948	0.651601	-1.102364
H155	H	0.758477	-0.117088	-1.418252
Cl156	Cl	0.721371	-0.153003	-1.293628
H157	H	0.384591	0.348267	-0.923954
H158	H	0.535845	-0.127562	-1.495689
Cl159	Cl	1.249264	-0.017403	-0.488628
H160	H	0.744748	0.503104	-1.147463
Cl161	Cl	1.261411	0.187393	-0.889168
H162	H	0.539821	-0.129407	-1.002091
Cl163	Cl	0.625033	-0.133553	-0.812719
H164	H	0.697791	-0.129248	-1.003496
Cl165	Cl	1.244725	0.344742	-0.897453
H166	H	0.268482	0.100623	-1.185899
Cl167	Cl	0.812013	-0.134134	-0.814566
H168	H	0.811193	0.026286	-0.694154
Cl169	Cl	1.338211	0.462358	-0.850753
H170	H	1.268596	0.623183	-0.885560
H171	H	0.758149	0.376626	-1.140767
Cl172	Cl	0.765341	0.812416	-1.137209
H173	H	0.801030	0.117181	-0.698568
Cl174	Cl	0.767342	0.151978	-0.540826
Cl175	Cl	0.993584	0.137688	-0.618555
H176	H	1.044345	-0.117045	-0.577059
