data_functionalizedCrystal
_audit_creation_method	'MofGen! by Chris Wilmer'
_symmetry_space_group_name_H-M	'P1'
_symmetry_Int_Tables_number	1
_symmetry_cell_setting	triclinic
loop_
_symmetry_equiv_pos_as_xyz
  x,y,z
_cell_length_a	12.759401
_cell_length_b	21.295417
_cell_length_c	21.295395
_cell_angle_alpha	89.892576
_cell_angle_beta	89.933148
_cell_angle_gamma	90.030933
loop_
_atom_site_label
_atom_site_type_symbol
_atom_site_fract_x
_atom_site_fract_y
_atom_site_fract_z
Zn1	Zn	1.606640	-0.250141	-0.355861
Zn2	Zn	2.106640	0.249859	0.144139
Zn3	Zn	1.606338	-0.355550	-0.250586
Zn4	Zn	2.106338	0.144450	0.249414
Zn5	Zn	1.430794	-0.250300	-0.250611
Zn6	Zn	1.930794	0.249700	0.249389
Zn7	Zn	1.430882	-0.355377	-0.355823
Zn8	Zn	1.930882	0.144623	0.144177
O9	O	1.518664	-0.302842	-0.303220
O10	O	2.018664	0.197158	0.196780
O11	O	1.753621	-0.264130	-0.341901
O12	O	2.253621	0.235870	0.158099
O13	O	1.582889	-0.341728	-0.162499
O14	O	2.082889	0.158272	0.337501
O15	O	1.454210	-0.162189	-0.264599
O16	O	1.954210	0.337811	0.235401
O17	O	1.753399	-0.341574	-0.264556
O18	O	2.253399	0.158426	0.235444
O19	O	1.583404	-0.162072	-0.341925
O20	O	2.083404	0.337928	0.158075
O21	O	1.453917	-0.264400	-0.162518
O22	O	1.953917	0.235600	0.337482
O23	O	1.283785	-0.264232	-0.264563
O24	O	1.783785	0.235768	0.235437
O25	O	1.454360	-0.341278	-0.443918
O26	O	1.954360	0.158722	0.056082
O27	O	1.283850	-0.341432	-0.341862
O28	O	1.783850	0.158568	0.158138
O29	O	1.583489	-0.263962	-0.443945
O30	O	2.083489	0.236038	0.056055
O31	O	1.582974	-0.443617	-0.264520
O32	O	2.082974	0.056383	0.235480
O33	O	1.454067	-0.443489	-0.341837
O34	O	1.954067	0.056511	0.158163
C35	C	1.245696	-0.302831	-0.303211
C36	C	1.745696	0.197169	0.196789
C37	C	1.128920	-0.302842	-0.303222
C38	C	1.628920	0.197158	0.196778
C39	C	1.518526	-0.466394	-0.303185
C40	C	2.018526	0.033606	0.196815
C41	C	1.518563	-0.536362	-0.303191
C42	C	2.018563	-0.036362	0.196809
C43	C	1.074174	-0.262589	-0.343558
C44	C	1.574174	0.237411	0.156442
C45	C	0.964450	-0.262596	-0.343562
C46	C	1.464450	0.237404	0.156438
C47	C	0.964227	-0.343112	-0.262893
C48	C	1.464227	0.156888	0.237107
C49	C	1.073949	-0.343102	-0.262886
C50	C	1.573949	0.156898	0.237114
C51	C	1.585745	-0.569274	-0.262973
C52	C	2.085745	-0.069274	0.237027
C53	C	1.585794	-0.635016	-0.262988
C54	C	2.085794	-0.135016	0.237012
C55	C	1.518643	-0.667844	-0.303213
C56	C	2.018643	-0.167844	0.196787
C57	C	1.451457	-0.634924	-0.343439
C58	C	1.951457	-0.134924	0.156561
C59	C	1.451417	-0.569183	-0.343428
C60	C	1.951417	-0.069183	0.156572
N61	N	1.426743	-0.771104	-0.308009
N62	N	1.926743	-0.271104	0.191991
N63	N	1.426783	-0.833555	-0.308016
N64	N	1.926783	-0.333555	0.191984
C65	C	1.518761	-0.865919	-0.303249
C66	C	2.018761	-0.365919	0.196751
N67	N	1.610698	-0.833472	-0.298464
N68	N	2.110698	-0.333472	0.201536
N69	N	1.610656	-0.771014	-0.298454
N70	N	2.110656	-0.271014	0.201546
C71	C	1.518679	-0.739130	-0.303230
C72	C	2.018679	-0.239130	0.196770
C73	C	1.586001	-0.970116	-0.263044
C74	C	2.086001	-0.470116	0.236956
C75	C	1.586052	-1.035860	-0.263063
C76	C	2.086052	-0.535860	0.236937
C77	C	1.451706	-1.035767	-0.343511
C78	C	1.951706	-0.535767	0.156489
C79	C	1.451664	-0.970024	-0.343496
C80	C	1.951664	-0.470024	0.156504
C81	C	1.518810	-0.937203	-0.303259
C82	C	2.018810	-0.437203	0.196741
C83	C	1.792697	-0.302853	-0.303229
C84	C	2.292697	0.197147	0.196771
C85	C	1.909474	-0.302858	-0.303233
C86	C	2.409474	0.197142	0.196767
C87	C	1.518968	-0.302583	-0.467411
C88	C	2.018968	0.197417	0.032589
C89	C	1.519098	-0.302472	-0.537379
C90	C	2.019098	0.197528	-0.037379
C91	C	1.518831	-0.138652	-0.303269
C92	C	2.018831	0.361348	0.196731
C93	C	1.518902	-0.068683	-0.303290
C94	C	2.018902	0.431317	0.196710
C95	C	1.518421	-0.303055	-0.139668
C96	C	2.018421	0.196945	0.360332
C97	C	1.518495	-0.302988	-0.069700
C98	C	2.018495	0.197012	0.430300
C99	C	1.450894	-0.262995	-0.036873
C100	C	1.950894	0.237005	0.463127
C101	C	1.450972	-0.262927	0.028870
C102	C	1.950972	0.237073	0.528870
C103	C	1.518640	-0.302863	0.061782
C104	C	2.018640	0.197137	0.561782
C105	C	1.586253	-0.342859	0.028947
C106	C	2.086253	0.157141	0.528947
C107	C	1.586181	-0.342921	-0.036794
C108	C	2.086181	0.157079	0.463206
N109	N	1.527421	-0.357831	0.165148
N110	N	2.027421	0.142169	0.665148
N111	N	1.527483	-0.357770	0.227599
N112	N	2.027483	0.142230	0.727599
C113	C	1.518863	-0.302676	0.259856
C114	C	2.018863	0.197324	0.759856
N115	N	1.510158	-0.247645	0.227303
N116	N	2.010158	0.252355	0.727303
N117	N	1.510090	-0.247707	0.164846
N118	N	2.010090	0.252293	0.664846
C119	C	1.518726	-0.302799	0.133067
C120	C	2.018726	0.197201	0.633067
C121	C	1.451344	-0.262606	0.363969
C122	C	1.951344	0.237394	0.863969
C123	C	1.451429	-0.262536	0.429713
C124	C	1.951429	0.237464	0.929713
C125	C	1.586704	-0.342474	0.429789
C126	C	2.086704	0.157526	0.929789
C127	C	1.586625	-0.342538	0.364046
C128	C	2.086625	0.157462	0.864046
C129	C	1.518939	-0.302604	0.331141
C130	C	2.018939	0.197396	0.831141
H131	H	0.919881	-0.229817	-0.376407
H132	H	1.419881	0.270183	0.123593
O133	O	1.133461	-0.219161	-0.387058
O134	O	1.633461	0.280839	0.112942
H135	H	1.218956	-0.225919	-0.380282
H136	H	1.718956	0.274081	0.119718
O137	O	1.379281	-1.071168	-0.386899
O138	O	1.879281	-0.571168	0.113101
H139	H	1.332559	-1.037234	-0.414866
H140	H	1.832559	-0.537234	0.085134
H141	H	1.396784	-0.661657	-0.376192
H142	H	1.896784	-0.161657	0.123808
H143	H	0.919457	-0.375892	-0.230054
H144	H	1.419457	0.124108	0.269946
O145	O	1.133009	-0.386517	-0.219378
O146	O	1.633009	0.113483	0.280622
H147	H	1.076353	-0.414520	-0.191336
H148	H	1.576353	0.085480	0.308664
H149	H	1.396954	-0.943226	-0.376243
H150	H	1.896954	-0.443226	0.123757
H151	H	1.395780	-0.230477	-0.063661
H152	H	1.895780	0.269523	0.436339
O153	O	1.659703	-0.385540	0.465281
O154	O	2.159703	0.114460	0.965281
H155	H	1.706705	-0.413358	0.431406
H156	H	2.206705	0.086642	0.931406
H157	H	1.396382	-0.229965	0.456440
H158	H	1.896382	0.270035	0.956440
H159	H	1.395925	-0.230357	0.055603
H160	H	1.895925	0.269643	0.555603
H161	H	1.640422	-0.542553	-0.230212
H162	H	2.140422	-0.042553	0.269788
O163	O	1.659510	-0.385690	0.328633
O164	O	2.159510	0.114310	0.828633
H165	H	1.706567	-0.413457	0.362562
H166	H	2.206567	0.086543	0.862562
H167	H	1.641350	-0.375374	0.055748
H168	H	2.141350	0.124626	0.555748
O169	O	1.378935	-0.533679	-0.386796
O170	O	1.878935	-0.033679	0.113204
H171	H	1.332239	-0.567548	-0.414767
H172	H	1.832239	-0.067548	0.085233
H173	H	1.641231	-0.375489	-0.063522
H174	H	2.141231	0.124511	0.436478
H175	H	1.396237	-0.230085	0.337176
H176	H	1.896237	0.269915	0.837176
H177	H	1.640505	-0.661818	-0.230237
H178	H	2.140505	-0.161818	0.269763
O179	O	1.658436	-0.934704	-0.219665
O180	O	2.158436	-0.434704	0.280335
H181	H	1.640423	-0.947430	-0.170249
H182	H	2.140423	-0.447430	0.329751
O183	O	1.658514	-1.071363	-0.219682
O184	O	2.158514	-0.571363	0.280318
H185	H	1.705186	-1.037493	-0.191699
H186	H	2.205186	-0.537493	0.308301
