data_functionalizedCrystal
_audit_creation_method	'MofGen! by Chris Wilmer'
_symmetry_space_group_name_H-M	'P1'
_symmetry_Int_Tables_number	1
_symmetry_cell_setting	triclinic
loop_
_symmetry_equiv_pos_as_xyz
  x,y,z
_cell_length_a	12.759401
_cell_length_b	19.076808
_cell_length_c	12.759393
_cell_angle_alpha	87.665862
_cell_angle_beta	89.980324
_cell_angle_gamma	92.323972
loop_
_atom_site_label
_atom_site_type_symbol
_atom_site_fract_x
_atom_site_fract_y
_atom_site_fract_z
Zn1	Zn	1.589385	-0.280176	-0.577141
Zn2	Zn	1.582183	-0.397897	-0.394384
Zn3	Zn	1.413681	-0.280211	-0.401478
Zn4	Zn	1.406585	-0.397845	-0.570028
O5	O	1.497959	-0.339032	-0.485758
O6	O	1.735450	-0.295799	-0.552906
O7	O	1.559786	-0.382322	-0.248302
O8	O	1.442973	-0.181710	-0.430726
O9	O	1.730159	-0.382288	-0.418635
O10	O	1.572061	-0.181684	-0.559785
O11	O	1.435989	-0.295859	-0.253514
O12	O	1.265720	-0.295809	-0.423829
O13	O	1.430879	-0.382200	-0.717995
O14	O	1.260506	-0.382234	-0.547662
O15	O	1.565180	-0.295749	-0.723221
O16	O	1.552906	-0.496387	-0.411738
O17	O	1.423895	-0.496349	-0.540783
C18	C	1.224992	-0.339020	-0.485744
C19	C	1.108215	-0.339032	-0.485762
C20	C	1.056104	-0.294078	-0.555775
C21	C	0.946379	-0.294086	-0.555782
C22	C	0.940886	-0.384006	-0.415758
C23	C	1.050609	-0.383995	-0.415747
C24	C	1.486877	-0.521907	-0.474742
C25	C	1.482233	-0.600142	-0.470064
C26	C	1.547210	-0.636823	-0.535115
C27	C	1.542842	-0.710332	-0.530722
C28	C	1.473501	-0.747160	-0.461272
C29	C	1.408517	-0.710474	-0.396218
C30	C	1.412880	-0.636966	-0.400617
C31	C	1.453244	-0.967014	-0.440908
C32	C	1.448887	-1.040528	-0.436511
C33	C	1.583212	-1.040381	-0.571017
C34	C	1.587574	-0.966871	-0.575406
C35	C	1.522586	-0.930192	-0.510356
N36	N	1.469037	-0.822299	-0.456777
N37	N	1.527045	-0.855054	-0.514857
C38	C	1.771991	-0.339045	-0.485773
C39	C	1.888767	-0.339050	-0.485779
C40	C	1.498041	-0.338965	-0.759795
C41	C	1.498077	-0.338936	-0.876574
C42	C	1.509112	-0.155443	-0.496840
C43	C	1.513865	-0.077209	-0.501562
C44	C	1.568013	-0.293914	-0.934159
C45	C	1.568033	-0.293883	-1.043885
C46	C	1.428176	-0.383904	-1.038431
C47	C	1.428152	-0.383930	-0.928707
C48	C	1.497940	-0.339049	-0.212789
C49	C	1.498120	-0.338879	-0.096024
H50	H	1.103003	-0.257465	-0.612782
H51	H	1.352054	-0.740465	-0.339675
O52	O	1.646173	-1.076047	-0.634319
C53	C	1.655293	-1.158997	-0.771171
C54	C	1.583870	-1.118636	-0.699555
H55	H	1.604950	-1.193452	-0.823917
H56	H	1.705581	-1.120084	-0.821645
H57	H	1.708234	-1.193374	-0.720908
H58	H	1.530865	-1.084259	-0.749737
H59	H	1.533653	-1.157588	-0.649076
O60	O	1.349654	-0.601299	-0.337578
C61	C	1.212780	-0.518362	-0.328294
C62	C	1.284310	-0.558722	-0.399803
H63	H	1.159947	-0.483917	-0.378573
H64	H	1.162395	-0.557275	-0.277918
H65	H	1.263106	-0.483975	-0.275439
H66	H	1.234066	-0.593110	-0.452722
H67	H	1.334701	-0.519770	-0.450108
O68	O	1.636072	-0.250128	-1.099662
C69	C	1.774748	-0.160816	-1.093486
C70	C	1.697765	-0.210347	-1.030192
H71	H	1.824632	-0.128630	-1.037348
H72	H	1.827800	-0.193088	-1.142889
H73	H	1.728744	-0.124023	-1.147096
H74	H	1.743684	-0.247149	-0.976525
H75	H	1.644712	-0.178031	-0.980858
H76	H	0.903955	-0.257479	-0.612792
O77	O	1.654898	-0.930991	-0.642785
C78	C	1.721095	-0.817683	-0.709223
C79	C	1.644819	-0.858230	-0.632853
H80	H	1.712957	-0.758849	-0.701235
H81	H	1.804994	-0.832041	-0.689990
H82	H	1.701751	-0.832148	-0.793045
H83	H	1.664068	-0.843786	-0.549005
H84	H	1.560942	-0.843868	-0.652176
H85	H	1.371248	-0.420538	-1.080891
O86	O	1.360176	-0.427735	-0.872920
C87	C	1.221418	-0.516992	-0.879081
C88	C	1.298359	-0.467436	-0.942387
H89	H	1.171404	-0.549092	-0.935219
H90	H	1.267353	-0.553857	-0.825521
H91	H	1.168484	-0.484672	-0.829628
H92	H	1.351312	-0.499699	-0.991901
H93	H	1.252359	-0.430569	-0.995881
H94	H	1.392417	-1.070511	-0.379956
O95	O	1.614593	-0.601160	-0.602675
C96	C	1.747395	-0.608782	-0.735589
C97	C	1.671118	-0.649254	-0.659137
H98	H	1.793131	-0.647648	-0.781243
H99	H	1.701219	-0.574389	-0.792610
H100	H	1.804358	-0.574338	-0.689452
H101	H	1.614137	-0.683736	-0.705187
H102	H	1.717362	-0.683602	-0.602116
H103	H	1.400330	-0.937156	-0.387940
H104	H	0.893970	-0.420613	-0.358755
H105	H	1.093038	-0.420602	-0.358728
H106	H	1.595761	-0.740194	-0.583685
H107	H	1.624947	-0.257275	-0.891716
