data_functionalizedCrystal
_audit_creation_method	'MofGen! by Chris Wilmer'
_symmetry_space_group_name_H-M	'P1'
_symmetry_Int_Tables_number	1
_symmetry_cell_setting	triclinic
loop_
_symmetry_equiv_pos_as_xyz
  x,y,z
_cell_length_a	14.971486
_cell_length_b	10.489741
_cell_length_c	14.048226
_cell_angle_alpha	89.993872
_cell_angle_beta	89.998499
_cell_angle_gamma	84.076651
loop_
_atom_site_label
_atom_site_type_symbol
_atom_site_fract_x
_atom_site_fract_y
_atom_site_fract_z
O1	O	1.187893	0.166222	-0.079050
O2	O	0.927606	0.186127	-0.079076
O3	O	1.063672	-0.009492	-0.079057
O4	O	1.051827	0.361841	-0.079070
O5	O	1.063656	-0.009503	0.079264
O6	O	0.927590	0.186116	0.079245
O7	O	1.187876	0.166211	0.079271
Zn8	Zn	1.057730	0.176161	0.104395
Zn9	Zn	1.057752	0.176177	-0.104200
O10	O	1.051810	0.361830	0.079252
C11	C	0.894268	0.185232	0.000081
C12	C	0.794956	0.182564	0.000071
C13	C	0.738385	0.297485	0.000069
C14	C	0.645071	0.294971	0.000083
C15	C	0.608330	0.177534	0.000093
C16	C	0.664909	0.062604	0.000098
C17	C	0.758221	0.065120	0.000091
C18	C	0.470416	0.057369	0.000112
C19	C	0.377098	0.054853	0.000117
C20	C	0.357267	0.287220	0.000104
C21	C	0.450579	0.289736	0.000096
C22	C	0.507151	0.174805	0.000100
C23	C	1.062769	-0.057019	0.000103
C24	C	1.060093	-0.198617	0.000101
C25	C	0.973518	-0.265755	0.000085
C26	C	1.014407	-0.358357	0.078150
C27	C	1.014444	-0.358320	-0.077942
C28	C	1.101017	-0.289354	0.078230
C29	C	1.101042	-0.289308	-0.077933
C30	C	1.141994	-0.381882	0.000151
C31	C	1.221215	0.167106	0.000111
C32	C	1.320527	0.169774	0.000115
C33	C	1.052713	0.409357	0.000090
C34	C	1.055390	0.550955	0.000085
N35	N	1.057722	0.176150	0.246755
N36	N	1.057768	0.176178	-0.246561
C37	C	1.117991	0.089566	0.296582
C38	C	1.117997	0.089565	0.396240
C39	C	1.057738	0.176156	0.446069
C40	C	0.997462	0.262744	0.396235
C41	C	0.997452	0.262738	0.296580
C42	C	0.997488	0.262754	0.603950
C43	C	0.997498	0.262762	0.703612
C44	C	1.118033	0.089581	0.703610
C45	C	1.118023	0.089574	0.603954
C46	C	1.057748	0.176165	0.554127
H47	H	0.599014	0.388551	0.000080
H48	H	0.480489	0.385363	0.000079
O49	O	0.302446	0.398984	0.000066
C50	C	0.354883	0.503175	0.000074
H51	H	0.424304	0.470906	-0.029908
H52	H	0.320982	0.583706	-0.045892
H53	H	0.361766	0.539163	0.076025
H54	H	0.948428	0.333272	0.744178
H55	H	0.948374	0.333242	0.256012
H56	H	0.347187	-0.040774	0.000127
O57	O	0.970861	-0.394942	-0.156707
C58	C	1.029598	-0.479701	-0.211169
H59	H	1.085175	-0.526653	-0.163455
H60	H	0.990652	-0.556763	-0.243698
H61	H	1.060463	-0.424230	-0.270393
H62	H	1.167065	0.019059	0.256018
O63	O	1.176639	0.005424	0.444493
C64	C	1.229817	-0.071013	0.379143
H65	H	1.231142	-0.018720	0.308097
H66	H	1.301127	-0.090277	0.407925
H67	H	1.200184	-0.165850	0.368564
O68	O	0.939029	0.347044	0.555588
C69	C	0.954368	0.473345	0.579941
H70	H	1.025984	0.474134	0.607328
H71	H	0.944488	0.537331	0.514396
H72	H	0.905038	0.510699	0.637787
O73	O	0.525243	-0.054391	0.000068
C74	C	0.472809	-0.158585	0.000096
H75	H	0.403381	-0.126313	-0.029868
H76	H	0.506702	-0.239105	-0.045875
H77	H	0.465943	-0.194591	0.076051
H78	H	0.902336	-0.215280	0.000157
O79	O	1.144596	-0.252582	-0.156686
C80	C	1.086324	-0.165960	-0.210187
H81	H	1.031456	-0.118577	-0.161805
H82	H	1.125929	-0.089400	-0.242408
H83	H	1.054469	-0.219855	-0.269609
H84	H	0.634987	-0.033015	0.000120
H85	H	0.977768	-0.388949	0.144141
H86	H	1.167095	0.019072	0.563383
H87	H	1.167110	0.019076	0.744184
O88	O	0.938799	0.346727	0.444596
C89	C	0.850125	0.325796	0.420244
H90	H	0.849035	0.223671	0.392860
H91	H	0.805339	0.340359	0.485788
H92	H	0.824297	0.396430	0.362396
O93	O	0.773922	0.411676	0.000100
C94	C	0.703977	0.512567	0.000078
H95	H	0.640371	0.476709	0.030059
H96	H	0.724001	0.594547	0.046038
H97	H	0.690998	0.548028	-0.075877
H98	H	0.804281	-0.028461	0.000092
H99	H	1.213239	-0.432131	0.000202
O100	O	1.144758	-0.252957	0.156957
C101	C	1.220259	-0.192050	0.129112
H102	H	1.209758	-0.152949	0.053778
H103	H	1.229406	-0.109802	0.180045
H104	H	1.282664	-0.264146	0.130997
