data_functionalizedCrystal
_audit_creation_method	'MofGen! by Chris Wilmer'
_symmetry_space_group_name_H-M	'P1'
_symmetry_Int_Tables_number	1
_symmetry_cell_setting	triclinic
loop_
_symmetry_equiv_pos_as_xyz
  x,y,z
_cell_length_a	15.297327
_cell_length_b	18.215407
_cell_length_c	18.215399
_cell_angle_alpha	90.017587
_cell_angle_beta	99.645421
_cell_angle_gamma	80.292992
loop_
_atom_site_label
_atom_site_type_symbol
_atom_site_fract_x
_atom_site_fract_y
_atom_site_fract_z
Zn1	Zn	-0.359154	-1.074337	-0.466807
Zn2	Zn	-0.025821	-0.741003	-0.133473
Zn3	Zn	0.307513	-0.407670	0.199860
Zn4	Zn	-0.510031	-1.052947	-0.365029
Zn5	Zn	-0.176698	-0.719614	-0.031696
Zn6	Zn	0.156636	-0.386281	0.301638
Zn7	Zn	-0.359188	-0.951271	-0.343757
Zn8	Zn	-0.025855	-0.617938	-0.010424
Zn9	Zn	0.307478	-0.284604	0.322909
Zn10	Zn	-0.509973	-0.929939	-0.488044
Zn11	Zn	-0.176640	-0.596606	-0.154711
Zn12	Zn	0.156693	-0.263272	0.178623
O13	O	-0.434587	-1.002124	-0.415909
O14	O	-0.101253	-0.668790	-0.082576
O15	O	0.232080	-0.335457	0.250757
O16	O	-0.379178	-1.174482	-0.453320
O17	O	-0.045845	-0.841149	-0.119987
O18	O	0.287489	-0.507816	0.213347
O19	O	-0.490060	-1.039436	-0.259228
O20	O	-0.156727	-0.706102	0.074105
O21	O	0.176606	-0.372769	0.407438
O22	O	-0.232937	-0.985475	-0.342290
O23	O	0.100396	-0.652141	-0.008957
O24	O	0.433729	-0.318808	0.324377
O25	O	-0.490027	-1.158768	-0.378544
O26	O	-0.156693	-0.825434	-0.045211
O27	O	0.176640	-0.492101	0.288122
O28	O	-0.232912	-1.075891	-0.432694
O29	O	0.100421	-0.742557	-0.099361
O30	O	0.433755	-0.409224	0.233973
O31	O	-0.379237	-0.964734	-0.243600
O32	O	-0.045903	-0.631401	0.089733
O33	O	0.287430	-0.298068	0.423066
O34	O	-0.379181	-0.845458	-0.362883
O35	O	-0.045847	-0.512125	-0.029550
O36	O	0.287486	-0.178792	0.303784
O37	O	-0.489928	-0.949118	-0.588206
O38	O	-0.156595	-0.615785	-0.254872
O39	O	0.176739	-0.282451	0.078461
O40	O	-0.489961	-0.829786	-0.468890
O41	O	-0.156628	-0.496453	-0.135556
O42	O	0.176705	-0.163119	0.197777
O43	O	-0.379122	-1.055206	-0.572603
O44	O	-0.045788	-0.721873	-0.239269
O45	O	0.287545	-0.388540	0.094064
O46	O	-0.636270	-1.018751	-0.399137
O47	O	-0.302937	-0.685418	-0.065804
O48	O	0.030397	-0.352084	0.267529
O49	O	-0.636228	-0.928377	-0.489516
O50	O	-0.302894	-0.595044	-0.156183
O51	O	0.030439	-0.261711	0.177151
C52	C	-0.434569	-0.810920	-0.415883
C53	C	-0.101236	-0.477586	-0.082550
C54	C	0.232098	-0.144253	0.250784
C55	C	-0.434583	-0.729119	-0.415892
C56	C	-0.101250	-0.395785	-0.082559
C57	C	0.232083	-0.062452	0.250774
C58	C	-0.492356	-0.532771	-0.471041
C59	C	-0.159022	-0.199438	-0.137708
C60	C	0.174311	0.133896	0.195626
C61	C	-0.492357	-0.455912	-0.471050
C62	C	-0.159024	-0.122579	-0.137716
C63	C	0.174309	0.210755	0.195617
C64	C	-0.376823	-0.472227	-0.360781
C65	C	-0.043490	-0.138894	-0.027448
C66	C	0.289844	0.194439	0.305886
C67	C	-0.376817	-0.549085	-0.360776
C68	C	-0.043484	-0.215752	-0.027443
C69	C	0.289850	0.117581	0.305891
C70	C	-0.434589	-0.579355	-0.415906
C71	C	-0.101255	-0.246021	-0.082573
C72	C	0.232078	0.087312	0.250761
C73	C	-0.434596	-0.425637	-0.415919
C74	C	-0.101263	-0.092304	-0.082586
C75	C	0.232070	0.241029	0.250748
C76	C	-0.434598	-0.342304	-0.415928
C77	C	-0.101265	-0.008970	-0.082594
C78	C	0.232069	0.324363	0.250739
C79	C	-0.434586	-0.662694	-0.415898
C80	C	-0.101253	-0.329361	-0.082565
C81	C	0.232081	0.003973	0.250768
C82	C	-0.668983	-0.968948	-0.448955
C83	C	-0.335650	-0.635615	-0.115622
C84	C	-0.002316	-0.302282	0.217711
C85	C	-0.769259	-0.954823	-0.463117
C86	C	-0.435926	-0.621490	-0.129784
C87	C	-0.102592	-0.288157	0.203549
C88	C	-1.051883	-1.103381	-0.314943
C89	C	-0.718550	-0.770048	0.018390
C90	C	-0.385216	-0.436714	0.351724
C91	C	-0.957669	-1.116652	-0.301634
C92	C	-0.624336	-0.783319	0.031700
C93	C	-0.291002	-0.449985	0.365033
C94	C	-0.910562	-1.076196	-0.342003
C95	C	-0.577228	-0.742863	-0.008670
C96	C	-0.243895	-0.409530	0.324663
C97	C	-0.957678	-1.022467	-0.395685
C98	C	-0.624345	-0.689133	-0.062352
C99	C	-0.291011	-0.355800	0.270982
C100	C	-1.051901	-1.009191	-0.408992
C101	C	-0.718568	-0.675857	-0.075658
C102	C	-0.385235	-0.342524	0.257675
C103	C	-0.910580	-0.982006	-0.436052
C104	C	-0.577247	-0.648672	-0.102719
C105	C	-0.243913	-0.315339	0.230615
C106	C	-0.957696	-0.928276	-0.489734
C107	C	-0.624363	-0.594943	-0.156400
C108	C	-0.291030	-0.261610	0.176933
C109	C	-1.051910	-0.915003	-0.503038
C110	C	-0.718577	-0.581670	-0.169705
C111	C	-0.385244	-0.248336	0.163628
C112	C	-1.099017	-0.955459	-0.462668
C113	C	-0.765684	-0.622125	-0.129335
C114	C	-0.432351	-0.288792	0.203998
C115	C	-0.816357	-0.995282	-0.422745
C116	C	-0.483023	-0.661949	-0.089412
C117	C	-0.149690	-0.328615	0.243921
C118	C	-0.816375	-0.901091	-0.516794
C119	C	-0.483042	-0.567758	-0.183461
C120	C	-0.149708	-0.234425	0.149873
C121	C	-0.910589	-0.887821	-0.530103
C122	C	-0.577256	-0.554487	-0.196770
C123	C	-0.243922	-0.221154	0.136563
C124	C	-0.199275	-1.035448	-0.382750
C125	C	0.134058	-0.702115	-0.049417
C126	C	0.467392	-0.368781	0.283916
C127	C	-0.098999	-1.049649	-0.368620
C128	C	0.234334	-0.716316	-0.035286
C129	C	0.567668	-0.382982	0.298047
C130	C	-0.434515	-1.002168	-0.607852
C131	C	-0.101181	-0.668835	-0.274519
C132	C	0.232152	-0.335502	0.058815
C133	C	-0.434484	-1.002188	-0.689647
C134	C	-0.101151	-0.668854	-0.356313
C135	C	0.232183	-0.335521	-0.022980
C136	C	-0.434602	-0.194074	-0.415932
C137	C	-0.101269	0.139259	-0.082599
C138	C	0.232065	0.472592	0.250734
C139	C	-0.434602	-0.275873	-0.415933
C140	C	-0.101268	0.057460	-0.082599
C141	C	0.232065	0.390793	0.250734
C142	C	-0.376739	-0.963336	-0.869699
C143	C	-0.043406	-0.630003	-0.536365
C144	C	0.289928	-0.296669	-0.203032
C145	C	-0.376721	-0.963351	-0.946555
C146	C	-0.043388	-0.630018	-0.613221
C147	C	0.289946	-0.296685	-0.279888
C148	C	-0.492121	-1.041142	-0.962818
C149	C	-0.158788	-0.707809	-0.629484
C150	C	0.174546	-0.374476	-0.296151
C151	C	-0.492143	-1.041122	-0.885963
C152	C	-0.158810	-0.707789	-0.552630
C153	C	0.174524	-0.374456	-0.219297
C154	C	-0.434447	-1.002221	-0.839405
C155	C	-0.101114	-0.668888	-0.506072
C156	C	0.232220	-0.335554	-0.172738
C157	C	-0.434407	-1.002256	-0.993116
C158	C	-0.101073	-0.668923	-0.659782
C159	C	0.232260	-0.335590	-0.326449
C160	C	-0.434388	-1.002273	-1.076447
C161	C	-0.101054	-0.668940	-0.743113
C162	C	0.232279	-0.335607	-0.409780
C163	C	-0.434467	-1.002203	-0.756069
C164	C	-0.101134	-0.668869	-0.422736
C165	C	0.232199	-0.335536	-0.089402
C166	C	-0.434593	-1.002130	-0.224704
C167	C	-0.101260	-0.668797	0.108629
C168	C	0.232073	-0.335464	0.441963
C169	C	-0.434370	-1.002290	-0.142874
C170	C	-0.101037	-0.668956	0.190459
C171	C	0.232297	-0.335623	0.523793
H172	H	-0.329789	-0.447572	-0.315895
H173	H	0.003544	-0.114239	0.017438
H174	H	0.336878	0.219094	0.350771
N175	N	-0.314514	-0.599341	-0.301307
N176	N	0.018819	-0.266008	0.032027
N177	N	0.352152	0.067325	0.365360
H178	H	-0.272752	-0.637148	-0.325385
H179	H	0.060581	-0.303815	0.007949
H180	H	0.393914	0.029519	0.341282
H181	H	-0.277979	-0.568454	-0.266395
H182	H	0.055354	-0.235121	0.066938
H183	H	0.388687	0.098212	0.400271
H184	H	-0.329730	-0.931686	-0.971216
H185	H	0.003603	-0.598353	-0.637882
H186	H	0.336936	-0.265020	-0.304549
H187	H	-0.539396	-0.417986	-0.515947
H188	H	-0.206063	-0.084653	-0.182614
H189	H	0.127271	0.248680	0.150720
H190	H	-0.778003	-1.039029	-0.379037
H191	H	-0.444670	-0.705695	-0.045704
H192	H	-0.111336	-0.372362	0.287629
H193	H	-0.833848	-1.087004	-0.331163
H194	H	-0.500515	-0.753671	0.002171
H195	H	-0.167182	-0.420337	0.335504
N196	N	-0.906852	-1.174606	-0.243747
N197	N	-0.573519	-0.841272	0.089586
N198	N	-0.240186	-0.507939	0.422920
H199	H	-0.950988	-1.198224	-0.220196
H200	H	-0.617655	-0.864891	0.113137
H201	H	-0.284322	-0.531557	0.446471
H202	H	-0.867706	-1.214157	-0.268214
H203	H	-0.534373	-0.880823	0.065119
H204	H	-0.201040	-0.547490	0.398452
N205	N	-0.554351	-1.083095	-1.013034
N206	N	-0.221018	-0.749762	-0.679701
N207	N	0.112315	-0.416429	-0.346367
H208	H	-0.545582	-1.077209	-1.066318
H209	H	-0.212248	-0.743875	-0.732985
H210	H	0.121085	-0.410542	-0.399652
H211	H	-0.540322	-1.137640	-0.997629
H212	H	-0.206988	-0.804306	-0.664296
H213	H	0.126345	-0.470973	-0.330963
N214	N	-1.102688	-1.146998	-0.271393
N215	N	-0.769355	-0.813665	0.061940
N216	N	-0.436022	-0.480332	0.395273
H217	H	-1.169524	-1.130430	-0.287966
H218	H	-0.836190	-0.797096	0.045367
H219	H	-0.502857	-0.463763	0.378701
H220	H	-1.086169	-1.201883	-0.280553
H221	H	-0.752835	-0.868549	0.052781
H222	H	-0.419502	-0.535216	0.386114
H223	H	-0.778021	-0.868147	-0.549665
H224	H	-0.444688	-0.534814	-0.216332
H225	H	-0.111354	-0.201481	0.117001
H226	H	-1.175734	-0.944658	-0.473504
H227	H	-0.842401	-0.611325	-0.140171
H228	H	-0.509068	-0.277991	0.193163
H229	H	-0.329759	-0.931660	-0.831793
H230	H	0.003574	-0.598326	-0.498459
H231	H	0.336907	-0.264993	-0.165126
H232	H	-0.539394	-0.557414	-0.515933
H233	H	-0.206061	-0.224080	-0.182600
H234	H	0.127272	0.109253	0.150734
H235	H	-1.090270	-0.871244	-0.546741
H236	H	-0.756936	-0.537911	-0.213407
H237	H	-0.423603	-0.204577	0.119926
H238	H	-0.948964	-0.844073	-0.573811
H239	H	-0.615631	-0.510740	-0.240478
H240	H	-0.282298	-0.177407	0.092855
N241	N	-0.554393	-1.083060	-0.853285
N242	N	-0.221060	-0.749726	-0.519951
N243	N	0.112273	-0.416393	-0.186618
H244	H	-0.590936	-1.107710	-0.894440
H245	H	-0.257602	-0.774377	-0.561106
H246	H	0.075731	-0.441044	-0.227773
H247	H	-0.517683	-1.122307	-0.816226
H248	H	-0.184349	-0.788974	-0.482893
H249	H	0.148984	-0.455641	-0.149559
