data_functionalizedCrystal
_audit_creation_method	'MofGen! by Chris Wilmer'
_symmetry_space_group_name_H-M	'P1'
_symmetry_Int_Tables_number	1
_symmetry_cell_setting	triclinic
loop_
_symmetry_equiv_pos_as_xyz
  x,y,z
_cell_length_a	10.723024
_cell_length_b	15.995292
_cell_length_c	9.198806
_cell_angle_alpha	90.000009
_cell_angle_beta	89.996352
_cell_angle_gamma	83.968243
loop_
_atom_site_label
_atom_site_type_symbol
_atom_site_fract_x
_atom_site_fract_y
_atom_site_fract_z
O1	O	1.655653	0.117438	-0.120872
O2	O	2.155653	0.617438	0.379128
O3	O	1.292354	0.128679	-0.120876
O4	O	1.792354	0.628679	0.379124
O5	O	1.483972	0.001225	-0.120876
O6	O	1.983972	0.501225	0.379124
O7	O	1.464035	0.244892	-0.120872
O8	O	1.964035	0.744892	0.379128
O9	O	1.483957	0.001224	0.120909
O10	O	1.983957	0.501224	0.620909
O11	O	1.292339	0.128678	0.120909
O12	O	1.792339	0.628678	0.620909
O13	O	1.655638	0.117437	0.120913
O14	O	2.155638	0.617437	0.620913
Cu15	Cu	1.473987	0.123058	0.142988
Cu16	Cu	1.973987	0.623058	0.642988
Cu17	Cu	1.474005	0.123058	-0.142951
Cu18	Cu	1.974005	0.623058	0.357049
O19	O	1.464019	0.244892	0.120913
O20	O	1.964019	0.744892	0.620913
C21	C	1.245857	0.127861	0.000016
C22	C	1.745857	0.627861	0.500016
C23	C	1.107335	0.125413	0.000014
C24	C	1.607335	0.625413	0.500014
C25	C	1.483153	-0.029976	0.000013
C26	C	1.983153	0.470024	0.500013
C27	C	1.480720	-0.122943	0.000002
C28	C	1.980720	0.377057	0.500002
C29	C	1.031420	0.196730	0.000015
C30	C	1.531420	0.696730	0.500015
C31	C	0.888250	0.194202	0.000013
C32	C	1.388250	0.694202	0.500013
C33	C	1.471777	-0.460733	0.000015
C34	C	1.971777	0.039267	0.500015
C35	C	1.610082	-0.436626	0.000557
C36	C	2.110082	0.063374	0.500557
C37	C	1.612711	-0.339935	0.000007
C38	C	2.112711	0.160065	0.500007
C39	C	1.476215	-0.293151	0.000010
C40	C	1.976215	0.206849	0.500010
C41	C	1.407077	-0.322649	-0.138058
C42	C	1.907077	0.177351	0.361942
C43	C	1.405412	-0.419449	-0.138168
C44	C	1.905412	0.080551	0.361832
C45	C	1.402571	-0.419323	0.136787
C46	C	1.902571	0.080677	0.636787
C47	C	1.407696	-0.322801	0.138606
C48	C	1.907696	0.177199	0.638606
C49	C	1.478716	-0.198441	0.000002
C50	C	1.978716	0.301559	0.500002
C51	C	1.469272	-0.555443	0.000014
C52	C	1.969272	-0.055443	0.500014
C53	C	1.702134	0.118256	0.000018
C54	C	2.202134	0.618256	0.500018
C55	C	1.840657	0.120703	0.000011
C56	C	2.340657	0.620703	0.500011
C57	C	1.464838	0.276092	0.000021
C58	C	1.964838	0.776092	0.500021
C59	C	1.467271	0.369059	0.000023
C60	C	1.967271	0.869059	0.500023
N61	N	1.473983	0.123057	0.344102
N62	N	1.973983	0.623057	0.844102
N63	N	1.474018	0.123052	-0.344065
N64	N	1.974018	0.623052	0.155935
C65	C	1.554442	0.069307	0.416299
C66	C	2.054442	0.569307	0.916299
C67	C	1.554461	0.069304	0.583711
C68	C	2.054461	0.569304	1.083711
H69	H	1.072420	0.259658	0.000024
H70	H	1.572420	0.759658	0.500024
H71	H	1.405110	0.169070	0.406230
H72	H	1.905110	0.669070	0.906230
H73	H	0.905880	0.059647	0.000001
H74	H	1.405880	0.559647	0.500001
Cl75	Cl	0.787545	0.288468	0.000002
Cl76	Cl	1.287545	0.788468	0.500002
H77	H	1.066335	0.062485	-0.000024
H78	H	1.566335	0.562485	0.499976
Cl79	Cl	1.367665	0.194111	0.560095
Cl80	Cl	1.867665	0.694111	1.060095
H81	H	1.663385	-0.464317	0.099571
H82	H	2.163385	0.035683	0.599571
Cl83	Cl	1.696279	-0.310076	0.152831
Cl84	Cl	2.196279	0.189924	0.652831
Cl85	Cl	1.660494	-0.001930	0.320389
Cl86	Cl	2.160494	0.498070	0.820389
H87	H	1.663101	-0.465339	-0.097900
H88	H	2.163101	0.034661	0.402100
H89	H	1.667190	-0.321218	-0.099137
H90	H	2.167190	0.178782	0.400863
H91	H	1.623349	0.023289	0.645798
H92	H	2.123349	0.523289	1.145798
Cl93	Cl	1.479367	-0.460431	-0.297508
Cl94	Cl	1.979367	0.039569	0.202492
H95	H	1.304006	-0.434582	-0.144422
H96	H	1.804006	0.065418	0.355578
H97	H	1.306635	-0.291358	-0.143189
H98	H	1.806635	0.208642	0.356811
H99	H	1.455101	-0.302313	-0.240808
H100	H	1.955101	0.197687	0.259192
Cl101	Cl	1.469365	-0.462629	0.298357
Cl102	Cl	1.969365	0.037371	0.798357
H103	H	1.458039	-0.303947	0.240747
H104	H	1.958039	0.196053	0.740747
Cl105	Cl	1.253871	-0.272787	0.151486
Cl106	Cl	1.753871	0.227213	0.651486
H107	H	1.300768	-0.433898	0.137719
H108	H	1.800768	0.066102	0.637719
