data_functionalizedCrystal
_audit_creation_method	'MofGen! by Chris Wilmer'
_symmetry_space_group_name_H-M	'P1'
_symmetry_Int_Tables_number	1
_symmetry_cell_setting	triclinic
loop_
_symmetry_equiv_pos_as_xyz
  x,y,z
_cell_length_a	17.640112
_cell_length_b	17.640280
_cell_length_c	17.640968
_cell_angle_alpha	65.682561
_cell_angle_beta	87.860920
_cell_angle_gamma	87.815931
loop_
_atom_site_label
_atom_site_type_symbol
_atom_site_fract_x
_atom_site_fract_y
_atom_site_fract_z
Zn1	Zn	1.251359	0.023073	0.189698
Zn2	Zn	1.251298	0.188752	0.024069
Zn3	Zn	1.106797	0.075311	0.076159
Zn4	Zn	1.148399	0.178182	0.179117
O5	O	1.189463	0.116329	0.117261
O6	O	1.354914	0.027613	0.150355
O7	O	1.214694	0.199989	-0.081425
O8	O	1.108588	-0.044008	0.117448
O9	O	1.354870	0.149337	0.028669
O10	O	1.214797	-0.082386	0.200865
O11	O	1.108529	0.116644	-0.043155
O12	O	1.008752	0.106394	0.107188
O13	O	1.179493	0.131321	0.292925
O14	O	1.039317	0.181973	0.182831
O15	O	1.255137	0.017364	0.300699
O16	O	1.255033	0.299739	0.018409
O17	O	1.179434	0.291973	0.132322
C18	C	0.997182	0.148705	0.149514
C19	C	0.914929	0.162571	0.163327
C20	C	1.221764	0.324990	0.068579
C21	C	1.235655	0.414238	0.047768
C22	C	0.564743	0.010979	0.012337
C23	C	0.487458	0.024022	0.025323
C24	C	0.519334	0.102905	0.103880
C25	C	0.596623	0.089865	0.090904
C26	C	0.619321	0.043903	0.045131
C27	C	0.651201	0.122789	0.123697
C28	C	0.728483	0.109754	0.110718
C29	C	0.751188	0.063796	0.064946
C30	C	0.696603	0.030868	0.032152
C31	C	0.628502	0.168756	0.169465
C32	C	0.683080	0.201680	0.202259
C33	C	0.760364	0.188640	0.189285
C34	C	0.783068	0.142682	0.143512
C35	C	0.814949	0.221568	0.222079
C36	C	0.892231	0.208534	0.209100
C37	C	0.860351	0.129647	0.130533
C38	C	1.221962	0.067336	0.326772
C39	C	1.235811	0.046458	0.416053
C40	C	1.382495	0.083827	0.084882
C41	C	1.464754	0.069977	0.071084
C42	C	1.157059	-0.093153	0.166147
C43	C	1.143250	-0.182422	0.186980
C44	C	1.084287	0.687787	0.275600
C45	C	1.097337	0.771655	0.256019
C46	C	1.176134	0.779643	0.137496
C47	C	1.163094	0.695773	0.157069
C48	C	1.117169	0.649852	0.226122
C49	C	1.195976	0.657837	0.107591
C50	C	1.182933	0.573976	0.127160
C51	C	1.137009	0.528050	0.196208
C52	C	1.104127	0.565990	0.245691
C53	C	1.241896	0.703761	0.038535
C54	C	1.274778	0.665825	-0.010944
C55	C	1.261740	0.581961	0.008629
C56	C	1.215815	0.536035	0.077677
C57	C	1.294622	0.544020	-0.040854
C58	C	1.281579	0.460159	-0.021285
C59	C	1.202773	0.452173	0.097246
C60	C	1.157124	0.165067	-0.091429
C61	C	1.143383	0.185695	-0.180681
C62	C	1.084469	0.274453	0.689444
C63	C	1.097496	0.254822	0.773337
C64	C	1.176258	0.136168	0.781421
C65	C	1.163234	0.155787	0.697528
C66	C	1.117340	0.224930	0.651546
C67	C	1.196105	0.106264	0.659630
C68	C	1.183085	0.125884	0.575743
C69	C	1.137195	0.195026	0.529754
C70	C	1.104320	0.244550	0.567659
C71	C	1.242004	0.037124	0.705612
C72	C	1.274874	-0.012398	0.667713
C73	C	1.261851	0.007218	0.583827
C74	C	1.215960	0.076360	0.537838
C75	C	1.294725	-0.042306	0.545922
C76	C	1.281706	-0.022686	0.462035
C77	C	1.202940	0.095980	0.453951
H78	H	0.878832	0.092205	0.093275
H79	H	0.814117	0.053186	0.054377
O80	O	1.313664	-0.070900	0.425354
C81	C	1.356976	-0.136124	0.483922
H82	H	1.335516	-0.147790	0.549457
H83	H	1.419117	-0.118265	0.476546
C84	C	1.375691	-0.201408	0.388842
C85	C	1.349330	-0.215741	0.469333
H86	H	1.370978	-0.250520	0.379842
H87	H	1.346514	-0.157464	0.349382
H88	H	1.427474	-0.186524	0.382705
H89	H	1.297546	-0.230615	0.475465
H90	H	1.378499	-0.259690	0.508794
O91	O	1.158281	0.407479	0.164404
C92	C	1.200881	0.339682	0.220570
H93	H	1.263863	0.353922	0.209918
H94	H	1.189718	0.281506	0.210127
C95	C	1.100063	0.307482	0.323502
C96	C	1.177418	0.324976	0.310423
H97	H	1.085588	0.298408	0.378927
H98	H	1.071360	0.353156	0.285661
H99	H	1.090769	0.259004	0.314794
H100	H	1.186708	0.373459	0.319121
H101	H	1.206121	0.279309	0.348268
H102	H	0.715084	-0.006574	-0.005106
O103	O	1.313562	0.423184	-0.069220
C104	C	1.360887	0.355887	-0.020129
H105	H	1.342226	0.333511	0.048035
H106	H	1.422121	0.376844	-0.027982
C107	C	1.377997	0.311777	-0.131695
C108	C	1.355072	0.284289	-0.047976
H109	H	1.374413	0.267612	-0.148874
H110	H	1.346115	0.357117	-0.164770
H111	H	1.429023	0.329241	-0.138229
H112	H	1.304044	0.266835	-0.041446
H113	H	1.386945	0.238943	-0.014901
O114	O	1.319284	0.710435	-0.078114
C115	C	1.287578	0.711382	-0.150701
H116	H	1.224244	0.699301	-0.139525
H117	H	1.316443	0.660882	-0.166943
C118	C	1.377294	0.811788	-0.236872
C119	C	1.299504	0.796958	-0.223148
H120	H	1.384653	0.864574	-0.281563
H121	H	1.398657	0.811148	-0.187969
H122	H	1.401339	0.769699	-0.250403
H123	H	1.275462	0.839040	-0.209607
H124	H	1.278137	0.797607	-0.272051
O125	O	1.065303	0.808579	0.303980
C126	C	1.018005	0.875900	0.254882
H127	H	0.999742	0.866202	0.198264
H128	H	1.050343	0.936226	0.233474
C129	C	0.969754	0.892957	0.376187
C130	C	0.947319	0.881042	0.306652
H131	H	0.926153	0.896132	0.408122
H132	H	1.001622	0.847604	0.409266
H133	H	0.996703	0.943228	0.358337
H134	H	0.920379	0.830767	0.324503
H135	H	0.915445	0.926387	0.273577
O136	O	1.039613	0.643119	0.342599
C137	C	0.977198	0.613425	0.316149
H138	H	0.991944	0.610676	0.253846
H139	H	0.926018	0.657103	0.308925
C140	C	0.940123	0.529073	0.457696
C141	C	0.958237	0.525691	0.381178
H142	H	0.928424	0.474957	0.497810
H143	H	0.982172	0.549081	0.475517
H144	H	0.897476	0.565476	0.451665
H145	H	1.000890	0.489297	0.387208
H146	H	0.916196	0.505675	0.363360
O147	O	1.065601	0.303053	0.810036
C148	C	1.090992	0.385166	0.768160
H149	H	1.110244	0.396289	0.702088
H150	H	1.140553	0.394765	0.802675
C151	C	1.002125	0.433206	0.846197
C152	C	1.025765	0.446870	0.765044
H153	H	0.961892	0.471268	0.844277
H154	H	0.985020	0.377885	0.874412
H155	H	1.043432	0.441204	0.874951
H156	H	0.984460	0.438861	0.736295
H157	H	1.042861	0.502191	0.736824
O158	O	1.220791	0.069013	0.826221
C159	C	1.225253	0.062327	0.908382
H160	H	1.173990	0.095570	0.923288
H161	H	1.279463	0.092136	0.914837
C162	C	1.289107	-0.070977	0.950969
C163	C	1.226142	-0.030154	0.969279
H164	H	1.289659	-0.128024	0.988534
H165	H	1.286104	-0.066472	0.895615
H166	H	1.334276	-0.046128	0.956348
H167	H	1.180975	-0.054997	0.963890
H168	H	1.229138	-0.034666	1.024634
H169	H	0.583224	-0.026463	-0.024921
O170	O	0.497151	0.147499	0.148354
C171	C	0.417236	0.151965	0.152759
H172	H	0.392996	0.097861	0.142793
H173	H	0.396024	0.213258	0.102494
C174	C	0.421112	0.213582	0.251177
C175	C	0.391340	0.147126	0.238943
H176	H	0.405137	0.210601	0.304337
H177	H	0.474953	0.210576	0.248207
H178	H	0.403433	0.264653	0.209283
H179	H	0.409028	0.096057	0.280829
H180	H	0.337502	0.150123	0.241921
H181	H	1.252605	0.021154	0.773917
O182	O	0.792984	0.266133	0.266649
C183	C	0.821585	0.226773	0.347636
H184	H	0.873181	0.186040	0.347133
H185	H	0.775906	0.186517	0.391679
C186	C	0.781462	0.343211	0.377903
C187	C	0.844837	0.293188	0.377284
H188	H	0.795802	0.384178	0.396194
H189	H	0.762190	0.369728	0.323342
H190	H	0.743402	0.309655	0.414605
H191	H	0.882891	0.326742	0.340575
H192	H	0.864116	0.266678	0.431840
O193	O	0.660897	0.246274	0.246733
C194	C	0.580982	0.250740	0.251138
H195	H	0.556742	0.196636	0.241172
H196	H	0.559770	0.312034	0.200873
C197	C	0.584858	0.312357	0.349556
C198	C	0.555086	0.245902	0.337322
H199	H	0.568884	0.309377	0.402716
H200	H	0.638699	0.309352	0.346586
H201	H	0.567179	0.363429	0.307662
H202	H	0.572774	0.194832	0.379208
H203	H	0.501248	0.248899	0.340300
H204	H	1.165548	0.152268	0.416517
O205	O	1.059565	0.521245	0.312763
C206	C	1.055089	0.439099	0.319408
H207	H	1.106361	0.424123	0.286247
H208	H	1.000889	0.432748	0.289494
C209	C	0.991186	0.396569	0.452598
C210	C	1.054162	0.378174	0.411875
H211	H	0.990611	0.358987	0.509636
H212	H	0.994198	0.451913	0.448121
H213	H	0.946026	0.391277	0.427661
H214	H	1.099322	0.383477	0.436805
H215	H	1.051158	0.322830	0.416359
O216	O	1.124311	0.446621	0.215075
C217	C	1.089049	0.439829	0.147794
H218	H	1.102070	0.496833	0.088132
H219	H	1.025066	0.435759	0.159795
C220	C	1.103380	0.290894	0.211958
C221	C	1.119378	0.360903	0.138679
H222	H	1.122084	0.242207	0.206337
H223	H	1.127134	0.295469	0.257289
H224	H	1.050060	0.287514	0.221952
H225	H	1.172697	0.364288	0.128693
H226	H	1.095633	0.356327	0.093347
O227	O	1.339323	0.588635	-0.107841
C228	C	1.401712	0.618377	-0.081400
H229	H	1.412130	0.577533	-0.012993
H230	H	1.389130	0.685162	-0.089648
C231	C	1.459991	0.665986	-0.217804
C232	C	1.472790	0.615817	-0.133786
H233	H	1.503835	0.664412	-0.250119
H234	H	1.417957	0.645951	-0.235619
H235	H	1.449504	0.721636	-0.224665
H236	H	1.483268	0.560168	-0.126925
H237	H	1.514828	0.635843	-0.115971
H238	H	0.443020	-0.002799	-0.001378
H239	H	0.565572	0.179368	0.180031
H240	H	1.126598	0.211002	0.461447
H241	H	0.936671	0.235342	0.235805
H242	H	1.213523	0.817044	0.081271
H243	H	1.252515	0.772045	0.022606
H244	H	1.066927	0.300838	0.530225
H245	H	1.047076	0.330740	0.652010
H246	H	1.312244	-0.068693	0.705162
H247	H	1.332098	-0.098597	0.583371
