data_functionalizedCrystal
_audit_creation_method	'MofGen! by Chris Wilmer'
_symmetry_space_group_name_H-M	'P1'
_symmetry_Int_Tables_number	1
_symmetry_cell_setting	triclinic
loop_
_symmetry_equiv_pos_as_xyz
  x,y,z
_cell_length_a	18.050591
_cell_length_b	18.050590
_cell_length_c	18.050591
_cell_angle_alpha	90.007244
_cell_angle_beta	90.008361
_cell_angle_gamma	90.014558
loop_
_atom_site_label
_atom_site_type_symbol
_atom_site_fract_x
_atom_site_fract_y
_atom_site_fract_z
Zn1	Zn	1.135250	-0.295904	0.420027
Zn2	Zn	1.635250	0.204096	0.920027
Zn3	Zn	1.135209	-0.420052	0.295836
Zn4	Zn	1.635209	0.079948	0.795836
Zn5	Zn	1.011097	-0.295872	0.295838
Zn6	Zn	1.511097	0.204128	0.795838
Zn7	Zn	1.011038	-0.420048	0.419971
Zn8	Zn	1.511038	0.079952	0.919971
O9	O	1.073149	-0.357969	0.357918
O10	O	1.573149	0.142031	0.857918
O11	O	1.239169	-0.312387	0.403575
O12	O	1.739169	0.187613	0.903575
O13	O	1.118753	-0.403568	0.191911
O14	O	1.618753	0.096432	0.691911
O15	O	1.027608	-0.191951	0.312337
O16	O	1.527608	0.308049	0.812337
O17	O	1.239139	-0.403599	0.312332
O18	O	1.739139	0.096401	0.812332
O19	O	1.118823	-0.191975	0.403578
O20	O	1.618823	0.308025	0.903578
O21	O	1.027568	-0.312333	0.191913
O22	O	1.527568	0.187667	0.691913
O23	O	0.907164	-0.312329	0.312283
O24	O	1.407164	0.187671	0.812283
O25	O	1.027508	-0.403591	0.523903
O26	O	1.527508	0.096409	1.023903
O27	O	0.907122	-0.403560	0.403482
O28	O	1.407122	0.096440	0.903482
O29	O	1.118766	-0.312383	0.523944
O30	O	1.618766	0.187617	1.023944
O31	O	1.118696	-0.523976	0.312278
O32	O	1.618696	-0.023976	0.812278
O33	O	1.027468	-0.523973	0.403480
O34	O	1.527468	-0.023973	0.903480
C35	C	0.880197	-0.357941	0.357877
C36	C	1.380197	0.142059	0.857877
C37	C	0.797651	-0.357947	0.357877
C38	C	1.297651	0.142053	0.857877
C39	C	0.598202	-0.308278	0.308397
C40	C	1.098202	0.191722	0.808397
C41	C	0.548798	-0.376009	0.290120
C42	C	1.048798	0.123991	0.790120
C43	C	0.646520	-0.357970	0.357911
C44	C	1.146520	0.142030	0.857911
C45	C	0.548843	-0.290263	0.376186
C46	C	1.048843	0.209737	0.876186
C47	C	0.500535	-0.357986	0.357942
C48	C	1.000535	0.142014	0.857942
C49	C	0.598203	-0.425736	0.339598
C50	C	1.098203	0.074264	0.839598
C51	C	0.598253	-0.339944	0.425696
C52	C	1.098253	0.160056	0.925696
C53	C	0.548871	-0.407722	0.407444
C54	C	1.048871	0.092278	0.907444
C55	C	0.730619	-0.357960	0.357891
C56	C	1.230619	0.142040	0.857891
C57	C	0.416439	-0.358003	0.357962
C58	C	0.916439	0.141997	0.857962
C59	C	1.073092	-0.550921	0.357888
C60	C	1.573092	-0.050921	0.857888
C61	C	1.073135	-0.633467	0.357901
C62	C	1.573135	-0.133467	0.857901
C63	C	1.122848	-0.832892	0.308374
C64	C	1.622848	-0.332892	0.808374
C65	C	1.140969	-0.882251	0.376156
C66	C	1.640969	-0.382251	0.876156
C67	C	1.073177	-0.784597	0.357930
C68	C	1.573177	-0.284597	0.857930
C69	C	1.055132	-0.882320	0.290179
C70	C	1.555132	-0.382320	0.790179
C71	C	1.073219	-0.930582	0.357953
C72	C	1.573219	-0.430582	0.857953
C73	C	1.091333	-0.832869	0.425748
C74	C	1.591333	-0.332869	0.925748
C75	C	1.005465	-0.832933	0.339725
C76	C	1.505465	-0.332933	0.839725
C77	C	1.023560	-0.882270	0.407553
C78	C	1.523560	-0.382270	0.907553
C79	C	1.073155	-0.700499	0.357916
C80	C	1.573155	-0.200499	0.857916
C81	C	1.073242	-1.014679	0.357975
C82	C	1.573242	-0.514679	0.857975
C83	C	1.266854	-0.357997	0.357960
C84	C	1.766854	0.142003	0.857960
C85	C	1.349400	-0.358009	0.357977
C86	C	1.849400	0.141991	0.857977
C87	C	1.073135	-0.357990	0.551624
C88	C	1.573135	0.142010	1.051624
C89	C	1.073130	-0.357999	0.634169
C90	C	1.573130	0.142001	1.134169
C91	C	1.073226	-0.164263	0.357964
C92	C	1.573226	0.335737	0.857964
C93	C	1.073259	-0.081717	0.357984
C94	C	1.573259	0.418283	0.857984
C95	C	1.023491	-0.407591	0.882973
C96	C	1.523491	0.092409	1.382973
C97	C	1.005351	-0.339837	0.833584
C98	C	1.505351	0.160163	1.333584
C99	C	1.073123	-0.357977	0.931290
C100	C	1.573123	0.142023	1.431290
C101	C	1.091231	-0.425737	0.833597
C102	C	1.591231	0.074263	1.333597
C103	C	1.073124	-0.357992	0.785305
C104	C	1.573124	0.142008	1.285305
C105	C	1.054947	-0.290189	0.882988
C106	C	1.554947	0.209811	1.382988
C107	C	1.140859	-0.376134	0.883006
C108	C	1.640859	0.123866	1.383006
C109	C	1.122744	-0.308334	0.833639
C110	C	1.622744	0.191666	1.333639
C111	C	1.073120	-0.357970	1.015388
C112	C	1.573120	0.142030	1.515388
C113	C	1.073127	-0.357992	0.701208
C114	C	1.573127	0.142008	1.201208
C115	C	1.073146	-0.357968	1.164966
C116	C	1.573146	0.142032	1.664966
C117	C	1.073119	-0.357969	1.082420
C118	C	1.573119	0.142031	1.582420
H119	H	0.527122	-0.233004	0.391604
H120	H	1.027122	0.266996	0.891604
N121	N	0.625295	-0.497590	0.320128
N122	N	1.125295	0.002410	0.820128
N123	N	0.665273	-0.505515	0.264150
N124	N	1.165273	-0.005515	0.764150
H125	H	0.684409	-0.556259	0.250396
H126	H	1.184409	-0.056259	0.750396
H127	H	0.948200	-0.811252	0.324291
H128	H	1.448200	-0.311252	0.824291
H129	H	0.948069	-0.324482	0.811875
H130	H	1.448069	0.175518	1.311875
H131	H	0.527348	-0.449800	0.449330
H132	H	1.027348	0.050200	0.949330
N133	N	1.035641	-0.218294	0.910096
N134	N	1.535641	0.281706	1.410096
N135	N	1.032493	-0.206694	0.978294
N136	N	1.532493	0.293306	1.478294
H137	H	1.018852	-0.155921	0.997442
H138	H	1.518852	0.344079	1.497442
N139	N	1.175563	-0.805699	0.255857
N140	N	1.675563	-0.305699	0.755857
N141	N	1.242626	-0.821509	0.262755
N142	N	1.742626	-0.321509	0.762755
H143	H	1.279858	-0.802304	0.225668
H144	H	1.779858	-0.302304	0.725668
H145	H	1.039852	-0.904042	0.232873
H146	H	1.539852	-0.404042	0.732873
N147	N	1.212703	-0.395414	0.910254
N148	N	1.712703	0.104586	1.410254
N149	N	1.263869	-0.409739	0.865855
N150	N	1.763869	0.090261	1.365855
H151	H	1.314611	-0.423362	0.885099
H152	H	1.814611	0.076638	1.385099
H153	H	1.106548	-0.483035	0.811902
H154	H	1.606548	0.016965	1.311902
H155	H	1.164717	-0.266336	0.812115
H156	H	1.664717	0.233664	1.312115
H157	H	0.619862	-0.266301	0.266479
H158	H	1.119862	0.233699	0.766479
H159	H	0.619994	-0.324665	0.482989
H160	H	1.119994	0.175335	0.982989
H161	H	1.106556	-0.811239	0.483103
H162	H	1.606556	-0.311239	0.983103
N163	N	0.521543	-0.395136	0.218222
N164	N	1.021543	0.104864	0.718222
N165	N	0.481033	-0.350884	0.183651
N166	N	0.981033	0.149116	0.683651
H167	H	0.461787	-0.364388	0.132871
H168	H	0.961787	0.135612	0.632871
N169	N	1.212822	-0.909463	0.395461
N170	N	1.712822	-0.409463	0.895461
N171	N	1.267555	-0.893656	0.356099
N172	N	1.767555	-0.393656	0.856099
H173	H	1.318300	-0.912886	0.369718
H174	H	1.818300	-0.412886	0.869718
H175	H	0.981487	-0.449488	0.904635
H176	H	1.481487	0.050512	1.404635
H177	H	0.981573	-0.903814	0.449519
H178	H	1.481573	-0.403814	0.949519
