data_functionalizedCrystal
_audit_creation_method	'MofGen! by Chris Wilmer'
_symmetry_space_group_name_H-M	'P1'
_symmetry_Int_Tables_number	1
_symmetry_cell_setting	triclinic
loop_
_symmetry_equiv_pos_as_xyz
  x,y,z
_cell_length_a	11.792241
_cell_length_b	10.654550
_cell_length_c	9.130313
_cell_angle_alpha	90.004369
_cell_angle_beta	89.999317
_cell_angle_gamma	84.339173
loop_
_atom_site_label
_atom_site_type_symbol
_atom_site_fract_x
_atom_site_fract_y
_atom_site_fract_z
O1	O	-1.507305	-0.172135	-0.121657
O2	O	-1.177005	-0.189875	-0.121691
O3	O	-1.349749	0.001755	-0.121664
O4	O	-1.334561	-0.363766	-0.121684
O5	O	-1.349737	0.001761	0.121935
O6	O	-1.176993	-0.189870	0.121908
O7	O	-1.507293	-0.172130	0.121942
Cu8	Cu	-1.342142	-0.180999	0.144168
Cu9	Cu	-1.342156	-0.181006	-0.143916
O10	O	-1.334549	-0.363760	0.121915
C11	C	-1.134705	-0.188758	0.000104
C12	C	-1.008684	-0.185423	0.000092
C13	C	-1.348628	0.048553	0.000135
C14	C	-1.345291	0.187987	0.000132
C15	C	-1.549592	-0.173247	0.000144
C16	C	-1.675614	-0.176582	0.000147
C17	C	-0.777958	-0.179290	0.000134
C18	C	-0.906351	-0.182697	0.000111
C19	C	-1.335670	-0.410558	0.000113
C20	C	-1.339006	-0.549992	0.000106
N21	N	-1.342140	-0.180994	0.346790
C22	C	-1.447000	0.267760	0.000142
C23	C	-1.443859	0.398772	0.000124
C24	C	-1.237290	0.370225	0.000092
C25	C	-1.240433	0.239215	0.000100
N26	N	-1.342166	-0.181001	-0.346539
C27	C	-1.418657	-0.096175	0.423454
C28	C	-1.418668	-0.096176	0.576791
C29	C	-1.265641	-0.265824	0.576787
C30	C	-1.265626	-0.265816	0.423453
H31	H	-1.526681	0.463719	0.000129
H32	H	-1.480959	-0.027106	0.361039
H33	H	-1.203346	-0.334886	0.639220
N34	N	-1.136544	0.157701	0.000107
N35	N	-1.139369	0.040732	0.000114
H36	H	-1.066002	-0.016839	0.000115
N37	N	-1.554107	0.215432	0.000131
N38	N	-1.578912	0.145506	-0.102550
H39	H	-1.654559	0.108552	-0.102565
N40	N	-1.130175	0.422536	0.000101
N41	N	-1.039371	0.351290	0.000103
H42	H	-0.963717	0.388231	0.000119
H43	H	-1.480974	-0.027108	0.639206
N44	N	-1.187445	-0.352461	0.345155
N45	N	-1.119140	-0.428193	0.413616
H46	H	-1.063923	-0.489380	0.358319
