data_functionalizedCrystal
_audit_creation_method	'MofGen! by Chris Wilmer'
_symmetry_space_group_name_H-M	'P1'
_symmetry_Int_Tables_number	1
_symmetry_cell_setting	triclinic
loop_
_symmetry_equiv_pos_as_xyz
  x,y,z
_cell_length_a	8.597187
_cell_length_b	8.559649
_cell_length_c	7.540329
_cell_angle_alpha	89.998238
_cell_angle_beta	82.295245
_cell_angle_gamma	77.625088
loop_
_atom_site_label
_atom_site_type_symbol
_atom_site_fract_x
_atom_site_fract_y
_atom_site_fract_z
O1	O	2.053774	0.238052	-0.461293
O2	O	2.553774	0.738052	0.038707
O3	O	1.594633	0.256310	-0.391138
O4	O	2.094633	0.756310	0.108862
O5	O	1.864654	0.015212	-0.432395
O6	O	2.364654	0.515212	0.067605
O7	O	1.783753	0.479151	-0.420037
O8	O	2.283753	0.979151	0.079963
O9	O	1.864640	0.015208	-0.137428
O10	O	2.364640	0.515208	0.362572
O11	O	1.594619	0.256307	-0.096171
O12	O	2.094619	0.756307	0.403829
O13	O	2.053760	0.238049	-0.166326
O14	O	2.553760	0.738049	0.333674
Cu15	Cu	1.824188	0.247178	-0.104316
Cu16	Cu	2.324188	0.747178	0.395684
Cu17	Cu	1.824205	0.247182	-0.453149
Cu18	Cu	2.324205	0.747182	0.046851
O19	O	1.783739	0.479148	-0.125070
O20	O	2.283739	0.979148	0.374930
C21	C	1.536389	0.254347	-0.234757
C22	C	2.036389	0.754347	0.265243
C23	C	1.362867	0.248483	-0.208243
C24	C	1.862867	0.748483	0.291757
C25	C	1.870778	-0.044224	-0.285851
C26	C	2.370778	0.455776	0.214149
C27	C	1.889028	-0.221319	-0.288650
C28	C	2.389028	0.278681	0.211350
C29	C	2.112003	0.240012	-0.322712
C30	C	2.612003	0.740012	0.177288
C31	C	2.285526	0.245876	-0.349237
C32	C	2.785526	0.745876	0.150763
C33	C	1.777615	0.538584	-0.271617
C34	C	2.277615	1.038584	0.228383
C35	C	1.759365	0.715679	-0.268831
C36	C	2.259365	1.215679	0.231169
N37	N	1.824188	0.247174	0.141033
N38	N	2.324188	0.747174	0.641033
N39	N	1.824219	0.247173	-0.698499
N40	N	2.324219	0.747173	-0.198499
H41	H	1.296327	0.246247	-0.067259
H42	H	1.796327	0.746247	0.432741
N43	N	2.054586	-0.329321	-0.313945
N44	N	2.554586	0.170679	0.186055
H45	H	2.115030	-0.307771	-0.213839
H46	H	2.615030	0.192229	0.286161
H47	H	2.044471	-0.444724	-0.312455
H48	H	2.544471	0.055276	0.187545
N49	N	1.373651	0.248836	-0.536008
N50	N	1.873651	0.748836	-0.036008
H51	H	1.320760	0.346483	-0.598270
H52	H	1.820760	0.846483	-0.098270
H53	H	1.489266	0.252672	-0.528967
H54	H	1.989266	0.752672	-0.028967
N55	N	1.593818	-0.176322	-0.243510
N56	N	2.093818	0.323678	0.256490
H57	H	1.603808	-0.060877	-0.245038
H58	H	2.103808	0.439123	0.254962
H59	H	1.533442	-0.197990	-0.343623
H60	H	2.033442	0.302010	0.156377
