data_functionalizedCrystal
_audit_creation_method	'MofGen! by Chris Wilmer'
_symmetry_space_group_name_H-M	'P1'
_symmetry_Int_Tables_number	1
_symmetry_cell_setting	triclinic
loop_
_symmetry_equiv_pos_as_xyz
  x,y,z
_cell_length_a	16.109302
_cell_length_b	12.837942
_cell_length_c	14.586319
_cell_angle_alpha	90.003259
_cell_angle_beta	90.005448
_cell_angle_gamma	89.145360
loop_
_atom_site_label
_atom_site_type_symbol
_atom_site_fract_x
_atom_site_fract_y
_atom_site_fract_z
O1	O	1.113716	0.133244	0.076281
O2	O	0.872971	0.149825	0.076274
O3	O	0.988005	-0.009367	0.076272
O4	O	0.998681	0.292435	0.076284
O5	O	0.987996	-0.009369	-0.076209
O6	O	0.872962	0.149822	-0.076207
O7	O	1.113707	0.133242	-0.076199
Cu8	Cu	0.993333	0.141532	-0.090126
Cu9	Cu	0.993344	0.141535	0.090201
O10	O	0.998672	0.292433	-0.076197
C11	C	0.841938	0.149152	0.000033
C12	C	0.749483	0.147138	0.000030
C13	C	0.984394	-0.047987	0.000032
C14	C	0.973637	-0.163061	0.000033
C15	C	0.536767	0.142479	-0.083078
C16	C	0.449896	0.140576	-0.083075
C17	C	0.449917	0.140584	0.083168
C18	C	0.536786	0.142480	0.083164
C19	C	0.580209	0.143433	0.000038
C20	C	0.406468	0.139633	0.000045
C21	C	0.312278	0.137569	0.000049
C22	C	0.674405	0.145495	0.000034
C23	C	1.102954	-0.404062	0.000056
C24	C	1.092851	-0.512185	0.000057
C25	C	0.943328	-0.487430	0.000044
C26	C	0.953431	-0.379308	0.000042
C27	C	1.033247	-0.337628	0.000047
C28	C	1.043349	-0.229504	0.000039
C29	C	0.893827	-0.204751	0.000032
C30	C	0.883724	-0.312873	0.000033
C31	C	1.144739	0.133914	0.000044
C32	C	1.237195	0.135929	0.000053
C33	C	1.002284	0.331054	0.000045
C34	C	1.013040	0.446127	0.000050
N35	N	0.993332	0.141529	-0.216957
C36	C	1.044290	0.071063	-0.451965
C37	C	1.044292	0.071060	-0.547946
C38	C	0.942388	0.211999	-0.547954
C39	C	0.942382	0.211995	-0.451974
C40	C	0.993338	0.141529	-0.403982
C41	C	0.993346	0.141529	-0.595943
C42	C	0.993348	0.141527	-0.700010
C43	C	0.993335	0.141529	-0.299908
N44	N	0.993352	0.141529	0.217032
H45	H	0.572119	0.143255	-0.150765
H46	H	0.900887	0.269378	-0.412904
H47	H	1.167943	-0.370127	0.000051
C48	C	0.402843	0.139383	-0.173387
C49	C	0.426285	0.050731	-0.223546
C50	C	0.382967	0.049602	-0.306754
H51	H	0.344875	0.138060	-0.161616
H52	H	0.415539	0.200076	-0.207587
H53	H	0.413583	-0.009947	-0.189353
H54	H	0.484246	0.052035	-0.235341
H55	H	0.395663	0.110294	-0.340954
H56	H	0.325002	0.048281	-0.294974
H57	H	0.398872	-0.010543	-0.340801
H58	H	1.149614	-0.566273	0.000068
H59	H	0.414551	0.139809	0.150846
C60	C	0.583808	0.143566	0.173506
C61	C	0.527188	0.142362	0.246305
C62	C	0.570473	0.143372	0.329536
H63	H	0.619253	0.083909	0.177087
H64	H	0.616123	0.204742	0.177008
H65	H	0.494886	0.081193	0.242805
H66	H	0.491740	0.202015	0.242754
H67	H	0.602789	0.204548	0.333038
H68	H	0.605917	0.083714	0.333108
H69	H	0.532063	0.142565	0.378940
C70	C	1.130071	-0.184448	0.000098
C71	C	1.188954	-0.265777	0.000135
C72	C	1.268852	-0.224316	0.000206
H73	H	1.137243	-0.142804	-0.053060
H74	H	1.137159	-0.142810	0.053294
H75	H	1.181869	-0.307397	-0.053056
H76	H	1.181809	-0.307428	0.053289
H77	H	1.275940	-0.182678	0.053402
H78	H	1.276016	-0.182672	-0.052953
H79	H	1.308814	-0.279490	0.000239
C80	C	0.856627	-0.532547	-0.000093
C81	C	0.813964	-0.498775	-0.078531
C82	C	0.734088	-0.540301	-0.078679
H83	H	0.860475	-0.606452	-0.000133
H84	H	0.827529	-0.509700	0.053051
H85	H	0.843055	-0.521627	-0.131662
H86	H	0.810094	-0.424875	-0.078509
H87	H	0.704990	-0.517455	-0.025534
H88	H	0.737944	-0.614205	-0.078716
H89	H	0.705129	-0.517385	-0.131894
C90	C	0.818110	-0.132668	-0.000167
C91	C	0.770561	-0.151494	-0.078631
C92	C	0.700813	-0.085101	-0.078856
H93	H	0.785641	-0.145231	0.052941
H94	H	0.835524	-0.062289	-0.000219
H95	H	0.753146	-0.221857	-0.078570
H96	H	0.803005	-0.138924	-0.131752
H97	H	0.718227	-0.014722	-0.078908
H98	H	0.668351	-0.097670	-0.025745
H99	H	0.668547	-0.097859	-0.132097
H100	H	0.818741	-0.346824	0.000033
C101	C	0.887164	0.288464	-0.600227
C102	C	0.898091	0.273407	-0.694553
C103	C	0.847242	0.343841	-0.742733
H104	H	0.830752	0.277257	-0.584622
H105	H	0.901683	0.357671	-0.584540
H106	H	0.883567	0.204217	-0.710233
H107	H	0.954492	0.284623	-0.710185
H108	H	0.861760	0.413048	-0.727046
H109	H	0.790833	0.332629	-0.727120
H110	H	0.854654	0.333642	-0.806737
C111	C	1.099632	-0.005565	-0.400024
C112	C	1.144236	-0.067295	-0.462594
C113	C	1.195217	-0.137910	-0.414783
H114	H	1.137263	0.031611	-0.362569
H115	H	1.066319	-0.048785	-0.362612
H116	H	1.177546	-0.024082	-0.499990
H117	H	1.106626	-0.104494	-0.500051
H118	H	1.161904	-0.181129	-0.377370
H119	H	1.232843	-0.100725	-0.377329
H120	H	1.225481	-0.179808	-0.457229
H121	H	1.085780	0.013679	-0.587011
