data_functionalizedCrystal
_audit_creation_method	'MofGen! by Chris Wilmer'
_symmetry_space_group_name_H-M	'P1'
_symmetry_Int_Tables_number	1
_symmetry_cell_setting	triclinic
loop_
_symmetry_equiv_pos_as_xyz
  x,y,z
_cell_length_a	9.065215
_cell_length_b	15.455301
_cell_length_c	9.065218
_cell_angle_alpha	92.962259
_cell_angle_beta	94.984675
_cell_angle_gamma	87.036321
loop_
_atom_site_label
_atom_site_type_symbol
_atom_site_fract_x
_atom_site_fract_y
_atom_site_fract_z
O1	O	-1.966245	0.072113	0.222177
O2	O	-1.466245	0.572113	0.722177
O3	O	-1.536960	0.072118	0.239929
O4	O	-1.036960	0.572118	0.739929
O5	O	-1.760476	0.072113	0.016410
O6	O	-1.260476	0.572113	0.516410
O7	O	-1.742729	0.072117	0.445696
O8	O	-1.242729	0.572117	0.945696
O9	O	-1.748771	-0.072149	0.004720
O10	O	-1.248771	0.427851	0.504720
O11	O	-1.525255	-0.072145	0.228239
O12	O	-1.025255	0.427855	0.728239
O13	O	-1.954540	-0.072149	0.210488
O14	O	-1.454540	0.427851	0.710488
Cu15	Cu	-1.738829	-0.085320	0.218296
Cu16	Cu	-1.238829	0.414680	0.718296
Cu17	Cu	-1.752671	0.085288	0.232120
Cu18	Cu	-1.252671	0.585288	0.732120
O19	O	-1.731024	-0.072145	0.434006
O20	O	-1.231024	0.427855	0.934006
C21	C	-1.476121	-0.000013	0.232379
C22	C	-0.976121	0.499987	0.732379
C23	C	-1.312278	-0.000011	0.227281
C24	C	-0.812278	0.499989	0.727281
N25	N	-1.729103	-0.205315	0.208571
N26	N	-1.229103	0.294685	0.708571
C27	C	-1.816109	-0.250706	0.295638
C28	C	-1.316109	0.249294	0.795638
C29	C	-1.808774	-0.341514	0.288275
C30	C	-1.308774	0.158486	0.788275
C31	C	-1.714424	-0.386930	0.193852
C32	C	-1.214424	0.113070	0.693852
C33	C	-1.627415	-0.341533	0.106776
C34	C	-1.127415	0.158467	0.606776
C35	C	-1.634759	-0.250727	0.114132
C36	C	-1.134759	0.249273	0.614132
C37	C	-1.682743	-0.658513	0.162113
C38	C	-1.182743	-0.158513	0.662113
C39	C	-1.675402	-0.749326	0.154767
C40	C	-1.175402	-0.249326	0.654767
C41	C	-1.856764	-0.749301	0.336265
C42	C	-1.356764	-0.249301	0.836265
C43	C	-1.864094	-0.658492	0.343619
C44	C	-1.364094	-0.158492	0.843619
C45	C	-1.777090	-0.613103	0.256537
C46	C	-1.277090	-0.113103	0.756537
N47	N	-1.706920	-0.479751	0.186327
N48	N	-1.206920	0.020249	0.686327
N49	N	-1.784603	-0.520284	0.264055
N50	N	-1.284603	-0.020284	0.764055
C51	C	-1.015379	-0.000016	0.218037
C52	C	-0.515379	0.499984	0.718037
C53	C	-1.179223	-0.000011	0.223136
C54	C	-0.679223	0.499989	0.723136
C55	C	-1.752918	-0.000016	-0.044421
C56	C	-1.252918	0.499984	0.455579
C57	C	-1.747818	-0.000012	-0.208264
C58	C	-1.247818	0.499988	0.291736
N59	N	-1.762408	0.205284	0.241833
N60	N	-1.262408	0.705284	0.741833
C61	C	-1.738583	-0.000014	0.494837
C62	C	-1.238583	0.499986	0.994837
C63	C	-1.743682	-0.000012	0.658680
C64	C	-1.243682	0.499988	1.158680
H65	H	-1.892930	-0.213735	0.372536
H66	H	-1.392930	0.286265	0.872536
Cl67	Cl	-1.573309	-0.601464	0.052695
Cl68	Cl	-1.073309	-0.101464	0.552695
Cl69	Cl	-1.556784	-0.806419	0.036053
Cl70	Cl	-1.056784	-0.306419	0.536053
Cl71	Cl	-1.918155	-0.398573	0.397739
Cl72	Cl	-1.418155	0.101427	0.897739
H73	H	-1.550600	-0.378518	0.029887
H74	H	-1.050600	0.121482	0.529887
H75	H	-1.563909	-0.213771	0.043233
H76	H	-1.063909	0.286229	0.543233
H77	H	-1.940927	-0.621521	0.420504
H78	H	-1.440927	-0.121521	0.920504
Cl79	Cl	-1.966136	-0.806366	0.445728
Cl80	Cl	-1.466136	-0.306366	0.945728
