data_functionalizedCrystal
_audit_creation_method	'MofGen! by Chris Wilmer'
_symmetry_space_group_name_H-M	'P1'
_symmetry_Int_Tables_number	1
_symmetry_cell_setting	triclinic
loop_
_symmetry_equiv_pos_as_xyz
  x,y,z
_cell_length_a	12.811438
_cell_length_b	12.784905
_cell_length_c	11.295483
_cell_angle_alpha	93.662891
_cell_angle_beta	80.460799
_cell_angle_gamma	78.600536
loop_
_atom_site_label
_atom_site_type_symbol
_atom_site_fract_x
_atom_site_fract_y
_atom_site_fract_z
O1	O	1.399115	0.125117	-0.250102
O2	O	1.089504	0.143082	-0.216671
O3	O	1.266966	-0.020704	-0.235830
O4	O	1.221653	0.288903	-0.230944
O5	O	1.251381	-0.006341	-0.036096
O6	O	1.073919	0.157445	-0.016938
O7	O	1.383530	0.139481	-0.050369
Cu8	Cu	1.227302	0.149775	-0.015416
Cu9	Cu	1.245733	0.132788	-0.251624
O10	O	1.206068	0.303267	-0.031210
C11	C	1.042356	0.149697	-0.112555
C12	C	0.925089	0.147997	-0.099893
C13	C	0.751311	0.153429	0.026821
C14	C	0.861494	0.155028	0.014930
C15	C	0.878493	0.139369	-0.202831
C16	C	0.768311	0.137770	-0.190940
C17	C	0.704724	0.144799	-0.076110
C18	C	0.594542	0.143193	-0.064219
C19	C	0.611542	0.127541	-0.281979
C20	C	0.721724	0.129140	-0.293871
C21	C	1.262121	-0.053132	-0.136283
C22	C	1.270890	-0.171156	-0.137235
C23	C	1.430679	0.132865	-0.154488
C24	C	1.547947	0.134565	-0.167158
C25	C	1.092238	-0.366935	-0.117933
C26	C	1.100473	-0.477828	-0.118827
C27	C	1.295591	-0.503837	-0.139908
C28	C	1.287356	-0.392943	-0.139014
C29	C	1.185677	-0.324496	-0.128028
C30	C	1.177444	-0.213602	-0.127143
C31	C	1.372561	-0.239611	-0.148215
C32	C	1.380795	-0.350504	-0.149109
C33	C	1.210914	0.335694	-0.130760
C34	C	1.202145	0.453717	-0.129816
N35	N	1.214346	0.161721	0.150719
N36	N	1.258697	0.120833	-0.417760
C37	C	1.351964	0.034773	0.385151
C38	C	1.342180	0.043809	0.510871
C39	C	1.184991	0.188823	0.527881
C40	C	1.194775	0.179787	0.402161
C41	C	1.278265	0.102761	0.330800
C42	C	1.288052	0.093731	0.205078
C43	C	1.130860	0.238739	0.222090
C44	C	1.121076	0.247775	0.347810
H45	H	0.573598	0.120517	-0.365793
N46	N	1.437185	-0.043918	0.312192
N47	N	1.415056	-0.114814	0.245029
H48	H	1.475227	-0.170395	0.193479
H49	H	1.094652	-0.157873	-0.118200
H50	H	1.463579	-0.406248	-0.158049
N51	N	1.005027	-0.521179	-0.108492
N52	N	0.932226	-0.494039	-0.017138
H53	H	0.864813	-0.524655	-0.009833
N54	N	0.909103	0.163827	0.120058
N55	N	1.007481	0.165249	0.109428
H56	H	1.041107	0.171463	0.183679
H57	H	1.009448	-0.311205	-0.108997
H58	H	1.402192	-0.011554	0.555120
N59	N	1.099711	0.267480	0.600804
N60	N	1.090986	0.275525	0.713052
H61	H	1.030755	0.331076	0.764556
H62	H	1.448654	-0.205054	-0.156541
H63	H	1.378372	-0.559583	-0.148838
N64	N	1.035799	0.326439	0.420726
N65	N	1.027069	0.334495	0.532974
H66	H	0.966842	0.390054	0.584472
H67	H	0.542769	0.148923	0.029282
H68	H	1.356036	0.031015	0.146976
N69	N	0.943441	0.132182	-0.320127
N70	N	0.901837	0.124472	-0.412026
H71	H	0.947706	0.119395	-0.494869
H72	H	0.773510	0.123421	-0.387362
N73	N	1.055591	0.308195	0.166552
N74	N	1.064343	0.300128	0.054301
H75	H	1.011191	0.349184	0.015074
N76	N	0.686350	0.160624	0.144110
N77	N	0.606330	0.236412	0.176839
H78	H	0.560450	0.241495	0.259676
