data_functionalizedCrystal
_audit_creation_method	'MofGen! by Chris Wilmer'
_symmetry_space_group_name_H-M	'P1'
_symmetry_Int_Tables_number	1
_symmetry_cell_setting	triclinic
loop_
_symmetry_equiv_pos_as_xyz
  x,y,z
_cell_length_a	10.489741
_cell_length_b	22.010155
_cell_length_c	10.489741
_cell_angle_alpha	89.995414
_cell_angle_beta	84.539174
_cell_angle_gamma	90.005851
loop_
_atom_site_label
_atom_site_type_symbol
_atom_site_fract_x
_atom_site_fract_y
_atom_site_fract_z
O1	O	1.694063	0.050487	0.179950
O2	O	1.322867	0.050497	0.196843
O3	O	1.516911	0.050488	0.002799
O4	O	1.500019	0.050496	0.373995
O5	O	1.516876	-0.050562	0.002828
O6	O	1.322832	-0.050554	0.196872
O7	O	1.694028	-0.050563	0.179979
Cu8	Cu	1.508426	-0.059785	0.188428
Cu9	Cu	1.508468	0.059719	0.188394
O10	O	1.499983	-0.050555	0.374024
C11	C	1.275318	-0.000027	0.195582
C12	C	1.133688	-0.000024	0.191765
C13	C	1.065548	-0.000032	0.068300
C14	C	0.973439	0.049791	0.126609
C15	C	0.973438	-0.049837	0.126667
C16	C	1.043444	0.049840	0.250125
C17	C	1.043453	-0.049832	0.250165
C18	C	0.951371	0.000003	0.308564
N19	N	1.508406	-0.143838	0.188452
C20	C	1.594396	-0.563621	0.102484
C21	C	1.594402	-0.627228	0.102475
O22	O	1.667463	-0.660123	0.029398
N23	N	1.508467	-0.659045	0.188367
C24	C	1.422512	-0.627250	0.274265
O25	O	1.349418	-0.660153	0.347322
C26	C	1.422501	-0.563644	0.274267
C27	C	1.508450	-0.531831	0.188378
C28	C	1.680337	-0.531808	0.016600
C29	C	1.680333	-0.468204	0.016611
C30	C	1.594387	-0.436414	0.102505
C31	C	1.508446	-0.468227	0.188388
C32	C	1.336541	-0.531850	0.360158
C33	C	1.336537	-0.468240	0.360151
C34	C	1.422486	-0.436426	0.274262
C35	C	1.422496	-0.372834	0.274293
N36	N	1.508430	-0.341018	0.188400
C37	C	1.594376	-0.372808	0.102506
C38	C	1.422540	-0.760828	0.274254
C39	C	1.422556	-0.824433	0.274260
C40	C	1.594445	-0.824407	0.102467
C41	C	1.594434	-0.760801	0.102469
C42	C	1.508475	-0.729012	0.188362
C43	C	1.594361	-0.239237	0.102536
C44	C	1.594352	-0.175628	0.102558
C45	C	1.422460	-0.175659	0.274345
C46	C	1.422472	-0.239263	0.274328
C47	C	1.508428	-0.271050	0.188413
O48	O	1.349469	-0.339899	0.347329
O49	O	1.667447	-0.339897	0.029451
C50	C	1.741577	-0.000038	0.181241
C51	C	1.883206	-0.000037	0.185058
C52	C	1.515618	-0.000037	-0.044718
C53	C	1.511801	-0.000036	-0.186348
N54	N	1.508498	0.143771	0.188361
C55	C	1.388336	-0.000028	-0.254488
C56	C	1.446642	-0.049852	-0.346596
C57	C	1.446706	0.049775	-0.346599
C58	C	1.570158	-0.049901	-0.276591
C59	C	1.570205	0.049771	-0.276584
C60	C	1.628600	-0.000065	-0.368665
C61	C	1.501277	-0.000028	0.421541
C62	C	1.505094	-0.000026	0.563170
H63	H	1.074287	0.092009	0.302312
H64	H	1.730204	-0.000096	-0.418089
N65	N	0.885890	0.000037	0.443142
H66	H	0.911337	0.037688	0.489582
H67	H	0.789999	-0.000345	0.439722
H68	H	1.286824	-0.000076	-0.204837
N69	N	1.639375	0.105564	-0.235476
H70	H	1.592673	0.143183	-0.260669
H71	H	1.642157	0.104879	-0.139511
N72	N	0.932367	0.105581	0.057393
H73	H	0.836220	0.105364	0.056054
H74	H	0.959150	0.143183	0.103155
N75	N	1.084520	-0.105625	0.319360
H76	H	1.059313	-0.143244	0.272665
H77	H	1.180482	-0.104954	0.322169
N78	N	1.131305	0.000030	-0.066166
H79	H	1.187209	0.037304	-0.079096
H80	H	1.185899	-0.037636	-0.079668
N81	N	1.773025	-0.433895	-0.076035
H82	H	1.863689	-0.444963	-0.060463
H83	H	1.757390	-0.444980	-0.166669
H84	H	1.664352	-0.265110	0.032575
H85	H	1.352497	-0.265165	0.344280
N86	N	0.932377	-0.105632	0.057466
H87	H	0.974319	-0.105586	-0.033286
H88	H	0.959077	-0.143231	0.103295
N89	N	1.687049	-0.141310	0.009918
H90	H	1.777714	-0.152375	0.025488
H91	H	1.671419	-0.152387	-0.080722
H92	H	1.352487	-0.149766	0.344283
H93	H	1.750325	-0.557686	-0.053351
H94	H	1.664420	-0.734902	0.032530
N95	N	1.687147	-0.858701	0.009821
H96	H	1.674102	-0.903822	0.022857
H97	H	1.671584	-0.847582	-0.080817
H98	H	1.352582	-0.850331	0.344212
H99	H	1.352546	-0.734948	0.344209
N100	N	1.377442	-0.105652	-0.387650
H101	H	1.286688	-0.105615	-0.345713
H102	H	1.376194	-0.105411	-0.483803
H103	H	1.266553	-0.557744	0.430096
H104	H	1.394465	0.091902	-0.377575
N105	N	1.639284	-0.105760	-0.235751
H106	H	1.641403	-0.105429	-0.139694
H107	H	1.592943	-0.143314	-0.261893
N108	N	1.243816	-0.433953	0.452789
H109	H	1.189375	-0.463762	0.507191
H110	H	1.293152	-0.407562	0.509671
