data_functionalizedCrystal
_audit_creation_method	'MofGen! by Chris Wilmer'
_symmetry_space_group_name_H-M	'P1'
_symmetry_Int_Tables_number	1
_symmetry_cell_setting	triclinic
loop_
_symmetry_equiv_pos_as_xyz
  x,y,z
_cell_length_a	12.645331
_cell_length_b	17.077402
_cell_length_c	12.645324
_cell_angle_alpha	89.962519
_cell_angle_beta	89.972121
_cell_angle_gamma	90.019429
loop_
_atom_site_label
_atom_site_type_symbol
_atom_site_fract_x
_atom_site_fract_y
_atom_site_fract_z
Zn1	Zn	-1.620696	0.312521	0.599543
Zn2	Zn	-1.120696	0.812521	1.099543
Zn3	Zn	-1.620561	0.443813	0.422266
Zn4	Zn	-1.120561	0.943813	0.922266
Zn5	Zn	-1.443410	0.312558	0.422272
Zn6	Zn	-0.943410	0.812558	0.922272
Zn7	Zn	-1.443376	0.443741	0.599466
Zn8	Zn	-0.943376	0.943741	1.099466
O9	O	-1.532011	0.378158	0.510887
O10	O	-1.032011	0.878158	1.010887
O11	O	-1.769025	0.329952	0.576057
O12	O	-1.269025	0.829952	1.076057
O13	O	-1.597019	0.426448	0.273919
O14	O	-1.097019	0.926448	0.773919
O15	O	-1.466998	0.202706	0.445823
O16	O	-0.966998	0.702706	0.945823
O17	O	-1.768926	0.426412	0.445811
O18	O	-1.268926	0.926412	0.945811
O19	O	-1.597249	0.202679	0.576063
O20	O	-1.097249	0.702679	1.076063
O21	O	-1.466867	0.330015	0.273924
O22	O	-0.966867	0.830015	0.773924
O23	O	-1.295058	0.329944	0.445748
O24	O	-0.795058	0.829944	0.945748
O25	O	-1.466941	0.426288	0.747823
O26	O	-0.966941	0.926288	1.247823
O27	O	-1.295034	0.426324	0.575931
O28	O	-0.795034	0.926324	1.075931
O29	O	-1.597217	0.329882	0.747880
O30	O	-1.097217	0.829882	1.247880
O31	O	-1.596986	0.553651	0.445736
O32	O	-1.096986	1.053651	0.945736
O33	O	-1.466810	0.553597	0.575925
O34	O	-0.966810	1.053597	1.075925
C35	C	-1.256581	0.378131	0.510832
C36	C	-0.756581	0.878131	1.010832
C37	C	-1.138751	0.378138	0.510834
C38	C	-0.638751	0.878138	1.010834
C39	C	-1.093849	0.317409	0.429066
C40	C	-0.593849	0.817409	0.929066
C41	C	-0.971289	0.317179	0.429336
C42	C	-0.471289	0.817179	0.929336
C43	C	-0.970925	0.356060	0.622731
C44	C	-0.470925	0.856060	1.122731
C45	C	-1.093523	0.355612	0.622230
C46	C	-0.593523	0.855612	1.122230
C47	C	-1.093525	0.461114	0.481741
C48	C	-0.593525	0.961114	0.981741
C49	C	-0.970918	0.460675	0.479305
C50	C	-0.470918	0.960675	0.979305
C51	C	-0.808516	0.378174	0.510921
C52	C	-0.308516	0.878174	1.010921
C53	C	-0.926346	0.378151	0.510882
C54	C	-0.426346	0.878151	1.010882
C55	C	-1.531908	0.582106	0.510844
C56	C	-1.031908	1.082106	1.010844
C57	C	-1.531962	0.669356	0.510862
C58	C	-1.031962	1.169356	1.010862
C59	C	-1.532090	0.378073	0.787392
C60	C	-1.032090	0.878073	1.287392
C61	C	-1.532124	0.378036	0.905222
C62	C	-1.032124	0.878036	1.405222
C63	C	-1.532142	0.173414	0.510952
C64	C	-1.032142	0.673414	1.010952
C65	C	-1.532198	0.086164	0.510980
C66	C	-1.032198	0.586164	1.010980
C67	C	-1.599814	0.710348	0.443146
C68	C	-1.099814	1.210348	0.943146
C69	C	-1.599866	0.792328	0.443173
C70	C	-1.099866	1.292328	0.943173
C71	C	-1.532059	0.833315	0.510911
C72	C	-1.032059	1.333315	1.010911
C73	C	-1.464204	0.792317	0.578635
C74	C	-0.964204	1.292317	1.078635
C75	C	-1.464158	0.710339	0.578613
C76	C	-0.964158	1.210339	1.078613
C77	C	-1.464302	0.963187	0.578675
C78	C	-0.964302	1.463187	1.078675
C79	C	-1.464346	1.045172	0.578697
C80	C	-0.964346	1.545172	1.078697
C81	C	-1.600010	1.045177	0.443235
C82	C	-1.100010	1.545177	0.943235
C83	C	-1.599964	0.963198	0.443213
C84	C	-1.099964	1.463198	0.943213
C85	C	-1.532107	0.922206	0.510935
C86	C	-1.032107	1.422206	1.010935
C87	C	-1.531993	0.378186	0.235457
C88	C	-1.031993	0.878186	0.735457
C89	C	-1.532164	0.378002	0.117628
C90	C	-1.032164	0.878002	0.617628
C91	C	-1.614400	0.317563	1.072822
C92	C	-1.114400	0.817563	1.572822
C93	C	-1.614136	0.317344	0.950262
C94	C	-1.114136	0.817344	1.450262
C95	C	-1.420445	0.355552	0.949694
C96	C	-0.920445	0.855552	1.449694
C97	C	-1.420944	0.355093	1.072293
C98	C	-0.920944	0.855093	1.572293
C99	C	-1.560621	0.461083	1.072412
C100	C	-1.060621	0.961083	1.572412
C101	C	-1.563065	0.460665	0.949806
C102	C	-1.063065	0.960665	1.449806
H103	H	-0.941988	0.255698	0.448653
H104	H	-0.441988	0.755698	0.948653
N105	N	-1.673198	1.089388	0.370193
N106	N	-1.173198	1.589388	0.870193
H107	H	-1.722327	1.123343	0.413331
H108	H	-1.222327	1.623343	0.913331
H109	H	-1.716070	1.050935	0.327287
H110	H	-1.216070	1.550935	0.827287
N111	N	-1.391218	1.089383	0.651759
N112	N	-0.891218	1.589383	1.151759
H113	H	-1.348231	1.050977	0.694664
H114	H	-0.848231	1.550977	1.194664
H115	H	-1.434373	1.123342	0.700861
H116	H	-0.934373	1.623342	1.200861
N117	N	-1.132828	0.335435	0.318866
N118	N	-0.632828	0.835435	0.818866
H119	H	-1.103099	0.295780	0.267636
H120	H	-0.603099	0.795780	0.767636
H121	H	-1.108880	0.389655	0.297715
H122	H	-0.608880	0.889655	0.797715
H123	H	-1.122560	0.506356	0.541297
H124	H	-0.622560	1.006356	1.041297
H125	H	-1.655117	0.825700	0.388030
H126	H	-1.155117	1.325700	0.888030
N127	N	-1.132884	0.411679	0.705718
N128	N	-0.632884	0.911679	1.205718
H129	H	-1.212754	0.411827	0.706041
H130	H	-0.712754	0.911827	1.206041
H131	H	-1.106079	0.466118	0.689636
H132	H	-0.606079	0.966118	1.189636
H133	H	-1.122149	0.294968	0.646821
H134	H	-0.622149	0.794968	1.146821
N135	N	-1.481294	0.520741	1.110790
N136	N	-0.981294	1.020741	1.610790
H137	H	-1.444615	0.545432	1.048118
H138	H	-0.944615	1.045432	1.548118
H139	H	-1.427243	0.494074	1.157254
H140	H	-0.927243	0.994074	1.657254
H141	H	-1.409049	0.929815	0.633826
H142	H	-0.909049	1.429815	1.133826
H143	H	-1.696949	0.331426	0.920197
H144	H	-1.196949	0.831426	1.420197
N145	N	-0.930314	0.276609	0.655859
N146	N	-0.430314	0.776609	1.155859
H147	H	-0.991973	0.239994	0.667515
H148	H	-0.491973	0.739994	1.167515
H149	H	-0.888697	0.281845	0.723636
H150	H	-0.388697	0.781845	1.223636
H151	H	-1.595295	0.255800	0.920956
H152	H	-1.095295	0.755800	1.420956
H153	H	-1.124683	0.256273	0.448134
H154	H	-0.624683	0.756273	0.948134
H155	H	-1.655171	0.929826	0.388050
H156	H	-1.155171	1.429826	0.888050
N157	N	-1.589760	0.236487	1.113642
N158	N	-1.089760	0.736487	1.613642
H159	H	-1.642950	0.198022	1.084484
H160	H	-1.142950	0.698022	1.584484
H161	H	-1.593449	0.236399	1.193427
H162	H	-1.093449	0.736399	1.693427
N163	N	-1.391066	0.836517	0.651699
N164	N	-0.891066	1.336517	1.151699
H165	H	-1.434137	0.870478	0.700878
H166	H	-0.934137	1.370478	1.200878
H167	H	-1.341992	0.870537	0.608500
H168	H	-0.841992	1.370537	1.108500
N169	N	-1.390979	0.666122	0.651652
N170	N	-0.890979	1.166122	1.151652
H171	H	-1.348029	0.704525	0.694567
H172	H	-0.848029	1.204525	1.194567
H173	H	-1.341923	0.632161	0.608444
H174	H	-0.841923	1.132161	1.108444
N175	N	-1.724463	0.335974	1.111888
N176	N	-1.224463	0.835974	1.611888
H177	H	-1.722091	0.383670	1.159014
H178	H	-1.222091	0.883670	1.659014
H179	H	-1.752741	0.289876	1.153233
H180	H	-1.252741	0.789876	1.653233
H181	H	-1.396821	0.294362	1.100908
H182	H	-0.896821	0.794362	1.600908
H183	H	-1.357587	0.397199	1.101929
H184	H	-0.857587	0.897199	1.601929
H185	H	-1.357505	0.398220	0.920516
H186	H	-0.857505	0.898220	1.420516
N187	N	-1.489474	0.523525	0.909220
N188	N	-0.989474	1.023525	1.409220
H189	H	-1.511279	0.575903	0.939173
H190	H	-1.011279	1.075903	1.439173
H191	H	-1.493177	0.525427	0.829479
H192	H	-0.993177	1.025427	1.329479
N193	N	-1.672947	0.666139	0.370087
N194	N	-1.172947	1.166139	0.870087
H195	H	-1.656535	0.680464	0.294329
H196	H	-1.156535	1.180464	0.794329
H197	H	-1.748661	0.680371	0.386726
H198	H	-1.248661	1.180371	0.886726
H199	H	-1.124388	0.481286	0.401541
H200	H	-0.624388	0.981286	0.901541
H201	H	-1.395879	0.295498	0.919005
H202	H	-0.895879	0.795498	1.419005
H203	H	-1.645251	0.477619	0.920740
H204	H	-1.145251	0.977619	1.420740
N205	N	-1.666645	0.488174	1.113387
N206	N	-1.166645	0.988174	1.613387
H207	H	-1.697305	0.446860	1.161683
H208	H	-1.197305	0.946860	1.661683
H209	H	-1.716130	0.497176	1.051905
H210	H	-1.216130	0.997176	1.551905
H211	H	-0.941144	0.330962	0.346415
H212	H	-0.441144	0.830962	0.846415
H213	H	-0.941777	0.477339	0.396989
H214	H	-0.441777	0.977339	0.896989
N215	N	-0.932381	0.412859	0.705676
N216	N	-0.432381	0.912859	1.205676
H217	H	-0.885537	0.453553	0.671464
H218	H	-0.385537	0.953553	1.171464
H219	H	-0.890863	0.383539	0.761236
H220	H	-0.390863	0.883539	1.261236
N221	N	-0.930390	0.523793	0.552386
N222	N	-0.430390	1.023793	1.052386
H223	H	-0.882352	0.499678	0.607249
H224	H	-0.382352	0.999678	1.107249
H225	H	-0.992089	0.550025	0.588665
H226	H	-0.492089	1.050025	1.088665
