data_functionalizedCrystal
_audit_creation_method	'MofGen! by Chris Wilmer'
_symmetry_space_group_name_H-M	'P1'
_symmetry_Int_Tables_number	1
_symmetry_cell_setting	triclinic
loop_
_symmetry_equiv_pos_as_xyz
  x,y,z
_cell_length_a	14.908993
_cell_length_b	14.908178
_cell_length_c	12.827885
_cell_angle_alpha	86.668451
_cell_angle_beta	93.273373
_cell_angle_gamma	96.795214
loop_
_atom_site_label
_atom_site_type_symbol
_atom_site_fract_x
_atom_site_fract_y
_atom_site_fract_z
Zn1	Zn	1.363026	-0.280420	-0.481129
Zn2	Zn	1.863026	0.219580	0.018871
Zn3	Zn	1.354190	-0.431827	-0.296842
Zn4	Zn	1.854190	0.068173	0.203158
Zn5	Zn	1.211654	-0.289207	-0.315914
Zn6	Zn	1.711654	0.210793	0.184086
Zn7	Zn	1.202905	-0.440497	-0.481055
Zn8	Zn	1.702905	0.059503	0.018945
O9	O	1.282944	-0.360488	-0.393735
O10	O	1.782944	0.139512	0.106265
O11	O	1.488517	-0.293198	-0.448732
O12	O	1.988517	0.206802	0.051268
O13	O	1.335247	-0.412957	-0.153135
O14	O	1.835247	0.087043	0.346865
O15	O	1.239093	-0.161361	-0.345844
O16	O	1.739093	0.338639	0.154156
O17	O	1.482025	-0.404437	-0.313337
O18	O	1.982025	0.095563	0.186663
O19	O	1.350305	-0.154905	-0.467226
O20	O	1.850305	0.345095	0.032774
O21	O	1.230526	-0.308175	-0.167147
O22	O	1.730526	0.191825	0.332853
O23	O	1.083831	-0.316582	-0.345772
O24	O	1.583831	0.183418	0.154228
O25	O	1.224182	-0.419214	-0.627302
O26	O	1.724182	0.080786	-0.127302
O27	O	1.077403	-0.427734	-0.467100
O28	O	1.577403	0.072266	0.032900
O29	O	1.341822	-0.301605	-0.627357
O30	O	1.841822	0.198395	-0.127357
O31	O	1.326763	-0.559658	-0.313265
O32	O	1.826763	-0.059658	0.186735
O33	O	1.215615	-0.566028	-0.448606
O34	O	1.715615	-0.066028	0.051394
C35	C	1.047775	-0.374053	-0.408498
C36	C	1.547775	0.125947	0.091502
C37	C	0.947167	-0.379878	-0.414837
C38	C	1.447167	0.120122	0.085163
C39	C	0.764766	-0.274907	-0.300607
C40	C	1.264766	0.225093	0.199393
C41	C	0.670236	-0.280377	-0.306560
C42	C	1.170236	0.219623	0.193440
C43	C	0.663576	-0.396293	-0.432689
C44	C	1.163576	0.103707	0.067311
C45	C	0.758106	-0.390823	-0.426736
C46	C	1.258106	0.109177	0.073264
C47	C	0.808697	-0.330127	-0.360694
C48	C	1.308697	0.169873	0.139306
C49	C	0.903229	-0.324652	-0.354748
C50	C	1.403229	0.175348	0.145252
C51	C	0.896567	-0.440572	-0.480871
C52	C	1.396567	0.059428	0.019129
C53	C	0.802037	-0.446042	-0.486823
C54	C	1.302037	0.053958	0.013177
C55	C	1.269305	-0.595688	-0.378879
C56	C	1.769305	-0.095688	0.121121
C57	C	1.263553	-0.696303	-0.372553
C58	C	1.763553	-0.196303	0.127447
C59	C	1.368462	-0.878501	-0.487211
C60	C	1.868462	-0.378501	0.012789
C61	C	1.363061	-0.973038	-0.481271
C62	C	1.863061	-0.473038	0.018729
C63	C	1.247346	-0.979914	-0.354738
C64	C	1.747346	-0.479914	0.145262
C65	C	1.252747	-0.885378	-0.360679
C66	C	1.752747	-0.385378	0.139321
C67	C	1.313308	-0.834674	-0.426916
C68	C	1.813308	-0.334674	0.073084
C69	C	1.318714	-0.740136	-0.432850
C70	C	1.818714	-0.240136	0.067150
C71	C	1.202994	-0.747014	-0.306324
C72	C	1.702994	-0.247014	0.193676
C73	C	1.197593	-0.841551	-0.300384
C74	C	1.697593	-0.341551	0.199616
C75	C	1.519032	-0.346870	-0.378915
C76	C	2.019032	0.153130	0.121085
C77	C	1.619638	-0.341067	-0.372600
C78	C	2.119638	0.158933	0.127400
C79	C	1.283011	-0.360396	-0.666307
C80	C	1.783011	0.139604	-0.166307
C81	C	1.283040	-0.360358	-0.782461
C82	C	1.783040	0.139642	-0.282461
C83	C	1.296661	-0.124368	-0.408671
C84	C	1.796661	0.375632	0.091329
C85	C	1.302506	-0.023747	-0.415035
C86	C	1.802506	0.476253	0.084965
C87	C	1.341287	-0.302111	-0.954318
C88	C	1.841287	0.197889	-0.454318
C89	C	1.341259	-0.302150	-0.834267
C90	C	1.841259	0.197850	-0.334267
C91	C	1.282933	-0.360510	-0.122225
C92	C	1.782933	0.139490	0.377775
C93	C	1.283094	-0.360284	-0.006076
C94	C	1.783094	0.139716	0.493924
H95	H	0.634471	-0.235410	-0.257632
H96	H	1.134471	0.264590	0.242368
C97	C	0.607909	-0.463059	-0.505322
C98	C	1.107909	0.036941	-0.005322
N99	N	0.565979	-0.513347	-0.560031
N100	N	1.065979	-0.013347	-0.060031
C101	C	0.958879	-0.257888	-0.282098
C102	C	1.458879	0.242112	0.217902
N103	N	1.000791	-0.207603	-0.227373
N104	N	1.500791	0.292397	0.272627
H105	H	0.760832	-0.495462	-0.540590
H106	H	1.260832	0.004538	-0.040590
H107	H	1.391133	-0.252282	-0.998883
H108	H	1.891133	0.247718	-0.498883
C109	C	1.215726	-0.427643	-0.842584
C110	C	1.715726	0.072357	-0.342584
N111	N	1.165024	-0.478322	-0.887876
N112	N	1.665024	0.021678	-0.387876
H113	H	1.233255	-0.410120	-0.961511
H114	H	1.733255	0.089880	-0.461511
C115	C	1.435082	-0.822726	-0.560068
C116	C	1.935082	-0.322726	-0.060068
N117	N	1.485260	-0.780717	-0.614948
N118	N	1.985260	-0.280717	-0.114948
H119	H	0.805959	-0.225475	-0.246847
H120	H	1.305959	0.274525	0.253153
C121	C	0.944899	-0.501317	-0.546972
C122	C	1.444899	-0.001317	-0.046972
N123	N	0.981304	-0.547067	-0.596760
N124	N	1.481304	-0.047067	-0.096760
H125	H	1.368028	-0.698854	-0.486781
H126	H	1.868028	-0.198854	0.013219
H127	H	1.407969	-1.008718	-0.530374
H128	H	1.907969	-0.508718	-0.030374
H129	H	1.198036	-1.021213	-0.300816
H130	H	1.698036	-0.521213	0.199184
C131	C	1.131036	-0.897331	-0.227458
C132	C	1.631036	-0.397331	0.272542
N133	N	1.080926	-0.939343	-0.172501
N134	N	1.580926	-0.439343	0.327499
C135	C	1.142321	-0.698797	-0.239995
C136	C	1.642321	-0.198797	0.260005
N137	N	1.096624	-0.662479	-0.190036
N138	N	1.596624	-0.162479	0.309964
H139	H	1.391076	-0.252342	-0.789757
H140	H	1.891076	0.247658	-0.289757
