data_functionalizedCrystal
_audit_creation_method	'MofGen! by Chris Wilmer'
_symmetry_space_group_name_H-M	'P1'
_symmetry_Int_Tables_number	1
_symmetry_cell_setting	triclinic
loop_
_symmetry_equiv_pos_as_xyz
  x,y,z
_cell_length_a	17.077404
_cell_length_b	29.839131
_cell_length_c	29.839135
_cell_angle_alpha	90.015469
_cell_angle_beta	90.013726
_cell_angle_gamma	90.041645
loop_
_atom_site_label
_atom_site_type_symbol
_atom_site_fract_x
_atom_site_fract_y
_atom_site_fract_z
Zn1	Zn	1.199909	-0.178924	0.254007
Zn2	Zn	1.199787	-0.254033	0.178877
Zn3	Zn	1.068654	-0.178918	0.178890
Zn4	Zn	1.068566	-0.254028	0.253978
O5	O	1.134229	-0.216475	0.216438
O6	O	1.309739	-0.188892	0.244048
O7	O	1.182377	-0.244068	0.116012
O8	O	1.086153	-0.116051	0.188871
O9	O	1.309650	-0.244074	0.188850
O10	O	1.182585	-0.116056	0.244060
O11	O	1.086034	-0.188882	0.116021
O12	O	0.958795	-0.188877	0.188844
O13	O	1.086003	-0.244065	0.316849
O14	O	0.958731	-0.244060	0.244011
O15	O	1.182500	-0.188887	0.316871
O16	O	1.182292	-0.316899	0.188822
O17	O	1.085885	-0.316895	0.243999
C18	C	0.930281	-0.216467	0.216426
C19	C	0.843031	-0.216475	0.216431
C20	C	0.802028	-0.245252	0.245111
C21	C	0.720047	-0.245253	0.245118
C22	C	0.679072	-0.216478	0.216443
C23	C	0.720081	-0.187698	0.187762
C24	C	0.802060	-0.187695	0.187757
C25	C	0.549211	-0.187707	0.187773
C26	C	0.467226	-0.187710	0.187777
C27	C	0.467198	-0.245264	0.245133
C28	C	0.549177	-0.245261	0.245129
C29	C	0.590181	-0.216482	0.216447
C30	C	1.134087	-0.333198	0.216416
C31	C	1.134098	-0.383132	0.216421
C32	C	1.184519	-0.692765	0.187750
C33	C	1.184616	-0.880438	0.187767
O34	O	1.227373	-0.904694	0.163372
N35	N	1.134392	-0.903917	0.216472
C36	C	1.084143	-0.880476	0.245177
O37	O	1.041432	-0.904752	0.269596
C38	C	1.084050	-0.692803	0.245161
C39	C	1.134273	-0.669327	0.216451
C40	C	1.234738	-0.669288	0.159042
C41	C	1.234710	-0.622373	0.159037
C42	C	1.184464	-0.598934	0.187738
C43	C	1.134245	-0.622411	0.216445
C44	C	1.033806	-0.669362	0.273868
C45	C	1.033789	-0.622441	0.273862
C46	C	1.084011	-0.598965	0.245152
C47	C	1.083971	-0.552057	0.245141
N48	N	1.134195	-0.528578	0.216436
C49	C	1.184442	-0.552016	0.187735
C50	C	1.084194	-0.979006	0.245182
C51	C	1.084216	-1.025924	0.245186
C52	C	1.184690	-1.025883	0.187776
C53	C	1.184664	-0.978965	0.187771
C54	C	1.134418	-0.955527	0.216477
C55	C	1.184379	-0.453491	0.187724
C56	C	1.184345	-0.406571	0.187720
C57	C	1.083873	-0.406616	0.245130
C58	C	1.083905	-0.453531	0.245134
C59	C	1.134164	-0.476967	0.216429
O60	O	1.041242	-0.527772	0.269527
O61	O	1.227159	-0.527731	0.163326
C62	C	1.184547	-0.739681	0.187755
C63	C	1.134328	-0.763157	0.216463
C64	C	1.084082	-0.739719	0.245164
C65	C	1.134350	-0.810075	0.216466
C66	C	1.184597	-0.833514	0.187765
C67	C	1.234821	-0.810034	0.159060
C68	C	1.234794	-0.763119	0.159054
C69	C	1.033857	-0.763198	0.273869
C70	C	1.033888	-0.810114	0.273872
C71	C	1.084135	-0.833552	0.245171
C72	C	1.338973	-0.216484	0.216451
C73	C	1.426223	-0.216488	0.216456
C74	C	1.134256	-0.216476	0.333616
C75	C	1.134267	-0.216476	0.383551
C76	C	1.134392	-0.099297	0.216470
C77	C	1.134462	-0.049363	0.216484
C78	C	1.084060	-0.187743	0.693202
C79	C	1.084047	-0.187740	0.880875
O80	O	1.041364	-0.163318	0.905146
N81	N	1.134207	-0.216471	0.904336
C82	C	1.184371	-0.245207	0.880876
O83	O	1.227030	-0.269647	0.905137
C84	C	1.184379	-0.245211	0.693204
C85	C	1.134221	-0.216475	0.669745
C86	C	1.033905	-0.159009	0.669743
C87	C	1.033911	-0.159008	0.622828
C88	C	1.084073	-0.187741	0.599371
C89	C	1.134228	-0.216474	0.622830
C90	C	1.234538	-0.273949	0.669744
C91	C	1.234535	-0.273949	0.622823
C92	C	1.184376	-0.245212	0.599365
C93	C	1.184396	-0.245206	0.552457
N94	N	1.134235	-0.216475	0.528996
C95	C	1.084074	-0.187743	0.552453
C96	C	1.184364	-0.245202	0.979406
C97	C	1.184364	-0.245200	1.026324
C98	C	1.084038	-0.187734	1.026320
C99	C	1.084043	-0.187733	0.979402
C100	C	1.134204	-0.216471	0.955945
C101	C	1.084092	-0.187743	0.453927
C102	C	1.084106	-0.187743	0.407008
C103	C	1.184428	-0.245211	0.407016
C104	C	1.184418	-0.245209	0.453931
C105	C	1.134243	-0.216474	0.477386
O106	O	1.227050	-0.269619	0.528157
O107	O	1.041409	-0.163313	0.528184
C108	C	1.084053	-0.187743	0.740117
C109	C	1.134208	-0.216477	0.763576
C110	C	1.184369	-0.245209	0.740119
C111	C	1.134207	-0.216475	0.810494
C112	C	1.084045	-0.187742	0.833951
C113	C	1.033885	-0.159011	0.810490
C114	C	1.033891	-0.159011	0.763574
C115	C	1.234530	-0.273940	0.763580
C116	C	1.234520	-0.273939	0.810496
C117	C	1.184358	-0.245206	0.833952
C118	C	1.134201	-0.216481	1.099716
C119	C	1.134202	-0.216467	1.049781
H120	H	0.686712	-0.164268	0.164416
H121	H	1.275372	-0.297338	0.829592
Cl122	Cl	1.247856	-1.055357	0.151694
H123	H	1.225270	-0.268603	0.387909
Cl124	Cl	1.297599	-0.310064	0.734099
Cl125	Cl	0.415652	-0.281438	0.281196
H126	H	0.835443	-0.164260	0.164406
H127	H	0.686666	-0.268686	0.268471
H128	H	1.043276	-0.959926	0.268559
H129	H	0.433866	-0.164275	0.164432
H130	H	0.992984	-0.829225	0.297251
H131	H	1.043012	-0.472647	0.268513
Cl132	Cl	0.970675	-0.698865	0.309968
Cl133	Cl	0.600689	-0.281438	0.281175
Cl134	Cl	1.021067	-1.055432	0.281274
Cl135	Cl	1.247486	-0.377060	0.151625
H136	H	0.992941	-0.744118	0.297242
H137	H	1.225216	-0.268595	1.045420
Cl138	Cl	0.600756	-0.151526	0.151715
H139	H	0.992874	-0.603361	0.297240
Cl140	Cl	1.021046	-0.151614	0.377520
Cl141	Cl	1.297596	-0.310079	0.593339
H142	H	1.042961	-0.387525	0.268498
H143	H	1.043236	-0.164343	0.473019
Cl144	Cl	1.247562	-0.482946	0.151637
H145	H	1.275608	-0.603261	0.135660
Cl146	Cl	1.297914	-0.698745	0.122956
Cl147	Cl	1.247804	-0.949456	0.151678
Cl148	Cl	1.297986	-0.839509	0.122977
Cl149	Cl	1.297937	-0.733612	0.122961
H150	H	0.993064	-0.135610	0.603732
H151	H	0.993053	-0.135611	0.688837
H152	H	1.043201	-0.164333	0.960305
H153	H	1.043196	-0.164337	1.045427
H154	H	1.225212	-0.268605	0.960313
Cl155	Cl	1.297592	-0.310081	0.699224
H156	H	1.225269	-0.268604	0.473032
Cl157	Cl	0.970830	-0.122884	0.734091
H158	H	0.993044	-0.135614	0.829597
H159	H	0.835385	-0.268684	0.268460
