data_functionalizedCrystal
_audit_creation_method	'MofGen! by Chris Wilmer'
_symmetry_space_group_name_H-M	'P1'
_symmetry_Int_Tables_number	1
_symmetry_cell_setting	triclinic
loop_
_symmetry_equiv_pos_as_xyz
  x,y,z
_cell_length_a	10.540539
_cell_length_b	10.540539
_cell_length_c	9.616153
_cell_angle_alpha	90.004826
_cell_angle_beta	89.999906
_cell_angle_gamma	95.474508
loop_
_atom_site_label
_atom_site_type_symbol
_atom_site_fract_x
_atom_site_fract_y
_atom_site_fract_z
O1	O	0.178895	-1.685892	-0.115573
O2	O	0.195751	-1.316479	-0.115589
O3	O	0.002617	-1.509614	-0.115579
O4	O	0.372030	-1.492758	-0.115583
O5	O	0.002621	-1.509587	0.115712
O6	O	0.195755	-1.316452	0.115702
O7	O	0.178899	-1.685865	0.115718
Zn8	Zn	0.187328	-1.501155	0.152433
Zn9	Zn	0.187323	-1.501190	-0.152304
O10	O	0.372034	-1.492731	0.115708
C11	C	0.194489	-1.269163	0.000054
C12	C	0.190707	-1.128215	0.000048
C13	C	-0.044684	-1.508336	0.000064
C14	C	-0.185632	-1.504554	0.000056
C15	C	0.180161	-1.733182	0.000072
C16	C	0.183943	-1.874130	0.000069
C17	C	-0.369059	-1.359637	-0.000469
C18	C	-0.222441	-1.363471	0.000052
C19	C	-0.247288	-1.572435	0.132138
C20	C	-0.393832	-1.567620	0.132249
C21	C	-0.394355	-1.570519	-0.130772
C22	C	-0.247373	-1.571819	-0.132518
C23	C	0.419335	-1.494008	0.000062
C24	C	0.560283	-1.497790	0.000060
N25	N	0.187331	-1.501140	0.360407
C26	C	0.045790	-0.944788	0.000589
C27	C	0.049624	-1.091406	0.000054
C28	C	0.258600	-1.066557	-0.132027
C29	C	0.253785	-0.920013	-0.132123
C30	C	0.256660	-0.919494	0.130899
C31	C	0.257959	-1.066476	0.132630
N32	N	0.187310	-1.501215	-0.360278
C33	C	0.290298	-1.397510	0.580772
C34	C	0.290684	-1.397739	0.419604
C35	C	0.217464	-1.633864	0.418862
C36	C	0.218193	-1.633299	0.580080
C37	C	0.053892	-1.473368	0.580319
C38	C	0.054757	-1.470321	0.419092
H39	H	-0.397661	-1.303917	-0.095187
H40	H	-0.179839	-1.310058	-0.094630
H41	H	0.272445	-1.298585	0.619578
H42	H	0.211434	-1.109157	-0.230318
O43	O	0.015918	-1.347860	0.634238
H44	H	-0.078448	-1.330429	0.590863
O45	O	-0.431185	-1.501129	0.263021
H46	H	-0.497833	-1.566854	0.324659
H47	H	-0.180683	-1.309662	0.094886
H48	H	-0.003797	-1.134009	0.094731
H49	H	-0.025564	-1.540848	0.378801
O50	O	0.388178	-0.856455	-0.140067
H51	H	0.398776	-0.796805	-0.235234
H52	H	-0.004177	-1.133162	-0.094786
H53	H	-0.441801	-1.669084	0.138246
H54	H	0.272553	-1.299122	0.380085
H55	H	-0.224933	-1.676042	0.137054
O56	O	-0.215301	-1.708075	-0.143089
H57	H	-0.251722	-1.761744	-0.049732
O58	O	-0.409041	-1.286093	0.124294
H59	H	-0.479017	-1.347510	0.186681
O60	O	-0.190866	-1.509960	0.262341
H61	H	-0.118932	-1.430574	0.233315
O62	O	0.024496	-1.340981	0.368514
H63	H	0.103533	-1.298815	0.301846
O64	O	0.196169	-0.877708	0.263506
H65	H	0.267225	-0.815511	0.323694
H66	H	-0.022762	-1.548980	0.618439
H67	H	-0.425910	-1.524869	-0.230881
H68	H	0.358563	-0.872267	0.131790
O69	O	-0.193157	-1.506129	-0.261961
H70	H	-0.088477	-1.511114	-0.264727
O71	O	-0.456914	-1.705500	-0.131966
H72	H	-0.520016	-1.720776	-0.039884
H73	H	0.360819	-1.090701	0.140603
O74	O	-0.028047	-0.906912	0.126051
H75	H	0.032924	-0.837313	0.189376
H76	H	-0.009712	-0.914592	-0.093600
H77	H	0.203603	-0.891814	-0.230849
O78	O	0.395839	-1.096169	-0.138564
H79	H	0.417161	-1.155292	-0.047532
O80	O	0.347127	-1.665557	0.629876
H81	H	0.348925	-1.665482	0.745284
H82	H	0.388722	-1.415178	0.621270
O83	O	0.192274	-1.120712	0.262068
H84	H	0.112065	-1.191350	0.232114
H85	H	0.144501	-1.712918	0.380514
O86	O	0.421793	-1.421455	0.368480
H87	H	0.485165	-1.432818	0.458908
O88	O	0.122710	-1.738673	0.631750
H89	H	0.076226	-1.789815	0.541582
O90	O	0.344949	-1.666850	0.365389
H91	H	0.387044	-1.588931	0.297197
