data_functionalizedCrystal
_audit_creation_method	'MofGen! by Chris Wilmer'
_symmetry_space_group_name_H-M	'P1'
_symmetry_Int_Tables_number	1
_symmetry_cell_setting	triclinic
loop_
_symmetry_equiv_pos_as_xyz
  x,y,z
_cell_length_a	20.875492
_cell_length_b	14.395555
_cell_length_c	20.875643
_cell_angle_alpha	89.996510
_cell_angle_beta	119.337675
_cell_angle_gamma	58.317190
loop_
_atom_site_label
_atom_site_type_symbol
_atom_site_fract_x
_atom_site_fract_y
_atom_site_fract_z
Zr1	Zr	0.731481	0.846173	0.117916
O2	O	0.864482	0.693443	0.223400
O3	O	0.593200	0.900065	0.080681
O4	O	0.723860	0.897443	0.216328
O5	O	0.741674	0.690088	-0.013676
O6	O	0.723856	1.050318	0.216322
O7	O	0.733821	0.696065	0.087752
O8	O	0.490128	1.055007	-0.026326
O9	O	0.975402	0.685399	0.228972
O10	O	0.652029	1.028593	0.070715
O11	O	0.657893	0.910045	-0.004976
O12	O	0.811729	0.906958	0.154731
O13	O	0.817593	0.788410	0.079041
Zr14	Zr	0.743998	1.080458	-0.043859
Zr15	Zr	0.731474	1.089990	0.117907
Zr16	Zr	0.744005	0.836641	-0.043850
Zr17	Zr	0.908386	0.833343	0.126804
Zr18	Zr	0.567093	1.093288	-0.052747
O19	O	0.882279	1.026566	-0.006624
O20	O	0.864471	1.040119	0.223387
O21	O	0.882290	0.679890	-0.006611
O22	O	0.610997	1.233187	-0.149343
O23	O	0.593190	1.246741	0.080668
O24	O	0.611008	0.886512	-0.149330
O25	O	0.733805	1.236543	0.087733
O26	O	0.751619	1.029188	-0.142271
O27	O	0.751623	0.876313	-0.142265
O28	O	0.741658	1.230566	-0.013696
O29	O	0.975396	0.879201	0.228965
O30	O	0.500083	1.047430	-0.154908
O31	O	0.500077	1.241232	-0.154915
O32	O	0.490122	1.248809	-0.026333
O33	O	0.985357	0.677822	0.100390
O34	O	0.985351	0.871624	0.100383
O35	O	0.663750	1.019673	-0.080674
O36	O	0.657886	1.138221	-0.004984
O37	O	0.817586	1.016586	0.079033
O38	O	0.823450	0.898038	0.003342
C39	C	0.516459	0.979364	0.025911
C40	C	0.441358	0.984811	0.022138
C41	C	0.462880	0.902007	0.079329
C42	C	0.392326	0.907128	0.075811
C43	C	0.300251	0.995050	0.015098
C44	C	0.278731	1.077863	-0.042096
C45	C	0.349284	1.072745	-0.038574
C46	C	0.083153	1.019515	-0.001753
C47	C	0.012600	1.024624	-0.005272
C48	C	0.126200	0.853890	0.112636
C49	C	0.196749	0.848776	0.116150
C50	C	0.175222	0.931592	0.058958
N51	N	0.228133	1.000286	0.011499
N52	N	0.247340	0.926361	0.062561
C53	C	0.737749	0.658338	0.037040
C54	C	0.737752	0.554832	0.037044
C55	C	0.824828	0.427922	0.082847
C56	C	0.777386	0.402121	0.110487
C57	C	0.785190	0.396209	0.009409
C58	C	0.690306	0.530397	0.064725
C59	C	0.698126	0.524479	-0.036391
C60	C	0.650620	0.498755	-0.008772
C61	C	0.959020	0.947267	0.048146
C62	C	1.034121	0.941820	0.051919
C63	C	0.722074	0.975239	0.239373
C64	C	0.716757	0.979285	0.308047
C65	C	0.737730	1.268293	0.037017
C66	C	0.737727	1.371799	0.037013
C67	C	0.797618	0.917696	0.384166
C68	C	0.792617	0.921513	0.448690
C69	C	0.706754	0.986914	0.437093
C70	C	0.625886	1.048510	0.360966
C71	C	0.630888	1.044699	0.296444
C72	C	0.682854	1.005127	0.625360
C73	C	0.677858	1.008931	0.689890
C74	C	0.844590	0.881935	0.777609
C75	C	0.849585	0.878124	0.713082
C76	C	0.768717	0.939725	0.636961
N77	N	0.701639	0.990814	0.503045
N78	N	0.773832	0.935831	0.571010
C79	C	0.753405	0.951391	0.834683
C80	C	0.758720	0.947342	0.766009
C81	C	0.516450	1.284341	0.025900
C82	C	0.441346	1.393295	0.022123
C83	C	0.532125	0.967441	-0.176434
C84	C	0.462341	0.968841	-0.248881
C85	C	0.532116	1.272418	-0.176445
C86	C	0.462329	1.377325	-0.248896
C87	C	0.943364	0.654213	0.250502
C88	C	1.013151	0.549306	0.322953
C89	C	0.959029	0.642290	0.048157
C90	C	1.034133	0.533336	0.051934
C91	C	0.943354	0.959190	0.250490
C92	C	1.013138	0.957790	0.322938
C93	C	0.403019	1.387236	0.059870
C94	C	0.332459	1.489600	0.056337
C95	C	0.300224	1.598022	0.015052
C96	C	0.338559	1.604078	-0.022696
C97	C	0.409121	1.501715	-0.019158
C98	C	0.432628	1.026723	-0.322423
C99	C	0.367069	1.028033	-0.390501
C100	C	0.331220	0.971468	-0.385034
C101	C	0.360939	0.913579	-0.311483
C102	C	0.426502	0.912262	-0.243407
C103	C	0.426495	1.488482	-0.243410
C104	C	0.360932	1.587062	-0.311478
C105	C	0.331199	1.574483	-0.385032
C106	C	0.367040	1.463314	-0.390517
C107	C	0.432606	1.364736	-0.322448
C108	C	1.048993	0.438149	0.317467
C109	C	1.114577	0.339567	0.385537
C110	C	1.144314	0.352146	0.459091
C111	C	1.108469	0.463315	0.464575
C112	C	1.042890	0.561893	0.396506
C113	C	1.072467	0.539395	0.014194
C114	C	1.143045	0.437030	0.017746
C115	C	1.175282	0.328609	0.059034
C116	C	1.136945	0.322553	0.096778
C117	C	1.066373	0.424916	0.093231
C118	C	1.048967	1.014367	0.317445
C119	C	1.114527	1.013074	0.385510
C120	C	1.144263	0.955196	0.459067
C121	C	1.108427	0.898618	0.464557
C122	C	1.042863	0.899918	0.396493
H123	H	-0.062375	1.096223	-0.054716
F124	F	0.596787	1.070651	0.544354
F125	F	0.415237	0.818994	0.136680
F126	F	0.261441	0.972879	-0.457494
H127	H	1.013698	0.853841	0.400976
H128	H	1.143751	0.249059	0.381056
F129	F	0.821162	0.333185	0.191642
F130	F	1.025577	0.418450	0.133397
H131	H	0.312302	1.692368	-0.056310
F132	F	0.560871	0.808422	0.143946
F133	F	0.889007	0.848085	0.396518
F134	F	0.921061	0.390126	0.133542
H135	H	0.143717	0.786468	0.159199
H136	H	1.174248	0.441984	-0.012994
H137	H	0.461774	1.274231	-0.326926
H138	H	1.024785	0.427885	0.257582
F139	F	1.250392	0.219673	0.062802
H140	H	1.143698	1.059145	0.381025
F141	F	1.171262	0.207152	0.140716
F142	F	0.637927	0.605690	0.095368
F143	F	0.534503	1.118118	0.348625
H144	H	0.277810	1.654761	-0.440452
H145	H	0.065614	1.086950	-0.048323
H146	H	0.825317	0.338446	-0.013950
F147	F	0.449900	1.508181	-0.059342
H148	H	1.024767	1.061497	0.257558
F149	F	0.180736	1.171440	-0.106709
H150	H	0.858463	0.871363	0.510667
H151	H	0.919504	0.824872	0.722533
H152	H	0.910428	0.831784	0.839591
F153	F	1.214045	0.953819	0.531502
F154	F	1.214109	0.247218	0.531530
F155	F	1.140125	0.476684	0.542863
H156	H	0.664665	0.577213	-0.098467
F157	F	0.294741	0.755192	0.180765
H158	H	1.013708	0.652400	0.400982
F159	F	0.554321	0.536760	-0.059373
F160	F	0.335386	1.449945	-0.468805
F161	F	0.291671	1.483130	0.096513
F162	F	0.326375	1.160880	-0.099442
F163	F	0.586466	1.078543	0.677541
H164	H	1.046226	0.627667	-0.019432
F165	F	0.322776	0.853383	-0.305677
F166	F	0.544824	1.110261	0.215430
H167	H	1.132648	0.851495	0.524456
H168	H	0.429263	1.298963	0.093499
H169	H	0.461809	1.072785	-0.326889
F170	F	0.225123	1.706957	0.011292
F171	F	0.335449	1.089652	-0.468771
F172	F	0.458114	0.850659	-0.165140
H173	H	0.450694	1.498746	-0.183525
H174	H	0.331757	1.677571	-0.306999
