data_functionalizedCrystal
_audit_creation_method	'MofGen! by Chris Wilmer'
_symmetry_space_group_name_H-M	'P1'
_symmetry_Int_Tables_number	1
_symmetry_cell_setting	triclinic
loop_
_symmetry_equiv_pos_as_xyz
  x,y,z
_cell_length_a	12.759401
_cell_length_b	11.169416
_cell_length_c	12.759393
_cell_angle_alpha	89.971874
_cell_angle_beta	89.979527
_cell_angle_gamma	90.011865
loop_
_atom_site_label
_atom_site_type_symbol
_atom_site_fract_x
_atom_site_fract_y
_atom_site_fract_z
Zn1	Zn	1.606293	-0.477694	-0.594041
Zn2	Zn	2.106293	0.022306	-0.094041
Zn3	Zn	1.606199	-0.678425	-0.418371
Zn4	Zn	2.106199	-0.178425	0.081629
Zn5	Zn	1.430594	-0.477759	-0.418377
Zn6	Zn	1.930594	0.022241	0.081623
Zn7	Zn	1.430597	-0.678339	-0.594008
Zn8	Zn	1.930597	-0.178339	-0.094008
O9	O	1.518421	-0.578054	-0.506199
O10	O	2.018421	-0.078054	-0.006199
O11	O	1.753302	-0.504329	-0.570750
O12	O	2.253302	-0.004329	-0.070750
O13	O	1.582864	-0.651869	-0.271350
O14	O	2.082864	-0.151869	0.228650
O15	O	1.453938	-0.309801	-0.441696
O16	O	1.953938	0.190199	0.058304
O17	O	1.753233	-0.651806	-0.441685
O18	O	2.253233	-0.151806	0.058315
O19	O	1.583024	-0.309753	-0.570756
O20	O	2.083024	0.190247	-0.070756
O21	O	1.453847	-0.504442	-0.271355
O22	O	1.953847	-0.004442	0.228645
O23	O	1.283573	-0.504358	-0.441663
O24	O	1.783573	-0.004358	0.058337
O25	O	1.453945	-0.651659	-0.741033
O26	O	1.953945	-0.151659	-0.241033
O27	O	1.283576	-0.651723	-0.570698
O28	O	1.783576	-0.151723	-0.070698
O29	O	1.583028	-0.504246	-0.741058
O30	O	2.083028	-0.004246	-0.241058
O31	O	1.582868	-0.846363	-0.441653
O32	O	2.082868	-0.346363	0.058347
O33	O	1.453854	-0.846300	-0.570692
O34	O	1.953854	-0.346300	-0.070692
C35	C	1.245454	-0.578039	-0.506178
C36	C	1.745454	-0.078039	-0.006178
C37	C	1.128677	-0.578062	-0.506194
C38	C	1.628677	-0.078062	-0.006194
C39	C	1.073844	-0.654912	-0.573277
C40	C	1.573844	-0.154912	-0.073277
C41	C	0.964120	-0.654916	-0.573298
C42	C	1.464120	-0.154916	-0.073298
C43	C	0.964071	-0.501218	-0.439144
C44	C	1.464071	-0.001218	0.060856
C45	C	1.073793	-0.501209	-0.439129
C46	C	1.573793	-0.001209	0.060871
C47	C	1.518379	-0.889879	-0.506191
C48	C	2.018379	-0.389879	-0.006191
C49	C	1.518458	-1.023279	-0.506223
C50	C	2.018458	-0.523279	-0.006223
C51	C	1.792454	-0.578070	-0.506221
C52	C	2.292454	-0.078070	-0.006221
C53	C	1.909231	-0.578076	-0.506230
C54	C	2.409231	-0.078076	-0.006230
C55	C	1.518497	-0.577936	-0.780233
C56	C	2.018497	-0.077936	-0.280233
C57	C	1.518530	-0.577885	-0.897009
C58	C	2.018530	-0.077885	-0.397009
C59	C	1.518491	-0.265012	-0.506230
C60	C	2.018491	0.234988	-0.006230
C61	C	1.518521	-0.131612	-0.506243
C62	C	2.018521	0.368388	-0.006243
C63	C	1.585770	-0.501070	-1.061617
C64	C	2.085770	-0.001070	-0.561617
C65	C	1.585750	-0.501116	-0.951893
C66	C	2.085750	-0.001116	-0.451893
C67	C	1.451333	-0.654622	-0.951856
C68	C	1.951333	-0.154622	-0.451856
C69	C	1.451359	-0.654580	-1.061578
C70	C	1.951359	-0.154580	-0.561578
C71	C	1.518405	-0.578085	-0.233232
C72	C	2.018405	-0.078085	0.266768
C73	C	1.518576	-0.577798	-0.116456
C74	C	2.018576	-0.077798	0.383544
H75	H	0.919372	-0.438649	-0.384540
H76	H	1.419372	0.061351	0.115460
H77	H	1.118527	-0.717488	-0.627889
H78	H	1.618527	-0.217488	-0.127889
Cl79	Cl	1.142732	-0.404582	-0.354796
Cl80	Cl	1.642732	0.095418	0.145204
H81	H	1.640467	-0.438638	-0.907248
H82	H	2.140467	0.061362	-0.407248
Cl83	Cl	1.366829	-0.751134	-0.882859
Cl84	Cl	1.866829	-0.251134	-0.382859
Cl85	Cl	1.670270	-0.404542	-1.130603
Cl86	Cl	2.170270	0.095458	-0.630603
H87	H	0.919480	-0.717493	-0.627925
H88	H	1.419480	-0.217493	-0.127925
Cl89	Cl	1.366887	-0.751054	-1.130523
Cl90	Cl	1.866887	-0.251054	-0.630523
