data_functionalizedCrystal
_audit_creation_method	'MofGen! by Chris Wilmer'
_symmetry_space_group_name_H-M	'P1'
_symmetry_Int_Tables_number	1
_symmetry_cell_setting	triclinic
loop_
_symmetry_equiv_pos_as_xyz
  x,y,z
_cell_length_a	17.640112
_cell_length_b	12.645330
_cell_length_c	17.640968
_cell_angle_alpha	101.231500
_cell_angle_beta	87.860920
_cell_angle_gamma	101.237348
loop_
_atom_site_label
_atom_site_type_symbol
_atom_site_fract_x
_atom_site_fract_y
_atom_site_fract_z
Zn1	Zn	1.247782	-0.030458	0.195080
Zn2	Zn	1.222041	-0.249164	0.068097
Zn3	Zn	1.095123	-0.099414	0.093726
Zn4	Zn	1.120780	-0.235210	0.220679
O5	O	1.171432	-0.153562	0.144396
O6	O	1.350634	-0.036451	0.156796
O7	O	1.183695	-0.263998	-0.034776
O8	O	1.115409	0.058093	0.107183
O9	O	1.331722	-0.197134	0.063503
O10	O	1.227567	0.108755	0.181647
O11	O	1.090449	-0.153977	-0.015947
O12	O	0.992260	-0.140447	0.132006
O13	O	1.159137	-0.173351	0.323557
O14	O	1.011110	-0.240215	0.225278
O15	O	1.252445	-0.022921	0.304749
O16	O	1.208573	-0.395673	0.088325
O17	O	1.134177	-0.385421	0.200427
C18	C	0.974132	-0.196300	0.184201
C19	C	0.889730	-0.214603	0.201248
C20	C	0.563041	-0.014493	0.014898
C21	C	0.483734	-0.031710	0.030927
C22	C	0.503383	-0.135840	0.127883
C23	C	0.582694	-0.118628	0.111866
C24	C	0.612516	-0.057954	0.055372
C25	C	0.632168	-0.162089	0.152339
C26	C	0.711471	-0.144882	0.136320
C27	C	0.741299	-0.084214	0.079827
C28	C	0.691819	-0.040748	0.039352
C29	C	0.602344	-0.222768	0.208829
C30	C	0.651819	-0.266229	0.249302
C31	C	0.731124	-0.249017	0.233287
C32	C	0.760952	-0.188349	0.176794
C33	C	0.780605	-0.292483	0.273762
C34	C	0.859908	-0.275277	0.257742
C35	C	0.840255	-0.171142	0.160775
C36	C	1.171390	-0.429005	0.144385
C37	C	1.171447	-0.546818	0.144392
C38	C	1.218131	-0.720847	0.073769
C39	C	1.218351	-0.598198	0.073875
C40	C	1.209332	-0.560398	0.220067
C41	C	1.209733	-0.682997	0.219661
C42	C	1.087014	-0.738217	0.140134
C43	C	1.087036	-0.616115	0.138261
C44	C	1.369502	-0.110657	0.104435
C45	C	1.453908	-0.092374	0.087406
C46	C	1.211525	-0.088888	0.342479
C47	C	1.228610	-0.061327	0.426890
C48	C	1.171498	0.122968	0.144418
C49	C	1.171526	0.240808	0.144428
C50	C	1.131538	-0.217898	-0.052926
C51	C	1.114600	-0.245128	-0.137366
C52	C	1.041928	-0.362294	0.753463
C53	C	1.057998	-0.336380	0.832776
C54	C	1.155152	-0.179750	0.813183
C55	C	1.139087	-0.205648	0.733867
C56	C	1.082475	-0.296921	0.704013
C57	C	1.179634	-0.140275	0.684417
C58	C	1.163573	-0.166175	0.605106
C59	C	1.106965	-0.257446	0.575246
C60	C	1.066414	-0.322821	0.624702
C61	C	1.236249	-0.049006	0.714271
C62	C	1.276796	0.016366	0.664821
C63	C	1.260732	-0.009529	0.585510
C64	C	1.204124	-0.100800	0.555650
C65	C	1.301283	0.055846	0.536054
C66	C	1.285222	0.029946	0.456744
C67	C	1.188063	-0.126700	0.476340
H68	H	0.900192	-0.310666	0.290701
F69	F	0.723562	0.023837	-0.020771
H70	H	1.192773	-0.590490	0.017256
F71	F	1.014836	-0.405963	0.885404
F72	F	0.825701	-0.065907	0.062773
F73	F	0.620070	-0.330814	0.309418
H74	H	0.587326	0.034933	-0.031094
H75	H	0.479090	-0.185244	0.173879
H76	H	0.443454	0.003695	-0.002031
F77	F	1.184880	-0.788645	-0.000511
F78	F	1.046062	-0.808781	0.070368
H79	H	1.318238	0.083180	0.416480
H80	H	0.537770	-0.236776	0.221870
H81	H	1.058763	-0.609871	0.082650
F82	F	1.089875	-0.285015	0.490835
H83	H	0.864540	-0.121716	0.114783
H84	H	1.280047	-0.734374	0.075237
H85	H	1.020297	-0.397124	0.600398
H86	H	0.995811	-0.436596	0.729158
H87	H	0.756310	-0.341892	0.319753
F88	F	1.299737	-0.537113	0.075911
F89	F	1.291105	-0.696226	0.226876
F90	F	1.168430	-0.714005	0.289677
H91	H	1.177120	-0.525527	0.273429
H92	H	1.270982	-0.511265	0.226012
F93	F	1.215402	-0.082615	0.844964
H94	H	1.049126	-0.582506	0.187255
F95	F	1.361538	0.152974	0.567836
H96	H	1.052090	-0.762696	0.191795
F97	F	1.127804	-0.223837	0.444564
H98	H	1.249326	-0.027925	0.778851
H99	H	1.322892	0.090678	0.689139
