data_functionalizedCrystal
_audit_creation_method	'MofGen! by Chris Wilmer'
_symmetry_space_group_name_H-M	'P1'
_symmetry_Int_Tables_number	1
_symmetry_cell_setting	triclinic
loop_
_symmetry_equiv_pos_as_xyz
  x,y,z
_cell_length_a	16.109301
_cell_length_b	27.731996
_cell_length_c	14.586319
_cell_angle_alpha	89.990257
_cell_angle_beta	89.999213
_cell_angle_gamma	83.041434
loop_
_atom_site_label
_atom_site_type_symbol
_atom_site_fract_x
_atom_site_fract_y
_atom_site_fract_z
O1	O	1.102342	0.062132	-0.076195
O2	O	0.860181	0.069864	-0.076211
O3	O	0.988805	-0.004369	-0.076182
O4	O	0.973718	0.136365	-0.076223
O5	O	0.988796	-0.004370	0.076298
O6	O	0.860172	0.069863	0.076270
O7	O	1.102333	0.062130	0.076286
Cu8	Cu	0.981252	0.065996	0.090201
Cu9	Cu	0.981262	0.065998	-0.090125
O10	O	0.973709	0.136364	0.076258
C11	C	0.829206	0.069550	0.000028
C12	C	0.736923	0.068611	0.000023
C13	C	0.514118	0.110476	0.000021
C14	C	0.427409	0.109590	0.000027
C15	C	0.448402	0.021515	0.000049
C16	C	0.535110	0.022401	0.000049
C17	C	0.567965	0.066883	0.000031
C18	C	0.394549	0.065111	0.000037
C19	C	0.300535	0.064150	0.000043
C20	C	0.661985	0.067845	0.000026
C21	C	0.988491	-0.022379	0.000061
C22	C	0.987557	-0.076039	0.000070
C23	C	0.981689	-0.408779	-0.083092
C24	C	0.978144	-0.610452	-0.083108
O25	O	0.977654	-0.636524	-0.153797
N26	N	0.977699	-0.635672	0.000008
C27	C	0.978135	-0.610469	0.083135
O28	O	0.977666	-0.636547	0.153830
C29	C	0.981673	-0.408797	0.083150
C30	C	0.982127	-0.383581	0.000028
C31	C	0.982141	-0.383563	-0.166207
C32	C	0.983032	-0.333148	-0.166202
C33	C	0.983470	-0.307949	-0.083082
C34	C	0.983018	-0.333166	0.000033
C35	C	0.982103	-0.383595	0.166275
C36	C	0.982986	-0.333174	0.166272
C37	C	0.983439	-0.307957	0.083150
C38	C	0.984346	-0.257552	0.083158
N39	N	0.984792	-0.232333	0.000042
C40	C	0.984353	-0.257531	-0.083079
C41	C	0.976278	-0.716351	0.083121
C42	C	0.975395	-0.766769	0.083117
C43	C	0.975403	-0.766748	-0.083126
C44	C	0.976292	-0.716329	-0.083122
C45	C	0.976723	-0.691131	0.000004
C46	C	0.986225	-0.151656	-0.083062
C47	C	0.987119	-0.101237	-0.083050
C48	C	0.987107	-0.101262	0.083193
C49	C	0.986217	-0.151677	0.083181
C50	C	0.985773	-0.176873	0.000046
O51	O	0.984828	-0.231448	0.153810
O52	O	0.984804	-0.231443	-0.153763
C53	C	0.980798	-0.459194	-0.083097
C54	C	0.980345	-0.484410	0.000018
C55	C	0.980784	-0.459212	0.083138
C56	C	0.979462	-0.534828	0.000015
C57	C	0.979024	-0.560027	-0.083105
C58	C	0.979469	-0.534807	-0.166222
C59	C	0.980360	-0.484392	-0.166217
C60	C	0.980339	-0.484431	0.166255
C61	C	0.979449	-0.534846	0.166243
C62	C	0.979011	-0.560045	0.083123
C63	C	1.133308	0.062444	0.000045
C64	C	1.225591	0.063383	0.000045
C65	C	0.974023	0.154373	0.000012
C66	C	0.974957	0.208033	-0.000003
N67	N	0.981250	0.065995	0.217033
N68	N	0.981270	0.065995	-0.216957
C69	C	1.038224	0.033136	0.452052
C70	C	1.038226	0.033135	0.548033
C71	C	0.924291	0.098856	0.548017
C72	C	0.924285	0.098855	0.452038
C73	C	0.981256	0.065995	0.404057
C74	C	0.981264	0.065995	0.596018
C75	C	0.981267	0.065994	0.700085
C76	C	0.981253	0.065995	0.299984
H77	H	0.987490	-0.080708	-0.150740
Cl78	Cl	0.852660	0.140164	0.391696
H79	H	0.383570	0.145087	0.000021
Cl80	Cl	0.555419	0.166396	0.000004
H81	H	0.981735	-0.404118	0.233962
H82	H	0.980729	-0.463866	-0.233904
Cl83	Cl	0.985669	-0.183323	-0.187576
H84	H	0.983324	-0.312659	0.233965
H85	H	0.980697	-0.463920	0.233943
Cl86	Cl	0.978922	-0.566495	-0.270715
H87	H	1.084613	0.006377	0.587107
Cl88	Cl	0.407092	-0.034402	0.000066
H89	H	0.985855	-0.172210	0.150866
H90	H	0.979086	-0.555374	0.233936
Cl91	Cl	0.602808	-0.032405	0.000069
Cl92	Cl	0.983594	-0.301454	-0.270704
H93	H	1.084612	0.006379	0.412988
Cl94	Cl	0.852677	0.140165	0.608339
Cl95	Cl	0.981592	-0.415232	-0.270716
Cl96	Cl	0.976859	-0.684634	-0.187621
H97	H	0.975047	-0.787273	-0.150806
H98	H	0.975038	-0.787296	0.150803
H99	H	0.976633	-0.695839	0.150816
H100	H	0.987467	-0.080737	0.150867
