data_functionalizedCrystal
_audit_creation_method	'MofGen! by Chris Wilmer'
_symmetry_space_group_name_H-M	'P1'
_symmetry_Int_Tables_number	1
_symmetry_cell_setting	triclinic
loop_
_symmetry_equiv_pos_as_xyz
  x,y,z
_cell_length_a	15.995350
_cell_length_b	27.732048
_cell_length_c	15.072220
_cell_angle_alpha	89.993868
_cell_angle_beta	89.991149
_cell_angle_gamma	83.067515
loop_
_atom_site_label
_atom_site_type_symbol
_atom_site_fract_x
_atom_site_fract_y
_atom_site_fract_z
O1	O	1.110190	0.062301	-0.073717
O2	O	0.866315	0.069995	-0.073737
O3	O	0.995827	-0.004216	-0.073709
O4	O	0.980678	0.136512	-0.073744
O5	O	0.995795	-0.004212	0.073856
O6	O	0.866283	0.069999	0.073828
O7	O	1.110158	0.062305	0.073848
Zn8	Zn	0.988215	0.066153	0.097267
Zn9	Zn	0.988257	0.066148	-0.097156
O10	O	0.980646	0.136516	0.073821
C11	C	0.835108	0.069679	0.000044
C12	C	0.742170	0.068726	0.000037
C13	C	0.404467	0.065301	0.000056
C14	C	0.452585	0.012449	0.000399
C15	C	0.549263	0.013403	0.000060
C16	C	0.572006	0.067000	0.000047
C17	C	0.530599	0.093065	-0.084223
C18	C	0.433981	0.091738	-0.084287
C19	C	0.433592	0.092834	0.083522
C20	C	0.530537	0.092822	0.084630
C21	C	0.666691	0.067962	0.000039
C22	C	0.309782	0.064340	0.000058
C23	C	0.995493	-0.022222	0.000076
C24	C	0.994535	-0.075881	0.000083
C25	C	1.065040	-0.414392	0.000043
C26	C	1.061487	-0.616067	0.000030
O27	O	1.125959	-0.647045	-0.000004
N28	N	0.984692	-0.635522	0.000025
C29	C	0.908780	-0.604555	0.000017
O30	O	0.843380	-0.625730	0.000003
C31	C	0.912334	-0.402881	0.000023
C32	C	0.989134	-0.383429	0.000037
C33	C	1.141834	-0.394940	0.000056
C34	C	1.142721	-0.344524	0.000064
C35	C	1.066815	-0.313561	0.000059
C36	C	0.990021	-0.333013	0.000045
C37	C	0.836422	-0.371914	0.000009
C38	C	0.837317	-0.321493	0.000008
C39	C	0.914117	-0.302041	0.000023
C40	C	0.915002	-0.251634	0.000048
N41	N	0.991797	-0.232179	0.000053
C42	C	1.067703	-0.263142	0.000059
C43	C	0.906920	-0.710437	0.000015
C44	C	0.906031	-0.760855	0.000015
C45	C	1.058739	-0.772364	0.000027
C46	C	1.059627	-0.721945	0.000033
C47	C	0.983715	-0.690982	0.000021
C48	C	1.069561	-0.157265	0.000076
C49	C	1.070442	-0.106844	0.000088
C50	C	0.917734	-0.095340	0.000072
C51	C	0.916853	-0.145756	0.000065
C52	C	0.992773	-0.176718	0.000064
O53	O	0.850565	-0.220628	0.000072
O54	O	1.133094	-0.241958	0.000053
C55	C	1.064153	-0.464808	0.000035
C56	C	0.987359	-0.484260	0.000022
C57	C	0.911452	-0.453297	0.000016
C58	C	0.986470	-0.534679	0.000022
C59	C	1.062377	-0.565642	0.000027
C60	C	1.139172	-0.546187	0.000032
C61	C	1.140059	-0.495771	0.000040
C62	C	0.834657	-0.472752	0.000011
C63	C	0.833776	-0.523168	0.000004
C64	C	0.909683	-0.554132	0.000009
C65	C	1.141364	0.062621	0.000066
C66	C	1.234302	0.063575	0.000066
C67	C	0.980980	0.154523	0.000034
C68	C	0.981938	0.208182	0.000021
N69	N	0.988193	0.066156	0.229956
N70	N	0.988287	0.066140	-0.229845
C71	C	0.988256	0.066146	0.589158
C72	C	0.918727	0.105721	0.551536
C73	C	0.918884	0.105866	0.448710
C74	C	0.988224	0.066151	0.410954
C75	C	1.075446	0.077167	0.448249
C76	C	1.075056	0.077448	0.551106
C77	C	0.971342	0.015437	0.551269
C78	C	0.969333	0.015775	0.448405
C79	C	0.988211	0.066153	0.310240
C80	C	0.988274	0.066145	0.689871
H81	H	0.558086	0.073794	0.146972
H82	H	0.772844	-0.447546	0.000005
H83	H	1.131383	-0.182469	0.000072
H84	H	1.120545	-0.797583	0.000032
H85	H	1.205260	-0.328691	0.000072
C86	C	1.225341	-0.428994	0.000067
C87	C	1.288426	-0.426803	0.076706
C88	C	1.371939	-0.460853	0.076725
C89	C	1.392368	-0.497094	0.000105
C90	C	1.329281	-0.499287	-0.076540
C91	C	1.245768	-0.465237	-0.076559
H92	H	1.273305	-0.399974	0.133430
H93	H	1.418640	-0.459230	0.133463
H94	H	1.454189	-0.522300	0.000119
H95	H	1.344402	-0.526116	-0.133264
H96	H	1.199067	-0.466860	-0.133297
C97	C	0.427902	-0.016094	0.082031
C98	C	0.363751	0.008237	0.149383
C99	C	0.339057	-0.020308	0.231015
C100	C	0.378514	-0.073183	0.245295
C101	C	0.442669	-0.097517	0.177941
C102	C	0.467363	-0.068972	0.096309
H103	H	0.334539	0.047381	0.138813
H104	H	0.291565	-0.002294	0.280874
H105	H	0.360234	-0.094314	0.305724
H106	H	0.471881	-0.136661	0.188511
H107	H	0.514855	-0.086986	0.046450
H108	H	0.577944	-0.007086	0.060468
C109	C	0.832371	-0.167153	0.000045
C110	C	0.810782	-0.200217	-0.076602
C111	C	0.726297	-0.221608	-0.076636
C112	C	0.663402	-0.209935	-0.000024
C113	C	0.684990	-0.176869	0.076629
C114	C	0.769474	-0.155478	0.076664
H115	H	0.857342	-0.208860	-0.133320
H116	H	0.710317	-0.246085	-0.133380
H117	H	0.600861	-0.225769	-0.000049
H118	H	0.638429	-0.168226	0.133348
H119	H	0.785455	-0.131001	0.133408
C120	C	1.222670	-0.580253	0.000035
C121	C	1.243036	-0.616507	0.076656
C122	C	1.326529	-0.650575	0.076653
C123	C	1.389656	-0.648390	0.000030
C124	C	1.369292	-0.612135	-0.076596
C125	C	1.285799	-0.578066	-0.076593
H126	H	1.196304	-0.618126	0.133382
H127	H	1.341604	-0.677414	0.133377
H128	H	1.451463	-0.673610	0.000028
H129	H	1.416024	-0.610516	-0.133322
H130	H	1.270724	-0.551228	-0.133317
H131	H	0.545395	0.131906	0.089710
H132	H	0.433276	-0.008581	-0.059692
H133	H	0.559222	0.074958	-0.146929
H134	H	1.132984	-0.091010	0.000102
H135	H	1.022054	-0.014014	0.575598
C136	C	0.749288	-0.544560	-0.000011
C137	C	0.686396	-0.532882	0.076604
C138	C	0.601911	-0.554271	0.076580
C139	C	0.580316	-0.587339	-0.000059
C140	C	0.643209	-0.599019	-0.076680
C141	C	0.727695	-0.577630	-0.076656
H142	H	0.702381	-0.508401	0.133341
H143	H	0.555353	-0.545625	0.133299
H144	H	0.517774	-0.603173	-0.000077
H145	H	0.627224	-0.623500	-0.133418
H146	H	0.774252	-0.586276	-0.133376
H147	H	1.090060	0.114429	0.575080
H148	H	0.909157	0.004845	0.577257
C149	C	0.831265	0.097011	0.414640
C150	C	0.760663	0.089758	0.481025
C151	C	0.673038	0.080908	0.446960
C152	C	0.656015	0.079311	0.346510
C153	C	0.726619	0.086564	0.280118
C154	C	0.814244	0.095414	0.314183
H155	H	0.773262	0.090940	0.555391
H156	H	0.620772	0.075538	0.496109
H157	H	0.591150	0.072759	0.321293
H158	H	0.714020	0.085382	0.205753
H159	H	0.866510	0.100784	0.265035
C160	C	0.390004	0.145476	0.084287
C161	C	0.328288	0.163414	0.009584
C162	C	0.284696	0.216053	0.010340
C163	C	0.302821	0.250755	0.085800
C164	C	0.364540	0.232818	0.160509
C165	C	0.408131	0.180178	0.159752
H166	H	0.314868	0.137725	-0.046281
H167	H	0.239008	0.229331	-0.044965
H168	H	0.270552	0.289722	0.086360
H169	H	0.377959	0.258506	0.216373
H170	H	0.453820	0.166900	0.215057
H171	H	1.128375	0.049759	0.575992
C172	C	1.096227	0.126558	0.413435
C173	C	1.034209	0.156931	0.351217
C174	C	1.054984	0.206324	0.316406
C175	C	1.137776	0.225343	0.343814
C176	C	1.199799	0.194968	0.406036
C177	C	1.179024	0.145576	0.440847
H178	H	0.972917	0.142853	0.330925
H179	H	1.009070	0.228809	0.270345
H180	H	1.153154	0.261906	0.318045
H181	H	1.261091	0.209047	0.426328
H182	H	1.224938	0.123091	0.486908
H183	H	0.775499	-0.296285	-0.000003
H184	H	1.122164	-0.706111	0.000044
C185	C	0.587287	-0.014464	-0.081678
C186	C	0.636036	0.011712	-0.151269
C187	C	0.674062	-0.016156	-0.233010
C188	C	0.663338	-0.070201	-0.245160
C189	C	0.614587	-0.096380	-0.175567
C190	C	0.576561	-0.068512	-0.093826
H191	H	0.643977	0.051722	-0.142276
H192	H	0.710151	0.003224	-0.284527
H193	H	0.691487	-0.090830	-0.305669
H194	H	0.606646	-0.136390	-0.184559
H195	H	0.540472	-0.087892	-0.042308
H196	H	0.855933	-0.070121	0.000071
C197	C	0.409592	0.066051	-0.169370
C198	C	0.366289	0.019502	-0.162923
C199	C	0.341906	-0.006186	-0.248007
C200	C	0.360827	0.014673	-0.339537
C201	C	0.404132	0.061224	-0.345987
C202	C	0.428515	0.086913	-0.260903
H203	H	0.352281	0.004058	-0.095164
H204	H	0.309848	-0.040647	-0.243232
H205	H	0.342777	-0.004343	-0.402521
H206	H	0.418140	0.076668	-0.413747
H207	H	0.460573	0.121373	-0.265679
C208	C	0.389725	0.144154	-0.089480
C209	C	0.330852	0.159753	-0.167858
C210	C	0.286598	0.212167	-0.173060
C211	C	0.301219	0.248981	-0.099883
C212	C	0.360095	0.233382	-0.021500
C213	C	0.404349	0.180969	-0.016298
H214	H	0.320026	0.132501	-0.222032
H215	H	0.243014	0.223714	-0.231085
H216	H	0.268460	0.287781	-0.103734
H217	H	0.370920	0.260635	0.032674
H218	H	0.447933	0.169421	0.041727
C219	C	0.830838	0.096980	0.584990
C220	C	0.777847	0.136252	0.640090
C221	C	0.689962	0.127497	0.673553
C222	C	0.655068	0.079471	0.651915
C223	C	0.708059	0.040196	0.596812
C224	C	0.795944	0.048950	0.563350
H225	H	0.803677	0.171808	0.656110
H226	H	0.650734	0.156572	0.714344
H227	H	0.590010	0.072990	0.676686
H228	H	0.682229	0.004640	0.580793
H229	H	0.835172	0.019876	0.522559
C230	C	0.548992	0.146260	-0.088478
C231	C	0.601949	0.166698	-0.015306
C232	C	0.620342	0.219893	-0.019558
C233	C	0.585777	0.252649	-0.096982
C234	C	0.532816	0.232212	-0.170160
C235	C	0.514424	0.179017	-0.165907
H236	H	0.627539	0.142449	0.042013
H237	H	0.659547	0.235021	0.034613
H238	H	0.599392	0.292027	-0.100130
H239	H	0.507226	0.256461	-0.227478
H240	H	0.475219	0.163888	-0.220078
C241	C	0.933052	0.156278	0.586371
C242	C	1.007543	0.161750	0.648773
C243	C	1.021888	0.212308	0.683585
C244	C	0.961742	0.257393	0.655994
C245	C	0.887246	0.251922	0.593588
C246	C	0.872901	0.201364	0.558777
H247	H	1.052072	0.128375	0.669201
H248	H	1.077036	0.216358	0.729782
H249	H	0.972361	0.294819	0.681763
H250	H	0.842717	0.285298	0.573161
H251	H	0.817753	0.197314	0.512580
H252	H	0.843493	-0.776688	0.000019
H253	H	0.845100	-0.685230	0.000005
H254	H	0.413266	0.075558	0.147396
H255	H	0.773883	-0.387743	-0.000008
C256	C	0.933384	0.156701	0.415441
C257	C	1.014573	0.178134	0.440712
C258	C	1.029076	0.228971	0.407445
C259	C	0.962389	0.258376	0.348907
C260	C	0.881194	0.236944	0.323633
C261	C	0.866691	0.186106	0.356900
H262	H	1.063943	0.156366	0.484049
H263	H	1.089182	0.244836	0.426156
H264	H	0.973125	0.296009	0.324281
H265	H	0.831824	0.258711	0.280296
H266	H	0.806585	0.170241	0.338190
C267	C	1.033367	-0.025878	0.413694
C268	C	1.104250	-0.014828	0.350454
C269	C	1.168292	-0.056480	0.315744
C270	C	1.161451	-0.109181	0.344274
C271	C	1.090565	-0.120233	0.407517
C272	C	1.026524	-0.078582	0.442227
H273	H	1.109317	0.024187	0.329332
H274	H	1.220766	-0.048298	0.268927
H275	H	1.208859	-0.140015	0.318579
H276	H	1.085499	-0.159249	0.428640
H277	H	0.974049	-0.086763	0.489045
H278	H	1.202598	-0.479938	0.000051
H279	H	1.128393	0.049109	0.423790
H280	H	0.905175	0.007416	0.424030
