data_functionalizedCrystal
_audit_creation_method	'MofGen! by Chris Wilmer'
_symmetry_space_group_name_H-M	'P1'
_symmetry_Int_Tables_number	1
_symmetry_cell_setting	triclinic
loop_
_symmetry_equiv_pos_as_xyz
  x,y,z
_cell_length_a	11.792241
_cell_length_b	10.489741
_cell_length_c	10.268362
_cell_angle_alpha	89.995004
_cell_angle_beta	89.999626
_cell_angle_gamma	84.366295
loop_
_atom_site_label
_atom_site_type_symbol
_atom_site_fract_x
_atom_site_fract_y
_atom_site_fract_z
O1	O	1.507380	0.174833	-0.108173
O2	O	1.177088	0.192851	-0.108203
O3	O	1.349750	-0.001782	-0.108180
O4	O	1.334719	0.369465	-0.108197
O5	O	1.349735	-0.001790	0.108421
O6	O	1.177073	0.192843	0.108397
O7	O	1.507365	0.174825	0.108428
Cu8	Cu	1.342218	0.183833	0.128190
Cu9	Cu	1.342236	0.183843	-0.127965
O10	O	1.334703	0.369457	0.108404
C11	C	1.134786	0.191715	0.000093
C12	C	1.008764	0.188327	0.000082
C13	C	1.348607	-0.049314	0.000120
C14	C	1.345210	-0.190931	0.000117
C15	C	0.778035	0.182098	0.000120
C16	C	0.906429	0.185559	0.000099
C17	C	1.235351	-0.258697	0.000098
C18	C	1.287240	-0.351001	0.106898
C19	C	1.287281	-0.350967	-0.106654
C20	C	1.397145	-0.281370	0.107005
C21	C	1.397171	-0.281327	-0.106642
C22	C	1.449140	-0.373603	0.000184
C23	C	1.549667	0.175960	0.000128
C24	C	1.675690	0.179348	0.000131
C25	C	1.335846	0.416989	0.000102
C26	C	1.339243	0.558607	0.000096
N27	N	1.342213	0.183825	0.308356
N28	N	1.342249	0.183840	-0.308131
C29	C	1.342230	0.183840	0.574026
C30	C	1.342217	0.183836	0.426188
H31	H	1.240749	-0.381857	0.197181
H32	H	1.240789	-0.381769	-0.196954
H33	H	1.443582	-0.250699	0.197398
C34	C	1.113332	-0.191195	0.000224
C35	C	1.031825	-0.213386	0.113357
C36	C	0.909811	-0.145881	0.113491
C37	C	0.869303	-0.056185	0.000490
C38	C	0.950810	-0.033990	-0.112652
C39	C	1.072825	-0.101495	-0.112785
H40	H	1.061811	-0.279788	0.197015
H41	H	0.849474	-0.162312	0.197247
H42	H	0.778980	-0.006215	0.000589
H43	H	0.920825	0.032412	-0.196309
H44	H	1.133162	-0.085064	-0.196541
H45	H	1.539547	-0.423335	0.000252
H46	H	1.443622	-0.250437	-0.196930
