data_functionalizedCrystal
_audit_creation_method	'MofGen! by Chris Wilmer'
_symmetry_space_group_name_H-M	'P1'
_symmetry_Int_Tables_number	1
_symmetry_cell_setting	triclinic
loop_
_symmetry_equiv_pos_as_xyz
  x,y,z
_cell_length_a	19.120904
_cell_length_b	19.121102
_cell_length_c	19.121063
_cell_angle_alpha	90.126902
_cell_angle_beta	85.258387
_cell_angle_gamma	89.911827
loop_
_atom_site_label
_atom_site_type_symbol
_atom_site_fract_x
_atom_site_fract_y
_atom_site_fract_z
Zn1	Zn	-0.456040	-1.039579	0.343506
Zn2	Zn	0.043960	-0.539579	0.843506
Zn3	Zn	-0.343386	-1.039493	0.456149
Zn4	Zn	0.156614	-0.539493	0.956149
Zn5	Zn	-0.333417	-0.927792	0.333518
Zn6	Zn	0.166583	-0.427792	0.833518
Zn7	Zn	-0.455570	-0.917325	0.455677
Zn8	Zn	0.044430	-0.417325	0.955677
O9	O	-0.397103	-0.981047	0.397212
O10	O	0.102897	-0.481047	0.897212
O11	O	-0.445465	-1.137479	0.362826
O12	O	0.054535	-0.637479	0.862826
O13	O	-0.243797	-1.029020	0.435899
O14	O	0.256203	-0.529020	0.935899
O15	O	-0.345708	-0.947038	0.236577
O16	O	0.154292	-0.447038	0.736577
O17	O	-0.362699	-1.137415	0.445584
O18	O	0.137301	-0.637415	0.945584
O19	O	-0.435798	-1.029167	0.243915
O20	O	0.064202	-0.529167	0.743915
O21	O	-0.236473	-0.946954	0.345802
O22	O	0.263527	-0.446954	0.845802
O23	O	-0.345252	-0.828493	0.345345
O24	O	0.154748	-0.328493	0.845345
O25	O	-0.553899	-0.929198	0.444780
O26	O	-0.053899	-0.429198	0.944780
O27	O	-0.434997	-0.820803	0.435094
O28	O	0.065003	-0.320803	0.935094
O29	O	-0.554244	-1.019018	0.362368
O30	O	-0.054244	-0.519018	0.862368
O31	O	-0.362243	-1.018870	0.554352
O32	O	0.137757	-0.518870	1.054352
O33	O	-0.444664	-0.929114	0.554005
O34	O	0.055336	-0.429114	1.054005
C35	C	-0.388992	-0.799261	0.389085
C36	C	0.111008	-0.299261	0.889085
C37	C	-0.385539	-0.721490	0.385626
C38	C	0.114461	-0.221490	0.885626
C39	C	-0.404501	-0.972865	0.579659
C40	C	0.095499	-0.472865	1.079659
C41	C	-0.407691	-0.969428	0.657714
C42	C	0.092309	-0.469428	1.157714
C43	C	-0.580263	-0.972950	0.404635
C44	C	-0.080263	-0.472950	0.904635
C45	C	-0.658315	-0.969500	0.407799
C46	C	-0.158315	-0.469500	0.907799
C47	C	-0.695165	-1.014640	0.366379
C48	C	-0.195165	-0.514640	0.866379
C49	C	-0.768503	-1.011390	0.369348
C50	C	-0.268503	-0.511390	0.869348
C51	C	-0.804990	-0.963001	0.413741
C52	C	-0.304990	-0.463001	0.913741
C53	C	-0.768135	-0.917856	0.455162
C54	C	-0.268135	-0.417856	0.955162
C55	C	-0.694798	-0.921103	0.452188
C56	C	-0.194798	-0.421103	0.952188
C57	C	-1.026410	-0.950853	0.424862
C58	C	-0.526410	-0.450853	0.924862
C59	C	-1.099752	-0.947610	0.427833
C60	C	-0.599752	-0.447610	0.927833
C61	C	-1.100115	-1.041143	0.342019
C62	C	-0.600115	-0.541143	0.842019
C63	C	-1.026777	-1.044390	0.339052
C64	C	-0.526777	-0.544390	0.839052
C65	C	-0.989928	-0.999242	0.380470
C66	C	-0.489928	-0.499242	0.880470
C67	C	-0.879953	-0.959679	0.416779
C68	C	-0.379953	-0.459679	0.916779
C69	C	-0.914966	-1.002561	0.377429
C70	C	-0.414966	-0.502561	0.877429
C71	C	-0.214655	-0.989156	0.389769
C72	C	0.285345	-0.489156	0.889769
C73	C	-0.136602	-0.992751	0.386414
C74	C	0.363398	-0.492751	0.886414
C75	C	-0.405246	-1.163544	0.405372
C76	C	0.094754	-0.663544	0.905372
C77	C	-0.408717	-1.241313	0.408849
C78	C	0.091283	-0.741313	0.908849
C79	C	-0.430575	-0.680968	0.430793
C80	C	0.069425	-0.180968	0.930793
C81	C	-0.427334	-0.607894	0.427534
C82	C	0.072666	-0.107894	0.927534
C83	C	-0.379053	-0.575344	0.379110
C84	C	0.120947	-0.075344	0.879110
C85	C	-0.334016	-0.615872	0.333937
C86	C	0.165984	-0.115872	0.833937
C87	C	-0.337261	-0.688944	0.337194
C88	C	0.162739	-0.188944	0.837194
C89	C	-0.366924	-0.354913	0.366933
C90	C	0.133076	0.145087	0.866933
C91	C	-0.363681	-0.281835	0.363681
C92	C	0.136319	0.218165	0.863681
C93	C	-0.457000	-0.273863	0.457277
C94	C	0.043000	0.226137	0.957277
C95	C	-0.460238	-0.346937	0.460532
C96	C	0.039762	0.153063	0.960532
C97	C	-0.415203	-0.387458	0.415357
C98	C	0.084797	0.112542	0.915357
C99	C	-0.375738	-0.500651	0.375778
C100	C	0.124262	-0.000651	0.875778
C101	C	-0.418523	-0.462149	0.418686
C102	C	0.081477	0.037851	0.918686
C103	C	-0.389693	-0.989280	0.214054
C104	C	0.110307	-0.489280	0.714054
C105	C	-0.386535	-0.992788	0.136003
C106	C	0.113465	-0.492788	0.636003
C107	C	-0.366317	-1.014577	0.694545
C108	C	0.133683	-0.514577	1.194545
C109	C	-0.369323	-1.011348	0.767887
C110	C	0.130677	-0.511348	1.267887
C111	C	-0.413699	-0.962966	0.804396
C112	C	0.086301	-0.462966	1.304396
C113	C	-0.455078	-0.917815	0.767560
C114	C	0.044922	-0.417815	1.267560
C115	C	-0.452076	-0.921048	0.694220
C116	C	0.047924	-0.421048	1.194220
C117	C	-0.424912	-0.950869	1.025828
C118	C	0.075088	-0.450869	1.525828
C119	C	-0.427909	-0.947638	1.099173
C120	C	0.072091	-0.447638	1.599173
C121	C	-0.342155	-1.041173	1.099494
C122	C	0.157845	-0.541173	1.599494
C123	C	-0.339154	-1.044399	1.026153
C124	C	0.160846	-0.544399	1.526153
C125	C	-0.380535	-0.999250	0.989323
C126	C	0.119465	-0.499250	1.489323
C127	C	-0.416770	-0.959663	0.879363
C128	C	0.083230	-0.459663	1.379363
C129	C	-0.377467	-1.002557	0.914358
C130	C	0.122533	-0.502557	1.414358
H131	H	-0.665463	-1.054046	0.330232
H132	H	-0.165463	-0.554046	0.830232
H133	H	-1.130125	-1.077899	0.308298
H134	H	-0.630125	-0.577899	0.808298
F135	F	-1.138582	-0.896103	0.475081
F136	F	-0.638582	-0.396103	0.975081
F137	F	-0.319081	-1.066069	0.655696
F138	F	0.180919	-0.566069	1.155696
F139	F	-0.298121	-1.089223	1.138696
F140	F	0.201879	-0.589223	1.638696
H141	H	-0.664795	-0.884338	0.485909
H142	H	-0.164795	-0.384338	0.985909
H143	H	-0.499552	-0.373433	0.499966
H144	H	0.000448	0.126567	0.999966
F145	F	-0.876132	-1.054052	0.330178
F146	F	-0.376132	-0.554052	0.830178
F147	F	-0.289329	-0.732070	0.289119
F148	F	0.210671	-0.232070	0.789119
H149	H	-0.464059	-0.908248	1.128897
H150	H	0.035941	-0.408248	1.628897
H151	H	-0.909669	-0.920284	0.452927
H152	H	-0.409669	-0.420284	0.952927
H153	H	-0.457836	-0.488655	0.458110
H154	H	0.042164	0.011345	0.958110
H155	H	-0.458605	-0.914106	0.995847
H156	H	0.041395	-0.414106	1.495847
F157	F	-0.312288	-0.247195	0.312143
F158	F	0.187712	0.252805	0.812143
F159	F	-0.481959	-0.715603	0.482337
F160	F	0.018041	-0.215603	0.982337
F161	F	-0.475267	-0.564770	0.475608
F162	F	0.024733	-0.064770	0.975608
H163	H	-0.335631	-1.048113	0.797871
H164	H	0.164369	-0.548113	1.297871
H165	H	-0.997075	-1.083794	0.302905
H166	H	-0.497075	-0.583794	0.802905
F167	F	-0.291931	-1.095901	0.987303
F168	F	0.208069	-0.595901	1.487303
H169	H	-0.452900	-0.920269	0.909097
H170	H	0.047100	-0.420269	1.409097
F171	F	-0.502311	-0.866327	0.806418
F172	F	-0.002311	-0.366327	1.306418
F173	F	-0.807720	-1.059458	0.325289
F174	F	-0.307720	-0.559458	0.825289
F175	F	-0.504925	-0.230732	0.505353
F176	F	-0.004925	0.269268	1.005353
H177	H	-0.996417	-0.914100	0.458598
H178	H	-0.496417	-0.414100	0.958598
H179	H	-0.797848	-0.878454	0.491305
H180	H	-0.297848	-0.378454	0.991305
H181	H	-0.330248	-0.387897	0.330153
H182	H	0.169752	0.112103	0.830153
H183	H	-0.336426	-0.474141	0.336353
H184	H	0.163574	0.025859	0.836353
F185	F	-0.282636	-0.581228	0.282396
F186	F	0.217364	-0.081228	0.782396
F187	F	-0.496114	-0.872995	0.655022
F188	F	0.003886	-0.372995	1.155022
F189	F	-0.330243	-1.054050	0.875502
F190	F	0.169757	-0.554050	1.375502
