data_functionalizedCrystal
_audit_creation_method	'MofGen! by Chris Wilmer'
_symmetry_space_group_name_H-M	'P1'
_symmetry_Int_Tables_number	1
_symmetry_cell_setting	triclinic
loop_
_symmetry_equiv_pos_as_xyz
  x,y,z
_cell_length_a	14.044191
_cell_length_b	12.503572
_cell_length_c	11.792241
_cell_angle_alpha	93.547243
_cell_angle_beta	91.307404
_cell_angle_gamma	93.837835
loop_
_atom_site_label
_atom_site_type_symbol
_atom_site_fract_x
_atom_site_fract_y
_atom_site_fract_z
O1	O	1.264548	0.089269	-0.267796
O2	O	1.764548	0.589269	0.232204
O3	O	0.988528	0.089283	-0.257907
O4	O	1.488528	0.589283	0.242093
O5	O	1.133235	0.089268	-0.098311
O6	O	1.633235	0.589268	0.401689
O7	O	1.119840	0.089284	-0.427393
O8	O	1.619840	0.589284	0.072607
O9	O	1.122353	-0.089373	-0.110335
O10	O	1.622353	0.410627	0.389665
O11	O	0.977645	-0.089358	-0.269932
O12	O	1.477645	0.410642	0.230068
O13	O	1.253665	-0.089372	-0.279820
O14	O	1.753665	0.410628	0.220180
Cu15	Cu	1.114661	-0.105676	-0.275974
Cu16	Cu	1.614661	0.394324	0.224026
Cu17	Cu	1.127531	0.105587	-0.261754
Cu18	Cu	1.627531	0.605587	0.238246
O19	O	1.108957	-0.089357	-0.439417
O20	O	1.608957	0.410643	0.060583
C21	C	0.947750	-0.000036	-0.259594
C22	C	1.447750	0.499964	0.240406
C23	C	0.842458	-0.000031	-0.246692
C24	C	1.342458	0.499969	0.253308
C25	C	0.592520	-0.000039	-0.314609
C26	C	1.092520	0.499961	0.185391
C27	C	0.649679	-0.000041	-0.223123
C28	C	1.149679	0.499959	0.276877
C29	C	0.756951	-0.000036	-0.236240
C30	C	1.256951	0.499964	0.263760
C31	C	0.485238	-0.000044	-0.301494
C32	C	0.985238	0.499956	0.198506
N33	N	1.105616	-0.254268	-0.285976
N34	N	1.605616	0.245732	0.214024
C35	C	1.092310	-0.473382	-0.300698
C36	C	1.592310	0.026618	0.199302
C37	C	1.149887	-0.526715	-0.237025
C38	C	1.649887	-0.026715	0.262975
C39	C	1.142483	-0.648637	-0.245217
C40	C	1.642483	-0.148637	0.254783
C41	C	1.099713	-0.351448	-0.292508
C42	C	1.599713	0.148552	0.207492
C43	C	1.294443	-0.000051	-0.278133
C44	C	1.794443	0.499949	0.221867
C45	C	1.399735	-0.000049	-0.291035
C46	C	1.899735	0.499951	0.208965
C47	C	1.126953	-0.000052	-0.061953
C48	C	1.626953	0.499948	0.438047
C49	C	1.124434	-0.000051	0.064297
C50	C	1.624434	0.499949	0.564297
N51	N	1.136584	0.254178	-0.251744
N52	N	1.636584	0.754178	0.248256
C53	C	1.115240	-0.000035	-0.475775
C54	C	1.615240	0.499965	0.024225
C55	C	1.117759	-0.000029	-0.602024
C56	C	1.617759	0.499971	-0.102024
C57	C	1.119804	-0.000033	0.295446
C58	C	1.619804	0.499967	0.795446
C59	C	1.122376	-0.000043	0.166818
C60	C	1.622376	0.499957	0.666818
H61	H	0.618055	0.000030	-0.134942
H62	H	1.118055	0.500030	0.365058
C63	C	1.018192	-0.535385	-0.382622
C64	C	1.518192	-0.035385	0.117378
H65	H	0.983027	-0.485892	-0.421486
H66	H	1.483027	0.014108	0.078514
H67	H	1.049979	-0.579267	-0.436206
H68	H	1.549979	-0.079267	0.063794
H69	H	0.975825	-0.579246	-0.340698
H70	H	1.475825	-0.079246	0.159302
C71	C	0.635243	-0.000017	-0.433718
C72	C	1.135243	0.499983	0.066282
H73	H	0.702784	-0.000003	-0.427017
H74	H	1.202784	0.499997	0.072983
H75	H	0.610872	-0.062305	-0.478012
H76	H	1.110872	0.437695	0.021988
H77	H	0.618449	0.062294	-0.469599
H78	H	1.118449	0.562294	0.030401
C79	C	1.223996	-0.464711	-0.155076
C80	C	1.723996	0.035289	0.344924
H81	H	1.259145	-0.514209	-0.116200
H82	H	1.759145	-0.014209	0.383800
H83	H	1.266366	-0.420835	-0.196970
H84	H	1.766366	0.079165	0.303030
H85	H	1.192189	-0.420844	-0.101488
H86	H	1.692189	0.079156	0.398512
