data_functionalizedCrystal
_audit_creation_method	'MofGen! by Chris Wilmer'
_symmetry_space_group_name_H-M	'P1'
_symmetry_Int_Tables_number	1
_symmetry_cell_setting	triclinic
loop_
_symmetry_equiv_pos_as_xyz
  x,y,z
_cell_length_a	6.817900
_cell_length_b	12.200722
_cell_length_c	17.329378
_cell_angle_alpha	90.836677
_cell_angle_beta	103.025558
_cell_angle_gamma	107.140920
loop_
_atom_site_label
_atom_site_type_symbol
_atom_site_fract_x
_atom_site_fract_y
_atom_site_fract_z
V1	V	-4.026046	-0.135259	-0.245100
O2	O	-3.994533	0.030626	-0.240349
O3	O	-3.995880	-0.291400	-0.243506
O4	O	-3.968979	-0.122593	-0.351959
O5	O	-4.021620	-0.139350	-0.131145
V6	V	-4.508435	-0.116668	-0.231460
O7	O	-4.289794	-0.176040	-0.275021
O8	O	-4.694884	-0.075888	-0.201540
O9	O	-4.315394	0.039472	-0.233054
O10	O	-4.657345	-0.282553	-0.236212
O11	O	-4.630257	-0.112578	-0.345415
O12	O	-4.342295	-0.129335	-0.124601
C13	C	-3.845597	-0.329794	-0.239661
C14	C	-3.902162	-0.457373	-0.239071
C15	C	-3.948093	-0.560981	-0.238583
C16	C	-4.005735	-0.690961	-0.237976
C17	C	-3.811281	-0.114463	-0.378002
C18	C	-3.846027	-0.105139	-0.465361
C19	C	-3.913912	-0.204730	-0.517679
C20	C	-3.946566	-0.195968	-0.599762
C21	C	-3.911321	-0.087614	-0.629523
C22	C	-3.843436	0.011984	-0.577198
C23	C	-3.810796	0.003220	-0.495118
C24	C	-4.007304	-0.055953	-0.876789
C25	C	-4.039943	-0.047196	-0.958876
C26	C	-4.143076	-0.255149	-0.981434
C27	C	-4.110419	-0.263903	-0.899351
C28	C	-4.042548	-0.164305	-0.847033
C29	C	-3.944692	-0.078655	-0.713424
C30	C	-4.009192	-0.173266	-0.763134
C31	C	-4.129020	0.077861	-0.236897
C32	C	-4.051693	0.205439	-0.237493
C33	C	-4.163336	-0.137469	-0.098554
C34	C	-4.107828	-0.146787	-0.011195
H35	H	-3.942601	-0.292963	-0.493454
H36	H	-4.001851	-0.277065	-0.642357
C37	C	-4.149206	-0.383090	-0.866615
H38	H	-4.120029	-0.374044	-0.810237
H39	H	-4.292476	-0.427792	-0.887264
H40	H	-4.058998	-0.420957	-0.882137
C41	C	-3.804757	0.131171	-0.609933
H42	H	-3.759697	0.189227	-0.567016
H43	H	-3.698629	0.142366	-0.638930
H44	H	-3.932131	0.135456	-0.644037
H45	H	-3.915993	0.009568	-0.737666
H46	H	-4.198340	-0.336235	-1.024039
C47	C	-4.001338	0.071993	-0.991616
H48	H	-3.956307	0.130054	-0.948704
H49	H	-3.895219	0.083212	-1.020620
H50	H	-4.128743	0.076245	-1.025717
H51	H	-3.952041	0.025147	-0.834202
H52	H	-3.755521	0.084318	-0.452520
H53	H	-4.037897	-0.261487	-0.738899
