data_functionalizedCrystal
_audit_creation_method	'MofGen! by Chris Wilmer'
_symmetry_space_group_name_H-M	'P1'
_symmetry_Int_Tables_number	1
_symmetry_cell_setting	triclinic
loop_
_symmetry_equiv_pos_as_xyz
  x,y,z
_cell_length_a	27.440280
_cell_length_b	18.760492
_cell_length_c	18.760487
_cell_angle_alpha	90.032206
_cell_angle_beta	60.026495
_cell_angle_gamma	59.996671
loop_
_atom_site_label
_atom_site_type_symbol
_atom_site_fract_x
_atom_site_fract_y
_atom_site_fract_z
Zr1	Zr	0.533389	-0.093111	0.686788
O2	O	0.635051	-0.206995	0.572997
O3	O	0.431728	-0.058200	0.721658
O4	O	0.533389	-0.206905	0.721685
O5	O	0.533389	0.059013	0.572964
O6	O	0.533389	-0.206833	0.838988
O7	O	0.533389	-0.058290	0.572970
O8	O	0.351535	0.059174	0.838940
O9	O	0.715243	-0.206994	0.573012
O10	O	0.473542	-0.043256	0.824088
O11	O	0.473542	0.044232	0.736541
O12	O	0.593236	-0.130849	0.736573
O13	O	0.593236	-0.043361	0.649027
Zr14	Zr	0.533389	0.094089	0.873863
Zr15	Zr	0.533389	-0.092995	0.873873
Zr16	Zr	0.533389	0.093974	0.686779
Zr17	Zr	0.661287	-0.093108	0.686813
Zr18	Zr	0.405491	0.094087	0.873839
O19	O	0.635051	0.059179	0.838993
O20	O	0.635051	-0.206832	0.839007
O21	O	0.635051	0.059015	0.572983
O22	O	0.431727	0.207974	0.987655
O23	O	0.431727	-0.058036	0.987668
O24	O	0.431727	0.207810	0.721644
O25	O	0.533389	-0.058035	0.987688
O26	O	0.533389	0.207884	0.838967
O27	O	0.533389	0.207812	0.721664
O28	O	0.533389	0.059268	0.987682
O29	O	0.715243	-0.206902	0.721719
O30	O	0.351535	0.207881	0.838932
O31	O	0.351535	0.207972	0.987640
O32	O	0.351535	0.059265	0.987647
O33	O	0.715243	-0.058287	0.573004
O34	O	0.715243	-0.058195	0.721712
O35	O	0.473542	0.131828	0.824079
O36	O	0.473542	0.044340	0.911625
O37	O	0.593236	-0.043254	0.824110
O38	O	0.593236	0.044234	0.736564
C39	C	0.373409	0.000487	0.780296
C40	C	0.319113	0.000486	0.780285
C41	C	0.533389	0.000345	0.546312
C42	C	0.533389	0.000296	0.466889
C43	C	0.533389	0.234503	0.780314
C44	C	0.533389	0.313926	0.780310
C45	C	-0.017629	-0.045171	0.826048
C46	C	-0.068653	-0.045168	0.826056
O47	O	-0.095059	-0.083980	0.864948
N48	N	-0.094169	0.000498	0.780357
C49	C	-0.068664	0.046171	0.734655
O50	O	-0.095053	0.085015	0.695785
C51	C	-0.017645	0.046174	0.734652
C52	C	0.007874	0.000497	0.780347
C53	C	0.007889	-0.090843	0.871740
C54	C	0.058910	-0.090846	0.871731
C55	C	0.084413	-0.045178	0.826030
C56	C	0.058895	0.000494	0.780338
C57	C	0.007856	0.091852	0.688955
C58	C	0.058879	0.091851	0.688957
C59	C	0.084398	0.046175	0.734652
C60	C	0.135420	0.046159	0.734627
N61	N	0.160936	0.000493	0.780326
C62	C	0.135433	-0.045176	0.826027
C63	C	-0.175809	0.046165	0.734664
C64	C	-0.226824	0.046158	0.734661
C65	C	-0.226811	-0.045181	0.826064
C66	C	-0.175791	-0.045179	0.826062
C67	C	-0.150293	0.000499	0.780363
C68	C	0.242581	-0.045180	0.826003
C69	C	0.293609	-0.045183	0.825987
C70	C	0.293589	0.046160	0.734588
C71	C	0.242568	0.046159	0.734600
C72	C	0.217064	0.000487	0.780314
O73	O	0.161856	0.084954	0.695758
O74	O	0.161822	-0.084003	0.864899
C75	C	0.693370	0.000492	0.780356
C76	C	0.747665	0.000493	0.780366
C77	C	0.533389	-0.233525	0.780338
C78	C	0.533389	-0.312947	0.780342
C79	C	0.470908	0.695466	0.826023
C80	C	0.595870	0.604012	0.734656
C81	C	0.595871	0.529390	0.734648
C82	C	0.533389	0.537803	0.780328
C83	C	0.470907	0.620838	0.826018
C84	C	0.658352	0.446350	0.688966
C85	C	0.658356	0.371722	0.688956
C86	C	0.595874	0.380134	0.734633
C87	C	0.533389	0.463175	0.780323
C88	C	0.470907	0.471589	0.826004
C89	C	0.408421	0.554629	0.871690
C90	C	0.408424	0.629251	0.871694
C91	C	0.595870	0.305513	0.734629
C92	C	0.470906	0.396961	0.825999
C93	C	0.595870	-0.045082	0.085391
C94	C	0.470908	0.046367	0.176762
C95	C	0.470907	0.046292	0.251384
C96	C	0.533389	0.000529	0.243012
C97	C	0.595871	-0.045160	0.160018
C98	C	0.408426	0.091973	0.334383
C99	C	0.408422	0.091899	0.409011
C100	C	0.470904	0.046140	0.400640
C101	C	0.533389	0.000450	0.317640
C102	C	0.595871	-0.045314	0.309268
C103	C	0.658357	-0.090999	0.226268
C104	C	0.658354	-0.090920	0.151647
C105	C	0.470908	0.046060	0.475261
C106	C	0.595872	-0.045392	0.383895
C107	C	0.533389	0.000633	1.014340
C108	C	0.533389	0.000682	1.093762
C109	C	0.373408	0.000631	1.014310
C110	C	0.319112	0.000678	1.093722
C111	C	0.373408	0.234501	0.780284
C112	C	0.319112	0.313922	0.780269
C113	C	0.373408	0.234645	1.014298
C114	C	0.319112	0.314115	1.093706
C115	C	0.693370	-0.233666	0.546354
C116	C	0.747666	-0.313136	0.466946
C117	C	0.693370	0.000348	0.546342
C118	C	0.747666	0.000300	0.466930
C119	C	0.693370	-0.233522	0.780368
C120	C	0.747666	-0.312943	0.780383
C121	C	0.293614	-0.045031	1.085321
C122	C	0.242605	-0.045003	1.159930
C123	C	0.217090	0.000739	1.242939
C124	C	0.242593	0.046450	1.251338
C125	C	0.293605	0.046417	1.176730
C126	C	0.293614	0.396951	0.825956
C127	C	0.242605	0.471583	0.825939
C128	C	0.217090	0.463184	0.780240
C129	C	0.242593	0.380146	0.734548
C130	C	0.293606	0.305516	0.734560
C131	C	0.293614	0.305767	1.176703
C132	C	0.242604	0.380431	1.251322
C133	C	0.217090	0.463441	1.242943
C134	C	0.242593	0.471787	1.159937
C135	C	0.293605	0.397124	1.085319
C136	C	0.773170	-0.304789	0.383949
C137	C	0.824196	-0.379452	0.309330
C138	C	0.849713	-0.462463	0.317709
C139	C	0.824207	-0.470809	0.400715
C140	C	0.773185	-0.396146	0.475332
C141	C	0.773169	0.046002	0.475330
C142	C	0.824193	0.045954	0.400722
C143	C	0.849709	0.000208	0.317713
C144	C	0.824204	-0.045499	0.309314
C145	C	0.773184	-0.045455	0.383922
C146	C	0.773164	-0.304517	0.826090
C147	C	0.824174	-0.379134	0.826121
C148	C	0.849688	-0.462178	0.780438
C149	C	0.824185	-0.470603	0.734729
C150	C	0.773173	-0.395986	0.734704
H151	H	0.314386	-0.082381	0.863196
H152	H	0.752421	-0.082668	0.377069
C153	C	0.102352	0.036839	1.324904
C154	C	0.161010	0.000779	1.324945
H155	H	0.067729	0.036868	1.375531
H156	H	0.113906	0.003052	1.274266
H157	H	0.085634	0.095061	1.324900
H158	H	0.177731	-0.057445	1.324942
H159	H	0.149455	0.034566	1.375596
C160	C	0.267607	0.185313	1.231677
C161	C	0.321619	0.096679	1.185975
H162	H	0.284901	0.216345	1.237384
H163	H	0.233584	0.191863	1.287978
H164	H	0.247714	0.207845	1.200652
H165	H	0.341509	0.074146	1.217003
H166	H	0.355655	0.090125	1.129665
H167	H	0.844933	-0.372257	0.863342
H168	H	0.314388	-0.082291	1.017738
H169	H	0.752420	-0.402953	0.542910
C170	C	-0.180946	0.136436	0.644302
C171	C	-0.147773	0.096363	0.684412
H172	H	-0.163635	0.167420	0.613275
H173	H	-0.229103	0.175902	0.687538
H174	H	-0.172585	0.093157	0.604878
H175	H	-0.156138	0.139642	0.723841
H176	H	-0.099605	0.056893	0.641171
H177	H	0.752398	-0.236905	0.863291
C178	C	0.116232	0.108727	0.550115
C179	C	0.086912	0.142055	0.638717
H180	H	0.133542	0.139716	0.519099
H181	H	0.082192	0.115269	0.543590
H182	H	0.152856	0.048594	0.527565
H183	H	0.050285	0.202187	0.661269
H184	H	0.120955	0.135522	0.645247
C185	C	0.144021	0.619872	0.829999
C186	C	0.161012	0.545225	0.780239
H187	H	0.109396	0.670521	0.830005
H188	H	0.183826	0.619842	0.805534
H189	H	0.127306	0.619883	0.888210
H190	H	0.177731	0.545210	0.722026
H191	H	0.121199	0.545255	0.804702
H192	H	0.314382	0.403806	0.863170
C193	C	0.922781	-0.618870	0.730718
C194	C	0.905765	-0.544194	0.780466
H195	H	0.957399	-0.669499	0.730742
H196	H	0.939508	-0.618907	0.672505
H197	H	0.882977	-0.618854	0.755179
H198	H	0.945569	-0.544207	0.756001
H199	H	0.889041	-0.544157	0.838690
H200	H	0.221798	0.083340	0.697380
C201	C	0.798257	-0.571528	0.717768
C202	C	0.852239	-0.561892	0.684515
H203	H	0.815582	-0.627890	0.686769
H204	H	0.764235	-0.528310	0.711201
H205	H	0.778352	-0.564933	0.777886
H206	H	0.872141	-0.568480	0.624398
H207	H	0.886274	-0.605122	0.691074
C208	C	0.301912	0.230771	0.509954
C209	C	0.339740	0.142124	0.500239
H210	H	0.259513	0.261779	0.566278
H211	H	0.292972	0.237356	0.466713
H212	H	0.327593	0.253301	0.503474
H213	H	0.314060	0.119592	0.506713
H214	H	0.348677	0.135534	0.543493
C215	C	0.839903	-0.410421	0.172387
C216	C	0.852223	-0.370268	0.218095
H217	H	0.857209	-0.404753	0.116063
H218	H	0.791745	-0.383202	0.203388
H219	H	0.862412	-0.470544	0.166699
H220	H	0.829709	-0.310143	0.223789
H221	H	0.900390	-0.397484	0.187087
C222	C	-0.305035	0.086720	0.694071
C223	C	-0.254864	0.096356	0.684422
H224	H	-0.322342	0.117711	0.663052
H225	H	-0.341652	0.109327	0.754177
H226	H	-0.285131	0.026586	0.671512
H227	H	-0.274770	0.156490	0.706987
H228	H	-0.218241	0.073753	0.624303
C229	C	0.164360	0.453969	0.693999
C230	C	0.214528	0.370924	0.684340
H231	H	0.147025	0.448274	0.663015
H232	H	0.184271	0.484943	0.671417
H233	H	0.127755	0.485004	0.754118
H234	H	0.251136	0.339891	0.624221
H235	H	0.194617	0.339937	0.706918
H236	H	-0.012913	0.129048	0.651746
H237	H	0.709236	0.304113	0.651755
H238	H	0.221846	0.539188	0.863150
H239	H	0.314359	0.403934	1.017742
C240	C	0.764866	0.391349	0.550152
C241	C	0.727028	0.437107	0.638759
H242	H	0.807266	0.385642	0.519157
H243	H	0.739195	0.422344	0.527586
H244	H	0.773808	0.335021	0.543621
H245	H	0.718081	0.493437	0.645290
H246	H	0.752705	0.406113	0.661331
H247	H	0.752418	-0.402860	0.697479
C248	C	0.778315	-0.222007	0.286108
C249	C	0.745139	-0.213549	0.374722
H250	H	0.761018	-0.165680	0.280409
H251	H	0.769950	-0.253022	0.258898
H252	H	0.826479	-0.253045	0.258925
H253	H	0.696975	-0.182517	0.401905
H254	H	0.753499	-0.182521	0.401943
C255	C	0.702389	-0.062070	-0.015362
C256	C	0.664554	-0.095305	-0.005835
H257	H	0.744790	-0.093077	-0.071683
H258	H	0.711325	-0.068668	0.027883
H259	H	0.676714	-0.001929	-0.008759
H260	H	0.690228	-0.155446	-0.012432
H261	H	0.655621	-0.088716	-0.049093
C262	C	0.364398	0.184923	0.576214
C263	C	0.402232	0.096274	0.566491
H264	H	0.322000	0.215925	0.632540
H265	H	0.355455	0.191511	0.532976
H266	H	0.390077	0.207457	0.569735
H267	H	0.376555	0.073738	0.572964
H268	H	0.411173	0.089682	0.609741
H269	H	0.221812	0.083692	1.318934
H270	H	0.844951	0.083177	0.407577
C271	C	0.247740	-0.135475	0.916341
C272	C	0.214557	-0.095389	0.876247
H273	H	0.230443	-0.166478	0.947351
H274	H	0.239380	-0.092210	0.955770
H275	H	0.295903	-0.174936	0.873090
H276	H	0.166394	-0.055923	0.919499
H277	H	0.222911	-0.138659	0.836815
H278	H	0.314360	0.237913	0.697359
H279	H	0.221812	0.539384	1.153127
C280	C	0.364395	0.796355	0.842953
C281	C	0.402226	0.786739	0.876239
H282	H	0.321996	0.852706	0.873952
H283	H	0.355456	0.753120	0.849493
H284	H	0.390076	0.789774	0.782840
H285	H	0.376548	0.793314	0.936351
H286	H	0.411163	0.829987	0.869706
H287	H	0.752397	0.083259	0.542914
H288	H	0.844989	-0.538405	0.407527
C289	C	0.053775	-0.181117	0.962087
C290	C	0.086948	-0.141044	0.921972
H291	H	0.071079	-0.212102	0.993111
H292	H	0.062138	-0.220584	0.918853
H293	H	0.005612	-0.137839	1.001513
H294	H	0.135111	-0.184324	0.882540
H295	H	0.078591	-0.101574	0.965211
C296	C	0.719389	0.222615	0.644327
C297	C	0.664548	0.214240	0.684417
H298	H	0.761789	0.166264	0.613323
H299	H	0.716787	0.253642	0.687573
H300	H	0.716789	0.253607	0.604886
H301	H	0.667145	0.183253	0.723863
H302	H	0.667151	0.183199	0.641166
C303	C	0.881134	-0.594283	0.235679
C304	C	0.905791	-0.544529	0.235683
H305	H	0.915755	-0.644946	0.185039
H306	H	0.841332	-0.560518	0.235681
H307	H	0.869604	-0.611138	0.286308
H308	H	0.917316	-0.527668	0.185056
H309	H	0.945605	-0.578300	0.235672
C310	C	0.268589	0.325505	1.352169
C311	C	0.214581	0.371231	1.342550
H312	H	0.251291	0.319818	1.408484
H313	H	0.288482	0.356511	1.345641
H314	H	0.302616	0.269170	1.308911
H315	H	0.180557	0.427570	1.385804
H316	H	0.194678	0.340226	1.349087
C317	C	-0.091132	-0.082870	0.985718
C318	C	-0.020137	-0.141049	0.921981
H319	H	-0.108426	-0.113873	1.016736
H320	H	-0.113631	-0.055686	0.958508
H321	H	-0.099483	-0.039604	1.025144
H322	H	-0.011786	-0.184312	0.882551
H323	H	0.002370	-0.168247	0.949192
C324	C	-0.180917	-0.135459	0.916411
C325	C	-0.147751	-0.095377	0.876300
H326	H	-0.163610	-0.166444	0.947433
H327	H	-0.172552	-0.174925	0.873175
H328	H	-0.229081	-0.092184	0.955839
H329	H	-0.099587	-0.138653	0.836867
H330	H	-0.156110	-0.055907	0.919541
C331	C	0.144019	0.520639	1.399584
C332	C	0.161010	0.545507	1.324970
H333	H	0.109394	0.571301	1.450225
H334	H	0.183824	0.486887	1.399579
H335	H	0.127306	0.486873	1.399558
H336	H	0.177729	0.579267	1.324993
H337	H	0.121198	0.579273	1.324976
H338	H	0.314380	0.238183	1.183542
H339	H	0.844987	-0.082743	0.241718
C340	C	0.288463	0.136446	0.644240
C341	C	0.321630	0.096355	0.684352
H342	H	0.305777	0.167433	0.613225
H343	H	0.240305	0.175914	0.687474
H344	H	0.296823	0.093177	0.604805
H345	H	0.313265	0.139625	0.723792
H346	H	0.369798	0.056885	0.641112
C347	C	0.347382	0.494856	0.916315
C348	C	0.402223	0.406212	0.876216
H349	H	0.304982	0.500564	0.947320
H350	H	0.349982	0.522035	0.873075
H351	H	0.349986	0.522081	0.955757
H352	H	0.399622	0.378988	0.836769
H353	H	0.399622	0.379022	0.919461
H354	H	0.221846	-0.082226	1.153074
C355	C	0.301912	0.730193	1.010521
C356	C	0.339742	0.720523	0.921919
H357	H	0.259509	0.786540	1.041527
H358	H	0.327586	0.723655	1.033084
H359	H	0.292976	0.686948	1.017040
H360	H	0.348683	0.763765	0.915400
H361	H	0.314062	0.727070	0.899350
C362	C	0.702380	0.549014	0.595839
C363	C	0.664547	0.594764	0.684447
H364	H	0.744782	0.543302	0.564842
H365	H	0.676707	0.580016	0.573278
H366	H	0.711319	0.492688	0.589305
H367	H	0.655604	0.651093	0.690982
H368	H	0.690226	0.563762	0.707014
C369	C	0.702386	-0.062420	0.329085
C370	C	0.664556	-0.095699	0.374685
H371	H	0.744791	-0.093481	0.323395
H372	H	0.676714	-0.002312	0.360160
H373	H	0.711321	-0.068911	0.272768
H374	H	0.655618	-0.089202	0.431005
H375	H	0.690235	-0.155821	0.343611
C376	C	0.764870	-0.108026	0.171475
C377	C	0.727037	-0.141304	0.217069
H378	H	0.807270	-0.139086	0.165795
H379	H	0.739196	-0.047918	0.202547
H380	H	0.773812	-0.114522	0.115153
H381	H	0.718091	-0.134802	0.273393
H382	H	0.752717	-0.201427	0.185997
H383	H	0.357549	0.561470	0.908888
H384	H	0.891252	0.000180	0.256969
H385	H	0.709226	-0.128113	0.084065
C386	C	0.347388	0.136756	0.274572
C387	C	0.402230	0.096670	0.185966
H388	H	0.304988	0.167808	0.280251
H389	H	0.349989	0.176163	0.301840
H390	H	0.349990	0.093477	0.301713
H391	H	0.399632	0.139949	0.158826
H392	H	0.399628	0.057259	0.158686
H393	H	-0.247586	-0.082365	0.863278
H394	H	0.357556	0.129231	0.341191
