data_functionalizedCrystal
_audit_creation_method	'MofGen! by Chris Wilmer'
_symmetry_space_group_name_H-M	'P1'
_symmetry_Int_Tables_number	1
_symmetry_cell_setting	triclinic
loop_
_symmetry_equiv_pos_as_xyz
  x,y,z
_cell_length_a	16.120484
_cell_length_b	17.077404
_cell_length_c	17.077396
_cell_angle_alpha	90.021457
_cell_angle_beta	92.868746
_cell_angle_gamma	87.075241
loop_
_atom_site_label
_atom_site_type_symbol
_atom_site_fract_x
_atom_site_fract_y
_atom_site_fract_z
Zn1	Zn	-0.331927	-1.184193	-0.459715
Zn2	Zn	0.168073	-0.684193	0.040285
Zn3	Zn	-0.471351	-1.177438	-0.335098
Zn4	Zn	0.028649	-0.677438	0.164902
Zn5	Zn	-0.331954	-1.052924	-0.328459
Zn6	Zn	0.168046	-0.552924	0.171541
Zn7	Zn	-0.471299	-1.046233	-0.466315
Zn8	Zn	0.028701	-0.546233	0.033685
O9	O	-0.401633	-1.115197	-0.397397
O10	O	0.098367	-0.615197	0.102603
O11	O	-0.350433	-1.293143	-0.443200
O12	O	0.149567	-0.793143	0.056800
O13	O	-0.452892	-1.160894	-0.224372
O14	O	0.047108	-0.660894	0.275628
O15	O	-0.215284	-1.075964	-0.340330
O16	O	0.284716	-0.575964	0.159670
O17	O	-0.452867	-1.288180	-0.351645
O18	O	0.047133	-0.788180	0.148355
O19	O	-0.215265	-1.172407	-0.436763
O20	O	0.284735	-0.672407	0.063237
O21	O	-0.350478	-1.069414	-0.219495
O22	O	0.149522	-0.569414	0.280505
O23	O	-0.350427	-0.942190	-0.346730
O24	O	0.149573	-0.442190	0.153270
O25	O	-0.452778	-1.064561	-0.575285
O26	O	0.047222	-0.564561	-0.075285
O27	O	-0.452804	-0.937274	-0.448012
O28	O	0.047196	-0.437274	0.051988
O29	O	-0.350382	-1.165919	-0.570436
O30	O	0.149618	-0.665919	-0.070436
O31	O	-0.588010	-1.154406	-0.358045
O32	O	-0.088010	-0.654406	0.141955
O33	O	-0.587971	-1.058010	-0.454449
O34	O	-0.087971	-0.558010	0.045551
C35	C	-0.401613	-0.911250	-0.397367
C36	C	0.098387	-0.411250	0.102633
C37	C	-0.401625	-0.824000	-0.397374
C38	C	0.098375	-0.324000	0.102626
C39	C	-0.455012	-0.780467	-0.450033
C40	C	0.044988	-0.280467	0.049967
C41	C	-0.455012	-0.698486	-0.450043
C42	C	0.044988	-0.198486	0.049957
C43	C	-0.401629	-0.660040	-0.397389
C44	C	0.098371	-0.160040	0.102611
C45	C	-0.348236	-0.703579	-0.344727
C46	C	0.151764	-0.203579	0.155273
C47	C	-0.348232	-0.785558	-0.344722
C48	C	0.151768	-0.285558	0.155278
C49	C	-0.348249	-0.532708	-0.344741
C50	C	0.151751	-0.032708	0.155259
C51	C	-0.348253	-0.450723	-0.344745
C52	C	0.151747	0.049277	0.155255
C53	C	-0.455029	-0.445636	-0.450062
C54	C	0.044971	0.054364	0.049938
C55	C	-0.455025	-0.527615	-0.450057
C56	C	0.044975	-0.027615	0.049943
C57	C	-0.401633	-0.571149	-0.397394
C58	C	0.098367	-0.071149	0.102606
C59	C	-0.618241	-1.104770	-0.407701
C60	C	-0.118241	-0.604770	0.092299
C61	C	-0.710906	-1.100381	-0.412135
C62	C	-0.210906	-0.600381	0.087865
C63	C	-0.880568	-1.092373	-0.420248
C64	C	-0.380568	-0.592373	0.079752
C65	C	-0.921857	-1.138161	-0.374559
C66	C	-0.421857	-0.638161	0.125441
C67	C	-1.016262	-1.133705	-0.379072
C68	C	-0.516262	-0.633705	0.120928
C69	C	-0.786154	-1.096828	-0.415735
C70	C	-0.286154	-0.596828	0.084265
C71	C	-0.184179	-1.125686	-0.387069
C72	C	0.315821	-0.625686	0.112931
C73	C	-0.091513	-1.130155	-0.382669
C74	C	0.408487	-0.630155	0.117331
C75	C	-0.401571	-1.115247	-0.602138
C76	C	0.098429	-0.615247	-0.102138
C77	C	-0.401545	-1.115269	-0.689387
C78	C	0.098455	-0.615269	-0.189387
C79	C	-0.401647	-0.319940	-0.397418
C80	C	0.098353	0.180060	0.102582
C81	C	-0.401640	-0.407190	-0.397405
C82	C	0.098360	0.092810	0.102595
C83	C	-0.348223	-1.168048	-0.727853
C84	C	0.151777	-0.668048	-0.227853
C85	C	-0.348195	-1.168059	-0.809832
C86	C	0.151805	-0.668059	-0.309832
C87	C	-0.401494	-1.115293	-0.853344
C88	C	0.098506	-0.615293	-0.353344
C89	C	-0.454819	-1.062508	-0.814872
C90	C	0.045181	-0.562508	-0.314872
C91	C	-0.454841	-1.062494	-0.732894
C92	C	0.045159	-0.562494	-0.232894
C93	C	-0.454768	-1.062542	-0.985740
C94	C	0.045232	-0.562542	-0.485740
C95	C	-0.454747	-1.062557	-1.067723
C96	C	0.045253	-0.562557	-0.567723
C97	C	-0.348122	-1.168107	-1.062678
C98	C	0.151878	-0.668107	-0.562678
C99	C	-0.348145	-1.168093	-0.980700
C100	C	0.151855	-0.668093	-0.480700
C101	C	-0.401471	-1.115309	-0.942234
C102	C	0.098529	-0.615309	-0.442234
C103	C	-0.401634	-1.115195	-0.193449
C104	C	0.098366	-0.615195	0.306551
C105	C	-0.401425	-1.115336	-0.106190
C106	C	0.098575	-0.615336	0.393810
H107	H	-0.498499	-0.558916	-0.492928
H108	H	0.001501	-0.058916	0.007072
Cl109	Cl	-0.521743	-0.996214	-1.122423
Cl110	Cl	-0.021743	-0.496214	-0.622423
Cl111	Cl	-0.522130	-0.828790	-0.516228
Cl112	Cl	-0.022130	-0.328790	-0.016228
Cl113	Cl	-0.281196	-1.234447	-0.858188
Cl114	Cl	0.218804	-0.734447	-0.358188
Cl115	Cl	-0.522130	-0.643762	-0.516247
Cl116	Cl	-0.022130	-0.143762	-0.016247
H117	H	-0.498500	-0.410188	-0.492945
H118	H	0.001500	0.089812	0.007055
Cl119	Cl	-0.281126	-0.587435	-0.278535
Cl120	Cl	0.218874	-0.087435	0.221465
H121	H	-0.916118	-1.049830	-0.462749
H122	H	-0.416118	-0.549830	0.037251
H123	H	-0.498253	-1.019508	-0.701576
H124	H	0.001747	-0.519508	-0.201576
Cl125	Cl	-0.281219	-1.234390	-0.673161
Cl126	Cl	0.218781	-0.734390	-0.173161
Cl127	Cl	-0.866970	-1.203847	-0.308930
Cl128	Cl	-0.366970	-0.703847	0.191070
H129	H	-0.304774	-0.419424	-0.301879
H130	H	0.195226	0.080576	0.198121
Cl131	Cl	-0.521806	-0.996183	-0.937384
Cl132	Cl	-0.021806	-0.496183	-0.437384
Cl133	Cl	-0.281145	-1.234432	-0.926001
Cl134	Cl	0.218855	-0.734432	-0.426001
H135	H	-0.498212	-1.019543	-0.850306
H136	H	0.001788	-0.519543	-0.350306
Cl137	Cl	-0.281120	-0.655247	-0.278538
Cl138	Cl	0.218880	-0.155247	0.221462
Cl139	Cl	-0.281112	-0.840286	-0.278521
Cl140	Cl	0.218888	-0.340286	0.221479
Cl141	Cl	-0.281085	-1.234465	-1.111035
Cl142	Cl	0.218915	-0.734465	-0.611035
