data_functionalizedCrystal
_audit_creation_method	'MofGen! by Chris Wilmer'
_symmetry_space_group_name_H-M	'P1'
_symmetry_Int_Tables_number	1
_symmetry_cell_setting	triclinic
loop_
_symmetry_equiv_pos_as_xyz
  x,y,z
_cell_length_a	14.908571
_cell_length_b	11.169416
_cell_length_c	11.169409
_cell_angle_alpha	89.968635
_cell_angle_beta	86.683711
_cell_angle_gamma	86.706602
loop_
_atom_site_label
_atom_site_type_symbol
_atom_site_fract_x
_atom_site_fract_y
_atom_site_fract_z
Zn1	Zn	1.379334	-0.583746	-0.784361
Zn2	Zn	1.379251	-0.784480	-0.583675
Zn3	Zn	1.228458	-0.572217	-0.572122
Zn4	Zn	1.228464	-0.772787	-0.772753
O5	O	1.303877	-0.678308	-0.678228
O6	O	1.505570	-0.620092	-0.767433
O7	O	1.359211	-0.756391	-0.414190
O8	O	1.248504	-0.405799	-0.600298
O9	O	1.505509	-0.767570	-0.619990
O10	O	1.359352	-0.414269	-0.756230
O11	O	1.248424	-0.600443	-0.405701
O12	O	1.102212	-0.589105	-0.589042
O13	O	1.248514	-0.747642	-0.942245
O14	O	1.102216	-0.736463	-0.736445
O15	O	1.359358	-0.608754	-0.950774
O16	O	1.359217	-0.950876	-0.608734
O17	O	1.248434	-0.942286	-0.747648
C18	C	1.303842	-0.990130	-0.678213
C19	C	1.303909	-1.123535	-0.678253
C20	C	1.069479	-0.660265	-0.660231
C21	C	0.969203	-0.652576	-0.652561
C22	C	0.780827	-0.791808	-0.791432
C23	C	0.686609	-0.784587	-0.784229
C24	C	0.686547	-0.630906	-0.630959
C25	C	0.780765	-0.638128	-0.638162
C26	C	0.827902	-0.718583	-0.718400
C27	C	0.922122	-0.725809	-0.725596
C28	C	0.922058	-0.572124	-0.572333
C29	C	0.827840	-0.564902	-0.565130
C30	C	1.539189	-0.696421	-0.696295
C31	C	1.639465	-0.704140	-0.703994
C32	C	1.303946	-0.678180	-0.991276
C33	C	1.303975	-0.678125	-1.124678
C34	C	1.303936	-0.365270	-0.678270
C35	C	1.303962	-0.231872	-0.678288
C36	C	1.303859	-0.678352	-0.366402
C37	C	1.304005	-0.678082	-0.233013
H38	H	0.819207	-0.857324	-0.856758
C39	C	0.973836	-0.491568	-0.491984
C40	C	1.038633	-0.402357	-0.549076
C41	C	1.090409	-0.321808	-0.468722
C42	C	1.077386	-0.330471	-0.331275
C43	C	1.012586	-0.419685	-0.274176
C44	C	0.960811	-0.500234	-0.354530
H45	H	1.048276	-0.395941	-0.650828
H46	H	1.138378	-0.255765	-0.510991
H47	H	1.115713	-0.270844	-0.271792
H48	H	1.002944	-0.426101	-0.172423
H49	H	0.912841	-0.566277	-0.312261
C50	C	0.973976	-0.814303	-0.813857
C51	C	1.038725	-0.913442	-0.766657
C52	C	1.090577	-1.001935	-0.854924
C53	C	1.077678	-0.991287	-0.990391
C54	C	1.012926	-0.892143	-1.037598
C55	C	0.961075	-0.803651	-0.949331
H56	H	1.048276	-0.921328	-0.666370
H57	H	1.138511	-1.075327	-0.819977
H58	H	1.116062	-1.056794	-1.055731
H59	H	1.003375	-0.884258	-1.137885
H60	H	0.913141	-0.730258	-0.984277
H61	H	0.648284	-0.844212	-0.843702
H62	H	0.648151	-0.565397	-0.565641
H63	H	0.789448	-0.499395	-0.499806
