data_functionalizedCrystal
_audit_creation_method	'MofGen! by Chris Wilmer'
_symmetry_space_group_name_H-M	'P1'
_symmetry_Int_Tables_number	1
_symmetry_cell_setting	triclinic
loop_
_symmetry_equiv_pos_as_xyz
  x,y,z
_cell_length_a	27.731994
_cell_length_b	27.732048
_cell_length_c	13.448316
_cell_angle_alpha	89.988441
_cell_angle_beta	89.999318
_cell_angle_gamma	82.631595
loop_
_atom_site_label
_atom_site_type_symbol
_atom_site_fract_x
_atom_site_fract_y
_atom_site_fract_z
O1	O	0.640946	0.057393	-0.082561
O2	O	1.140946	0.557393	0.417439
O3	O	0.500149	0.066166	-0.082595
O4	O	1.000149	0.566166	0.417405
O5	O	0.574920	-0.008618	-0.082558
O6	O	1.074920	0.491382	0.417442
O7	O	0.566174	0.132177	-0.082598
O8	O	1.066174	0.632177	0.417402
O9	O	0.574911	-0.008622	0.082826
O10	O	1.074911	0.491378	0.582826
O11	O	0.500139	0.066162	0.082789
O12	O	1.000139	0.566162	0.582789
O13	O	0.640937	0.057389	0.082823
O14	O	1.140937	0.557389	0.582823
Cu15	Cu	0.570537	0.061775	0.097907
Cu16	Cu	1.070537	0.561775	0.597907
Cu17	Cu	0.570548	0.061780	-0.097679
Cu18	Cu	1.070548	0.561780	0.402321
O19	O	0.566165	0.132173	0.082786
O20	O	1.066165	0.632173	0.582786
C21	C	0.482137	0.065984	0.000093
C22	C	0.982137	0.565984	0.500093
C23	C	0.428480	0.065442	0.000080
C24	C	0.928480	0.565442	0.500080
C25	C	0.574732	-0.026627	0.000137
C26	C	1.074732	0.473373	0.500137
C27	C	0.574179	-0.080282	0.000145
C28	C	1.074179	0.419718	0.500145
C29	C	0.095757	0.062023	0.090270
C30	C	0.595757	0.562023	0.590270
C31	C	-0.105901	0.059962	0.090282
C32	C	0.394099	0.559962	0.590282
O33	O	-0.131978	0.059672	0.166952
O34	O	0.368022	0.559672	0.666952
N35	N	-0.131111	0.059708	0.000132
N36	N	0.368889	0.559708	0.500132
C37	C	-0.105903	0.059967	-0.090028
C38	C	0.394097	0.559967	0.409972
O39	O	-0.131972	0.059699	-0.166707
O40	O	0.368028	0.559699	0.333293
C41	C	0.095755	0.062025	-0.090039
C42	C	0.595755	0.562025	0.409961
C43	C	0.120961	0.062283	0.000117
C44	C	0.620961	0.562283	0.500117
C45	C	0.120963	0.062281	0.180419
C46	C	0.620963	0.562281	0.680419
C47	C	0.171374	0.062799	0.180415
C48	C	0.671374	0.562799	0.680415
C49	C	0.196579	0.063059	0.090262
C50	C	0.696579	0.563059	0.590262
C51	C	0.171372	0.062801	0.000113
C52	C	0.671372	0.562801	0.500113
C53	C	0.120963	0.062280	-0.180198
C54	C	0.620963	0.562280	0.319802
C55	C	0.171380	0.062793	-0.180193
C56	C	0.671380	0.562793	0.319807
C57	C	0.196587	0.063052	-0.090036
C58	C	0.696587	0.563052	0.409964
C59	C	0.246988	0.063580	-0.090044
C60	C	0.746988	0.563580	0.409956
N61	N	0.272198	0.063833	0.000107
N62	N	0.772198	0.563833	0.500107
C63	C	0.246993	0.063573	0.090260
C64	C	0.746993	0.563573	0.590260
C65	C	-0.211776	0.058887	-0.090016
C66	C	0.288224	0.558887	0.409984
C67	C	-0.262191	0.058374	-0.090014
C68	C	0.237809	0.558374	0.409986
C69	C	-0.262185	0.058368	0.090297
C70	C	0.237815	0.558368	0.590297
C71	C	-0.211771	0.058885	0.090293
C72	C	0.288229	0.558885	0.590293
C73	C	-0.186566	0.059141	0.000134
C74	C	0.313434	0.559141	0.500134
C75	C	0.352860	0.064661	0.090245
C76	C	0.852860	0.564661	0.590245
C77	C	0.403276	0.065182	0.090233
C78	C	0.903276	0.565182	0.590233
C79	C	0.403267	0.065185	-0.090077
C80	C	0.903267	0.565185	0.409923
C81	C	0.352855	0.064667	-0.090066
C82	C	0.852855	0.564667	0.409934
C83	C	0.327654	0.064404	0.000103
C84	C	0.827654	0.564404	0.500103
O85	O	0.273097	0.063864	-0.166673
O86	O	0.773097	0.563864	0.333327
O87	O	0.273072	0.063830	0.166927
O88	O	0.773072	0.563830	0.666927
C89	C	0.045346	0.061505	0.090274
C90	C	0.545346	0.561505	0.590274
C91	C	0.020139	0.061247	0.000125
C92	C	0.520139	0.561247	0.500125
C93	C	0.045344	0.061507	-0.090028
C94	C	0.545344	0.561507	0.409972
C95	C	-0.030275	0.060734	0.000127
C96	C	0.469725	0.560734	0.500127
C97	C	-0.055480	0.060474	0.090280
C98	C	0.444520	0.560474	0.590280
C99	C	-0.030270	0.060727	0.180431
C100	C	0.469730	0.560727	0.680431
C101	C	0.020141	0.061245	0.180427
C102	C	0.520141	0.561245	0.680427
C103	C	0.020134	0.061254	-0.180179
C104	C	0.520134	0.561254	0.319821
C105	C	-0.030278	0.060736	-0.180167
C106	C	0.469722	0.560736	0.319833
C107	C	-0.055482	0.060476	-0.090014
C108	C	0.444518	0.560476	0.409986
C109	C	0.614884	-0.419105	0.000104
C110	C	1.114884	0.080895	0.500104
C111	C	0.612833	-0.620764	0.000089
C112	C	1.112833	-0.120764	0.500089
O113	O	0.650055	-0.652027	0.000055
O114	O	1.150055	-0.152027	0.500055
N115	N	0.568496	-0.639879	0.000079
N116	N	1.068496	-0.139879	0.500079
C117	C	0.524670	-0.608576	0.000066
C118	C	1.024670	-0.108576	0.500066
O119	O	0.486912	-0.629462	0.000047
O120	O	0.986912	-0.129462	0.500047
C121	C	0.526721	-0.406918	0.000074
C122	C	1.026721	0.093082	0.500074
C123	C	0.571061	-0.387805	0.000094
C124	C	1.071061	0.112195	0.500094
C125	C	0.659220	-0.399992	0.000123
C126	C	1.159220	0.100008	0.500123
C127	C	0.659732	-0.349580	0.000132
C128	C	1.159732	0.150420	0.500132
C129	C	0.615908	-0.318281	0.000122
C130	C	1.115908	0.181719	0.500122
C131	C	0.571573	-0.337394	0.000103
C132	C	1.071573	0.162606	0.500103
C133	C	0.482895	-0.375615	0.000054
C134	C	0.982895	0.124385	0.500054
C135	C	0.483412	-0.325198	0.000053
C136	C	0.983412	0.174802	0.500053
C137	C	0.527751	-0.306086	0.000073
C138	C	1.027751	0.193914	0.500073
C139	C	0.528262	-0.255683	0.000102
C140	C	1.028262	0.244317	0.500102
N141	N	0.572598	-0.236567	0.000112
N142	N	1.072598	0.263433	0.500112
C143	C	0.616421	-0.267867	0.000122
C144	C	1.116421	0.232133	0.500122
C145	C	0.523596	-0.714450	0.000065
C146	C	1.023596	-0.214450	0.500065
C147	C	0.523083	-0.764864	0.000065
C148	C	1.023083	-0.264864	0.500065
C149	C	0.611246	-0.777049	0.000086
C150	C	1.111246	-0.277049	0.500086
C151	C	0.611759	-0.726633	0.000093
C152	C	1.111759	-0.226633	0.500093
C153	C	0.567932	-0.695335	0.000075
C154	C	1.067932	-0.195335	0.500075
C155	C	0.617494	-0.161998	0.000142
C156	C	1.117494	0.338002	0.500142
C157	C	0.618002	-0.111581	0.000155
C158	C	1.118002	0.388419	0.500155
C159	C	0.529839	-0.099401	0.000128
C160	C	1.029839	0.400599	0.500128
C161	C	0.529331	-0.149813	0.000121
C162	C	1.029331	0.350187	0.500121
C163	C	0.573162	-0.181111	0.000124
C164	C	1.073162	0.318889	0.500124
O165	O	0.491060	-0.224391	0.000125
O166	O	0.991060	0.275609	0.500125
O167	O	0.654174	-0.246971	0.000119
O168	O	1.154174	0.253029	0.500119
C169	C	0.614372	-0.469517	0.000095
C170	C	1.114372	0.030483	0.500095
C171	C	0.570036	-0.488629	0.000076
C172	C	1.070036	0.011371	0.500076
C173	C	0.526213	-0.457330	0.000066
C174	C	1.026213	0.042670	0.500066
C175	C	0.569523	-0.539043	0.000076
C176	C	1.069523	-0.039043	0.500076
C177	C	0.613346	-0.570343	0.000086
C178	C	1.113346	-0.070343	0.500086
C179	C	0.657683	-0.551228	0.000096
C180	C	1.157683	-0.051228	0.500096
C181	C	0.658195	-0.500816	0.000105
C182	C	1.158195	-0.000816	0.500105
C183	C	0.481876	-0.476445	0.000056
C184	C	0.981876	0.023555	0.500056
C185	C	0.481367	-0.526857	0.000048
C186	C	0.981367	-0.026857	0.500048
C187	C	0.525191	-0.558157	0.000058
C188	C	1.025191	-0.058157	0.500058
C189	C	0.658949	0.057571	0.000133
C190	C	1.158949	0.557571	0.500133
C191	C	0.712605	0.058114	0.000139
C192	C	1.212605	0.558114	0.500139
C193	C	0.566353	0.150182	0.000089
C194	C	1.066353	0.650182	0.500089
C195	C	0.566906	0.203837	0.000075
C196	C	1.066906	0.703837	0.500075
N197	N	0.570533	0.061771	0.235471
N198	N	1.070533	0.561771	0.735471
N199	N	0.570556	0.061780	-0.235243
N200	N	1.070556	0.561780	0.264757
C201	C	0.603652	0.028670	0.287528
C202	C	1.103652	0.528670	0.787528
C203	C	0.603655	0.028669	0.391631
C204	C	1.103655	0.528669	0.891631
C205	C	0.570541	0.061773	0.443676
C206	C	1.070541	0.561773	0.943676
C207	C	0.537418	0.094875	0.391611
C208	C	1.037418	0.594875	0.891611
C209	C	0.537413	0.094873	0.287510
C210	C	1.037413	0.594873	0.787510
C211	C	0.537432	0.094878	0.608592
C212	C	1.037432	0.594878	1.108592
C213	C	0.537437	0.094881	0.712700
C214	C	1.037437	0.594881	1.212700
C215	C	0.603673	0.028675	0.712713
C216	C	1.103673	0.528675	1.212713
C217	C	0.603668	0.028673	0.608611
C218	C	1.103668	0.528673	1.108611
C219	C	0.570546	0.061776	0.556554
C220	C	1.070546	0.561776	1.056554
H221	H	0.423796	0.065394	0.163653
H222	H	0.923796	0.565394	0.663653
H223	H	0.040650	0.061464	-0.253594
H224	H	0.540650	0.561464	0.246406
Br225	Br	-0.064487	0.060378	0.302780
Br226	Br	0.435513	0.560378	0.802780
H227	H	-0.282716	0.058157	0.163703
H228	H	0.217284	0.558157	0.663703
H229	H	0.510454	0.121827	0.433992
H230	H	1.010454	0.621827	0.933992
Br231	Br	0.086766	0.061930	0.302787
Br232	Br	0.586766	0.561930	0.802787
Br233	Br	0.086767	0.061929	-0.302562
Br234	Br	0.586767	0.561929	0.197438
Br235	Br	0.421187	-0.552788	0.000029
Br236	Br	0.921187	-0.052788	0.500029
Br237	Br	0.464111	-0.671979	0.000038
Br238	Br	0.964111	-0.171979	0.500038
H239	H	0.447722	-0.299716	0.000037
H240	H	0.947722	0.200284	0.500037
H241	H	0.191899	0.063002	-0.253613
H242	H	0.691899	0.563002	0.246387
H243	H	0.654110	-0.096023	0.000174
H244	H	1.154110	0.403977	0.500174
Br245	Br	0.648598	-0.016255	0.216907
Br246	Br	1.148598	0.483745	0.716907
H247	H	-0.050797	0.060530	-0.253589
H248	H	0.449203	0.560530	0.246411
Br249	Br	0.318644	0.064326	-0.212422
Br250	Br	0.818644	0.564326	0.287578
Br251	Br	0.318666	0.064302	0.212618
Br252	Br	0.818666	0.564302	0.712618
H253	H	0.510444	0.121826	0.245126
H254	H	1.010444	0.621826	0.745126
H255	H	-0.191251	0.059096	0.163707
H256	H	0.308749	0.559096	0.663707
H257	H	0.653186	-0.187475	0.000140
H258	H	1.153186	0.312525	0.500140
Br259	Br	0.437483	0.065536	-0.212422
Br260	Br	0.937483	0.565536	0.287578
Br261	Br	-0.296395	0.058035	-0.212374
Br262	Br	0.203605	0.558035	0.287626
Br263	Br	0.205576	0.063148	0.302777
Br264	Br	0.705576	0.563148	0.802777
Br265	Br	0.469156	-0.175752	0.000116
Br266	Br	0.969156	0.324248	0.500116
Br267	Br	0.648601	-0.016256	0.462283
Br268	Br	1.148601	0.483744	0.962283
H269	H	0.040660	0.061456	0.253842
H270	H	0.540660	0.561456	0.753842
Br271	Br	0.719910	-0.323651	0.000131
Br272	Br	1.219910	0.176349	0.500131
H273	H	-0.191260	0.059095	-0.163439
H274	H	0.308740	0.559095	0.336561
H275	H	0.693365	-0.576720	0.000108
H276	H	1.193365	-0.076720	0.500108
Br277	Br	0.718703	-0.442461	0.000135
Br278	Br	1.218703	0.057539	0.500135
Br279	Br	0.492477	0.139803	0.537946
Br280	Br	0.992477	0.639803	1.037946
H281	H	0.646929	-0.802541	0.000094
H282	H	1.146929	-0.302541	0.500094
H283	H	0.647863	-0.711076	0.000108
H284	H	1.147863	-0.211076	0.500108
Br285	Br	0.462906	-0.790795	0.000061
Br286	Br	0.962906	-0.290795	0.500061
H287	H	0.630634	0.001720	0.566237
H288	H	1.130634	0.501720	1.066237
H289	H	0.446789	-0.391167	0.000031
H290	H	0.946789	0.108833	0.500031
H291	H	0.630642	0.001721	0.755103
H292	H	1.130642	0.501721	1.255103
H293	H	0.494160	-0.073908	0.000124
H294	H	0.994160	0.426092	0.500124
Br295	Br	0.422395	-0.433975	0.000037
Br296	Br	0.922395	0.066025	0.500037
Br297	Br	0.492495	0.139809	0.783324
Br298	Br	0.992495	0.639809	1.283324
H299	H	0.694301	-0.485260	0.000121
H300	H	1.194301	0.014740	0.500121
