data_functionalizedCrystal
_audit_creation_method	'MofGen! by Chris Wilmer'
_symmetry_space_group_name_H-M	'P1'
_symmetry_Int_Tables_number	1
_symmetry_cell_setting	triclinic
loop_
_symmetry_equiv_pos_as_xyz
  x,y,z
_cell_length_a	25.639242
_cell_length_b	25.639240
_cell_length_c	25.639233
_cell_angle_alpha	89.974071
_cell_angle_beta	89.977834
_cell_angle_gamma	90.028283
loop_
_atom_site_label
_atom_site_type_symbol
_atom_site_fract_x
_atom_site_fract_y
_atom_site_fract_z
Zn1	Zn	0.799247	-0.208277	-0.295716
Zn2	Zn	1.132580	0.125057	0.037617
Zn3	Zn	1.465913	0.458390	0.370951
Zn4	Zn	0.799179	-0.295696	-0.208270
Zn5	Zn	1.132512	0.037638	0.125064
Zn6	Zn	1.465846	0.370971	0.458397
Zn7	Zn	0.711823	-0.208269	-0.208280
Zn8	Zn	1.045156	0.125064	0.125053
Zn9	Zn	1.378490	0.458398	0.458386
Zn10	Zn	0.711777	-0.295676	-0.295659
Zn11	Zn	1.045110	0.037657	0.037674
Zn12	Zn	1.378444	0.370990	0.371007
O13	O	0.755506	-0.251979	-0.251981
O14	O	1.088840	0.081354	0.081352
O15	O	1.422173	0.414687	0.414685
O16	O	0.872403	-0.219884	-0.284135
O17	O	1.205736	0.113449	0.049198
O18	O	1.539069	0.446782	0.382531
O19	O	0.787582	-0.284103	-0.135106
O20	O	1.120915	0.049230	0.198228
O21	O	1.454249	0.382563	0.531561
O22	O	0.723467	-0.135105	-0.219907
O23	O	1.056801	0.198228	0.113426
O24	O	1.390134	0.531562	0.446760
O25	O	0.872353	-0.284111	-0.219889
O26	O	1.205687	0.049223	0.113445
O27	O	1.539020	0.382556	0.446778
O28	O	0.787697	-0.135111	-0.284146
O29	O	1.121030	0.198223	0.049188
O30	O	1.454364	0.531556	0.382521
O31	O	0.723402	-0.219871	-0.135114
O32	O	1.056735	0.113462	0.198220
O33	O	1.390069	0.446795	0.531553
O34	O	0.638652	-0.219853	-0.219852
O35	O	0.971985	0.113481	0.113481
O36	O	1.305318	0.446814	0.446815
O37	O	0.723389	-0.284078	-0.368832
O38	O	1.056722	0.049256	-0.035499
O39	O	1.390056	0.382589	0.297834
O40	O	0.638618	-0.284070	-0.284049
O41	O	0.971951	0.049263	0.049284
O42	O	1.305285	0.382597	0.382618
O43	O	0.787653	-0.219866	-0.368874
O44	O	1.120986	0.113468	-0.035540
O45	O	1.454319	0.446801	0.297793
O46	O	0.787538	-0.368858	-0.219834
O47	O	1.120871	-0.035525	0.113500
O48	O	1.454204	0.297808	0.446833
O49	O	0.723324	-0.368844	-0.284039
O50	O	1.056657	-0.035511	0.049295
O51	O	1.389990	0.297823	0.382628
C52	C	0.619664	-0.251959	-0.251946
C53	C	0.952997	0.081375	0.081387
C54	C	1.286331	0.414708	0.414721
C55	C	0.561550	-0.251963	-0.251943
C56	C	0.894883	0.081371	0.081390
C57	C	1.228216	0.414704	0.414724
C58	C	0.755433	-0.387822	-0.251940
C59	C	1.088766	-0.054489	0.081393
C60	C	1.422099	0.278845	0.414726
C61	C	0.755449	-0.445936	-0.251940
C62	C	1.088782	-0.112603	0.081393
C63	C	1.422115	0.220731	0.414726
C64	C	0.201178	-0.285473	-0.285377
C65	C	0.534511	0.047860	0.047956
C66	C	0.867845	0.381193	0.381290
C67	C	0.146574	-0.285477	-0.285385
C68	C	0.479907	0.047857	0.047948
C69	C	0.813240	0.381190	0.381281
O70	O	0.118330	-0.313943	-0.313782
O71	O	0.451663	0.019390	0.019551
O72	O	0.784996	0.352724	0.352885
N73	N	0.119267	-0.251994	-0.252015
N74	N	0.452601	0.081340	0.081318
N75	N	0.785934	0.414673	0.414651
C76	C	0.146568	-0.218502	-0.218639
C77	C	0.479901	0.114831	0.114694
C78	C	0.813235	0.448165	0.448028
O79	O	0.118328	-0.190022	-0.190256
O80	O	0.451661	0.143311	0.143077
O81	O	0.784994	0.476645	0.476410
C82	C	0.201171	-0.218496	-0.218634
C83	C	0.534505	0.114837	0.114700
C84	C	0.867838	0.448170	0.448033
C85	C	0.228475	-0.251985	-0.252002
C86	C	0.561808	0.081348	0.081331
C87	C	0.895142	0.414681	0.414665
C88	C	0.228482	-0.318959	-0.318743
C89	C	0.561815	0.014374	0.014590
C90	C	0.895148	0.347708	0.347924
C91	C	0.283082	-0.318956	-0.318734
C92	C	0.616416	0.014377	0.014599
C93	C	0.949749	0.347710	0.347933
C94	C	0.310379	-0.285468	-0.285359
C95	C	0.643713	0.047865	0.047974
C96	C	0.977046	0.381199	0.381308
C97	C	0.283076	-0.251983	-0.251993
C98	C	0.616409	0.081351	0.081340
C99	C	0.949742	0.414684	0.414674
C100	C	0.228471	-0.185002	-0.185260
C101	C	0.561804	0.148331	0.148073
C102	C	0.895138	0.481664	0.481407
C103	C	0.283078	-0.184999	-0.185258
C104	C	0.616411	0.148334	0.148075
C105	C	0.949745	0.481667	0.481409
C106	C	0.310382	-0.218488	-0.218626
C107	C	0.643715	0.114845	0.114707
C108	C	0.977048	0.448178	0.448040
C109	C	0.364973	-0.218492	-0.218609
C110	C	0.698306	0.114842	0.114725
C111	C	1.031640	0.448175	0.448058
N112	N	0.392279	-0.251974	-0.251979
N113	N	0.725613	0.081359	0.081355
N114	N	1.058946	0.414692	0.414688
C115	C	0.364983	-0.285463	-0.285354
C116	C	0.698316	0.047871	0.047980
C117	C	1.031649	0.381204	0.381313
C118	C	0.031897	-0.218515	-0.218653
C119	C	0.365231	0.114818	0.114680
C120	C	0.698564	0.448151	0.448014
C121	C	-0.022705	-0.218523	-0.218655
C122	C	0.310628	0.114810	0.114678
C123	C	0.643962	0.448144	0.448011
C124	C	-0.022695	-0.285497	-0.285402
C125	C	0.310638	0.047836	0.047931
C126	C	0.643971	0.381170	0.381264
C127	C	0.031908	-0.285492	-0.285397
C128	C	0.365241	0.047842	0.047936
C129	C	0.698575	0.381175	0.381269
C130	C	0.059204	-0.251998	-0.252023
C131	C	0.392537	0.081335	0.081310
C132	C	0.725871	0.414669	0.414644
C133	C	0.479648	-0.285455	-0.285332
C134	C	0.812981	0.047878	0.048002
C135	C	1.146314	0.381212	0.381335
C136	C	0.534253	-0.285451	-0.285318
C137	C	0.867586	0.047883	0.048015
C138	C	1.200920	0.381216	0.381348
C139	C	0.534239	-0.218475	-0.218573
C140	C	0.867572	0.114858	0.114760
C141	C	1.200905	0.448192	0.448094
C142	C	0.479638	-0.218481	-0.218585
C143	C	0.812971	0.114853	0.114749
C144	C	1.146305	0.448186	0.448082
C145	C	0.452344	-0.251972	-0.251968
C146	C	0.785677	0.081361	0.081365
C147	C	1.119011	0.414694	0.414699
O148	O	0.393252	-0.190038	-0.190228
O149	O	0.726585	0.143295	0.143105
O150	O	1.059918	0.476628	0.476439
O151	O	0.393229	-0.313933	-0.313736
O152	O	0.726563	0.019401	0.019597
O153	O	1.059896	0.352734	0.352930
C154	C	0.788967	-0.806264	-0.285491
C155	C	1.122301	-0.472930	0.047843
C156	C	1.455634	-0.139597	0.381176
C157	C	0.788983	-0.860868	-0.285501
C158	C	1.122316	-0.527534	0.047832
C159	C	1.455650	-0.194201	0.381165
O160	O	0.817394	-0.889074	-0.313985
O161	O	1.150727	-0.555741	0.019348
O162	O	1.484060	-0.222408	0.352682
N163	N	0.755579	-0.888218	-0.252032
N164	N	1.088912	-0.554885	0.081301
N165	N	1.422246	-0.221552	0.414635
C166	C	0.722154	-0.860962	-0.218553
C167	C	1.055487	-0.527629	0.114780
C168	C	1.388820	-0.194295	0.448113
O169	O	0.693742	-0.889240	-0.190086
O170	O	1.027075	-0.555906	0.143247
O171	O	1.360409	-0.222573	0.476581
C172	C	0.722136	-0.806359	-0.218546
C173	C	1.055469	-0.473025	0.114788
C174	C	1.388803	-0.139692	0.448121
C175	C	0.755546	-0.779011	-0.252014
C176	C	1.088879	-0.445678	0.081320
C177	C	1.422213	-0.112344	0.414653
C178	C	0.822374	-0.778916	-0.318956
C179	C	1.155708	-0.445582	0.014377
C180	C	1.489041	-0.112249	0.347710
C181	C	0.822359	-0.724315	-0.318945
C182	C	1.155693	-0.390982	0.014388
C183	C	1.489026	-0.057648	0.347722
C184	C	0.788938	-0.697062	-0.285468
C185	C	1.122271	-0.363729	0.047865
C186	C	1.455604	-0.030396	0.381199
C187	C	0.755531	-0.724410	-0.252002
C188	C	1.088864	-0.391077	0.081331
C189	C	1.422198	-0.057744	0.414664
C190	C	0.688708	-0.779103	-0.185070
C191	C	1.022042	-0.445770	0.148263
C192	C	1.355375	-0.112436	0.481597
C193	C	0.688693	-0.724496	-0.185066
C194	C	1.022027	-0.391163	0.148268
C195	C	1.355360	-0.057829	0.481601
C196	C	0.722103	-0.697148	-0.218534
C197	C	1.055437	-0.363815	0.114800
C198	C	1.388770	-0.030482	0.448133
C199	C	0.722095	-0.642557	-0.218514
C200	C	1.055428	-0.309224	0.114820
C201	C	1.388761	0.024110	0.448153
N202	N	0.755498	-0.615206	-0.251983
N203	N	1.088832	-0.281873	0.081350
N204	N	1.422165	0.051460	0.414684
C205	C	0.788920	-0.642459	-0.285460
C206	C	1.122253	-0.309126	0.047873
C207	C	1.455587	0.024208	0.381206
C208	C	0.722193	-0.975633	-0.218572
C209	C	1.055526	-0.642299	0.114761
C210	C	1.388859	-0.308966	0.448094
C211	C	0.722213	-1.030235	-0.218577
C212	C	1.055546	-0.696902	0.114756
C213	C	1.388879	-0.363568	0.448090
C214	C	0.789041	-1.030137	-0.285526
C215	C	1.122375	-0.696804	0.047807
C216	C	1.455708	-0.363470	0.381141
C217	C	0.789024	-0.975534	-0.285518
C218	C	1.122357	-0.642200	0.047815
C219	C	1.455690	-0.308867	0.381148
C220	C	0.755597	-0.948282	-0.252042
C221	C	1.088930	-0.614949	0.081291
C222	C	1.422263	-0.281615	0.414625
C223	C	0.788887	-0.527794	-0.285433
C224	C	1.122220	-0.194461	0.047900
C225	C	1.455553	0.138873	0.381233
C226	C	0.788870	-0.473189	-0.285417
C227	C	1.122204	-0.139855	0.047916
C228	C	1.455537	0.193478	0.381249
C229	C	0.722040	-0.473291	-0.218471
C230	C	1.055373	-0.139958	0.114863
C231	C	1.388707	0.193375	0.448196
C232	C	0.722058	-0.527892	-0.218484
C233	C	1.055391	-0.194559	0.114849
C234	C	1.388725	0.138775	0.448182
C235	C	0.755483	-0.555142	-0.251970
C236	C	1.088816	-0.221809	0.081363
C237	C	1.422150	0.111525	0.414697
O238	O	0.693697	-0.614316	-0.190046
O239	O	1.027030	-0.280983	0.143287
O240	O	1.360363	0.052351	0.476621
O241	O	0.817322	-0.614175	-0.313927
O242	O	1.150655	-0.280841	0.019406
O243	O	1.483989	0.052492	0.352739
C244	C	0.891879	-0.252000	-0.252017
C245	C	1.225213	0.081333	0.081316
C246	C	1.558546	0.414666	0.414649
C247	C	0.949993	-0.252009	-0.252032
C248	C	1.283327	0.081324	0.081301
C249	C	1.616660	0.414657	0.414634
C250	C	0.755523	-0.251970	-0.388354
C251	C	1.088857	0.081363	-0.055021
C252	C	1.422190	0.414696	0.278312
C253	C	0.755530	-0.251966	-0.446468
C254	C	1.088864	0.081367	-0.113135
C255	C	1.422197	0.414700	0.220198
C256	C	0.755595	-0.115606	-0.252034
C257	C	1.088928	0.217727	0.081299
C258	C	1.422261	0.551060	0.414633
C259	C	0.755632	-0.057492	-0.252056
C260	C	1.088966	0.275841	0.081277
C261	C	1.422299	0.609174	0.414610
C262	C	0.789035	-0.218432	-0.806859
C263	C	1.122368	0.114902	-0.473526
C264	C	1.455702	0.448235	-0.140192
C265	C	0.789041	-0.218417	-0.861463
C266	C	1.122375	0.114916	-0.528130
C267	C	1.455708	0.448249	-0.194797
O268	O	0.817486	-0.189967	-0.889723
O269	O	1.150819	0.143367	-0.556390
O270	O	1.484152	0.476700	-0.223057
N271	N	0.755588	-0.251844	-0.888751
N272	N	1.088921	0.081490	-0.555418
N273	N	1.422255	0.414823	-0.222084
C274	C	0.722122	-0.285283	-0.861432
C275	C	1.055456	0.048050	-0.528098
C276	C	1.388789	0.381384	-0.194765
O277	O	0.693668	-0.313713	-0.889656
O278	O	1.027001	0.019620	-0.556323
O279	O	1.360335	0.352954	-0.222989
C280	C	0.722114	-0.285294	-0.806828
C281	C	1.055447	0.048039	-0.473495
C282	C	1.388780	0.381372	-0.140162
C283	C	0.755573	-0.251870	-0.779543
C284	C	1.088906	0.081464	-0.446210
C285	C	1.422240	0.414797	-0.112877
C286	C	0.822491	-0.185009	-0.779574
C287	C	1.155824	0.148324	-0.446241
C288	C	1.489158	0.481657	-0.112907
C289	C	0.822485	-0.185025	-0.724973
C290	C	1.155818	0.148309	-0.391640
C291	C	1.489152	0.481642	-0.058307
C292	C	0.789023	-0.218462	-0.697658
C293	C	1.122356	0.114871	-0.364325
C294	C	1.455690	0.448204	-0.030991
C295	C	0.755567	-0.251885	-0.724943
C296	C	1.088900	0.081448	-0.391610
C297	C	1.422234	0.414782	-0.058276
C298	C	0.688646	-0.318731	-0.779510
C299	C	1.021979	0.014603	-0.446177
C300	C	1.355313	0.347936	-0.112843
C301	C	0.688640	-0.318739	-0.724903
C302	C	1.021973	0.014594	-0.391570
C303	C	1.355306	0.347928	-0.058236
C304	C	0.722099	-0.285314	-0.697618
C305	C	1.055432	0.048019	-0.364285
C306	C	1.388766	0.381353	-0.030951
C307	C	0.722099	-0.285338	-0.643027
C308	C	1.055433	0.047995	-0.309693
C309	C	1.388766	0.381329	0.023640
N310	N	0.755552	-0.251912	-0.615739
N311	N	1.088886	0.081422	-0.282406
N312	N	1.422219	0.414755	0.050928
C313	C	0.789014	-0.218474	-0.643055
C314	C	1.122348	0.114860	-0.309721
C315	C	1.455681	0.448193	0.023612
C316	C	0.722143	-0.285256	-0.976102
C317	C	1.055476	0.048077	-0.642769
C318	C	1.388809	0.381411	-0.309436
C319	C	0.722154	-0.285247	-1.030705
C320	C	1.055487	0.048086	-0.697371
C321	C	1.388820	0.381419	-0.364038
C322	C	0.789072	-0.218381	-1.030733
C323	C	1.122405	0.114952	-0.697399
C324	C	1.455739	0.448286	-0.364066
C325	C	0.789063	-0.218392	-0.976129
C326	C	1.122397	0.114941	-0.642796
C327	C	1.455730	0.448274	-0.309463
C328	C	0.755596	-0.251829	-0.948815
C329	C	1.088929	0.081504	-0.615481
C330	C	1.422263	0.414837	-0.282148
C331	C	0.789000	-0.218509	-0.528389
C332	C	1.122333	0.114825	-0.195056
C333	C	1.455666	0.448158	0.138277
C334	C	0.788992	-0.218529	-0.473784
C335	C	1.122326	0.114805	-0.140451
C336	C	1.455659	0.448138	0.192883
C337	C	0.722072	-0.285393	-0.473761
C338	C	1.055406	0.047940	-0.140428
C339	C	1.388739	0.381274	0.192906
C340	C	0.722081	-0.285375	-0.528362
C341	C	1.055415	0.047958	-0.195028
C342	C	1.388748	0.381291	0.138305
C343	C	0.755547	-0.251929	-0.555674
C344	C	1.088880	0.081404	-0.222341
C345	C	1.422214	0.414738	0.110992
O346	O	0.693668	-0.313773	-0.614732
O347	O	1.027001	0.019561	-0.281399
O348	O	1.360334	0.352894	0.051935
O349	O	0.817459	-0.190044	-0.614823
O350	O	1.150792	0.143290	-0.281490
O351	O	1.484126	0.476623	0.051843
C352	C	0.755520	-0.251951	-0.116139
C353	C	1.088853	0.081383	0.217195
C354	C	1.422186	0.414716	0.550528
C355	C	0.755614	-0.251807	-0.058025
C356	C	1.088947	0.081526	0.275308
C357	C	1.422281	0.414859	0.608642
H358	H	0.556481	-0.312723	-0.312491
H359	H	0.889814	0.020610	0.020842
H360	H	1.223148	0.353943	0.354176
C361	C	0.681334	-0.389060	-0.840878
C362	C	1.014668	-0.055726	-0.507544
C363	C	1.348001	0.277607	-0.174211
C364	C	0.651867	-0.355479	-0.809487
C365	C	0.985201	-0.022146	-0.476153
C366	C	1.318534	0.311188	-0.142820
H367	H	0.658627	-0.411751	-0.859379
H368	H	0.991960	-0.078418	-0.526046
H369	H	1.325294	0.254915	-0.192712
H370	H	0.701253	-0.369150	-0.864969
H371	H	1.034586	-0.035816	-0.531636
H372	H	1.367920	0.297517	-0.198303
H373	H	0.704102	-0.409059	-0.819571
H374	H	1.037435	-0.075725	-0.486238
H375	H	1.370769	0.257608	-0.152904
H376	H	0.629102	-0.335477	-0.830794
H377	H	0.962436	-0.002144	-0.497461
H378	H	1.295769	0.331190	-0.164127
H379	H	0.631940	-0.375391	-0.785392
H380	H	0.965273	-0.042058	-0.452059
H381	H	1.298606	0.291275	-0.118726
C382	C	0.659036	-0.862840	-0.155359
C383	C	0.992369	-0.529506	0.177974
C384	C	1.325703	-0.196173	0.511307
C385	C	0.651975	-0.809155	-0.148288
C386	C	0.985308	-0.475822	0.185045
C387	C	1.318642	-0.142488	0.518378
H388	H	0.636356	-0.881390	-0.132650
H389	H	0.969690	-0.548057	0.200683
H390	H	1.303023	-0.214724	0.534017
H391	H	0.651370	-0.871769	-0.190480
H392	H	0.984703	-0.538436	0.142854
H393	H	1.318037	-0.205102	0.476187
H394	H	0.694171	-0.871768	-0.147734
H395	H	1.027504	-0.538435	0.185599
H396	H	1.360837	-0.205101	0.518932
H397	H	0.616841	-0.800226	-0.155917
H398	H	0.950174	-0.466892	0.177416
H399	H	1.283508	-0.133559	0.510750
H400	H	0.659637	-0.800222	-0.113160
H401	H	0.992971	-0.466888	0.220173
H402	H	1.326304	-0.133555	0.553507
H403	H	0.206262	-0.346229	-0.345924
H404	H	0.539596	-0.012896	-0.012591
H405	H	0.872929	0.320437	0.320743
H406	H	0.305308	-0.346225	-0.345907
H407	H	0.638641	-0.012892	-0.012574
H408	H	0.971975	0.320441	0.320760
C409	C	0.888433	-0.773320	-0.385122
C410	C	1.221767	-0.439986	-0.051789
C411	C	1.555100	-0.106653	0.281544
C412	C	0.859119	-0.808866	-0.355756
C413	C	1.192452	-0.475532	-0.022423
C414	C	1.525786	-0.142199	0.310911
H415	H	0.911124	-0.791808	-0.407837
H416	H	1.244457	-0.458475	-0.074504
H417	H	1.577790	-0.125141	0.258829
H418	H	0.865631	-0.752033	-0.405093
H419	H	1.198964	-0.418700	-0.071760
H420	H	1.532297	-0.085367	0.261573
H421	H	0.908433	-0.752017	-0.362350
H422	H	1.241766	-0.418684	-0.029017
H423	H	1.575100	-0.085350	0.304316
H424	H	0.839116	-0.830166	-0.378528
H425	H	1.172449	-0.496833	-0.045194
H426	H	1.505783	-0.163499	0.288139
H427	H	0.881924	-0.830161	-0.335783
H428	H	1.215258	-0.496828	-0.002450
H429	H	1.548591	-0.163495	0.330884
H430	H	0.816228	-0.953270	-0.312771
H431	H	1.149562	-0.619937	0.020562
H432	H	1.482895	-0.286604	0.353896
H433	H	0.457431	-0.312726	-0.312517
H434	H	0.790764	0.020608	0.020816
H435	H	1.124098	0.353941	0.354150
C436	C	0.026420	-0.351690	-0.351374
C437	C	0.359753	-0.018357	-0.018041
C438	C	0.693087	0.314977	0.315292
C439	C	0.061917	-0.322298	-0.322081
C440	C	0.395251	0.011035	0.011252
C441	C	0.728584	0.344369	0.344585
H442	H	0.044946	-0.374410	-0.374025
H443	H	0.378279	-0.041077	-0.040692
H444	H	0.711612	0.292256	0.292641
H445	H	0.005108	-0.371657	-0.328556
H446	H	0.338441	-0.038324	0.004777
H447	H	0.671774	0.295010	0.338111
H448	H	0.005138	-0.328935	-0.371415
H449	H	0.338472	0.004399	-0.038082
H450	H	0.671805	0.337732	0.295252
H451	H	0.083196	-0.345053	-0.302038
H452	H	0.416530	-0.011720	0.031296
H453	H	0.749863	0.321613	0.364629
H454	H	0.083239	-0.302330	-0.344903
H455	H	0.416572	0.031004	-0.011570
H456	H	0.749905	0.364337	0.321764
H457	H	0.694889	-0.312487	-0.953866
H458	H	1.028222	0.020846	-0.620533
H459	H	1.361556	0.354180	-0.287200
H460	H	-0.044930	-0.312763	-0.312580
H461	H	0.288403	0.020570	0.020753
H462	H	0.621736	0.353903	0.354087
C463	C	0.633519	-0.456559	-0.192917
C464	C	0.966852	-0.123226	0.140417
C465	C	1.300185	0.210108	0.473750
C466	C	0.685300	-0.443328	-0.181678
C467	C	1.018633	-0.109994	0.151655
C468	C	1.351967	0.223339	0.484989
H469	H	0.610836	-0.438061	-0.170202
H470	H	0.944169	-0.104728	0.163131
H471	H	1.277502	0.228606	0.496464
H472	H	0.625851	-0.447597	-0.228035
H473	H	0.959185	-0.114264	0.105299
H474	H	1.292518	0.219069	0.438632
H475	H	0.628751	-0.492992	-0.188125
H476	H	0.962084	-0.159659	0.145208
H477	H	1.295418	0.173674	0.478541
H478	H	0.690069	-0.406894	-0.186473
H479	H	1.023402	-0.073561	0.146861
H480	H	1.356736	0.259772	0.480194
H481	H	0.692970	-0.452286	-0.146551
H482	H	1.026303	-0.118952	0.186782
H483	H	1.359637	0.214381	0.520115
H484	H	0.816079	-0.450924	-0.312671
H485	H	1.149412	-0.117590	0.020662
H486	H	1.482745	0.215743	0.353996
H487	H	0.816241	-0.191310	-0.451571
H488	H	1.149574	0.142024	-0.118238
H489	H	1.482907	0.475357	0.215096
C490	C	0.829557	-0.662868	-0.389279
C491	C	1.162890	-0.329534	-0.055945
C492	C	1.496223	0.003799	0.277388
C493	C	0.859080	-0.694259	-0.355740
C494	C	1.192413	-0.360926	-0.022407
C495	C	1.525746	-0.027592	0.310927
H496	H	0.852228	-0.644313	-0.411994
H497	H	1.185561	-0.310980	-0.078661
H498	H	1.518894	0.022353	0.254672
H499	H	0.806770	-0.684176	-0.409250
H500	H	1.140104	-0.350843	-0.075916
H501	H	1.473437	-0.017510	0.257417
H502	H	0.809657	-0.638817	-0.369336
H503	H	1.142990	-0.305484	-0.036003
H504	H	1.476323	0.027849	0.297331
H505	H	0.878977	-0.718312	-0.375683
H506	H	1.212310	-0.384979	-0.042349
H507	H	1.545644	-0.051645	0.290984
H508	H	0.881875	-0.672949	-0.335767
H509	H	1.215208	-0.339615	-0.002434
H510	H	1.548542	-0.006282	0.330900
H511	H	0.694830	-0.312619	-0.451511
H512	H	1.028163	0.020715	-0.118177
H513	H	1.361497	0.354048	0.215156
H514	H	0.457406	-0.191213	-0.191412
H515	H	0.790740	0.142121	0.141921
H516	H	1.124073	0.475454	0.475254
C517	C	-0.017216	-0.152322	-0.152680
C518	C	0.316117	0.181011	0.180654
C519	C	0.649451	0.514344	0.513987
C520	C	-0.052713	-0.181714	-0.181972
C521	C	0.280620	0.151619	0.151361
C522	C	0.613953	0.484952	0.484694
H523	H	-0.035742	-0.129594	-0.130037
H524	H	0.297592	0.203739	0.203297
H525	H	0.630925	0.537073	0.536630
H526	H	0.004058	-0.175073	-0.132635
H527	H	0.337392	0.158260	0.200698
H528	H	0.670725	0.491594	0.534032
H529	H	0.004104	-0.132359	-0.175503
H530	H	0.337437	0.200974	0.157831
H531	H	0.670770	0.534308	0.491164
H532	H	-0.074031	-0.201680	-0.159149
H533	H	0.259303	0.131653	0.174184
H534	H	0.592636	0.464986	0.507517
H535	H	-0.073996	-0.158961	-0.202018
H536	H	0.259337	0.174373	0.131315
H537	H	0.592670	0.507706	0.464648
C538	C	0.855151	-0.152421	-0.522917
C539	C	1.188484	0.180912	-0.189584
C540	C	1.521818	0.514246	0.143749
C541	C	0.825789	-0.181748	-0.558406
C542	C	1.159122	0.151585	-0.225073
C543	C	1.492455	0.484919	0.108260
H544	H	0.877866	-0.129731	-0.541449
H545	H	1.211200	0.203602	-0.208116
H546	H	1.544533	0.536935	0.125217
H547	H	0.832380	-0.132425	-0.501620
H548	H	1.165714	0.200909	-0.168287
H549	H	1.499047	0.534242	0.165046
H550	H	0.875127	-0.175220	-0.501619
H551	H	1.208460	0.158114	-0.168286
H552	H	1.541793	0.491447	0.165047
H553	H	0.805810	-0.158949	-0.579702
H554	H	1.139143	0.174384	-0.246368
H555	H	1.472477	0.507717	0.086965
H556	H	0.848562	-0.201746	-0.579712
H557	H	1.181896	0.131588	-0.246379
H558	H	1.515229	0.464921	0.086955
H559	H	0.694913	-0.312471	-1.052916
H560	H	1.028247	0.020862	-0.719582
H561	H	1.361580	0.354196	-0.386249
C562	C	0.093267	-0.211141	-0.148324
C563	C	0.426601	0.122192	0.185010
C564	C	0.759934	0.455526	0.518343
C565	C	0.061901	-0.181703	-0.181958
C566	C	0.395234	0.151630	0.151375
C567	C	0.728567	0.484964	0.484708
H568	H	0.111790	-0.188414	-0.125673
H569	H	0.445123	0.144920	0.207660
H570	H	0.778457	0.478253	0.540993
H571	H	0.071946	-0.233891	-0.128288
H572	H	0.405279	0.099443	0.205045
H573	H	0.738613	0.432776	0.538379
H574	H	0.117345	-0.231076	-0.168201
H575	H	0.450679	0.102257	0.165132
H576	H	0.784012	0.435590	0.498466
H577	H	0.037820	-0.161770	-0.162081
H578	H	0.371153	0.171563	0.171252
H579	H	0.704487	0.504896	0.504586
H580	H	0.083224	-0.158944	-0.201996
H581	H	0.416557	0.174389	0.131337
H582	H	0.749891	0.507723	0.464671
H583	H	0.661380	-0.345963	-0.702666
H584	H	0.994714	-0.012629	-0.369333
H585	H	1.328047	0.320704	-0.036000
C586	C	0.344449	-0.177622	-0.114933
C587	C	0.677782	0.155712	0.218400
C588	C	1.011116	0.489045	0.551733
C589	C	0.313084	-0.148184	-0.148570
C590	C	0.646417	0.185149	0.184763
C591	C	0.979750	0.518482	0.518097
H592	H	0.362975	-0.154894	-0.092286
H593	H	0.696308	0.178440	0.241047
H594	H	1.029641	0.511773	0.574380
H595	H	0.323126	-0.200367	-0.094894
H596	H	0.656460	0.132966	0.238439
H597	H	0.989793	0.466299	0.571772
H598	H	0.368524	-0.197562	-0.134810
H599	H	0.701858	0.135772	0.198524
H600	H	1.035191	0.469105	0.531857
H601	H	0.289006	-0.128247	-0.128694
H602	H	0.622339	0.205086	0.204639
H603	H	0.955673	0.538419	0.537973
H604	H	0.334408	-0.125430	-0.168611
H605	H	0.667742	0.207904	0.164722
H606	H	1.001075	0.541237	0.498056
C607	C	0.233970	-0.118791	-0.119298
C608	C	0.567303	0.214543	0.214035
C609	C	0.900636	0.547876	0.547368
C610	C	0.198469	-0.148185	-0.148584
C611	C	0.531802	0.185148	0.184749
C612	C	0.865135	0.518482	0.518082
H613	H	0.215447	-0.096057	-0.096659
H614	H	0.548780	0.237276	0.236675
H615	H	0.882114	0.570610	0.570008
H616	H	0.255243	-0.141540	-0.099251
H617	H	0.588577	0.191794	0.234082
H618	H	0.921910	0.525127	0.567416
H619	H	0.255290	-0.098833	-0.142126
H620	H	0.588623	0.234500	0.191207
H621	H	0.921957	0.567833	0.524541
H622	H	0.177151	-0.168146	-0.125757
H623	H	0.510484	0.165188	0.207576
H624	H	0.843818	0.498521	0.540910
H625	H	0.177186	-0.125433	-0.168633
H626	H	0.510520	0.207900	0.164700
H627	H	0.843853	0.541234	0.498033
H628	H	0.556474	-0.191211	-0.191398
H629	H	0.889807	0.142122	0.141935
H630	H	1.223140	0.475455	0.475268
C631	C	0.888624	-0.118925	-0.730503
C632	C	1.221957	0.214408	-0.397169
C633	C	1.555290	0.547742	-0.063836
C634	C	0.859259	-0.148276	-0.694986
C635	C	1.192592	0.185057	-0.361653
C636	C	1.525925	0.518390	-0.028320
H637	H	0.911323	-0.096234	-0.711991
H638	H	1.244657	0.237100	-0.378658
H639	H	1.577990	0.570433	-0.045325
H640	H	0.908611	-0.141704	-0.751796
H641	H	1.241944	0.191629	-0.418463
H642	H	1.575278	0.524962	-0.085130
H643	H	0.865850	-0.098924	-0.751801
H644	H	1.199183	0.234409	-0.418468
H645	H	1.532516	0.567742	-0.085134
H646	H	0.882032	-0.168280	-0.673690
H647	H	1.215366	0.165054	-0.340357
H648	H	1.548699	0.498387	-0.007024
H649	H	0.839270	-0.125494	-0.673684
H650	H	1.172603	0.207839	-0.340350
H651	H	1.505936	0.541173	-0.007017
H652	H	0.816101	-0.549975	-0.312704
H653	H	1.149434	-0.216641	0.020629
H654	H	1.482768	0.116692	0.353963
H655	H	0.695013	-1.052497	-0.191318
H656	H	1.028346	-0.719164	0.142015
H657	H	1.361679	-0.385830	0.475348
C658	C	0.818728	-1.113802	-0.315269
C659	C	1.152062	-0.780468	0.018064
C660	C	1.485395	-0.447135	0.351398
C661	C	0.825775	-1.060101	-0.322331
C662	C	1.159108	-0.726767	0.011003
C663	C	1.492442	-0.393434	0.344336
H664	H	0.841403	-1.132300	-0.337992
H665	H	1.174736	-0.798966	-0.004659
H666	H	1.508069	-0.465633	0.328675
H667	H	0.826411	-1.122762	-0.280154
H668	H	1.159744	-0.789428	0.053180
H669	H	1.493077	-0.456095	0.386513
H670	H	0.783593	-1.122764	-0.322881
H671	H	1.116926	-0.789430	0.010452
H672	H	1.450259	-0.456097	0.343785
H673	H	0.860910	-1.051138	-0.314714
H674	H	1.194243	-0.717804	0.018619
H675	H	1.527577	-0.384471	0.351952
H676	H	0.818096	-1.051137	-0.357454
H677	H	1.151430	-0.717804	-0.024121
H678	H	1.484763	-0.384470	0.309213
H679	H	0.849740	-0.157777	-0.801809
H680	H	1.183073	0.175556	-0.468475
H681	H	1.516406	0.508889	-0.135142
H682	H	0.661471	-0.702310	-0.157806
H683	H	0.994805	-0.368977	0.175528
H684	H	1.328138	-0.035644	0.508861
H685	H	0.694974	-0.953447	-0.191308
H686	H	1.028307	-0.620114	0.142026
H687	H	1.361641	-0.286780	0.475359
H688	H	0.694857	-0.550160	-0.191228
H689	H	1.028190	-0.216826	0.142105
H690	H	1.361524	0.116507	0.475439
C691	C	0.855208	-0.152297	-0.981654
C692	C	1.188541	0.181036	-0.648321
C693	C	1.521874	0.514369	-0.314987
C694	C	0.825838	-0.181647	-0.946140
C695	C	1.159171	0.151687	-0.612807
C696	C	1.492504	0.485020	-0.279474
H697	H	0.877908	-0.129609	-0.963141
H698	H	1.211241	0.203725	-0.629808
H699	H	1.544575	0.537058	-0.296474
H700	H	0.875194	-0.175078	-1.002947
H701	H	1.208528	0.158255	-0.669614
H702	H	1.541861	0.491589	-0.336280
H703	H	0.832437	-0.132294	-1.002954
H704	H	1.165770	0.201039	-0.669620
H705	H	1.499104	0.534372	-0.336287
H706	H	0.848608	-0.201653	-0.924843
H707	H	1.181942	0.131681	-0.591510
H708	H	1.515275	0.465014	-0.258176
H709	H	0.805849	-0.158863	-0.924839
H710	H	1.139183	0.174470	-0.591505
H711	H	1.472516	0.507804	-0.258172
H712	H	0.816317	-0.191153	-1.052983
H713	H	1.149651	0.142181	-0.719650
H714	H	1.482984	0.475514	-0.386316
C715	C	0.655936	-0.351472	-0.522847
C716	C	0.989269	-0.018139	-0.189513
C717	C	1.322602	0.315195	0.143820
C718	C	0.685306	-0.322118	-0.558356
C719	C	1.018639	0.011215	-0.225023
C720	C	1.351973	0.344548	0.108310
H721	H	0.633228	-0.374151	-0.541363
H722	H	0.966561	-0.040817	-0.208029
H723	H	1.299894	0.292516	0.125304
H724	H	0.678702	-0.371481	-0.501556
H725	H	1.012035	-0.038148	-0.168223
H726	H	1.345369	0.295186	0.165110
H727	H	0.635952	-0.328690	-0.501544
H728	H	0.969286	0.004644	-0.168211
H729	H	1.302619	0.337977	0.165123
H730	H	0.705292	-0.344901	-0.579657
H731	H	1.038626	-0.011567	-0.246323
H732	H	1.371959	0.321766	0.087010
H733	H	0.662537	-0.302108	-0.579656
H734	H	0.995870	0.031225	-0.246322
H735	H	1.329203	0.364559	0.087011
