data_functionalizedCrystal
_audit_creation_method	'MofGen! by Chris Wilmer'
_symmetry_space_group_name_H-M	'P1'
_symmetry_Int_Tables_number	1
_symmetry_cell_setting	triclinic
loop_
_symmetry_equiv_pos_as_xyz
  x,y,z
_cell_length_a	10.654550
_cell_length_b	15.944486
_cell_length_c	9.130313
_cell_angle_alpha	89.998643
_cell_angle_beta	90.003780
_cell_angle_gamma	83.978658
loop_
_atom_site_label
_atom_site_type_symbol
_atom_site_fract_x
_atom_site_fract_y
_atom_site_fract_z
O1	O	-1.666267	-0.117976	-0.121910
O2	O	-1.300639	-0.129216	-0.121886
O3	O	-1.493480	-0.001376	-0.121899
O4	O	-1.473426	-0.245817	-0.121898
O5	O	-1.493477	-0.001379	0.121700
O6	O	-1.300637	-0.129220	0.121713
O7	O	-1.666264	-0.117979	0.121688
Cu8	Cu	-1.483450	-0.123600	0.143943
Cu9	Cu	-1.483453	-0.123596	-0.144141
O10	O	-1.473424	-0.245820	0.121701
C11	C	-1.253851	-0.128393	-0.000084
C12	C	-1.114440	-0.125924	-0.000075
C13	C	-1.492660	0.029922	-0.000103
C14	C	-1.490207	0.123185	-0.000112
C15	C	-1.713053	-0.118803	-0.000117
C16	C	-1.852463	-0.121272	-0.000136
N17	N	-1.483458	-0.123602	0.346566
C18	C	-1.033955	-0.201194	-0.000096
C19	C	-0.902965	-0.198869	-0.000121
C20	C	-0.932959	-0.045996	-0.000111
C21	C	-1.063946	-0.048322	-0.000075
C22	C	-1.016637	-0.289454	-0.000108
C23	C	-0.885647	-0.287129	-0.000133
C24	C	-1.602257	0.414075	-0.000105
C25	C	-1.544016	0.353384	0.120009
C26	C	-1.481295	0.458875	-0.000087
C27	C	-1.543986	0.353394	-0.120160
C28	C	-1.485680	0.293940	-0.000102
C29	C	-1.423020	0.399414	0.120127
C30	C	-1.423007	0.399430	-0.120151
C31	C	-1.364678	0.338757	-0.000006
C32	C	-1.478772	0.553891	-0.000078
C33	C	-1.488194	0.198926	-0.000101
C34	C	-1.474260	0.722883	-0.000093
C35	C	-1.476765	0.629625	-0.000079
N36	N	-1.483456	-0.123587	-0.346763
C37	C	-1.568869	-0.067014	0.423212
C38	C	-1.568866	-0.067004	0.576549
C39	C	-1.398035	-0.180178	0.576580
C40	C	-1.398034	-0.180183	0.423246
C41	C	-1.667500	-0.001676	0.423195
C42	C	-1.667497	-0.001666	0.576532
H43	H	-1.129474	0.012971	-0.000037
O44	O	-1.305925	-0.241210	0.659300
H45	H	-1.321910	-0.306792	0.629869
O46	O	-1.305895	-0.241207	0.340573
H47	H	-1.358728	-0.282365	0.270702
O48	O	-1.054855	-0.335125	0.135008
H49	H	-1.007248	-0.400471	0.134991
O50	O	-1.355277	0.426486	-0.254632
H51	H	-1.353266	0.495938	-0.252779
O52	O	-1.640220	0.083837	0.368044
H53	H	-1.626853	0.125706	0.462648
O54	O	-1.355307	0.426262	0.254790
H55	H	-1.405233	0.407383	0.354257
O56	O	-1.063391	-0.326686	-0.139404
H57	H	-0.982247	-0.344548	-0.213281
O58	O	-1.787928	-0.028756	0.360168
H59	H	-1.851778	-0.043107	0.450757
O60	O	-1.231594	0.295556	0.000093
H61	H	-1.163725	0.343822	0.001099
O62	O	-1.628200	0.079166	0.639506
H63	H	-1.531322	0.087786	0.601906
O64	O	-1.611785	0.326372	0.254506
H65	H	-1.546333	0.282726	0.320519
O66	O	-1.611780	0.326413	-0.254670
H67	H	-1.612243	0.256834	-0.253982
O68	O	-0.878500	0.037701	-0.000117
H69	H	-0.773894	0.026675	-0.000150
O70	O	-0.824660	-0.322458	0.139165
H71	H	-0.843788	-0.389152	0.152194
O72	O	-0.829772	-0.331181	-0.135170
H73	H	-0.870912	-0.298772	-0.234375
O74	O	-1.735227	0.457469	0.000030
H75	H	-1.785139	0.439146	0.099883
O76	O	-1.795068	-0.020741	0.631677
H77	H	-1.868746	0.028113	0.591093
