data_functionalizedCrystal
_audit_creation_method	'MofGen! by Chris Wilmer'
_symmetry_space_group_name_H-M	'P1'
_symmetry_Int_Tables_number	1
_symmetry_cell_setting	triclinic
loop_
_symmetry_equiv_pos_as_xyz
  x,y,z
_cell_length_a	16.959455
_cell_length_b	19.120786
_cell_length_c	16.959447
_cell_angle_alpha	92.473411
_cell_angle_beta	90.020374
_cell_angle_gamma	92.461932
loop_
_atom_site_label
_atom_site_type_symbol
_atom_site_fract_x
_atom_site_fract_y
_atom_site_fract_z
Zn1	Zn	1.194928	-0.279672	0.433590
Zn2	Zn	1.189199	-0.397140	0.295764
Zn3	Zn	1.062756	-0.279694	0.301413
Zn4	Zn	1.057073	-0.397088	0.427892
O5	O	1.125989	-0.338399	0.364665
O6	O	1.304779	-0.295267	0.415329
O7	O	1.172407	-0.381592	0.185901
O8	O	1.085065	-0.181401	0.323696
O9	O	1.300570	-0.381570	0.314068
O10	O	1.182172	-0.181385	0.420806
O11	O	1.079510	-0.295305	0.190051
O12	O	0.951392	-0.295254	0.318170
O13	O	1.075379	-0.381481	0.539260
O14	O	0.947216	-0.381503	0.411093
O15	O	1.176661	-0.295216	0.543447
O16	O	1.166896	-0.495424	0.308542
O17	O	1.069823	-0.495385	0.405616
C18	C	0.920624	-0.338376	0.364626
C19	C	0.832767	-0.338383	0.364627
C20	C	0.459090	-0.383292	0.311915
C21	C	0.463488	-0.293563	0.417508
C22	C	0.546034	-0.293552	0.417489
C23	C	0.585113	-0.338412	0.364684
C24	C	0.541644	-0.383284	0.311896
C25	C	0.589509	-0.248686	0.470281
C26	C	0.672060	-0.248673	0.470265
C27	C	0.711140	-0.293530	0.417455
C28	C	0.667667	-0.338403	0.364665
C29	C	0.706745	-0.383263	0.311859
C30	C	0.663273	-0.428133	0.259065
C31	C	0.580724	-0.428141	0.259086
C32	C	0.793689	-0.293523	0.417433
C33	C	0.789299	-0.383255	0.311840
C34	C	1.117143	-0.520890	0.355865
C35	C	1.113431	-0.598960	0.352127
C36	C	1.162207	-0.635569	0.400972
C37	C	1.158716	-0.708925	0.397461
C38	C	1.106452	-0.745670	0.345100
C39	C	1.057670	-0.709056	0.296253
C40	C	1.061158	-0.635702	0.299769
C41	C	1.093391	-0.967156	0.331957
C42	C	1.089908	-1.040515	0.328444
C43	C	1.190954	-1.040379	0.429653
C44	C	1.194440	-0.967023	0.433160
C45	C	1.145655	-0.930416	0.384316
C46	C	1.102884	-0.820651	0.341508
C47	C	1.149220	-0.855436	0.387913
C48	C	1.332156	-0.338422	0.364704
C49	C	1.420012	-0.338432	0.364721
C50	C	1.126025	-0.338341	0.570836
C51	C	1.126040	-0.338316	0.658694
C52	C	1.134891	-0.155195	0.373516
C53	C	1.138685	-0.077124	0.377289
C54	C	1.126001	-0.338406	0.159298
C55	C	1.126149	-0.338233	0.071450
C56	C	1.073405	-0.383156	1.027996
C57	C	1.178871	-0.293328	1.032351
C58	C	1.178849	-0.293342	0.949804
C59	C	1.126105	-0.338265	0.906349
C60	C	1.073383	-0.383173	0.945441
C61	C	1.231576	-0.248440	0.910706
C62	C	1.231557	-0.248454	0.828154
C63	C	1.178808	-0.293374	0.784698
C64	C	1.126084	-0.338283	0.823795
C65	C	1.073340	-0.383206	0.780340
C66	C	1.020610	-0.428112	0.819436
C67	C	1.020635	-0.428093	0.901985
C68	C	1.178784	-0.293393	0.702149
C69	C	1.073318	-0.383224	0.697786
H70	H	0.545322	-0.464671	0.216103
H71	H	1.236998	-0.937107	0.475796
H72	H	1.060333	-0.850578	0.298874
H73	H	0.707448	-0.212137	0.513253
O74	O	1.006788	-0.744718	0.245476
C75	C	0.871291	-0.767252	0.205859
C76	C	0.928824	-0.726836	0.263429
H77	H	0.808246	-0.752799	0.220343
H78	H	0.877110	-0.825977	0.211736
H79	H	0.885938	-0.752864	0.142832
H80	H	0.914215	-0.741166	0.326481
H81	H	0.922995	-0.668121	0.257483
H82	H	1.230671	-1.070193	0.469419
O83	O	0.969489	-0.471785	0.777127
C84	C	0.954249	-0.566656	0.679359
C85	C	1.012225	-0.517232	0.727215
H86	H	0.988779	-0.603423	0.639005
H87	H	0.914495	-0.534449	0.642206
H88	H	0.916546	-0.598720	0.721487
H89	H	1.049980	-0.485158	0.685144
H90	H	1.051925	-0.549480	0.764378
O91	O	0.551578	-0.205191	0.521684
C92	C	0.528058	-0.171229	0.657842
C93	C	0.571053	-0.220543	0.599715
H94	H	0.543800	-0.183613	0.720942
H95	H	0.461582	-0.178948	0.648849
H96	H	0.547005	-0.114578	0.646760
H97	H	0.552171	-0.277213	0.610761
H98	H	0.637520	-0.212763	0.608721
H99	H	1.047345	-1.070432	0.285805
O100	O	1.200093	-0.819823	0.438734
C101	C	1.335598	-0.797216	0.478284
C102	C	1.278069	-0.837610	0.420692
H103	H	1.398655	-0.811570	0.463707
H104	H	1.321060	-0.811623	0.541330
H105	H	1.329666	-0.738503	0.472417
H106	H	1.283969	-0.896332	0.426487
H107	H	1.292623	-0.823144	0.357669
H108	H	0.423692	-0.419822	0.268929
H109	H	1.053669	-0.937356	0.292185
O110	O	1.230214	-0.249767	1.074518
C111	C	1.366330	-0.215650	1.101400
C112	C	1.308270	-0.265040	1.053605
H113	H	1.429449	-0.227970	1.084498
H114	H	1.357362	-0.223354	1.167126
H115	H	1.355153	-0.159020	1.087921
H116	H	1.319411	-0.321689	1.067018
H117	H	1.317251	-0.257276	0.987894
O118	O	1.282883	-0.204782	0.952794
C119	C	1.387458	-0.115656	0.948415
C120	C	1.329407	-0.165078	0.900648
H121	H	1.425077	-0.083531	0.906275
H122	H	1.427282	-0.147865	0.985490
H123	H	1.352945	-0.078946	0.988853
H124	H	1.363857	-0.201797	0.860167
H125	H	1.289583	-0.132824	0.863624
O126	O	1.013695	-0.600105	0.252435
C127	C	0.910951	-0.517336	0.245667
C128	C	0.964647	-0.557617	0.299362
H129	H	0.871294	-0.482964	0.283585
H130	H	0.872940	-0.556165	0.207653
H131	H	0.948915	-0.483021	0.206003
H132	H	0.926745	-0.591933	0.339074
H133	H	1.002662	-0.518751	0.337322
H134	H	1.030472	-0.419715	1.059831
H135	H	1.030360	-0.419800	0.662411
O136	O	0.969495	-0.471690	0.940085
C137	C	0.922760	-0.511441	1.065332
C138	C	0.980728	-0.462044	1.022280
H139	H	0.931810	-0.503649	1.131793
H140	H	0.933881	-0.568099	1.046420
H141	H	0.859627	-0.499109	1.049647
H142	H	1.043882	-0.474313	1.037943
H143	H	0.969538	-0.405401	1.041194
H144	H	1.274492	-0.211888	0.796330
H145	H	1.221717	-0.256833	0.670320
H146	H	0.695101	-0.464662	0.216074
O147	O	0.425407	-0.250012	0.468725
C148	C	0.300180	-0.210292	0.515584
C149	C	0.343209	-0.259641	0.457525
H150	H	0.233715	-0.218071	0.506560
H151	H	0.319077	-0.153622	0.504532
H152	H	0.315898	-0.222683	0.578688
H153	H	0.327513	-0.247313	0.394400
H154	H	0.324309	-0.316296	0.468645
H155	H	0.829080	-0.256992	0.460419
H156	H	0.821110	-0.419783	0.268836
H157	H	1.204770	-0.605656	0.443606
H158	H	1.198442	-0.738728	0.437229
