data_functionalizedCrystal
_audit_creation_method	'MofGen! by Chris Wilmer'
_symmetry_space_group_name_H-M	'P1'
_symmetry_Int_Tables_number	1
_symmetry_cell_setting	triclinic
loop_
_symmetry_equiv_pos_as_xyz
  x,y,z
_cell_length_a	29.839131
_cell_length_b	13.897449
_cell_length_c	13.897441
_cell_angle_alpha	90.020722
_cell_angle_beta	89.965828
_cell_angle_gamma	89.958747
loop_
_atom_site_label
_atom_site_type_symbol
_atom_site_fract_x
_atom_site_fract_y
_atom_site_fract_z
Zn1	Zn	-0.178845	-1.474523	-0.545405
Zn2	Zn	-0.253979	-1.474356	-0.384094
Zn3	Zn	-0.178864	-1.313218	-0.384118
Zn4	Zn	-0.253949	-1.313127	-0.545341
O5	O	-0.216409	-1.393806	-0.464739
O6	O	-0.188817	-1.609483	-0.524024
O7	O	-0.244035	-1.452949	-0.249115
O8	O	-0.115994	-1.334724	-0.405550
O9	O	-0.244017	-1.609360	-0.405509
O10	O	-0.115981	-1.453234	-0.524047
O11	O	-0.188848	-1.334562	-0.249133
O12	O	-0.188819	-1.178225	-0.405487
O13	O	-0.243966	-1.334569	-0.680331
O14	O	-0.243984	-1.178158	-0.523937
O15	O	-0.188788	-1.453145	-0.680378
O16	O	-0.316842	-1.452861	-0.405447
O17	O	-0.316820	-1.334407	-0.523914
C18	C	-0.216400	-1.143192	-0.464708
C19	C	-0.216407	-1.035978	-0.464718
C20	C	-0.216406	-0.839683	-0.464736
C21	C	-0.216406	-0.948915	-0.464723
C22	C	-0.333132	-1.393632	-0.464692
C23	C	-0.383066	-1.393646	-0.464703
C24	C	-0.692708	-1.455598	-0.403144
C25	C	-0.880381	-1.455717	-0.403181
O26	O	-0.904645	-1.508252	-0.350804
N27	N	-0.903851	-1.394006	-0.464812
C28	C	-0.880400	-1.332266	-0.526443
O29	O	-0.904669	-1.279788	-0.578872
C30	C	-0.692728	-1.332153	-0.526409
C31	C	-0.669260	-1.393860	-0.464767
C32	C	-0.669241	-1.517301	-0.341507
C33	C	-0.622326	-1.517267	-0.341495
C34	C	-0.598878	-1.455529	-0.403119
C35	C	-0.622345	-1.393826	-0.464755
C36	C	-0.669277	-1.270418	-0.588044
C37	C	-0.622356	-1.270397	-0.588032
C38	C	-0.598889	-1.332105	-0.526390
C39	C	-0.551981	-1.332055	-0.526366
N40	N	-0.528512	-1.393765	-0.464735
C41	C	-0.551960	-1.455502	-0.403111
C42	C	-0.978930	-1.332329	-0.526454
C43	C	-1.025848	-1.332356	-0.526462
C44	C	-1.025827	-1.455808	-0.403201
C45	C	-0.978908	-1.455775	-0.403190
C46	C	-0.955461	-1.394039	-0.464823
C47	C	-0.453434	-1.455426	-0.403089
C48	C	-0.406514	-1.455383	-0.403080
C49	C	-0.406540	-1.331935	-0.526343
C50	C	-0.453455	-1.331974	-0.526350
C51	C	-0.476901	-1.393727	-0.464720
O52	O	-0.527689	-1.279554	-0.578723
O53	O	-0.527683	-1.507988	-0.350706
C54	C	-0.739624	-1.455632	-0.403156
C55	C	-0.763091	-1.393929	-0.464792
C56	C	-0.739643	-1.332191	-0.526416
C57	C	-0.810009	-1.393955	-0.464800
C58	C	-0.833457	-1.455693	-0.403176
C59	C	-0.809987	-1.517403	-0.341545
C60	C	-0.763072	-1.517369	-0.341532
C61	C	-0.763113	-1.270481	-0.588047
C62	C	-0.810028	-1.270519	-0.588054
C63	C	-0.833476	-1.332256	-0.526430
C64	C	-0.099231	-1.394007	-0.464809
C65	C	-0.049296	-1.394093	-0.464838
C66	C	-0.216371	-1.393865	-0.716333
C67	C	-0.216355	-1.393891	-0.823547
C68	C	-0.216415	-0.645399	-0.464762
C69	C	-0.216411	-0.752613	-0.464748
C70	C	-0.216343	-1.393910	-0.910616
C71	C	-0.216322	-1.393938	-1.019849
C72	C	-0.216414	-1.393803	-0.214125
C73	C	-0.216304	-1.393965	-0.106912
H74	H	-0.472518	-1.505713	-0.352906
Br75	Br	-0.374669	-1.539133	-0.319415
Br76	Br	-0.590484	-1.601031	-0.257848
H77	H	-0.829087	-1.567669	-0.291366
Br78	Br	-0.701114	-1.186677	-0.671717
H79	H	-0.603268	-1.220125	-0.638225
H80	H	-0.829131	-1.220261	-0.638249
Br81	Br	-0.485305	-1.248204	-0.609984
Br82	Br	-0.731231	-1.601122	-0.257873
H83	H	-0.387441	-1.281666	-0.576514
Br84	Br	-0.947064	-1.539523	-0.319529
H85	H	-0.744025	-1.220208	-0.638230
H86	H	-1.044926	-1.506077	-0.353025
Br87	Br	-1.057691	-1.248592	-0.610108
Br88	Br	-0.947116	-1.248535	-0.610108
H89	H	-0.688328	-1.567580	-0.291326
