data_functionalizedCrystal
_audit_creation_method	'MofGen! by Chris Wilmer'
_symmetry_space_group_name_H-M	'P1'
_symmetry_Int_Tables_number	1
_symmetry_cell_setting	triclinic
loop_
_symmetry_equiv_pos_as_xyz
  x,y,z
_cell_length_a	13.033304
_cell_length_b	13.032721
_cell_length_c	13.032268
_cell_angle_alpha	76.710373
_cell_angle_beta	90.922231
_cell_angle_gamma	105.183092
loop_
_atom_site_label
_atom_site_type_symbol
_atom_site_fract_x
_atom_site_fract_y
_atom_site_fract_z
Zn1	Zn	-1.451133	0.335813	-0.818131
Zn2	Zn	-0.951133	0.835813	-0.318131
Zn3	Zn	-1.451019	0.490910	-0.663066
Zn4	Zn	-0.951019	0.990910	-0.163066
Zn5	Zn	-1.301797	0.330110	-0.623681
Zn6	Zn	-0.801797	0.830110	-0.123681
Zn7	Zn	-1.250931	0.535896	-0.818005
Zn8	Zn	-0.750931	1.035896	-0.318005
O9	O	-1.363720	0.423183	-0.730721
O10	O	-0.863720	0.923183	-0.230721
O11	O	-1.597353	0.339947	-0.814097
O12	O	-1.097353	0.839947	-0.314097
O13	O	-1.452464	0.448366	-0.511621
O14	O	-0.952464	0.948366	-0.011621
O15	O	-1.342943	0.179836	-0.633046
O16	O	-0.842943	0.679836	-0.133046
O17	O	-1.597269	0.453897	-0.700172
O18	O	-1.097269	0.953897	-0.200172
O19	O	-1.452659	0.184026	-0.775907
O20	O	-0.952659	0.684026	-0.275907
O21	O	-1.342832	0.330227	-0.482685
O22	O	-0.842832	0.830227	0.017315
O23	O	-1.148815	0.373848	-0.632923
O24	O	-0.648815	0.873848	-0.132923
O25	O	-1.256248	0.530569	-0.964242
O26	O	-0.756248	1.030569	-0.464242
O27	O	-1.111443	0.525038	-0.775692
O28	O	-0.611443	1.025038	-0.275692
O29	O	-1.403335	0.383568	-0.964335
O30	O	-0.903335	0.883568	-0.464335
O31	O	-1.403141	0.647909	-0.700049
O32	O	-0.903141	1.147909	-0.200049
O33	O	-1.256137	0.680960	-0.813882
O34	O	-0.756137	1.180960	-0.313882
C35	C	-1.092212	0.453707	-0.700021
C36	C	-0.592212	0.953707	-0.200021
C37	C	-0.976052	0.466795	-0.686914
C38	C	-0.476052	0.966795	-0.186914
C39	C	-0.924277	0.416366	-0.737549
C40	C	-0.424277	0.916366	-0.237549
C41	C	-0.804220	0.429892	-0.724004
C42	C	-0.304220	0.929892	-0.224004
C43	C	-1.324132	0.703595	-0.761252
C44	C	-0.824132	1.203595	-0.261252
C45	C	-1.307287	0.823551	-0.774359
C46	C	-0.807287	1.323551	-0.274359
C47	C	-0.636290	0.392534	-0.761534
C48	C	-0.136290	0.892534	-0.261534
C49	C	-0.752448	0.379456	-0.774646
C50	C	-0.252448	0.879456	-0.274646
C51	C	-1.324130	0.462723	-1.003262
C52	C	-0.824130	0.962723	-0.503262
C53	C	-1.307259	0.479572	-1.119403
C54	C	-0.807259	0.979572	-0.619403
C55	C	-1.403488	0.141675	-0.700097
C56	C	-0.903488	0.641675	-0.200097
C57	C	-1.420434	0.021713	-0.687047
C58	C	-0.920434	0.521713	-0.187047
C59	C	-1.372560	0.860644	-0.723934
C60	C	-0.872560	1.360644	-0.223934
C61	C	-1.355151	0.984625	-0.737479
C62	C	-0.855151	1.484625	-0.237479
C63	C	-1.372514	0.414352	-1.171228
C64	C	-0.872514	0.914352	-0.671228
C65	C	-1.355079	0.431765	-1.291266
C66	C	-0.855079	0.931765	-0.791266
C67	C	-1.403227	0.383712	-0.459238
C68	C	-0.903227	0.883712	0.040762
C69	C	-1.420343	0.366535	-0.343088
C70	C	-0.920343	0.866535	0.156912
H71	H	-0.796999	0.326258	-0.828021
H72	H	-0.296999	0.826258	-0.328021
O73	O	-0.917040	0.537248	-0.616206
O74	O	-0.417040	1.037248	-0.116206
H75	H	-0.952446	0.504370	-0.534535
H76	H	-0.452446	1.004370	-0.034535
H77	H	-1.489117	0.297795	-1.298594
H78	H	-0.989117	0.797795	-0.798594
H79	H	-1.238479	0.548295	-1.163899
H80	H	-0.738479	1.048295	-0.663899
O81	O	-1.463680	0.781144	-0.653486
O82	O	-0.963680	1.281144	-0.153486
H83	H	-1.463061	0.696240	-0.653910
H84	H	-0.963061	1.196240	-0.153910
H85	H	-1.489214	0.961688	-0.633849
H86	H	-0.989214	1.461688	-0.133849
O87	O	-0.983280	0.345907	-0.808256
O88	O	-0.483280	0.845907	-0.308256
H89	H	-1.068318	0.346345	-0.807803
H90	H	-0.568318	0.846345	-0.307803
H91	H	-1.441285	0.345619	-1.126729
H92	H	-0.941285	0.845619	-0.626729
O93	O	-0.745221	0.500351	-0.653291
O94	O	-0.245221	1.000351	-0.153291
H95	H	-0.660181	0.499924	-0.653753
H96	H	-0.160181	0.999924	-0.153753
O97	O	-1.264038	1.064123	-0.807945
O98	O	-0.764038	1.564123	-0.307945
H99	H	-1.264654	1.149026	-0.807516
H100	H	-0.764654	1.649026	-0.307516
O101	O	-1.216178	0.903052	-0.844820
O102	O	-0.716178	1.403052	-0.344820
H103	H	-1.216794	0.987955	-0.844392
H104	H	-0.716794	1.487955	-0.344392
O105	O	-1.263966	0.522812	-1.350188
O106	O	-0.763966	1.022812	-0.850188
H107	H	-1.264572	0.522205	-1.435224
H108	H	-0.764572	1.022205	-0.935224
