data_functionalizedCrystal
_audit_creation_method	'MofGen! by Chris Wilmer'
_symmetry_space_group_name_H-M	'P1'
_symmetry_Int_Tables_number	1
_symmetry_cell_setting	triclinic
loop_
_symmetry_equiv_pos_as_xyz
  x,y,z
_cell_length_a	14.044220
_cell_length_b	14.044220
_cell_length_c	12.503572
_cell_angle_alpha	93.847060
_cell_angle_beta	86.152852
_cell_angle_gamma	93.188878
loop_
_atom_site_label
_atom_site_type_symbol
_atom_site_fract_x
_atom_site_fract_y
_atom_site_fract_z
O1	O	1.272121	0.235210	0.089202
O2	O	0.995448	0.226906	0.089229
O3	O	1.129632	0.092722	0.089211
O4	O	1.137937	0.369394	0.089220
O5	O	1.139727	0.082618	-0.089432
O6	O	1.005543	0.216802	-0.089414
O7	O	1.282216	0.225106	-0.089441
Cu8	Cu	1.144801	0.220031	-0.105739
Cu9	Cu	1.132862	0.231981	0.105527
O10	O	1.148032	0.359290	-0.089423
C11	C	0.964873	0.218218	-0.000089
C12	C	0.858730	0.207374	-0.000078
C13	C	1.131043	0.052048	-0.000109
C14	C	1.120199	-0.054094	-0.000105
N15	N	1.124465	0.240379	0.254121
C16	C	0.664393	0.187547	-0.000100
C17	C	0.613264	0.264461	-0.000102
C18	C	0.505128	0.253429	-0.000115
C19	C	0.772539	0.198578	-0.000088
C20	C	1.312790	0.233794	-0.000121
C21	C	1.418933	0.244638	-0.000124
C22	C	1.146620	0.399964	-0.000101
C23	C	1.157464	0.506107	-0.000098
C24	C	1.177291	0.700444	-0.000105
C25	C	1.100376	0.751574	-0.000098
C26	C	1.111408	0.859710	-0.000102
C27	C	1.166261	0.592298	-0.000101
N28	N	1.153205	0.211626	-0.254333
C29	C	1.112105	0.252732	0.473237
C30	C	1.165562	0.199276	0.526557
C31	C	1.158685	0.206149	0.648481
C32	C	1.118982	0.245859	0.351302
H33	H	0.626957	0.113419	-0.000109
N34	N	1.229433	0.135354	0.468976
N35	N	1.219923	0.047695	0.481443
H36	H	1.265026	0.002543	0.440778
H37	H	0.650702	0.338595	-0.000095
H38	H	1.251419	0.737880	-0.000116
H39	H	1.026242	0.714135	-0.000091
H40	H	1.061177	0.303655	0.519152
