data_functionalizedCrystal
_audit_creation_method	'MofGen! by Chris Wilmer'
_symmetry_space_group_name_H-M	'P1'
_symmetry_Int_Tables_number	1
_symmetry_cell_setting	triclinic
loop_
_symmetry_equiv_pos_as_xyz
  x,y,z
_cell_length_a	11.169417
_cell_length_b	11.169416
_cell_length_c	11.169409
_cell_angle_alpha	90.028030
_cell_angle_beta	90.019824
_cell_angle_gamma	90.013967
loop_
_atom_site_label
_atom_site_type_symbol
_atom_site_fract_x
_atom_site_fract_y
_atom_site_fract_z
Zn1	Zn	-1.834939	0.477682	-0.678579
Zn2	Zn	-1.334939	0.977682	-0.178579
Zn3	Zn	-1.834819	0.678422	-0.477911
Zn4	Zn	-1.334819	1.178422	0.022089
Zn5	Zn	-1.634225	0.477755	-0.477913
Zn6	Zn	-1.134225	0.977755	0.022087
Zn7	Zn	-1.634223	0.678325	-0.678556
Zn8	Zn	-1.134223	1.178325	-0.178556
O9	O	-1.734552	0.578046	-0.578239
O10	O	-1.234552	1.078046	-0.078239
O11	O	-2.002873	0.504321	-0.651968
O12	O	-1.502873	1.004321	-0.151968
O13	O	-1.808161	0.651875	-0.309961
O14	O	-1.308161	1.151875	0.190039
O15	O	-1.660902	0.309796	-0.504542
O16	O	-1.160902	0.809796	-0.004542
O17	O	-2.002785	0.651804	-0.504538
O18	O	-1.502785	1.151804	-0.004538
O19	O	-1.808365	0.309742	-0.651971
O20	O	-1.308365	0.809742	-0.151971
O21	O	-1.660785	0.504445	-0.309963
O22	O	-1.160785	1.004445	0.190037
O23	O	-1.466275	0.504351	-0.504520
O24	O	-0.966275	1.004351	-0.004520
O25	O	-1.660898	0.651637	-0.846508
O26	O	-1.160898	1.151637	-0.346508
O27	O	-1.466274	0.651708	-0.651931
O28	O	-0.966274	1.151708	-0.151931
O29	O	-1.808363	0.504226	-0.846525
O30	O	-1.308363	1.004226	-0.346525
O31	O	-1.808158	0.846359	-0.504516
O32	O	-1.308158	1.346359	-0.004516
O33	O	-1.660781	0.846287	-0.651929
O34	O	-1.160781	1.346287	-0.151929
C35	C	-1.422727	0.578028	-0.578224
C36	C	-0.922727	1.078028	-0.078224
C37	C	-1.289327	0.578049	-0.578246
C38	C	-0.789327	1.078049	-0.078246
C39	C	-1.734489	0.889871	-0.578246
C40	C	-1.234489	1.389871	-0.078246
C41	C	-1.734572	1.023271	-0.578289
C42	C	-1.234572	1.523271	-0.078289
C43	C	-1.734644	0.577913	-0.891282
C44	C	-1.234644	1.077913	-0.391282
C45	C	-1.734683	0.577856	-1.024682
C46	C	-1.234683	1.077856	-0.524682
C47	C	-2.047594	0.578065	-0.578256
C48	C	-1.547594	1.078065	-0.078256
C49	C	-2.180994	0.578073	-0.578263
C50	C	-1.680994	1.078073	-0.078263
C51	C	-1.734635	1.265004	-0.578272
C52	C	-1.234635	1.765004	-0.078272
C53	C	-1.734640	1.131604	-0.578317
C54	C	-1.234640	1.631604	-0.078317
C55	C	-1.734529	0.578092	-0.266415
C56	C	-1.234529	1.078092	0.233585
C57	C	-1.734722	0.577811	-0.133015
C58	C	-1.234722	1.077811	0.366985
