data_functionalizedCrystal
_audit_creation_method	'MofGen! by Chris Wilmer'
_symmetry_space_group_name_H-M	'P1'
_symmetry_Int_Tables_number	1
_symmetry_cell_setting	triclinic
loop_
_symmetry_equiv_pos_as_xyz
  x,y,z
_cell_length_a	23.532407
_cell_length_b	23.532407
_cell_length_c	22.010155
_cell_angle_alpha	90.000423
_cell_angle_beta	89.996931
_cell_angle_gamma	97.151322
loop_
_atom_site_label
_atom_site_type_symbol
_atom_site_fract_x
_atom_site_fract_y
_atom_site_fract_z
O1	O	0.755264	-0.069127	-0.050455
O2	O	0.589400	-0.079130	-0.050474
O3	O	0.677334	0.008803	-0.050453
O4	O	0.667330	-0.157060	-0.050476
O5	O	0.677318	0.008790	0.050597
O6	O	0.589384	-0.079143	0.050576
O7	O	0.755248	-0.069140	0.050595
Cu8	Cu	0.672315	-0.074143	0.059812
Cu9	Cu	0.672333	-0.074127	-0.059691
O10	O	0.667314	-0.157073	0.050574
C11	C	0.568176	-0.078882	0.000049
C12	C	0.504959	-0.078116	0.000042
C13	C	0.105856	-0.125350	0.000063
C14	C	0.046456	-0.124638	0.000067
O15	O	0.009711	-0.168424	0.000083
N16	N	0.023830	-0.072362	0.000073
C17	C	0.060607	-0.020794	0.000082
O18	O	0.035908	0.023737	0.000088
C19	C	0.120006	-0.021506	0.000082
C20	C	0.142629	-0.073785	0.000070
C21	C	0.128479	-0.177625	0.000051
C22	C	0.187876	-0.178336	0.000046
C23	C	0.224649	-0.126772	0.000053
C24	C	0.202025	-0.074497	0.000065
C25	C	0.156783	0.030062	0.000096
C26	C	0.216185	0.029345	0.000097
C27	C	0.238808	-0.022934	0.000084
C28	C	0.298194	-0.023643	0.000067
N29	N	0.320820	-0.075920	0.000061
C30	C	0.284048	-0.127484	0.000054
C31	C	-0.064135	-0.019302	0.000082
C32	C	-0.123533	-0.018589	0.000077
C33	C	-0.137680	-0.122434	0.000063
C34	C	-0.078281	-0.123146	0.000064
C35	C	-0.041509	-0.071578	0.000076
C36	C	0.408784	-0.128974	0.000043
C37	C	0.468186	-0.129680	0.000035
C38	C	0.482329	-0.025836	0.000052
C39	C	0.422932	-0.025129	0.000057
C40	C	0.386160	-0.076702	0.000054
O41	O	0.334974	0.020119	0.000054
O42	O	0.308755	-0.172007	0.000055
C43	C	0.677071	0.030013	0.000074
C44	C	0.676305	0.093230	0.000078
C45	C	0.776472	-0.069388	0.000071
C46	C	0.839689	-0.070154	0.000073
C47	C	0.667577	-0.178283	0.000046
C48	C	0.668343	-0.241500	0.000037
N49	N	0.672305	-0.074153	0.143865
C50	C	0.723539	0.492333	0.000050
C51	C	0.722827	0.551733	0.000046
O52	O	0.766613	0.588478	0.000028
N53	N	0.670551	0.574359	0.000040
C54	C	0.618983	0.537582	0.000033
O55	O	0.574452	0.562281	0.000027
C56	C	0.619695	0.478182	0.000033
C57	C	0.671974	0.455560	0.000045
C58	C	0.775814	0.469710	0.000061
C59	C	0.776525	0.410313	0.000067
C60	C	0.724961	0.373540	0.000062
C61	C	0.672685	0.396164	0.000051
C62	C	0.568127	0.441406	0.000022
C63	C	0.568844	0.382004	0.000022
C64	C	0.621123	0.359381	0.000034
C65	C	0.621832	0.299995	0.000052
N66	N	0.674109	0.277368	0.000057
C67	C	0.725673	0.314141	0.000062
C68	C	0.617491	0.662324	0.000031
C69	C	0.616778	0.721722	0.000035
C70	C	0.720623	0.735869	0.000047
C71	C	0.721335	0.676470	0.000047
C72	C	0.669767	0.639698	0.000037
C73	C	0.727163	0.189405	0.000075
C74	C	0.727869	0.130003	0.000083
C75	C	0.624025	0.115860	0.000069
C76	C	0.623318	0.175257	0.000064
C77	C	0.674891	0.212029	0.000065
O78	O	0.578070	0.263215	0.000067
O79	O	0.770196	0.289433	0.000060
N80	N	0.672347	-0.074112	-0.143744
C81	C	0.711273	-0.035196	0.563653
C82	C	0.711275	-0.035192	0.627261
O83	O	0.744384	-0.002076	0.660160
N84	N	0.672333	-0.074115	0.659072
C85	C	0.633382	-0.113041	0.627272
O86	O	0.600259	-0.146148	0.660170
C87	C	0.633377	-0.113042	0.563665
C88	C	0.672326	-0.074120	0.531858
C89	C	0.750217	0.003723	0.531846
C90	C	0.750215	0.003719	0.468243
C91	C	0.711268	-0.035205	0.436447
C92	C	0.672324	-0.074125	0.468255
C93	C	0.594424	-0.151965	0.531866
C94	C	0.594422	-0.151962	0.468256
C95	C	0.633370	-0.113040	0.436448
C96	C	0.633374	-0.113054	0.372856
N97	N	0.672317	-0.074130	0.341045
C98	C	0.711263	-0.035206	0.372841
C99	C	0.633395	-0.113036	0.760850
C100	C	0.633402	-0.113039	0.824455
C101	C	0.711294	-0.035188	0.824440
C102	C	0.711290	-0.035189	0.760833
C103	C	0.672337	-0.074113	0.729039
C104	C	0.711256	-0.035220	0.239269
C105	C	0.711252	-0.035229	0.175660
C106	C	0.633358	-0.113077	0.175681
C107	C	0.633364	-0.113070	0.239284
C108	C	0.672315	-0.074136	0.271077
O109	O	0.600282	-0.146151	0.339916
O110	O	0.744376	-0.002100	0.339935
H111	H	0.246123	0.071339	0.000107
C112	C	-0.103568	0.083983	0.000091
C113	C	-0.148396	0.038878	0.000085
H114	H	-0.118917	0.119461	0.000103
H115	H	-0.080697	0.081548	-0.035147
H116	H	-0.080694	0.081533	0.035330
H117	H	-0.171267	0.041325	-0.035156
H118	H	-0.171276	0.041314	0.035327
C119	C	0.010873	0.040154	-0.051862
C120	C	-0.023715	0.037386	0.000084
H121	H	0.035826	0.075149	-0.051858
H122	H	-0.012593	0.038275	-0.087093
H123	H	0.032850	0.008919	-0.051858
H124	H	-0.045696	0.068619	0.000078
H125	H	-0.000247	0.039271	0.035324
H126	H	0.582043	0.085909	0.000067
H127	H	0.742971	-0.003534	0.149765
H128	H	0.404512	0.017441	0.000058
C129	C	0.786634	0.264400	-0.051870
C130	C	0.783853	0.229817	0.000079
H131	H	0.821633	0.289346	-0.051865
H132	H	0.755407	0.286380	-0.051873
H133	H	0.784756	0.240926	-0.087103
H134	H	0.785726	0.253291	0.035312
H135	H	0.815088	0.207836	0.000087
C136	C	0.557350	0.033607	-0.051881
C137	C	0.522759	0.030840	0.000063
H138	H	0.582313	0.068596	-0.051868
H139	H	0.533886	0.031743	-0.087114
H140	H	0.579316	0.002364	-0.051883
H141	H	0.500790	0.062082	0.000062
H142	H	0.546225	0.032711	0.035304
H143	H	0.781933	0.035423	0.557728
C144	C	0.517426	-0.228913	0.474665
C145	C	0.551606	-0.194753	0.433308
H146	H	0.490997	-0.255332	0.453089
H147	H	0.497080	-0.205306	0.499471
H148	H	0.541022	-0.249274	0.499474
H149	H	0.528010	-0.174388	0.408501
H150	H	0.571953	-0.218362	0.408491
H151	H	0.601654	-0.144769	0.265183
C152	C	0.516843	-0.164711	0.603391
C153	C	0.551606	-0.194746	0.566818
H154	H	0.490409	-0.191125	0.624969
H155	H	0.496503	-0.141107	0.578577
H156	H	0.540043	-0.141538	0.631437
H157	H	0.528406	-0.217916	0.538768
H158	H	0.571948	-0.218360	0.591634
H159	H	0.601650	-0.144771	0.149783
C160	C	0.835255	0.544712	0.052014
C161	C	0.832499	0.510127	0.000068
H162	H	0.870251	0.569663	0.052018
H163	H	0.833365	0.521244	0.087245
H164	H	0.804021	0.566691	0.052002
H165	H	0.863730	0.488145	0.000082
H166	H	0.834394	0.533598	-0.035172
H167	H	-0.167632	-0.164421	0.000060
H168	H	0.781929	0.035414	0.442349
C169	C	0.448226	-0.232257	0.000025
C170	C	0.493052	-0.187150	0.000026
H171	H	0.463577	-0.267735	0.000024
H172	H	0.425355	-0.229815	-0.035209
H173	H	0.425352	-0.229818	0.035268
H174	H	0.515923	-0.189588	-0.035219
H175	H	0.515933	-0.189593	0.035264
C176	C	0.823907	0.696434	0.000054
C177	C	0.778802	0.651607	0.000050
H178	H	0.859386	0.681085	0.000050
H179	H	0.821464	0.719303	0.035292
H180	H	0.821466	0.719310	-0.035185
H181	H	0.781241	0.628733	0.035292
H182	H	0.781247	0.628728	-0.035191
C183	C	0.780068	0.810875	-0.051908
C184	C	0.777307	0.776296	0.000043
H185	H	0.815062	0.835830	-0.051911
H186	H	0.748834	0.832845	-0.051906
H187	H	0.778191	0.787399	-0.087140
H188	H	0.779179	0.799772	0.035275
H189	H	0.808549	0.754324	0.000046
C190	C	0.150582	0.118811	-0.051820
C191	C	0.131930	0.087532	0.000115
H192	H	0.135243	0.154295	-0.051804
H193	H	0.137932	0.097608	-0.087058
H194	H	0.191222	0.125751	-0.051815
H195	H	0.091290	0.080589	0.000108
H196	H	0.144577	0.108740	0.035362
C197	C	0.816610	0.123774	-0.051854
C198	C	0.785338	0.105136	0.000091
H199	H	0.852085	0.108420	-0.051851
H200	H	0.823562	0.164408	-0.051852
H201	H	0.795391	0.111125	-0.087089
H202	H	0.806555	0.117789	0.035327
H203	H	0.778388	0.064493	0.000095
H204	H	0.378851	-0.170970	0.000042
H205	H	0.819097	0.391900	0.000074
C206	C	0.167907	-0.280907	0.000043
C207	C	0.212737	-0.235804	0.000043
H208	H	0.183254	-0.316387	0.000047
H209	H	0.145039	-0.278465	-0.035194
H210	H	0.145031	-0.278462	0.035283
H211	H	0.235611	-0.238247	-0.035199
H212	H	0.235614	-0.238247	0.035284
C213	C	0.514773	0.654316	0.000030
C214	C	0.560802	0.621906	0.000032
H215	H	0.479777	0.629364	0.000034
H216	H	0.516661	0.677775	-0.035207
H217	H	0.516660	0.677781	0.035270
H218	H	0.558917	0.598443	-0.035210
H219	H	0.558913	0.598437	0.035273
H220	H	0.098544	-0.219617	0.000048
C221	C	0.556408	-0.189995	0.767264
C222	C	0.590582	-0.155833	0.725904
H223	H	0.529980	-0.216418	0.745691
H224	H	0.536061	-0.166390	0.792072
H225	H	0.580009	-0.210354	0.792072
H226	H	0.566981	-0.135471	0.701099
H227	H	0.610930	-0.179441	0.701085
H228	H	0.574207	0.740136	0.000036
C229	C	0.810074	-0.001237	0.844027
C230	C	0.754104	0.007601	0.859399
H231	H	0.836500	0.025176	0.865614
H232	H	0.815647	0.004339	0.801600
H233	H	0.816035	-0.039217	0.854452
H234	H	0.748141	0.045581	0.848970
H235	H	0.748529	0.002031	0.901836
C236	C	0.788842	-0.022453	0.310780
C237	C	0.754074	0.007575	0.274209
H238	H	0.815274	0.003966	0.332352
H239	H	0.809184	-0.046056	0.285966
H240	H	0.765646	-0.045625	0.338832
H241	H	0.777270	0.030744	0.246154
H242	H	0.733730	0.031188	0.299026
H243	H	0.525555	0.459814	0.000009
H244	H	0.526850	0.352066	0.000013
C245	C	0.520744	0.155304	0.000047
C246	C	0.565852	0.200128	0.000050
H247	H	0.485267	0.170656	0.000029
H248	H	0.523172	0.132439	0.035289
H249	H	0.523196	0.132423	-0.035188
H250	H	0.563403	0.223006	0.035287
H251	H	0.563423	0.223002	-0.035196
C252	C	-0.098245	-0.225718	0.000050
C253	C	-0.053418	-0.180613	0.000057
H254	H	-0.082896	-0.261197	0.000051
H255	H	-0.121112	-0.223274	-0.035187
H256	H	-0.121123	-0.223278	0.035290
H257	H	-0.030542	-0.183051	-0.035185
H258	H	-0.030541	-0.183058	0.035298
H259	H	0.743004	-0.003495	0.734939
H260	H	0.601692	-0.144738	0.850348
