data_functionalizedCrystal
_audit_creation_method	'MofGen! by Chris Wilmer'
_symmetry_space_group_name_H-M	'P1'
_symmetry_Int_Tables_number	1
_symmetry_cell_setting	triclinic
loop_
_symmetry_equiv_pos_as_xyz
  x,y,z
_cell_length_a	10.654541
_cell_length_b	14.185328
_cell_length_c	10.654545
_cell_angle_alpha	75.342116
_cell_angle_beta	95.515322
_cell_angle_gamma	104.659771
loop_
_atom_site_label
_atom_site_type_symbol
_atom_site_fract_x
_atom_site_fract_y
_atom_site_fract_z
O1	O	1.693472	0.083384	-0.202009
O2	O	1.327996	0.083393	-0.218821
O3	O	1.519136	0.083388	-0.027676
O4	O	1.502332	0.083389	-0.393155
O5	O	1.467842	-0.083454	0.023603
O6	O	1.276702	-0.083449	-0.167543
O7	O	1.642178	-0.083457	-0.150731
Cu8	Cu	1.454756	-0.098687	-0.154455
Cu9	Cu	1.515417	0.098622	-0.215097
O10	O	1.451038	-0.083452	-0.341876
C11	C	1.255551	-0.000027	-0.191949
C12	C	1.116108	-0.000024	-0.188259
C13	C	1.088143	-0.000010	-0.416828
C14	C	1.008652	0.000001	-0.529374
C15	C	0.877635	0.000002	-0.525899
C16	C	0.826105	-0.000011	-0.409864
C17	C	0.905595	-0.000022	-0.297317
C18	C	1.036615	-0.000020	-0.300806
C19	C	0.933558	-0.000043	-0.068749
C20	C	1.064579	-0.000037	-0.072224
C21	C	0.882029	-0.000056	0.047286
C22	C	0.961522	-0.000060	0.159833
C23	C	1.092547	-0.000059	0.156352
C24	C	1.144069	-0.000048	0.040322
N25	N	1.412100	-0.237464	-0.111801
C26	C	1.683308	-0.605077	-0.383092
C27	C	1.651025	-0.710103	-0.350763
C28	C	1.497384	-0.710085	-0.197016
C29	C	1.529649	-0.605057	-0.229336
C30	C	1.622613	-0.552561	-0.322374
C31	C	1.468954	-0.552541	-0.168618
C32	C	1.501222	-0.447522	-0.200931
C33	C	1.594185	-0.395019	-0.293962
C34	C	1.654881	-0.447542	-0.354687
C35	C	1.375998	-0.605039	-0.075574
C36	C	1.315303	-0.552523	-0.014855
C37	C	1.347564	-0.447502	-0.047175
C38	C	1.440527	-0.394999	-0.140206
C39	C	1.286868	-0.394979	0.013550
C40	C	1.319136	-0.289960	-0.018763
C41	C	1.472795	-0.289980	-0.172519
C42	C	1.714624	-0.000035	-0.177604
C43	C	1.854068	-0.000032	-0.181296
C44	C	1.492255	-0.000031	0.044761
C45	C	1.488565	-0.000025	0.184202
N46	N	1.558084	0.237399	-0.257741
C47	C	1.477919	-0.000031	-0.414314
C48	C	1.481612	-0.000031	-0.553757
C49	C	1.544502	0.181871	0.128305
C50	C	1.570740	0.272818	0.165867
C51	C	1.567272	0.272819	0.296885
C52	C	1.537558	0.181863	0.390348
C53	C	1.511319	0.090916	0.352786
C54	C	1.514795	0.090924	0.221762
C55	C	1.455373	-0.090978	0.408681
C56	C	1.458850	-0.090982	0.277665
C57	C	1.425659	-0.181934	0.502144
C58	C	1.399429	-0.272884	0.464584
C59	C	1.402901	-0.272881	0.333557
C60	C	1.432612	-0.181929	0.240103
H61	H	0.919555	-0.000069	0.254299
H62	H	1.194830	0.000011	-0.419676
O63	O	1.745011	-0.396491	-0.445225
C64	C	1.687838	-0.335744	-0.548873
H65	H	1.578295	-0.367407	-0.551691
H66	H	1.729153	-0.334557	-0.644219
H67	H	1.709833	-0.256148	-0.534522
O68	O	1.344876	-0.707055	-0.044164
C69	C	1.456665	-0.742132	0.004867
H70	H	1.546941	-0.681616	-0.031852
H71	H	1.454741	-0.812404	-0.029385
H72	H	1.458707	-0.760740	0.115483
O73	O	1.773716	-0.553965	-0.473330
C74	C	1.877434	-0.493217	-0.416232
H75	H	1.842384	-0.477473	-0.327522
H76	H	1.914547	-0.419375	-0.489566
H77	H	1.959237	-0.533680	-0.385438
H78	H	1.157261	-0.000072	0.248003
O79	O	1.370337	-0.361255	0.555292
C80	C	1.245610	-0.416587	0.526975
H81	H	1.187044	-0.363367	0.465311
H82	H	1.194188	-0.457836	0.621356
H83	H	1.254738	-0.473300	0.471361
O84	O	1.271317	-0.000181	0.037142
C85	C	1.296187	-0.086610	0.125185
H86	H	1.219994	-0.115426	0.202777
H87	H	1.396689	-0.067185	0.173067
H88	H	1.291989	-0.147109	0.070906
H89	H	1.050622	0.000009	-0.623847
O90	O	1.563203	-0.238868	-0.262757
C91	C	1.666921	-0.178121	-0.205659
H92	H	1.631871	-0.162376	-0.116949
H93	H	1.704034	-0.104278	-0.278994
H94	H	1.748724	-0.218583	-0.174865
O95	O	1.599396	0.361190	0.075091
C96	C	1.507019	0.416554	0.076825
H97	H	1.413803	0.363357	0.119914
H98	H	1.485555	0.457807	-0.026481
H99	H	1.546999	0.473265	0.138442
H100	H	1.435447	-0.181918	0.133418
O101	O	1.710072	-0.760962	-0.409916
C102	C	1.799068	-0.692103	-0.498931
H103	H	1.770140	-0.617248	-0.528815
H104	H	1.798395	-0.722466	-0.588419
H105	H	1.900631	-0.680914	-0.451540
O106	O	1.377196	-0.361202	0.296977
C107	C	1.268977	-0.366615	0.209552
H108	H	1.207921	-0.314993	0.223891
H109	H	1.207825	-0.447048	0.228323
H110	H	1.303674	-0.342182	0.105749
H111	H	0.719418	-0.000023	-0.407041
O112	O	0.800324	0.000147	-0.635180
C113	C	0.750295	0.086570	-0.666564
H114	H	0.751673	0.115370	-0.575665
H115	H	0.646268	0.067143	-0.706507
H116	H	0.812486	0.147081	-0.742898
H117	H	1.422830	-0.181927	0.608823
O118	O	1.592516	0.361132	0.333430
C119	C	1.483609	0.366549	0.394299
H120	H	1.392901	0.314950	0.361373
H121	H	1.471855	0.446989	0.366634
H122	H	1.498005	0.342090	0.504106
H123	H	0.775344	-0.000061	0.050109
H124	H	1.421696	-0.752841	-0.121259
H125	H	1.620459	-0.309505	-0.320268
H126	H	1.239615	-0.595279	0.060901
O127	O	1.259980	-0.238982	0.040081
C128	C	1.124915	-0.264670	0.014392
H129	H	1.104770	-0.293566	-0.077886
H130	H	1.084297	-0.195603	0.001026
H131	H	1.076461	-0.325612	0.099259
H132	H	1.211186	-0.437737	0.089311
H133	H	1.547343	0.181879	0.021622
H134	H	1.534720	0.181872	0.497025
