data_functionalizedCrystal
_audit_creation_method	'MofGen! by Chris Wilmer'
_symmetry_space_group_name_H-M	'P1'
_symmetry_Int_Tables_number	1
_symmetry_cell_setting	triclinic
loop_
_symmetry_equiv_pos_as_xyz
  x,y,z
_cell_length_a	19.288862
_cell_length_b	19.288859
_cell_length_c	17.766277
_cell_angle_alpha	89.993887
_cell_angle_beta	90.026014
_cell_angle_gamma	96.865496
loop_
_atom_site_label
_atom_site_type_symbol
_atom_site_fract_x
_atom_site_fract_y
_atom_site_fract_z
O1	O	-0.921352	0.086641	-0.062884
O2	O	-0.588019	0.419975	0.270449
O3	O	-0.254686	0.753308	0.603783
O4	O	-0.719091	0.098332	-0.062822
O5	O	-0.385758	0.431665	0.270511
O6	O	-0.052424	0.764998	0.603845
O7	O	-0.826068	-0.008644	-0.062850
O8	O	-0.492735	0.324689	0.270483
O9	O	-0.159402	0.658022	0.603816
O10	O	-0.814375	0.193617	-0.062856
O11	O	-0.481042	0.526950	0.270478
O12	O	-0.147708	0.860284	0.603811
O13	O	-0.826050	-0.008650	0.062338
O14	O	-0.492716	0.324684	0.395671
O15	O	-0.159383	0.658017	0.729005
O16	O	-0.719072	0.098326	0.062367
O17	O	-0.385739	0.431660	0.395700
O18	O	-0.052406	0.764993	0.729033
O19	O	-0.921333	0.086636	0.062304
O20	O	-0.588000	0.419969	0.395638
O21	O	-0.254667	0.753302	0.728971
Cu22	Cu	-0.820201	0.092481	0.073766
Cu23	Cu	-0.486868	0.425814	0.407100
Cu24	Cu	-0.153535	0.759147	0.740433
Cu25	Cu	-0.820223	0.092487	-0.074284
Cu26	Cu	-0.486890	0.425820	0.259050
Cu27	Cu	-0.153557	0.759154	0.592383
O28	O	-0.814356	0.193612	0.062333
O29	O	-0.481023	0.526945	0.395666
O30	O	-0.147690	0.860278	0.729000
C31	C	-0.693205	0.097953	-0.000220
C32	C	-0.359872	0.431286	0.333114
C33	C	-0.026539	0.764620	0.666447
C34	C	-0.616102	0.096825	-0.000196
C35	C	-0.282768	0.430158	0.333138
C36	C	0.050565	0.763491	0.666471
C37	C	-0.571404	0.159593	-0.000207
C38	C	-0.238071	0.492927	0.333126
C39	C	0.095263	0.826260	0.666460
C40	C	-0.498957	0.158533	-0.000211
C41	C	-0.165623	0.491866	0.333122
C42	C	0.167710	0.825200	0.666455
C43	C	-0.471211	0.094701	-0.000220
C44	C	-0.137877	0.428034	0.333114
C45	C	0.195456	0.761368	0.666447
C46	C	-0.515918	0.031924	-0.000204
C47	C	-0.182585	0.365258	0.333129
C48	C	0.150749	0.698591	0.666462
C49	C	-0.588364	0.032986	-0.000192
C50	C	-0.255030	0.366320	0.333141
C51	C	0.078303	0.699653	0.666474
C52	C	-0.362956	0.044525	-0.044097
C53	C	-0.029623	0.377858	0.289236
C54	C	0.303711	0.711191	0.622570
C55	C	-0.290512	0.043465	-0.044114
C56	C	0.042822	0.376799	0.289220
C57	C	0.376155	0.710132	0.622553
C58	C	-0.247765	0.091423	-0.000253
C59	C	0.085569	0.424757	0.333080
C60	C	0.418902	0.758090	0.666413
C61	C	-0.277470	0.140452	0.043614
C62	C	0.055863	0.473786	0.376947
C63	C	0.389197	0.807119	0.710280
C64	C	-0.349915	0.141514	0.043626
C65	C	-0.016582	0.474847	0.376959
C66	C	0.316751	0.808181	0.710292
C67	C	-0.392657	0.093543	-0.000232
C68	C	-0.059323	0.426876	0.333101
C69	C	0.274010	0.760209	0.666434
C70	C	-0.124511	0.153047	-0.000268
C71	C	0.208822	0.486380	0.333065
C72	C	0.542156	0.819713	0.666398
C73	C	-0.052063	0.151984	-0.000268
C74	C	0.281270	0.485317	0.333065
C75	C	0.614604	0.818651	0.666399
C76	C	-0.069026	0.025373	-0.000268
C77	C	0.264307	0.358707	0.333065
C78	C	0.597641	0.692040	0.666398
C79	C	-0.141472	0.026438	-0.000261
C80	C	0.191861	0.359771	0.333072
C81	C	0.525194	0.693104	0.666406
C82	C	-0.169210	0.090276	-0.000265
C83	C	0.164123	0.423610	0.333069
C84	C	0.497456	0.756943	0.666402
C85	C	-0.825683	-0.034523	-0.000256
C86	C	-0.492350	0.298810	0.333077
C87	C	-0.159017	0.632143	0.666410
C88	C	-0.824556	-0.111627	-0.000257
C89	C	-0.491223	0.221706	0.333076
C90	C	-0.157889	0.555039	0.666409
C91	C	0.052781	0.087017	-0.000286
C92	C	0.386114	0.420350	0.333047
C93	C	0.719448	0.753683	0.666381
C94	C	-0.024322	0.088151	-0.000275
C95	C	0.309012	0.421485	0.333058
C96	C	0.642345	0.754818	0.666392
C97	C	-0.879699	-0.675668	-0.000294
C98	C	-0.546366	-0.342335	0.333039
C99	C	-0.213033	-0.009002	0.666372
C100	C	-0.880765	-0.603222	-0.000288
C101	C	-0.547431	-0.269889	0.333045
C102	C	-0.214098	0.063445	0.666379
C103	C	-0.817995	-0.558515	-0.000269
C104	C	-0.484662	-0.225181	0.333064
C105	C	-0.151329	0.108152	0.666398
C106	C	-0.754156	-0.586259	-0.000237
C107	C	-0.420823	-0.252926	0.333096
C108	C	-0.087489	0.080408	0.666430
C109	C	-0.753093	-0.658704	-0.000236
C110	C	-0.419759	-0.325371	0.333098
C111	C	-0.086426	0.007962	0.666431
C112	C	-0.771189	-0.437239	-0.044112
C113	C	-0.437856	-0.103905	0.289221
C114	C	-0.104522	0.229428	0.622555
C115	C	-0.772255	-0.364795	-0.044118
C116	C	-0.438922	-0.031462	0.289215
C117	C	-0.105588	0.301872	0.622549
C118	C	-0.821273	-0.335069	-0.000269
C119	C	-0.487940	-0.001735	0.333064
C120	C	-0.154606	0.331598	0.666398
C121	C	-0.869236	-0.377797	0.043576
C122	C	-0.535903	-0.044463	0.376909
C123	C	-0.202570	0.288870	0.710243
C124	C	-0.868173	-0.450242	0.043577
C125	C	-0.534840	-0.116909	0.376910
C126	C	-0.201506	0.216425	0.710244
C127	C	-0.819142	-0.479959	-0.000270
C128	C	-0.485808	-0.146626	0.333064
C129	C	-0.152475	0.186708	0.666397
C130	C	-0.886263	-0.228778	-0.000289
C131	C	-0.552930	0.104556	0.333045
C132	C	-0.219597	0.437889	0.666378
C133	C	-0.887326	-0.156330	-0.000278
C134	C	-0.553993	0.177004	0.333056
C135	C	-0.220659	0.510337	0.666389
C136	C	-0.760715	-0.139368	-0.000234
C137	C	-0.427382	0.193965	0.333099
C138	C	-0.094049	0.527299	0.666432
C139	C	-0.759655	-0.211815	-0.000238
C140	C	-0.426321	0.121518	0.333096
C141	C	-0.092988	0.454852	0.666429
C142	C	-0.822431	-0.256516	-0.000269
C143	C	-0.489097	0.076818	0.333065
C144	C	-0.155764	0.410151	0.666398
C145	C	-0.814741	0.219491	-0.000263
C146	C	-0.481408	0.552824	0.333071
C147	C	-0.148075	0.886158	0.666404
C148	C	-0.815868	0.296595	-0.000267
C149	C	-0.482535	0.629928	0.333067
C150	C	-0.149202	0.963261	0.666400
N151	N	-0.820191	0.092476	0.177897
N152	N	-0.486857	0.425809	0.511230
N153	N	-0.153524	0.759142	0.844563
N154	N	-0.820239	0.092486	-0.178414
N155	N	-0.486906	0.425820	0.154919
N156	N	-0.153573	0.759153	0.488253
C157	C	-0.867575	0.045130	0.217271
C158	C	-0.534242	0.378463	0.550604
C159	C	-0.200909	0.711797	0.883938
C160	C	-0.867579	0.045127	0.296073
C161	C	-0.534246	0.378460	0.629406
C162	C	-0.200913	0.711793	0.962739
C163	C	-0.820205	0.092481	0.335497
C164	C	-0.486872	0.425814	0.668830
C165	C	-0.153539	0.759148	1.002164
C166	C	-0.772812	0.139831	0.296113
C167	C	-0.439478	0.473164	0.629447
C168	C	-0.106145	0.806497	0.962780
C169	C	-0.772804	0.139828	0.217313
C170	C	-0.439471	0.473161	0.550646
C171	C	-0.106138	0.806494	0.883980
C172	C	-0.810905	0.155769	0.460335
C173	C	-0.477572	0.489102	0.793669
C174	C	-0.144238	0.822436	1.127002
C175	C	-0.810917	0.155773	0.539134
C176	C	-0.477584	0.489106	0.872467
C177	C	-0.144251	0.822439	1.205801
C178	C	-0.820224	0.092489	0.578543
C179	C	-0.486891	0.425823	0.911877
C180	C	-0.153557	0.759156	1.245210
C181	C	-0.829533	0.029200	0.539144
C182	C	-0.496200	0.362533	0.872478
C183	C	-0.162866	0.695866	1.205811
C184	C	-0.829526	0.029197	0.460344
C185	C	-0.496192	0.362530	0.793677
C186	C	-0.162859	0.695864	1.127011
C187	C	-0.820208	0.092489	0.420943
C188	C	-0.486874	0.425822	0.754276
C189	C	-0.153541	0.759156	1.087610
C190	C	-0.867616	0.045136	0.703364
C191	C	-0.534282	0.378470	1.036697
C192	C	-0.200949	0.711803	1.370030
C193	C	-0.867615	0.045132	0.782167
C194	C	-0.534281	0.378465	1.115500
C195	C	-0.200948	0.711799	1.448834
C196	C	-0.772850	0.139842	0.782206
C197	C	-0.439517	0.473175	1.115539
C198	C	-0.106184	0.806509	1.448873
C199	C	-0.772848	0.139840	0.703404
C200	C	-0.439515	0.473174	1.036738
C201	C	-0.106181	0.806507	1.370071
C202	C	-0.820234	0.092488	0.663988
C203	C	-0.486901	0.425821	0.997321
C204	C	-0.153567	0.759155	1.330655
H205	H	-0.374098	0.181433	0.079346
H206	H	-0.040765	0.514766	0.412680
H207	H	0.292568	0.848100	0.746013
H208	H	-0.906167	0.006570	0.328137
H209	H	-0.572834	0.339904	0.661470
H210	H	-0.239500	0.673237	0.994804
Br211	Br	-0.708539	0.204100	0.649962
Br212	Br	-0.375206	0.537434	0.983295
Br213	Br	-0.041873	0.870767	1.316628
H214	H	-0.937379	-0.265175	-0.000313
H215	H	-0.604046	0.068158	0.333020
H216	H	-0.270713	0.401491	0.666353
Br217	Br	-0.478265	-0.054706	-0.000208
Br218	Br	-0.144932	0.278628	0.333126
Br219	Br	0.188402	0.611961	0.666459
H220	H	-0.907225	-0.485028	0.079278
H221	H	-0.573892	-0.151695	0.412612
H222	H	-0.240559	0.181638	0.745945
H223	H	-0.734238	0.178386	0.328217
H224	H	-0.400904	0.511720	0.661550
H225	H	-0.067571	0.845053	0.994883
Br226	Br	-0.708549	0.204102	0.835704
Br227	Br	-0.375216	0.537436	1.169038
Br228	Br	-0.041882	0.870769	1.502371
H229	H	-0.734217	0.178383	0.185254
H230	H	-0.400884	0.511716	0.518587
H231	H	-0.067551	0.845050	0.851920
Br232	Br	-0.438284	0.243725	-0.000222
Br233	Br	-0.104950	0.577058	0.333111
Br234	Br	0.228383	0.910391	0.666444
H235	H	-0.242667	0.179504	0.079330
H236	H	0.090667	0.512837	0.412663
H237	H	0.424000	0.846171	0.745996
Br238	Br	-0.842152	-0.056691	0.406876
Br239	Br	-0.508819	0.276642	0.740209
Br240	Br	-0.175486	0.609976	1.073542
Br241	Br	-0.162160	0.239682	-0.000268
Br242	Br	0.171173	0.573015	0.333066
Br243	Br	0.504507	0.906349	0.666399
H244	H	-0.930817	-0.712060	-0.000315
H245	H	-0.597483	-0.378727	0.333018
H246	H	-0.264150	-0.045393	0.666351
Br247	Br	-0.931922	-0.019129	0.649868
Br248	Br	-0.598589	0.314204	0.983201
Br249	Br	-0.265256	0.647538	1.316535
H250	H	-0.837111	-0.022332	0.571230
H251	H	-0.503778	0.311002	0.904563
H252	H	-0.170444	0.644335	1.237896
H253	H	-0.707677	-0.234398	-0.000221
H254	H	-0.374343	0.098936	0.333113
H255	H	-0.041010	0.432269	0.666446
Br256	Br	-0.973962	-0.118686	-0.000317
Br257	Br	-0.640628	0.214647	0.333017
Br258	Br	-0.307295	0.547981	0.666350
Br259	Br	-0.931922	-0.019134	0.835608
Br260	Br	-0.598588	0.314199	1.168941
Br261	Br	-0.265255	0.647533	1.502275
H262	H	-0.593983	0.211575	-0.000211
H263	H	-0.260650	0.544909	0.333122
H264	H	0.072684	0.878242	0.666455
H265	H	-0.709607	-0.102968	-0.000212
H266	H	-0.376274	0.230365	0.333121
H267	H	-0.042941	0.563699	0.666454
Br268	Br	-0.798291	0.241664	0.592596
Br269	Br	-0.464958	0.574998	0.925930
Br270	Br	-0.131625	0.908331	1.259263
Br271	Br	-0.707171	-0.306816	-0.103630
Br272	Br	-0.373837	0.026518	0.229703
Br273	Br	-0.040504	0.359851	0.563036
H274	H	-0.932745	-0.580634	-0.000310
H275	H	-0.599412	-0.247301	0.333023
H276	H	-0.266079	0.086033	0.666356
H277	H	-0.015670	0.203100	-0.000273
H278	H	0.317663	0.536433	0.333060
H279	H	0.650997	0.869766	0.666394
Br280	Br	-0.031379	-0.061258	-0.000267
Br281	Br	0.301955	0.272075	0.333066
Br282	Br	0.635288	0.605409	0.666400
H283	H	-0.906158	0.006571	0.185180
H284	H	-0.572825	0.339905	0.518514
H285	H	-0.239492	0.673238	0.851847
Br286	Br	-0.202138	-0.058753	-0.000248
Br287	Br	0.131195	0.274580	0.333086
Br288	Br	0.464529	0.607914	0.666419
H289	H	-0.909147	-0.353595	0.079287
H290	H	-0.575814	-0.020262	0.412621
H291	H	-0.242480	0.313071	0.745954
Br292	Br	-0.798343	0.241663	0.406859
Br293	Br	-0.465010	0.574997	0.740192
Br294	Br	-0.131677	0.908330	1.073526
H295	H	-0.731264	-0.461434	-0.079814
H296	H	-0.397930	-0.128100	0.253520
H297	H	-0.064597	0.205233	0.586853
H298	H	-0.266331	0.003546	-0.079836
H299	H	0.067002	0.336879	0.253498
H300	H	0.400335	0.670212	0.586831
H301	H	-0.397756	0.005470	-0.079818
H302	H	-0.064422	0.338803	0.253516
H303	H	0.268911	0.672137	0.586849
H304	H	-0.624757	-0.018129	-0.000183
H305	H	-0.291424	0.315204	0.333150
H306	H	0.041909	0.648538	0.666483
Br307	Br	-0.668968	-0.525587	-0.000204
Br308	Br	-0.335635	-0.192254	0.333129
Br309	Br	-0.002302	0.141080	0.666463
H310	H	-0.701112	-0.681286	-0.000211
H311	H	-0.367779	-0.347953	0.333122
H312	H	-0.034445	-0.014620	0.666455
