data_functionalizedCrystal
_audit_creation_method	'MofGen! by Chris Wilmer'
_symmetry_space_group_name_H-M	'P1'
_symmetry_Int_Tables_number	1
_symmetry_cell_setting	triclinic
loop_
_symmetry_equiv_pos_as_xyz
  x,y,z
_cell_length_a	11.792241
_cell_length_b	19.288865
_cell_length_c	18.366186
_cell_angle_alpha	90.011479
_cell_angle_beta	90.004833
_cell_angle_gamma	83.664832
loop_
_atom_site_label
_atom_site_type_symbol
_atom_site_fract_x
_atom_site_fract_y
_atom_site_fract_z
O1	O	-1.505472	-0.095201	-0.060488
O2	O	-1.005472	0.404799	0.439512
O3	O	-1.174982	-0.105012	-0.060506
O4	O	-0.674982	0.394988	0.439494
O5	O	-1.349777	0.000970	-0.060482
O6	O	-0.849777	0.500970	0.439518
O7	O	-1.330678	-0.201182	-0.060512
O8	O	-0.830678	0.298818	0.439488
O9	O	-1.349747	0.000975	0.060617
O10	O	-0.849747	0.500975	0.560617
O11	O	-1.174953	-0.105007	0.060593
O12	O	-0.674953	0.394993	0.560593
O13	O	-1.505442	-0.095195	0.060611
O14	O	-1.005442	0.404805	0.560611
Zn15	Zn	-1.340193	-0.100100	0.079829
Zn16	Zn	-0.840193	0.399900	0.579829
Zn17	Zn	-1.340232	-0.100107	-0.079724
Zn18	Zn	-0.840232	0.399893	0.420276
O19	O	-1.330648	-0.201177	0.060587
O20	O	-0.830648	0.298823	0.560587
C21	C	-1.349147	0.026852	0.000070
C22	C	-0.849147	0.526852	0.500070
C23	C	-1.347303	0.103966	0.000076
C24	C	-0.847303	0.603966	0.500076
C25	C	-1.132686	-0.104393	0.000042
C26	C	-0.632686	0.395607	0.500042
C27	C	-1.006700	-0.102548	0.000035
C28	C	-0.506700	0.397452	0.500035
C29	C	-1.547739	-0.095814	0.000062
C30	C	-1.047739	0.404186	0.500062
C31	C	-1.673725	-0.097659	0.000063
C32	C	-1.173725	0.402341	0.500063
C33	C	-0.776039	-0.099156	0.000057
C34	C	-0.276039	0.400844	0.500057
C35	C	-0.904396	-0.101041	0.000045
C36	C	-0.404396	0.398959	0.500045
C37	C	-1.331277	-0.227060	0.000034
C38	C	-0.831277	0.272940	0.500034
C39	C	-1.333122	-0.304174	0.000023
C40	C	-0.833122	0.195826	0.500023
N41	N	-1.340174	-0.100095	0.188721
N42	N	-0.840174	0.399905	0.688721
C43	C	-1.449864	0.148080	0.000085
C44	C	-0.949864	0.648080	0.500085
C45	C	-1.448131	0.220537	0.000074
C46	C	-0.948131	0.720537	0.500074
C47	C	-1.343830	0.248877	0.000067
C48	C	-0.843830	0.748877	0.500067
C49	C	-1.241255	0.204754	0.000054
C50	C	-0.741255	0.704754	0.500054
C51	C	-1.242992	0.132298	0.000058
C52	C	-0.742992	0.632298	0.500058
C53	C	-1.261828	0.357632	0.042481
C54	C	-0.761828	0.857632	0.542481
C55	C	-1.260096	0.430086	0.042482
C56	C	-0.760096	0.930086	0.542482
C57	C	-1.338472	0.472353	0.000051
C58	C	-0.838472	0.972353	0.500051
C59	C	-1.418598	0.442158	-0.042371
C60	C	-0.918598	0.942158	0.457629
C61	C	-1.420334	0.369703	-0.042366
C62	C	-0.920334	0.869703	0.457634
C63	C	-1.341936	0.327442	0.000062
C64	C	-0.841936	0.827442	0.500062
C65	C	-1.439161	0.595033	0.000046
C66	C	-0.939161	1.095033	0.500046
C67	C	-1.437423	0.667491	0.000030
C68	C	-0.937423	1.167491	0.500030
C69	C	-1.230545	0.651706	0.000018
C70	C	-0.730545	1.151706	0.500018
C71	C	-1.232285	0.579250	0.000027
C72	C	-0.732285	1.079250	0.500027
C73	C	-1.336596	0.550918	0.000044
C74	C	-0.836596	1.050918	0.500044
N75	N	-1.340259	-0.100107	-0.188615
N76	N	-0.840259	0.399893	0.311385
C77	C	-1.417599	-0.053190	0.226832
C78	C	-0.917599	0.446810	0.726832
C79	C	-1.417606	-0.053186	0.303059
C80	C	-0.917606	0.446814	0.803059
C81	C	-1.340200	-0.100101	0.341173
C82	C	-0.840200	0.399899	0.841173
C83	C	-1.262761	-0.147010	0.303053
C84	C	-0.762761	0.352990	0.803053
C85	C	-1.262748	-0.147007	0.226827
C86	C	-0.762748	0.352993	0.726827
C87	C	-1.325007	-0.163302	0.461924
C88	C	-0.825007	0.336698	0.961924
C89	C	-1.325027	-0.163306	0.538149
C90	C	-0.825027	0.336694	1.038149
C91	C	-1.340232	-0.100110	0.576281
C92	C	-0.840232	0.399890	1.076281
C93	C	-1.355440	-0.036907	0.538179
C94	C	-0.855440	0.463093	1.038179
C95	C	-1.355428	-0.036904	0.461952
C96	C	-0.855428	0.463096	0.961952
C97	C	-1.340204	-0.100109	0.423828
C98	C	-0.840204	0.399891	0.923828
C99	C	-1.417668	-0.053197	0.697047
C100	C	-0.917668	0.446803	1.197047
C101	C	-1.417667	-0.053193	0.773276
C102	C	-0.917667	0.446807	1.273276
C103	C	-1.262828	-0.147022	0.773268
C104	C	-0.762828	0.352978	1.273268
C105	C	-1.262823	-0.147020	0.697041
C106	C	-0.762823	0.352980	1.197041
C107	C	-1.340249	-0.100108	0.658934
C108	C	-0.840249	0.399892	1.158934
H109	H	-1.534802	0.125017	0.000097
H110	H	-1.034802	0.625017	0.500097
H111	H	-1.531651	0.256461	0.000078
H112	H	-1.031651	0.756461	0.500078
Cl113	Cl	-1.570292	0.559413	0.000073
Cl114	Cl	-1.070292	1.059413	0.500073
H115	H	-1.145622	0.674780	0.000010
H116	H	-0.645622	1.174780	0.500010
H117	H	-1.194847	0.454665	0.077020
H118	H	-0.694847	0.954665	0.577020
H119	H	-1.480641	-0.014990	0.195808
H120	H	-0.980641	0.485010	0.695808
Cl121	Cl	-1.305996	-0.242760	0.413994
Cl122	Cl	-0.805996	0.257240	0.913994
H123	H	-1.156333	0.227833	0.000048
H124	H	-0.656333	0.727833	0.500048
Cl125	Cl	-1.515002	0.005783	0.821190
Cl126	Cl	-1.015002	0.505783	1.321190
H127	H	-1.485574	0.345121	-0.076909
H128	H	-0.985574	0.845121	0.423091
H129	H	-1.480656	-0.014989	0.334095
H130	H	-0.980656	0.485011	0.834095
H131	H	-1.482419	0.476570	-0.076922
H132	H	-0.982419	0.976570	0.423078
Cl133	Cl	-1.163291	0.304504	0.095831
Cl134	Cl	-0.663291	0.804504	0.595831
Cl135	Cl	-1.514997	0.005781	0.649141
Cl136	Cl	-1.014997	0.505781	1.149141
Cl137	Cl	-1.566371	0.722950	0.000037
Cl138	Cl	-1.066371	1.222950	0.500037
Cl139	Cl	-1.114046	0.076838	0.000047
Cl140	Cl	-0.614046	0.576838	0.500047
Cl141	Cl	-1.374533	0.042548	0.414055
Cl142	Cl	-0.874533	0.542548	0.914055
H143	H	-1.148769	0.543331	0.000024
H144	H	-0.648769	1.043331	0.500024
H145	H	-1.199798	-0.185218	0.804300
H146	H	-0.699798	0.314782	1.304300
H147	H	-1.367821	0.014554	0.569224
H148	H	-0.867821	0.514554	1.069224
H149	H	-1.199782	-0.185218	0.666008
H150	H	-0.699782	0.314782	1.166008
H151	H	-1.312651	-0.214770	0.569166
H152	H	-0.812651	0.285230	1.069166
Cl153	Cl	-1.165445	-0.205985	0.350966
Cl154	Cl	-0.665445	0.294015	0.850966
H155	H	-1.199699	-0.185203	0.195796
H156	H	-0.699699	0.314797	0.695796
