data_functionalizedCrystal
_audit_creation_method	'MofGen! by Chris Wilmer'
_symmetry_space_group_name_H-M	'P1'
_symmetry_Int_Tables_number	1
_symmetry_cell_setting	triclinic
loop_
_symmetry_equiv_pos_as_xyz
  x,y,z
_cell_length_a	16.959454
_cell_length_b	13.032831
_cell_length_c	13.032268
_cell_angle_alpha	90.886977
_cell_angle_beta	82.849649
_cell_angle_gamma	97.174906
loop_
_atom_site_label
_atom_site_type_symbol
_atom_site_fract_x
_atom_site_fract_y
_atom_site_fract_z
Zn1	Zn	-0.533808	-1.498450	0.780847
Zn2	Zn	-0.651576	-1.520186	0.608869
Zn3	Zn	-0.500789	-1.348310	0.587087
Zn4	Zn	-0.647302	-1.326434	0.758994
O5	O	-0.583369	-1.423345	0.683949
O6	O	-0.565038	-1.645253	0.776295
O7	O	-0.619543	-1.515638	0.462063
O8	O	-0.394566	-1.368285	0.612819
O9	O	-0.651561	-1.661222	0.649944
O10	O	-0.418826	-1.478592	0.755173
O11	O	-0.508760	-1.389361	0.446059
O12	O	-0.504616	-1.201488	0.591629
O13	O	-0.644277	-1.331000	0.905810
O14	O	-0.612259	-1.185416	0.717929
O15	O	-0.560894	-1.457380	0.921865
O16	O	-0.761611	-1.494425	0.628754
O17	O	-0.758471	-1.352077	0.739051
C18	C	-0.788724	-1.423261	0.683921
C19	C	-0.876589	-1.423315	0.683955
C20	C	-0.554392	-1.156135	0.650045
C21	C	-0.542016	-1.041819	0.635565
C22	C	-0.605792	-1.389325	0.952197
C23	C	-0.615348	-1.374828	1.066508
C24	C	-1.246472	-1.349320	0.741386
C25	C	-1.249702	-1.497643	0.626654
C26	C	-1.167152	-1.497608	0.626640
C27	C	-1.124257	-1.423427	0.683998
C28	C	-1.163913	-1.349281	0.741371
C29	C	-1.127488	-1.571746	0.569260
C30	C	-1.044932	-1.571713	0.569243
C31	C	-1.002037	-1.497536	0.626608
C32	C	-1.041698	-1.423388	0.683984
C33	C	-0.998804	-1.349208	0.741342
C34	C	-1.038465	-1.275063	0.798724
C35	C	-1.121018	-1.275104	0.798736
C36	C	-0.919484	-1.497495	0.626597
C37	C	-0.916245	-1.349169	0.741327
C38	C	-0.377216	-1.423454	0.684004
C39	C	-0.289366	-1.423501	0.684027
C40	C	-0.612460	-1.691598	0.717986
C41	C	-0.624856	-1.805911	0.732491
C42	C	-0.589828	-0.982940	0.691506
C43	C	-0.577038	-0.864788	0.676542
C44	C	-0.560982	-1.457291	0.416753
C45	C	-0.551225	-1.471987	0.302467
C46	C	-0.578351	-1.430895	1.125415
C47	C	-0.588227	-1.415913	1.243562
H48	H	-0.881326	-1.288765	0.788040
H49	H	-0.526630	-0.827729	0.617570
H50	H	-0.675257	-0.842968	0.791474
O51	O	-0.661965	-1.304473	1.110743
C52	C	-0.724507	-1.355176	1.180320
H53	H	-0.735477	-1.440259	1.158158
H54	H	-0.781410	-1.317784	1.176908
H55	H	-0.707207	-1.348483	1.262154
H56	H	-1.003530	-1.214661	0.845421
O57	O	-1.291312	-1.569815	0.571003
C58	C	-1.284116	-1.669444	0.606562
H59	H	-1.227698	-1.666539	0.646346
H60	H	-1.280104	-1.725019	0.538226
H61	H	-1.338724	-1.697338	0.663866
O62	O	-0.531721	-1.501279	1.081273
C63	C	-0.452686	-1.475568	1.104638
H64	H	-0.442239	-1.389683	1.123816
H65	H	-0.408734	-1.493347	1.035073
H66	H	-0.443173	-1.522882	1.173914
H67	H	-1.153317	-1.214739	0.845452
H68	H	-1.278768	-1.288956	0.788108
O69	O	-1.169118	-1.643894	0.513605
C70	C	-1.161943	-1.743545	0.549127
H71	H	-1.105519	-1.740684	0.588889
H72	H	-1.157961	-1.799101	0.480773
H73	H	-1.216548	-1.771430	0.606440
O74	O	-0.650051	-1.027038	0.761799
C75	C	-0.724097	-1.003732	0.735841
H76	H	-0.713999	-0.930708	0.686487
H77	H	-0.765443	-0.990767	0.809538
H78	H	-0.752726	-1.070871	0.690508
H79	H	-0.887195	-1.557858	0.579871
O80	O	-1.006481	-1.643708	0.513363
C81	C	-1.015668	-1.634312	0.408001
H82	H	-1.071160	-1.595075	0.400826
H83	H	-1.022663	-1.714418	0.371373
H84	H	-0.960610	-1.585849	0.366605
H85	H	-0.491612	-1.004755	0.576597
O86	O	-0.634741	-1.345490	1.287901
C87	C	-0.634238	-1.346198	1.395992
H88	H	-0.618163	-1.423745	1.420636
H89	H	-0.696079	-1.334048	1.435993
H90	H	-0.588066	-1.281375	1.418752
O91	O	-0.504585	-1.542374	1.258343
C92	C	-0.425556	-1.516648	1.281724
H93	H	-0.415118	-1.430760	1.300893
H94	H	-0.381593	-1.534430	1.212172
H95	H	-0.416049	-1.563950	1.351011
