data_functionalizedCrystal
_audit_creation_method	'MofGen! by Chris Wilmer'
_symmetry_space_group_name_H-M	'P1'
_symmetry_Int_Tables_number	1
_symmetry_cell_setting	triclinic
loop_
_symmetry_equiv_pos_as_xyz
  x,y,z
_cell_length_a	19.188930
_cell_length_b	19.188923
_cell_length_c	17.666332
_cell_angle_alpha	89.988569
_cell_angle_beta	90.011603
_cell_angle_gamma	96.856820
loop_
_atom_site_label
_atom_site_type_symbol
_atom_site_fract_x
_atom_site_fract_y
_atom_site_fract_z
O1	O	0.087143	-0.926153	0.062993
O2	O	0.098883	-0.722841	0.062988
O3	O	-0.008643	-0.830364	0.062976
O4	O	0.194669	-0.818630	0.063005
O5	O	-0.008649	-0.830345	-0.062921
O6	O	0.098877	-0.722822	-0.062909
O7	O	0.087137	-0.926134	-0.062904
Cu8	Cu	0.093007	-0.824477	-0.074402
Cu9	Cu	0.093013	-0.824499	0.074486
O10	O	0.194663	-0.818611	-0.062892
C11	C	0.098501	-0.696820	0.000038
C12	C	0.097362	-0.619316	0.000036
C13	C	0.152831	-0.057545	0.000034
C14	C	0.153907	-0.130368	0.000039
C15	C	0.090814	-0.175303	0.000030
C16	C	0.026641	-0.147409	0.000034
C17	C	0.025567	-0.074586	0.000036
N18	N	0.045135	-0.295973	-0.042830
N19	N	0.046160	-0.365151	-0.042834
C20	C	0.094046	-0.394712	0.000026
N21	N	0.140880	-0.352481	0.042880
N22	N	0.139858	-0.283297	0.042880
C23	C	0.091972	-0.254267	0.000028
C24	C	0.159382	-0.501561	0.000034
C25	C	0.160455	-0.574386	0.000044
C26	C	0.033188	-0.591425	0.000031
C27	C	0.032116	-0.518602	0.000028
C28	C	0.095216	-0.473674	0.000026
C29	C	-0.034657	-0.829975	0.000025
C30	C	-0.112161	-0.828834	0.000018
C31	C	-0.157087	-0.891925	0.000017
C32	C	-0.229911	-0.890853	0.000029
C33	C	-0.257806	-0.826687	0.000028
C34	C	-0.212870	-0.763588	0.000034
C35	C	-0.140048	-0.764661	0.000029
N36	N	-0.365811	-0.777633	-0.042819
N37	N	-0.434990	-0.776618	-0.042816
C38	C	-0.477214	-0.823449	0.000043
N39	N	-0.447648	-0.871345	0.042889
N40	N	-0.378463	-0.872362	0.042883
C41	C	-0.336768	-0.825516	0.000033
C42	C	-0.601104	-0.885382	0.000055
C43	C	-0.673929	-0.884308	0.000072
C44	C	-0.656887	-0.757041	0.000069
C45	C	-0.584064	-0.758117	0.000060
C46	C	-0.556177	-0.822290	0.000049
C47	C	0.220677	-0.819000	0.000060
C48	C	0.298181	-0.820141	0.000072
C49	C	0.087521	0.047846	0.000042
C50	C	0.088666	-0.029658	0.000033
N51	N	0.093001	-0.824466	-0.179121
C52	C	0.045412	-0.872093	-0.218736
C53	C	0.045409	-0.872097	-0.297984
C54	C	0.093007	-0.824481	-0.337613
C55	C	0.140600	-0.776845	-0.297989
C56	C	0.140597	-0.776838	-0.218743
N57	N	0.154814	-0.815404	-0.462023
N58	N	0.154814	-0.815416	-0.537304
C59	C	0.093016	-0.824499	-0.576377
N60	N	0.031216	-0.833585	-0.537327
N61	N	0.031216	-0.833577	-0.462039
C62	C	0.093015	-0.824483	-0.423543
C63	C	0.045420	-0.872133	-0.701922
C64	C	0.045415	-0.872132	-0.781171
C65	C	0.140612	-0.776884	-0.781174
C66	C	0.140610	-0.776881	-0.701927
C67	C	0.093015	-0.824509	-0.662305
N68	N	0.093013	-0.824515	0.179205
H69	H	-0.024729	-0.183999	0.000028
H70	H	-0.020133	-0.495897	0.000023
Br71	Br	-0.563254	-0.972472	0.000033
Br72	Br	-0.019181	-0.936767	-0.834939
Br73	Br	0.247544	-0.612233	0.000056
Br74	Br	-0.052440	-0.652400	0.000034
H75	H	-0.134387	-0.944180	0.000010
H76	H	-0.266496	-0.942231	0.000030
H77	H	-0.026685	-0.051883	0.000036
H78	H	0.210761	-0.464979	0.000033
Br79	Br	-0.250725	-0.676504	0.000042
Br80	Br	-0.019176	-0.936768	-0.648148
Br81	Br	0.240994	-0.168224	0.000040
Br82	Br	-0.734903	-0.969940	0.000077
Br83	Br	-0.523089	-0.672488	0.000062
H84	H	0.179364	-0.738111	-0.813440
H85	H	-0.103469	-0.713283	0.000031
H86	H	-0.679598	-0.704795	0.000072
Br87	Br	-0.019182	-0.936726	-0.164964
Br88	Br	-0.019183	-0.936737	-0.351757
H89	H	0.179353	-0.738074	-0.330259
H90	H	0.179350	-0.738054	-0.186487
H91	H	0.179365	-0.738102	-0.669670
H92	H	0.204211	-0.020968	0.000035
