data_functionalizedCrystal
_audit_creation_method	'MofGen! by Chris Wilmer'
_symmetry_space_group_name_H-M	'P1'
_symmetry_Int_Tables_number	1
_symmetry_cell_setting	triclinic
loop_
_symmetry_equiv_pos_as_xyz
  x,y,z
_cell_length_a	19.077105
_cell_length_b	12.759394
_cell_length_c	19.076919
_cell_angle_alpha	87.723996
_cell_angle_beta	89.923776
_cell_angle_gamma	87.711098
loop_
_atom_site_label
_atom_site_type_symbol
_atom_site_fract_x
_atom_site_fract_y
_atom_site_fract_z
Zn1	Zn	1.058328	-0.508277	0.440443
Zn2	Zn	1.558328	-0.008277	0.940443
Zn3	Zn	1.062987	-0.677204	0.322944
Zn4	Zn	1.562987	-0.177204	0.822944
Zn5	Zn	0.945544	-0.494202	0.318236
Zn6	Zn	1.445544	0.005798	0.818236
Zn7	Zn	0.940809	-0.676570	0.435697
Zn8	Zn	1.440809	-0.176570	0.935697
O9	O	1.001917	-0.589063	0.379330
O10	O	1.501917	-0.089063	0.879330
O11	O	1.157279	-0.536840	0.428813
O12	O	1.657279	-0.036840	0.928813
O13	O	1.051340	-0.647303	0.223988
O14	O	1.551340	-0.147303	0.723988
O15	O	0.960537	-0.349051	0.334462
O16	O	1.460537	0.150949	0.834462
O17	O	1.160702	-0.660951	0.342488
O18	O	1.660702	-0.160951	0.842488
O19	O	1.043399	-0.359391	0.424247
O20	O	1.543399	0.140609	0.924247
O21	O	0.965055	-0.512853	0.220529
O22	O	1.465055	-0.012853	0.720529
O23	O	0.846584	-0.512238	0.329860
O24	O	1.346584	-0.012238	0.829860
O25	O	0.952466	-0.659871	0.534658
O26	O	1.452466	-0.159871	1.034658
O27	O	0.843105	-0.646223	0.416159
O28	O	1.343105	-0.146223	0.916159
O29	O	1.038807	-0.536226	0.538145
O30	O	1.538807	-0.036226	1.038145
O31	O	1.046748	-0.824138	0.337886
O32	O	1.546748	-0.324138	0.837886
O33	O	0.956984	-0.823673	0.420725
O34	O	1.456984	-0.323673	0.920725
C35	C	0.819348	-0.577636	0.371984
C36	C	1.319348	-0.077636	0.871984
C37	C	0.741243	-0.572773	0.368858
C38	C	1.241243	-0.072773	0.868858
C39	C	1.001876	-0.862028	0.379317
C40	C	1.501876	-0.362028	0.879317
C41	C	1.001922	-0.978808	0.379338
C42	C	1.501922	-0.478808	0.879338
C43	C	0.702759	-0.640345	0.412250
C44	C	1.202759	-0.140345	0.912250
C45	C	0.629371	-0.635762	0.409316
C46	C	1.129371	-0.135762	0.909316
C47	C	0.594469	-0.563613	0.362986
C48	C	1.094469	-0.063613	0.862986
C49	C	0.632958	-0.496034	0.319593
C50	C	1.132958	0.003966	0.819593
C51	C	0.706344	-0.500612	0.322531
C52	C	1.206344	-0.000612	0.822531
C53	C	0.375179	-0.542425	0.349392
C54	C	0.875179	-0.042425	0.849392
C55	C	0.301787	-0.537854	0.346456
C56	C	0.801787	-0.037854	0.846456
C57	C	0.298206	-0.677582	0.436181
C58	C	0.798206	-0.177582	0.936181
C59	C	0.371594	-0.682157	0.439111
C60	C	0.871594	-0.182157	0.939111
C61	C	0.410076	-0.614575	0.395721
C62	C	0.910076	-0.114575	0.895721
N63	N	0.519455	-0.558929	0.359985
N64	N	1.019455	-0.058929	0.859985
N65	N	0.485089	-0.619254	0.398726
N66	N	0.985089	-0.119254	0.898726
C67	C	0.915788	-1.187657	0.285813
C68	C	1.415788	-0.687657	0.785813
C69	C	0.872664	-1.127493	0.239023
C70	C	1.372664	-0.627493	0.739023
C71	C	0.872625	-1.017768	0.239002
C72	C	1.372625	-0.517768	0.739002
C73	C	0.915713	-0.968205	0.285778
C74	C	1.415713	-0.468205	0.785778
C75	C	0.958837	-1.028369	0.332568
C76	C	1.458837	-0.528369	0.832568
C77	C	0.958873	-1.138096	0.332583
C78	C	1.458873	-0.638096	0.832583
C79	C	1.045046	-1.038972	0.426129
C80	C	1.545046	-0.538972	0.926129
C81	C	1.045090	-1.148698	0.426147
C82	C	1.545090	-0.648698	0.926147
C83	C	1.088135	-0.989409	0.472905
C84	C	1.588135	-0.489409	0.972905
C85	C	1.131263	-1.049574	0.519693
C86	C	1.631263	-0.549574	1.019693
C87	C	1.131301	-1.159305	0.519712
C88	C	1.631301	-0.659305	1.019712
C89	C	1.088214	-1.208862	0.472938
C90	C	1.588214	-0.708862	0.972938
C91	C	1.185200	-0.600536	0.386705
C92	C	1.685200	-0.100536	0.886705
C93	C	1.263304	-0.605425	0.389848
C94	C	1.763304	-0.105425	0.889848
C95	C	0.994589	-0.599548	0.562611
C96	C	1.494589	-0.099548	1.062611
C97	C	0.991466	-0.604016	0.640714
C98	C	1.491466	-0.104016	1.140714
C99	C	1.001977	-0.315035	0.379359
C100	C	1.501977	0.184965	0.879359
C101	C	1.002002	-0.198261	0.379371
C102	C	1.502002	0.301739	0.879371
C103	C	1.009257	-0.578546	0.196764
C104	C	1.509257	-0.078546	0.696764
C105	C	1.012516	-0.573791	0.118667
C106	C	1.512516	-0.073791	0.618667
C107	C	1.034950	-0.541742	0.679224
C108	C	1.534950	-0.041742	1.179224
C109	C	1.032007	-0.545936	0.752610
C110	C	1.532007	-0.045936	1.252610
C111	C	0.985583	-0.612409	0.787485
C112	C	1.485583	-0.112409	1.287485
C113	C	0.942095	-0.674684	0.748970
C114	C	1.442095	-0.174684	1.248970
C115	C	0.945035	-0.670485	0.675585
C116	C	1.445035	-0.170485	1.175585
C117	C	0.971968	-0.631867	1.006767
C118	C	1.471968	-0.131867	1.506767
C119	C	0.969033	-0.636064	1.080157
C120	C	1.469033	-0.136064	1.580157
C121	C	1.058944	-0.507314	1.083791
C122	C	1.558944	-0.007314	1.583791
C123	C	1.061882	-0.503125	1.010405
C124	C	1.561882	-0.003125	1.510405
C125	C	1.018392	-0.565396	0.971897
C126	C	1.518392	-0.065396	1.471897
N127	N	0.982576	-0.616699	0.862497
N128	N	1.482576	-0.116699	1.362497
N129	N	1.021396	-0.561099	0.896886
N130	N	1.521396	-0.061099	1.396886
H131	H	0.731171	-0.699100	0.449974
H132	H	1.231171	-0.199100	0.949974
H133	H	0.915821	-1.277001	0.285820
H134	H	1.415821	-0.777001	0.785820
H135	H	0.273372	-0.479089	0.308733
H136	H	0.773372	0.020911	0.808733
Cl137	Cl	0.754724	-0.415658	0.267980
Cl138	Cl	1.254724	0.084342	0.767980
H139	H	1.088244	-1.298205	0.472946
H140	H	1.588244	-0.798205	0.972946
H141	H	0.406503	-0.487402	0.314055
H142	H	0.906503	0.012598	0.814055
Cl143	Cl	0.415466	-0.772867	0.497355
Cl144	Cl	0.915466	-0.272867	0.997355
Cl145	Cl	1.185418	-0.987261	0.578497
Cl146	Cl	1.685418	-0.487261	1.078497
Cl147	Cl	1.086706	-0.467694	0.801020
Cl148	Cl	1.586706	0.032306	1.301020
H149	H	0.837581	-1.167860	0.200939
H150	H	1.337581	-0.667860	0.700939
H151	H	0.915671	-0.878861	0.285762
H152	H	1.415671	-0.378861	0.785762
Cl153	Cl	0.818409	-0.942130	0.180181
Cl154	Cl	1.318409	-0.442130	0.680181
Cl155	Cl	0.589080	-0.405324	0.261354
Cl156	Cl	1.089080	0.094676	0.761354
H157	H	1.088096	-0.900065	0.472888
H158	H	1.588096	-0.400065	0.972888
H159	H	0.598041	-0.690787	0.444649
H160	H	1.098041	-0.190787	0.944649
Cl161	Cl	0.910663	-0.719630	1.123999
Cl162	Cl	1.410663	-0.219630	1.623999
H163	H	0.266865	-0.732602	0.471508
H164	H	0.766865	-0.232602	0.971508
H165	H	1.072755	-0.487616	0.650834
H166	H	1.572755	0.012384	1.150834
H167	H	1.166412	-1.208285	0.557820
H168	H	1.666412	-0.708285	1.057820
H169	H	1.099687	-0.448998	0.982015
H170	H	1.599687	0.051002	1.482015
H171	H	1.094351	-0.456614	1.115153
H172	H	1.594351	0.043386	1.615153
H173	H	0.936564	-0.682589	0.975422
H174	H	1.436564	-0.182589	1.475422
Cl175	Cl	0.883731	-0.758247	0.792813
Cl176	Cl	1.383731	-0.258247	1.292813
H177	H	0.909619	-0.721183	0.644231
H178	H	1.409619	-0.221183	1.144231
