data_functionalizedCrystal
_audit_creation_method	'MofGen! by Chris Wilmer'
_symmetry_space_group_name_H-M	'P1'
_symmetry_Int_Tables_number	1
_symmetry_cell_setting	triclinic
loop_
_symmetry_equiv_pos_as_xyz
  x,y,z
_cell_length_a	27.732048
_cell_length_b	19.188930
_cell_length_c	17.666332
_cell_angle_alpha	89.976867
_cell_angle_beta	90.010186
_cell_angle_gamma	97.106284
loop_
_atom_site_label
_atom_site_type_symbol
_atom_site_fract_x
_atom_site_fract_y
_atom_site_fract_z
O1	O	0.060347	-0.925765	0.063200
O2	O	0.068471	-0.722402	0.063149
O3	O	-0.005968	-0.830399	0.063161
O4	O	0.134786	-0.817767	0.063187
O5	O	-0.005971	-0.830380	-0.062735
O6	O	0.068469	-0.722383	-0.062748
O7	O	0.060345	-0.925746	-0.062697
Cu8	Cu	0.064407	-0.824063	-0.074218
Cu9	Cu	0.064409	-0.824085	0.074670
O10	O	0.134784	-0.817748	-0.062710
C11	C	-0.023977	-0.830125	0.000211
C12	C	-0.077635	-0.829326	0.000204
C13	C	0.068207	-0.696383	0.000194
C14	C	0.067417	-0.618883	0.000174
C15	C	0.060609	-0.951765	0.000260
C16	C	0.061399	-1.029264	0.000285
C17	C	-0.416270	-0.888119	0.000258
C18	C	-0.617939	-0.885157	0.000268
O19	O	-0.649030	-0.938918	0.000314
N20	N	-0.637258	-0.821118	0.000251
C21	C	-0.606157	-0.757816	0.000237
O22	O	-0.627217	-0.703280	0.000231
C23	C	-0.404489	-0.760780	0.000233
C24	C	-0.385173	-0.824822	0.000242
C25	C	-0.396953	-0.952156	0.000268
C26	C	-0.346539	-0.952896	0.000261
C27	C	-0.315441	-0.889599	0.000245
C28	C	-0.334759	-0.825562	0.000235
C29	C	-0.373389	-0.697478	0.000224
C30	C	-0.322969	-0.698225	0.000225
C31	C	-0.303653	-0.762267	0.000234
C32	C	-0.253247	-0.763005	0.000212
N33	N	-0.233928	-0.827043	0.000229
C34	C	-0.265025	-0.890340	0.000245
C35	C	-0.712036	-0.756265	0.000238
C36	C	-0.762452	-0.755524	0.000238
C37	C	-0.774231	-0.882865	0.000270
C38	C	-0.723813	-0.883605	0.000265
C39	C	-0.692716	-0.820303	0.000254
C40	C	-0.159151	-0.891889	0.000231
C41	C	-0.108732	-0.892623	0.000221
C42	C	-0.096958	-0.765283	0.000193
C43	C	-0.147373	-0.764549	0.000198
C44	C	-0.178468	-0.827857	0.000220
O45	O	-0.222127	-0.709272	0.000174
O46	O	-0.243956	-0.944868	0.000268
C47	C	-0.466684	-0.887379	0.000265
C48	C	-0.486001	-0.823342	0.000255
C49	C	-0.454904	-0.760045	0.000238
C50	C	-0.536418	-0.822601	0.000254
C51	C	-0.567515	-0.885898	0.000271
C52	C	-0.548195	-0.949936	0.000288
C53	C	-0.497781	-0.950676	0.000281
C54	C	-0.474224	-0.696007	0.000222
C55	C	-0.524638	-0.695272	0.000227
C56	C	-0.555735	-0.758569	0.000244
C57	C	0.152793	-0.818023	0.000243
C58	C	0.206450	-0.818821	0.000254
N59	N	0.064405	-0.824052	-0.178937
C60	C	0.111096	-0.573681	0.000194
C61	C	0.110354	-0.500862	0.000202
C62	C	0.065931	-0.473249	0.000205
C63	C	0.022246	-0.518461	0.000181
C64	C	0.022990	-0.591278	0.000165
N65	N	0.031976	-0.365491	0.043078
N66	N	0.031273	-0.296317	0.043094
C67	C	0.063689	-0.253854	0.000251
N68	N	0.096842	-0.283177	-0.042600
N69	N	0.097547	-0.352357	-0.042613
C70	C	0.065120	-0.394291	0.000222
C71	C	0.106566	-0.129692	0.000279
C72	C	0.105822	-0.056872	0.000282
C73	C	0.017714	-0.074473	0.000269
C74	C	0.018459	-0.147292	0.000258
C75	C	0.062886	-0.174897	0.000267
C76	C	0.093652	-0.866074	-0.218524
C77	C	0.093650	-0.866086	-0.297771
C78	C	0.064407	-0.824061	-0.337429
C79	C	0.035154	-0.782036	-0.297833
C80	C	0.035153	-0.782032	-0.218587
N81	N	0.063217	-0.762921	-0.461885
N82	N	0.063221	-0.762927	-0.537165
C83	C	0.064409	-0.824074	-0.576193
N84	N	0.065603	-0.885215	-0.537097
N85	N	0.065601	-0.885208	-0.461810
C86	C	0.064405	-0.824062	-0.423359
C87	C	0.093656	-0.866112	-0.701709
C88	C	0.093651	-0.866125	-0.780958
C89	C	0.035158	-0.782069	-0.781019
C90	C	0.035160	-0.782063	-0.701771
C91	C	0.064412	-0.824083	-0.662121
N92	N	0.064407	-0.824101	0.179389
H93	H	-0.093007	-0.944776	0.000226
H94	H	-0.799559	-0.934404	0.000283
Cl95	Cl	-0.001610	-0.729208	-0.347688
Cl96	Cl	0.162416	-0.164399	0.000282
H97	H	-0.071630	-0.713749	0.000177
Cl98	Cl	-0.436038	-1.031741	0.000287
Cl99	Cl	-0.699535	-0.964118	0.000277
Cl100	Cl	-0.038133	-0.039766	0.000265
H101	H	-0.686720	-0.704714	0.000229
Cl102	Cl	0.166947	-0.608381	0.000201
H103	H	0.011348	-0.747853	-0.813307
Cl104	Cl	-0.397660	-0.616963	0.000217
H105	H	0.117474	-0.900328	-0.669425
Cl106	Cl	0.165268	-0.444025	0.000225
H107	H	-0.163101	-0.712400	0.000170
H108	H	0.141392	-0.020068	0.000294
Cl109	Cl	-0.001600	-0.729217	-0.652002
H110	H	-0.013923	-0.495974	0.000195
Cl111	Cl	-0.322263	-1.033411	0.000294
H112	H	0.117468	-0.900306	-0.330009
H113	H	-0.012580	-0.628083	0.000150
Cl114	Cl	-0.001615	-0.729194	-0.168819
Cl115	Cl	-0.036455	-0.204121	0.000238
H116	H	-0.482059	-1.002826	0.000289
H117	H	0.117469	-0.900294	-0.186246
H118	H	-0.184464	-0.943441	0.000251
H119	H	0.117466	-0.900350	-0.813188
Cl120	Cl	-0.548915	-0.614753	0.000212
Cl121	Cl	-0.786730	-0.675011	0.000212
H122	H	-0.297652	-0.646676	0.000217
Cl123	Cl	-0.435137	-0.616425	0.000202
H124	H	-0.573524	-1.001475	0.000298
