data_functionalizedCrystal
_audit_creation_method	'MofGen! by Chris Wilmer'
_symmetry_space_group_name_H-M	'P1'
_symmetry_Int_Tables_number	1
_symmetry_cell_setting	triclinic
loop_
_symmetry_equiv_pos_as_xyz
  x,y,z
_cell_length_a	23.532407
_cell_length_b	10.654550
_cell_length_c	9.730223
_cell_angle_alpha	90.003749
_cell_angle_beta	89.994043
_cell_angle_gamma	96.333210
loop_
_atom_site_label
_atom_site_type_symbol
_atom_site_fract_x
_atom_site_fract_y
_atom_site_fract_z
O1	O	0.079982	-1.665300	-0.114418
O2	O	0.087603	-1.299580	-0.114398
O3	O	0.000933	-1.493468	-0.114384
O4	O	0.166652	-1.471412	-0.114433
O5	O	0.000935	-1.493466	0.114196
O6	O	0.087605	-1.299578	0.114182
O7	O	0.079985	-1.665298	0.114161
Zn8	Zn	0.083795	-1.482437	0.150464
Zn9	Zn	0.083792	-1.482440	-0.150700
O10	O	0.166655	-1.471409	0.114147
C11	C	0.087044	-1.252799	-0.000105
C12	C	0.085370	-1.113408	-0.000096
C13	C	-0.020286	-1.492905	-0.000090
C14	C	-0.083514	-1.491217	-0.000079
N15	N	0.083797	-1.482444	0.356000
C16	C	-0.481938	-1.595364	-0.000161
C17	C	-0.541349	-1.593795	-0.000171
O18	O	-0.577464	-1.690341	-0.000227
N19	N	-0.564726	-1.478529	-0.000164
C20	C	-0.528689	-1.364824	-0.000160
O21	O	-0.554029	-1.266636	-0.000156
C22	C	-0.469280	-1.366394	-0.000159
C23	C	-0.445906	-1.481668	-0.000153
C24	C	-0.458564	-1.710629	-0.000156
C25	C	-0.399158	-1.712197	-0.000143
C26	C	-0.363126	-1.598500	-0.000135
C27	C	-0.386500	-1.483236	-0.000140
C28	C	-0.433244	-1.252690	-0.000165
C29	C	-0.373832	-1.254270	-0.000166
C30	C	-0.350458	-1.369544	-0.000159
C31	C	-0.291061	-1.371107	-0.000119
N32	N	-0.267684	-1.486374	-0.000126
C33	C	-0.303716	-1.600070	-0.000134
C34	C	-0.653453	-1.361535	-0.000163
C35	C	-0.712861	-1.359964	-0.000154
C36	C	-0.725517	-1.588936	-0.000168
C37	C	-0.666108	-1.590506	-0.000167
C38	C	-0.630076	-1.476802	-0.000171
C39	C	-0.178958	-1.603355	-0.000106
C40	C	-0.119546	-1.604913	-0.000087
C41	C	-0.106896	-1.375942	-0.000081
C42	C	-0.166303	-1.374383	-0.000092
C43	C	-0.202333	-1.488100	-0.000109
O44	O	-0.254911	-1.274613	-0.000068
O45	O	-0.278369	-1.698241	-0.000157
C46	C	0.187873	-1.471972	-0.000149
C47	C	0.251101	-1.473661	-0.000169
C48	C	0.080543	-1.712079	-0.000135
C49	C	0.082217	-1.851469	-0.000152
C50	C	0.136400	-1.032306	-0.000131
C51	C	0.134824	-0.901335	-0.000154
C52	C	0.031183	-0.932582	-0.000113
C53	C	0.032760	-1.063550	-0.000080
C54	C	0.189010	-1.082164	-0.000147
C55	C	0.240045	-1.001060	-0.000184
C56	C	0.238468	-0.870089	-0.000207
C57	C	0.185858	-0.820222	-0.000194
N58	N	0.083786	-1.482443	-0.356237
C59	C	0.045432	-1.568320	0.427932
C60	C	0.045425	-1.568317	0.571815
C61	C	0.122152	-1.396559	0.571821
C62	C	0.122156	-1.396557	0.427941
C63	C	0.007073	-1.654207	0.355992
C64	C	-0.031294	-1.740090	0.427924
C65	C	-0.031301	-1.740087	0.571807
C66	C	0.007059	-1.654201	0.643758
H67	H	-0.100519	-1.698787	-0.000079
C68	C	-0.253113	-1.734443	0.117380
C69	C	-0.218558	-1.728351	-0.000117
H70	H	-0.277562	-1.811607	0.117372
H71	H	-0.229678	-1.730288	0.197078
H72	H	-0.275540	-1.665574	0.117359
H73	H	-0.196128	-1.797216	-0.000091
H74	H	-0.241996	-1.732519	-0.079837
C75	C	-0.063830	-1.957886	0.383555
C76	C	-0.073461	-1.834465	0.348814
H77	H	-0.089866	-2.016139	0.334714
H78	H	-0.025769	-1.971042	0.359977
H79	H	-0.069334	-1.970182	0.479537
H80	H	-0.067953	-1.822165	0.252834
H81	H	-0.111531	-1.821303	0.372384
C82	C	-0.025590	-1.228925	0.117483
C83	C	-0.023334	-1.152704	-0.000045
H84	H	-0.060222	-1.283957	0.117510
H85	H	0.005963	-1.277359	0.117476
H86	H	-0.024049	-1.177146	0.197169
H87	H	-0.024870	-1.204483	-0.079732
H88	H	-0.054895	-1.104266	-0.000051
C89	C	0.211806	-0.624130	-0.117744
C90	C	0.184122	-0.676257	-0.000220
H91	H	0.210731	-0.535255	-0.117767
H92	H	0.250437	-0.642211	-0.117737
H93	H	0.193019	-0.659560	-0.197433
H94	H	0.202911	-0.640834	0.079469
H95	H	0.145484	-0.658165	-0.000215
C96	C	0.296828	-0.704652	0.117245
C97	C	0.294563	-0.780938	-0.000243
H98	H	0.331462	-0.649622	0.117218
H99	H	0.265276	-0.656216	0.117238
H100	H	0.295292	-0.756387	0.196958
H101	H	0.296094	-0.729203	-0.079957
H102	H	0.326123	-0.829379	-0.000249
H103	H	0.190300	-1.188805	-0.000134
H104	H	-0.647081	-1.684372	-0.000163
C105	C	0.328869	-1.014737	0.117297
C106	C	0.297871	-1.055872	-0.000192
H107	H	0.364568	-1.048582	0.117294
H108	H	0.335233	-0.925141	0.117269
H109	H	0.307831	-1.042611	0.197010
H110	H	0.318907	-1.027990	-0.079905
H111	H	0.291509	-1.145487	-0.000176
H112	H	-0.380133	-1.806065	-0.000143
H113	H	-0.011650	-0.891969	-0.000125
C114	C	0.133783	-1.225523	0.733656
C115	C	0.164318	-1.302167	0.650911
H116	H	0.159817	-1.167257	0.782487
H117	H	0.109896	-1.180651	0.677533
H118	H	0.110935	-1.276684	0.797080
H119	H	0.187164	-1.251007	0.587480
H120	H	0.188216	-1.347043	0.707039
C121	C	-0.440719	-1.057062	-0.117698
C122	C	-0.458925	-1.125974	-0.000187
H123	H	-0.456575	-0.978831	-0.117716
H124	H	-0.400184	-1.041749	-0.117681
H125	H	-0.453059	-1.103865	-0.197396
H126	H	-0.446582	-1.079175	0.079511
H127	H	-0.499468	-1.141283	-0.000192
H128	H	-0.487896	-1.803219	-0.000167
C129	C	0.019070	-1.772380	0.149884
C130	C	0.007077	-1.654217	0.197835
H131	H	0.019070	-1.772387	0.052246
H132	H	0.055538	-1.789082	0.182429
H133	H	-0.009270	-1.835807	0.182444
H134	H	0.035421	-1.590791	0.165284
H135	H	-0.029395	-1.637500	0.165276
H136	H	-0.344497	-1.161675	-0.000171
H137	H	-0.754865	-1.681514	-0.000180
C138	C	-0.579307	-1.230448	0.117358
C139	C	-0.613847	-1.236542	-0.000146
H140	H	-0.554856	-1.153286	0.117359
H141	H	-0.602751	-1.234597	0.197052
H142	H	-0.556881	-1.299320	0.117338
H143	H	-0.636276	-1.167674	-0.000121
H144	H	-0.590401	-1.232380	-0.079861
H145	H	-0.077548	-1.283373	-0.000069
H146	H	-0.185334	-1.280517	-0.000059
H147	H	-0.062545	-1.810008	0.630373
H148	H	0.007046	-1.654197	0.760917
H149	H	0.153395	-1.326628	0.369373
H150	H	-0.731887	-1.266096	-0.000135
