data_functionalizedCrystal
_audit_creation_method	'MofGen! by Chris Wilmer'
_symmetry_space_group_name_H-M	'P1'
_symmetry_Int_Tables_number	1
_symmetry_cell_setting	triclinic
loop_
_symmetry_equiv_pos_as_xyz
  x,y,z
_cell_length_a	12.759401
_cell_length_b	19.805405
_cell_length_c	12.759393
_cell_angle_alpha	90.037628
_cell_angle_beta	90.018496
_cell_angle_gamma	90.026572
loop_
_atom_site_label
_atom_site_type_symbol
_atom_site_fract_x
_atom_site_fract_y
_atom_site_fract_z
Zn1	Zn	1.606170	-0.269420	0.593937
Zn2	Zn	1.606028	-0.382625	0.418239
Zn3	Zn	1.430472	-0.269456	0.418276
Zn4	Zn	1.430425	-0.382573	0.593880
O5	O	1.518274	-0.326019	0.506083
O6	O	1.753172	-0.284444	0.570638
O7	O	1.582701	-0.367650	0.271222
O8	O	1.453858	-0.174735	0.441618
O9	O	1.753068	-0.367615	0.441553
O10	O	1.582942	-0.174708	0.570675
O11	O	1.453720	-0.284505	0.271250
O12	O	1.283445	-0.284454	0.441563
O13	O	1.453777	-0.367527	0.740909
O14	O	1.283410	-0.367561	0.570578
O15	O	1.582896	-0.284394	0.740951
O16	O	1.582655	-0.477335	0.441498
O17	O	1.453640	-0.477297	0.570541
C18	C	1.245306	-0.326006	0.506069
C19	C	1.128530	-0.326017	0.506088
C20	C	1.073677	-0.369360	0.573155
C21	C	0.963953	-0.369369	0.573166
C22	C	0.963944	-0.282689	0.439034
C23	C	1.073666	-0.282678	0.439029
C24	C	1.073681	-0.419406	0.650592
C25	C	0.963957	-0.419414	0.650603
C26	C	1.518155	-0.501875	0.506032
C27	C	1.518201	-0.577107	0.506046
C28	C	1.585444	-0.612448	0.438923
C29	C	1.585489	-0.683137	0.438946
C30	C	1.518284	-0.718482	0.506088
C31	C	1.451038	-0.683136	0.573217
C32	C	1.450999	-0.612449	0.573199
C33	C	1.451193	-0.968209	0.573295
C34	C	1.451234	-1.038901	0.573306
C35	C	1.585683	-1.038897	0.439043
C36	C	1.585644	-0.968210	0.439024
C37	C	1.518402	-0.932870	0.506157
C38	C	1.518356	-0.856221	0.506133
C39	C	1.518324	-0.795129	0.506108
C40	C	1.792307	-0.326032	0.506098
C41	C	1.909084	-0.326037	0.506104
C42	C	1.518347	-0.325950	0.780117
C43	C	1.518379	-0.325921	0.896893
C44	C	1.518421	-0.149476	0.506157
C45	C	1.518484	-0.074244	0.506189
C46	C	1.518261	-0.326038	0.233116
C47	C	1.518433	-0.325876	0.116340
C48	C	1.585620	-0.282630	0.951779
C49	C	1.585645	-0.282605	1.061503
C50	C	1.451184	-0.369170	1.061446
C51	C	1.451154	-0.369190	0.951724
C52	C	1.663254	-0.232655	0.951812
C53	C	1.663279	-0.232630	1.061537
H54	H	1.118323	-0.247379	0.384423
O55	O	1.755431	-0.254971	0.911069
C56	C	1.904943	-0.229126	0.802938
C57	C	1.800564	-0.203771	0.848993
H58	H	1.941475	-0.187738	0.752758
H59	H	1.889952	-0.275699	0.752553
H60	H	1.960716	-0.242700	0.869481
H61	H	1.744740	-0.190159	0.782518
H62	H	1.815636	-0.157222	0.899406
O63	O	1.385722	-0.717363	0.638540
C64	C	1.252316	-0.709901	0.771671
C65	C	1.326253	-0.671056	0.697765
H66	H	1.204200	-0.672479	0.819558
H67	H	1.300490	-0.742922	0.826726
H68	H	1.197468	-0.743067	0.723381
H69	H	1.381115	-0.637853	0.745970
H70	H	1.278013	-0.638078	0.642707
H71	H	1.107680	-0.469175	0.621299
H72	H	0.929966	-0.400703	0.727958
H73	H	1.640245	-0.711909	0.384288
O74	O	1.385864	-0.411176	0.898245
C75	C	1.326264	-0.449598	0.729189
C76	C	1.400245	-0.402003	0.789622
H77	H	1.337882	-0.442209	0.641356
H78	H	1.241543	-0.437696	0.750687
H79	H	1.344652	-0.504166	0.750795
H80	H	1.381952	-0.347419	0.768048
H81	H	1.484944	-0.413963	0.768119
O82	O	1.628549	-0.173270	1.102349
C83	C	1.591330	-0.109423	1.258786
C84	C	1.630671	-0.176682	1.212704
H85	H	1.593053	-0.112155	1.348014
H86	H	1.507668	-0.099723	1.231272
H87	H	1.644219	-0.066576	1.231175
H88	H	1.577859	-0.219571	1.240294
H89	H	1.714350	-0.186324	1.240213
H90	H	1.103494	-0.405426	0.732001
O91	O	0.910765	-0.240628	0.373745
C92	C	0.877099	-0.207666	0.195124
C93	C	0.937401	-0.255332	0.268950
H94	H	0.898595	-0.219547	0.110382
H95	H	0.898730	-0.153090	0.213642
H96	H	0.789259	-0.215104	0.206700
H97	H	1.025255	-0.247954	0.257415
H98	H	0.915683	-0.309891	0.250415
H99	H	0.934145	-0.471823	0.628662
H100	H	1.396509	-1.067677	0.627989
H101	H	1.396450	-0.404396	1.106103
O102	O	1.650825	-0.578221	0.373665
C103	C	1.784143	-0.585686	0.240446
C104	C	1.710168	-0.624530	0.314315
H105	H	1.832125	-0.623110	0.192426
H106	H	1.839106	-0.552555	0.288666
H107	H	1.735901	-0.552630	0.185504
H108	H	1.758325	-0.657623	0.369271
H109	H	1.655202	-0.657618	0.266029
H110	H	1.640365	-0.939434	0.384348
H111	H	1.640438	-1.067680	0.384384
O112	O	1.385762	-0.933990	0.638524
C113	C	1.252426	-0.941460	0.771719
C114	C	1.326465	-0.980300	0.697888
H115	H	1.204481	-0.978885	0.819750
H116	H	1.197432	-0.908442	0.723468
H117	H	1.300615	-0.908290	0.826652
H118	H	1.278361	-1.013507	0.642941
H119	H	1.381463	-1.013275	0.746204
H120	H	1.396244	-0.583674	0.627858
O121	O	1.637236	-0.170094	0.916491
C122	C	1.589998	-0.056060	0.962371
C123	C	1.619426	-0.126879	1.002515
H124	H	1.575611	-0.021097	1.031900
H125	H	1.515847	-0.059442	0.912768
H126	H	1.656829	-0.035200	0.912712
H127	H	1.552664	-0.147779	1.052217
H128	H	1.693609	-0.123454	1.052061
H129	H	1.744645	-0.246670	1.091313
