data_functionalizedCrystal
_audit_creation_method	'MofGen! by Chris Wilmer'
_symmetry_space_group_name_H-M	'P1'
_symmetry_Int_Tables_number	1
_symmetry_cell_setting	triclinic
loop_
_symmetry_equiv_pos_as_xyz
  x,y,z
_cell_length_a	19.805405
_cell_length_b	19.805407
_cell_length_c	11.169409
_cell_angle_alpha	90.031361
_cell_angle_beta	89.960201
_cell_angle_gamma	89.974974
loop_
_atom_site_label
_atom_site_type_symbol
_atom_site_fract_x
_atom_site_fract_y
_atom_site_fract_z
Zn1	Zn	-0.269434	-1.034771	-0.678826
Zn2	Zn	-0.382643	-1.034675	-0.478116
Zn3	Zn	-0.269470	-0.921575	-0.478122
Zn4	Zn	-0.382583	-0.921549	-0.678723
O5	O	-0.326033	-0.978143	-0.578447
O6	O	-0.284461	-1.129475	-0.652242
O7	O	-0.367670	-1.019643	-0.310167
O8	O	-0.174749	-0.936642	-0.504791
O9	O	-0.367635	-1.129405	-0.504781
O10	O	-0.174722	-1.019806	-0.652247
O11	O	-0.284523	-0.936549	-0.310172
O12	O	-0.284465	-0.826855	-0.504692
O13	O	-0.367534	-0.936597	-0.846687
O14	O	-0.367569	-0.826836	-0.652073
O15	O	-0.284403	-1.019781	-0.846762
O16	O	-0.477351	-1.019618	-0.504682
O17	O	-0.477308	-0.936505	-0.652067
C18	C	-0.326015	-0.802287	-0.578373
C19	C	-0.326024	-0.727055	-0.578369
C20	C	-0.369378	-0.265271	-0.655103
C21	C	-0.369378	-0.335960	-0.655082
C22	C	-0.326042	-0.371293	-0.578459
C23	C	-0.282709	-0.335934	-0.501843
C24	C	-0.282713	-0.265247	-0.501859
C25	C	-0.282691	-0.621007	-0.501775
C26	C	-0.282689	-0.691699	-0.501768
C27	C	-0.369356	-0.691720	-0.654998
C28	C	-0.369360	-0.621033	-0.655014
C29	C	-0.326030	-0.585680	-0.578395
C30	C	-0.326032	-0.509032	-0.578417
C31	C	-0.326036	-0.447940	-0.578441
C32	C	-0.501889	-0.978067	-0.578389
C33	C	-0.577121	-0.978096	-0.578404
C34	C	-0.612465	-1.021415	-0.501741
C35	C	-0.683153	-1.021444	-0.501768
C36	C	-0.718496	-0.978149	-0.578452
C37	C	-0.683147	-0.934828	-0.655124
C38	C	-0.612460	-0.934804	-0.655102
C39	C	-0.968220	-0.934928	-0.655213
C40	C	-1.038912	-0.934955	-0.655225
C41	C	-1.038914	-1.021568	-0.501878
C42	C	-0.968227	-1.021544	-0.501857
C43	C	-0.932883	-0.978225	-0.578532
C44	C	-0.856235	-0.978196	-0.578504
C45	C	-0.795143	-0.978175	-0.578475
C46	C	-0.149490	-0.978238	-0.578531
C47	C	-0.074258	-0.978278	-0.578568
C48	C	-0.325958	-0.978197	-0.891490
C49	C	-0.325926	-0.978220	-1.024890
C50	C	-0.326048	-0.154685	-0.578507
C51	C	-0.326047	-0.229917	-0.578496
C52	C	-0.326058	-0.978128	-0.266622
C53	C	-0.325900	-0.978236	-0.133223
H54	H	-0.404646	-0.592268	-0.717413
H55	H	-0.711928	-1.056718	-0.439340
H56	H	-0.404663	-0.236508	-0.717505
H57	H	-1.067699	-1.056843	-0.439450
Cl58	Cl	-0.228232	-0.380353	-0.405512
Cl59	Cl	-0.228211	-0.576573	-0.405467
Cl60	Cl	-0.923800	-1.075973	-0.405450
H61	H	-1.067686	-0.899700	-0.717680
H62	H	-0.404639	-0.720513	-0.717382
Cl63	Cl	-0.923798	-0.880470	-0.751603
Cl64	Cl	-0.727578	-0.880405	-0.751535
H65	H	-0.583683	-0.899530	-0.717531
H66	H	-0.404664	-0.364742	-0.717460
H67	H	-0.583694	-1.056667	-0.439291
Cl68	Cl	-0.228206	-0.736117	-0.405432
H69	H	-0.247427	-0.236462	-0.439481
