data_functionalizedCrystal
_audit_creation_method	'MofGen! by Chris Wilmer'
_symmetry_space_group_name_H-M	'P1'
_symmetry_Int_Tables_number	1
_symmetry_cell_setting	triclinic
loop_
_symmetry_equiv_pos_as_xyz
  x,y,z
_cell_length_a	16.974829
_cell_length_b	16.992695
_cell_length_c	14.048226
_cell_angle_alpha	89.993436
_cell_angle_beta	86.338224
_cell_angle_gamma	87.025716
loop_
_atom_site_label
_atom_site_type_symbol
_atom_site_fract_x
_atom_site_fract_y
_atom_site_fract_z
O1	O	1.055466	0.099962	-0.160470
O2	O	1.555466	0.599962	0.339530
O3	O	0.826063	0.112684	-0.142800
O4	O	1.326063	0.612684	0.357200
O5	O	0.939845	-0.007818	-0.151556
O6	O	1.439845	0.492182	0.348444
O7	O	0.941685	0.220465	-0.151713
O8	O	1.441685	0.720465	0.348287
O9	O	0.939830	-0.007826	0.006766
O10	O	1.439830	0.492174	0.506766
O11	O	0.826048	0.112677	0.015523
O12	O	1.326048	0.612677	0.515523
O13	O	1.055451	0.099955	-0.002147
O14	O	1.555451	0.599955	0.497853
Zn15	Zn	0.940747	0.106315	0.031825
Zn16	Zn	1.440747	0.606315	0.531825
Zn17	Zn	0.940767	0.106324	-0.176772
Zn18	Zn	1.440767	0.606324	0.323228
O19	O	0.941669	0.220458	0.006609
O20	O	1.441669	0.720458	0.506609
C21	C	0.796567	0.112195	-0.061367
C22	C	1.296567	0.612195	0.438633
C23	C	0.708698	0.110741	-0.054599
C24	C	1.208698	0.610741	0.445401
C25	C	0.214088	0.102578	-0.007235
C26	C	0.714088	0.602578	0.492765
C27	C	0.296650	0.103945	-0.013597
C28	C	0.796650	0.603945	0.486403
C29	C	0.337939	0.104626	-0.103081
C30	C	0.837939	0.604626	0.396919
C31	C	0.296662	0.103949	-0.186209
C32	C	0.796662	0.603949	0.313791
C33	C	0.214101	0.102588	-0.179846
C34	C	0.714101	0.602588	0.320154
C35	C	0.584860	0.108702	-0.131364
C36	C	1.084860	0.608702	0.368636
C37	C	0.667427	0.110061	-0.137720
C38	C	1.167427	0.610061	0.362280
C39	C	0.667409	0.110059	0.034892
C40	C	1.167409	0.610059	0.534892
C41	C	0.584847	0.108693	0.041247
C42	C	1.084847	0.608693	0.541247
C43	C	0.543576	0.108020	-0.041881
C44	C	1.043576	0.608020	0.458119
N45	N	0.422331	0.106021	-0.109586
N46	N	0.922331	0.606021	0.390414
N47	N	0.459186	0.106631	-0.035375
N48	N	0.959186	0.606631	0.464625
C49	C	0.937472	-0.037032	-0.072213
C50	C	1.437472	0.462968	0.427787
C51	C	0.930412	-0.124069	-0.071670
C52	C	1.430412	0.375931	0.428330
C53	C	0.998528	-0.174381	-0.076915
C54	C	1.498528	0.325619	0.423085
C55	C	0.991890	-0.256160	-0.076413
C56	C	1.491890	0.243840	0.423587
C57	C	0.917135	-0.287627	-0.070658
C58	C	1.417135	0.212373	0.429342
C59	C	0.849015	-0.237308	-0.065415
C60	C	1.349015	0.262692	0.434585
C61	C	0.855653	-0.155530	-0.065924
C62	C	1.355653	0.344470	0.434076
C63	C	0.889621	-0.531195	-0.068552
C64	C	1.389621	-0.031195	0.431448
C65	C	0.882987	-0.612980	-0.068040
C66	C	1.382987	-0.112980	0.431960
C67	C	1.025863	-0.631827	-0.079040
C68	C	1.525863	-0.131827	0.420960
C69	C	1.032495	-0.550046	-0.079543
C70	C	1.532495	-0.050046	0.420457
C71	C	0.964374	-0.499735	-0.074305
C72	C	1.464374	0.000265	0.425695
N73	N	0.910349	-0.371218	-0.070142
N74	N	1.410349	0.128782	0.429858
N75	N	0.971162	-0.416145	-0.074828
N76	N	1.471162	0.083855	0.425172
C77	C	1.084948	0.100444	-0.083582
C78	C	1.584948	0.600444	0.416418
C79	C	1.172817	0.101899	-0.090357
C80	C	1.672817	0.601899	0.409643
C81	C	0.944043	0.249671	-0.072736
C82	C	1.444043	0.749671	0.427264
C83	C	0.951103	0.336708	-0.073286
C84	C	1.451103	0.836708	0.426714
N85	N	0.940740	0.106308	0.174186
N86	N	1.440740	0.606308	0.674186
N87	N	0.940781	0.106325	-0.319134
N88	N	1.440781	0.606325	0.180866
C89	C	0.991141	0.052972	0.220125
C90	C	1.491141	0.552972	0.720125
C91	C	0.991146	0.052971	0.319782
C92	C	1.491146	0.552971	0.819782
C93	C	0.940754	0.106312	0.373498
C94	C	1.440754	0.606312	0.873498
C95	C	0.890347	0.159651	0.327553
C96	C	1.390347	0.659651	0.827553
C97	C	0.890339	0.159647	0.227897
C98	C	1.390339	0.659647	0.727897
C99	C	0.890371	0.159656	0.535265
C100	C	1.390371	0.659656	1.035265
C101	C	0.890380	0.159661	0.634927
C102	C	1.390380	0.659661	1.134927
C103	C	0.991178	0.052981	0.627150
C104	C	1.491178	0.552981	1.127150
C105	C	0.991169	0.052977	0.527495
C106	C	1.491169	0.552977	1.027495
C107	C	0.940763	0.106317	0.481556
C108	C	1.440763	0.606317	0.981556
H109	H	0.551235	0.108121	0.114114
H110	H	1.051235	0.608121	0.614114
H111	H	0.849322	0.203089	0.497866
H112	H	1.349322	0.703089	0.997866
H113	H	0.330249	0.104497	0.054089
H114	H	0.830249	0.604497	0.554089
H115	H	0.701043	0.110622	-0.210592
H116	H	1.201043	0.610622	0.289408
H117	H	1.047357	-0.297122	-0.080683
H118	H	1.547357	0.202878	0.419317
H119	H	0.849345	0.203096	0.678658
H120	H	1.349345	0.703096	1.178658
H121	H	1.032179	0.009539	0.176395
H122	H	1.532179	0.509539	0.676395
Cl123	Cl	1.126476	-0.510495	-0.086809
Cl124	Cl	1.626476	-0.010495	0.413191
Cl125	Cl	0.826992	0.226705	0.395080
Cl126	Cl	1.326992	0.726705	0.895080
Cl127	Cl	0.755037	-0.276866	-0.058192
Cl128	Cl	1.255037	0.223134	0.441808
H129	H	1.059401	-0.148768	-0.081596
H130	H	1.559401	0.351232	0.418404
H131	H	0.701020	0.110608	0.102570
H132	H	1.201020	0.610608	0.602570
Cl133	Cl	0.162217	0.101738	-0.284346
Cl134	Cl	0.662217	0.601738	0.215654
Cl135	Cl	0.826971	0.226699	0.170147
Cl136	Cl	1.326971	0.726699	0.670147
Cl137	Cl	0.532989	0.107851	-0.235868
Cl138	Cl	1.032989	0.607851	0.264132
Cl139	Cl	1.054545	-0.014073	0.684905
Cl140	Cl	1.554545	0.485927	1.184905
Cl141	Cl	0.348570	0.104806	-0.298704
Cl142	Cl	0.848570	0.604806	0.201296
Cl143	Cl	0.789003	-0.652535	-0.060799
Cl144	Cl	1.289003	-0.152535	0.439201
H145	H	1.081323	-0.672798	-0.083307
H146	H	1.581323	-0.172798	0.416693
Cl147	Cl	1.054524	-0.014075	0.459964
Cl148	Cl	1.554524	0.485925	0.959964
Cl149	Cl	0.803982	-0.467958	-0.061969
Cl150	Cl	1.303982	0.032042	0.438031
Cl151	Cl	0.162189	0.101715	0.105265
Cl152	Cl	0.662189	0.601715	0.605265
Cl153	Cl	0.770018	-0.092280	-0.059333
Cl154	Cl	1.270018	0.407720	0.440667
Cl155	Cl	1.054507	-0.014082	0.377536
Cl156	Cl	1.554507	0.485918	0.877536
