data_functionalizedCrystal
_audit_creation_method	'MofGen! by Chris Wilmer'
_symmetry_space_group_name_H-M	'P1'
_symmetry_Int_Tables_number	1
_symmetry_cell_setting	triclinic
loop_
_symmetry_equiv_pos_as_xyz
  x,y,z
_cell_length_a	11.169417
_cell_length_b	13.897441
_cell_length_c	11.169416
_cell_angle_alpha	89.974103
_cell_angle_beta	90.011219
_cell_angle_gamma	89.981458
loop_
_atom_site_label
_atom_site_type_symbol
_atom_site_fract_x
_atom_site_fract_y
_atom_site_fract_z
Zn1	Zn	1.834947	-0.545356	-0.477741
Zn2	Zn	2.334947	-0.045356	0.022259
Zn3	Zn	1.834841	-0.384071	-0.678464
Zn4	Zn	2.334841	0.115929	-0.178464
Zn5	Zn	1.634237	-0.384081	-0.477796
Zn6	Zn	2.134237	0.115919	0.022204
Zn7	Zn	1.634240	-0.545330	-0.678384
Zn8	Zn	2.134240	-0.045330	-0.178384
O9	O	1.734567	-0.464709	-0.578096
O10	O	2.234567	0.035291	-0.078096
O11	O	2.002883	-0.523968	-0.504377
O12	O	2.502883	-0.023968	-0.004377
O13	O	1.808185	-0.249091	-0.651902
O14	O	2.308185	0.250909	-0.151902
O15	O	1.660905	-0.405490	-0.309839
O16	O	2.160905	0.094510	0.190161
O17	O	2.002805	-0.405473	-0.651848
O18	O	2.502805	0.094527	-0.151848
O19	O	1.808366	-0.523978	-0.309798
O20	O	2.308366	-0.023978	0.190202
O21	O	1.660802	-0.249098	-0.504472
O22	O	2.160802	0.250902	-0.004472
O23	O	1.466288	-0.405464	-0.504395
O24	O	1.966288	0.094536	-0.004395
O25	O	1.660910	-0.680315	-0.651711
O26	O	2.160910	-0.180315	-0.151711
O27	O	1.466290	-0.523933	-0.651765
O28	O	1.966290	-0.023933	-0.151765
O29	O	1.808369	-0.680334	-0.504300
O30	O	2.308369	-0.180334	-0.004300
O31	O	1.808188	-0.405447	-0.846403
O32	O	2.308188	0.094553	-0.346403
O33	O	1.660807	-0.523923	-0.846344
O34	O	2.160807	-0.023923	-0.346344
C35	C	1.422742	-0.464697	-0.578078
C36	C	1.922742	0.035303	-0.078078
C37	C	1.289342	-0.464715	-0.578099
C38	C	1.789342	0.035285	-0.078099
C39	C	1.734652	-0.716303	-0.577990
C40	C	2.234652	-0.216303	-0.077990
C41	C	1.734688	-0.823517	-0.577945
C42	C	2.234688	-0.323517	-0.077945
C43	C	1.734721	-1.019812	-0.577864
C44	C	2.234721	-0.519812	-0.077864
C45	C	1.734699	-0.910579	-0.577912
C46	C	2.234699	-0.410579	-0.077912
C47	C	2.047609	-0.464722	-0.578115
C48	C	2.547609	0.035278	-0.078115
C49	C	2.181009	-0.464728	-0.578123
C50	C	2.681009	0.035272	-0.078123
C51	C	1.734519	-0.464702	-0.889921
C52	C	2.234519	0.035298	-0.389921
C53	C	1.734608	-0.464731	-1.023321
C54	C	2.234608	0.035269	-0.523321
C55	C	1.734551	-0.214095	-0.578115
C56	C	2.234551	0.285905	-0.078115
C57	C	1.734747	-0.106882	-0.577822
C58	C	2.234747	0.393118	-0.077822
C59	C	1.734647	-0.464738	-0.265054
C60	C	2.234647	0.035262	0.234946
C61	C	1.734681	-0.464750	-0.131654
C62	C	2.234681	0.035250	0.368346
