data_functionalizedCrystal
_audit_creation_method	'MofGen! by Chris Wilmer'
_symmetry_space_group_name_H-M	'P1'
_symmetry_Int_Tables_number	1
_symmetry_cell_setting	triclinic
loop_
_symmetry_equiv_pos_as_xyz
  x,y,z
_cell_length_a	12.837943
_cell_length_b	10.654551
_cell_length_c	11.295483
_cell_angle_alpha	94.137679
_cell_angle_beta	85.461227
_cell_angle_gamma	89.657151
loop_
_atom_site_label
_atom_site_type_symbol
_atom_site_fract_x
_atom_site_fract_y
_atom_site_fract_z
O1	O	1.384729	0.319125	-0.098989
O2	O	1.082808	0.302984	-0.098997
O3	O	1.240710	0.129073	-0.098993
O4	O	1.226827	0.493036	-0.098993
O5	O	1.226841	0.144322	0.099057
O6	O	1.068939	0.318233	0.099054
O7	O	1.370860	0.334374	0.099061
Cu8	Cu	1.218633	0.327696	0.117141
Cu9	Cu	1.235035	0.309662	-0.117077
O10	O	1.212958	0.508285	0.099058
C11	C	1.037214	0.305156	0.000027
C12	C	0.922020	0.288893	0.000024
C13	C	0.682466	0.484399	0.000041
C14	C	0.574231	0.469124	0.000039
C15	C	0.597311	0.243072	0.000026
C16	C	0.705546	0.258346	0.000028
C17	C	0.748120	0.379013	0.000034
C18	C	0.856358	0.394286	0.000028
C19	C	0.879435	0.168235	0.000023
C20	C	0.771200	0.152961	0.000021
C21	C	1.232756	0.089788	0.000029
C22	C	1.229706	-0.049989	0.000021
C23	C	1.235835	-0.123969	-0.107934
C24	C	1.232960	-0.255303	-0.107929
C25	C	1.217830	-0.238664	0.107997
C26	C	1.220698	-0.107332	0.107990
C27	C	1.244843	-0.066625	-0.215903
C28	C	1.250973	-0.140606	-0.323867
C29	C	1.248098	-0.271940	-0.323862
C30	C	1.239092	-0.329293	-0.215893
C31	C	1.416454	0.332202	0.000035
C32	C	1.531649	0.348464	0.000030
C33	C	1.220912	0.547570	0.000033
C34	C	1.223963	0.687346	0.000033
N35	N	1.207105	0.340380	0.281877
N36	N	1.246572	0.296969	-0.281813
C37	C	1.329560	0.205593	0.531169
C38	C	1.320855	0.215188	0.655833
C39	C	1.180986	0.369158	0.655870
C40	C	1.189691	0.359563	0.531206
C41	C	1.263981	0.277779	0.468860
C42	C	1.272690	0.268191	0.344195
C43	C	1.132817	0.422154	0.344234
C44	C	1.124112	0.431749	0.468897
H45	H	0.736520	0.054717	0.000030
Br46	Br	1.430394	0.094622	0.446554
H47	H	0.932903	0.082422	0.000009
Br48	Br	1.263189	-0.062774	-0.470390
H49	H	1.063623	0.498333	0.519674
H50	H	1.120493	0.435735	0.706648
Br51	Br	1.212383	-0.006922	0.254503
H52	H	1.247188	0.040312	-0.215920
H53	H	0.520779	0.554941	0.000049
H54	H	1.253079	-0.332172	-0.411771
H55	H	1.210499	-0.285371	0.195900
Br56	Br	0.914138	0.558045	0.000028
H57	H	1.236736	-0.436234	-0.215897
Br58	Br	1.043823	0.520137	0.259661
H59	H	0.717131	0.582650	0.000045
Br60	Br	0.539511	0.079324	0.000039
Br61	Br	1.373516	0.157207	0.259584
H62	H	1.374255	0.156405	0.706561
