data_functionalizedCrystal
_audit_creation_method	'MofGen! by Chris Wilmer'
_symmetry_space_group_name_H-M	'P1'
_symmetry_Int_Tables_number	1
_symmetry_cell_setting	triclinic
loop_
_symmetry_equiv_pos_as_xyz
  x,y,z
_cell_length_a	12.759401
_cell_length_b	17.637651
_cell_length_c	12.759393
_cell_angle_alpha	101.248903
_cell_angle_beta	90.019676
_cell_angle_gamma	101.219778
loop_
_atom_site_label
_atom_site_type_symbol
_atom_site_fract_x
_atom_site_fract_y
_atom_site_fract_z
Zn1	Zn	1.521699	-0.314722	0.509313
Zn2	Zn	1.486058	-0.446957	0.298057
Zn3	Zn	1.345987	-0.314761	0.333641
Zn4	Zn	1.310473	-0.446900	0.473713
O5	O	1.416054	-0.380835	0.403681
O6	O	1.663990	-0.332271	0.481295
O7	O	1.467424	-0.429462	0.155745
O8	O	1.399075	-0.204114	0.386735
O9	O	1.637805	-0.429424	0.326086
O10	O	1.528169	-0.204085	0.515800
O11	O	1.364515	-0.332338	0.181889
O12	O	1.194257	-0.332282	0.352216
O13	O	1.338546	-0.429325	0.625468
O14	O	1.168165	-0.429363	0.455126
O15	O	1.493733	-0.332214	0.651623
O16	O	1.432987	-0.557591	0.291567
O17	O	1.303986	-0.557549	0.420621
C18	C	1.143091	-0.380821	0.403670
C19	C	1.026310	-0.380834	0.403685
C20	C	0.985059	-0.330338	0.484581
C21	C	0.875333	-0.330346	0.484586
C22	C	0.848117	-0.431354	0.322793
C23	C	0.957842	-0.431341	0.322785
C24	C	1.360794	-0.586258	0.348392
C25	C	1.337249	-0.674139	0.324775
C26	C	1.595603	-0.962798	0.583432
C27	C	1.573446	-1.045376	0.561221
C28	C	1.439109	-1.045513	0.426696
C29	C	1.461258	-0.962934	0.448891
C30	C	1.539506	-0.921583	0.527261
C31	C	1.405161	-0.921719	0.392721
C32	C	1.427305	-0.839147	0.414919
C33	C	1.505547	-0.797790	0.493288
C34	C	1.561650	-0.839011	0.549459
C35	C	1.326909	-0.963072	0.314357
C36	C	1.270812	-0.921856	0.258186
C37	C	1.292961	-0.839283	0.280379
C38	C	1.371202	-0.797926	0.358747
C39	C	1.236858	-0.798062	0.224207
C40	C	1.259002	-0.715490	0.246405
C41	C	1.393346	-0.715354	0.380945
C42	C	1.690084	-0.380849	0.403693
C43	C	1.806859	-0.380855	0.403698
C44	C	1.416153	-0.380759	0.677735
C45	C	1.416195	-0.380727	0.794520
C46	C	1.471559	-0.174609	0.459208
C47	C	1.495212	-0.086729	0.482871
C48	C	1.416031	-0.380853	0.130709
C49	C	1.416253	-0.380663	0.013984
C50	C	1.497009	-0.330153	0.863005
C51	C	1.497035	-0.330119	0.972738
C52	C	1.335432	-0.431239	0.945491
C53	C	1.335401	-0.431268	0.835761
H54	H	1.040804	-0.289210	0.550452
H55	H	1.562840	-0.288936	1.028495
H56	H	0.991428	-0.472462	0.256904
C57	C	1.246499	-0.486897	0.760415
C58	C	1.275287	-0.548989	0.668258
C59	C	1.186385	-0.604609	0.592911
C60	C	1.068695	-0.598138	0.609722
C61	C	1.039901	-0.536043	0.701883
C62	C	1.128803	-0.480423	0.777229
H63	H	1.362414	-0.553782	0.655810
H64	H	1.207701	-0.650576	0.524687
H65	H	1.002884	-0.639311	0.553946
H66	H	0.952774	-0.531250	0.714331
H67	H	1.107487	-0.434456	0.845453
C68	C	0.829959	-0.274802	0.573578
C69	C	0.843334	-0.281368	0.691231
C70	C	0.797962	-0.225820	0.780227
C71	C	0.739217	-0.163706	0.751572
C72	C	0.725840	-0.157137	0.633914
C73	C	0.771211	-0.212685	0.544917
H74	H	0.886823	-0.327351	0.712448
H75	H	0.807865	-0.230683	0.867325
H76	H	0.705630	-0.122586	0.817453
H77	H	0.682350	-0.111154	0.612697
H78	H	0.761308	-0.207822	0.457819
H79	H	0.792357	-0.472475	0.256928
H80	H	1.269654	-0.472390	0.979082
H81	H	1.457071	-0.681685	0.444754
H82	H	1.523575	-0.730555	0.511359
H83	H	1.659328	-0.929129	0.647241
C84	C	1.647732	-0.793513	0.635657
C85	C	1.764144	-0.804806	0.624140
C86	C	1.850224	-0.759306	0.710330
C87	C	1.819891	-0.702513	0.808037
C88	C	1.703473	-0.691218	0.819558
C89	C	1.617394	-0.736718	0.733368
H90	H	1.786603	-0.846850	0.551807
H91	H	1.936404	-0.767668	0.701801
H92	H	1.883612	-0.668832	0.871841
H93	H	1.681014	-0.649174	0.891891
H94	H	1.531214	-0.728356	0.741897
C95	C	1.353043	-1.091005	0.340489
C96	C	1.383392	-1.147792	0.242784
C97	C	1.297328	-1.193282	0.156573
C98	C	1.180916	-1.181987	0.168067
C99	C	1.150561	-1.125197	0.265777
C100	C	1.236625	-1.079707	0.351987
H101	H	1.469572	-1.156156	0.234271
H102	H	1.319799	-1.235322	0.084242
H103	H	1.117206	-1.215662	0.104249
H104	H	1.064381	-1.116833	0.274289
H105	H	1.214154	-1.037668	0.424318
H106	H	1.619118	-1.078930	0.606983
H107	H	1.207100	-0.955536	0.194380
C108	C	1.150785	-0.843555	0.138008
C109	C	1.181121	-0.900348	0.040302
C110	C	1.095047	-0.945841	-0.045897
C111	C	0.978637	-0.934542	-0.034390
C112	C	0.948295	-0.877747	0.063319
C113	C	1.034369	-0.832254	0.149519
H114	H	1.267300	-0.908715	0.031781
H115	H	1.117509	-0.987885	-0.118228
H116	H	0.914920	-0.968218	-0.098200
H117	H	0.862117	-0.869380	0.071841
H118	H	1.011908	-0.790210	0.221850
C119	C	1.197301	-0.670147	0.184616
C120	C	1.111238	-0.715629	0.098408
C121	C	1.049532	-0.670286	0.036622
C122	C	1.073889	-0.579460	0.061042
C123	C	1.159956	-0.533972	0.147254
C124	C	1.221662	-0.579316	0.209041
H125	H	1.093204	-0.782869	0.080327
H126	H	0.985819	-0.703959	-0.027198
H127	H	1.028211	-0.545894	0.015304
H128	H	1.177990	-0.466733	0.165335
H129	H	1.285374	-0.545643	0.272860
H130	H	1.308872	-1.030307	0.296296
H131	H	1.562794	-0.288997	0.829432
