data_functionalizedCrystal
_audit_creation_method	'MofGen! by Chris Wilmer'
_symmetry_space_group_name_H-M	'P1'
_symmetry_Int_Tables_number	1
_symmetry_cell_setting	triclinic
loop_
_symmetry_equiv_pos_as_xyz
  x,y,z
_cell_length_a	17.019282
_cell_length_b	17.038272
_cell_length_c	15.500227
_cell_angle_alpha	93.033254
_cell_angle_beta	91.034464
_cell_angle_gamma	87.241387
loop_
_atom_site_label
_atom_site_type_symbol
_atom_site_fract_x
_atom_site_fract_y
_atom_site_fract_z
O1	O	1.053050	0.099876	0.006537
O2	O	1.553050	0.599876	0.506537
O3	O	0.825047	0.111730	-0.010458
O4	O	1.325047	0.611730	0.489542
O5	O	0.937693	-0.008016	-0.002055
O6	O	1.437693	0.491984	0.497945
O7	O	0.940404	0.219622	-0.001866
O8	O	1.440404	0.719622	0.498134
O9	O	0.930855	-0.000778	0.141324
O10	O	1.430855	0.499222	0.641324
O11	O	0.818209	0.118968	0.132921
O12	O	1.318209	0.618968	0.632921
O13	O	1.046212	0.107114	0.149916
O14	O	1.546212	0.607114	0.649916
Cu15	Cu	0.931587	0.113702	0.154510
Cu16	Cu	1.431587	0.613702	0.654510
Cu17	Cu	0.939673	0.105142	-0.015052
Cu18	Cu	1.439673	0.605142	0.484948
O19	O	0.933566	0.226860	0.141512
O20	O	1.433566	0.726860	0.641512
C21	C	0.792311	0.114759	0.059047
C22	C	1.292311	0.614759	0.559047
C23	C	0.704954	0.112990	0.052535
C24	C	1.204954	0.612990	0.552535
C25	C	0.660191	0.116103	0.127634
C26	C	1.160191	0.616103	0.627634
C27	C	0.578110	0.114429	0.121519
C28	C	1.078110	0.614429	0.621519
C29	C	0.540794	0.109648	0.040304
C30	C	1.040794	0.609648	0.540304
C31	C	0.585563	0.106532	-0.034801
C32	C	1.085563	0.606532	0.465199
C33	C	0.667643	0.108201	-0.028684
C34	C	1.167643	0.608201	0.471316
C35	C	0.293154	0.104407	0.017927
C36	C	0.793154	0.604407	0.517927
C37	C	0.211069	0.102741	0.011816
C38	C	0.711069	0.602741	0.511816
C39	C	0.203622	0.110636	0.168136
C40	C	0.703622	0.610636	0.668136
C41	C	0.285702	0.112309	0.174245
C42	C	0.785702	0.612309	0.674245
C43	C	0.330465	0.109189	0.099141
C44	C	0.830465	0.609189	0.599141
C45	C	0.456895	0.107939	0.034051
C46	C	0.956895	0.607939	0.534051
C47	C	0.414363	0.110893	0.105395
C48	C	0.914363	0.610893	0.605395
C49	C	0.931809	-0.033532	0.069451
C50	C	1.431809	0.466468	0.569451
C51	C	0.924455	-0.120346	0.068903
C52	C	1.424455	0.379654	0.568903
C53	C	0.991975	-0.170268	0.073936
C54	C	1.491975	0.329732	0.573936
C55	C	0.985061	-0.251838	0.073413
C56	C	1.485061	0.248162	0.573413
C57	C	0.910625	-0.283485	0.067861
C58	C	1.410625	0.216515	0.567861
C59	C	0.843100	-0.233557	0.062825
C60	C	1.343100	0.266443	0.562825
C61	C	0.850016	-0.151989	0.063342
C62	C	1.350016	0.348011	0.563342
C63	C	0.886195	-0.529314	0.066029
C64	C	1.386195	-0.029314	0.566029
C65	C	0.879284	-0.610889	0.065514
C66	C	1.379284	-0.110889	0.565514
C67	C	1.021246	-0.629164	0.076100
C68	C	1.521246	-0.129164	0.576100
C69	C	1.028155	-0.547592	0.076622
C70	C	1.528155	-0.047592	0.576622
C71	C	0.960630	-0.497672	0.071581
C72	C	1.460630	0.002328	0.571581
C73	C	0.903556	-0.366863	0.067329
C74	C	1.403556	0.133137	0.567329
C75	C	0.967700	-0.414296	0.072108
C76	C	1.467700	0.085704	0.572108
C77	C	1.078949	0.104085	0.080409
C78	C	1.578949	0.604085	0.580409
C79	C	1.166306	0.105854	0.086915
C80	C	1.666306	0.605854	0.586915
C81	C	0.939450	0.252376	0.070005
C82	C	1.439450	0.752376	0.570005
C83	C	0.946805	0.339190	0.070548
C84	C	1.446805	0.839190	0.570548
N85	N	0.925905	0.119722	0.273771
N86	N	1.425905	0.619722	0.773771
N87	N	0.945360	0.099116	-0.134313
N88	N	1.445360	0.599116	0.365687
C89	C	0.973656	0.069000	0.322610
C90	C	1.473656	0.569000	0.822610
C91	C	0.969367	0.073560	0.412863
C92	C	1.469367	0.573560	0.912863
C93	C	0.917330	0.128846	0.454275
C94	C	1.417330	0.628846	0.954275
C95	C	0.869573	0.179570	0.405430
C96	C	1.369573	0.679570	0.905430
C97	C	0.873859	0.175006	0.315178
C98	C	1.373859	0.675006	0.815178
C99	C	0.901890	0.145276	0.726590
C100	C	1.401890	0.645276	1.226590
C101	C	0.897609	0.149838	0.816849
C102	C	1.397609	0.649838	1.316849
C103	C	0.997402	0.043826	0.824275
C104	C	1.497402	0.543826	1.324275
C105	C	1.001686	0.039270	0.734022
C106	C	1.501686	0.539270	1.234022
C107	C	0.953927	0.089991	0.685184
C108	C	1.453927	0.589991	1.185184
C109	C	0.912946	0.133510	0.546528
C110	C	1.412946	0.633510	1.046528
C111	C	0.958307	0.085323	0.592932
C112	C	1.458307	0.585323	1.092932
H113	H	0.444750	0.114782	0.171520
H114	H	0.944750	0.614782	0.671520
H115	H	1.008249	0.032258	0.452627
H116	H	1.508249	0.532258	0.952627
H117	H	0.842950	-0.392639	0.062811
H118	H	1.342950	0.107361	0.562811
H119	H	0.870578	0.178527	0.580254
H120	H	1.370578	0.678527	1.080254
H121	H	1.044059	-0.005748	0.700306
H122	H	1.544059	0.494252	1.200306
H123	H	1.088768	-0.521832	0.081143
H124	H	1.588768	-0.021832	0.581143
C125	C	0.840360	0.210657	0.862400
C126	C	1.340360	0.710657	1.362400
N127	N	0.797242	0.256465	0.896710
N128	N	1.297242	0.756465	1.396710
H129	H	1.040043	-0.292482	0.077513
H130	H	1.540043	0.207518	0.577513
C131	C	0.775737	-0.097074	0.057807
C132	C	1.275737	0.402926	0.557807
N133	N	0.719789	-0.055714	0.053635
N134	N	1.219789	0.444286	0.553635
H135	H	0.831211	-0.488677	0.061924
H136	H	1.331211	0.011323	0.561924
C137	C	1.095519	-0.684083	0.081637
C138	C	1.595519	-0.184083	0.581637
N139	N	1.151464	-0.725449	0.085804
N140	N	1.651464	-0.225449	0.585804
H141	H	0.818666	-0.636651	0.061008
H142	H	1.318666	-0.136651	0.561008
C143	C	0.761219	-0.268372	0.056726
C144	C	1.261219	0.231628	0.556726
N145	N	0.699545	-0.294593	0.052138
N146	N	1.199545	0.205407	0.552138
H147	H	1.016033	0.023983	0.288898
H148	H	1.516033	0.523983	0.788898
C149	C	1.049927	-0.011970	0.878003
C150	C	1.549927	0.488030	1.378003
N151	N	1.089488	-0.054000	0.918471
N152	N	1.589488	0.446000	1.418471
H153	H	0.167168	0.113174	0.229282
H154	H	0.667168	0.613174	0.729282
H155	H	1.028306	-0.388526	0.076608
H156	H	1.528306	0.111474	0.576608
H157	H	0.863004	0.186577	0.686834
H158	H	1.363004	0.686577	1.186834
C159	C	1.015539	0.024503	0.547375
C160	C	1.515539	0.524503	1.047375
N161	N	1.058647	-0.021307	0.513053
N162	N	1.558647	0.478693	1.013053
H163	H	0.827200	0.224583	0.439153
H164	H	1.327200	0.724583	0.939153
C165	C	0.701231	0.121362	0.216978
C166	C	1.201231	0.621362	0.716978
N167	N	0.732140	0.125320	0.284274
N168	N	1.232140	0.625320	0.784274
H169	H	0.834974	0.216308	0.275414
H170	H	1.334974	0.716308	0.775414
H171	H	0.541668	0.116950	0.182672
H172	H	1.041668	0.616950	0.682672
H173	H	1.052589	-0.144507	0.078462
H174	H	1.552589	0.355493	0.578462
C175	C	0.326744	0.117564	0.263588
C176	C	0.826744	0.617564	0.763588
N177	N	0.357657	0.121524	0.330883
N178	N	0.857657	0.621524	0.830883
H179	H	0.426503	0.104045	-0.032075
H180	H	0.926503	0.604045	0.467925
H181	H	0.329590	0.101864	-0.043229
H182	H	0.829590	0.601864	0.456771
C183	C	0.544513	0.101271	-0.124138
C184	C	1.044513	0.601271	0.375862
N185	N	0.513594	0.097310	-0.191429
N186	N	1.013594	0.597310	0.308571
C187	C	0.170023	0.097480	-0.077531
C188	C	0.670023	0.597480	0.422469
N189	N	0.139107	0.093519	-0.144823
N190	N	0.639107	0.593519	0.355177
H191	H	0.704088	0.105668	-0.089838
H192	H	1.204088	0.605668	0.410162
