data_functionalizedCrystal
_audit_creation_method	'MofGen! by Chris Wilmer'
_symmetry_space_group_name_H-M	'P1'
_symmetry_Int_Tables_number	1
_symmetry_cell_setting	triclinic
loop_
_symmetry_equiv_pos_as_xyz
  x,y,z
_cell_length_a	17.699083
_cell_length_b	14.044220
_cell_length_c	16.776229
_cell_angle_alpha	89.992645
_cell_angle_beta	89.998886
_cell_angle_gamma	88.235946
loop_
_atom_site_label
_atom_site_type_symbol
_atom_site_fract_x
_atom_site_fract_y
_atom_site_fract_z
O1	O	1.012346	0.119850	-0.066178
O2	O	0.793043	0.135443	-0.066204
O3	O	0.899403	-0.010330	-0.066183
O4	O	0.905986	0.265624	-0.066198
O5	O	0.899387	-0.010339	0.066393
O6	O	0.793027	0.135434	0.066372
O7	O	1.012330	0.119841	0.066399
Zn8	Zn	0.902676	0.127636	0.087435
Zn9	Zn	0.902697	0.127648	-0.087240
O10	O	0.905970	0.265615	0.066378
C11	C	0.764800	0.134880	0.000081
C12	C	0.680666	0.133204	0.000071
C13	C	0.637948	0.218769	0.000067
C14	C	0.558895	0.217189	0.000077
C15	C	0.522563	0.130041	0.000086
C16	C	0.565287	0.044469	0.000093
C17	C	0.644338	0.046050	0.000088
C18	C	0.246484	0.038089	0.000113
C19	C	0.167427	0.036514	0.000115
C20	C	0.161041	0.209227	0.000102
C21	C	0.240092	0.210809	0.000097
C22	C	0.282809	0.125237	0.000108
C23	C	0.368527	0.126952	0.000098
C24	C	0.436847	0.128325	0.000090
C25	C	0.896513	-0.045643	0.000105
C26	C	0.887917	-0.150849	0.000105
C27	C	0.872202	-0.343474	0.000091
C28	C	0.933168	-0.401248	0.000096
C29	C	0.924424	-0.508431	0.000089
C30	C	0.880945	-0.236281	0.000099
C31	C	1.040574	0.120404	0.000112
C32	C	1.124707	0.122081	0.000117
C33	C	0.908860	0.300927	0.000088
C34	C	0.917456	0.406133	0.000083
N35	N	0.902667	0.127628	0.206646
N36	N	0.902712	0.127649	-0.206452
C37	C	0.949781	0.063106	0.248372
C38	C	0.949785	0.063105	0.331825
C39	C	0.902679	0.127631	0.373549
C40	C	0.855560	0.192156	0.331817
C41	C	0.855552	0.192152	0.248366
C42	C	0.855589	0.192175	0.668364
C43	C	0.855601	0.192176	0.751821
C44	C	0.949821	0.063128	0.751822
C45	C	0.949813	0.063123	0.668372
C46	C	0.902692	0.127645	0.626647
C47	C	0.902687	0.127644	0.536159
C48	C	0.902687	0.127638	0.464036
H49	H	0.535699	-0.026488	0.000112
O50	O	1.003311	-0.364341	0.000221
C51	C	1.042826	-0.395387	0.068902
H52	H	1.017658	-0.463961	0.091781
H53	H	1.104937	-0.409120	0.053475
H54	H	1.037836	-0.338184	0.116986
O55	O	0.673117	0.303509	0.000092
C56	C	0.618457	0.378692	0.000072
H57	H	0.563045	0.352244	0.025176
H58	H	0.639063	0.439545	0.038557
H59	H	0.609064	0.405081	-0.063533
H60	H	0.126251	0.278904	0.000097
O61	O	0.802158	-0.380648	0.000122
C62	C	0.808913	-0.480942	0.000099
H63	H	0.866429	-0.504174	0.025197
H64	H	0.762344	-0.511301	0.038588
H65	H	0.803426	-0.508451	-0.063506
O66	O	0.995563	0.000332	0.207968
C67	C	1.037160	-0.056601	0.262696
H68	H	1.006066	-0.057618	0.322186
H69	H	1.043595	-0.132309	0.238596
H70	H	1.095452	-0.025916	0.271561
H71	H	0.524117	0.286865	0.000073
H72	H	0.269670	0.281773	0.000086
H73	H	0.817222	0.244712	0.634398
O74	O	0.132253	-0.048230	0.000164
C75	C	0.186906	-0.123420	0.000155
H76	H	0.242322	-0.096980	0.025250
H77	H	0.166296	-0.184271	0.038654
H78	H	0.196295	-0.149809	-0.063445
O79	O	0.288086	-0.044945	0.000147
C80	C	0.365651	-0.024872	0.000121
H81	H	0.373707	0.049556	0.025221
H82	H	0.397734	-0.079434	0.038607
H83	H	0.388231	-0.028506	-0.063485
O84	O	0.995446	0.000336	0.372389
C85	C	0.950989	-0.058064	0.420687
H86	H	0.891198	-0.059578	0.395550
H87	H	0.976788	-0.133440	0.421634
H88	H	0.949031	-0.028401	0.483931
H89	H	0.988174	0.010583	0.634402
H90	H	0.988187	0.010588	0.785804
O91	O	0.809811	0.254740	0.207707
C92	C	0.819917	0.240915	0.125105
H93	H	0.843117	0.165520	0.113717
H94	H	0.763317	0.251545	0.093395
H95	H	0.861488	0.294499	0.101410
H96	H	0.679119	-0.023626	0.000091
H97	H	0.817201	0.244692	0.365794
H98	H	0.817239	0.244723	0.785791
