data_functionalizedCrystal
_audit_creation_method	'MofGen! by Chris Wilmer'
_symmetry_space_group_name_H-M	'P1'
_symmetry_Int_Tables_number	1
_symmetry_cell_setting	triclinic
loop_
_symmetry_equiv_pos_as_xyz
  x,y,z
_cell_length_a	14.044220
_cell_length_b	14.044220
_cell_length_c	13.101039
_cell_angle_alpha	86.332523
_cell_angle_beta	93.659868
_cell_angle_gamma	93.188878
loop_
_atom_site_label
_atom_site_type_symbol
_atom_site_fract_x
_atom_site_fract_y
_atom_site_fract_z
O1	O	-1.281968	-0.225348	-0.085109
O2	O	-1.031968	0.024652	0.164891
O3	O	-0.781968	0.274652	0.414891
O4	O	-0.531968	0.524652	0.664891
O5	O	-1.005298	-0.217041	-0.085135
O6	O	-0.755298	0.032959	0.164865
O7	O	-0.505298	0.282959	0.414865
O8	O	-0.255298	0.532959	0.664865
O9	O	-1.139480	-0.082860	-0.085112
O10	O	-0.889480	0.167140	0.164888
O11	O	-0.639480	0.417140	0.414888
O12	O	-0.389480	0.667140	0.664888
O13	O	-1.147787	-0.359530	-0.085132
O14	O	-0.897787	-0.109530	0.164868
O15	O	-0.647787	0.140470	0.414868
O16	O	-0.397787	0.390470	0.664868
O17	O	-1.129854	-0.092504	0.085316
O18	O	-0.879854	0.157496	0.335316
O19	O	-0.629854	0.407496	0.585316
O20	O	-0.379854	0.657496	0.835316
O21	O	-0.995673	-0.226686	0.085293
O22	O	-0.745673	0.023314	0.335293
O23	O	-0.495673	0.273314	0.585293
O24	O	-0.245673	0.523314	0.835293
O25	O	-1.272343	-0.234993	0.085319
O26	O	-1.022343	0.015007	0.335319
O27	O	-0.772343	0.265007	0.585319
O28	O	-0.522343	0.515007	0.835319
Zn29	Zn	-1.132479	-0.232371	0.112365
Zn30	Zn	-0.882479	0.017629	0.362365
Zn31	Zn	-0.632479	0.267629	0.612365
Zn32	Zn	-0.382479	0.517629	0.862365
Zn33	Zn	-1.145162	-0.219663	-0.112181
Zn34	Zn	-0.895162	0.030337	0.137819
Zn35	Zn	-0.645162	0.280337	0.387819
Zn36	Zn	-0.395162	0.530337	0.637819
O37	O	-1.138161	-0.369175	0.085296
O38	O	-0.888161	-0.119175	0.335296
O39	O	-0.638161	0.130825	0.585296
O40	O	-0.388161	0.380825	0.835296
C41	C	-1.131031	-0.052060	0.000102
C42	C	-0.881031	0.197940	0.250102
C43	C	-0.631031	0.447940	0.500102
C44	C	-0.381031	0.697940	0.750102
C45	C	-1.120187	0.054083	0.000102
C46	C	-0.870187	0.304083	0.250102
C47	C	-0.620187	0.554083	0.500102
C48	C	-0.370187	0.804083	0.750102
C49	C	-0.964864	-0.218228	0.000076
C50	C	-0.714864	0.031772	0.250076
C51	C	-0.464864	0.281772	0.500076
C52	C	-0.214864	0.531772	0.750076
C53	C	-0.858722	-0.207383	0.000066
C54	C	-0.608722	0.042617	0.250066
C55	C	-0.358722	0.292617	0.500066
C56	C	-0.108722	0.542617	0.750066
C57	C	-1.312777	-0.233806	0.000106
C58	C	-1.062777	0.016194	0.250106
C59	C	-0.812777	0.266194	0.500106
C60	C	-0.562777	0.516194	0.750106
C61	C	-1.418920	-0.244651	0.000109
C62	C	-1.168920	0.005349	0.250109
C63	C	-0.918920	0.255349	0.500109
C64	C	-0.668920	0.505349	0.750109
C65	C	-0.664383	-0.187558	0.000088
C66	C	-0.414383	0.062442	0.250088
C67	C	-0.164383	0.312442	0.500088
C68	C	0.085617	0.562442	0.750088
C69	C	-0.613253	-0.264472	0.000087
C70	C	-0.363253	-0.014472	0.250087
C71	C	-0.113253	0.235528	0.500087
C72	C	0.136747	0.485528	0.750087
C73	C	-0.505116	-0.253441	0.000099
C74	C	-0.255116	-0.003441	0.250099
C75	C	-0.005116	0.246559	0.500099
C76	C	0.244884	0.496559	0.750099
C77	C	-0.772529	-0.198587	0.000076
C78	C	-0.522529	0.051413	0.250076
C79	C	-0.272529	0.301413	0.500076
C80	C	-0.022529	0.551413	0.750076
C81	C	-1.146610	-0.399974	0.000080
C82	C	-0.896610	-0.149974	0.250080
C83	C	-0.646610	0.100026	0.500080
C84	C	-0.396610	0.350026	0.750080
C85	C	-1.157455	-0.506116	0.000073
C86	C	-0.907455	-0.256116	0.250073
C87	C	-0.657455	-0.006116	0.500073
C88	C	-0.407455	0.243884	0.750073
N89	N	-1.123831	-0.241043	0.265612
N90	N	-0.873831	0.008957	0.515612
N91	N	-0.623831	0.258957	0.765612
N92	N	-0.373831	0.508957	1.015612
C93	C	-1.100362	0.248421	0.000086
C94	C	-0.850362	0.498421	0.250086
C95	C	-0.600362	0.748421	0.500086
C96	C	-0.350362	0.998421	0.750086
C97	C	-1.177276	0.299551	0.000090
C98	C	-0.927276	0.549551	0.250090
C99	C	-0.677276	0.799551	0.500090
C100	C	-0.427276	1.049551	0.750090
C101	C	-1.166245	0.407688	0.000080
C102	C	-0.916245	0.657688	0.250080
C103	C	-0.666245	0.907688	0.500080
C104	C	-0.416245	1.157688	0.750080
C105	C	-1.111391	0.140275	0.000095
C106	C	-0.861391	0.390275	0.250095
C107	C	-0.611391	0.640275	0.500095
C108	C	-0.361391	0.890275	0.750095
N109	N	-1.153817	-0.210984	-0.265428
N110	N	-0.903817	0.039016	-0.015428
N111	N	-0.653817	0.289016	0.234572
N112	N	-0.403817	0.539016	0.484572
C113	C	-1.112065	-0.252851	0.474653
C114	C	-0.862065	-0.002851	0.724653
C115	C	-0.612065	0.247149	0.974653
C116	C	-0.362065	0.497149	1.224653
C117	C	-1.165580	-0.199179	0.525538
C118	C	-0.915580	0.050821	0.775538
C119	C	-0.665580	0.300821	1.025538
C120	C	-0.415580	0.550821	1.275538
C121	C	-1.159034	-0.205749	0.641855
C122	C	-0.909034	0.044251	0.891855
C123	C	-0.659034	0.294251	1.141855
C124	C	-0.409034	0.544251	1.391855
C125	C	-1.118610	-0.246282	0.358325
C126	C	-0.868610	0.003718	0.608325
C127	C	-0.618610	0.253718	0.858325
C128	C	-0.368610	0.503718	1.108325
H129	H	-0.650693	-0.338605	0.000077
H130	H	-0.400693	-0.088605	0.250077
H131	H	-0.150693	0.161395	0.500077
H132	H	0.099307	0.411395	0.750077
N133	N	-1.002165	0.297998	0.000081
N134	N	-0.752165	0.547998	0.250081
N135	N	-0.502165	0.797998	0.500081
N136	N	-0.252165	1.047998	0.750081
H137	H	-0.997731	0.342777	-0.063097
H138	H	-0.747731	0.592777	0.186903
H139	H	-0.497731	0.842777	0.436903
H140	H	-0.247731	1.092777	0.686903
H141	H	-0.990667	0.335581	0.063301
H142	H	-0.740667	0.585581	0.313301
H143	H	-0.490667	0.835581	0.563301
H144	H	-0.240667	1.085581	0.813301
N145	N	-0.614800	-0.089364	0.000107
N146	N	-0.364800	0.160636	0.250107
N147	N	-0.114800	0.410636	0.500107
N148	N	0.135200	0.660636	0.750107
H149	H	-0.543459	-0.095305	0.000114
H150	H	-0.293459	0.154695	0.250114
H151	H	-0.043459	0.404695	0.500114
H152	H	0.206541	0.654695	0.750114
H153	H	-0.637486	-0.049975	-0.063073
H154	H	-0.387486	0.200025	0.186927
H155	H	-0.137486	0.450025	0.436927
H156	H	0.112514	0.700025	0.686927
N157	N	-1.275476	0.249968	0.000104
N158	N	-1.025476	0.499968	0.250104
N159	N	-0.775476	0.749968	0.500104
N160	N	-0.525476	0.999968	0.750104
H161	H	-1.269542	0.178627	0.000111
H162	H	-1.019542	0.428627	0.250111
H163	H	-0.769542	0.678627	0.500111
H164	H	-0.519542	0.928627	0.750111
H165	H	-1.307713	0.265535	0.063289
H166	H	-1.057713	0.515535	0.313289
H167	H	-0.807713	0.765535	0.563289
H168	H	-0.557713	1.015535	0.813289
N169	N	-1.232785	-0.131775	0.467539
N170	N	-0.982785	0.118225	0.717539
N171	N	-0.732785	0.368225	0.967539
N172	N	-0.482785	0.618225	1.217539
H173	H	-1.227999	-0.136576	0.391463
H174	H	-0.977999	0.113424	0.641463
H175	H	-0.727999	0.363424	0.891463
H176	H	-0.477999	0.613424	1.141463
H177	H	-1.300430	-0.149499	0.486227
H178	H	-1.050430	0.100501	0.736227
H179	H	-0.800430	0.350501	0.986227
H180	H	-0.550430	0.600501	1.236227
N181	N	-1.044875	-0.320263	0.532647
N182	N	-0.794875	-0.070263	0.782647
N183	N	-0.544875	0.179737	1.032647
N184	N	-0.294875	0.429737	1.282647
H185	H	-0.977192	-0.302590	0.514050
H186	H	-0.727192	-0.052590	0.764050
H187	H	-0.477192	0.197410	1.014050
H188	H	-0.227192	0.447410	1.264050
H189	H	-1.049748	-0.315434	0.608704
H190	H	-0.799748	-0.065434	0.858704
H191	H	-0.549748	0.184566	1.108704
H192	H	-0.299748	0.434566	1.358704
