data_functionalizedCrystal
_audit_creation_method	'MofGen! by Chris Wilmer'
_symmetry_space_group_name_H-M	'P1'
_symmetry_Int_Tables_number	1
_symmetry_cell_setting	triclinic
loop_
_symmetry_equiv_pos_as_xyz
  x,y,z
_cell_length_a	11.169417
_cell_length_b	18.101395
_cell_length_c	11.169409
_cell_angle_alpha	90.035674
_cell_angle_beta	90.019824
_cell_angle_gamma	90.031983
loop_
_atom_site_label
_atom_site_type_symbol
_atom_site_fract_x
_atom_site_fract_y
_atom_site_fract_z
Zn1	Zn	1.834789	-0.294752	0.678515
Zn2	Zn	1.834606	-0.418619	0.477820
Zn3	Zn	1.634075	-0.294797	0.477849
Zn4	Zn	1.634010	-0.418558	0.678465
O5	O	1.734370	-0.356682	0.578162
O6	O	2.002715	-0.311190	0.651901
O7	O	1.807956	-0.402238	0.309874
O8	O	1.660804	-0.191159	0.504501
O9	O	2.002580	-0.402194	0.504451
O10	O	1.808268	-0.191125	0.651929
O11	O	1.660626	-0.311267	0.309896
O12	O	1.466117	-0.311208	0.504453
O13	O	1.660693	-0.402091	0.846421
O14	O	1.466069	-0.402135	0.651844
O15	O	1.808205	-0.311131	0.846458
O16	O	1.807892	-0.522244	0.504403
O17	O	1.660515	-0.522199	0.651816
C18	C	1.422545	-0.356670	0.578147
C19	C	1.289145	-0.356684	0.578169
C20	C	1.734209	-0.549092	0.578127
C21	C	1.734250	-0.631406	0.578152
C22	C	1.734514	-0.930497	0.578217
C23	C	1.642003	-0.899175	0.671195
C24	C	1.641564	-0.813557	0.670904
C25	C	1.734383	-0.782115	0.578186
C26	C	1.700132	-0.813278	0.451699
C27	C	1.699535	-0.898923	0.452255
C28	C	1.861478	-0.898837	0.610612
C29	C	1.860732	-0.813186	0.613386
C30	C	1.734311	-0.698255	0.578160
C31	C	1.734583	-1.014357	0.578234
C32	C	2.047412	-0.356694	0.578178
C33	C	2.180812	-0.356699	0.578185
C34	C	1.734462	-0.356599	0.891205
C35	C	1.734501	-0.356564	1.024605
C36	C	1.734564	-0.163520	0.578224
C37	C	1.734647	-0.081206	0.578250
C38	C	1.734347	-0.356710	0.266338
C39	C	1.734541	-0.356537	0.132938
H40	H	1.663221	-0.919714	0.765288
H41	H	1.548466	-0.920764	0.650008
H42	H	1.763992	-0.919646	0.380617
C43	C	1.954599	-0.926201	0.519138
C44	C	2.025441	-0.870177	0.443368
C45	C	2.118551	-0.897546	0.351892
C46	C	2.140818	-0.980938	0.336186
C47	C	2.069974	-1.036967	0.411959
C48	C	1.976864	-1.009599	0.503435
H49	H	2.008960	-0.808441	0.454992
H50	H	2.170994	-0.856069	0.295801
H51	H	2.209743	-1.001198	0.268470
H52	H	2.086455	-1.098704	0.400334
H53	H	1.924421	-1.051075	0.559526
H54	H	1.765392	-0.792913	0.380534
C55	C	1.958780	-0.784272	0.528568
C56	C	2.089920	-0.807923	0.546910
C57	C	2.187965	-0.779011	0.462080
C58	C	2.154869	-0.726448	0.358907
C59	C	2.023722	-0.702794	0.340559
C60	C	1.925678	-0.731706	0.425390
H61	H	2.114426	-0.846836	0.623289
H62	H	2.285048	-0.796521	0.475662
H63	H	2.227447	-0.705046	0.296110
H64	H	1.999217	-0.663881	0.264180
H65	H	1.828594	-0.714196	0.411807
H66	H	1.547455	-0.793137	0.649447
H67	H	1.608304	-0.791896	0.423764
C68	C	1.903668	-0.927930	0.733092
C69	C	1.823360	-0.980817	0.805261
C70	C	1.865533	-1.009911	0.927745
C71	C	1.988015	-0.986117	0.978060
C72	C	2.068330	-0.933227	0.905889
C73	C	2.026157	-0.904133	0.783405
H74	H	1.732685	-0.998433	0.768016
H75	H	1.806077	-1.049064	0.981170
H76	H	2.019234	-1.007654	1.068730
H77	H	2.159005	-0.915611	0.943134
H78	H	2.085612	-0.864980	0.729980
H79	H	1.606724	-0.918969	0.424813
C80	C	1.895635	-0.785657	0.739134
C81	C	1.816589	-0.804881	0.847679
C82	C	1.851484	-0.777346	0.973428
C83	C	1.965425	-0.730588	0.990632
C84	C	2.044478	-0.711361	0.882084
C85	C	2.009583	-0.738896	0.756335
H86	H	1.732237	-0.839497	0.834947
H87	H	1.792963	-0.791579	1.053783
H88	H	1.991257	-0.710205	1.083719
H89	H	2.128830	-0.676745	0.894816
H90	H	2.068103	-0.724663	0.675980
H91	H	1.662994	-0.792484	0.764693
