data_functionalizedCrystal
_audit_creation_method	'MofGen! by Chris Wilmer'
_symmetry_space_group_name_H-M	'P1'
_symmetry_Int_Tables_number	1
_symmetry_cell_setting	triclinic
loop_
_symmetry_equiv_pos_as_xyz
  x,y,z
_cell_length_a	17.699083
_cell_length_b	19.188925
_cell_length_c	16.176319
_cell_angle_alpha	89.993545
_cell_angle_beta	89.998611
_cell_angle_gamma	83.212782
loop_
_atom_site_label
_atom_site_type_symbol
_atom_site_fract_x
_atom_site_fract_y
_atom_site_fract_z
O1	O	1.003961	0.088295	-0.068630
O2	O	1.337294	0.421628	0.264703
O3	O	1.670627	0.754961	0.598037
O4	O	0.783567	0.099782	-0.068657
O5	O	1.116900	0.433115	0.264676
O6	O	1.450234	0.766449	0.598010
O7	O	0.900126	-0.007610	-0.068638
O8	O	1.233459	0.325723	0.264695
O9	O	1.566793	0.659056	0.598029
O10	O	0.887401	0.195687	-0.068649
O11	O	1.220735	0.529020	0.264684
O12	O	1.554068	0.862354	0.598018
O13	O	0.900110	-0.007617	0.068855
O14	O	1.233443	0.325716	0.402188
O15	O	1.566777	0.659049	0.735522
O16	O	0.783551	0.099775	0.068836
O17	O	1.116884	0.433109	0.402169
O18	O	1.450218	0.766442	0.735503
O19	O	1.003945	0.088288	0.068863
O20	O	1.337278	0.421621	0.402197
O21	O	1.670611	0.754955	0.735530
Cu22	Cu	0.893746	0.094031	0.081404
Cu23	Cu	1.227080	0.427364	0.414737
Cu24	Cu	1.560413	0.760698	0.748071
Cu25	Cu	0.893765	0.094039	-0.081198
Cu26	Cu	1.227099	0.427372	0.252136
Cu27	Cu	1.560432	0.760706	0.585469
O28	O	0.887386	0.195680	0.068844
O29	O	1.220719	0.529014	0.402178
O30	O	1.554052	0.862347	0.735511
C31	C	0.755362	0.099367	0.000086
C32	C	1.088696	0.432700	0.333419
C33	C	1.422029	0.766034	0.666753
C34	C	0.671346	0.098132	0.000076
C35	C	1.004679	0.431465	0.333409
C36	C	1.338013	0.764799	0.666743
C37	C	0.622641	0.161169	0.000073
C38	C	0.955974	0.494503	0.333406
C39	C	1.289307	0.827836	0.666739
C40	C	0.543699	0.160005	0.000084
C41	C	0.877032	0.493338	0.333417
C42	C	1.210366	0.826671	0.666750
C43	C	0.513464	0.095803	0.000092
C44	C	0.846797	0.429136	0.333425
C45	C	1.180131	0.762469	0.666758
C46	C	0.562176	0.032761	0.000097
C47	C	0.895509	0.366094	0.333430
C48	C	1.228842	0.699427	0.666764
C49	C	0.641116	0.033926	0.000092
C50	C	0.974449	0.367259	0.333426
C51	C	1.307782	0.700592	0.666759
C52	C	0.243819	0.028060	0.000118
C53	C	0.577152	0.361394	0.333451
C54	C	0.910485	0.694727	0.666784
C55	C	0.164872	0.026900	0.000120
C56	C	0.498206	0.360233	0.333454
C57	C	0.831539	0.693567	0.666787
C58	C	0.146402	0.154139	0.000109
C59	C	0.479735	0.487473	0.333442
C60	C	0.813069	0.820806	0.666776
C61	C	0.225342	0.155304	0.000104
C62	C	0.558676	0.488638	0.333438
C63	C	0.892009	0.821971	0.666771
C64	C	0.274047	0.092263	0.000114
C65	C	0.607380	0.425596	0.333448
C66	C	0.940713	0.758930	0.666781
C67	C	0.359644	0.093526	0.000104
C68	C	0.692978	0.426860	0.333437
C69	C	1.026311	0.760193	0.666771
C70	C	0.427868	0.094538	0.000096
C71	C	0.761201	0.427872	0.333429
C72	C	1.094535	0.761205	0.666762
C73	C	0.899707	-0.033625	0.000108
C74	C	1.233040	0.299708	0.333441
C75	C	1.566373	0.633041	0.666775
C76	C	0.898472	-0.111131	0.000106
C77	C	1.231805	0.222202	0.333439
C78	C	1.565138	0.555535	0.666773
C79	C	0.958596	-0.672834	0.000093
C80	C	1.291929	-0.339501	0.333426
C81	C	1.625262	-0.006168	0.666759
C82	C	0.959763	-0.600010	0.000100
C83	C	1.293096	-0.266676	0.333434
C84	C	1.626429	0.066657	0.666767
C85	C	0.891370	-0.555152	0.000092
C86	C	1.224703	-0.221819	0.333425
C87	C	1.558036	0.111515	0.666758
C88	C	0.821804	-0.583124	0.000096
C89	C	1.155138	-0.249791	0.333430
C90	C	1.488471	0.083543	0.666763
C91	C	0.820639	-0.655947	0.000097
C92	C	1.153973	-0.322614	0.333430
C93	C	1.487306	0.010719	0.666764
N94	N	0.841861	-0.434525	-0.046714
N95	N	1.175195	-0.101191	0.286620
N96	N	1.508528	0.232142	0.619953
N97	N	0.842973	-0.365346	-0.046716
N98	N	1.176306	-0.032013	0.286617
N99	N	1.509639	0.301321	0.619951
C100	C	0.894875	-0.335739	0.000091
C101	C	1.228209	-0.002406	0.333425
C102	C	1.561542	0.330928	0.666758
N103	N	0.945637	-0.377925	0.046891
N104	N	1.278970	-0.044592	0.380224
N105	N	1.612303	0.288742	0.713558
N106	N	0.944527	-0.447110	0.046890
N107	N	1.277861	-0.113777	0.380223
N108	N	1.611194	0.219556	0.713556
C109	C	0.892625	-0.476186	0.000091
C110	C	1.225958	-0.142853	0.333425
C111	C	1.559292	0.190480	0.666758
C112	C	0.965702	-0.228811	0.000101
C113	C	1.299035	0.104523	0.333434
C114	C	1.632368	0.437856	0.666767
C115	C	0.966866	-0.155984	0.000113
C116	C	1.300199	0.177349	0.333447
C117	C	1.633532	0.510682	0.666780
C118	C	0.828905	-0.139100	0.000101
C119	C	1.162239	0.194234	0.333435
C120	C	1.495572	0.527567	0.666768
C121	C	0.827743	-0.211925	0.000097
C122	C	1.161076	0.121409	0.333430
C123	C	1.494410	0.454742	0.666764
C124	C	0.896143	-0.256776	0.000093
C125	C	1.229477	0.076557	0.333426
C126	C	1.562810	0.409891	0.666759
C127	C	1.032149	0.088703	0.000118
C128	C	1.365482	0.422036	0.333452
C129	C	1.698816	0.755370	0.666785
C130	C	1.116166	0.089938	0.000123
C131	C	1.449499	0.423271	0.333456
C132	C	1.782832	0.756604	0.666790
C133	C	0.887805	0.221695	0.000096
C134	C	1.221138	0.555029	0.333430
C135	C	1.554472	0.888362	0.666763
C136	C	0.889040	0.299201	0.000093
C137	C	1.222373	0.632535	0.333426
C138	C	1.555706	0.965868	0.666759
N139	N	0.893739	0.094025	0.195769
N140	N	1.227072	0.427358	0.529102
N141	N	1.560405	0.760691	0.862436
N142	N	0.893779	0.094040	-0.195563
N143	N	1.227112	0.427373	0.137770
N144	N	1.560446	0.760706	0.471104
C145	C	0.945366	0.046491	0.239042
C146	C	1.278700	0.379824	0.572375
C147	C	1.612033	0.713157	0.905708
C148	C	0.945370	0.046490	0.325589
C149	C	1.278704	0.379823	0.658922
C150	C	1.612037	0.713157	0.992255
C151	C	0.893749	0.094027	0.368862
C152	C	1.227083	0.427361	0.702195
C153	C	1.560416	0.760694	1.035528
C154	C	0.842116	0.141563	0.325583
C155	C	1.175449	0.474897	0.658916
C156	C	1.508783	0.808230	0.992250
C157	C	0.842109	0.141560	0.239038
C158	C	1.175442	0.474894	0.572371
C159	C	1.508776	0.808227	0.905704
C160	C	0.842142	0.141577	0.674611
C161	C	1.175475	0.474910	1.007945
C162	C	1.508808	0.808243	1.341278
C163	C	0.842154	0.141577	0.761163
C164	C	1.175488	0.474911	1.094496
C165	C	1.508821	0.808244	1.427830
C166	C	0.945403	0.046506	0.761163
C167	C	1.278736	0.379840	1.094496
C168	C	1.612070	0.713173	1.427829
C169	C	0.945396	0.046503	0.674617
C170	C	1.278729	0.379836	1.007950
C171	C	1.612063	0.713170	1.341284
C172	C	0.893760	0.094037	0.631346
C173	C	1.227094	0.427370	0.964679
C174	C	1.560427	0.760703	1.298013
C175	C	0.893756	0.094036	0.537502
C176	C	1.227089	0.427369	0.870835
C177	C	1.560423	0.760703	1.204168
C178	C	0.893757	0.094032	0.462704
C179	C	1.227090	0.427365	0.796038
C180	C	1.560423	0.760698	1.129371
H181	H	0.647251	0.213450	0.000066
H182	H	0.980585	0.546783	0.333399
H183	H	1.313918	0.880117	0.666732
Br184	Br	0.728984	-0.522248	0.000093
Br185	Br	1.062318	-0.188914	0.333426
Br186	Br	1.395651	0.144419	0.666759
Br187	Br	0.477601	0.245559	0.000077
Br188	Br	0.810934	0.578892	0.333410
Br189	Br	1.144268	0.912226	0.666743
H190	H	0.987445	0.007800	0.796403
H191	H	1.320779	0.341133	1.129736
H192	H	1.654112	0.674466	1.463070
Br193	Br	0.772069	0.206085	0.615891
Br194	Br	1.105402	0.539419	0.949224
Br195	Br	1.438735	0.872752	1.282558
H196	H	0.140259	-0.025384	0.000128
H197	H	0.473592	0.307949	0.333461
H198	H	0.806926	0.641282	0.666794
H199	H	0.987405	0.007784	0.203815
H200	H	1.320739	0.341117	0.537148
H201	H	1.654072	0.674450	0.870481
Br202	Br	0.266371	0.242439	0.000086
Br203	Br	0.599704	0.575772	0.333419
Br204	Br	0.933038	0.909106	0.666752
Br205	Br	0.707218	-0.051628	0.000104
Br206	Br	1.040551	0.281705	0.333437
Br207	Br	1.373884	0.615039	0.666770
H208	H	1.014293	-0.709348	0.000094
H209	H	1.347626	-0.376015	0.333427
H210	H	1.680960	-0.042682	0.666760
Br211	Br	0.309908	-0.057496	0.000133
Br212	Br	0.643241	0.275837	0.333467
Br213	Br	0.976575	0.609170	0.666800
H214	H	0.800115	0.180289	0.796394
H215	H	1.133449	0.513623	1.129728
H216	H	1.466782	0.846956	1.463061
H217	H	0.106737	0.205471	0.000105
H218	H	0.440070	0.538804	0.333439
H219	H	0.773403	0.872137	0.666772
Br220	Br	0.772051	0.206075	0.384307
Br221	Br	1.105385	0.539408	0.717641
Br222	Br	1.438718	0.872742	1.050974
Br223	Br	0.521144	-0.054372	0.000116
Br224	Br	0.854477	0.278961	0.333450
Br225	Br	1.187810	0.612294	0.666783
H226	H	1.016405	-0.577237	0.000100
H227	H	1.349739	-0.243903	0.333433
H228	H	1.683072	0.089430	0.666767
Br229	Br	0.733340	-0.249879	0.000092
Br230	Br	1.066673	0.083454	0.333425
Br231	Br	1.400007	0.416787	0.666758
Br232	Br	0.726234	-0.693902	0.000098
Br233	Br	1.059568	-0.360568	0.333431
Br234	Br	1.392901	-0.027235	0.666765
Br235	Br	1.015459	-0.018009	0.615892
Br236	Br	1.348792	0.315324	0.949225
Br237	Br	1.682126	0.648657	1.282559
Br238	Br	1.058528	-0.289684	0.000097
Br239	Br	1.391861	0.043649	0.333430
Br240	Br	1.725194	0.376983	0.666764
Br241	Br	1.015435	-0.018024	0.384319
Br242	Br	1.348768	0.315310	0.717652
Br243	Br	1.682101	0.648643	1.050985
Br244	Br	1.061272	-0.118032	0.000112
Br245	Br	1.394605	0.215301	0.333445
Br246	Br	1.727938	0.548635	0.666778
Br247	Br	0.772035	0.206069	0.180310
Br248	Br	1.105368	0.539402	0.513644
Br249	Br	1.438701	0.872736	0.846977
H250	H	0.773218	-0.102577	0.000102
H251	H	1.106552	0.230756	0.333435
H252	H	1.439885	0.564090	0.666768
