data_functionalizedCrystal
_audit_creation_method	'MofGen! by Chris Wilmer'
_symmetry_space_group_name_H-M	'P1'
_symmetry_Int_Tables_number	1
_symmetry_cell_setting	triclinic
loop_
_symmetry_equiv_pos_as_xyz
  x,y,z
_cell_length_a	15.625950
_cell_length_b	14.853567
_cell_length_c	13.930277
_cell_angle_alpha	89.999243
_cell_angle_beta	71.933809
_cell_angle_gamma	96.046257
loop_
_atom_site_label
_atom_site_type_symbol
_atom_site_fract_x
_atom_site_fract_y
_atom_site_fract_z
O1	O	1.196198	-0.117782	-0.336453
O2	O	1.696198	0.382218	0.163547
O3	O	0.933776	-0.131787	-0.245129
O4	O	1.433776	0.368213	0.254871
O5	O	1.071997	0.006445	-0.293228
O6	O	1.571997	0.506445	0.206772
O7	O	1.057977	-0.256014	-0.288355
O8	O	1.557977	0.243986	0.211645
O9	O	1.071977	0.006448	-0.452883
O10	O	1.571977	0.506448	0.047117
O11	O	0.933757	-0.131784	-0.404785
O12	O	1.433757	0.368216	0.095215
O13	O	1.196179	-0.117779	-0.496108
O14	O	1.696179	0.382221	0.003892
Zn15	Zn	1.064965	-0.124781	-0.475795
Zn16	Zn	1.564965	0.375219	0.024205
Zn17	Zn	1.064990	-0.124785	-0.265443
Zn18	Zn	1.564990	0.375215	0.234557
O19	O	1.057958	-0.256011	-0.448010
O20	O	1.557958	0.243989	0.051990
C21	C	0.900182	-0.131148	-0.313270
C22	C	1.400182	0.368852	0.186730
C23	C	0.800113	-0.129237	-0.278445
C24	C	1.300113	0.370763	0.221555
C25	C	0.470851	-0.122995	-0.598933
C26	C	0.970851	0.377005	-0.098933
C27	C	0.376819	-0.121218	-0.566165
C28	C	0.876819	0.378782	-0.066165
C29	C	0.376886	-0.121222	-0.392131
C30	C	0.876886	0.378778	0.107869
C31	C	0.470920	-0.123004	-0.424885
C32	C	0.970920	0.376996	0.075115
C33	C	0.517896	-0.123889	-0.528287
C34	C	1.017896	0.376111	-0.028287
C35	C	0.517965	-0.123898	-0.354239
C36	C	1.017965	0.376102	0.145761
C37	C	0.611991	-0.125675	-0.386990
C38	C	1.111991	0.374325	0.113010
C39	C	0.658973	-0.126558	-0.490388
C40	C	1.158973	0.373442	0.009612
C41	C	0.611922	-0.125666	-0.561038
C42	C	1.111922	0.374334	-0.061038
C43	C	0.470988	-0.123006	-0.250837
C44	C	0.970988	0.376994	0.249163
C45	C	0.518033	-0.123900	-0.180191
C46	C	1.018033	0.376100	0.319809
C47	C	0.612060	-0.125683	-0.212942
C48	C	1.112060	0.374317	0.287058
C49	C	0.659042	-0.126566	-0.316340
C50	C	1.159042	0.373434	0.183660
C51	C	0.659111	-0.126575	-0.142291
C52	C	1.159111	0.373425	0.357709
C53	C	0.753138	-0.128352	-0.175043
C54	C	1.253138	0.371648	0.324957
C55	C	0.753069	-0.128343	-0.349091
C56	C	1.253069	0.371657	0.150909
C57	C	1.071352	0.040035	-0.372831
C58	C	1.571352	0.540035	0.127169
C59	C	1.069448	0.140119	-0.372161
C60	C	1.569448	0.640119	0.127839
C61	C	1.229772	-0.118418	-0.427966
C62	C	1.729772	0.381582	0.072034
C63	C	1.329842	-0.120329	-0.462784
C64	C	1.829842	0.379671	0.037216
C65	C	1.058603	-0.289601	-0.368404
C66	C	1.558603	0.210399	0.131596
C67	C	1.060506	-0.389685	-0.369069
C68	C	1.560506	0.110315	0.130931
N69	N	1.064954	-0.124778	-0.619357
N70	N	1.564954	0.375222	-0.119357
C71	C	0.979295	0.552659	-0.340806
C72	C	1.479295	1.052659	0.159194
C73	C	1.143505	0.573929	-0.397951
C74	C	1.643505	1.073929	0.102049
C75	C	1.145295	0.479895	-0.398568
C76	C	1.645295	0.979895	0.101432
C77	C	1.064084	0.422238	-0.370305
C78	C	1.564084	0.922238	0.129695
C79	C	0.981083	0.458616	-0.341425
C80	C	1.481083	0.958616	0.158575
C81	C	1.228294	0.443510	-0.427457
C82	C	1.728294	0.943510	0.072543
C83	C	1.230087	0.349471	-0.428077
C84	C	1.730087	0.849471	0.071923
C85	C	1.148875	0.291813	-0.399807
C86	C	1.648875	0.791813	0.100193
C87	C	1.065871	0.328196	-0.370924
C88	C	1.565871	0.828196	0.129076
C89	C	0.984660	0.270539	-0.342661
C90	C	1.484660	0.770539	0.157339
C91	C	0.901655	0.306920	-0.313772
C92	C	1.401655	0.806920	0.186228
C93	C	0.899871	0.400957	-0.313155
C94	C	1.399871	0.900957	0.186845
C95	C	1.150659	0.197775	-0.400424
C96	C	1.650659	0.697775	0.099576
C97	C	0.986447	0.176496	-0.343281
C98	C	1.486447	0.676496	0.156719
C99	C	1.003783	-0.185970	-1.050341
C100	C	1.503783	0.314030	-0.550341
C101	C	1.126221	-0.063593	-1.092916
C102	C	1.626221	0.436407	-0.592916
C103	C	1.126211	-0.063590	-0.992417
C104	C	1.626211	0.436410	-0.492417
C105	C	1.064986	-0.124779	-0.920874
C106	C	1.564986	0.375221	-0.420874
C107	C	1.003773	-0.185971	-0.949832
C108	C	1.503773	0.314029	-0.449832
C109	C	1.187429	-0.002406	-0.963454
C110	C	1.687429	0.497594	-0.463454
C111	C	1.187422	-0.002401	-0.862949
C112	C	1.687422	0.497599	-0.362949
C113	C	1.126192	-0.063587	-0.791403
C114	C	1.626192	0.436413	-0.291403
C115	C	1.064976	-0.124780	-0.820366
C116	C	1.564976	0.375220	-0.320366
C117	C	1.003751	-0.185969	-0.748824
C118	C	1.503751	0.314031	-0.248824
C119	C	0.942529	-0.247158	-0.777782
C120	C	1.442529	0.252842	-0.277782
C121	C	0.942543	-0.247156	-0.878286
C122	C	1.442543	0.252844	-0.378286
C123	C	1.126178	-0.063589	-0.690900
C124	C	1.626178	0.436411	-0.190900
C125	C	1.003740	-0.185969	-0.648315
C126	C	1.503740	0.314031	-0.148315
N127	N	1.065008	-0.124781	-0.121883
N128	N	1.565008	0.375219	0.378117
H129	H	0.338516	-0.120511	-0.623700
H130	H	0.838516	0.379489	-0.123700
N131	N	0.889769	0.591884	-0.309647
N132	N	1.389769	1.091884	0.190353
H133	H	0.885371	0.630425	-0.248930
H134	H	1.385371	1.130425	0.251070
H135	H	0.885410	0.630381	-0.367356
H136	H	1.385410	1.130381	0.132644
H137	H	0.338627	-0.120497	-0.307941
H138	H	0.838627	0.379503	0.192059
H139	H	1.297675	0.319858	-0.451599
H140	H	1.797675	0.819858	0.048401
N141	N	1.253439	0.063605	-1.040608
N142	N	1.753439	0.563605	-0.540608
H143	H	1.292216	0.102370	-1.007013
H144	H	1.792216	0.602370	-0.507013
H145	H	1.293336	0.029030	-1.096194
H146	H	1.793336	0.529030	-0.596194
N147	N	1.240174	0.158533	-0.431589
N148	N	1.740174	0.658533	0.068411
H149	H	1.291349	0.209328	-0.449405
H150	H	1.791349	0.709328	0.050595
H151	H	1.244505	0.119983	-0.373906
H152	H	1.744505	0.619983	0.126094
N153	N	0.876495	-0.313157	-0.700621
N154	N	1.376495	0.186843	-0.200621
H155	H	0.910985	-0.353140	-0.670920
H156	H	1.410985	0.146860	-0.170920
H157	H	0.836561	-0.278562	-0.645089
H158	H	1.336561	0.221438	-0.145089
N159	N	0.467366	-0.122937	-0.068669
N160	N	0.967366	0.377063	0.431331
H161	H	0.400661	-0.121673	-0.058639
H162	H	0.900661	0.378327	0.441361
H163	H	0.476587	-0.179093	-0.033880
H164	H	0.976587	0.320907	0.466120
H165	H	0.791441	-0.129084	-0.117515
H166	H	1.291441	0.370916	0.382485
H167	H	1.237271	0.047423	-0.839378
H168	H	1.737271	0.547423	-0.339378
N169	N	1.315885	0.505686	-0.457935
N170	N	1.815885	1.005686	0.042065
H171	H	1.352083	0.493973	-0.529720
H172	H	1.852083	0.993973	-0.029720
H173	H	1.302089	0.570754	-0.453092
H174	H	1.802089	1.070754	0.046908
N175	N	0.814072	0.244719	-0.283309
N176	N	1.314072	0.744719	0.216691
H177	H	0.811163	0.205221	-0.223116
H178	H	1.311163	0.705221	0.276884
H179	H	0.761261	0.282085	-0.264969
H180	H	1.261261	0.782085	0.235031
N181	N	1.231093	0.636109	-0.428448
N182	N	1.731093	1.136109	0.071552
H183	H	1.217366	0.701202	-0.423679
H184	H	1.717366	1.201202	0.076321
H185	H	1.267270	0.624325	-0.381850
H186	H	1.767270	1.124325	0.118150
H187	H	0.953881	-0.235794	-0.590067
H188	H	1.453881	0.264206	-0.090067
N189	N	0.876516	-0.313148	-0.909520
N190	N	1.376516	0.186852	-0.409520
H191	H	0.885817	-0.303864	-0.984045
H192	H	1.385817	0.196136	-0.484045
H193	H	0.887002	-0.377125	-0.895597
H194	H	1.387002	0.122875	-0.395597
H195	H	0.791317	-0.129078	-0.433291
H196	H	1.291317	0.370922	0.066709
H197	H	0.953935	-0.235787	-1.073921
H198	H	1.453935	0.264213	-0.573921
N199	N	1.192243	0.002408	-1.170072
N200	N	1.692243	0.502408	-0.670072
H201	H	1.231016	0.041174	-1.136474
H202	H	1.731016	0.541174	-0.636474
H203	H	1.232141	-0.032177	-1.225645
H204	H	1.732141	0.467823	-0.725645
H205	H	0.832292	0.430588	-0.289635
H206	H	1.332292	0.930588	0.210365
H207	H	1.176028	-0.013773	-0.667327
H208	H	1.676028	0.486227	-0.167327
H209	H	0.735536	-0.128004	-0.517052
H210	H	1.235536	0.371996	-0.017052
H211	H	0.650170	-0.126401	-0.645238
H212	H	1.150170	0.373599	-0.145238
H213	H	0.394425	-0.121564	-0.224174
H214	H	0.894425	0.378436	0.275826
N215	N	0.521527	-0.123964	-0.710459
N216	N	1.021527	0.376036	-0.210459
H217	H	0.477458	-0.123133	-0.750249
H218	H	0.977458	0.376867	-0.250249
H219	H	0.567764	-0.068858	-0.730353
H220	H	1.067764	0.431142	-0.230353
H221	H	0.620851	-0.125844	-0.058102
H222	H	1.120851	0.374156	0.441898
N223	N	0.898858	0.114305	-0.312811
N224	N	1.398858	0.614305	0.187189
H225	H	0.895945	0.074810	-0.252614
H226	H	1.395945	0.574810	0.247386
H227	H	0.846055	0.151681	-0.294473
H228	H	1.346055	0.651681	0.205527
