data_functionalizedCrystal
_audit_creation_method	'MofGen! by Chris Wilmer'
_symmetry_space_group_name_H-M	'P1'
_symmetry_Int_Tables_number	1
_symmetry_cell_setting	triclinic
loop_
_symmetry_equiv_pos_as_xyz
  x,y,z
_cell_length_a	19.288864
_cell_length_b	19.288865
_cell_length_c	17.766277
_cell_angle_alpha	89.989546
_cell_angle_beta	89.976755
_cell_angle_gamma	83.136245
loop_
_atom_site_label
_atom_site_type_symbol
_atom_site_fract_x
_atom_site_fract_y
_atom_site_fract_z
O1	O	-0.921353	-0.086648	0.062844
O2	O	-0.719093	-0.098336	0.062794
O3	O	-0.826067	0.008638	0.062806
O4	O	-0.814379	-0.193622	0.062832
O5	O	-0.826048	0.008641	-0.062383
O6	O	-0.719074	-0.098333	-0.062395
O7	O	-0.921334	-0.086645	-0.062344
Cu8	Cu	-0.820202	-0.092489	-0.073800
Cu9	Cu	-0.820225	-0.092492	0.074250
O10	O	-0.814359	-0.193619	-0.062356
C11	C	-0.693207	-0.097959	0.000193
C12	C	-0.616103	-0.096830	0.000173
C13	C	-0.825682	0.034516	0.000209
C14	C	-0.824553	0.111620	0.000202
C15	C	-0.947220	-0.087022	0.000258
C16	C	-1.024324	-0.088151	0.000283
C17	C	-0.571407	-0.159598	0.000193
C18	C	-0.498960	-0.158537	0.000201
C19	C	-0.471212	-0.094705	0.000205
C20	C	-0.515918	-0.031929	0.000180
C21	C	-0.588364	-0.032991	0.000164
C22	C	-0.362957	-0.044527	0.044082
C23	C	-0.290512	-0.043467	0.044103
C24	C	-0.247767	-0.091425	0.000250
C25	C	-0.277473	-0.140455	-0.043614
C26	C	-0.349918	-0.141518	-0.043630
C27	C	-0.392658	-0.093546	0.000221
C28	C	-0.124514	-0.153047	0.000278
C29	C	-0.052066	-0.151984	0.000281
C30	C	-0.069026	-0.025374	0.000267
C31	C	-0.141473	-0.026439	0.000256
C32	C	-0.169212	-0.090278	0.000265
C33	C	-0.814745	-0.219497	0.000242
C34	C	-0.815874	-0.296601	0.000254
N35	N	-0.820191	-0.092486	-0.177931
C36	C	-0.887321	0.156316	0.000214
C37	C	-0.886260	0.228763	0.000226
C38	C	-0.822428	0.256511	0.000210
C39	C	-0.759652	0.211805	0.000203
C40	C	-0.760714	0.139359	0.000198
C41	C	-0.772241	0.364799	-0.043653
C42	C	-0.771182	0.437244	-0.043654
C43	C	-0.819148	0.479956	0.000226
C44	C	-0.868186	0.450217	0.044097
C45	C	-0.869249	0.377772	0.044093
C46	C	-0.821269	0.335065	0.000215
C47	C	-0.880770	0.603209	0.000252
C48	C	-0.879707	0.675657	0.000268
C49	C	-0.753097	0.658697	0.000238
C50	C	-0.754162	0.586250	0.000229
C51	C	-0.818001	0.558511	0.000232
C52	C	-0.862179	-0.134509	-0.217294
C53	C	-0.862190	-0.134507	-0.296096
C54	C	-0.820200	-0.092490	-0.335531
C55	C	-0.778210	-0.050457	-0.296158
C56	C	-0.778206	-0.050455	-0.217358
C57	C	-0.757588	-0.090733	-0.460407
C58	C	-0.757591	-0.090740	-0.539206
C59	C	-0.820215	-0.092492	-0.578577
C60	C	-0.882836	-0.094251	-0.539141
C61	C	-0.882832	-0.094249	-0.460341
C62	C	-0.820201	-0.092487	-0.420977
C63	C	-0.862218	-0.134516	-0.703387
C64	C	-0.862230	-0.134509	-0.782190
C65	C	-0.778244	-0.050463	-0.782251
C66	C	-0.778238	-0.050466	-0.703449
C67	C	-0.820224	-0.092496	-0.664022
N68	N	-0.820241	-0.092490	0.178380
H69	H	-0.593987	-0.211580	0.000202
F70	F	-0.949476	-0.096121	-0.418372
F71	F	-0.955264	0.126798	0.000234
F72	F	-0.953069	0.276341	0.000239
F73	F	-0.408444	0.006521	0.090759
H74	H	-0.701123	0.681288	0.000229
F75	F	-0.919239	0.495670	0.090802
F76	F	-0.691717	0.241336	0.000191
F77	F	-0.486386	0.036006	0.000180
H78	H	-0.462561	-0.209652	0.000216
F79	F	-0.687355	0.538679	0.000213
H80	H	-0.896426	-0.168728	-0.814239
F81	F	-0.733512	-0.005729	-0.175463
H82	H	-0.624756	0.018124	0.000148
F83	F	-0.381531	-0.193695	-0.090313
F84	F	-0.690943	-0.088874	-0.581170
H85	H	-0.744056	-0.016250	-0.814358
H86	H	-0.744044	-0.016248	-0.671399
F87	F	-0.690937	-0.088822	-0.418512
F88	F	-0.921434	0.346123	0.090785
F89	F	-0.693905	0.091788	0.000186
H90	H	-0.744023	-0.016245	-0.328271
F91	F	-0.154039	-0.220989	0.000281
H92	H	-0.242670	-0.179507	-0.079324
F93	F	-0.004496	-0.218794	0.000299
H94	H	-0.046435	0.026600	0.000317
H95	H	-0.932751	0.580622	0.000258
H96	H	-0.930822	0.712049	0.000282
F97	F	-0.189044	0.040368	0.000239
F98	F	-0.258903	0.008709	0.090792
F99	F	-0.721186	0.319348	-0.090361
H100	H	-0.731249	0.461451	-0.079371
H101	H	-0.896369	-0.168731	-0.185197
H102	H	-0.896381	-0.168730	-0.328152
H103	H	-0.933830	-0.095682	-0.571196
F104	F	-0.906914	-0.179235	-0.661423
