data_functionalizedCrystal
_audit_creation_method	'MofGen! by Chris Wilmer'
_symmetry_space_group_name_H-M	'P1'
_symmetry_Int_Tables_number	1
_symmetry_cell_setting	triclinic
loop_
_symmetry_equiv_pos_as_xyz
  x,y,z
_cell_length_a	12.759401
_cell_length_b	15.297327
_cell_length_c	12.759393
_cell_angle_alpha	99.642973
_cell_angle_beta	89.979062
_cell_angle_gamma	99.708126
loop_
_atom_site_label
_atom_site_type_symbol
_atom_site_fract_x
_atom_site_fract_y
_atom_site_fract_z
Zn1	Zn	1.533815	-0.359082	-0.666329
Zn2	Zn	1.503263	-0.509967	-0.521034
Zn3	Zn	1.358104	-0.359130	-0.490674
Zn4	Zn	1.327675	-0.509904	-0.696658
O5	O	1.430714	-0.434521	-0.593674
O6	O	1.676782	-0.379103	-0.647069
O7	O	1.483956	-0.490005	-0.369995
O8	O	1.406934	-0.232878	-0.488577
O9	O	1.654335	-0.489958	-0.540320
O10	O	1.536028	-0.232842	-0.617630
O11	O	1.377308	-0.379185	-0.347690
O12	O	1.207048	-0.379124	-0.517986
O13	O	1.355072	-0.489851	-0.839647
O14	O	1.184692	-0.489898	-0.669321
O15	O	1.506522	-0.379042	-0.817364
O16	O	1.454449	-0.636205	-0.569729
O17	O	1.325446	-0.636159	-0.698760
C18	C	1.157749	-0.434510	-0.593651
C19	C	1.040969	-0.434527	-0.593670
C20	C	1.383359	-0.668916	-0.640853
C21	C	1.363196	-0.769191	-0.661071
C22	C	0.974476	-0.492294	-0.672383
C23	C	0.864751	-0.492298	-0.672404
C24	C	0.888023	-0.376764	-0.514991
C25	C	0.997747	-0.376756	-0.514975
C26	C	1.575254	-1.051821	-0.449528
C27	C	1.594198	-0.957608	-0.430526
C28	C	1.536449	-0.910499	-0.488161
C29	C	1.459753	-0.957613	-0.564800
C30	C	1.440802	-1.051836	-0.583798
C31	C	1.401997	-0.910513	-0.622431
C32	C	1.325301	-0.957627	-0.699071
C33	C	1.306354	-1.051841	-0.718065
C34	C	1.364103	-1.098950	-0.660430
C35	C	1.420948	-0.816291	-0.603434
C36	C	1.286496	-0.816305	-0.737704
C37	C	1.267553	-0.910519	-0.756705
C38	C	1.704745	-0.434533	-0.593698
C39	C	1.821521	-0.434538	-0.593708
C40	C	1.430810	-0.434434	-0.867690
C41	C	1.430851	-0.434397	-0.984459
C42	C	1.478284	-0.199211	-0.546334
C43	C	1.498555	-0.098935	-0.526160
C44	C	1.509719	-0.376690	-1.027719
C45	C	1.509744	-0.376651	-1.137435
C46	C	1.352031	-0.492035	-1.160625
C47	C	1.352002	-0.492068	-1.050909
C48	C	1.430692	-0.434542	-0.320711
C49	C	1.430906	-0.434325	-0.203891
H50	H	1.009664	-0.539333	-0.736464
O51	O	1.062412	-0.320543	-0.438639
C52	C	1.137684	-0.262349	-0.486847
H53	H	1.105764	-0.256863	-0.568503
H54	H	1.215206	-0.290244	-0.496020
C55	C	1.197512	-0.175248	-0.316521
C56	C	1.158303	-0.168505	-0.416809
H57	H	1.210236	-0.117361	-0.273317
H58	H	1.146803	-0.214456	-0.284041
H59	H	1.262109	-0.198497	-0.324180
H60	H	1.093701	-0.145267	-0.409150
H61	H	1.209002	-0.129290	-0.449286
O62	O	1.230554	-0.770514	-0.793802
C63	C	1.301318	-0.715912	-0.850685
H64	H	1.378362	-0.744245	-0.862960
H65	H	1.319315	-0.644525	-0.803810
C66	C	1.155607	-0.679631	-0.944484
C67	C	1.250230	-0.714434	-0.959568
H68	H	1.124093	-0.678714	-1.011646
H69	H	1.107931	-0.716413	-0.906159
H70	H	1.170617	-0.620144	-0.905418
H71	H	1.235217	-0.773922	-0.998621
H72	H	1.297902	-0.677660	-0.997903
H73	H	1.483394	-0.777939	-0.541033
O74	O	1.586463	-0.320568	-1.179289
C75	C	1.656029	-0.269660	-1.097104
H76	H	1.652174	-0.306639	-1.026332
H77	H	1.631409	-0.201143	-1.071641
C78	C	1.775220	-0.211233	-1.224252
C79	C	1.770492	-0.256656	-1.137332
H80	H	1.845826	-0.203208	-1.249066
H81	H	1.728351	-0.245528	-1.279622
H82	H	1.754698	-0.154140	-1.203020
H83	H	1.791001	-0.313752	-1.158567
H84	H	1.817368	-0.222371	-1.081966
H85	H	1.287837	-0.538990	-1.214741
O86	O	1.586165	-0.320617	-0.963045
C87	C	1.538111	-0.262351	-0.887868
H88	H	1.452058	-0.294175	-0.877816
H89	H	1.540087	-0.195484	-0.916706
C90	C	1.704886	-0.206955	-0.792721
C91	C	1.599196	-0.246045	-0.780368
H92	H	1.742568	-0.196892	-0.726411
H93	H	1.737262	-0.246207	-0.843371
H94	H	1.706518	-0.151237	-0.816756
H95	H	1.597565	-0.301767	-0.756347
H96	H	1.566821	-0.206801	-0.729711
O97	O	1.555019	-0.818981	-0.469611
C98	C	1.635077	-0.787498	-0.389593
H99	H	1.685551	-0.841761	-0.385867
H100	H	1.596800	-0.770856	-0.309596
C101	C	1.644062	-0.635642	-0.419856
C102	C	1.706060	-0.702286	-0.415286
H103	H	1.687845	-0.583077	-0.435701
H104	H	1.590122	-0.656852	-0.473764
H105	H	1.612168	-0.621785	-0.353190
H106	H	1.737942	-0.716150	-0.481955
H107	H	1.760007	-0.681077	-0.361391
H108	H	0.810617	-0.539337	-0.736501
H109	H	1.287772	-0.539060	-1.015688
O110	O	1.668628	-0.911946	-0.355965
C111	C	1.641061	-0.935038	-0.255887
H112	H	1.586908	-1.003475	-0.267474
H113	H	1.597720	-0.882072	-0.209771
C114	C	1.809161	-0.855308	-0.178981
C115	C	1.742655	-0.939367	-0.193212
H116	H	1.871828	-0.857974	-0.140317
H117	H	1.827732	-0.839747	-0.246403
H118	H	1.773031	-0.811178	-0.140554
H119	H	1.778781	-0.983493	-0.231649
H120	H	1.724092	-0.954935	-0.125794
O121	O	1.345508	-1.190472	-0.678894
C122	C	1.238490	-1.222051	-0.658169
H123	H	1.188871	-1.167790	-0.665113
H124	H	1.232936	-1.238838	-0.574381
C125	C	1.257060	-1.373812	-0.730806
C126	C	1.196116	-1.307170	-0.739343
H127	H	1.230921	-1.426320	-0.780874
H128	H	1.329161	-1.352538	-0.744765
H129	H	1.252426	-1.387790	-0.660979
H130	H	1.200761	-1.293185	-0.809164
H131	H	1.124013	-1.328444	-0.725397
O132	O	1.231968	-1.097566	-0.792649
C133	C	1.259511	-1.074442	-0.892716
H134	H	1.348662	-1.048480	-0.892859
H135	H	1.214166	-1.019774	-0.909107
C136	C	1.120924	-1.189989	-0.979517
C137	C	1.230423	-1.158108	-0.979695
H138	H	1.102977	-1.241596	-1.033171
H139	H	1.102364	-1.205566	-0.912100
H140	H	1.083150	-1.144424	-0.993173
H141	H	1.268195	-1.203668	-0.966026
H142	H	1.248988	-1.142541	-1.047113
O143	O	1.193169	-0.956250	-0.831288
C144	C	1.220710	-0.933129	-0.931358
H145	H	1.309860	-0.907159	-0.931500
H146	H	1.175357	-0.878468	-0.947755
C147	C	1.082136	-1.048690	-1.018155
C148	C	1.191633	-1.016800	-1.018332
H149	H	1.064196	-1.100300	-1.071806
H150	H	1.063578	-1.064265	-0.950736
H151	H	1.044355	-1.003131	-1.031816
H152	H	1.229412	-1.062354	-1.004658
H153	H	1.210197	-1.001235	-1.085751
H154	H	0.852817	-0.329730	-0.450919
H155	H	1.622258	-1.090186	-0.402604
