data_functionalizedCrystal
_audit_creation_method	'MofGen! by Chris Wilmer'
_symmetry_space_group_name_H-M	'P1'
_symmetry_Int_Tables_number	1
_symmetry_cell_setting	triclinic
loop_
_symmetry_equiv_pos_as_xyz
  x,y,z
_cell_length_a	12.837943
_cell_length_b	15.538191
_cell_length_c	11.295483
_cell_angle_alpha	92.465302
_cell_angle_beta	85.461227
_cell_angle_gamma	71.050517
loop_
_atom_site_label
_atom_site_type_symbol
_atom_site_fract_x
_atom_site_fract_y
_atom_site_fract_z
O1	O	1.295381	0.231359	-0.098983
O2	O	0.997979	0.219657	-0.098991
O3	O	1.204572	0.093575	-0.098991
O4	O	1.088787	0.357441	-0.098983
O5	O	1.186434	0.104630	0.099060
O6	O	0.979840	0.230712	0.099060
O7	O	1.277242	0.242415	0.099068
Cu8	Cu	1.126885	0.237573	0.117148
Cu9	Cu	1.148336	0.224499	-0.117070
O10	O	1.070649	0.368496	0.099068
C11	C	0.951777	0.221232	0.000033
C12	C	0.841136	0.209441	0.000030
C13	C	0.546845	0.351179	0.000051
C14	C	0.442886	0.340106	0.000049
C15	C	0.529256	0.176222	0.000031
C16	C	0.633215	0.187296	0.000033
C17	C	0.642004	0.274777	0.000042
C18	C	0.745966	0.285849	0.000036
C19	C	0.832333	0.121967	0.000026
C20	C	0.728374	0.110893	0.000024
C21	C	1.207617	0.065094	0.000031
C22	C	1.243702	-0.036241	0.000020
C23	C	0.885218	-0.356209	0.000036
C24	C	0.919149	-0.451429	0.000039
C25	C	1.110005	-0.456740	0.000044
C26	C	1.076091	-0.361519	0.000035
C27	C	0.963696	-0.311261	0.000032
C28	C	1.154568	-0.316570	0.000031
C29	C	1.120655	-0.221357	0.000027
C30	C	1.008265	-0.171093	0.000028
C31	C	0.929783	-0.216048	0.000029
C32	C	1.266962	-0.366829	0.000042
C33	C	1.345439	-0.321881	0.000038
C34	C	1.311528	-0.226667	0.000026
C35	C	1.199137	-0.176402	0.000027
C36	C	1.390010	-0.181712	0.000026
C37	C	1.356097	-0.086499	0.000023
C38	C	1.165224	-0.081189	0.000024
C39	C	1.323445	0.240840	0.000041
C40	C	1.434086	0.252630	0.000037
C41	C	1.067604	0.396977	0.000044
C42	C	1.031520	0.498312	0.000047
N43	N	1.111805	0.246768	0.281884
N44	N	1.163426	0.215297	-0.281807
C45	C	1.271998	0.149051	0.531173
C46	C	1.260607	0.156007	0.655837
C47	C	1.077629	0.267632	0.655877
C48	C	1.089021	0.260676	0.531213
C49	C	1.186209	0.201384	0.468866
C50	C	1.197602	0.194433	0.344200
C51	C	1.014622	0.306053	0.344242
C52	C	1.003231	0.313009	0.468906
H53	H	0.522069	0.105004	0.000122
H54	H	1.294571	-0.444359	0.000034
H55	H	0.793696	-0.315287	0.000025
H56	H	0.721200	0.039669	0.000031
Br57	Br	0.777246	-0.147832	0.000008
H58	H	0.855233	-0.488021	0.000060
Br59	Br	1.497969	-0.390095	0.000056
H60	H	1.201517	-0.497672	0.000051
Br61	Br	0.961489	0.018270	-0.000011
H62	H	1.481521	-0.222645	0.000040
Br63	Br	0.757897	0.404571	0.000039
Br64	Br	1.377037	0.084975	0.740395
H65	H	1.420001	-0.049901	0.000021
Br66	Br	1.403902	0.068599	0.446556
H67	H	1.073702	-0.040267	0.000013
H68	H	0.998497	0.315899	0.706657
H69	H	1.276739	0.146158	0.293438
H70	H	0.554001	0.422410	0.000056
H71	H	0.980654	-0.093564	0.000032
H72	H	0.924100	0.361281	0.519684
H73	H	0.365407	0.402321	0.000060
Br74	Br	0.898195	0.377089	0.259671
