data_functionalizedCrystal
_audit_creation_method	'MofGen! by Chris Wilmer'
_symmetry_space_group_name_H-M	'P1'
_symmetry_Int_Tables_number	1
_symmetry_cell_setting	triclinic
loop_
_symmetry_equiv_pos_as_xyz
  x,y,z
_cell_length_a	16.974813
_cell_length_b	10.654545
_cell_length_c	9.730223
_cell_angle_alpha	89.997167
_cell_angle_beta	86.341041
_cell_angle_gamma	83.938073
loop_
_atom_site_label
_atom_site_type_symbol
_atom_site_fract_x
_atom_site_fract_y
_atom_site_fract_z
O1	O	0.111039	1.666114	-0.126624
O2	O	0.121623	1.300471	-0.127806
O3	O	0.001283	1.493486	-0.114413
O4	O	0.231379	1.473099	-0.140017
O5	O	0.001280	1.493473	0.114168
O6	O	0.121620	1.300458	0.100774
O7	O	0.111035	1.666102	0.101957
Zn8	Zn	0.116327	1.483278	0.137657
Zn9	Zn	0.116331	1.483294	-0.163507
O10	O	0.231375	1.473087	0.088563
C11	C	0.120845	1.253678	-0.013431
C12	C	0.118522	1.114271	-0.013174
C13	C	0.117427	1.048777	0.111547
C14	C	0.115231	0.917791	0.111792
C15	C	0.115229	0.917806	-0.137418
C16	C	0.117419	1.048790	-0.137661
C17	C	-0.028181	1.492704	0.003153
C18	C	-0.115971	1.490378	0.012913
C19	C	-0.157208	1.489295	-0.107099
C20	C	-0.239695	1.487102	-0.097924
C21	C	-0.280944	1.486000	0.031265
C22	C	-0.239700	1.487080	0.151287
C23	C	-0.157214	1.489264	0.142110
C24	C	-0.527641	1.479458	0.072070
C25	C	-0.610133	1.477277	0.081238
C26	C	-0.610122	1.477297	-0.167974
C27	C	-0.527635	1.479489	-0.177139
C28	C	-0.486398	1.480562	-0.057118
N29	N	-0.365259	1.483762	0.040646
N30	N	-0.402084	1.482791	-0.066501
C31	C	0.260840	1.473869	-0.029006
C32	C	0.348629	1.476194	-0.038775
N33	N	0.116324	1.483276	0.343194
C34	C	0.111813	1.712894	-0.012422
C35	C	0.114136	1.852302	-0.012688
N36	N	0.116329	1.483306	-0.369043
C37	C	0.063060	1.568772	0.421048
C38	C	0.063060	1.568785	0.564931
C39	C	0.169595	1.397801	0.553092
C40	C	0.169590	1.397784	0.409213
H41	H	0.114332	0.864474	-0.238771
C42	C	0.004473	1.662835	0.650565
H43	H	-0.027245	1.713751	0.590635
H44	H	-0.028708	1.617736	0.710399
H45	H	0.033231	1.715064	0.703476
H46	H	-0.643706	1.476421	-0.265689
H47	H	0.118325	1.102088	0.212912
H48	H	-0.643715	1.476374	0.186444
H49	H	0.118309	1.102117	-0.239230
H50	H	0.212964	1.328157	0.345819
H51	H	-0.123630	1.490199	-0.212299
H52	H	0.114339	0.864472	0.213353
H53	H	0.212965	1.328197	0.606859
H54	H	-0.273267	1.486225	-0.195652
C55	C	0.004462	1.662798	0.348433
H56	H	-0.027264	1.713709	0.415413
H57	H	0.033206	1.715015	0.289088
H58	H	-0.028721	1.617669	0.296017
H59	H	-0.494078	1.480357	0.169801
C60	C	-0.482266	1.480685	-0.319248
H61	H	-0.518639	1.479712	-0.389411
H62	H	-0.455713	1.554730	-0.327386
H63	H	-0.444462	1.408327	-0.328625
H64	H	-0.273291	1.486175	0.256475
C65	C	-0.111853	1.490459	0.274124
H66	H	-0.148233	1.489501	0.352380
H67	H	-0.074048	1.418114	0.275095
H68	H	-0.085305	1.564516	0.276352
