data_functionalizedCrystal
_audit_creation_method	'MofGen! by Chris Wilmer'
_symmetry_space_group_name_H-M	'P1'
_symmetry_Int_Tables_number	1
_symmetry_cell_setting	triclinic
loop_
_symmetry_equiv_pos_as_xyz
  x,y,z
_cell_length_a	10.723023
_cell_length_b	10.654550
_cell_length_c	9.198806
_cell_angle_alpha	89.997986
_cell_angle_beta	89.996513
_cell_angle_gamma	84.476225
loop_
_atom_site_label
_atom_site_type_symbol
_atom_site_fract_x
_atom_site_fract_y
_atom_site_fract_z
O1	O	1.657214	0.176142	-0.120874
O2	O	1.294065	0.193004	-0.120879
O3	O	1.483989	0.001832	-0.120871
O4	O	1.467290	0.367313	-0.120882
O5	O	1.483974	0.001832	0.120914
O6	O	1.294049	0.193003	0.120906
O7	O	1.657199	0.176142	0.120911
Cu8	Cu	1.475623	0.184572	0.142985
Cu9	Cu	1.475641	0.184573	-0.142953
O10	O	1.467275	0.367313	0.120903
C11	C	1.247557	0.191777	0.000012
C12	C	1.109002	0.188106	0.000010
C13	C	1.047222	0.186469	0.125261
C14	C	0.904018	0.182675	0.125262
C15	C	1.482755	-0.044966	0.000020
C16	C	1.479087	-0.184408	0.000015
C17	C	1.590911	-0.263911	0.000021
C18	C	1.587457	-0.394931	0.000011
C19	C	1.360344	-0.366933	-0.000006
C20	C	1.363800	-0.235915	-0.000006
C21	C	1.706199	-0.212404	0.000042
C22	C	1.818033	-0.291908	0.000049
C23	C	1.814578	-0.422928	0.000039
C24	C	1.699290	-0.474445	0.000021
C25	C	1.703707	0.177369	0.000016
C26	C	1.842262	0.181039	0.000009
C27	C	1.468508	0.414111	0.000009
C28	C	1.472177	0.553554	0.000005
N29	N	1.475619	0.184571	0.344099
N30	N	1.475654	0.184564	-0.344067
C31	C	1.555363	0.103950	0.416300
C32	C	1.555383	0.103946	0.583712
H33	H	1.709024	-0.105722	0.000054
C34	C	1.626168	-0.112907	0.630839
C35	C	1.647550	0.010757	0.667518
H36	H	1.683076	-0.170438	0.682574
H37	H	1.542699	-0.127041	0.655737
H38	H	1.638250	-0.125114	0.529327
H39	H	1.635459	0.022967	0.769029
H40	H	1.731040	0.024896	0.642630
C41	C	1.165688	-0.383407	0.124271
C42	C	1.233623	-0.423553	-0.000015
H43	H	1.087452	-0.418355	0.124261
H44	H	1.211771	-0.410638	0.208573
H45	H	1.151752	-0.293998	0.124253
H46	H	1.247567	-0.512962	0.000009
H47	H	1.187530	-0.396329	-0.084339
C48	C	1.309722	0.352291	0.329182
C49	C	1.383463	0.277747	0.427951
H50	H	1.252821	0.409809	0.380949
H51	H	1.362138	0.397839	0.269810
H52	H	1.264179	0.299777	0.269818
H53	H	1.429013	0.330260	0.487308
H54	H	1.331040	0.232196	0.487348
C55	C	1.171299	-0.171705	-0.124306
C56	C	1.240882	-0.148515	-0.000011
H57	H	1.095411	-0.117751	-0.124308
H58	H	1.218534	-0.155983	-0.208602
H59	H	1.152745	-0.257108	-0.124288
H60	H	1.259444	-0.063115	-0.000035
H61	H	1.193637	-0.164227	0.084306
C62	C	1.942470	-0.586493	-0.124266
C63	C	1.937503	-0.510318	0.000034
H64	H	2.018366	-0.640434	-0.124267
H65	H	1.873331	-0.635921	-0.124263
H66	H	1.939102	-0.534778	-0.208567
H67	H	1.940861	-0.562032	0.084336
H68	H	2.006661	-0.460885	0.000045
H69	H	1.407383	0.253596	0.593853
C70	C	1.034421	0.186117	0.385843
C71	C	1.118926	0.188360	0.270030
H72	H	1.078690	0.187274	0.475218
H73	H	0.974764	0.257881	0.380439
H74	H	0.992515	0.111659	0.380423
H75	H	1.160826	0.262823	0.275443
H76	H	1.178605	0.116589	0.275436
C77	C	1.924174	-0.103498	0.000080
C78	C	1.944752	-0.235286	0.000066
H79	H	2.002409	-0.068547	0.000098
H80	H	1.878100	-0.076276	-0.084232
H81	H	1.878073	-0.076294	0.084401
H82	H	1.990846	-0.262491	-0.084260
H83	H	1.990846	-0.262519	0.084386
C84	C	1.770576	0.031666	0.369192
C85	C	1.647544	0.010768	0.332489
H86	H	1.827492	-0.025869	0.317470
H87	H	1.785045	0.115559	0.344292
H88	H	1.782633	0.019460	0.470706
H89	H	1.635484	0.022984	0.230976
H90	H	1.633070	-0.073144	0.357379
H91	H	0.850888	0.181275	0.232493
C92	C	0.829468	0.180712	-0.260578
C93	C	0.913963	0.182946	-0.144766
H94	H	0.873742	0.181899	-0.349954
H95	H	0.787574	0.106258	-0.255173
H96	H	0.769796	0.252479	-0.255159
H97	H	0.973630	0.111174	-0.150179
H98	H	0.955877	0.257408	-0.150174
H99	H	1.696486	-0.581131	-0.000003
H100	H	1.055877	0.186695	-0.107221
